
     RDKit          3D

 28 27  0  0  0  0  0  0  0  0999 V2000
    2.9087   -1.0609   -0.6919 O   0  0  0  0  0  0  0  0  0  0  0  0
    3.0951   -0.2112    0.3639 C   0  0  0  0  0  0  0  0  0  0  0  0
    2.2242    0.9896    0.4148 C   0  0  0  0  0  0  0  0  0  0  0  0
    0.8815    0.7959    0.4851 O   0  0  0  0  0  0  0  0  0  0  0  0
    0.2780    0.1132   -0.5326 C   0  0  0  0  0  0  0  0  0  0  0  0
   -1.2378   -0.0002   -0.3146 C   0  0  0  0  0  0  0  0  0  0  0  0
   -1.8732   -0.7460   -1.4396 C   0  0  0  0  0  0  0  0  0  0  0  0
   -1.4379   -2.0262   -1.6374 O   0  0  0  0  0  0  0  0  0  0  0  0
   -1.7391    1.4495   -0.4385 C   0  0  0  0  0  0  0  0  0  0  0  0
   -1.0926    2.1652    0.5487 O   0  0  0  0  0  0  0  0  0  0  0  0
   -1.5743   -0.5663    1.0211 C   0  0  0  0  0  0  0  0  0  0  0  0
   -1.0778   -1.8273    1.2482 O   0  0  0  0  0  0  0  0  0  0  0  0
    3.7411   -1.4257   -1.0539 H   0  0  0  0  0  0  0  0  0  0  0  0
    4.1700    0.1369    0.3291 H   0  0  0  0  0  0  0  0  0  0  0  0
    3.0524   -0.8288    1.2981 H   0  0  0  0  0  0  0  0  0  0  0  0
    2.5082    1.5443    1.3604 H   0  0  0  0  0  0  0  0  0  0  0  0
    2.5236    1.7069   -0.3970 H   0  0  0  0  0  0  0  0  0  0  0  0
    0.6267   -0.9573   -0.4425 H   0  0  0  0  0  0  0  0  0  0  0  0
    0.4069    0.5248   -1.5369 H   0  0  0  0  0  0  0  0  0  0  0  0
   -1.8090   -0.1942   -2.4110 H   0  0  0  0  0  0  0  0  0  0  0  0
   -2.9819   -0.7990   -1.2346 H   0  0  0  0  0  0  0  0  0  0  0  0
   -0.7669   -2.2964   -0.9918 H   0  0  0  0  0  0  0  0  0  0  0  0
   -1.4496    1.7629   -1.4674 H   0  0  0  0  0  0  0  0  0  0  0  0
   -2.8318    1.5073   -0.3869 H   0  0  0  0  0  0  0  0  0  0  0  0
   -0.9798    3.1190    0.3401 H   0  0  0  0  0  0  0  0  0  0  0  0
   -2.6795   -0.6109    1.0910 H   0  0  0  0  0  0  0  0  0  0  0  0
   -1.2358    0.1031    1.8490 H   0  0  0  0  0  0  0  0  0  0  0  0
   -1.6491   -2.3681    1.8656 H   0  0  0  0  0  0  0  0  0  0  0  0
  1  2  1  0
  2  3  1  0
  3  4  1  0
  4  5  1  0
  5  6  1  0
  6  7  1  0
  7  8  1  0
  6  9  1  0
  9 10  1  0
  6 11  1  0
 11 12  1  0
  1 13  1  0
  2 14  1  0
  2 15  1  0
  3 16  1  0
  3 17  1  0
  5 18  1  0
  5 19  1  0
  7 20  1  0
  7 21  1  0
  8 22  1  0
  9 23  1  0
  9 24  1  0
 10 25  1  0
 11 26  1  0
 11 27  1  0
 12 28  1  0
M  END
$$$$

     RDKit          3D

 28 27  0  0  0  0  0  0  0  0999 V2000
    2.9249    1.6281    0.8946 O   0  0  0  0  0  0  0  0  0  0  0  0
    3.1216    0.7223   -0.1398 C   0  0  0  0  0  0  0  0  0  0  0  0
    2.5627   -0.6116    0.2530 C   0  0  0  0  0  0  0  0  0  0  0  0
    1.2207   -0.5829    0.5277 O   0  0  0  0  0  0  0  0  0  0  0  0
    0.4509   -0.1820   -0.5256 C   0  0  0  0  0  0  0  0  0  0  0  0
   -1.0445   -0.1821   -0.1702 C   0  0  0  0  0  0  0  0  0  0  0  0
   -1.7551    0.2795   -1.4247 C   0  0  0  0  0  0  0  0  0  0  0  0
   -3.1207    0.3046   -1.1774 O   0  0  0  0  0  0  0  0  0  0  0  0
   -1.3875   -1.5870    0.2019 C   0  0  0  0  0  0  0  0  0  0  0  0
   -2.6976   -1.8015    0.5569 O   0  0  0  0  0  0  0  0  0  0  0  0
   -1.3314    0.8164    0.9206 C   0  0  0  0  0  0  0  0  0  0  0  0
   -0.6386    0.5584    2.0924 O   0  0  0  0  0  0  0  0  0  0  0  0
    3.7220    2.1875    1.0130 H   0  0  0  0  0  0  0  0  0  0  0  0
    4.2250    0.6494   -0.3219 H   0  0  0  0  0  0  0  0  0  0  0  0
    2.6294    1.0988   -1.0368 H   0  0  0  0  0  0  0  0  0  0  0  0
    3.1660   -0.9668    1.1380 H   0  0  0  0  0  0  0  0  0  0  0  0
    2.8179   -1.3700   -0.5437 H   0  0  0  0  0  0  0  0  0  0  0  0
    0.5442   -0.8844   -1.3830 H   0  0  0  0  0  0  0  0  0  0  0  0
    0.6455    0.8532   -0.8938 H   0  0  0  0  0  0  0  0  0  0  0  0
   -1.4908   -0.3519   -2.3005 H   0  0  0  0  0  0  0  0  0  0  0  0
   -1.3793    1.3203   -1.6297 H   0  0  0  0  0  0  0  0  0  0  0  0
   -3.5124   -0.4539   -1.7172 H   0  0  0  0  0  0  0  0  0  0  0  0
   -0.7546   -1.9026    1.0571 H   0  0  0  0  0  0  0  0  0  0  0  0
   -1.0801   -2.2266   -0.6789 H   0  0  0  0  0  0  0  0  0  0  0  0
   -3.2004   -0.9989    0.7586 H   0  0  0  0  0  0  0  0  0  0  0  0
   -2.4101    0.8290    1.1661 H   0  0  0  0  0  0  0  0  0  0  0  0
   -1.0970    1.8377    0.5428 H   0  0  0  0  0  0  0  0  0  0  0  0
   -1.1310    1.0170    2.8207 H   0  0  0  0  0  0  0  0  0  0  0  0
  1  2  1  0
  2  3  1  0
  3  4  1  0
  4  5  1  0
  5  6  1  0
  6  7  1  0
  7  8  1  0
  6  9  1  0
  9 10  1  0
  6 11  1  0
 11 12  1  0
  1 13  1  0
  2 14  1  0
  2 15  1  0
  3 16  1  0
  3 17  1  0
  5 18  1  0
  5 19  1  0
  7 20  1  0
  7 21  1  0
  8 22  1  0
  9 23  1  0
  9 24  1  0
 10 25  1  0
 11 26  1  0
 11 27  1  0
 12 28  1  0
M  END
$$$$

     RDKit          3D

 28 27  0  0  0  0  0  0  0  0999 V2000
    3.0115   -0.8131    0.8992 O   0  0  0  0  0  0  0  0  0  0  0  0
    3.2461    0.1491   -0.0408 C   0  0  0  0  0  0  0  0  0  0  0  0
    2.2816    0.2676   -1.1533 C   0  0  0  0  0  0  0  0  0  0  0  0
    0.9860    0.5544   -0.8902 O   0  0  0  0  0  0  0  0  0  0  0  0
    0.3829   -0.3775   -0.1017 C   0  0  0  0  0  0  0  0  0  0  0  0
   -1.0914   -0.0789    0.1419 C   0  0  0  0  0  0  0  0  0  0  0  0
   -1.6018   -1.1868    1.0179 C   0  0  0  0  0  0  0  0  0  0  0  0
   -2.9345   -1.0760    1.3421 O   0  0  0  0  0  0  0  0  0  0  0  0
   -1.1620    1.2502    0.8639 C   0  0  0  0  0  0  0  0  0  0  0  0
   -0.4774    1.1920    2.0829 O   0  0  0  0  0  0  0  0  0  0  0  0
   -1.8551    0.0546   -1.1399 C   0  0  0  0  0  0  0  0  0  0  0  0
   -1.8251   -1.0803   -1.9288 O   0  0  0  0  0  0  0  0  0  0  0  0
    2.9716   -1.6907    0.4590 H   0  0  0  0  0  0  0  0  0  0  0  0
    3.3858    1.1608    0.4249 H   0  0  0  0  0  0  0  0  0  0  0  0
    4.2452   -0.0831   -0.4946 H   0  0  0  0  0  0  0  0  0  0  0  0
    2.4028   -0.6526   -1.7882 H   0  0  0  0  0  0  0  0  0  0  0  0
    2.6634    1.1231   -1.8035 H   0  0  0  0  0  0  0  0  0  0  0  0
    0.8427   -0.2761    0.9314 H   0  0  0  0  0  0  0  0  0  0  0  0
    0.5449   -1.4365   -0.3771 H   0  0  0  0  0  0  0  0  0  0  0  0
   -1.3681   -2.1705    0.5604 H   0  0  0  0  0  0  0  0  0  0  0  0
   -0.9777   -1.1536    1.9586 H   0  0  0  0  0  0  0  0  0  0  0  0
   -3.4744   -1.3968    0.5745 H   0  0  0  0  0  0  0  0  0  0  0  0
   -2.2421    1.4697    1.0174 H   0  0  0  0  0  0  0  0  0  0  0  0
   -0.6924    1.9983    0.1739 H   0  0  0  0  0  0  0  0  0  0  0  0
   -0.8429    1.8901    2.6878 H   0  0  0  0  0  0  0  0  0  0  0  0
   -2.8843    0.3772   -0.8787 H   0  0  0  0  0  0  0  0  0  0  0  0
   -1.4080    0.9122   -1.6995 H   0  0  0  0  0  0  0  0  0  0  0  0
   -2.1273   -0.8039   -2.8395 H   0  0  0  0  0  0  0  0  0  0  0  0
  1  2  1  0
  2  3  1  0
  3  4  1  0
  4  5  1  0
  5  6  1  0
  6  7  1  0
  7  8  1  0
  6  9  1  0
  9 10  1  0
  6 11  1  0
 11 12  1  0
  1 13  1  0
  2 14  1  0
  2 15  1  0
  3 16  1  0
  3 17  1  0
  5 18  1  0
  5 19  1  0
  7 20  1  0
  7 21  1  0
  8 22  1  0
  9 23  1  0
  9 24  1  0
 10 25  1  0
 11 26  1  0
 11 27  1  0
 12 28  1  0
M  END
$$$$

     RDKit          3D

 28 27  0  0  0  0  0  0  0  0999 V2000
    3.7871    1.5344   -0.0536 O   0  0  0  0  0  0  0  0  0  0  0  0
    3.7291    0.1546   -0.2057 C   0  0  0  0  0  0  0  0  0  0  0  0
    2.4546   -0.4214    0.3751 C   0  0  0  0  0  0  0  0  0  0  0  0
    1.3131    0.0865   -0.2200 O   0  0  0  0  0  0  0  0  0  0  0  0
    0.2196   -0.5046    0.3839 C   0  0  0  0  0  0  0  0  0  0  0  0
   -1.0984   -0.0311   -0.1801 C   0  0  0  0  0  0  0  0  0  0  0  0
   -1.1881    1.4516    0.0275 C   0  0  0  0  0  0  0  0  0  0  0  0
   -2.3750    1.9907   -0.4613 O   0  0  0  0  0  0  0  0  0  0  0  0
   -1.3136   -0.4551   -1.5947 C   0  0  0  0  0  0  0  0  0  0  0  0
   -1.2953   -1.8397   -1.6621 O   0  0  0  0  0  0  0  0  0  0  0  0
   -2.2011   -0.6640    0.6729 C   0  0  0  0  0  0  0  0  0  0  0  0
   -3.4180   -0.2376    0.1662 O   0  0  0  0  0  0  0  0  0  0  0  0
    4.5805    1.8323    0.4720 H   0  0  0  0  0  0  0  0  0  0  0  0
    3.8894   -0.1662   -1.2484 H   0  0  0  0  0  0  0  0  0  0  0  0
    4.5640   -0.2683    0.4076 H   0  0  0  0  0  0  0  0  0  0  0  0
    2.4468   -0.1433    1.4563 H   0  0  0  0  0  0  0  0  0  0  0  0
    2.4389   -1.5196    0.3403 H   0  0  0  0  0  0  0  0  0  0  0  0
    0.2861   -0.3237    1.4746 H   0  0  0  0  0  0  0  0  0  0  0  0
    0.3056   -1.6232    0.2650 H   0  0  0  0  0  0  0  0  0  0  0  0
   -1.1219    1.6330    1.1271 H   0  0  0  0  0  0  0  0  0  0  0  0
   -0.2922    1.9411   -0.4112 H   0  0  0  0  0  0  0  0  0  0  0  0
   -2.3871    2.9496   -0.1687 H   0  0  0  0  0  0  0  0  0  0  0  0
   -0.5451    0.0125   -2.2395 H   0  0  0  0  0  0  0  0  0  0  0  0
   -2.3328   -0.1329   -1.8931 H   0  0  0  0  0  0  0  0  0  0  0  0
   -2.1614   -2.2214   -1.4012 H   0  0  0  0  0  0  0  0  0  0  0  0
   -2.1341   -0.3169    1.7237 H   0  0  0  0  0  0  0  0  0  0  0  0
   -2.0816   -1.7459    0.6384 H   0  0  0  0  0  0  0  0  0  0  0  0
   -4.0690   -0.9713    0.3422 H   0  0  0  0  0  0  0  0  0  0  0  0
  1  2  1  0
  2  3  1  0
  3  4  1  0
  4  5  1  0
  5  6  1  0
  6  7  1  0
  7  8  1  0
  6  9  1  0
  9 10  1  0
  6 11  1  0
 11 12  1  0
  1 13  1  0
  2 14  1  0
  2 15  1  0
  3 16  1  0
  3 17  1  0
  5 18  1  0
  5 19  1  0
  7 20  1  0
  7 21  1  0
  8 22  1  0
  9 23  1  0
  9 24  1  0
 10 25  1  0
 11 26  1  0
 11 27  1  0
 12 28  1  0
M  END
$$$$

     RDKit          3D

 28 27  0  0  0  0  0  0  0  0999 V2000
    4.4601   -0.1322   -0.0595 O   0  0  0  0  0  0  0  0  0  0  0  0
    3.1281    0.3450   -0.1005 C   0  0  0  0  0  0  0  0  0  0  0  0
    2.3337   -0.6830   -0.8235 C   0  0  0  0  0  0  0  0  0  0  0  0
    0.9865   -0.4040   -0.9746 O   0  0  0  0  0  0  0  0  0  0  0  0
    0.3536   -0.2605    0.2292 C   0  0  0  0  0  0  0  0  0  0  0  0
   -1.1136    0.0394    0.1204 C   0  0  0  0  0  0  0  0  0  0  0  0
   -1.8461   -1.0689   -0.6109 C   0  0  0  0  0  0  0  0  0  0  0  0
   -3.2022   -0.8129   -0.7229 O   0  0  0  0  0  0  0  0  0  0  0  0
   -1.4064    1.3628   -0.5068 C   0  0  0  0  0  0  0  0  0  0  0  0
   -0.9259    1.5013   -1.7899 O   0  0  0  0  0  0  0  0  0  0  0  0
   -1.6400    0.0928    1.5507 C   0  0  0  0  0  0  0  0  0  0  0  0
   -1.4371   -1.1237    2.2013 O   0  0  0  0  0  0  0  0  0  0  0  0
    4.9290    0.3068    0.6790 H   0  0  0  0  0  0  0  0  0  0  0  0
    2.8580    0.4852    0.9623 H   0  0  0  0  0  0  0  0  0  0  0  0
    3.1508    1.3286   -0.5830 H   0  0  0  0  0  0  0  0  0  0  0  0
    2.4962   -1.6600   -0.3018 H   0  0  0  0  0  0  0  0  0  0  0  0
    2.8186   -0.8243   -1.8267 H   0  0  0  0  0  0  0  0  0  0  0  0
    0.8336    0.5345    0.8349 H   0  0  0  0  0  0  0  0  0  0  0  0
    0.4167   -1.2631    0.7466 H   0  0  0  0  0  0  0  0  0  0  0  0
   -1.4161   -1.2207   -1.6125 H   0  0  0  0  0  0  0  0  0  0  0  0
   -1.7287   -2.0340   -0.0696 H   0  0  0  0  0  0  0  0  0  0  0  0
   -3.4235   -0.6106   -1.6464 H   0  0  0  0  0  0  0  0  0  0  0  0
   -2.4944    1.5459   -0.4295 H   0  0  0  0  0  0  0  0  0  0  0  0
   -0.9256    2.1479    0.1413 H   0  0  0  0  0  0  0  0  0  0  0  0
   -1.4616    2.2454   -2.2122 H   0  0  0  0  0  0  0  0  0  0  0  0
   -1.1989    0.9048    2.1293 H   0  0  0  0  0  0  0  0  0  0  0  0
   -2.7511    0.2632    1.5564 H   0  0  0  0  0  0  0  0  0  0  0  0
   -1.7939   -1.0058    3.1187 H   0  0  0  0  0  0  0  0  0  0  0  0
  1  2  1  0
  2  3  1  0
  3  4  1  0
  4  5  1  0
  5  6  1  0
  6  7  1  0
  7  8  1  0
  6  9  1  0
  9 10  1  0
  6 11  1  0
 11 12  1  0
  1 13  1  0
  2 14  1  0
  2 15  1  0
  3 16  1  0
  3 17  1  0
  5 18  1  0
  5 19  1  0
  7 20  1  0
  7 21  1  0
  8 22  1  0
  9 23  1  0
  9 24  1  0
 10 25  1  0
 11 26  1  0
 11 27  1  0
 12 28  1  0
M  END
$$$$

     RDKit          3D

 28 27  0  0  0  0  0  0  0  0999 V2000
    4.3961   -0.6031   -0.6210 O   0  0  0  0  0  0  0  0  0  0  0  0
    3.0171   -0.8726   -0.5489 C   0  0  0  0  0  0  0  0  0  0  0  0
    2.4881   -0.1468    0.6426 C   0  0  0  0  0  0  0  0  0  0  0  0
    1.1483   -0.2921    0.8766 O   0  0  0  0  0  0  0  0  0  0  0  0
    0.3557    0.1533   -0.1625 C   0  0  0  0  0  0  0  0  0  0  0  0
   -1.1208   -0.0145    0.1153 C   0  0  0  0  0  0  0  0  0  0  0  0
   -1.4591   -1.4762    0.3425 C   0  0  0  0  0  0  0  0  0  0  0  0
   -2.8176   -1.6411    0.5993 O   0  0  0  0  0  0  0  0  0  0  0  0
   -1.8122    0.5230   -1.1216 C   0  0  0  0  0  0  0  0  0  0  0  0
   -1.4215    1.8627   -1.2330 O   0  0  0  0  0  0  0  0  0  0  0  0
   -1.5823    0.8159    1.2899 C   0  0  0  0  0  0  0  0  0  0  0  0
   -1.3585    2.1691    1.0625 O   0  0  0  0  0  0  0  0  0  0  0  0
    4.6531    0.1593   -0.0413 H   0  0  0  0  0  0  0  0  0  0  0  0
    2.5564   -0.5853   -1.4995 H   0  0  0  0  0  0  0  0  0  0  0  0
    2.9276   -1.9644   -0.4396 H   0  0  0  0  0  0  0  0  0  0  0  0
    3.0243   -0.5676    1.5419 H   0  0  0  0  0  0  0  0  0  0  0  0
    2.7324    0.9333    0.5803 H   0  0  0  0  0  0  0  0  0  0  0  0
    0.5696   -0.4796   -1.0608 H   0  0  0  0  0  0  0  0  0  0  0  0
    0.5160    1.2025   -0.4393 H   0  0  0  0  0  0  0  0  0  0  0  0
   -0.9214   -1.8319    1.2431 H   0  0  0  0  0  0  0  0  0  0  0  0
   -1.1101   -2.0954   -0.5079 H   0  0  0  0  0  0  0  0  0  0  0  0
   -3.3007   -1.5973   -0.2444 H   0  0  0  0  0  0  0  0  0  0  0  0
   -1.3803   -0.0430   -1.9913 H   0  0  0  0  0  0  0  0  0  0  0  0
   -2.9104    0.4445   -1.0699 H   0  0  0  0  0  0  0  0  0  0  0  0
   -1.2122    2.0948   -2.1770 H   0  0  0  0  0  0  0  0  0  0  0  0
   -2.6795    0.6722    1.3689 H   0  0  0  0  0  0  0  0  0  0  0  0
   -1.1395    0.4728    2.2469 H   0  0  0  0  0  0  0  0  0  0  0  0
   -2.1585    2.7075    1.2481 H   0  0  0  0  0  0  0  0  0  0  0  0
  1  2  1  0
  2  3  1  0
  3  4  1  0
  4  5  1  0
  5  6  1  0
  6  7  1  0
  7  8  1  0
  6  9  1  0
  9 10  1  0
  6 11  1  0
 11 12  1  0
  1 13  1  0
  2 14  1  0
  2 15  1  0
  3 16  1  0
  3 17  1  0
  5 18  1  0
  5 19  1  0
  7 20  1  0
  7 21  1  0
  8 22  1  0
  9 23  1  0
  9 24  1  0
 10 25  1  0
 11 26  1  0
 11 27  1  0
 12 28  1  0
M  END
$$$$

     RDKit          3D

 28 27  0  0  0  0  0  0  0  0999 V2000
    3.7377    0.7090    0.2671 O   0  0  0  0  0  0  0  0  0  0  0  0
    3.4724   -0.3037   -0.6418 C   0  0  0  0  0  0  0  0  0  0  0  0
    2.2586   -1.1232   -0.2183 C   0  0  0  0  0  0  0  0  0  0  0  0
    1.1866   -0.2531   -0.1579 O   0  0  0  0  0  0  0  0  0  0  0  0
    0.0152   -0.9043    0.2231 C   0  0  0  0  0  0  0  0  0  0  0  0
   -1.1120    0.1121    0.2670 C   0  0  0  0  0  0  0  0  0  0  0  0
   -2.3662   -0.6256    0.6828 C   0  0  0  0  0  0  0  0  0  0  0  0
   -2.5843   -1.6144   -0.2949 O   0  0  0  0  0  0  0  0  0  0  0  0
   -0.7889    1.1946    1.2892 C   0  0  0  0  0  0  0  0  0  0  0  0
   -1.8008    2.1255    1.3425 O   0  0  0  0  0  0  0  0  0  0  0  0
   -1.2737    0.6918   -1.1021 C   0  0  0  0  0  0  0  0  0  0  0  0
   -2.2723    1.6342   -1.1962 O   0  0  0  0  0  0  0  0  0  0  0  0
    4.0971    1.5264   -0.1404 H   0  0  0  0  0  0  0  0  0  0  0  0
    4.3590   -0.9824   -0.6845 H   0  0  0  0  0  0  0  0  0  0  0  0
    3.2526    0.0989   -1.6498 H   0  0  0  0  0  0  0  0  0  0  0  0
    2.0161   -1.8895   -0.9816 H   0  0  0  0  0  0  0  0  0  0  0  0
    2.4263   -1.5667    0.7763 H   0  0  0  0  0  0  0  0  0  0  0  0
   -0.1906   -1.6983   -0.5209 H   0  0  0  0  0  0  0  0  0  0  0  0
    0.2099   -1.3634    1.2128 H   0  0  0  0  0  0  0  0  0  0  0  0
   -3.2453    0.0294    0.7690 H   0  0  0  0  0  0  0  0  0  0  0  0
   -2.1638   -1.1141    1.6764 H   0  0  0  0  0  0  0  0  0  0  0  0
   -2.2520   -2.4903    0.0164 H   0  0  0  0  0  0  0  0  0  0  0  0
   -0.6305    0.7023    2.2766 H   0  0  0  0  0  0  0  0  0  0  0  0
    0.1443    1.7191    1.0072 H   0  0  0  0  0  0  0  0  0  0  0  0
   -1.6968    2.8893    0.7392 H   0  0  0  0  0  0  0  0  0  0  0  0
   -0.3158    1.2042   -1.3705 H   0  0  0  0  0  0  0  0  0  0  0  0
   -1.4059   -0.1568   -1.8123 H   0  0  0  0  0  0  0  0  0  0  0  0
   -3.0767    1.4489   -0.6908 H   0  0  0  0  0  0  0  0  0  0  0  0
  1  2  1  0
  2  3  1  0
  3  4  1  0
  4  5  1  0
  5  6  1  0
  6  7  1  0
  7  8  1  0
  6  9  1  0
  9 10  1  0
  6 11  1  0
 11 12  1  0
  1 13  1  0
  2 14  1  0
  2 15  1  0
  3 16  1  0
  3 17  1  0
  5 18  1  0
  5 19  1  0
  7 20  1  0
  7 21  1  0
  8 22  1  0
  9 23  1  0
  9 24  1  0
 10 25  1  0
 11 26  1  0
 11 27  1  0
 12 28  1  0
M  END
$$$$

     RDKit          3D

 28 27  0  0  0  0  0  0  0  0999 V2000
    3.1142    1.5589    0.6874 O   0  0  0  0  0  0  0  0  0  0  0  0
    3.0623    0.1870    0.5166 C   0  0  0  0  0  0  0  0  0  0  0  0
    2.4482   -0.2380   -0.7703 C   0  0  0  0  0  0  0  0  0  0  0  0
    1.1392    0.1699   -0.9765 O   0  0  0  0  0  0  0  0  0  0  0  0
    0.3642   -0.3543    0.0262 C   0  0  0  0  0  0  0  0  0  0  0  0
   -1.0995    0.0136   -0.1045 C   0  0  0  0  0  0  0  0  0  0  0  0
   -1.2956    1.5121   -0.0660 C   0  0  0  0  0  0  0  0  0  0  0  0
   -0.8359    2.0660    1.1260 O   0  0  0  0  0  0  0  0  0  0  0  0
   -1.8036   -0.6001    1.0863 C   0  0  0  0  0  0  0  0  0  0  0  0
   -1.6101   -1.9962    1.0314 O   0  0  0  0  0  0  0  0  0  0  0  0
   -1.6435   -0.4809   -1.4097 C   0  0  0  0  0  0  0  0  0  0  0  0
   -1.5550   -1.8580   -1.5565 O   0  0  0  0  0  0  0  0  0  0  0  0
    2.3562    1.9448    0.1585 H   0  0  0  0  0  0  0  0  0  0  0  0
    4.1503   -0.1353    0.4536 H   0  0  0  0  0  0  0  0  0  0  0  0
    2.6845   -0.3469    1.3954 H   0  0  0  0  0  0  0  0  0  0  0  0
    2.4940   -1.3690   -0.7805 H   0  0  0  0  0  0  0  0  0  0  0  0
    3.0250    0.1198   -1.6652 H   0  0  0  0  0  0  0  0  0  0  0  0
    0.7551    0.0422    1.0027 H   0  0  0  0  0  0  0  0  0  0  0  0
    0.4256   -1.4605    0.0224 H   0  0  0  0  0  0  0  0  0  0  0  0
   -0.7945    2.0079   -0.9173 H   0  0  0  0  0  0  0  0  0  0  0  0
   -2.3709    1.7282   -0.1578 H   0  0  0  0  0  0  0  0  0  0  0  0
   -0.8629    3.0527    0.9982 H   0  0  0  0  0  0  0  0  0  0  0  0
   -1.2346   -0.2684    1.9901 H   0  0  0  0  0  0  0  0  0  0  0  0
   -2.8747   -0.3390    1.1343 H   0  0  0  0  0  0  0  0  0  0  0  0
   -1.9736   -2.4361    1.8362 H   0  0  0  0  0  0  0  0  0  0  0  0
   -2.6745   -0.1488   -1.5817 H   0  0  0  0  0  0  0  0  0  0  0  0
   -1.0167   -0.0366   -2.2157 H   0  0  0  0  0  0  0  0  0  0  0  0
   -2.3731   -2.3346   -1.3096 H   0  0  0  0  0  0  0  0  0  0  0  0
  1  2  1  0
  2  3  1  0
  3  4  1  0
  4  5  1  0
  5  6  1  0
  6  7  1  0
  7  8  1  0
  6  9  1  0
  9 10  1  0
  6 11  1  0
 11 12  1  0
  1 13  1  0
  2 14  1  0
  2 15  1  0
  3 16  1  0
  3 17  1  0
  5 18  1  0
  5 19  1  0
  7 20  1  0
  7 21  1  0
  8 22  1  0
  9 23  1  0
  9 24  1  0
 10 25  1  0
 11 26  1  0
 11 27  1  0
 12 28  1  0
M  END
$$$$
