
     RDKit          3D

 24 23  0  0  0  0  0  0  0  0999 V2000
    3.7473    1.1688   -0.2059 C   0  0  0  0  0  0  0  0  0  0  0  0
    2.3229    1.1047   -0.2532 O   0  0  0  0  0  0  0  0  0  0  0  0
    1.6538   -0.0236    0.2596 C   0  0  0  0  0  0  0  0  0  0  0  0
    2.3859   -0.9226    0.7379 O   0  0  0  0  0  0  0  0  0  0  0  0
    0.2162   -0.1049    0.2200 C   0  0  0  0  0  0  0  0  0  0  0  0
   -0.5655    0.9712   -0.3473 C   0  0  0  0  0  0  0  0  0  0  0  0
    0.0154    2.0031   -0.8180 O   0  0  0  0  0  0  0  0  0  0  0  0
   -1.9478    0.9554   -0.4158 O   0  0  0  0  0  0  0  0  0  0  0  0
   -2.6049    2.0647   -0.9924 C   0  0  0  0  0  0  0  0  0  0  0  0
   -0.3865   -1.1588    0.7002 C   0  0  0  0  0  0  0  0  0  0  0  0
    0.3792   -2.2279    1.2632 N   0  0  0  0  0  0  0  0  0  0  0  0
   -1.8150   -1.2360    0.6590 N   0  0  0  0  0  0  0  0  0  0  0  0
   -2.3629   -2.1656   -0.2223 N   0  0  0  0  0  0  0  0  0  0  0  0
    4.1408    1.0575   -1.2280 H   0  0  0  0  0  0  0  0  0  0  0  0
    4.1582    0.3878    0.4902 H   0  0  0  0  0  0  0  0  0  0  0  0
    4.0235    2.1415    0.2518 H   0  0  0  0  0  0  0  0  0  0  0  0
   -2.1352    3.0112   -0.6266 H   0  0  0  0  0  0  0  0  0  0  0  0
   -3.6902    2.0642   -0.7287 H   0  0  0  0  0  0  0  0  0  0  0  0
   -2.4388    2.0135   -2.0930 H   0  0  0  0  0  0  0  0  0  0  0  0
    0.3762   -2.3273    2.3040 H   0  0  0  0  0  0  0  0  0  0  0  0
    0.9113   -2.8697    0.6381 H   0  0  0  0  0  0  0  0  0  0  0  0
   -2.3532   -0.6182    1.2656 H   0  0  0  0  0  0  0  0  0  0  0  0
   -1.7697   -2.1798   -1.0850 H   0  0  0  0  0  0  0  0  0  0  0  0
   -2.2610   -3.1091    0.2265 H   0  0  0  0  0  0  0  0  0  0  0  0
  1  2  1  0
  2  3  1  0
  3  4  2  0
  3  5  1  0
  5  6  1  0
  6  7  2  0
  6  8  1  0
  8  9  1  0
  5 10  2  3
 10 11  1  0
 10 12  1  0
 12 13  1  0
  1 14  1  0
  1 15  1  0
  1 16  1  0
  9 17  1  0
  9 18  1  0
  9 19  1  0
 11 20  1  0
 11 21  1  0
 12 22  1  0
 13 23  1  0
 13 24  1  0
M  END
$$$$

     RDKit          3D

 24 23  0  0  0  0  0  0  0  0999 V2000
    3.5569   -0.1882   -1.2295 C   0  0  0  0  0  0  0  0  0  0  0  0
    2.2435   -0.5425   -0.8353 O   0  0  0  0  0  0  0  0  0  0  0  0
    1.3255    0.4166   -0.3834 C   0  0  0  0  0  0  0  0  0  0  0  0
    1.7319    1.5937   -0.3494 O   0  0  0  0  0  0  0  0  0  0  0  0
   -0.0171    0.0173    0.0141 C   0  0  0  0  0  0  0  0  0  0  0  0
   -0.9539    1.0284    0.4799 C   0  0  0  0  0  0  0  0  0  0  0  0
   -2.1238    0.7733    0.8399 O   0  0  0  0  0  0  0  0  0  0  0  0
   -0.5801    2.3853    0.5513 O   0  0  0  0  0  0  0  0  0  0  0  0
   -1.4775    3.3631    0.9990 C   0  0  0  0  0  0  0  0  0  0  0  0
   -0.4158   -1.2311   -0.0331 C   0  0  0  0  0  0  0  0  0  0  0  0
    0.4789   -2.2270   -0.4824 N   0  0  0  0  0  0  0  0  0  0  0  0
   -1.7200   -1.6117    0.3541 N   0  0  0  0  0  0  0  0  0  0  0  0
   -2.6149   -2.1283   -0.5868 N   0  0  0  0  0  0  0  0  0  0  0  0
    3.5765    0.5766   -2.0100 H   0  0  0  0  0  0  0  0  0  0  0  0
    4.0241   -1.1184   -1.6209 H   0  0  0  0  0  0  0  0  0  0  0  0
    4.1493    0.1075   -0.3373 H   0  0  0  0  0  0  0  0  0  0  0  0
   -1.8411    3.9361    0.1195 H   0  0  0  0  0  0  0  0  0  0  0  0
   -2.3528    2.9486    1.5186 H   0  0  0  0  0  0  0  0  0  0  0  0
   -1.0153    4.1029    1.6851 H   0  0  0  0  0  0  0  0  0  0  0  0
    1.1710   -2.6330    0.1805 H   0  0  0  0  0  0  0  0  0  0  0  0
    0.4278   -2.5370   -1.4747 H   0  0  0  0  0  0  0  0  0  0  0  0
   -2.0215   -1.5092    1.3435 H   0  0  0  0  0  0  0  0  0  0  0  0
   -2.1585   -2.8547   -1.2060 H   0  0  0  0  0  0  0  0  0  0  0  0
   -3.3932   -2.6684   -0.1024 H   0  0  0  0  0  0  0  0  0  0  0  0
  1  2  1  0
  2  3  1  0
  3  4  2  0
  3  5  1  0
  5  6  1  0
  6  7  2  0
  6  8  1  0
  8  9  1  0
  5 10  2  3
 10 11  1  0
 10 12  1  0
 12 13  1  0
  1 14  1  0
  1 15  1  0
  1 16  1  0
  9 17  1  0
  9 18  1  0
  9 19  1  0
 11 20  1  0
 11 21  1  0
 12 22  1  0
 13 23  1  0
 13 24  1  0
M  END
$$$$

     RDKit          3D

 24 23  0  0  0  0  0  0  0  0999 V2000
    3.3507    1.7245   -0.3335 C   0  0  0  0  0  0  0  0  0  0  0  0
    1.9961    1.3561   -0.5050 O   0  0  0  0  0  0  0  0  0  0  0  0
    1.3750    0.4083    0.3175 C   0  0  0  0  0  0  0  0  0  0  0  0
    2.1040   -0.0923    1.2183 O   0  0  0  0  0  0  0  0  0  0  0  0
   -0.0078    0.0503    0.1215 C   0  0  0  0  0  0  0  0  0  0  0  0
   -0.7705    0.6690   -0.9309 C   0  0  0  0  0  0  0  0  0  0  0  0
   -0.2007    1.5208   -1.6650 O   0  0  0  0  0  0  0  0  0  0  0  0
   -2.1058    0.3740   -1.1789 O   0  0  0  0  0  0  0  0  0  0  0  0
   -2.7331    1.0568   -2.2457 C   0  0  0  0  0  0  0  0  0  0  0  0
   -0.5634   -0.8380    0.9040 C   0  0  0  0  0  0  0  0  0  0  0  0
   -1.9426   -1.1728    0.6828 N   0  0  0  0  0  0  0  0  0  0  0  0
    0.1613   -1.4806    1.9672 N   0  0  0  0  0  0  0  0  0  0  0  0
    0.4101   -2.8472    1.8020 N   0  0  0  0  0  0  0  0  0  0  0  0
    3.8651    1.6813   -1.3073 H   0  0  0  0  0  0  0  0  0  0  0  0
    3.8891    1.0912    0.3862 H   0  0  0  0  0  0  0  0  0  0  0  0
    3.3327    2.8068   -0.0205 H   0  0  0  0  0  0  0  0  0  0  0  0
   -3.1914    2.0032   -1.9055 H   0  0  0  0  0  0  0  0  0  0  0  0
   -3.5270    0.4021   -2.7100 H   0  0  0  0  0  0  0  0  0  0  0  0
   -1.9747    1.1905   -3.0405 H   0  0  0  0  0  0  0  0  0  0  0  0
   -2.6758   -0.7354    1.2485 H   0  0  0  0  0  0  0  0  0  0  0  0
   -2.1130   -1.8782   -0.0817 H   0  0  0  0  0  0  0  0  0  0  0  0
    0.4737   -0.9437    2.8021 H   0  0  0  0  0  0  0  0  0  0  0  0
    1.2651   -3.0171    1.2231 H   0  0  0  0  0  0  0  0  0  0  0  0
   -0.4169   -3.3297    1.3716 H   0  0  0  0  0  0  0  0  0  0  0  0
  1  2  1  0
  2  3  1  0
  3  4  2  0
  3  5  1  0
  5  6  1  0
  6  7  2  0
  6  8  1  0
  8  9  1  0
  5 10  2  3
 10 11  1  0
 10 12  1  0
 12 13  1  0
  1 14  1  0
  1 15  1  0
  1 16  1  0
  9 17  1  0
  9 18  1  0
  9 19  1  0
 11 20  1  0
 11 21  1  0
 12 22  1  0
 13 23  1  0
 13 24  1  0
M  END
$$$$

     RDKit          3D

 24 23  0  0  0  0  0  0  0  0999 V2000
    3.2913   -1.3586   -0.8196 C   0  0  0  0  0  0  0  0  0  0  0  0
    2.2665   -0.4081   -0.5413 O   0  0  0  0  0  0  0  0  0  0  0  0
    0.9771   -0.8828   -0.3725 C   0  0  0  0  0  0  0  0  0  0  0  0
    0.7561   -2.1129   -0.4681 O   0  0  0  0  0  0  0  0  0  0  0  0
   -0.1261    0.0090   -0.0872 C   0  0  0  0  0  0  0  0  0  0  0  0
   -1.4540   -0.5246    0.0818 C   0  0  0  0  0  0  0  0  0  0  0  0
   -2.4341    0.2131    0.3294 O   0  0  0  0  0  0  0  0  0  0  0  0
   -1.6619   -1.8827   -0.0301 O   0  0  0  0  0  0  0  0  0  0  0  0
   -2.9636   -2.4549    0.1303 C   0  0  0  0  0  0  0  0  0  0  0  0
    0.1177    1.3224    0.0137 C   0  0  0  0  0  0  0  0  0  0  0  0
    1.4316    1.8317   -0.1556 N   0  0  0  0  0  0  0  0  0  0  0  0
   -0.9150    2.2578    0.2916 N   0  0  0  0  0  0  0  0  0  0  0  0
   -0.8864    3.0703    1.4051 N   0  0  0  0  0  0  0  0  0  0  0  0
    3.0303   -1.9362   -1.7341 H   0  0  0  0  0  0  0  0  0  0  0  0
    4.2590   -0.8402   -0.9528 H   0  0  0  0  0  0  0  0  0  0  0  0
    3.3510   -2.0174    0.0576 H   0  0  0  0  0  0  0  0  0  0  0  0
   -3.4295   -1.9048    0.9789 H   0  0  0  0  0  0  0  0  0  0  0  0
   -3.5401   -2.3344   -0.8193 H   0  0  0  0  0  0  0  0  0  0  0  0
   -2.8966   -3.5288    0.3970 H   0  0  0  0  0  0  0  0  0  0  0  0
    2.1401    1.8110    0.5862 H   0  0  0  0  0  0  0  0  0  0  0  0
    1.6788    2.2432   -1.0781 H   0  0  0  0  0  0  0  0  0  0  0  0
   -1.7050    2.3217   -0.3674 H   0  0  0  0  0  0  0  0  0  0  0  0
   -1.2955    4.0154    1.2442 H   0  0  0  0  0  0  0  0  0  0  0  0
    0.0085    3.0910    1.9102 H   0  0  0  0  0  0  0  0  0  0  0  0
  1  2  1  0
  2  3  1  0
  3  4  2  0
  3  5  1  0
  5  6  1  0
  6  7  2  0
  6  8  1  0
  8  9  1  0
  5 10  2  3
 10 11  1  0
 10 12  1  0
 12 13  1  0
  1 14  1  0
  1 15  1  0
  1 16  1  0
  9 17  1  0
  9 18  1  0
  9 19  1  0
 11 20  1  0
 11 21  1  0
 12 22  1  0
 13 23  1  0
 13 24  1  0
M  END
$$$$

     RDKit          3D

 24 23  0  0  0  0  0  0  0  0999 V2000
    3.5979   -1.3444    1.1918 C   0  0  0  0  0  0  0  0  0  0  0  0
    2.2869   -1.1994    0.6827 O   0  0  0  0  0  0  0  0  0  0  0  0
    1.6766    0.0421    0.5047 C   0  0  0  0  0  0  0  0  0  0  0  0
    2.3727    1.0414    0.8291 O   0  0  0  0  0  0  0  0  0  0  0  0
    0.3415    0.1730   -0.0146 C   0  0  0  0  0  0  0  0  0  0  0  0
   -0.4584   -0.9712   -0.3872 C   0  0  0  0  0  0  0  0  0  0  0  0
    0.0607   -2.1246   -0.2408 O   0  0  0  0  0  0  0  0  0  0  0  0
   -1.7411   -0.8956   -0.8887 O   0  0  0  0  0  0  0  0  0  0  0  0
   -2.4058   -2.1002   -1.2111 C   0  0  0  0  0  0  0  0  0  0  0  0
   -0.1824    1.3630   -0.1612 C   0  0  0  0  0  0  0  0  0  0  0  0
    0.5760    2.5011    0.1948 N   0  0  0  0  0  0  0  0  0  0  0  0
   -1.5007    1.5772   -0.6697 N   0  0  0  0  0  0  0  0  0  0  0  0
   -2.4692    1.9760    0.2599 N   0  0  0  0  0  0  0  0  0  0  0  0
    3.6485   -2.3736    1.6312 H   0  0  0  0  0  0  0  0  0  0  0  0
    4.3762   -1.3010    0.4201 H   0  0  0  0  0  0  0  0  0  0  0  0
    3.7854   -0.6351    2.0269 H   0  0  0  0  0  0  0  0  0  0  0  0
   -3.1763   -1.9024   -2.0012 H   0  0  0  0  0  0  0  0  0  0  0  0
   -2.9670   -2.5266   -0.3544 H   0  0  0  0  0  0  0  0  0  0  0  0
   -1.7199   -2.8780   -1.5754 H   0  0  0  0  0  0  0  0  0  0  0  0
    1.3676    2.7784   -0.3962 H   0  0  0  0  0  0  0  0  0  0  0  0
    0.3389    3.0455    1.0350 H   0  0  0  0  0  0  0  0  0  0  0  0
   -1.7497    1.4507   -1.6662 H   0  0  0  0  0  0  0  0  0  0  0  0
   -3.2831    1.3498    0.1398 H   0  0  0  0  0  0  0  0  0  0  0  0
   -2.7755    2.9540    0.1007 H   0  0  0  0  0  0  0  0  0  0  0  0
  1  2  1  0
  2  3  1  0
  3  4  2  0
  3  5  1  0
  5  6  1  0
  6  7  2  0
  6  8  1  0
  8  9  1  0
  5 10  2  3
 10 11  1  0
 10 12  1  0
 12 13  1  0
  1 14  1  0
  1 15  1  0
  1 16  1  0
  9 17  1  0
  9 18  1  0
  9 19  1  0
 11 20  1  0
 11 21  1  0
 12 22  1  0
 13 23  1  0
 13 24  1  0
M  END
$$$$

     RDKit          3D

 24 23  0  0  0  0  0  0  0  0999 V2000
    3.6501   -0.3064    0.6800 C   0  0  0  0  0  0  0  0  0  0  0  0
    2.2601   -0.5710    0.5688 O   0  0  0  0  0  0  0  0  0  0  0  0
    1.3469    0.3683    0.1041 C   0  0  0  0  0  0  0  0  0  0  0  0
    1.8063    1.4900   -0.2230 O   0  0  0  0  0  0  0  0  0  0  0  0
   -0.0672    0.0483    0.0088 C   0  0  0  0  0  0  0  0  0  0  0  0
   -0.9834    1.0654   -0.4837 C   0  0  0  0  0  0  0  0  0  0  0  0
   -2.2328    0.8095   -0.5774 O   0  0  0  0  0  0  0  0  0  0  0  0
   -0.5845    2.3313   -0.8705 O   0  0  0  0  0  0  0  0  0  0  0  0
   -1.5645    3.2389   -1.3338 C   0  0  0  0  0  0  0  0  0  0  0  0
   -0.5557   -1.1255    0.3499 C   0  0  0  0  0  0  0  0  0  0  0  0
    0.3214   -2.1307    0.8324 N   0  0  0  0  0  0  0  0  0  0  0  0
   -1.9284   -1.4409    0.2590 N   0  0  0  0  0  0  0  0  0  0  0  0
   -2.3441   -2.4222   -0.6686 N   0  0  0  0  0  0  0  0  0  0  0  0
    3.8633    0.7564    0.8945 H   0  0  0  0  0  0  0  0  0  0  0  0
    4.0950   -0.8945    1.5146 H   0  0  0  0  0  0  0  0  0  0  0  0
    4.1341   -0.5511   -0.2850 H   0  0  0  0  0  0  0  0  0  0  0  0
   -1.9316    2.9105   -2.3305 H   0  0  0  0  0  0  0  0  0  0  0  0
   -2.4565    3.2814   -0.6635 H   0  0  0  0  0  0  0  0  0  0  0  0
   -1.1663    4.2601   -1.4687 H   0  0  0  0  0  0  0  0  0  0  0  0
    0.3986   -2.3342    1.8636 H   0  0  0  0  0  0  0  0  0  0  0  0
    0.9261   -2.7118    0.2053 H   0  0  0  0  0  0  0  0  0  0  0  0
   -2.6814   -0.9991    0.8337 H   0  0  0  0  0  0  0  0  0  0  0  0
   -1.5639   -3.0640   -0.9298 H   0  0  0  0  0  0  0  0  0  0  0  0
   -2.7415   -2.0084   -1.5302 H   0  0  0  0  0  0  0  0  0  0  0  0
  1  2  1  0
  2  3  1  0
  3  4  2  0
  3  5  1  0
  5  6  1  0
  6  7  2  0
  6  8  1  0
  8  9  1  0
  5 10  2  3
 10 11  1  0
 10 12  1  0
 12 13  1  0
  1 14  1  0
  1 15  1  0
  1 16  1  0
  9 17  1  0
  9 18  1  0
  9 19  1  0
 11 20  1  0
 11 21  1  0
 12 22  1  0
 13 23  1  0
 13 24  1  0
M  END
$$$$

     RDKit          3D

 24 23  0  0  0  0  0  0  0  0999 V2000
    3.5645    1.5902    0.5961 C   0  0  0  0  0  0  0  0  0  0  0  0
    2.1870    1.3379    0.3322 O   0  0  0  0  0  0  0  0  0  0  0  0
    1.7468    0.0344    0.2009 C   0  0  0  0  0  0  0  0  0  0  0  0
    2.5488   -0.9478    0.3112 O   0  0  0  0  0  0  0  0  0  0  0  0
    0.3386   -0.2007   -0.0681 C   0  0  0  0  0  0  0  0  0  0  0  0
   -0.1434   -1.5869   -0.2103 C   0  0  0  0  0  0  0  0  0  0  0  0
    0.6479   -2.5308   -0.1005 O   0  0  0  0  0  0  0  0  0  0  0  0
   -1.4782   -1.8635   -0.4673 O   0  0  0  0  0  0  0  0  0  0  0  0
   -1.9068   -3.2276   -0.5988 C   0  0  0  0  0  0  0  0  0  0  0  0
   -0.4888    0.8234   -0.1815 C   0  0  0  0  0  0  0  0  0  0  0  0
   -0.0008    2.1508   -0.0404 N   0  0  0  0  0  0  0  0  0  0  0  0
   -1.8764    0.6273   -0.4452 N   0  0  0  0  0  0  0  0  0  0  0  0
   -2.8027    1.0390    0.5164 N   0  0  0  0  0  0  0  0  0  0  0  0
    4.1001    0.6734    0.9160 H   0  0  0  0  0  0  0  0  0  0  0  0
    3.6903    2.3453    1.4042 H   0  0  0  0  0  0  0  0  0  0  0  0
    4.0092    2.0212   -0.3447 H   0  0  0  0  0  0  0  0  0  0  0  0
   -1.4522   -3.8484    0.2003 H   0  0  0  0  0  0  0  0  0  0  0  0
   -3.0134   -3.2560   -0.5664 H   0  0  0  0  0  0  0  0  0  0  0  0
   -1.5105   -3.6506   -1.5639 H   0  0  0  0  0  0  0  0  0  0  0  0
    0.2440    2.7217   -0.8952 H   0  0  0  0  0  0  0  0  0  0  0  0
    0.1191    2.5710    0.9096 H   0  0  0  0  0  0  0  0  0  0  0  0
   -2.1917    0.1803   -1.3492 H   0  0  0  0  0  0  0  0  0  0  0  0
   -3.7749    1.0124    0.1711 H   0  0  0  0  0  0  0  0  0  0  0  0
   -2.5565    1.9842    0.9252 H   0  0  0  0  0  0  0  0  0  0  0  0
  1  2  1  0
  2  3  1  0
  3  4  2  0
  3  5  1  0
  5  6  1  0
  6  7  2  0
  6  8  1  0
  8  9  1  0
  5 10  2  3
 10 11  1  0
 10 12  1  0
 12 13  1  0
  1 14  1  0
  1 15  1  0
  1 16  1  0
  9 17  1  0
  9 18  1  0
  9 19  1  0
 11 20  1  0
 11 21  1  0
 12 22  1  0
 13 23  1  0
 13 24  1  0
M  END
$$$$

     RDKit          3D

 24 23  0  0  0  0  0  0  0  0999 V2000
   -1.5271   -3.2464    0.9770 C   0  0  0  0  0  0  0  0  0  0  0  0
   -1.4588   -1.8498    0.7714 O   0  0  0  0  0  0  0  0  0  0  0  0
   -0.2420   -1.3095    0.3813 C   0  0  0  0  0  0  0  0  0  0  0  0
    0.7352   -2.1116    0.2342 O   0  0  0  0  0  0  0  0  0  0  0  0
   -0.0356    0.0978    0.1383 C   0  0  0  0  0  0  0  0  0  0  0  0
    1.2638    0.5861   -0.2664 C   0  0  0  0  0  0  0  0  0  0  0  0
    1.5060    1.8054   -0.4935 O   0  0  0  0  0  0  0  0  0  0  0  0
    2.3276   -0.2886   -0.4263 O   0  0  0  0  0  0  0  0  0  0  0  0
    3.6207    0.1445   -0.8219 C   0  0  0  0  0  0  0  0  0  0  0  0
   -1.0271    0.9407    0.2836 C   0  0  0  0  0  0  0  0  0  0  0  0
   -2.2934    0.4411    0.6812 N   0  0  0  0  0  0  0  0  0  0  0  0
   -0.8762    2.3450    0.0554 N   0  0  0  0  0  0  0  0  0  0  0  0
   -0.8340    2.9199   -1.2016 N   0  0  0  0  0  0  0  0  0  0  0  0
   -1.0042   -3.7095    0.0893 H   0  0  0  0  0  0  0  0  0  0  0  0
   -0.9172   -3.5280    1.8583 H   0  0  0  0  0  0  0  0  0  0  0  0
   -2.5665   -3.6104    1.0700 H   0  0  0  0  0  0  0  0  0  0  0  0
    3.5822    1.0285   -1.4806 H   0  0  0  0  0  0  0  0  0  0  0  0
    4.1450    0.4473    0.1200 H   0  0  0  0  0  0  0  0  0  0  0  0
    4.1975   -0.6943   -1.2452 H   0  0  0  0  0  0  0  0  0  0  0  0
   -2.8682   -0.1283   -0.0033 H   0  0  0  0  0  0  0  0  0  0  0  0
   -2.6355    0.6487    1.6531 H   0  0  0  0  0  0  0  0  0  0  0  0
   -0.7928    2.9764    0.8825 H   0  0  0  0  0  0  0  0  0  0  0  0
   -0.9899    2.2634   -1.9755 H   0  0  0  0  0  0  0  0  0  0  0  0
   -1.3097    3.8316   -1.2812 H   0  0  0  0  0  0  0  0  0  0  0  0
  1  2  1  0
  2  3  1  0
  3  4  2  0
  3  5  1  0
  5  6  1  0
  6  7  2  0
  6  8  1  0
  8  9  1  0
  5 10  2  3
 10 11  1  0
 10 12  1  0
 12 13  1  0
  1 14  1  0
  1 15  1  0
  1 16  1  0
  9 17  1  0
  9 18  1  0
  9 19  1  0
 11 20  1  0
 11 21  1  0
 12 22  1  0
 13 23  1  0
 13 24  1  0
M  END
$$$$
