
     RDKit          3D

 14 14  0  0  0  0  0  0  0  0999 V2000
   -1.8652    0.8081   -0.3103 N   0  0  0  0  0  0  0  0  0  0  0  0
   -0.7508    0.1628    0.3791 C   0  0  1  0  0  0  0  0  0  0  0  0
   -0.5785   -1.2313   -0.0363 C   0  0  0  0  0  0  0  0  0  0  0  0
    0.5399   -1.6939   -0.4391 N   0  0  0  0  0  0  0  0  0  0  0  0
    1.7405   -1.0034   -0.5542 N   0  0  0  0  0  0  0  0  0  0  0  0
    1.6539    0.3732   -0.1647 C   0  0  0  0  0  0  0  0  0  0  0  0
    3.0126    1.2658   -0.2653 S   0  0  0  0  0  0  0  0  0  0  0  0
    0.4431    0.9242    0.2847 N   0  0  0  0  0  0  0  0  0  0  0  0
   -2.1958    1.5648    0.3567 H   0  0  0  0  0  0  0  0  0  0  0  0
   -2.6453    0.1160   -0.4035 H   0  0  0  0  0  0  0  0  0  0  0  0
   -1.0158    0.0943    1.4916 H   0  0  0  0  0  0  0  0  0  0  0  0
   -1.4655   -1.9206    0.0008 H   0  0  0  0  0  0  0  0  0  0  0  0
    2.6378   -1.4147   -0.8880 H   0  0  0  0  0  0  0  0  0  0  0  0
    0.4892    1.9546    0.5485 H   0  0  0  0  0  0  0  0  0  0  0  0
  1  2  1  0
  2  3  1  0
  3  4  2  0
  4  5  1  0
  5  6  1  0
  6  7  2  0
  6  8  1  0
  8  2  1  0
  1  9  1  0
  1 10  1  0
  2 11  1  1
  3 12  1  0
  5 13  1  0
  8 14  1  0
M  END
$$$$

     RDKit          3D

 14 14  0  0  0  0  0  0  0  0999 V2000
   -1.7975    0.2089   -0.6949 N   0  0  0  0  0  0  0  0  0  0  0  0
   -0.8243   -0.0082    0.3662 C   0  0  1  0  0  0  0  0  0  0  0  0
   -0.2710   -1.3479    0.1873 C   0  0  0  0  0  0  0  0  0  0  0  0
    0.9631   -1.5951   -0.0510 N   0  0  0  0  0  0  0  0  0  0  0  0
    1.9472   -0.6012   -0.1711 N   0  0  0  0  0  0  0  0  0  0  0  0
    1.4909    0.7305   -0.0103 C   0  0  0  0  0  0  0  0  0  0  0  0
    2.5736    1.9326   -0.1362 S   0  0  0  0  0  0  0  0  0  0  0  0
    0.1435    1.0579    0.2532 N   0  0  0  0  0  0  0  0  0  0  0  0
   -2.3724   -0.6303   -0.7981 H   0  0  0  0  0  0  0  0  0  0  0  0
   -2.3150    1.0827   -0.5599 H   0  0  0  0  0  0  0  0  0  0  0  0
   -1.3496    0.0895    1.3457 H   0  0  0  0  0  0  0  0  0  0  0  0
   -0.9797   -2.1793    0.2670 H   0  0  0  0  0  0  0  0  0  0  0  0
    2.9376   -0.7961   -0.3621 H   0  0  0  0  0  0  0  0  0  0  0  0
   -0.1464    2.0560    0.3643 H   0  0  0  0  0  0  0  0  0  0  0  0
  1  2  1  0
  2  3  1  0
  3  4  2  0
  4  5  1  0
  5  6  1  0
  6  7  2  0
  6  8  1  0
  8  2  1  0
  1  9  1  0
  1 10  1  0
  2 11  1  1
  3 12  1  0
  5 13  1  0
  8 14  1  0
M  END
$$$$

     RDKit          3D

 14 14  0  0  0  0  0  0  0  0999 V2000
   -1.9341    0.3602   -0.4978 N   0  0  0  0  0  0  0  0  0  0  0  0
   -0.8594   -0.0760    0.3984 C   0  0  1  0  0  0  0  0  0  0  0  0
   -0.3991   -1.3879   -0.1093 C   0  0  0  0  0  0  0  0  0  0  0  0
    0.8056   -1.6535   -0.4291 N   0  0  0  0  0  0  0  0  0  0  0  0
    1.8499   -0.7150   -0.3340 N   0  0  0  0  0  0  0  0  0  0  0  0
    1.5015    0.5780    0.1458 C   0  0  0  0  0  0  0  0  0  0  0  0
    2.6766    1.7069    0.2760 S   0  0  0  0  0  0  0  0  0  0  0  0
    0.1758    0.8982    0.5066 N   0  0  0  0  0  0  0  0  0  0  0  0
   -1.5461    0.7973   -1.3666 H   0  0  0  0  0  0  0  0  0  0  0  0
   -2.5091    1.0782   -0.0023 H   0  0  0  0  0  0  0  0  0  0  0  0
   -1.3752   -0.2549    1.3872 H   0  0  0  0  0  0  0  0  0  0  0  0
   -1.1130   -2.2069   -0.2308 H   0  0  0  0  0  0  0  0  0  0  0  0
    2.8214   -0.9783   -0.6075 H   0  0  0  0  0  0  0  0  0  0  0  0
   -0.0948    1.8536    0.8637 H   0  0  0  0  0  0  0  0  0  0  0  0
  1  2  1  0
  2  3  1  0
  3  4  2  0
  4  5  1  0
  5  6  1  0
  6  7  2  0
  6  8  1  0
  8  2  1  0
  1  9  1  0
  1 10  1  0
  2 11  1  1
  3 12  1  0
  5 13  1  0
  8 14  1  0
M  END
$$$$

     RDKit          3D

 14 14  0  0  0  0  0  0  0  0999 V2000
   -1.9020   -0.8600    0.0578 N   0  0  0  0  0  0  0  0  0  0  0  0
   -0.8416    0.0506   -0.3523 C   0  0  1  0  0  0  0  0  0  0  0  0
   -0.6636    1.1616    0.5653 C   0  0  0  0  0  0  0  0  0  0  0  0
    0.4687    1.5071    1.0332 N   0  0  0  0  0  0  0  0  0  0  0  0
    1.6927    0.8990    0.7551 N   0  0  0  0  0  0  0  0  0  0  0  0
    1.6008   -0.2125   -0.1482 C   0  0  0  0  0  0  0  0  0  0  0  0
    2.9730   -1.0000   -0.5445 S   0  0  0  0  0  0  0  0  0  0  0  0
    0.3660   -0.6173   -0.6810 N   0  0  0  0  0  0  0  0  0  0  0  0
   -2.2646   -1.3411   -0.7915 H   0  0  0  0  0  0  0  0  0  0  0  0
   -1.6058   -1.5053    0.8157 H   0  0  0  0  0  0  0  0  0  0  0  0
   -1.2187    0.4801   -1.3446 H   0  0  0  0  0  0  0  0  0  0  0  0
   -1.5874    1.7197    0.8544 H   0  0  0  0  0  0  0  0  0  0  0  0
    2.5998    1.1797    1.1331 H   0  0  0  0  0  0  0  0  0  0  0  0
    0.3827   -1.4615   -1.3523 H   0  0  0  0  0  0  0  0  0  0  0  0
  1  2  1  0
  2  3  1  0
  3  4  2  0
  4  5  1  0
  5  6  1  0
  6  7  2  0
  6  8  1  0
  8  2  1  0
  1  9  1  0
  1 10  1  0
  2 11  1  6
  3 12  1  0
  5 13  1  0
  8 14  1  0
M  END
$$$$

     RDKit          3D

 14 14  0  0  0  0  0  0  0  0999 V2000
   -1.8092   -0.5015    0.8974 N   0  0  0  0  0  0  0  0  0  0  0  0
   -0.8274   -0.1025   -0.0559 C   0  0  1  0  0  0  0  0  0  0  0  0
   -0.5054    1.3234    0.0720 C   0  0  0  0  0  0  0  0  0  0  0  0
    0.6803    1.7377    0.2804 N   0  0  0  0  0  0  0  0  0  0  0  0
    1.8027    0.9245    0.4123 N   0  0  0  0  0  0  0  0  0  0  0  0
    1.6189   -0.4788    0.3073 C   0  0  0  0  0  0  0  0  0  0  0  0
    2.8578   -1.5333    0.4444 S   0  0  0  0  0  0  0  0  0  0  0  0
    0.3146   -0.9522    0.0771 N   0  0  0  0  0  0  0  0  0  0  0  0
   -1.8425   -1.4960    1.1286 H   0  0  0  0  0  0  0  0  0  0  0  0
   -2.6977    0.0054    0.8777 H   0  0  0  0  0  0  0  0  0  0  0  0
   -1.2185   -0.2445   -1.1002 H   0  0  0  0  0  0  0  0  0  0  0  0
   -1.3413    2.0602   -0.0192 H   0  0  0  0  0  0  0  0  0  0  0  0
    2.7674    1.2724    0.5825 H   0  0  0  0  0  0  0  0  0  0  0  0
    0.2004   -2.0147    0.0015 H   0  0  0  0  0  0  0  0  0  0  0  0
  1  2  1  0
  2  3  1  0
  3  4  2  0
  4  5  1  0
  5  6  1  0
  6  7  2  0
  6  8  1  0
  8  2  1  0
  1  9  1  0
  1 10  1  0
  2 11  1  6
  3 12  1  0
  5 13  1  0
  8 14  1  0
M  END
$$$$

     RDKit          3D

 14 14  0  0  0  0  0  0  0  0999 V2000
   -1.9681    0.2823   -0.3342 N   0  0  0  0  0  0  0  0  0  0  0  0
   -0.7491    0.1108    0.4568 C   0  0  1  0  0  0  0  0  0  0  0  0
   -0.3669   -1.3011    0.4925 C   0  0  0  0  0  0  0  0  0  0  0  0
    0.7678   -1.7464    0.1180 N   0  0  0  0  0  0  0  0  0  0  0  0
    1.7812   -0.9236   -0.3729 N   0  0  0  0  0  0  0  0  0  0  0  0
    1.5321    0.4676   -0.4565 C   0  0  0  0  0  0  0  0  0  0  0  0
    2.6762    1.5127   -1.0256 S   0  0  0  0  0  0  0  0  0  0  0  0
    0.2762    0.9744   -0.0438 N   0  0  0  0  0  0  0  0  0  0  0  0
   -2.7595    0.2590    0.3447 H   0  0  0  0  0  0  0  0  0  0  0  0
   -1.9907    1.2541   -0.7613 H   0  0  0  0  0  0  0  0  0  0  0  0
   -0.9382    0.4381    1.5151 H   0  0  0  0  0  0  0  0  0  0  0  0
   -1.0880   -2.0166    0.8584 H   0  0  0  0  0  0  0  0  0  0  0  0
    2.6896   -1.3347   -0.6656 H   0  0  0  0  0  0  0  0  0  0  0  0
    0.1376    2.0236   -0.1256 H   0  0  0  0  0  0  0  0  0  0  0  0
  1  2  1  0
  2  3  1  0
  3  4  2  0
  4  5  1  0
  5  6  1  0
  6  7  2  0
  6  8  1  0
  8  2  1  0
  1  9  1  0
  1 10  1  0
  2 11  1  1
  3 12  1  0
  5 13  1  0
  8 14  1  0
M  END
$$$$

     RDKit          3D

 14 14  0  0  0  0  0  0  0  0999 V2000
   -1.8410   -0.8024    0.4014 N   0  0  0  0  0  0  0  0  0  0  0  0
   -0.8118    0.0573   -0.1951 C   0  0  1  0  0  0  0  0  0  0  0  0
   -0.4142    1.1312    0.7011 C   0  0  0  0  0  0  0  0  0  0  0  0
    0.7892    1.3824    1.0077 N   0  0  0  0  0  0  0  0  0  0  0  0
    1.8961    0.6840    0.5441 N   0  0  0  0  0  0  0  0  0  0  0  0
    1.6080   -0.3924   -0.3445 C   0  0  0  0  0  0  0  0  0  0  0  0
    2.8140   -1.3138   -0.9783 S   0  0  0  0  0  0  0  0  0  0  0  0
    0.2828   -0.6928   -0.7012 N   0  0  0  0  0  0  0  0  0  0  0  0
   -2.0708   -1.5469   -0.3064 H   0  0  0  0  0  0  0  0  0  0  0  0
   -2.7090   -0.1884    0.4273 H   0  0  0  0  0  0  0  0  0  0  0  0
   -1.2904    0.5715   -1.0890 H   0  0  0  0  0  0  0  0  0  0  0  0
   -1.2535    1.7411    1.1170 H   0  0  0  0  0  0  0  0  0  0  0  0
    2.8829    0.8884    0.7942 H   0  0  0  0  0  0  0  0  0  0  0  0
    0.1178   -1.5191   -1.3784 H   0  0  0  0  0  0  0  0  0  0  0  0
  1  2  1  0
  2  3  1  0
  3  4  2  0
  4  5  1  0
  5  6  1  0
  6  7  2  0
  6  8  1  0
  8  2  1  0
  1  9  1  0
  1 10  1  0
  2 11  1  6
  3 12  1  0
  5 13  1  0
  8 14  1  0
M  END
$$$$

     RDKit          3D

 14 14  0  0  0  0  0  0  0  0999 V2000
   -1.9211    0.6495   -0.3821 N   0  0  0  0  0  0  0  0  0  0  0  0
   -0.7897   -0.0050    0.2729 C   0  0  1  0  0  0  0  0  0  0  0  0
   -0.4392   -1.2640   -0.3613 C   0  0  0  0  0  0  0  0  0  0  0  0
    0.7542   -1.5528   -0.7071 N   0  0  0  0  0  0  0  0  0  0  0  0
    1.8687   -0.7416   -0.5398 N   0  0  0  0  0  0  0  0  0  0  0  0
    1.6154    0.5197    0.0779 C   0  0  0  0  0  0  0  0  0  0  0  0
    2.8635    1.5512    0.3212 S   0  0  0  0  0  0  0  0  0  0  0  0
    0.3094    0.8619    0.4683 N   0  0  0  0  0  0  0  0  0  0  0  0
   -2.7318   -0.0272   -0.2497 H   0  0  0  0  0  0  0  0  0  0  0  0
   -2.1741    1.4590    0.2579 H   0  0  0  0  0  0  0  0  0  0  0  0
   -1.1791   -0.2519    1.3147 H   0  0  0  0  0  0  0  0  0  0  0  0
   -1.2254   -2.0186   -0.5620 H   0  0  0  0  0  0  0  0  0  0  0  0
    2.8339   -1.0088   -0.8348 H   0  0  0  0  0  0  0  0  0  0  0  0
    0.2154    1.8287    0.9238 H   0  0  0  0  0  0  0  0  0  0  0  0
  1  2  1  0
  2  3  1  0
  3  4  2  0
  4  5  1  0
  5  6  1  0
  6  7  2  0
  6  8  1  0
  8  2  1  0
  1  9  1  0
  1 10  1  0
  2 11  1  1
  3 12  1  0
  5 13  1  0
  8 14  1  0
M  END
$$$$
