
     RDKit          3D

 17 17  0  0  0  0  0  0  0  0999 V2000
   -1.8086    1.3490    1.1107 N   0  0  0  0  0  0  0  0  0  0  0  0
   -1.5774   -0.0052    0.7535 C   0  0  0  0  0  0  0  0  0  0  0  0
   -0.6227   -0.0092   -0.4327 C   0  0  2  0  0  0  0  0  0  0  0  0
   -0.1576   -1.3839   -0.7914 C   0  0  0  0  0  0  0  0  0  0  0  0
    1.2820   -1.2737   -0.8193 N   0  0  0  0  0  0  0  0  0  0  0  0
    1.6629   -0.1421   -0.3804 C   0  0  0  0  0  0  0  0  0  0  0  0
    2.9828    0.3785   -0.2361 N   0  0  0  0  0  0  0  0  0  0  0  0
    0.5576    0.6215   -0.0156 O   0  0  0  0  0  0  0  0  0  0  0  0
   -1.0918    1.8400    1.6152 H   0  0  0  0  0  0  0  0  0  0  0  0
   -2.4964    1.8658    0.5783 H   0  0  0  0  0  0  0  0  0  0  0  0
   -1.0516   -0.5311    1.5765 H   0  0  0  0  0  0  0  0  0  0  0  0
   -2.5090   -0.5278    0.5127 H   0  0  0  0  0  0  0  0  0  0  0  0
   -1.0784    0.5554   -1.2467 H   0  0  0  0  0  0  0  0  0  0  0  0
   -0.5182   -1.7004   -1.8107 H   0  0  0  0  0  0  0  0  0  0  0  0
   -0.4575   -2.1504   -0.0565 H   0  0  0  0  0  0  0  0  0  0  0  0
    3.4233    0.8824   -1.0293 H   0  0  0  0  0  0  0  0  0  0  0  0
    3.4609    0.2312    0.6720 H   0  0  0  0  0  0  0  0  0  0  0  0
  1  2  1  0
  2  3  1  0
  3  4  1  0
  4  5  1  0
  5  6  2  0
  6  7  1  0
  6  8  1  0
  8  3  1  0
  1  9  1  0
  1 10  1  0
  2 11  1  0
  2 12  1  0
  3 13  1  6
  4 14  1  0
  4 15  1  0
  7 16  1  0
  7 17  1  0
M  END
$$$$

     RDKit          3D

 17 17  0  0  0  0  0  0  0  0999 V2000
   -2.1563    1.2451    0.1134 N   0  0  0  0  0  0  0  0  0  0  0  0
   -1.6488    0.0214    0.7117 C   0  0  0  0  0  0  0  0  0  0  0  0
   -0.4166   -0.3655   -0.1042 C   0  0  2  0  0  0  0  0  0  0  0  0
    0.2910   -1.5577    0.4961 C   0  0  0  0  0  0  0  0  0  0  0  0
    1.6616   -1.1081    0.4970 N   0  0  0  0  0  0  0  0  0  0  0  0
    1.7556    0.1457    0.2265 C   0  0  0  0  0  0  0  0  0  0  0  0
    2.9525    0.9047    0.1462 N   0  0  0  0  0  0  0  0  0  0  0  0
    0.4855    0.7044    0.0099 O   0  0  0  0  0  0  0  0  0  0  0  0
   -2.3876    1.9701    0.8155 H   0  0  0  0  0  0  0  0  0  0  0  0
   -3.0011    0.9654   -0.4536 H   0  0  0  0  0  0  0  0  0  0  0  0
   -1.3427    0.2967    1.7525 H   0  0  0  0  0  0  0  0  0  0  0  0
   -2.3841   -0.7775    0.7751 H   0  0  0  0  0  0  0  0  0  0  0  0
   -0.7465   -0.5569   -1.1402 H   0  0  0  0  0  0  0  0  0  0  0  0
    0.1653   -2.4232   -0.2175 H   0  0  0  0  0  0  0  0  0  0  0  0
   -0.0603   -1.8051    1.5056 H   0  0  0  0  0  0  0  0  0  0  0  0
    3.7797    0.4713   -0.3096 H   0  0  0  0  0  0  0  0  0  0  0  0
    3.0528    1.8692    0.5160 H   0  0  0  0  0  0  0  0  0  0  0  0
  1  2  1  0
  2  3  1  0
  3  4  1  0
  4  5  1  0
  5  6  2  0
  6  7  1  0
  6  8  1  0
  8  3  1  0
  1  9  1  0
  1 10  1  0
  2 11  1  0
  2 12  1  0
  3 13  1  6
  4 14  1  0
  4 15  1  0
  7 16  1  0
  7 17  1  0
M  END
$$$$

     RDKit          3D

 17 17  0  0  0  0  0  0  0  0999 V2000
   -2.4104   -1.0547    0.0371 N   0  0  0  0  0  0  0  0  0  0  0  0
   -1.7518    0.1728   -0.3660 C   0  0  0  0  0  0  0  0  0  0  0  0
   -0.4841    0.3921    0.4535 C   0  0  2  0  0  0  0  0  0  0  0  0
    0.3240    1.5367   -0.0640 C   0  0  0  0  0  0  0  0  0  0  0  0
    1.6558    0.9810   -0.1740 N   0  0  0  0  0  0  0  0  0  0  0  0
    1.6698   -0.2799   -0.0056 C   0  0  0  0  0  0  0  0  0  0  0  0
    2.8569   -1.0819   -0.0622 N   0  0  0  0  0  0  0  0  0  0  0  0
    0.3796   -0.7072    0.2314 O   0  0  0  0  0  0  0  0  0  0  0  0
   -2.5602   -1.1417    1.0454 H   0  0  0  0  0  0  0  0  0  0  0  0
   -1.9283   -1.8928   -0.3483 H   0  0  0  0  0  0  0  0  0  0  0  0
   -2.4395    1.0334   -0.2519 H   0  0  0  0  0  0  0  0  0  0  0  0
   -1.4470    0.0241   -1.4307 H   0  0  0  0  0  0  0  0  0  0  0  0
   -0.7138    0.4503    1.5251 H   0  0  0  0  0  0  0  0  0  0  0  0
    0.2902    2.4013    0.6562 H   0  0  0  0  0  0  0  0  0  0  0  0
    0.0266    1.8814   -1.0744 H   0  0  0  0  0  0  0  0  0  0  0  0
    3.2253   -1.5002    0.8135 H   0  0  0  0  0  0  0  0  0  0  0  0
    3.3070   -1.2149   -0.9851 H   0  0  0  0  0  0  0  0  0  0  0  0
  1  2  1  0
  2  3  1  0
  3  4  1  0
  4  5  1  0
  5  6  2  0
  6  7  1  0
  6  8  1  0
  8  3  1  0
  1  9  1  0
  1 10  1  0
  2 11  1  0
  2 12  1  0
  3 13  1  1
  4 14  1  0
  4 15  1  0
  7 16  1  0
  7 17  1  0
M  END
$$$$

     RDKit          3D

 17 17  0  0  0  0  0  0  0  0999 V2000
   -2.4875    0.6744    0.1895 N   0  0  0  0  0  0  0  0  0  0  0  0
   -1.2238    0.7668   -0.5045 C   0  0  0  0  0  0  0  0  0  0  0  0
   -0.5003   -0.5614   -0.4482 C   0  0  2  0  0  0  0  0  0  0  0  0
   -0.0062   -0.9233    0.9052 C   0  0  0  0  0  0  0  0  0  0  0  0
    1.3137   -0.3654    0.9723 N   0  0  0  0  0  0  0  0  0  0  0  0
    1.7057   -0.0886   -0.2093 C   0  0  0  0  0  0  0  0  0  0  0  0
    2.9950    0.4885   -0.4950 N   0  0  0  0  0  0  0  0  0  0  0  0
    0.7467   -0.4103   -1.1527 O   0  0  0  0  0  0  0  0  0  0  0  0
   -3.2084    0.1732   -0.3828 H   0  0  0  0  0  0  0  0  0  0  0  0
   -2.4139    0.2705    1.1287 H   0  0  0  0  0  0  0  0  0  0  0  0
   -0.6413    1.5802   -0.0813 H   0  0  0  0  0  0  0  0  0  0  0  0
   -1.4577    0.9588   -1.5815 H   0  0  0  0  0  0  0  0  0  0  0  0
   -1.0874   -1.3687   -0.9055 H   0  0  0  0  0  0  0  0  0  0  0  0
    0.1003   -2.0258    0.9585 H   0  0  0  0  0  0  0  0  0  0  0  0
   -0.6516   -0.5619    1.7311 H   0  0  0  0  0  0  0  0  0  0  0  0
    3.7987   -0.1366   -0.6317 H   0  0  0  0  0  0  0  0  0  0  0  0
    3.0179    1.5296   -0.5433 H   0  0  0  0  0  0  0  0  0  0  0  0
  1  2  1  0
  2  3  1  0
  3  4  1  0
  4  5  1  0
  5  6  2  0
  6  7  1  0
  6  8  1  0
  8  3  1  0
  1  9  1  0
  1 10  1  0
  2 11  1  0
  2 12  1  0
  3 13  1  6
  4 14  1  0
  4 15  1  0
  7 16  1  0
  7 17  1  0
M  END
$$$$

     RDKit          3D

 17 17  0  0  0  0  0  0  0  0999 V2000
   -2.0360    0.9268   -0.6388 N   0  0  0  0  0  0  0  0  0  0  0  0
   -1.7054   -0.4595   -0.5091 C   0  0  0  0  0  0  0  0  0  0  0  0
   -0.3497   -0.6847    0.0787 C   0  0  2  0  0  0  0  0  0  0  0  0
   -0.1388    0.0242    1.3906 C   0  0  0  0  0  0  0  0  0  0  0  0
    1.3208    0.2036    1.3522 N   0  0  0  0  0  0  0  0  0  0  0  0
    1.7336    0.1255    0.1228 C   0  0  0  0  0  0  0  0  0  0  0  0
    3.1011    0.2534   -0.2924 N   0  0  0  0  0  0  0  0  0  0  0  0
    0.6556   -0.0991   -0.7225 O   0  0  0  0  0  0  0  0  0  0  0  0
   -3.0238    0.9740   -1.0236 H   0  0  0  0  0  0  0  0  0  0  0  0
   -1.4486    1.3530   -1.4167 H   0  0  0  0  0  0  0  0  0  0  0  0
   -1.7365   -0.9261   -1.5025 H   0  0  0  0  0  0  0  0  0  0  0  0
   -2.4661   -0.9398    0.1340 H   0  0  0  0  0  0  0  0  0  0  0  0
   -0.1517   -1.7464    0.1914 H   0  0  0  0  0  0  0  0  0  0  0  0
   -0.3510   -0.6442    2.2583 H   0  0  0  0  0  0  0  0  0  0  0  0
   -0.6382    0.9979    1.4565 H   0  0  0  0  0  0  0  0  0  0  0  0
    3.6102   -0.4714   -0.8418 H   0  0  0  0  0  0  0  0  0  0  0  0
    3.6246    1.1129   -0.0372 H   0  0  0  0  0  0  0  0  0  0  0  0
  1  2  1  0
  2  3  1  0
  3  4  1  0
  4  5  1  0
  5  6  2  0
  6  7  1  0
  6  8  1  0
  8  3  1  0
  1  9  1  0
  1 10  1  0
  2 11  1  0
  2 12  1  0
  3 13  1  1
  4 14  1  0
  4 15  1  0
  7 16  1  0
  7 17  1  0
M  END
$$$$

     RDKit          3D

 17 17  0  0  0  0  0  0  0  0999 V2000
   -2.3903    1.0602    0.1389 N   0  0  0  0  0  0  0  0  0  0  0  0
   -1.7823   -0.2359    0.1466 C   0  0  0  0  0  0  0  0  0  0  0  0
   -0.3781   -0.1389   -0.3990 C   0  0  2  0  0  0  0  0  0  0  0  0
    0.3574   -1.4575   -0.2964 C   0  0  0  0  0  0  0  0  0  0  0  0
    1.7443   -0.9873   -0.1805 N   0  0  0  0  0  0  0  0  0  0  0  0
    1.7329    0.2641    0.1894 C   0  0  0  0  0  0  0  0  0  0  0  0
    2.9644    0.9751    0.3790 N   0  0  0  0  0  0  0  0  0  0  0  0
    0.4437    0.7175    0.3446 O   0  0  0  0  0  0  0  0  0  0  0  0
   -1.8680    1.7816    0.6597 H   0  0  0  0  0  0  0  0  0  0  0  0
   -3.4081    1.0270    0.3484 H   0  0  0  0  0  0  0  0  0  0  0  0
   -1.8288   -0.6894    1.1356 H   0  0  0  0  0  0  0  0  0  0  0  0
   -2.3548   -0.8649   -0.5955 H   0  0  0  0  0  0  0  0  0  0  0  0
   -0.4145    0.1770   -1.4437 H   0  0  0  0  0  0  0  0  0  0  0  0
    0.0838   -2.0161    0.6205 H   0  0  0  0  0  0  0  0  0  0  0  0
    0.2382   -2.0924   -1.1862 H   0  0  0  0  0  0  0  0  0  0  0  0
    3.0922    1.9521    0.0450 H   0  0  0  0  0  0  0  0  0  0  0  0
    3.7678    0.5277    0.8595 H   0  0  0  0  0  0  0  0  0  0  0  0
  1  2  1  0
  2  3  1  0
  3  4  1  0
  4  5  1  0
  5  6  2  0
  6  7  1  0
  6  8  1  0
  8  3  1  0
  1  9  1  0
  1 10  1  0
  2 11  1  0
  2 12  1  0
  3 13  1  6
  4 14  1  0
  4 15  1  0
  7 16  1  0
  7 17  1  0
M  END
$$$$

     RDKit          3D

 17 17  0  0  0  0  0  0  0  0999 V2000
   -2.3116   -0.1529    0.9489 N   0  0  0  0  0  0  0  0  0  0  0  0
   -1.0253    0.4667    0.7443 C   0  0  0  0  0  0  0  0  0  0  0  0
   -0.5559    0.3095   -0.6928 C   0  0  2  0  0  0  0  0  0  0  0  0
   -0.1418   -1.1508   -0.9210 C   0  0  0  0  0  0  0  0  0  0  0  0
    1.1999   -1.1190   -0.3402 N   0  0  0  0  0  0  0  0  0  0  0  0
    1.6450    0.0810   -0.2966 C   0  0  0  0  0  0  0  0  0  0  0  0
    2.9507    0.3986    0.2329 N   0  0  0  0  0  0  0  0  0  0  0  0
    0.7059    0.9398   -0.8140 O   0  0  0  0  0  0  0  0  0  0  0  0
   -2.8518    0.3385    1.7160 H   0  0  0  0  0  0  0  0  0  0  0  0
   -2.8464   -0.1146    0.0561 H   0  0  0  0  0  0  0  0  0  0  0  0
   -0.3108   -0.0385    1.4257 H   0  0  0  0  0  0  0  0  0  0  0  0
   -1.1304    1.5481    0.9683 H   0  0  0  0  0  0  0  0  0  0  0  0
   -1.2966    0.6497   -1.4140 H   0  0  0  0  0  0  0  0  0  0  0  0
   -0.0091   -1.3225   -2.0002 H   0  0  0  0  0  0  0  0  0  0  0  0
   -0.8060   -1.8542   -0.4207 H   0  0  0  0  0  0  0  0  0  0  0  0
    3.5626    0.9906   -0.3637 H   0  0  0  0  0  0  0  0  0  0  0  0
    3.2216    0.0299    1.1711 H   0  0  0  0  0  0  0  0  0  0  0  0
  1  2  1  0
  2  3  1  0
  3  4  1  0
  4  5  1  0
  5  6  2  0
  6  7  1  0
  6  8  1  0
  8  3  1  0
  1  9  1  0
  1 10  1  0
  2 11  1  0
  2 12  1  0
  3 13  1  6
  4 14  1  0
  4 15  1  0
  7 16  1  0
  7 17  1  0
M  END
$$$$

     RDKit          3D

 17 17  0  0  0  0  0  0  0  0999 V2000
   -2.4471    0.2468    0.7411 N   0  0  0  0  0  0  0  0  0  0  0  0
   -1.1161    0.7623    0.5894 C   0  0  0  0  0  0  0  0  0  0  0  0
   -0.4118    0.1060   -0.5875 C   0  0  2  0  0  0  0  0  0  0  0  0
   -0.1249   -1.3504   -0.3268 C   0  0  0  0  0  0  0  0  0  0  0  0
    1.1703   -1.2603    0.3568 N   0  0  0  0  0  0  0  0  0  0  0  0
    1.7032   -0.1159    0.1086 C   0  0  0  0  0  0  0  0  0  0  0  0
    2.9651    0.2986    0.6185 N   0  0  0  0  0  0  0  0  0  0  0  0
    0.8939    0.6370   -0.7057 O   0  0  0  0  0  0  0  0  0  0  0  0
   -2.7453   -0.2972   -0.0819 H   0  0  0  0  0  0  0  0  0  0  0  0
   -3.1640    0.9829    0.9172 H   0  0  0  0  0  0  0  0  0  0  0  0
   -1.2155    1.8480    0.3400 H   0  0  0  0  0  0  0  0  0  0  0  0
   -0.5023    0.7181    1.5018 H   0  0  0  0  0  0  0  0  0  0  0  0
   -0.9730    0.2474   -1.5270 H   0  0  0  0  0  0  0  0  0  0  0  0
   -0.0280   -1.8524   -1.3014 H   0  0  0  0  0  0  0  0  0  0  0  0
   -0.8802   -1.8465    0.2896 H   0  0  0  0  0  0  0  0  0  0  0  0
    3.7798   -0.3348    0.5205 H   0  0  0  0  0  0  0  0  0  0  0  0
    3.0958    1.2105    1.0833 H   0  0  0  0  0  0  0  0  0  0  0  0
  1  2  1  0
  2  3  1  0
  3  4  1  0
  4  5  1  0
  5  6  2  0
  6  7  1  0
  6  8  1  0
  8  3  1  0
  1  9  1  0
  1 10  1  0
  2 11  1  0
  2 12  1  0
  3 13  1  6
  4 14  1  0
  4 15  1  0
  7 16  1  0
  7 17  1  0
M  END
$$$$
