
     RDKit          3D

 16 16  0  0  0  0  0  0  0  0999 V2000
   -2.2606    2.3445   -0.2663 O   0  0  0  0  0  0  0  0  0  0  0  0
   -1.4151    1.4264   -0.2788 C   0  0  0  0  0  0  0  0  0  0  0  0
   -1.7121   -0.0243   -0.2504 C   0  0  0  0  0  0  0  0  0  0  0  0
   -0.4114   -0.5608    0.3444 C   0  0  1  0  0  0  0  0  0  0  0  0
   -0.2512   -1.9059    0.1088 O   0  0  0  0  0  0  0  0  0  0  0  0
    0.5901    0.3062   -0.3446 C   0  0  2  0  0  0  0  0  0  0  0  0
    1.9088    0.3427    0.3311 C   0  0  0  0  0  0  0  0  0  0  0  0
    2.3766    1.3939    0.8488 O   0  0  0  0  0  0  0  0  0  0  0  0
    2.6876   -0.8022    0.4178 O   0  0  0  0  0  0  0  0  0  0  0  0
   -0.0401    1.5819   -0.3213 O   0  0  0  0  0  0  0  0  0  0  0  0
   -1.7919   -0.3949   -1.2995 H   0  0  0  0  0  0  0  0  0  0  0  0
   -2.5888   -0.2831    0.3590 H   0  0  0  0  0  0  0  0  0  0  0  0
   -0.4378   -0.3064    1.4210 H   0  0  0  0  0  0  0  0  0  0  0  0
   -1.0987   -2.3703   -0.0457 H   0  0  0  0  0  0  0  0  0  0  0  0
    0.7400    0.0299   -1.3917 H   0  0  0  0  0  0  0  0  0  0  0  0
    3.7046   -0.7776    0.3674 H   0  0  0  0  0  0  0  0  0  0  0  0
  1  2  2  0
  2  3  1  0
  3  4  1  0
  4  5  1  0
  4  6  1  0
  6  7  1  0
  7  8  2  0
  7  9  1  0
  6 10  1  0
 10  2  1  0
  3 11  1  0
  3 12  1  0
  4 13  1  1
  5 14  1  0
  6 15  1  6
  9 16  1  0
M  END
$$$$

     RDKit          3D

 16 16  0  0  0  0  0  0  0  0999 V2000
   -2.1168   -2.0980   -1.3816 O   0  0  0  0  0  0  0  0  0  0  0  0
   -1.3507   -1.3925   -0.6754 C   0  0  0  0  0  0  0  0  0  0  0  0
   -1.7305   -0.0774   -0.0971 C   0  0  0  0  0  0  0  0  0  0  0  0
   -0.3862    0.6547   -0.1988 C   0  0  1  0  0  0  0  0  0  0  0  0
   -0.3262    1.7554    0.6134 O   0  0  0  0  0  0  0  0  0  0  0  0
    0.5583   -0.4524    0.2213 C   0  0  2  0  0  0  0  0  0  0  0  0
    1.8896   -0.2568   -0.4025 C   0  0  0  0  0  0  0  0  0  0  0  0
    2.2857   -1.0993   -1.2346 O   0  0  0  0  0  0  0  0  0  0  0  0
    2.6658    0.8571   -0.0485 O   0  0  0  0  0  0  0  0  0  0  0  0
   -0.0478   -1.6281   -0.2748 O   0  0  0  0  0  0  0  0  0  0  0  0
   -2.5036    0.4443   -0.6562 H   0  0  0  0  0  0  0  0  0  0  0  0
   -1.9776   -0.1472    0.9875 H   0  0  0  0  0  0  0  0  0  0  0  0
   -0.2064    0.8464   -1.2636 H   0  0  0  0  0  0  0  0  0  0  0  0
   -1.0532    2.3628    0.3723 H   0  0  0  0  0  0  0  0  0  0  0  0
    0.6146   -0.5111    1.3292 H   0  0  0  0  0  0  0  0  0  0  0  0
    3.6850    0.7420   -0.1356 H   0  0  0  0  0  0  0  0  0  0  0  0
  1  2  2  0
  2  3  1  0
  3  4  1  0
  4  5  1  0
  4  6  1  0
  6  7  1  0
  7  8  2  0
  7  9  1  0
  6 10  1  0
 10  2  1  0
  3 11  1  0
  3 12  1  0
  4 13  1  6
  5 14  1  0
  6 15  1  1
  9 16  1  0
M  END
$$$$

     RDKit          3D

 16 16  0  0  0  0  0  0  0  0999 V2000
   -2.4294    0.3400   -1.7522 O   0  0  0  0  0  0  0  0  0  0  0  0
   -1.4350    0.4016   -0.9817 C   0  0  0  0  0  0  0  0  0  0  0  0
   -1.4210    0.8027    0.4509 C   0  0  0  0  0  0  0  0  0  0  0  0
   -0.4160   -0.2023    1.0208 C   0  0  1  0  0  0  0  0  0  0  0  0
   -1.1543   -1.3117    1.4080 O   0  0  0  0  0  0  0  0  0  0  0  0
    0.4961   -0.5365   -0.1610 C   0  0  2  0  0  0  0  0  0  0  0  0
    1.8632   -0.0360    0.1092 C   0  0  0  0  0  0  0  0  0  0  0  0
    2.4789   -0.5418    1.0782 O   0  0  0  0  0  0  0  0  0  0  0  0
    2.4934    0.9346   -0.6234 O   0  0  0  0  0  0  0  0  0  0  0  0
   -0.0924    0.1092   -1.2750 O   0  0  0  0  0  0  0  0  0  0  0  0
   -2.4038    0.7048    0.9168 H   0  0  0  0  0  0  0  0  0  0  0  0
   -0.9713    1.8202    0.5602 H   0  0  0  0  0  0  0  0  0  0  0  0
    0.1594    0.2493    1.8534 H   0  0  0  0  0  0  0  0  0  0  0  0
   -1.1463   -1.9377    0.6233 H   0  0  0  0  0  0  0  0  0  0  0  0
    0.4835   -1.6278   -0.3806 H   0  0  0  0  0  0  0  0  0  0  0  0
    3.4951    0.8312   -0.8462 H   0  0  0  0  0  0  0  0  0  0  0  0
  1  2  2  0
  2  3  1  0
  3  4  1  0
  4  5  1  0
  4  6  1  0
  6  7  1  0
  7  8  2  0
  7  9  1  0
  6 10  1  0
 10  2  1  0
  3 11  1  0
  3 12  1  0
  4 13  1  1
  5 14  1  0
  6 15  1  6
  9 16  1  0
M  END
$$$$

     RDKit          3D

 16 16  0  0  0  0  0  0  0  0999 V2000
   -1.8173    2.2840    1.2174 O   0  0  0  0  0  0  0  0  0  0  0  0
   -1.2082    1.4241    0.5473 C   0  0  0  0  0  0  0  0  0  0  0  0
   -1.7401    0.0898    0.1932 C   0  0  0  0  0  0  0  0  0  0  0  0
   -0.4273   -0.7016    0.1429 C   0  0  1  0  0  0  0  0  0  0  0  0
   -0.5721   -1.9043   -0.4938 O   0  0  0  0  0  0  0  0  0  0  0  0
    0.4162    0.2923   -0.6347 C   0  0  2  0  0  0  0  0  0  0  0  0
    1.8665    0.0132   -0.5029 C   0  0  0  0  0  0  0  0  0  0  0  0
    2.2993   -1.0444   -1.0284 O   0  0  0  0  0  0  0  0  0  0  0  0
    2.7018    0.8867    0.1726 O   0  0  0  0  0  0  0  0  0  0  0  0
    0.0570    1.5090   -0.0019 O   0  0  0  0  0  0  0  0  0  0  0  0
   -2.4474   -0.3213    0.9049 H   0  0  0  0  0  0  0  0  0  0  0  0
   -2.1021    0.1291   -0.8530 H   0  0  0  0  0  0  0  0  0  0  0  0
   -0.0005   -0.7766    1.1650 H   0  0  0  0  0  0  0  0  0  0  0  0
   -0.6089   -2.6429    0.1928 H   0  0  0  0  0  0  0  0  0  0  0  0
    0.0709    0.3035   -1.6671 H   0  0  0  0  0  0  0  0  0  0  0  0
    3.5122    0.4594    0.6455 H   0  0  0  0  0  0  0  0  0  0  0  0
  1  2  2  0
  2  3  1  0
  3  4  1  0
  4  5  1  0
  4  6  1  0
  6  7  1  0
  7  8  2  0
  7  9  1  0
  6 10  1  0
 10  2  1  0
  3 11  1  0
  3 12  1  0
  4 13  1  1
  5 14  1  0
  6 15  1  6
  9 16  1  0
M  END
$$$$

     RDKit          3D

 16 16  0  0  0  0  0  0  0  0999 V2000
   -1.4457    2.5274   -0.6328 O   0  0  0  0  0  0  0  0  0  0  0  0
   -0.9307    1.4129   -0.3315 C   0  0  0  0  0  0  0  0  0  0  0  0
   -1.4009    0.5062    0.7326 C   0  0  0  0  0  0  0  0  0  0  0  0
   -0.6132   -0.7665    0.5091 C   0  0  1  0  0  0  0  0  0  0  0  0
   -1.4148   -1.7242   -0.1485 O   0  0  0  0  0  0  0  0  0  0  0  0
    0.4939   -0.3993   -0.4477 C   0  0  2  0  0  0  0  0  0  0  0  0
    1.8156   -0.3570    0.1848 C   0  0  0  0  0  0  0  0  0  0  0  0
    2.3549   -1.3656    0.7275 O   0  0  0  0  0  0  0  0  0  0  0  0
    2.5091    0.8468    0.1888 O   0  0  0  0  0  0  0  0  0  0  0  0
    0.1640    0.8675   -0.9602 O   0  0  0  0  0  0  0  0  0  0  0  0
   -2.4755    0.2622    0.5819 H   0  0  0  0  0  0  0  0  0  0  0  0
   -1.2414    0.9258    1.7478 H   0  0  0  0  0  0  0  0  0  0  0  0
   -0.2428   -1.1892    1.4474 H   0  0  0  0  0  0  0  0  0  0  0  0
   -1.6453   -1.3123   -1.0287 H   0  0  0  0  0  0  0  0  0  0  0  0
    0.5662   -1.1333   -1.3005 H   0  0  0  0  0  0  0  0  0  0  0  0
    3.5066    0.8987    0.3482 H   0  0  0  0  0  0  0  0  0  0  0  0
  1  2  2  0
  2  3  1  0
  3  4  1  0
  4  5  1  0
  4  6  1  0
  6  7  1  0
  7  8  2  0
  7  9  1  0
  6 10  1  0
 10  2  1  0
  3 11  1  0
  3 12  1  0
  4 13  1  1
  5 14  1  0
  6 15  1  6
  9 16  1  0
M  END
$$$$

     RDKit          3D

 16 16  0  0  0  0  0  0  0  0999 V2000
   -1.3888    2.0690   -1.4637 O   0  0  0  0  0  0  0  0  0  0  0  0
   -0.8915    1.0590   -0.9305 C   0  0  0  0  0  0  0  0  0  0  0  0
   -1.2574    0.5463    0.4066 C   0  0  0  0  0  0  0  0  0  0  0  0
   -0.5370   -0.7873    0.5420 C   0  0  1  0  0  0  0  0  0  0  0  0
   -1.3894   -1.8345    0.2018 O   0  0  0  0  0  0  0  0  0  0  0  0
    0.5786   -0.6318   -0.4570 C   0  0  2  0  0  0  0  0  0  0  0  0
    1.8071   -0.0853    0.1585 C   0  0  0  0  0  0  0  0  0  0  0  0
    2.3596   -0.7494    1.0697 O   0  0  0  0  0  0  0  0  0  0  0  0
    2.3748    1.1135   -0.2166 O   0  0  0  0  0  0  0  0  0  0  0  0
    0.0825    0.2178   -1.4516 O   0  0  0  0  0  0  0  0  0  0  0  0
   -0.8636    1.2349    1.1804 H   0  0  0  0  0  0  0  0  0  0  0  0
   -2.3292    0.3748    0.5169 H   0  0  0  0  0  0  0  0  0  0  0  0
   -0.1837   -0.9653    1.5604 H   0  0  0  0  0  0  0  0  0  0  0  0
   -1.9300   -1.6533   -0.5906 H   0  0  0  0  0  0  0  0  0  0  0  0
    0.8147   -1.6504   -0.8593 H   0  0  0  0  0  0  0  0  0  0  0  0
    2.7532    1.7421    0.4905 H   0  0  0  0  0  0  0  0  0  0  0  0
  1  2  2  0
  2  3  1  0
  3  4  1  0
  4  5  1  0
  4  6  1  0
  6  7  1  0
  7  8  2  0
  7  9  1  0
  6 10  1  0
 10  2  1  0
  3 11  1  0
  3 12  1  0
  4 13  1  1
  5 14  1  0
  6 15  1  6
  9 16  1  0
M  END
$$$$

     RDKit          3D

 16 16  0  0  0  0  0  0  0  0999 V2000
   -2.7997   -1.7438    0.2505 O   0  0  0  0  0  0  0  0  0  0  0  0
   -1.7522   -1.0558    0.3337 C   0  0  0  0  0  0  0  0  0  0  0  0
   -1.6568    0.4388    0.4819 C   0  0  0  0  0  0  0  0  0  0  0  0
   -0.3209    0.6690   -0.2235 C   0  0  1  0  0  0  0  0  0  0  0  0
    0.2066    1.9048    0.0350 O   0  0  0  0  0  0  0  0  0  0  0  0
    0.4741   -0.4620    0.3963 C   0  0  2  0  0  0  0  0  0  0  0  0
    1.7339   -0.7347   -0.3147 C   0  0  0  0  0  0  0  0  0  0  0  0
    1.8497   -1.8401   -0.8988 O   0  0  0  0  0  0  0  0  0  0  0  0
    2.7868    0.1479   -0.3756 O   0  0  0  0  0  0  0  0  0  0  0  0
   -0.4452   -1.5301    0.3068 O   0  0  0  0  0  0  0  0  0  0  0  0
   -2.4812    0.9525   -0.0115 H   0  0  0  0  0  0  0  0  0  0  0  0
   -1.5655    0.6306    1.5562 H   0  0  0  0  0  0  0  0  0  0  0  0
   -0.4929    0.4807   -1.3065 H   0  0  0  0  0  0  0  0  0  0  0  0
    0.1004    2.4494   -0.8090 H   0  0  0  0  0  0  0  0  0  0  0  0
    0.6350   -0.1941    1.4621 H   0  0  0  0  0  0  0  0  0  0  0  0
    3.7279   -0.1130   -0.6952 H   0  0  0  0  0  0  0  0  0  0  0  0
  1  2  2  0
  2  3  1  0
  3  4  1  0
  4  5  1  0
  4  6  1  0
  6  7  1  0
  7  8  2  0
  7  9  1  0
  6 10  1  0
 10  2  1  0
  3 11  1  0
  3 12  1  0
  4 13  1  6
  5 14  1  0
  6 15  1  1
  9 16  1  0
M  END
$$$$

     RDKit          3D

 16 16  0  0  0  0  0  0  0  0999 V2000
   -2.2659    2.0088    0.7337 O   0  0  0  0  0  0  0  0  0  0  0  0
   -1.3932    1.1788    0.4426 C   0  0  0  0  0  0  0  0  0  0  0  0
   -1.4885   -0.2977    0.6280 C   0  0  0  0  0  0  0  0  0  0  0  0
   -0.2568   -0.8602   -0.0353 C   0  0  1  0  0  0  0  0  0  0  0  0
   -0.5239   -1.8702   -0.9272 O   0  0  0  0  0  0  0  0  0  0  0  0
    0.4320    0.3321   -0.6673 C   0  0  2  0  0  0  0  0  0  0  0  0
    1.8794    0.3192   -0.3950 C   0  0  0  0  0  0  0  0  0  0  0  0
    2.6201   -0.6087   -0.7947 O   0  0  0  0  0  0  0  0  0  0  0  0
    2.4521    1.3564    0.3227 O   0  0  0  0  0  0  0  0  0  0  0  0
   -0.1564    1.4722   -0.1141 O   0  0  0  0  0  0  0  0  0  0  0  0
   -1.4479   -0.4693    1.7371 H   0  0  0  0  0  0  0  0  0  0  0  0
   -2.4244   -0.6834    0.2229 H   0  0  0  0  0  0  0  0  0  0  0  0
    0.4252   -1.2651    0.7567 H   0  0  0  0  0  0  0  0  0  0  0  0
   -1.4414   -2.2049   -0.9208 H   0  0  0  0  0  0  0  0  0  0  0  0
    0.2379    0.3238   -1.7728 H   0  0  0  0  0  0  0  0  0  0  0  0
    3.3517    1.2679    0.7835 H   0  0  0  0  0  0  0  0  0  0  0  0
  1  2  2  0
  2  3  1  0
  3  4  1  0
  4  5  1  0
  4  6  1  0
  6  7  1  0
  7  8  2  0
  7  9  1  0
  6 10  1  0
 10  2  1  0
  3 11  1  0
  3 12  1  0
  4 13  1  1
  5 14  1  0
  6 15  1  6
  9 16  1  0
M  END
$$$$
