
     RDKit          3D

 21 20  0  0  0  0  0  0  0  0999 V2000
   -2.6374   -0.5665   -0.3135 C   0  0  0  0  0  0  0  0  0  0  0  0
   -1.4094    0.3095   -0.2855 C   0  0  1  0  0  0  0  0  0  0  0  0
   -1.6883    1.5453    0.3300 O   0  0  0  0  0  0  0  0  0  0  0  0
   -0.2917   -0.3176    0.5347 C   0  0  1  0  0  0  0  0  0  0  0  0
    0.0048   -1.5451   -0.0540 O   0  0  0  0  0  0  0  0  0  0  0  0
    0.8980    0.6053    0.4239 C   0  0  2  0  0  0  0  0  0  0  0  0
    1.2166    0.8092   -0.9022 O   0  0  0  0  0  0  0  0  0  0  0  0
    2.0767    0.1122    1.1439 C   0  0  0  0  0  0  0  0  0  0  0  0
    3.2867   -0.0721    0.4313 N   0  0  0  0  0  0  0  0  0  0  0  0
    2.0688   -0.1581    2.3729 O   0  0  0  0  0  0  0  0  0  0  0  0
   -3.5191    0.1212   -0.3040 H   0  0  0  0  0  0  0  0  0  0  0  0
   -2.6997   -1.2308    0.5802 H   0  0  0  0  0  0  0  0  0  0  0  0
   -2.6274   -1.1753   -1.2324 H   0  0  0  0  0  0  0  0  0  0  0  0
   -1.0199    0.4487   -1.3168 H   0  0  0  0  0  0  0  0  0  0  0  0
   -2.6588    1.7096    0.2809 H   0  0  0  0  0  0  0  0  0  0  0  0
   -0.6099   -0.4955    1.5615 H   0  0  0  0  0  0  0  0  0  0  0  0
   -0.0862   -1.3952   -1.0431 H   0  0  0  0  0  0  0  0  0  0  0  0
    0.6554    1.6129    0.8529 H   0  0  0  0  0  0  0  0  0  0  0  0
    1.5245   -0.0489   -1.2811 H   0  0  0  0  0  0  0  0  0  0  0  0
    3.3389   -0.5487   -0.4925 H   0  0  0  0  0  0  0  0  0  0  0  0
    4.1774    0.2799    0.8363 H   0  0  0  0  0  0  0  0  0  0  0  0
  1  2  1  0
  2  3  1  0
  2  4  1  0
  4  5  1  0
  4  6  1  0
  6  7  1  0
  6  8  1  0
  8  9  1  0
  8 10  2  0
  1 11  1  0
  1 12  1  0
  1 13  1  0
  2 14  1  6
  3 15  1  0
  4 16  1  1
  5 17  1  0
  6 18  1  1
  7 19  1  0
  9 20  1  0
  9 21  1  0
M  END
$$$$

     RDKit          3D

 21 20  0  0  0  0  0  0  0  0999 V2000
   -1.4238    1.2971    0.1836 C   0  0  0  0  0  0  0  0  0  0  0  0
   -1.3001   -0.0765   -0.4108 C   0  0  1  0  0  0  0  0  0  0  0  0
   -0.9705   -0.0643   -1.7611 O   0  0  0  0  0  0  0  0  0  0  0  0
   -0.4830   -1.0327    0.3862 C   0  0  1  0  0  0  0  0  0  0  0  0
   -0.8135   -2.3340   -0.1289 O   0  0  0  0  0  0  0  0  0  0  0  0
    1.0029   -0.9578    0.1867 C   0  0  2  0  0  0  0  0  0  0  0  0
    1.5139   -2.0477    0.9639 O   0  0  0  0  0  0  0  0  0  0  0  0
    1.6675    0.2799    0.5492 C   0  0  0  0  0  0  0  0  0  0  0  0
    1.5021    1.4835   -0.1686 N   0  0  0  0  0  0  0  0  0  0  0  0
    2.4353    0.3014    1.5468 O   0  0  0  0  0  0  0  0  0  0  0  0
   -0.8921    1.4110    1.1637 H   0  0  0  0  0  0  0  0  0  0  0  0
   -1.1471    2.0780   -0.5470 H   0  0  0  0  0  0  0  0  0  0  0  0
   -2.4986    1.5532    0.4457 H   0  0  0  0  0  0  0  0  0  0  0  0
   -2.3920   -0.4721   -0.4269 H   0  0  0  0  0  0  0  0  0  0  0  0
   -0.9174    0.8535   -2.1348 H   0  0  0  0  0  0  0  0  0  0  0  0
   -0.7473   -1.0413    1.4541 H   0  0  0  0  0  0  0  0  0  0  0  0
   -0.8315   -2.2087   -1.1076 H   0  0  0  0  0  0  0  0  0  0  0  0
    1.2140   -1.2612   -0.8625 H   0  0  0  0  0  0  0  0  0  0  0  0
    2.2068   -1.6707    1.5744 H   0  0  0  0  0  0  0  0  0  0  0  0
    1.4283    1.5091   -1.2235 H   0  0  0  0  0  0  0  0  0  0  0  0
    1.4460    2.4001    0.3172 H   0  0  0  0  0  0  0  0  0  0  0  0
  1  2  1  0
  2  3  1  0
  2  4  1  0
  4  5  1  0
  4  6  1  0
  6  7  1  0
  6  8  1  0
  8  9  1  0
  8 10  2  0
  1 11  1  0
  1 12  1  0
  1 13  1  0
  2 14  1  6
  3 15  1  0
  4 16  1  1
  5 17  1  0
  6 18  1  6
  7 19  1  0
  9 20  1  0
  9 21  1  0
M  END
$$$$

     RDKit          3D

 21 20  0  0  0  0  0  0  0  0999 V2000
    1.7976    0.8235    0.9703 C   0  0  0  0  0  0  0  0  0  0  0  0
    1.4667   -0.3275    0.0805 C   0  0  1  0  0  0  0  0  0  0  0  0
    1.4904   -1.5258    0.7597 O   0  0  0  0  0  0  0  0  0  0  0  0
    0.2558   -0.1508   -0.7750 C   0  0  1  0  0  0  0  0  0  0  0  0
    0.3509   -1.1883   -1.7662 O   0  0  0  0  0  0  0  0  0  0  0  0
   -1.0597   -0.5008   -0.0797 C   0  0  2  0  0  0  0  0  0  0  0  0
   -2.0340   -0.4538   -1.1075 O   0  0  0  0  0  0  0  0  0  0  0  0
   -1.4893    0.4653    0.9266 C   0  0  0  0  0  0  0  0  0  0  0  0
   -2.5709    1.3427    0.6843 N   0  0  0  0  0  0  0  0  0  0  0  0
   -0.9014    0.5295    2.0235 O   0  0  0  0  0  0  0  0  0  0  0  0
    1.7850    0.4853    2.0414 H   0  0  0  0  0  0  0  0  0  0  0  0
    1.1667    1.7209    0.7891 H   0  0  0  0  0  0  0  0  0  0  0  0
    2.8567    1.2126    0.7998 H   0  0  0  0  0  0  0  0  0  0  0  0
    2.3786   -0.3942   -0.6340 H   0  0  0  0  0  0  0  0  0  0  0  0
    2.4066   -1.8790    0.8994 H   0  0  0  0  0  0  0  0  0  0  0  0
    0.1927    0.8224   -1.2726 H   0  0  0  0  0  0  0  0  0  0  0  0
    0.5849   -1.9872   -1.2323 H   0  0  0  0  0  0  0  0  0  0  0  0
   -0.9668   -1.5299    0.3004 H   0  0  0  0  0  0  0  0  0  0  0  0
   -1.6890   -0.8600   -1.9369 H   0  0  0  0  0  0  0  0  0  0  0  0
   -2.8679    1.6617   -0.2668 H   0  0  0  0  0  0  0  0  0  0  0  0
   -3.1537    1.7335    1.4790 H   0  0  0  0  0  0  0  0  0  0  0  0
  1  2  1  0
  2  3  1  0
  2  4  1  0
  4  5  1  0
  4  6  1  0
  6  7  1  0
  6  8  1  0
  8  9  1  0
  8 10  2  0
  1 11  1  0
  1 12  1  0
  1 13  1  0
  2 14  1  6
  3 15  1  0
  4 16  1  6
  5 17  1  0
  6 18  1  1
  7 19  1  0
  9 20  1  0
  9 21  1  0
M  END
$$$$

     RDKit          3D

 21 20  0  0  0  0  0  0  0  0999 V2000
   -2.4088    0.6277   -0.3519 C   0  0  0  0  0  0  0  0  0  0  0  0
   -1.6205   -0.5495    0.1626 C   0  0  1  0  0  0  0  0  0  0  0  0
   -1.4866   -1.5710   -0.7427 O   0  0  0  0  0  0  0  0  0  0  0  0
   -0.3070   -0.0776    0.7389 C   0  0  1  0  0  0  0  0  0  0  0  0
    0.3512   -1.1102    1.4044 O   0  0  0  0  0  0  0  0  0  0  0  0
    0.6264    0.4511   -0.3113 C   0  0  2  0  0  0  0  0  0  0  0  0
    0.9520   -0.5610   -1.1964 O   0  0  0  0  0  0  0  0  0  0  0  0
    1.8942    0.8379    0.3917 C   0  0  0  0  0  0  0  0  0  0  0  0
    3.1359    0.2314    0.1358 N   0  0  0  0  0  0  0  0  0  0  0  0
    1.7762    1.7638    1.2483 O   0  0  0  0  0  0  0  0  0  0  0  0
   -3.4894    0.3417   -0.3874 H   0  0  0  0  0  0  0  0  0  0  0  0
   -2.3576    1.4101    0.4596 H   0  0  0  0  0  0  0  0  0  0  0  0
   -2.0420    1.0224   -1.3104 H   0  0  0  0  0  0  0  0  0  0  0  0
   -2.2065   -0.9596    1.0331 H   0  0  0  0  0  0  0  0  0  0  0  0
   -1.6612   -1.3432   -1.6718 H   0  0  0  0  0  0  0  0  0  0  0  0
   -0.5290    0.7142    1.4832 H   0  0  0  0  0  0  0  0  0  0  0  0
    0.0114   -1.9899    1.1096 H   0  0  0  0  0  0  0  0  0  0  0  0
    0.2216    1.3250   -0.8595 H   0  0  0  0  0  0  0  0  0  0  0  0
    1.9237   -0.6113   -1.3922 H   0  0  0  0  0  0  0  0  0  0  0  0
    3.3608   -0.7145    0.4579 H   0  0  0  0  0  0  0  0  0  0  0  0
    3.8553    0.7625   -0.4014 H   0  0  0  0  0  0  0  0  0  0  0  0
  1  2  1  0
  2  3  1  0
  2  4  1  0
  4  5  1  0
  4  6  1  0
  6  7  1  0
  6  8  1  0
  8  9  1  0
  8 10  2  0
  1 11  1  0
  1 12  1  0
  1 13  1  0
  2 14  1  1
  3 15  1  0
  4 16  1  1
  5 17  1  0
  6 18  1  6
  7 19  1  0
  9 20  1  0
  9 21  1  0
M  END
$$$$

     RDKit          3D

 21 20  0  0  0  0  0  0  0  0999 V2000
   -1.4636   -1.1989    0.6045 C   0  0  0  0  0  0  0  0  0  0  0  0
   -0.8450   -0.6408   -0.6592 C   0  0  1  0  0  0  0  0  0  0  0  0
   -1.8631   -0.6391   -1.6294 O   0  0  0  0  0  0  0  0  0  0  0  0
   -0.3940    0.7773   -0.4848 C   0  0  1  0  0  0  0  0  0  0  0  0
   -1.5236    1.5117   -0.0608 O   0  0  0  0  0  0  0  0  0  0  0  0
    0.6612    0.9685    0.5547 C   0  0  2  0  0  0  0  0  0  0  0  0
    0.9228    2.3442    0.6183 O   0  0  0  0  0  0  0  0  0  0  0  0
    1.8938    0.2126    0.3137 C   0  0  0  0  0  0  0  0  0  0  0  0
    1.9613   -1.1905    0.2006 N   0  0  0  0  0  0  0  0  0  0  0  0
    2.9787    0.8336    0.1961 O   0  0  0  0  0  0  0  0  0  0  0  0
   -1.6537   -2.2723    0.4918 H   0  0  0  0  0  0  0  0  0  0  0  0
   -0.7466   -1.0609    1.4227 H   0  0  0  0  0  0  0  0  0  0  0  0
   -2.4348   -0.6738    0.8276 H   0  0  0  0  0  0  0  0  0  0  0  0
   -0.0845   -1.3350   -1.0035 H   0  0  0  0  0  0  0  0  0  0  0  0
   -1.4246   -0.4635   -2.5015 H   0  0  0  0  0  0  0  0  0  0  0  0
   -0.0710    1.2120   -1.4319 H   0  0  0  0  0  0  0  0  0  0  0  0
   -1.4634    1.7288    0.9133 H   0  0  0  0  0  0  0  0  0  0  0  0
    0.2601    0.7068    1.5744 H   0  0  0  0  0  0  0  0  0  0  0  0
    1.3163    2.5803   -0.2609 H   0  0  0  0  0  0  0  0  0  0  0  0
    1.6327   -1.7891    0.9766 H   0  0  0  0  0  0  0  0  0  0  0  0
    2.3409   -1.6118   -0.6622 H   0  0  0  0  0  0  0  0  0  0  0  0
  1  2  1  0
  2  3  1  0
  2  4  1  0
  4  5  1  0
  4  6  1  0
  6  7  1  0
  6  8  1  0
  8  9  1  0
  8 10  2  0
  1 11  1  0
  1 12  1  0
  1 13  1  0
  2 14  1  6
  3 15  1  0
  4 16  1  6
  5 17  1  0
  6 18  1  1
  7 19  1  0
  9 20  1  0
  9 21  1  0
M  END
$$$$

     RDKit          3D

 21 20  0  0  0  0  0  0  0  0999 V2000
   -2.6250    0.6935   -0.2968 C   0  0  0  0  0  0  0  0  0  0  0  0
   -1.4906   -0.1625    0.1608 C   0  0  1  0  0  0  0  0  0  0  0  0
   -1.7501   -1.4902   -0.1883 O   0  0  0  0  0  0  0  0  0  0  0  0
   -0.1650    0.2792   -0.4500 C   0  0  1  0  0  0  0  0  0  0  0  0
    0.0885    1.5932   -0.1023 O   0  0  0  0  0  0  0  0  0  0  0  0
    0.9599   -0.6211    0.0264 C   0  0  2  0  0  0  0  0  0  0  0  0
    1.1049   -0.5615    1.4093 O   0  0  0  0  0  0  0  0  0  0  0  0
    2.2157   -0.2034   -0.6394 C   0  0  0  0  0  0  0  0  0  0  0  0
    3.3228    0.1757    0.1620 N   0  0  0  0  0  0  0  0  0  0  0  0
    2.3309   -0.1744   -1.8969 O   0  0  0  0  0  0  0  0  0  0  0  0
   -2.6671    0.8081   -1.3979 H   0  0  0  0  0  0  0  0  0  0  0  0
   -2.6387    1.6980    0.1763 H   0  0  0  0  0  0  0  0  0  0  0  0
   -3.5726    0.1863    0.0048 H   0  0  0  0  0  0  0  0  0  0  0  0
   -1.4275   -0.0927    1.2591 H   0  0  0  0  0  0  0  0  0  0  0  0
   -2.6900   -1.6232   -0.4935 H   0  0  0  0  0  0  0  0  0  0  0  0
   -0.1993    0.2211   -1.5559 H   0  0  0  0  0  0  0  0  0  0  0  0
    0.1976    1.6713    0.8571 H   0  0  0  0  0  0  0  0  0  0  0  0
    0.7623   -1.6824   -0.2283 H   0  0  0  0  0  0  0  0  0  0  0  0
    0.7063   -1.3568    1.8570 H   0  0  0  0  0  0  0  0  0  0  0  0
    3.6584   -0.4042    0.9872 H   0  0  0  0  0  0  0  0  0  0  0  0
    3.8786    1.0460   -0.0056 H   0  0  0  0  0  0  0  0  0  0  0  0
  1  2  1  0
  2  3  1  0
  2  4  1  0
  4  5  1  0
  4  6  1  0
  6  7  1  0
  6  8  1  0
  8  9  1  0
  8 10  2  0
  1 11  1  0
  1 12  1  0
  1 13  1  0
  2 14  1  1
  3 15  1  0
  4 16  1  6
  5 17  1  0
  6 18  1  1
  7 19  1  0
  9 20  1  0
  9 21  1  0
M  END
$$$$

     RDKit          3D

 21 20  0  0  0  0  0  0  0  0999 V2000
   -1.6750    1.3722   -0.0338 C   0  0  0  0  0  0  0  0  0  0  0  0
   -1.4820   -0.0499    0.3369 C   0  0  1  0  0  0  0  0  0  0  0  0
   -1.9389   -0.9734   -0.6010 O   0  0  0  0  0  0  0  0  0  0  0  0
   -0.1570   -0.4395    0.8797 C   0  0  1  0  0  0  0  0  0  0  0  0
   -0.3878   -1.6962    1.5260 O   0  0  0  0  0  0  0  0  0  0  0  0
    0.9192   -0.7654   -0.1180 C   0  0  2  0  0  0  0  0  0  0  0  0
    1.9979   -1.2325    0.6932 O   0  0  0  0  0  0  0  0  0  0  0  0
    1.3466    0.2892   -1.0093 C   0  0  0  0  0  0  0  0  0  0  0  0
    2.6675    0.7977   -0.9346 N   0  0  0  0  0  0  0  0  0  0  0  0
    0.5870    0.7829   -1.8610 O   0  0  0  0  0  0  0  0  0  0  0  0
   -2.5757    1.7884    0.4686 H   0  0  0  0  0  0  0  0  0  0  0  0
   -0.8088    2.0391    0.0987 H   0  0  0  0  0  0  0  0  0  0  0  0
   -1.9454    1.4127   -1.1301 H   0  0  0  0  0  0  0  0  0  0  0  0
   -2.1948   -0.2237    1.2216 H   0  0  0  0  0  0  0  0  0  0  0  0
   -2.7947   -0.6967   -1.0108 H   0  0  0  0  0  0  0  0  0  0  0  0
    0.1722    0.2364    1.6841 H   0  0  0  0  0  0  0  0  0  0  0  0
   -0.8017   -2.2475    0.8038 H   0  0  0  0  0  0  0  0  0  0  0  0
    0.6001   -1.6747   -0.6843 H   0  0  0  0  0  0  0  0  0  0  0  0
    2.0995   -0.6343    1.4847 H   0  0  0  0  0  0  0  0  0  0  0  0
    3.4620    0.1122   -0.9367 H   0  0  0  0  0  0  0  0  0  0  0  0
    2.9097    1.8030   -0.8777 H   0  0  0  0  0  0  0  0  0  0  0  0
  1  2  1  0
  2  3  1  0
  2  4  1  0
  4  5  1  0
  4  6  1  0
  6  7  1  0
  6  8  1  0
  8  9  1  0
  8 10  2  0
  1 11  1  0
  1 12  1  0
  1 13  1  0
  2 14  1  1
  3 15  1  0
  4 16  1  1
  5 17  1  0
  6 18  1  6
  7 19  1  0
  9 20  1  0
  9 21  1  0
M  END
$$$$

     RDKit          3D

 21 20  0  0  0  0  0  0  0  0999 V2000
    2.6285    0.2139   -0.2812 C   0  0  0  0  0  0  0  0  0  0  0  0
    1.1295    0.4898   -0.4883 C   0  0  1  0  0  0  0  0  0  0  0  0
    0.9376    0.5052   -1.8656 O   0  0  0  0  0  0  0  0  0  0  0  0
    0.4056   -0.6072    0.2005 C   0  0  1  0  0  0  0  0  0  0  0  0
    0.6737   -0.5193    1.5667 O   0  0  0  0  0  0  0  0  0  0  0  0
   -1.0479   -0.7081   -0.0651 C   0  0  2  0  0  0  0  0  0  0  0  0
   -1.2862   -0.7936   -1.4280 O   0  0  0  0  0  0  0  0  0  0  0  0
   -1.8932    0.3157    0.5251 C   0  0  0  0  0  0  0  0  0  0  0  0
   -2.7876    1.0430   -0.3044 N   0  0  0  0  0  0  0  0  0  0  0  0
   -1.8935    0.6161    1.7507 O   0  0  0  0  0  0  0  0  0  0  0  0
    2.9268   -0.5280   -1.0742 H   0  0  0  0  0  0  0  0  0  0  0  0
    3.2212    1.1283   -0.3529 H   0  0  0  0  0  0  0  0  0  0  0  0
    2.7719   -0.3386    0.6844 H   0  0  0  0  0  0  0  0  0  0  0  0
    0.9649    1.4926   -0.0292 H   0  0  0  0  0  0  0  0  0  0  0  0
    1.6176    1.0255   -2.3319 H   0  0  0  0  0  0  0  0  0  0  0  0
    0.8751   -1.5785   -0.1296 H   0  0  0  0  0  0  0  0  0  0  0  0
    0.5739   -1.3853    2.0097 H   0  0  0  0  0  0  0  0  0  0  0  0
   -1.3883   -1.7009    0.3574 H   0  0  0  0  0  0  0  0  0  0  0  0
   -2.1104   -1.3144   -1.6166 H   0  0  0  0  0  0  0  0  0  0  0  0
   -3.6693    0.6031   -0.7025 H   0  0  0  0  0  0  0  0  0  0  0  0
   -2.6499    2.0406   -0.5790 H   0  0  0  0  0  0  0  0  0  0  0  0
  1  2  1  0
  2  3  1  0
  2  4  1  0
  4  5  1  0
  4  6  1  0
  6  7  1  0
  6  8  1  0
  8  9  1  0
  8 10  2  0
  1 11  1  0
  1 12  1  0
  1 13  1  0
  2 14  1  1
  3 15  1  0
  4 16  1  6
  5 17  1  0
  6 18  1  1
  7 19  1  0
  9 20  1  0
  9 21  1  0
M  END
$$$$
