
     RDKit          3D

 18 17  0  0  0  0  0  0  0  0999 V2000
    1.9322    1.2798    0.6578 O   0  0  0  0  0  0  0  0  0  0  0  0
    2.3177    0.3075   -0.0365 C   0  0  0  0  0  0  0  0  0  0  0  0
    3.6335    0.3676   -0.4830 O   0  0  0  0  0  0  0  0  0  0  0  0
    1.5265   -0.8585   -0.4110 C   0  0  0  0  0  0  0  0  0  0  0  0
    0.1197   -0.8669    0.0984 C   0  0  0  0  0  0  0  0  0  0  0  0
   -0.7077    0.2504   -0.3440 C   0  0  0  0  0  0  0  0  0  0  0  0
   -0.2771    1.1094   -1.0659 O   0  0  0  0  0  0  0  0  0  0  0  0
   -2.1117    0.3532    0.0906 C   0  0  0  0  0  0  0  0  0  0  0  0
   -2.7573    1.4680   -0.4158 O   0  0  0  0  0  0  0  0  0  0  0  0
   -2.7959   -0.8074   -0.3355 O   0  0  0  0  0  0  0  0  0  0  0  0
    4.3151    0.9557    0.0160 H   0  0  0  0  0  0  0  0  0  0  0  0
    2.0739   -1.7692   -0.0940 H   0  0  0  0  0  0  0  0  0  0  0  0
    1.4757   -0.8881   -1.5313 H   0  0  0  0  0  0  0  0  0  0  0  0
    0.1972   -0.9216    1.2264 H   0  0  0  0  0  0  0  0  0  0  0  0
   -0.3925   -1.8116   -0.1814 H   0  0  0  0  0  0  0  0  0  0  0  0
   -2.1546    0.3247    1.2128 H   0  0  0  0  0  0  0  0  0  0  0  0
   -2.9373    2.0688    0.3448 H   0  0  0  0  0  0  0  0  0  0  0  0
   -3.4575   -0.5618   -1.0574 H   0  0  0  0  0  0  0  0  0  0  0  0
  1  2  2  0
  2  3  1  0
  2  4  1  0
  4  5  1  0
  5  6  1  0
  6  7  2  0
  6  8  1  0
  8  9  1  0
  8 10  1  0
  3 11  1  0
  4 12  1  0
  4 13  1  0
  5 14  1  0
  5 15  1  0
  8 16  1  0
  9 17  1  0
 10 18  1  0
M  END
$$$$

     RDKit          3D

 18 17  0  0  0  0  0  0  0  0999 V2000
   -2.3457    0.0124    1.5646 O   0  0  0  0  0  0  0  0  0  0  0  0
   -2.2599    0.3733    0.3549 C   0  0  0  0  0  0  0  0  0  0  0  0
   -2.8246    1.5925    0.0195 O   0  0  0  0  0  0  0  0  0  0  0  0
   -1.5689   -0.5122   -0.6217 C   0  0  0  0  0  0  0  0  0  0  0  0
   -0.1716   -0.8733   -0.1458 C   0  0  0  0  0  0  0  0  0  0  0  0
    0.6414    0.3707    0.0242 C   0  0  0  0  0  0  0  0  0  0  0  0
    0.1063    1.4315   -0.2202 O   0  0  0  0  0  0  0  0  0  0  0  0
    2.0487    0.3336    0.4723 C   0  0  0  0  0  0  0  0  0  0  0  0
    2.4722   -0.9816    0.6893 O   0  0  0  0  0  0  0  0  0  0  0  0
    2.8850    0.9392   -0.4811 O   0  0  0  0  0  0  0  0  0  0  0  0
   -3.7330    1.8715    0.3815 H   0  0  0  0  0  0  0  0  0  0  0  0
   -1.5180   -0.1046   -1.6204 H   0  0  0  0  0  0  0  0  0  0  0  0
   -2.1461   -1.4759   -0.6848 H   0  0  0  0  0  0  0  0  0  0  0  0
    0.3116   -1.4674   -0.9388 H   0  0  0  0  0  0  0  0  0  0  0  0
   -0.2761   -1.4371    0.8104 H   0  0  0  0  0  0  0  0  0  0  0  0
    2.1865    0.9150    1.4069 H   0  0  0  0  0  0  0  0  0  0  0  0
    2.4020   -1.4907   -0.1632 H   0  0  0  0  0  0  0  0  0  0  0  0
    3.7904    0.5030   -0.3997 H   0  0  0  0  0  0  0  0  0  0  0  0
  1  2  2  0
  2  3  1  0
  2  4  1  0
  4  5  1  0
  5  6  1  0
  6  7  2  0
  6  8  1  0
  8  9  1  0
  8 10  1  0
  3 11  1  0
  4 12  1  0
  4 13  1  0
  5 14  1  0
  5 15  1  0
  8 16  1  0
  9 17  1  0
 10 18  1  0
M  END
$$$$

     RDKit          3D

 18 17  0  0  0  0  0  0  0  0999 V2000
    2.8997   -0.5686    0.9994 O   0  0  0  0  0  0  0  0  0  0  0  0
    2.5580   -0.1119   -0.1136 C   0  0  0  0  0  0  0  0  0  0  0  0
    3.5494    0.4619   -0.9030 O   0  0  0  0  0  0  0  0  0  0  0  0
    1.1620   -0.1683   -0.5899 C   0  0  0  0  0  0  0  0  0  0  0  0
    0.2169   -0.7630    0.4571 C   0  0  0  0  0  0  0  0  0  0  0  0
   -1.1315   -0.7474   -0.2022 C   0  0  0  0  0  0  0  0  0  0  0  0
   -1.5740   -1.7962   -0.6404 O   0  0  0  0  0  0  0  0  0  0  0  0
   -1.9305    0.4808   -0.3432 C   0  0  0  0  0  0  0  0  0  0  0  0
   -3.1211    0.1793   -0.9961 O   0  0  0  0  0  0  0  0  0  0  0  0
   -2.1388    1.1762    0.8315 O   0  0  0  0  0  0  0  0  0  0  0  0
    4.3914    0.8126   -0.4559 H   0  0  0  0  0  0  0  0  0  0  0  0
    0.7853    0.8690   -0.7946 H   0  0  0  0  0  0  0  0  0  0  0  0
    1.0720   -0.8447   -1.4697 H   0  0  0  0  0  0  0  0  0  0  0  0
    0.4914   -1.8244    0.5992 H   0  0  0  0  0  0  0  0  0  0  0  0
    0.2335   -0.1881    1.3971 H   0  0  0  0  0  0  0  0  0  0  0  0
   -1.3620    1.1427   -1.0422 H   0  0  0  0  0  0  0  0  0  0  0  0
   -3.7746   -0.2405   -0.3948 H   0  0  0  0  0  0  0  0  0  0  0  0
   -2.3271    2.1306    0.6028 H   0  0  0  0  0  0  0  0  0  0  0  0
  1  2  2  0
  2  3  1  0
  2  4  1  0
  4  5  1  0
  5  6  1  0
  6  7  2  0
  6  8  1  0
  8  9  1  0
  8 10  1  0
  3 11  1  0
  4 12  1  0
  4 13  1  0
  5 14  1  0
  5 15  1  0
  8 16  1  0
  9 17  1  0
 10 18  1  0
M  END
$$$$

     RDKit          3D

 18 17  0  0  0  0  0  0  0  0999 V2000
    3.4592    0.9258    0.2917 O   0  0  0  0  0  0  0  0  0  0  0  0
    2.3735    0.3317    0.0617 C   0  0  0  0  0  0  0  0  0  0  0  0
    2.1361   -0.8406    0.7563 O   0  0  0  0  0  0  0  0  0  0  0  0
    1.4581    0.9301   -0.9179 C   0  0  0  0  0  0  0  0  0  0  0  0
    0.1997    0.1474   -1.1172 C   0  0  0  0  0  0  0  0  0  0  0  0
   -0.5899    0.0028    0.1195 C   0  0  0  0  0  0  0  0  0  0  0  0
   -0.1787    0.5031    1.1452 O   0  0  0  0  0  0  0  0  0  0  0  0
   -1.8604   -0.7324    0.1352 C   0  0  0  0  0  0  0  0  0  0  0  0
   -2.4758   -0.7791    1.3580 O   0  0  0  0  0  0  0  0  0  0  0  0
   -2.7803   -0.1641   -0.7730 O   0  0  0  0  0  0  0  0  0  0  0  0
    2.8907   -1.5114    0.9667 H   0  0  0  0  0  0  0  0  0  0  0  0
    1.1925    1.9423   -0.5770 H   0  0  0  0  0  0  0  0  0  0  0  0
    1.9822    1.0037   -1.8909 H   0  0  0  0  0  0  0  0  0  0  0  0
   -0.4347    0.7328   -1.8390 H   0  0  0  0  0  0  0  0  0  0  0  0
    0.3768   -0.8307   -1.6274 H   0  0  0  0  0  0  0  0  0  0  0  0
   -1.7367   -1.7939   -0.2286 H   0  0  0  0  0  0  0  0  0  0  0  0
   -2.3992    0.0442    1.8902 H   0  0  0  0  0  0  0  0  0  0  0  0
   -3.6129    0.0882   -0.3433 H   0  0  0  0  0  0  0  0  0  0  0  0
  1  2  2  0
  2  3  1  0
  2  4  1  0
  4  5  1  0
  5  6  1  0
  6  7  2  0
  6  8  1  0
  8  9  1  0
  8 10  1  0
  3 11  1  0
  4 12  1  0
  4 13  1  0
  5 14  1  0
  5 15  1  0
  8 16  1  0
  9 17  1  0
 10 18  1  0
M  END
$$$$

     RDKit          3D

 18 17  0  0  0  0  0  0  0  0999 V2000
    1.2592    0.8144   -1.6617 O   0  0  0  0  0  0  0  0  0  0  0  0
    2.0301    0.1781   -0.9157 C   0  0  0  0  0  0  0  0  0  0  0  0
    3.2939   -0.1334   -1.3632 O   0  0  0  0  0  0  0  0  0  0  0  0
    1.5915   -0.2328    0.4245 C   0  0  0  0  0  0  0  0  0  0  0  0
    0.1955    0.1833    0.7541 C   0  0  0  0  0  0  0  0  0  0  0  0
   -0.8093   -0.3736   -0.1694 C   0  0  0  0  0  0  0  0  0  0  0  0
   -0.4959   -1.1037   -1.1061 O   0  0  0  0  0  0  0  0  0  0  0  0
   -2.2322   -0.0627    0.0132 C   0  0  0  0  0  0  0  0  0  0  0  0
   -3.0360   -0.6709   -0.9461 O   0  0  0  0  0  0  0  0  0  0  0  0
   -2.4601    1.3190   -0.0308 O   0  0  0  0  0  0  0  0  0  0  0  0
    3.7326    0.3371   -2.1640 H   0  0  0  0  0  0  0  0  0  0  0  0
    2.2681    0.2887    1.1600 H   0  0  0  0  0  0  0  0  0  0  0  0
    1.7288   -1.3172    0.6119 H   0  0  0  0  0  0  0  0  0  0  0  0
   -0.0386   -0.2248    1.7708 H   0  0  0  0  0  0  0  0  0  0  0  0
    0.1387    1.2866    0.8581 H   0  0  0  0  0  0  0  0  0  0  0  0
   -2.5634   -0.4070    1.0014 H   0  0  0  0  0  0  0  0  0  0  0  0
   -3.0180   -1.6425   -0.7515 H   0  0  0  0  0  0  0  0  0  0  0  0
   -1.5850    1.7615   -0.1244 H   0  0  0  0  0  0  0  0  0  0  0  0
  1  2  2  0
  2  3  1  0
  2  4  1  0
  4  5  1  0
  5  6  1  0
  6  7  2  0
  6  8  1  0
  8  9  1  0
  8 10  1  0
  3 11  1  0
  4 12  1  0
  4 13  1  0
  5 14  1  0
  5 15  1  0
  8 16  1  0
  9 17  1  0
 10 18  1  0
M  END
$$$$

     RDKit          3D

 18 17  0  0  0  0  0  0  0  0999 V2000
    3.6334    0.3272    0.0626 O   0  0  0  0  0  0  0  0  0  0  0  0
    2.4319   -0.0359   -0.0254 C   0  0  0  0  0  0  0  0  0  0  0  0
    1.9000   -1.0238    0.7991 O   0  0  0  0  0  0  0  0  0  0  0  0
    1.5890    0.6252   -1.0431 C   0  0  0  0  0  0  0  0  0  0  0  0
    0.1796    0.0782   -1.0187 C   0  0  0  0  0  0  0  0  0  0  0  0
   -0.4753    0.2800    0.2910 C   0  0  0  0  0  0  0  0  0  0  0  0
    0.0793    0.8301    1.2338 O   0  0  0  0  0  0  0  0  0  0  0  0
   -1.8687   -0.1989    0.4932 C   0  0  0  0  0  0  0  0  0  0  0  0
   -2.3213    0.0730    1.7755 O   0  0  0  0  0  0  0  0  0  0  0  0
   -2.7221    0.4133   -0.4545 O   0  0  0  0  0  0  0  0  0  0  0  0
    2.2845   -1.0944    1.7539 H   0  0  0  0  0  0  0  0  0  0  0  0
    1.5493    1.7281   -0.9294 H   0  0  0  0  0  0  0  0  0  0  0  0
    2.0559    0.4258   -2.0287 H   0  0  0  0  0  0  0  0  0  0  0  0
    0.1263   -0.9734   -1.2976 H   0  0  0  0  0  0  0  0  0  0  0  0
   -0.3865    0.6551   -1.8034 H   0  0  0  0  0  0  0  0  0  0  0  0
   -1.8843   -1.3125    0.3125 H   0  0  0  0  0  0  0  0  0  0  0  0
   -2.5751   -0.7704    2.2200 H   0  0  0  0  0  0  0  0  0  0  0  0
   -3.5959   -0.0267   -0.3408 H   0  0  0  0  0  0  0  0  0  0  0  0
  1  2  2  0
  2  3  1  0
  2  4  1  0
  4  5  1  0
  5  6  1  0
  6  7  2  0
  6  8  1  0
  8  9  1  0
  8 10  1  0
  3 11  1  0
  4 12  1  0
  4 13  1  0
  5 14  1  0
  5 15  1  0
  8 16  1  0
  9 17  1  0
 10 18  1  0
M  END
$$$$

     RDKit          3D

 18 17  0  0  0  0  0  0  0  0999 V2000
    2.8853    1.1916    0.1176 O   0  0  0  0  0  0  0  0  0  0  0  0
    2.5735    0.0186   -0.2263 C   0  0  0  0  0  0  0  0  0  0  0  0
    3.5654   -0.9353   -0.2172 O   0  0  0  0  0  0  0  0  0  0  0  0
    1.1719   -0.2504   -0.6122 C   0  0  0  0  0  0  0  0  0  0  0  0
    0.2524   -0.3517    0.5835 C   0  0  0  0  0  0  0  0  0  0  0  0
   -1.1158   -0.6236    0.0552 C   0  0  0  0  0  0  0  0  0  0  0  0
   -1.4053   -1.7432   -0.2563 O   0  0  0  0  0  0  0  0  0  0  0  0
   -2.0747    0.5067   -0.0670 C   0  0  0  0  0  0  0  0  0  0  0  0
   -3.2623   -0.0135   -0.5780 O   0  0  0  0  0  0  0  0  0  0  0  0
   -2.3002    1.1349    1.1603 O   0  0  0  0  0  0  0  0  0  0  0  0
    4.3707   -0.9050    0.4183 H   0  0  0  0  0  0  0  0  0  0  0  0
    1.0489   -1.1823   -1.1960 H   0  0  0  0  0  0  0  0  0  0  0  0
    0.7708    0.5789   -1.2437 H   0  0  0  0  0  0  0  0  0  0  0  0
    0.5144   -1.2449    1.2207 H   0  0  0  0  0  0  0  0  0  0  0  0
    0.2762    0.5603    1.2178 H   0  0  0  0  0  0  0  0  0  0  0  0
   -1.7200    1.2497   -0.8350 H   0  0  0  0  0  0  0  0  0  0  0  0
   -3.2360   -0.1015   -1.5617 H   0  0  0  0  0  0  0  0  0  0  0  0
   -2.3152    2.1108    0.9888 H   0  0  0  0  0  0  0  0  0  0  0  0
  1  2  2  0
  2  3  1  0
  2  4  1  0
  4  5  1  0
  5  6  1  0
  6  7  2  0
  6  8  1  0
  8  9  1  0
  8 10  1  0
  3 11  1  0
  4 12  1  0
  4 13  1  0
  5 14  1  0
  5 15  1  0
  8 16  1  0
  9 17  1  0
 10 18  1  0
M  END
$$$$

     RDKit          3D

 18 17  0  0  0  0  0  0  0  0999 V2000
   -2.6515   -1.3494   -1.2702 O   0  0  0  0  0  0  0  0  0  0  0  0
   -2.6357   -0.6404   -0.2500 C   0  0  0  0  0  0  0  0  0  0  0  0
   -3.7778    0.0404    0.1106 O   0  0  0  0  0  0  0  0  0  0  0  0
   -1.4065   -0.5294    0.5670 C   0  0  0  0  0  0  0  0  0  0  0  0
   -0.2327    0.0024   -0.2508 C   0  0  0  0  0  0  0  0  0  0  0  0
    0.9703    0.0881    0.5876 C   0  0  0  0  0  0  0  0  0  0  0  0
    0.9091   -0.2884    1.7411 O   0  0  0  0  0  0  0  0  0  0  0  0
    2.2571    0.6151    0.0846 C   0  0  0  0  0  0  0  0  0  0  0  0
    3.2477    0.5317    1.0429 O   0  0  0  0  0  0  0  0  0  0  0  0
    2.5725   -0.1344   -1.0647 O   0  0  0  0  0  0  0  0  0  0  0  0
   -4.4699    0.3695   -0.5724 H   0  0  0  0  0  0  0  0  0  0  0  0
   -1.0999   -1.5281    0.9733 H   0  0  0  0  0  0  0  0  0  0  0  0
   -1.5744    0.1259    1.4495 H   0  0  0  0  0  0  0  0  0  0  0  0
   -0.5282    1.0689   -0.4928 H   0  0  0  0  0  0  0  0  0  0  0  0
   -0.1041   -0.5412   -1.1911 H   0  0  0  0  0  0  0  0  0  0  0  0
    2.1367    1.6803   -0.2359 H   0  0  0  0  0  0  0  0  0  0  0  0
    3.3109    1.4139    1.5040 H   0  0  0  0  0  0  0  0  0  0  0  0
    3.0765   -0.9248   -0.7367 H   0  0  0  0  0  0  0  0  0  0  0  0
  1  2  2  0
  2  3  1  0
  2  4  1  0
  4  5  1  0
  5  6  1  0
  6  7  2  0
  6  8  1  0
  8  9  1  0
  8 10  1  0
  3 11  1  0
  4 12  1  0
  4 13  1  0
  5 14  1  0
  5 15  1  0
  8 16  1  0
  9 17  1  0
 10 18  1  0
M  END
$$$$
