
     RDKit          3D

 14 14  0  0  0  0  0  0  0  0999 V2000
    2.3921   -0.7503    0.0135 N   0  0  0  0  0  0  0  0  0  0  0  0
    1.0189   -0.3883    0.0154 C   0  0  0  0  0  0  0  0  0  0  0  0
    0.1875   -1.3381    0.2728 N   0  0  0  0  0  0  0  0  0  0  0  0
   -1.5025   -1.0240    0.3040 S   0  0  0  0  0  6  0  0  0  0  0  0
   -2.2536   -1.8803   -0.6900 O   0  0  0  0  0  0  0  0  0  0  0  0
   -2.0705   -1.2358    1.6989 O   0  0  0  0  0  0  0  0  0  0  0  0
   -1.7061    0.6530   -0.0516 N   0  0  0  0  0  0  0  0  0  0  0  0
   -0.5491    1.4495   -0.2946 C   0  0  0  0  0  0  0  0  0  0  0  0
    0.6648    0.9799   -0.2635 C   0  0  0  0  0  0  0  0  0  0  0  0
    2.8532   -1.1366   -0.8323 H   0  0  0  0  0  0  0  0  0  0  0  0
    2.9204   -0.6121    0.8980 H   0  0  0  0  0  0  0  0  0  0  0  0
   -2.6695    1.0689   -0.0858 H   0  0  0  0  0  0  0  0  0  0  0  0
   -0.7572    2.5111   -0.5151 H   0  0  0  0  0  0  0  0  0  0  0  0
    1.4716    1.7030   -0.4698 H   0  0  0  0  0  0  0  0  0  0  0  0
  1  2  1  0
  2  3  2  0
  3  4  1  0
  4  5  2  0
  4  6  2  0
  4  7  1  0
  7  8  1  0
  8  9  2  0
  9  2  1  0
  1 10  1  0
  1 11  1  0
  7 12  1  0
  8 13  1  0
  9 14  1  0
M  END
$$$$

     RDKit          3D

 14 14  0  0  0  0  0  0  0  0999 V2000
    2.5079   -0.1155   -0.3100 N   0  0  0  0  0  0  0  0  0  0  0  0
    1.0589   -0.1116   -0.1281 C   0  0  0  0  0  0  0  0  0  0  0  0
    0.5004   -1.2591   -0.1035 N   0  0  0  0  0  0  0  0  0  0  0  0
   -1.1904   -1.3934    0.1032 S   0  0  0  0  0  6  0  0  0  0  0  0
   -1.8151   -2.0370   -1.1298 O   0  0  0  0  0  0  0  0  0  0  0  0
   -1.5484   -2.2449    1.2889 O   0  0  0  0  0  0  0  0  0  0  0  0
   -1.8296    0.2003    0.2464 N   0  0  0  0  0  0  0  0  0  0  0  0
   -0.9108    1.2816    0.1740 C   0  0  0  0  0  0  0  0  0  0  0  0
    0.3866    1.1608    0.0065 C   0  0  0  0  0  0  0  0  0  0  0  0
    2.9308   -0.6816   -1.0691 H   0  0  0  0  0  0  0  0  0  0  0  0
    3.1403    0.4348    0.3007 H   0  0  0  0  0  0  0  0  0  0  0  0
   -2.8423    0.3921    0.3810 H   0  0  0  0  0  0  0  0  0  0  0  0
   -1.3686    2.2779    0.2708 H   0  0  0  0  0  0  0  0  0  0  0  0
    0.9803    2.0956   -0.0310 H   0  0  0  0  0  0  0  0  0  0  0  0
  1  2  1  0
  2  3  2  0
  3  4  1  0
  4  5  2  0
  4  6  2  0
  4  7  1  0
  7  8  1  0
  8  9  2  0
  9  2  1  0
  1 10  1  0
  1 11  1  0
  7 12  1  0
  8 13  1  0
  9 14  1  0
M  END
$$$$

     RDKit          3D

 14 14  0  0  0  0  0  0  0  0999 V2000
    2.5089   -0.1922   -0.1357 N   0  0  0  0  0  0  0  0  0  0  0  0
    1.0656   -0.1546   -0.0470 C   0  0  0  0  0  0  0  0  0  0  0  0
    0.4662   -1.2855    0.0692 N   0  0  0  0  0  0  0  0  0  0  0  0
   -1.2464   -1.3471    0.1818 S   0  0  0  0  0  6  0  0  0  0  0  0
   -1.7059   -2.0471    1.4267 O   0  0  0  0  0  0  0  0  0  0  0  0
   -1.7453   -2.1014   -1.0308 O   0  0  0  0  0  0  0  0  0  0  0  0
   -1.8128    0.2667    0.1059 N   0  0  0  0  0  0  0  0  0  0  0  0
   -0.8840    1.3178   -0.0256 C   0  0  0  0  0  0  0  0  0  0  0  0
    0.4270    1.1472   -0.0967 C   0  0  0  0  0  0  0  0  0  0  0  0
    3.0707    0.1968    0.6296 H   0  0  0  0  0  0  0  0  0  0  0  0
    2.9217   -0.6100   -0.9677 H   0  0  0  0  0  0  0  0  0  0  0  0
   -2.8241    0.4481    0.1573 H   0  0  0  0  0  0  0  0  0  0  0  0
   -1.3052    2.3329   -0.0693 H   0  0  0  0  0  0  0  0  0  0  0  0
    1.0635    2.0284   -0.1980 H   0  0  0  0  0  0  0  0  0  0  0  0
  1  2  1  0
  2  3  2  0
  3  4  1  0
  4  5  2  0
  4  6  2  0
  4  7  1  0
  7  8  1  0
  8  9  2  0
  9  2  1  0
  1 10  1  0
  1 11  1  0
  7 12  1  0
  8 13  1  0
  9 14  1  0
M  END
$$$$

     RDKit          3D

 14 14  0  0  0  0  0  0  0  0999 V2000
    2.3840   -0.7902    0.0885 N   0  0  0  0  0  0  0  0  0  0  0  0
    0.9881   -0.4152    0.0345 C   0  0  0  0  0  0  0  0  0  0  0  0
    0.1393   -1.3754    0.0074 N   0  0  0  0  0  0  0  0  0  0  0  0
   -1.5399   -1.0281   -0.0571 S   0  0  0  0  0  6  0  0  0  0  0  0
   -2.2519   -1.5532    1.1769 O   0  0  0  0  0  0  0  0  0  0  0  0
   -2.1921   -1.6124   -1.2727 O   0  0  0  0  0  0  0  0  0  0  0  0
   -1.7076    0.6865   -0.0716 N   0  0  0  0  0  0  0  0  0  0  0  0
   -0.5344    1.4845   -0.0316 C   0  0  0  0  0  0  0  0  0  0  0  0
    0.6949    1.0022    0.0167 C   0  0  0  0  0  0  0  0  0  0  0  0
    3.1064   -0.1479    0.4798 H   0  0  0  0  0  0  0  0  0  0  0  0
    2.7006   -1.7152   -0.2641 H   0  0  0  0  0  0  0  0  0  0  0  0
   -2.6252    1.1656   -0.1082 H   0  0  0  0  0  0  0  0  0  0  0  0
   -0.6977    2.5801   -0.0430 H   0  0  0  0  0  0  0  0  0  0  0  0
    1.5354    1.7187    0.0446 H   0  0  0  0  0  0  0  0  0  0  0  0
  1  2  1  0
  2  3  2  0
  3  4  1  0
  4  5  2  0
  4  6  2  0
  4  7  1  0
  7  8  1  0
  8  9  2  0
  9  2  1  0
  1 10  1  0
  1 11  1  0
  7 12  1  0
  8 13  1  0
  9 14  1  0
M  END
$$$$

     RDKit          3D

 14 14  0  0  0  0  0  0  0  0999 V2000
   -2.3255   -0.9558   -0.2187 N   0  0  0  0  0  0  0  0  0  0  0  0
   -0.9690   -0.4718   -0.0931 C   0  0  0  0  0  0  0  0  0  0  0  0
   -0.0416   -1.3623   -0.1173 N   0  0  0  0  0  0  0  0  0  0  0  0
    1.6077   -0.9098    0.0232 S   0  0  0  0  0  6  0  0  0  0  0  0
    2.2175   -1.6057    1.1967 O   0  0  0  0  0  0  0  0  0  0  0  0
    2.3666   -1.2474   -1.2523 O   0  0  0  0  0  0  0  0  0  0  0  0
    1.6717    0.8035    0.1820 N   0  0  0  0  0  0  0  0  0  0  0  0
    0.4441    1.5169    0.1721 C   0  0  0  0  0  0  0  0  0  0  0  0
   -0.7435    0.9524    0.0492 C   0  0  0  0  0  0  0  0  0  0  0  0
   -2.9006   -0.6772   -1.0354 H   0  0  0  0  0  0  0  0  0  0  0  0
   -2.7643   -1.5821    0.4815 H   0  0  0  0  0  0  0  0  0  0  0  0
    2.5601    1.3293    0.2835 H   0  0  0  0  0  0  0  0  0  0  0  0
    0.5229    2.6166    0.2762 H   0  0  0  0  0  0  0  0  0  0  0  0
   -1.6460    1.5935    0.0524 H   0  0  0  0  0  0  0  0  0  0  0  0
  1  2  1  0
  2  3  2  0
  3  4  1  0
  4  5  2  0
  4  6  2  0
  4  7  1  0
  7  8  1  0
  8  9  2  0
  9  2  1  0
  1 10  1  0
  1 11  1  0
  7 12  1  0
  8 13  1  0
  9 14  1  0
M  END
$$$$

     RDKit          3D

 14 14  0  0  0  0  0  0  0  0999 V2000
   -2.2888    0.6036    0.9285 N   0  0  0  0  0  0  0  0  0  0  0  0
   -0.9622    0.2235    0.4559 C   0  0  0  0  0  0  0  0  0  0  0  0
   -0.2351   -0.4926    1.2209 N   0  0  0  0  0  0  0  0  0  0  0  0
    1.3337   -1.0046    0.7879 S   0  0  0  0  0  6  0  0  0  0  0  0
    2.2918   -0.4726    1.8104 O   0  0  0  0  0  0  0  0  0  0  0  0
    1.4192   -2.5243    0.7247 O   0  0  0  0  0  0  0  0  0  0  0  0
    1.6571   -0.3761   -0.7816 N   0  0  0  0  0  0  0  0  0  0  0  0
    0.6362    0.3984   -1.3901 C   0  0  0  0  0  0  0  0  0  0  0  0
   -0.5314    0.6729   -0.8529 C   0  0  0  0  0  0  0  0  0  0  0  0
   -3.0349   -0.1103    0.9538 H   0  0  0  0  0  0  0  0  0  0  0  0
   -2.4954    1.5683    1.2368 H   0  0  0  0  0  0  0  0  0  0  0  0
    2.5568   -0.5548   -1.2616 H   0  0  0  0  0  0  0  0  0  0  0  0
    0.9006    0.7772   -2.4011 H   0  0  0  0  0  0  0  0  0  0  0  0
   -1.2475    1.2914   -1.4315 H   0  0  0  0  0  0  0  0  0  0  0  0
  1  2  1  0
  2  3  2  0
  3  4  1  0
  4  5  2  0
  4  6  2  0
  4  7  1  0
  7  8  1  0
  8  9  2  0
  9  2  1  0
  1 10  1  0
  1 11  1  0
  7 12  1  0
  8 13  1  0
  9 14  1  0
M  END
$$$$

     RDKit          3D

 14 14  0  0  0  0  0  0  0  0999 V2000
    2.5143    0.0093    0.4522 N   0  0  0  0  0  0  0  0  0  0  0  0
    1.0803   -0.0525    0.2405 C   0  0  0  0  0  0  0  0  0  0  0  0
    0.4088   -0.9819    0.8036 N   0  0  0  0  0  0  0  0  0  0  0  0
   -1.2760   -1.1640    0.6353 S   0  0  0  0  0  6  0  0  0  0  0  0
   -2.0030   -1.1013    1.9479 O   0  0  0  0  0  0  0  0  0  0  0  0
   -1.5454   -2.5087   -0.0274 O   0  0  0  0  0  0  0  0  0  0  0  0
   -1.8155    0.1073   -0.3963 N   0  0  0  0  0  0  0  0  0  0  0  0
   -0.8354    1.0071   -0.8822 C   0  0  0  0  0  0  0  0  0  0  0  0
    0.4442    0.9418   -0.6047 C   0  0  0  0  0  0  0  0  0  0  0  0
    2.8862   -0.3442    1.3316 H   0  0  0  0  0  0  0  0  0  0  0  0
    3.0891    0.4038   -0.2877 H   0  0  0  0  0  0  0  0  0  0  0  0
   -2.8214    0.1769   -0.6279 H   0  0  0  0  0  0  0  0  0  0  0  0
   -1.2445    1.8009   -1.5394 H   0  0  0  0  0  0  0  0  0  0  0  0
    1.1184    1.7057   -1.0456 H   0  0  0  0  0  0  0  0  0  0  0  0
  1  2  1  0
  2  3  2  0
  3  4  1  0
  4  5  2  0
  4  6  2  0
  4  7  1  0
  7  8  1  0
  8  9  2  0
  9  2  1  0
  1 10  1  0
  1 11  1  0
  7 12  1  0
  8 13  1  0
  9 14  1  0
M  END
$$$$

     RDKit          3D

 14 14  0  0  0  0  0  0  0  0999 V2000
    2.5073   -0.2702   -0.3670 N   0  0  0  0  0  0  0  0  0  0  0  0
    1.0757   -0.1760   -0.1672 C   0  0  0  0  0  0  0  0  0  0  0  0
    0.3761   -1.2330   -0.3736 N   0  0  0  0  0  0  0  0  0  0  0  0
   -1.3243   -1.2718   -0.1778 S   0  0  0  0  0  6  0  0  0  0  0  0
   -1.7562   -2.3148    0.8150 O   0  0  0  0  0  0  0  0  0  0  0  0
   -2.0127   -1.5159   -1.5140 O   0  0  0  0  0  0  0  0  0  0  0  0
   -1.8092    0.3062    0.3166 N   0  0  0  0  0  0  0  0  0  0  0  0
   -0.7942    1.2863    0.4634 C   0  0  0  0  0  0  0  0  0  0  0  0
    0.4831    1.0820    0.2518 C   0  0  0  0  0  0  0  0  0  0  0  0
    3.1480   -0.6561    0.3456 H   0  0  0  0  0  0  0  0  0  0  0  0
    2.8952    0.0655   -1.2638 H   0  0  0  0  0  0  0  0  0  0  0  0
   -2.8090    0.5096    0.4944 H   0  0  0  0  0  0  0  0  0  0  0  0
   -1.1753    2.2784    0.7832 H   0  0  0  0  0  0  0  0  0  0  0  0
    1.1956    1.9097    0.3933 H   0  0  0  0  0  0  0  0  0  0  0  0
  1  2  1  0
  2  3  2  0
  3  4  1  0
  4  5  2  0
  4  6  2  0
  4  7  1  0
  7  8  1  0
  8  9  2  0
  9  2  1  0
  1 10  1  0
  1 11  1  0
  7 12  1  0
  8 13  1  0
  9 14  1  0
M  END
$$$$
