
     RDKit          3D

 33 33  0  0  0  0  0  0  0  0999 V2000
    2.4595    0.2155   -1.4497 C   0  0  0  0  0  0  0  0  0  0  0  0
    2.0025    0.4532   -0.0402 C   0  0  2  0  0  0  0  0  0  0  0  0
    3.0571    0.0398    0.9704 C   0  0  0  0  0  0  0  0  0  0  0  0
    2.7429    0.5449    2.2460 O   0  0  0  0  0  0  0  0  0  0  0  0
    0.6929   -0.0075    0.2568 N   0  0  0  0  0  0  0  0  0  0  0  0
    0.4650   -1.4020    0.1428 C   0  0  0  0  0  0  0  0  0  0  0  0
   -0.8576   -1.7042   -0.5461 C   0  0  0  0  0  0  0  0  0  0  0  0
   -1.9368   -0.9008   -0.0298 N   0  0  0  0  0  0  0  0  0  0  0  0
   -2.5476   -1.4628    1.1472 C   0  0  0  0  0  0  0  0  0  0  0  0
   -1.6278    0.4857    0.0813 C   0  0  2  0  0  0  0  0  0  0  0  0
   -2.6016    1.3679   -0.6861 C   0  0  0  0  0  0  0  0  0  0  0  0
   -2.2178    2.6957   -0.5192 O   0  0  0  0  0  0  0  0  0  0  0  0
   -0.2647    0.7453   -0.5196 C   0  0  0  0  0  0  0  0  0  0  0  0
    3.2965    0.9396   -1.6410 H   0  0  0  0  0  0  0  0  0  0  0  0
    2.8859   -0.7881   -1.6027 H   0  0  0  0  0  0  0  0  0  0  0  0
    1.6595    0.4777   -2.1426 H   0  0  0  0  0  0  0  0  0  0  0  0
    1.9616    1.5817    0.0602 H   0  0  0  0  0  0  0  0  0  0  0  0
    4.0017    0.5450    0.6742 H   0  0  0  0  0  0  0  0  0  0  0  0
    3.2164   -1.0525    1.0104 H   0  0  0  0  0  0  0  0  0  0  0  0
    2.6980    1.5480    2.1351 H   0  0  0  0  0  0  0  0  0  0  0  0
    0.3932   -1.8649    1.1576 H   0  0  0  0  0  0  0  0  0  0  0  0
    1.2461   -1.9474   -0.4356 H   0  0  0  0  0  0  0  0  0  0  0  0
   -0.7935   -1.5206   -1.6382 H   0  0  0  0  0  0  0  0  0  0  0  0
   -1.1495   -2.7682   -0.4204 H   0  0  0  0  0  0  0  0  0  0  0  0
   -1.9157   -2.1965    1.6654 H   0  0  0  0  0  0  0  0  0  0  0  0
   -3.5437   -1.9068    0.9186 H   0  0  0  0  0  0  0  0  0  0  0  0
   -2.7504   -0.6300    1.8697 H   0  0  0  0  0  0  0  0  0  0  0  0
   -1.5972    0.7867    1.1360 H   0  0  0  0  0  0  0  0  0  0  0  0
   -2.5183    1.1594   -1.7904 H   0  0  0  0  0  0  0  0  0  0  0  0
   -3.6367    1.2129   -0.3484 H   0  0  0  0  0  0  0  0  0  0  0  0
   -2.5513    3.0838    0.3180 H   0  0  0  0  0  0  0  0  0  0  0  0
   -0.2992    0.4537   -1.5733 H   0  0  0  0  0  0  0  0  0  0  0  0
    0.0307    1.8157   -0.4062 H   0  0  0  0  0  0  0  0  0  0  0  0
  1  2  1  0
  2  3  1  0
  3  4  1  0
  2  5  1  0
  5  6  1  0
  6  7  1  0
  7  8  1  0
  8  9  1  0
  8 10  1  0
 10 11  1  0
 11 12  1  0
 10 13  1  0
 13  5  1  0
  1 14  1  0
  1 15  1  0
  1 16  1  0
  2 17  1  6
  3 18  1  0
  3 19  1  0
  4 20  1  0
  6 21  1  0
  6 22  1  0
  7 23  1  0
  7 24  1  0
  9 25  1  0
  9 26  1  0
  9 27  1  0
 10 28  1  1
 11 29  1  0
 11 30  1  0
 12 31  1  0
 13 32  1  0
 13 33  1  0
M  END
$$$$

     RDKit          3D

 33 33  0  0  0  0  0  0  0  0999 V2000
   -2.9636   -1.1236    1.1612 C   0  0  0  0  0  0  0  0  0  0  0  0
   -2.1290   -0.0753    0.5307 C   0  0  2  0  0  0  0  0  0  0  0  0
   -2.8049    0.4732   -0.7159 C   0  0  0  0  0  0  0  0  0  0  0  0
   -4.1757    0.7149   -0.4513 O   0  0  0  0  0  0  0  0  0  0  0  0
   -0.7955   -0.3092    0.2759 N   0  0  0  0  0  0  0  0  0  0  0  0
   -0.3249   -1.2997   -0.5845 C   0  0  0  0  0  0  0  0  0  0  0  0
    1.1430   -1.6689   -0.3113 C   0  0  0  0  0  0  0  0  0  0  0  0
    1.8296   -0.5772    0.3536 N   0  0  0  0  0  0  0  0  0  0  0  0
    3.2515   -0.7627    0.1799 C   0  0  0  0  0  0  0  0  0  0  0  0
    1.3670    0.6346   -0.2480 C   0  0  2  0  0  0  0  0  0  0  0  0
    2.1796    1.8524    0.0436 C   0  0  0  0  0  0  0  0  0  0  0  0
    3.5024    1.7597   -0.3700 O   0  0  0  0  0  0  0  0  0  0  0  0
   -0.0203    0.8853    0.3637 C   0  0  0  0  0  0  0  0  0  0  0  0
   -4.0406   -0.9374    0.9364 H   0  0  0  0  0  0  0  0  0  0  0  0
   -2.8984   -1.1245    2.2849 H   0  0  0  0  0  0  0  0  0  0  0  0
   -2.7574   -2.1559    0.8501 H   0  0  0  0  0  0  0  0  0  0  0  0
   -2.1765    0.8017    1.2563 H   0  0  0  0  0  0  0  0  0  0  0  0
   -2.3974    1.5005   -0.9630 H   0  0  0  0  0  0  0  0  0  0  0  0
   -2.6714   -0.1442   -1.6073 H   0  0  0  0  0  0  0  0  0  0  0  0
   -4.2019    1.2846    0.3778 H   0  0  0  0  0  0  0  0  0  0  0  0
   -0.8658   -2.2356   -0.5571 H   0  0  0  0  0  0  0  0  0  0  0  0
   -0.3351   -0.9254   -1.6289 H   0  0  0  0  0  0  0  0  0  0  0  0
    1.2271   -2.5483    0.3552 H   0  0  0  0  0  0  0  0  0  0  0  0
    1.7033   -1.8852   -1.2267 H   0  0  0  0  0  0  0  0  0  0  0  0
    3.8583   -0.1553    0.9062 H   0  0  0  0  0  0  0  0  0  0  0  0
    3.5509   -0.5240   -0.8538 H   0  0  0  0  0  0  0  0  0  0  0  0
    3.5366   -1.8312    0.3706 H   0  0  0  0  0  0  0  0  0  0  0  0
    1.2012    0.4282   -1.3252 H   0  0  0  0  0  0  0  0  0  0  0  0
    1.7550    2.7065   -0.5619 H   0  0  0  0  0  0  0  0  0  0  0  0
    2.0461    2.1431    1.0878 H   0  0  0  0  0  0  0  0  0  0  0  0
    3.6912    2.2417   -1.2131 H   0  0  0  0  0  0  0  0  0  0  0  0
   -0.4285    1.7539   -0.1621 H   0  0  0  0  0  0  0  0  0  0  0  0
    0.1440    1.1035    1.4458 H   0  0  0  0  0  0  0  0  0  0  0  0
  1  2  1  0
  2  3  1  0
  3  4  1  0
  2  5  1  0
  5  6  1  0
  6  7  1  0
  7  8  1  0
  8  9  1  0
  8 10  1  0
 10 11  1  0
 11 12  1  0
 10 13  1  0
 13  5  1  0
  1 14  1  0
  1 15  1  0
  1 16  1  0
  2 17  1  1
  3 18  1  0
  3 19  1  0
  4 20  1  0
  6 21  1  0
  6 22  1  0
  7 23  1  0
  7 24  1  0
  9 25  1  0
  9 26  1  0
  9 27  1  0
 10 28  1  6
 11 29  1  0
 11 30  1  0
 12 31  1  0
 13 32  1  0
 13 33  1  0
M  END
$$$$

     RDKit          3D

 33 33  0  0  0  0  0  0  0  0999 V2000
    2.5368    1.4867    0.9931 C   0  0  0  0  0  0  0  0  0  0  0  0
    2.1080    0.1377    0.5214 C   0  0  2  0  0  0  0  0  0  0  0  0
    3.2139   -0.5073   -0.2725 C   0  0  0  0  0  0  0  0  0  0  0  0
    2.9667   -1.8830   -0.3675 O   0  0  0  0  0  0  0  0  0  0  0  0
    0.8585    0.1048   -0.0844 N   0  0  0  0  0  0  0  0  0  0  0  0
    0.6040   -0.4388   -1.3453 C   0  0  0  0  0  0  0  0  0  0  0  0
   -0.7852   -1.0403   -1.4952 C   0  0  0  0  0  0  0  0  0  0  0  0
   -1.7878   -0.1310   -0.9776 N   0  0  0  0  0  0  0  0  0  0  0  0
   -3.0689   -0.8082   -1.1892 C   0  0  0  0  0  0  0  0  0  0  0  0
   -1.5236   -0.0744    0.4540 C   0  0  2  0  0  0  0  0  0  0  0  0
   -2.5900    0.6949    1.1927 C   0  0  0  0  0  0  0  0  0  0  0  0
   -2.6480    2.0243    0.7461 O   0  0  0  0  0  0  0  0  0  0  0  0
   -0.2303    0.6585    0.6332 C   0  0  0  0  0  0  0  0  0  0  0  0
    1.7197    2.0991    1.4460 H   0  0  0  0  0  0  0  0  0  0  0  0
    3.0935    2.0700    0.2407 H   0  0  0  0  0  0  0  0  0  0  0  0
    3.2946    1.2794    1.8419 H   0  0  0  0  0  0  0  0  0  0  0  0
    2.0170   -0.4836    1.4786 H   0  0  0  0  0  0  0  0  0  0  0  0
    3.2469   -0.0848   -1.3115 H   0  0  0  0  0  0  0  0  0  0  0  0
    4.2077   -0.3534    0.1724 H   0  0  0  0  0  0  0  0  0  0  0  0
    2.9196   -2.2969    0.5269 H   0  0  0  0  0  0  0  0  0  0  0  0
    0.7531    0.2930   -2.1510 H   0  0  0  0  0  0  0  0  0  0  0  0
    1.2768   -1.2995   -1.6371 H   0  0  0  0  0  0  0  0  0  0  0  0
   -0.8298   -1.9311   -0.8118 H   0  0  0  0  0  0  0  0  0  0  0  0
   -0.9669   -1.3208   -2.5321 H   0  0  0  0  0  0  0  0  0  0  0  0
   -3.9298   -0.1498   -1.0450 H   0  0  0  0  0  0  0  0  0  0  0  0
   -3.0959   -1.2359   -2.2010 H   0  0  0  0  0  0  0  0  0  0  0  0
   -3.0822   -1.6649   -0.4524 H   0  0  0  0  0  0  0  0  0  0  0  0
   -1.4641   -1.0884    0.8548 H   0  0  0  0  0  0  0  0  0  0  0  0
   -2.3665    0.6487    2.2717 H   0  0  0  0  0  0  0  0  0  0  0  0
   -3.6105    0.2595    0.9929 H   0  0  0  0  0  0  0  0  0  0  0  0
   -2.5132    2.6619    1.4611 H   0  0  0  0  0  0  0  0  0  0  0  0
   -0.3570    1.7149    0.3473 H   0  0  0  0  0  0  0  0  0  0  0  0
    0.0329    0.6588    1.6989 H   0  0  0  0  0  0  0  0  0  0  0  0
  1  2  1  0
  2  3  1  0
  3  4  1  0
  2  5  1  0
  5  6  1  0
  6  7  1  0
  7  8  1  0
  8  9  1  0
  8 10  1  0
 10 11  1  0
 11 12  1  0
 10 13  1  0
 13  5  1  0
  1 14  1  0
  1 15  1  0
  1 16  1  0
  2 17  1  1
  3 18  1  0
  3 19  1  0
  4 20  1  0
  6 21  1  0
  6 22  1  0
  7 23  1  0
  7 24  1  0
  9 25  1  0
  9 26  1  0
  9 27  1  0
 10 28  1  1
 11 29  1  0
 11 30  1  0
 12 31  1  0
 13 32  1  0
 13 33  1  0
M  END
$$$$

     RDKit          3D

 33 33  0  0  0  0  0  0  0  0999 V2000
    2.7972    0.0747   -0.9178 C   0  0  0  0  0  0  0  0  0  0  0  0
    2.0882   -0.3166    0.3494 C   0  0  2  0  0  0  0  0  0  0  0  0
    2.3052   -1.7797    0.6418 C   0  0  0  0  0  0  0  0  0  0  0  0
    3.7022   -1.9883    0.5578 O   0  0  0  0  0  0  0  0  0  0  0  0
    0.7200    0.0610    0.3955 N   0  0  0  0  0  0  0  0  0  0  0  0
    0.5727    1.4976    0.3449 C   0  0  0  0  0  0  0  0  0  0  0  0
   -0.8253    1.8117    0.7235 C   0  0  0  0  0  0  0  0  0  0  0  0
   -1.8408    0.9922    0.2017 N   0  0  0  0  0  0  0  0  0  0  0  0
   -3.0061    1.6935   -0.2782 C   0  0  0  0  0  0  0  0  0  0  0  0
   -1.5120   -0.1259   -0.6055 C   0  0  2  0  0  0  0  0  0  0  0  0
   -2.4684   -1.2524   -0.2182 C   0  0  0  0  0  0  0  0  0  0  0  0
   -2.3079   -1.5686    1.1382 O   0  0  0  0  0  0  0  0  0  0  0  0
   -0.1074   -0.6114   -0.5632 C   0  0  0  0  0  0  0  0  0  0  0  0
    2.1394    0.5792   -1.6582 H   0  0  0  0  0  0  0  0  0  0  0  0
    3.6361    0.7787   -0.7348 H   0  0  0  0  0  0  0  0  0  0  0  0
    3.2546   -0.8277   -1.3775 H   0  0  0  0  0  0  0  0  0  0  0  0
    2.6033    0.2356    1.1881 H   0  0  0  0  0  0  0  0  0  0  0  0
    1.9899   -2.0253    1.6682 H   0  0  0  0  0  0  0  0  0  0  0  0
    1.8161   -2.4328   -0.1221 H   0  0  0  0  0  0  0  0  0  0  0  0
    4.1655   -1.2729    1.0840 H   0  0  0  0  0  0  0  0  0  0  0  0
    1.2494    1.9168    1.1253 H   0  0  0  0  0  0  0  0  0  0  0  0
    0.8989    1.9430   -0.6158 H   0  0  0  0  0  0  0  0  0  0  0  0
   -1.0380    2.8720    0.4245 H   0  0  0  0  0  0  0  0  0  0  0  0
   -0.8928    1.8145    1.8364 H   0  0  0  0  0  0  0  0  0  0  0  0
   -3.2150    1.4894   -1.3463 H   0  0  0  0  0  0  0  0  0  0  0  0
   -3.8638    1.3552    0.3381 H   0  0  0  0  0  0  0  0  0  0  0  0
   -2.8720    2.7914   -0.1671 H   0  0  0  0  0  0  0  0  0  0  0  0
   -1.7567    0.1229   -1.6600 H   0  0  0  0  0  0  0  0  0  0  0  0
   -3.5320   -0.8944   -0.3008 H   0  0  0  0  0  0  0  0  0  0  0  0
   -2.3819   -2.1368   -0.8446 H   0  0  0  0  0  0  0  0  0  0  0  0
   -2.6171   -2.5160    1.2174 H   0  0  0  0  0  0  0  0  0  0  0  0
    0.4013   -0.5883   -1.5506 H   0  0  0  0  0  0  0  0  0  0  0  0
   -0.1028   -1.6922   -0.2742 H   0  0  0  0  0  0  0  0  0  0  0  0
  1  2  1  0
  2  3  1  0
  3  4  1  0
  2  5  1  0
  5  6  1  0
  6  7  1  0
  7  8  1  0
  8  9  1  0
  8 10  1  0
 10 11  1  0
 11 12  1  0
 10 13  1  0
 13  5  1  0
  1 14  1  0
  1 15  1  0
  1 16  1  0
  2 17  1  1
  3 18  1  0
  3 19  1  0
  4 20  1  0
  6 21  1  0
  6 22  1  0
  7 23  1  0
  7 24  1  0
  9 25  1  0
  9 26  1  0
  9 27  1  0
 10 28  1  6
 11 29  1  0
 11 30  1  0
 12 31  1  0
 13 32  1  0
 13 33  1  0
M  END
$$$$

     RDKit          3D

 33 33  0  0  0  0  0  0  0  0999 V2000
   -2.5575    0.6573    1.0812 C   0  0  0  0  0  0  0  0  0  0  0  0
   -1.9354    0.4108   -0.2634 C   0  0  2  0  0  0  0  0  0  0  0  0
   -2.9697   -0.3937   -1.0550 C   0  0  0  0  0  0  0  0  0  0  0  0
   -3.1408   -1.6354   -0.4402 O   0  0  0  0  0  0  0  0  0  0  0  0
   -0.6910   -0.2687   -0.2302 N   0  0  0  0  0  0  0  0  0  0  0  0
   -0.1559   -0.4720   -1.5097 C   0  0  0  0  0  0  0  0  0  0  0  0
    1.2788   -0.2429   -1.7287 C   0  0  0  0  0  0  0  0  0  0  0  0
    2.0946   -0.1693   -0.5576 N   0  0  0  0  0  0  0  0  0  0  0  0
    2.5555   -1.4202   -0.0823 C   0  0  0  0  0  0  0  0  0  0  0  0
    1.4615    0.6691    0.4015 C   0  0  2  0  0  0  0  0  0  0  0  0
    2.3187    1.0656    1.5604 C   0  0  0  0  0  0  0  0  0  0  0  0
    1.5260    1.8864    2.3940 O   0  0  0  0  0  0  0  0  0  0  0  0
    0.1723    0.0080    0.8376 C   0  0  0  0  0  0  0  0  0  0  0  0
   -2.1324    1.5095    1.6267 H   0  0  0  0  0  0  0  0  0  0  0  0
   -2.6092   -0.2730    1.6897 H   0  0  0  0  0  0  0  0  0  0  0  0
   -3.6325    0.9347    0.8801 H   0  0  0  0  0  0  0  0  0  0  0  0
   -1.8143    1.3884   -0.7672 H   0  0  0  0  0  0  0  0  0  0  0  0
   -2.6530   -0.5779   -2.0861 H   0  0  0  0  0  0  0  0  0  0  0  0
   -3.9371    0.1761   -0.9908 H   0  0  0  0  0  0  0  0  0  0  0  0
   -2.4439   -2.2526   -0.7680 H   0  0  0  0  0  0  0  0  0  0  0  0
   -0.4185   -1.5198   -1.8431 H   0  0  0  0  0  0  0  0  0  0  0  0
   -0.7228    0.1795   -2.2403 H   0  0  0  0  0  0  0  0  0  0  0  0
    1.4713    0.7034   -2.3166 H   0  0  0  0  0  0  0  0  0  0  0  0
    1.7191   -1.0498   -2.3819 H   0  0  0  0  0  0  0  0  0  0  0  0
    3.3842   -1.3025    0.6323 H   0  0  0  0  0  0  0  0  0  0  0  0
    2.9194   -2.0163   -0.9450 H   0  0  0  0  0  0  0  0  0  0  0  0
    1.7840   -2.0415    0.4158 H   0  0  0  0  0  0  0  0  0  0  0  0
    1.1600    1.6132   -0.1223 H   0  0  0  0  0  0  0  0  0  0  0  0
    3.1543    1.6869    1.1581 H   0  0  0  0  0  0  0  0  0  0  0  0
    2.7393    0.2088    2.1078 H   0  0  0  0  0  0  0  0  0  0  0  0
    1.9581    2.7763    2.5282 H   0  0  0  0  0  0  0  0  0  0  0  0
    0.3768   -0.9385    1.3998 H   0  0  0  0  0  0  0  0  0  0  0  0
   -0.2598    0.7000    1.6153 H   0  0  0  0  0  0  0  0  0  0  0  0
  1  2  1  0
  2  3  1  0
  3  4  1  0
  2  5  1  0
  5  6  1  0
  6  7  1  0
  7  8  1  0
  8  9  1  0
  8 10  1  0
 10 11  1  0
 11 12  1  0
 10 13  1  0
 13  5  1  0
  1 14  1  0
  1 15  1  0
  1 16  1  0
  2 17  1  6
  3 18  1  0
  3 19  1  0
  4 20  1  0
  6 21  1  0
  6 22  1  0
  7 23  1  0
  7 24  1  0
  9 25  1  0
  9 26  1  0
  9 27  1  0
 10 28  1  6
 11 29  1  0
 11 30  1  0
 12 31  1  0
 13 32  1  0
 13 33  1  0
M  END
$$$$

     RDKit          3D

 33 33  0  0  0  0  0  0  0  0999 V2000
    2.8544    0.7043   -1.3185 C   0  0  0  0  0  0  0  0  0  0  0  0
    1.7914    0.4970   -0.2534 C   0  0  2  0  0  0  0  0  0  0  0  0
    2.4850    0.1612    1.0298 C   0  0  0  0  0  0  0  0  0  0  0  0
    3.3852    1.2264    1.2873 O   0  0  0  0  0  0  0  0  0  0  0  0
    0.8463   -0.4307   -0.7165 N   0  0  0  0  0  0  0  0  0  0  0  0
    0.1383    0.0292   -1.8557 C   0  0  0  0  0  0  0  0  0  0  0  0
   -1.3046    0.3747   -1.5826 C   0  0  0  0  0  0  0  0  0  0  0  0
   -1.4538    0.4949   -0.1349 N   0  0  0  0  0  0  0  0  0  0  0  0
   -2.7745    1.0016    0.1246 C   0  0  0  0  0  0  0  0  0  0  0  0
   -1.2996   -0.8279    0.4055 C   0  0  2  0  0  0  0  0  0  0  0  0
   -1.7429   -1.0108    1.8111 C   0  0  0  0  0  0  0  0  0  0  0  0
   -3.0751   -0.7442    1.9558 O   0  0  0  0  0  0  0  0  0  0  0  0
    0.1487   -1.2409    0.1976 C   0  0  0  0  0  0  0  0  0  0  0  0
    2.5438    0.4286   -2.3258 H   0  0  0  0  0  0  0  0  0  0  0  0
    3.3286    1.7087   -1.2424 H   0  0  0  0  0  0  0  0  0  0  0  0
    3.6949   -0.0050   -1.0576 H   0  0  0  0  0  0  0  0  0  0  0  0
    1.2897    1.4849   -0.1119 H   0  0  0  0  0  0  0  0  0  0  0  0
    1.7993    0.1831    1.9094 H   0  0  0  0  0  0  0  0  0  0  0  0
    3.0993   -0.7522    0.9690 H   0  0  0  0  0  0  0  0  0  0  0  0
    3.9533    1.0334    2.0668 H   0  0  0  0  0  0  0  0  0  0  0  0
    0.5963    0.9565   -2.2606 H   0  0  0  0  0  0  0  0  0  0  0  0
    0.1859   -0.7227   -2.6917 H   0  0  0  0  0  0  0  0  0  0  0  0
   -1.6302    1.3045   -2.0723 H   0  0  0  0  0  0  0  0  0  0  0  0
   -1.9359   -0.4662   -1.9033 H   0  0  0  0  0  0  0  0  0  0  0  0
   -2.9787    1.9031   -0.5320 H   0  0  0  0  0  0  0  0  0  0  0  0
   -3.5720    0.2719   -0.0347 H   0  0  0  0  0  0  0  0  0  0  0  0
   -2.7919    1.3970    1.1814 H   0  0  0  0  0  0  0  0  0  0  0  0
   -1.9637   -1.4888   -0.2307 H   0  0  0  0  0  0  0  0  0  0  0  0
   -1.5164   -2.0633    2.1197 H   0  0  0  0  0  0  0  0  0  0  0  0
   -1.1947   -0.3129    2.5010 H   0  0  0  0  0  0  0  0  0  0  0  0
   -3.6769   -1.4893    1.8025 H   0  0  0  0  0  0  0  0  0  0  0  0
    0.6465   -1.3149    1.1702 H   0  0  0  0  0  0  0  0  0  0  0  0
    0.1238   -2.2912   -0.2074 H   0  0  0  0  0  0  0  0  0  0  0  0
  1  2  1  0
  2  3  1  0
  3  4  1  0
  2  5  1  0
  5  6  1  0
  6  7  1  0
  7  8  1  0
  8  9  1  0
  8 10  1  0
 10 11  1  0
 11 12  1  0
 10 13  1  0
 13  5  1  0
  1 14  1  0
  1 15  1  0
  1 16  1  0
  2 17  1  1
  3 18  1  0
  3 19  1  0
  4 20  1  0
  6 21  1  0
  6 22  1  0
  7 23  1  0
  7 24  1  0
  9 25  1  0
  9 26  1  0
  9 27  1  0
 10 28  1  6
 11 29  1  0
 11 30  1  0
 12 31  1  0
 13 32  1  0
 13 33  1  0
M  END
$$$$

     RDKit          3D

 33 33  0  0  0  0  0  0  0  0999 V2000
    2.9513   -1.3029   -0.2436 C   0  0  0  0  0  0  0  0  0  0  0  0
    2.0637   -0.0610   -0.2459 C   0  0  2  0  0  0  0  0  0  0  0  0
    2.6437    0.8241    0.8359 C   0  0  0  0  0  0  0  0  0  0  0  0
    3.9726    1.1589    0.5143 O   0  0  0  0  0  0  0  0  0  0  0  0
    0.7067   -0.3975    0.1239 N   0  0  0  0  0  0  0  0  0  0  0  0
    0.1345   -1.3575   -0.8190 C   0  0  0  0  0  0  0  0  0  0  0  0
   -1.2903   -1.1344   -1.1480 C   0  0  0  0  0  0  0  0  0  0  0  0
   -2.0890   -0.4822   -0.1904 N   0  0  0  0  0  0  0  0  0  0  0  0
   -3.1729   -1.2112    0.3626 C   0  0  0  0  0  0  0  0  0  0  0  0
   -1.4426    0.4399    0.6689 C   0  0  2  0  0  0  0  0  0  0  0  0
   -2.1835    1.7529    0.8248 C   0  0  0  0  0  0  0  0  0  0  0  0
   -2.2976    2.3427   -0.4208 O   0  0  0  0  0  0  0  0  0  0  0  0
   -0.0997    0.7959    0.0036 C   0  0  0  0  0  0  0  0  0  0  0  0
    2.9832   -1.7987    0.7322 H   0  0  0  0  0  0  0  0  0  0  0  0
    2.7334   -1.9862   -1.0650 H   0  0  0  0  0  0  0  0  0  0  0  0
    3.9927   -0.9152   -0.4282 H   0  0  0  0  0  0  0  0  0  0  0  0
    2.1626    0.4400   -1.2014 H   0  0  0  0  0  0  0  0  0  0  0  0
    2.6915    0.2149    1.7835 H   0  0  0  0  0  0  0  0  0  0  0  0
    2.1361    1.7747    0.9853 H   0  0  0  0  0  0  0  0  0  0  0  0
    3.9229    1.5323   -0.4074 H   0  0  0  0  0  0  0  0  0  0  0  0
    0.7187   -1.3786   -1.7708 H   0  0  0  0  0  0  0  0  0  0  0  0
    0.2579   -2.3683   -0.3670 H   0  0  0  0  0  0  0  0  0  0  0  0
   -1.3582   -0.5761   -2.1179 H   0  0  0  0  0  0  0  0  0  0  0  0
   -1.7605   -2.1382   -1.3670 H   0  0  0  0  0  0  0  0  0  0  0  0
   -3.1272   -2.2699    0.1057 H   0  0  0  0  0  0  0  0  0  0  0  0
   -4.1261   -0.7790   -0.0568 H   0  0  0  0  0  0  0  0  0  0  0  0
   -3.2516   -1.1105    1.4781 H   0  0  0  0  0  0  0  0  0  0  0  0
   -1.2189    0.0384    1.6939 H   0  0  0  0  0  0  0  0  0  0  0  0
   -1.5166    2.4077    1.4567 H   0  0  0  0  0  0  0  0  0  0  0  0
   -3.1389    1.6502    1.3538 H   0  0  0  0  0  0  0  0  0  0  0  0
   -1.9200    3.2574   -0.4319 H   0  0  0  0  0  0  0  0  0  0  0  0
   -0.3676    0.9352   -1.0749 H   0  0  0  0  0  0  0  0  0  0  0  0
    0.2897    1.7022    0.4331 H   0  0  0  0  0  0  0  0  0  0  0  0
  1  2  1  0
  2  3  1  0
  3  4  1  0
  2  5  1  0
  5  6  1  0
  6  7  1  0
  7  8  1  0
  8  9  1  0
  8 10  1  0
 10 11  1  0
 11 12  1  0
 10 13  1  0
 13  5  1  0
  1 14  1  0
  1 15  1  0
  1 16  1  0
  2 17  1  6
  3 18  1  0
  3 19  1  0
  4 20  1  0
  6 21  1  0
  6 22  1  0
  7 23  1  0
  7 24  1  0
  9 25  1  0
  9 26  1  0
  9 27  1  0
 10 28  1  1
 11 29  1  0
 11 30  1  0
 12 31  1  0
 13 32  1  0
 13 33  1  0
M  END
$$$$

     RDKit          3D

 33 33  0  0  0  0  0  0  0  0999 V2000
   -2.9033   -0.1510    1.1049 C   0  0  0  0  0  0  0  0  0  0  0  0
   -2.0405    0.2053   -0.0981 C   0  0  2  0  0  0  0  0  0  0  0  0
   -2.6184   -0.5638   -1.2718 C   0  0  0  0  0  0  0  0  0  0  0  0
   -3.9601   -0.1671   -1.3605 O   0  0  0  0  0  0  0  0  0  0  0  0
   -0.6692   -0.0688    0.1393 N   0  0  0  0  0  0  0  0  0  0  0  0
   -0.2828   -1.4112    0.3567 C   0  0  0  0  0  0  0  0  0  0  0  0
    1.1052   -1.5579   -0.2898 C   0  0  0  0  0  0  0  0  0  0  0  0
    1.9316   -0.5526    0.3571 N   0  0  0  0  0  0  0  0  0  0  0  0
    3.3158   -0.8820    0.2043 C   0  0  0  0  0  0  0  0  0  0  0  0
    1.6224    0.7124   -0.2540 C   0  0  2  0  0  0  0  0  0  0  0  0
    1.9576    1.8933    0.6238 C   0  0  0  0  0  0  0  0  0  0  0  0
    1.6036    3.0468   -0.0993 O   0  0  0  0  0  0  0  0  0  0  0  0
    0.1827    0.7341   -0.6715 C   0  0  0  0  0  0  0  0  0  0  0  0
   -2.7862    0.6978    1.8206 H   0  0  0  0  0  0  0  0  0  0  0  0
   -2.5863   -1.0963    1.5607 H   0  0  0  0  0  0  0  0  0  0  0  0
   -3.9707   -0.2272    0.7918 H   0  0  0  0  0  0  0  0  0  0  0  0
   -2.1748    1.2818   -0.2869 H   0  0  0  0  0  0  0  0  0  0  0  0
   -2.1046   -0.3618   -2.2077 H   0  0  0  0  0  0  0  0  0  0  0  0
   -2.6575   -1.6581   -1.0218 H   0  0  0  0  0  0  0  0  0  0  0  0
   -4.0460    0.8023   -1.4861 H   0  0  0  0  0  0  0  0  0  0  0  0
   -0.9636   -2.1984   -0.0061 H   0  0  0  0  0  0  0  0  0  0  0  0
   -0.1210   -1.6239    1.4364 H   0  0  0  0  0  0  0  0  0  0  0  0
    0.9467   -1.3167   -1.3765 H   0  0  0  0  0  0  0  0  0  0  0  0
    1.5357   -2.5425   -0.1313 H   0  0  0  0  0  0  0  0  0  0  0  0
    3.5722   -0.8569   -0.8676 H   0  0  0  0  0  0  0  0  0  0  0  0
    3.5088   -1.9104    0.5984 H   0  0  0  0  0  0  0  0  0  0  0  0
    3.9084   -0.1825    0.8144 H   0  0  0  0  0  0  0  0  0  0  0  0
    2.2781    0.7895   -1.1558 H   0  0  0  0  0  0  0  0  0  0  0  0
    3.0559    1.9471    0.7971 H   0  0  0  0  0  0  0  0  0  0  0  0
    1.3683    1.8982    1.5591 H   0  0  0  0  0  0  0  0  0  0  0  0
    2.0957    2.9899   -0.9577 H   0  0  0  0  0  0  0  0  0  0  0  0
   -0.1725    1.7969   -0.5430 H   0  0  0  0  0  0  0  0  0  0  0  0
    0.0684    0.5339   -1.7662 H   0  0  0  0  0  0  0  0  0  0  0  0
  1  2  1  0
  2  3  1  0
  3  4  1  0
  2  5  1  0
  5  6  1  0
  6  7  1  0
  7  8  1  0
  8  9  1  0
  8 10  1  0
 10 11  1  0
 11 12  1  0
 10 13  1  0
 13  5  1  0
  1 14  1  0
  1 15  1  0
  1 16  1  0
  2 17  1  6
  3 18  1  0
  3 19  1  0
  4 20  1  0
  6 21  1  0
  6 22  1  0
  7 23  1  0
  7 24  1  0
  9 25  1  0
  9 26  1  0
  9 27  1  0
 10 28  1  6
 11 29  1  0
 11 30  1  0
 12 31  1  0
 13 32  1  0
 13 33  1  0
M  END
$$$$
