
     RDKit          3D

 19 18  0  0  0  0  0  0  0  0999 V2000
   -3.2101    1.5643   -0.4463 N   0  0  0  0  0  0  0  0  0  0  0  0
   -2.0536    1.0971    0.0774 O   0  0  0  0  0  0  0  0  0  0  0  0
   -1.9163   -0.2351   -0.3148 C   0  0  0  0  0  0  0  0  0  0  0  0
   -0.6172   -0.8055    0.2571 C   0  0  0  0  0  0  0  0  0  0  0  0
    0.4845   -0.1011   -0.1924 O   0  0  0  0  0  0  0  0  0  0  0  0
    1.6125   -0.6732    0.3645 C   0  0  0  0  0  0  0  0  0  0  0  0
    2.8802    0.0264   -0.0655 C   0  0  0  0  0  0  0  0  0  0  0  0
    2.8767    1.3651    0.3106 O   0  0  0  0  0  0  0  0  0  0  0  0
   -3.9479    1.6299    0.2820 H   0  0  0  0  0  0  0  0  0  0  0  0
   -3.4475    1.0081   -1.2710 H   0  0  0  0  0  0  0  0  0  0  0  0
   -2.7277   -0.8656    0.1214 H   0  0  0  0  0  0  0  0  0  0  0  0
   -1.9145   -0.2795   -1.4245 H   0  0  0  0  0  0  0  0  0  0  0  0
   -0.7263   -0.7251    1.3684 H   0  0  0  0  0  0  0  0  0  0  0  0
   -0.6066   -1.8779   -0.0588 H   0  0  0  0  0  0  0  0  0  0  0  0
    1.6802   -1.7193   -0.0419 H   0  0  0  0  0  0  0  0  0  0  0  0
    1.5068   -0.7754    1.4477 H   0  0  0  0  0  0  0  0  0  0  0  0
    3.7264   -0.4976    0.4023 H   0  0  0  0  0  0  0  0  0  0  0  0
    2.9026    0.0010   -1.1696 H   0  0  0  0  0  0  0  0  0  0  0  0
    3.4977    1.8632   -0.2711 H   0  0  0  0  0  0  0  0  0  0  0  0
  1  2  1  0
  2  3  1  0
  3  4  1  0
  4  5  1  0
  5  6  1  0
  6  7  1  0
  7  8  1  0
  1  9  1  0
  1 10  1  0
  3 11  1  0
  3 12  1  0
  4 13  1  0
  4 14  1  0
  6 15  1  0
  6 16  1  0
  7 17  1  0
  7 18  1  0
  8 19  1  0
M  END
$$$$

     RDKit          3D

 19 18  0  0  0  0  0  0  0  0999 V2000
    3.2936    0.6259    0.8551 N   0  0  0  0  0  0  0  0  0  0  0  0
    2.6972   -0.3601   -0.2253 O   0  0  0  0  0  0  0  0  0  0  0  0
    1.6542   -0.6118    0.6601 C   0  0  0  0  0  0  0  0  0  0  0  0
    0.4007   -0.5700   -0.2304 C   0  0  0  0  0  0  0  0  0  0  0  0
   -0.5128   -0.3476    0.8892 O   0  0  0  0  0  0  0  0  0  0  0  0
   -1.7665   -0.4303    0.4522 C   0  0  0  0  0  0  0  0  0  0  0  0
   -2.5034    0.6683   -0.1949 C   0  0  0  0  0  0  0  0  0  0  0  0
   -1.9537    1.0571   -1.4359 O   0  0  0  0  0  0  0  0  0  0  0  0
    2.3346    1.2968    0.6172 H   0  0  0  0  0  0  0  0  0  0  0  0
    3.9964    1.1518    0.3533 H   0  0  0  0  0  0  0  0  0  0  0  0
    1.8388   -1.9243    0.5084 H   0  0  0  0  0  0  0  0  0  0  0  0
    1.6814   -0.6428    1.6565 H   0  0  0  0  0  0  0  0  0  0  0  0
    0.5119    0.3099   -0.8125 H   0  0  0  0  0  0  0  0  0  0  0  0
    0.0666   -1.4160   -0.7087 H   0  0  0  0  0  0  0  0  0  0  0  0
   -2.2962   -0.5960    1.4600 H   0  0  0  0  0  0  0  0  0  0  0  0
   -1.8165   -1.4281   -0.0602 H   0  0  0  0  0  0  0  0  0  0  0  0
   -2.9365    1.4018    0.4228 H   0  0  0  0  0  0  0  0  0  0  0  0
   -3.4752    0.0884   -0.6646 H   0  0  0  0  0  0  0  0  0  0  0  0
   -1.2143    1.7270   -1.1663 H   0  0  0  0  0  0  0  0  0  0  0  0
  1  2  1  0
  2  3  1  0
  3  4  1  0
  4  5  1  0
  5  6  1  0
  6  7  1  0
  7  8  1  0
  1  9  1  0
  1 10  1  0
  3 11  1  0
  3 12  1  0
  4 13  1  0
  4 14  1  0
  6 15  1  0
  6 16  1  0
  7 17  1  0
  7 18  1  0
  8 19  1  0
M  END
$$$$

     RDKit          3D

 19 18  0  0  0  0  0  0  0  0999 V2000
    3.3684    0.6537   -0.2158 N   0  0  0  0  0  0  0  0  0  0  0  0
    2.3064    0.1580   -0.8263 O   0  0  0  0  0  0  0  0  0  0  0  0
    1.7099   -0.9211   -0.1547 C   0  0  0  0  0  0  0  0  0  0  0  0
    0.2998   -0.4323    0.1878 C   0  0  0  0  0  0  0  0  0  0  0  0
   -0.4871   -0.1535   -0.8755 O   0  0  0  0  0  0  0  0  0  0  0  0
   -1.4757    0.7380   -0.5289 C   0  0  0  0  0  0  0  0  0  0  0  0
   -2.4822    0.2944    0.4519 C   0  0  0  0  0  0  0  0  0  0  0  0
   -3.1138   -0.9159    0.1283 O   0  0  0  0  0  0  0  0  0  0  0  0
    2.9406    1.3595    0.5584 H   0  0  0  0  0  0  0  0  0  0  0  0
    3.9642    0.0552    0.3497 H   0  0  0  0  0  0  0  0  0  0  0  0
    1.6631   -1.8176   -0.7743 H   0  0  0  0  0  0  0  0  0  0  0  0
    2.2479   -1.0885    0.7633 H   0  0  0  0  0  0  0  0  0  0  0  0
   -0.1507   -1.1502    0.8547 H   0  0  0  0  0  0  0  0  0  0  0  0
    0.4895    0.5692    0.7026 H   0  0  0  0  0  0  0  0  0  0  0  0
   -0.8569    1.5547    0.0443 H   0  0  0  0  0  0  0  0  0  0  0  0
   -1.8864    1.2401   -1.4069 H   0  0  0  0  0  0  0  0  0  0  0  0
   -2.1748    0.3419    1.5133 H   0  0  0  0  0  0  0  0  0  0  0  0
   -3.3447    1.0479    0.4089 H   0  0  0  0  0  0  0  0  0  0  0  0
   -3.0174   -1.5336    0.8934 H   0  0  0  0  0  0  0  0  0  0  0  0
  1  2  1  0
  2  3  1  0
  3  4  1  0
  4  5  1  0
  5  6  1  0
  6  7  1  0
  7  8  1  0
  1  9  1  0
  1 10  1  0
  3 11  1  0
  3 12  1  0
  4 13  1  0
  4 14  1  0
  6 15  1  0
  6 16  1  0
  7 17  1  0
  7 18  1  0
  8 19  1  0
M  END
$$$$

     RDKit          3D

 19 18  0  0  0  0  0  0  0  0999 V2000
    2.8427    2.2716   -0.1106 N   0  0  0  0  0  0  0  0  0  0  0  0
    1.6968    1.6835   -0.5078 O   0  0  0  0  0  0  0  0  0  0  0  0
    1.6263    0.3941    0.0629 C   0  0  0  0  0  0  0  0  0  0  0  0
    0.3473   -0.2971   -0.3640 C   0  0  0  0  0  0  0  0  0  0  0  0
   -0.7354    0.4357    0.0525 O   0  0  0  0  0  0  0  0  0  0  0  0
   -1.9590   -0.0901   -0.2779 C   0  0  0  0  0  0  0  0  0  0  0  0
   -2.1605   -1.4813    0.3259 C   0  0  0  0  0  0  0  0  0  0  0  0
   -2.0852   -1.4368    1.6985 O   0  0  0  0  0  0  0  0  0  0  0  0
    3.6726    1.6523   -0.1908 H   0  0  0  0  0  0  0  0  0  0  0  0
    2.7939    2.5765    0.8941 H   0  0  0  0  0  0  0  0  0  0  0  0
    1.7074    0.4916    1.1514 H   0  0  0  0  0  0  0  0  0  0  0  0
    2.5183   -0.1651   -0.3248 H   0  0  0  0  0  0  0  0  0  0  0  0
    0.3785   -0.4613   -1.4547 H   0  0  0  0  0  0  0  0  0  0  0  0
    0.3657   -1.2938    0.1674 H   0  0  0  0  0  0  0  0  0  0  0  0
   -2.7361    0.5578    0.1945 H   0  0  0  0  0  0  0  0  0  0  0  0
   -2.1755   -0.1019   -1.3513 H   0  0  0  0  0  0  0  0  0  0  0  0
   -3.1979   -1.8259    0.0734 H   0  0  0  0  0  0  0  0  0  0  0  0
   -1.4459   -2.1733   -0.1312 H   0  0  0  0  0  0  0  0  0  0  0  0
   -1.4539   -0.7365    2.0336 H   0  0  0  0  0  0  0  0  0  0  0  0
  1  2  1  0
  2  3  1  0
  3  4  1  0
  4  5  1  0
  5  6  1  0
  6  7  1  0
  7  8  1  0
  1  9  1  0
  1 10  1  0
  3 11  1  0
  3 12  1  0
  4 13  1  0
  4 14  1  0
  6 15  1  0
  6 16  1  0
  7 17  1  0
  7 18  1  0
  8 19  1  0
M  END
$$$$

     RDKit          3D

 19 18  0  0  0  0  0  0  0  0999 V2000
   -3.7657   -0.5761    0.2542 N   0  0  0  0  0  0  0  0  0  0  0  0
   -2.7345   -0.6122   -0.6485 O   0  0  0  0  0  0  0  0  0  0  0  0
   -1.5903   -1.0546    0.0043 C   0  0  0  0  0  0  0  0  0  0  0  0
   -0.5545    0.0096   -0.2729 C   0  0  0  0  0  0  0  0  0  0  0  0
    0.6936   -0.3237    0.2275 O   0  0  0  0  0  0  0  0  0  0  0  0
    1.5358    0.7048   -0.1881 C   0  0  0  0  0  0  0  0  0  0  0  0
    2.9189    0.6463    0.3790 C   0  0  0  0  0  0  0  0  0  0  0  0
    3.7067   -0.3698   -0.0908 O   0  0  0  0  0  0  0  0  0  0  0  0
   -4.5282   -0.0116   -0.2394 H   0  0  0  0  0  0  0  0  0  0  0  0
   -3.4251    0.1758    0.9815 H   0  0  0  0  0  0  0  0  0  0  0  0
   -1.7363   -1.2053    1.0628 H   0  0  0  0  0  0  0  0  0  0  0  0
   -1.2272   -1.9781   -0.5405 H   0  0  0  0  0  0  0  0  0  0  0  0
   -0.5543    0.3944   -1.2822 H   0  0  0  0  0  0  0  0  0  0  0  0
   -0.8961    0.8853    0.3729 H   0  0  0  0  0  0  0  0  0  0  0  0
    1.0594    1.6582    0.1028 H   0  0  0  0  0  0  0  0  0  0  0  0
    1.6246    0.6871   -1.3285 H   0  0  0  0  0  0  0  0  0  0  0  0
    3.3935    1.6286    0.2153 H   0  0  0  0  0  0  0  0  0  0  0  0
    2.8066    0.5680    1.5032 H   0  0  0  0  0  0  0  0  0  0  0  0
    3.2732   -1.2269   -0.2130 H   0  0  0  0  0  0  0  0  0  0  0  0
  1  2  1  0
  2  3  1  0
  3  4  1  0
  4  5  1  0
  5  6  1  0
  6  7  1  0
  7  8  1  0
  1  9  1  0
  1 10  1  0
  3 11  1  0
  3 12  1  0
  4 13  1  0
  4 14  1  0
  6 15  1  0
  6 16  1  0
  7 17  1  0
  7 18  1  0
  8 19  1  0
M  END
$$$$

     RDKit          3D

 19 18  0  0  0  0  0  0  0  0999 V2000
    3.0269   -0.0252    0.4624 N   0  0  0  0  0  0  0  0  0  0  0  0
    2.6238   -0.1497   -0.7959 O   0  0  0  0  0  0  0  0  0  0  0  0
    1.2033    0.1582   -0.7740 C   0  0  0  0  0  0  0  0  0  0  0  0
    0.5667   -1.0756   -0.1429 C   0  0  0  0  0  0  0  0  0  0  0  0
   -0.7594   -0.9986   -0.0143 O   0  0  0  0  0  0  0  0  0  0  0  0
   -1.2661    0.3061   -0.0878 C   0  0  0  0  0  0  0  0  0  0  0  0
   -2.7683    0.2119    0.1686 C   0  0  0  0  0  0  0  0  0  0  0  0
   -3.0327   -0.2734    1.4443 O   0  0  0  0  0  0  0  0  0  0  0  0
    3.5033   -0.9762    0.6846 H   0  0  0  0  0  0  0  0  0  0  0  0
    3.4937    0.7460    0.8280 H   0  0  0  0  0  0  0  0  0  0  0  0
    0.9700    0.0055   -1.9008 H   0  0  0  0  0  0  0  0  0  0  0  0
    1.0043    1.1087   -0.4186 H   0  0  0  0  0  0  0  0  0  0  0  0
    0.7807   -1.9524   -0.8312 H   0  0  0  0  0  0  0  0  0  0  0  0
    1.1295   -1.2877    0.7601 H   0  0  0  0  0  0  0  0  0  0  0  0
   -1.1768    0.6681   -1.1533 H   0  0  0  0  0  0  0  0  0  0  0  0
   -0.7642    0.9268    0.6284 H   0  0  0  0  0  0  0  0  0  0  0  0
   -3.0387   -0.6959   -0.5144 H   0  0  0  0  0  0  0  0  0  0  0  0
   -3.3190    1.0575   -0.1954 H   0  0  0  0  0  0  0  0  0  0  0  0
   -2.1770   -0.5139    1.8521 H   0  0  0  0  0  0  0  0  0  0  0  0
  1  2  1  0
  2  3  1  0
  3  4  1  0
  4  5  1  0
  5  6  1  0
  6  7  1  0
  7  8  1  0
  1  9  1  0
  1 10  1  0
  3 11  1  0
  3 12  1  0
  4 13  1  0
  4 14  1  0
  6 15  1  0
  6 16  1  0
  7 17  1  0
  7 18  1  0
  8 19  1  0
M  END
$$$$

     RDKit          3D

 19 18  0  0  0  0  0  0  0  0999 V2000
    3.5497    0.0553    0.3729 N   0  0  0  0  0  0  0  0  0  0  0  0
    2.7061   -0.4782   -0.5377 O   0  0  0  0  0  0  0  0  0  0  0  0
    1.4364    0.0938   -0.2665 C   0  0  0  0  0  0  0  0  0  0  0  0
    0.4627   -0.4746   -1.2610 C   0  0  0  0  0  0  0  0  0  0  0  0
   -0.7867    0.0599   -1.0408 O   0  0  0  0  0  0  0  0  0  0  0  0
   -1.3343   -0.1870    0.2021 C   0  0  0  0  0  0  0  0  0  0  0  0
   -2.7216    0.4820    0.1686 C   0  0  0  0  0  0  0  0  0  0  0  0
   -3.3992    0.3226    1.3476 O   0  0  0  0  0  0  0  0  0  0  0  0
    4.0600    0.8572   -0.0136 H   0  0  0  0  0  0  0  0  0  0  0  0
    3.0289    0.2440    1.2537 H   0  0  0  0  0  0  0  0  0  0  0  0
    1.5065    1.1963   -0.3634 H   0  0  0  0  0  0  0  0  0  0  0  0
    1.1055   -0.2136    0.7474 H   0  0  0  0  0  0  0  0  0  0  0  0
    0.4874   -1.5854   -1.0952 H   0  0  0  0  0  0  0  0  0  0  0  0
    0.8019   -0.3459   -2.3122 H   0  0  0  0  0  0  0  0  0  0  0  0
   -0.7774    0.2875    1.0423 H   0  0  0  0  0  0  0  0  0  0  0  0
   -1.4323   -1.2568    0.4406 H   0  0  0  0  0  0  0  0  0  0  0  0
   -3.2469    0.1177   -0.7263 H   0  0  0  0  0  0  0  0  0  0  0  0
   -2.5070    1.5608   -0.0070 H   0  0  0  0  0  0  0  0  0  0  0  0
   -2.9398    0.8320    2.0486 H   0  0  0  0  0  0  0  0  0  0  0  0
  1  2  1  0
  2  3  1  0
  3  4  1  0
  4  5  1  0
  5  6  1  0
  6  7  1  0
  7  8  1  0
  1  9  1  0
  1 10  1  0
  3 11  1  0
  3 12  1  0
  4 13  1  0
  4 14  1  0
  6 15  1  0
  6 16  1  0
  7 17  1  0
  7 18  1  0
  8 19  1  0
M  END
$$$$
