
     RDKit          3D

 30 29  0  0  0  0  0  0  0  0999 V2000
   -4.1859    0.3377   -0.3985 N   0  0  0  0  0  0  0  0  0  0  0  0
   -2.9724    0.0140   -1.1185 C   0  0  0  0  0  0  0  0  0  0  0  0
   -1.9432   -0.4364   -0.0540 C   0  0  2  0  0  0  0  0  0  0  0  0
   -1.8201    0.7303    0.8068 N   0  0  0  0  0  0  0  0  0  0  0  0
   -0.6782   -0.8296   -0.7376 C   0  0  0  0  0  0  0  0  0  0  0  0
    0.4361   -1.3223    0.1153 C   0  0  1  0  0  0  0  0  0  0  0  0
    1.5325   -1.6394   -0.7346 O   0  0  0  0  0  0  0  0  0  0  0  0
    0.8435   -0.2841    1.1258 C   0  0  0  0  0  0  0  0  0  0  0  0
    1.1770    0.8906    0.5293 O   0  0  0  0  0  0  0  0  0  0  0  0
    2.2159    0.9247   -0.3426 C   0  0  0  0  0  0  0  0  0  0  0  0
    3.5472    0.4964    0.2740 C   0  0  0  0  0  0  0  0  0  0  0  0
    4.5113    0.5794   -0.7298 O   0  0  0  0  0  0  0  0  0  0  0  0
   -4.8828    0.7644   -1.0658 H   0  0  0  0  0  0  0  0  0  0  0  0
   -4.0013    1.0442    0.3297 H   0  0  0  0  0  0  0  0  0  0  0  0
   -3.1157   -0.8346   -1.7929 H   0  0  0  0  0  0  0  0  0  0  0  0
   -2.5430    0.9113   -1.6130 H   0  0  0  0  0  0  0  0  0  0  0  0
   -2.3408   -1.2658    0.5414 H   0  0  0  0  0  0  0  0  0  0  0  0
   -2.3478    0.6440    1.6839 H   0  0  0  0  0  0  0  0  0  0  0  0
   -1.8936    1.6218    0.3105 H   0  0  0  0  0  0  0  0  0  0  0  0
   -0.9554   -1.6393   -1.4747 H   0  0  0  0  0  0  0  0  0  0  0  0
   -0.3607    0.0519   -1.3689 H   0  0  0  0  0  0  0  0  0  0  0  0
    0.1219   -2.2719    0.6114 H   0  0  0  0  0  0  0  0  0  0  0  0
    1.2521   -2.4728   -1.1954 H   0  0  0  0  0  0  0  0  0  0  0  0
   -0.0054   -0.1367    1.8203 H   0  0  0  0  0  0  0  0  0  0  0  0
    1.7129   -0.6872    1.7497 H   0  0  0  0  0  0  0  0  0  0  0  0
    2.3935    2.0339   -0.5647 H   0  0  0  0  0  0  0  0  0  0  0  0
    2.0803    0.4832   -1.3264 H   0  0  0  0  0  0  0  0  0  0  0  0
    3.4911   -0.4779    0.7681 H   0  0  0  0  0  0  0  0  0  0  0  0
    3.7957    1.2924    1.0370 H   0  0  0  0  0  0  0  0  0  0  0  0
    4.9354    1.4775   -0.7494 H   0  0  0  0  0  0  0  0  0  0  0  0
  1  2  1  0
  2  3  1  0
  3  4  1  0
  3  5  1  0
  5  6  1  0
  6  7  1  0
  6  8  1  0
  8  9  1  0
  9 10  1  0
 10 11  1  0
 11 12  1  0
  1 13  1  0
  1 14  1  0
  2 15  1  0
  2 16  1  0
  3 17  1  1
  4 18  1  0
  4 19  1  0
  5 20  1  0
  5 21  1  0
  6 22  1  1
  7 23  1  0
  8 24  1  0
  8 25  1  0
 10 26  1  0
 10 27  1  0
 11 28  1  0
 11 29  1  0
 12 30  1  0
M  END
$$$$

     RDKit          3D

 30 29  0  0  0  0  0  0  0  0999 V2000
   -3.7659   -1.5461   -0.4936 N   0  0  0  0  0  0  0  0  0  0  0  0
   -3.5773   -0.1826   -0.1057 C   0  0  0  0  0  0  0  0  0  0  0  0
   -2.1620    0.1302    0.3304 C   0  0  2  0  0  0  0  0  0  0  0  0
   -2.1009    1.5079    0.6896 N   0  0  0  0  0  0  0  0  0  0  0  0
   -1.2057   -0.2725   -0.7480 C   0  0  0  0  0  0  0  0  0  0  0  0
    0.2379   -0.0007   -0.4087 C   0  0  1  0  0  0  0  0  0  0  0  0
    0.3901    1.3699   -0.1899 O   0  0  0  0  0  0  0  0  0  0  0  0
    0.7535   -0.8117    0.7203 C   0  0  0  0  0  0  0  0  0  0  0  0
    2.0888   -0.5504    0.9291 O   0  0  0  0  0  0  0  0  0  0  0  0
    2.9380   -0.8249   -0.1194 C   0  0  0  0  0  0  0  0  0  0  0  0
    4.3547   -0.4863    0.3672 C   0  0  0  0  0  0  0  0  0  0  0  0
    4.3705    0.8570    0.7042 O   0  0  0  0  0  0  0  0  0  0  0  0
   -3.0168   -2.1939   -0.2326 H   0  0  0  0  0  0  0  0  0  0  0  0
   -4.1939   -1.6888   -1.4192 H   0  0  0  0  0  0  0  0  0  0  0  0
   -3.8570    0.4527   -0.9840 H   0  0  0  0  0  0  0  0  0  0  0  0
   -4.3099    0.0722    0.6891 H   0  0  0  0  0  0  0  0  0  0  0  0
   -1.9583   -0.5318    1.2121 H   0  0  0  0  0  0  0  0  0  0  0  0
   -2.8314    2.1001    0.2691 H   0  0  0  0  0  0  0  0  0  0  0  0
   -2.0706    1.5739    1.7456 H   0  0  0  0  0  0  0  0  0  0  0  0
   -1.4469    0.2952   -1.6653 H   0  0  0  0  0  0  0  0  0  0  0  0
   -1.3116   -1.3445   -0.9618 H   0  0  0  0  0  0  0  0  0  0  0  0
    0.8041   -0.2504   -1.3228 H   0  0  0  0  0  0  0  0  0  0  0  0
    0.3772    1.8787   -1.0553 H   0  0  0  0  0  0  0  0  0  0  0  0
    0.6745   -1.9065    0.5450 H   0  0  0  0  0  0  0  0  0  0  0  0
    0.2424   -0.6264    1.6872 H   0  0  0  0  0  0  0  0  0  0  0  0
    2.7489   -0.1952   -1.0349 H   0  0  0  0  0  0  0  0  0  0  0  0
    2.8608   -1.8848   -0.4229 H   0  0  0  0  0  0  0  0  0  0  0  0
    4.6329   -1.1322    1.2014 H   0  0  0  0  0  0  0  0  0  0  0  0
    5.0296   -0.6600   -0.4943 H   0  0  0  0  0  0  0  0  0  0  0  0
    5.3043    1.1816    0.5682 H   0  0  0  0  0  0  0  0  0  0  0  0
  1  2  1  0
  2  3  1  0
  3  4  1  0
  3  5  1  0
  5  6  1  0
  6  7  1  0
  6  8  1  0
  8  9  1  0
  9 10  1  0
 10 11  1  0
 11 12  1  0
  1 13  1  0
  1 14  1  0
  2 15  1  0
  2 16  1  0
  3 17  1  1
  4 18  1  0
  4 19  1  0
  5 20  1  0
  5 21  1  0
  6 22  1  6
  7 23  1  0
  8 24  1  0
  8 25  1  0
 10 26  1  0
 10 27  1  0
 11 28  1  0
 11 29  1  0
 12 30  1  0
M  END
$$$$

     RDKit          3D

 30 29  0  0  0  0  0  0  0  0999 V2000
   -4.1443    1.3168    0.2128 N   0  0  0  0  0  0  0  0  0  0  0  0
   -2.7092    1.2154    0.3974 C   0  0  0  0  0  0  0  0  0  0  0  0
   -2.1550    0.0922   -0.4233 C   0  0  2  0  0  0  0  0  0  0  0  0
   -2.7167   -1.1926   -0.0830 N   0  0  0  0  0  0  0  0  0  0  0  0
   -0.6432    0.0942   -0.3564 C   0  0  0  0  0  0  0  0  0  0  0  0
   -0.1436   -0.0735    1.0544 C   0  0  1  0  0  0  0  0  0  0  0  0
   -0.5512   -1.2487    1.6405 O   0  0  0  0  0  0  0  0  0  0  0  0
    1.3987   -0.0721    0.9554 C   0  0  0  0  0  0  0  0  0  0  0  0
    1.7924   -1.1409    0.1920 O   0  0  0  0  0  0  0  0  0  0  0  0
    3.1375   -1.2795    0.0929 C   0  0  0  0  0  0  0  0  0  0  0  0
    3.9037   -0.1650   -0.5162 C   0  0  0  0  0  0  0  0  0  0  0  0
    3.8464    1.0491    0.0927 O   0  0  0  0  0  0  0  0  0  0  0  0
   -4.4672    0.8204   -0.6493 H   0  0  0  0  0  0  0  0  0  0  0  0
   -4.3992    2.3400    0.1724 H   0  0  0  0  0  0  0  0  0  0  0  0
   -2.2308    2.1504    0.0620 H   0  0  0  0  0  0  0  0  0  0  0  0
   -2.5097    1.0170    1.4722 H   0  0  0  0  0  0  0  0  0  0  0  0
   -2.4177    0.2931   -1.4935 H   0  0  0  0  0  0  0  0  0  0  0  0
   -3.5537   -1.4136   -0.6649 H   0  0  0  0  0  0  0  0  0  0  0  0
   -2.9100   -1.2831    0.9410 H   0  0  0  0  0  0  0  0  0  0  0  0
   -0.2027   -0.7064   -0.9822 H   0  0  0  0  0  0  0  0  0  0  0  0
   -0.2972    1.0855   -0.7121 H   0  0  0  0  0  0  0  0  0  0  0  0
   -0.4946    0.7721    1.6714 H   0  0  0  0  0  0  0  0  0  0  0  0
   -0.3361   -2.0573    1.1477 H   0  0  0  0  0  0  0  0  0  0  0  0
    1.7667   -0.0625    1.9933 H   0  0  0  0  0  0  0  0  0  0  0  0
    1.6757    0.8657    0.3856 H   0  0  0  0  0  0  0  0  0  0  0  0
    3.5018   -1.4760    1.1588 H   0  0  0  0  0  0  0  0  0  0  0  0
    3.4017   -2.2578   -0.4262 H   0  0  0  0  0  0  0  0  0  0  0  0
    3.5730   -0.0750   -1.5787 H   0  0  0  0  0  0  0  0  0  0  0  0
    5.0016   -0.4334   -0.6001 H   0  0  0  0  0  0  0  0  0  0  0  0
    3.8829    1.8254   -0.4875 H   0  0  0  0  0  0  0  0  0  0  0  0
  1  2  1  0
  2  3  1  0
  3  4  1  0
  3  5  1  0
  5  6  1  0
  6  7  1  0
  6  8  1  0
  8  9  1  0
  9 10  1  0
 10 11  1  0
 11 12  1  0
  1 13  1  0
  1 14  1  0
  2 15  1  0
  2 16  1  0
  3 17  1  6
  4 18  1  0
  4 19  1  0
  5 20  1  0
  5 21  1  0
  6 22  1  1
  7 23  1  0
  8 24  1  0
  8 25  1  0
 10 26  1  0
 10 27  1  0
 11 28  1  0
 11 29  1  0
 12 30  1  0
M  END
$$$$

     RDKit          3D

 30 29  0  0  0  0  0  0  0  0999 V2000
   -4.3400    1.3167   -0.1255 N   0  0  0  0  0  0  0  0  0  0  0  0
   -2.9869    0.9141    0.2504 C   0  0  0  0  0  0  0  0  0  0  0  0
   -2.6390   -0.4398   -0.2680 C   0  0  2  0  0  0  0  0  0  0  0  0
   -3.5631   -1.4614    0.2330 N   0  0  0  0  0  0  0  0  0  0  0  0
   -1.2631   -0.8412    0.1453 C   0  0  0  0  0  0  0  0  0  0  0  0
   -0.1426    0.0261   -0.3064 C   0  0  1  0  0  0  0  0  0  0  0  0
   -0.1830    1.3372    0.1331 O   0  0  0  0  0  0  0  0  0  0  0  0
    1.1800   -0.5420    0.1735 C   0  0  0  0  0  0  0  0  0  0  0  0
    2.2083    0.2114   -0.3773 O   0  0  0  0  0  0  0  0  0  0  0  0
    3.4533   -0.2539    0.0207 C   0  0  0  0  0  0  0  0  0  0  0  0
    4.5196    0.6156   -0.6187 C   0  0  0  0  0  0  0  0  0  0  0  0
    5.7951    0.2091   -0.2652 O   0  0  0  0  0  0  0  0  0  0  0  0
   -4.8525    1.7778    0.6358 H   0  0  0  0  0  0  0  0  0  0  0  0
   -4.3862    1.7689   -1.0463 H   0  0  0  0  0  0  0  0  0  0  0  0
   -2.3469    1.6618   -0.3088 H   0  0  0  0  0  0  0  0  0  0  0  0
   -2.8430    0.9543    1.3262 H   0  0  0  0  0  0  0  0  0  0  0  0
   -2.6869   -0.4603   -1.3802 H   0  0  0  0  0  0  0  0  0  0  0  0
   -3.7450   -2.1952   -0.4836 H   0  0  0  0  0  0  0  0  0  0  0  0
   -3.1881   -1.9032    1.0803 H   0  0  0  0  0  0  0  0  0  0  0  0
   -1.0325   -1.8788   -0.2513 H   0  0  0  0  0  0  0  0  0  0  0  0
   -1.2171   -0.9253    1.2604 H   0  0  0  0  0  0  0  0  0  0  0  0
   -0.1569    0.0548   -1.4249 H   0  0  0  0  0  0  0  0  0  0  0  0
    0.2352    1.4617    1.0055 H   0  0  0  0  0  0  0  0  0  0  0  0
    1.2871   -1.5733   -0.1945 H   0  0  0  0  0  0  0  0  0  0  0  0
    1.1743   -0.4890    1.2774 H   0  0  0  0  0  0  0  0  0  0  0  0
    3.5843   -0.1822    1.1198 H   0  0  0  0  0  0  0  0  0  0  0  0
    3.5725   -1.3004   -0.2782 H   0  0  0  0  0  0  0  0  0  0  0  0
    4.3933    0.5287   -1.7171 H   0  0  0  0  0  0  0  0  0  0  0  0
    4.3620    1.6719   -0.3176 H   0  0  0  0  0  0  0  0  0  0  0  0
    5.8079   -0.0642    0.7021 H   0  0  0  0  0  0  0  0  0  0  0  0
  1  2  1  0
  2  3  1  0
  3  4  1  0
  3  5  1  0
  5  6  1  0
  6  7  1  0
  6  8  1  0
  8  9  1  0
  9 10  1  0
 10 11  1  0
 11 12  1  0
  1 13  1  0
  1 14  1  0
  2 15  1  0
  2 16  1  0
  3 17  1  6
  4 18  1  0
  4 19  1  0
  5 20  1  0
  5 21  1  0
  6 22  1  6
  7 23  1  0
  8 24  1  0
  8 25  1  0
 10 26  1  0
 10 27  1  0
 11 28  1  0
 11 29  1  0
 12 30  1  0
M  END
$$$$

     RDKit          3D

 30 29  0  0  0  0  0  0  0  0999 V2000
   -2.6016    1.9524   -0.5428 N   0  0  0  0  0  0  0  0  0  0  0  0
   -1.9215    1.0838    0.4350 C   0  0  0  0  0  0  0  0  0  0  0  0
   -1.7296   -0.2395   -0.2085 C   0  0  2  0  0  0  0  0  0  0  0  0
   -3.0740   -0.7463   -0.5414 N   0  0  0  0  0  0  0  0  0  0  0  0
   -1.0380   -1.2865    0.5428 C   0  0  0  0  0  0  0  0  0  0  0  0
    0.3830   -1.0777    0.9572 C   0  0  1  0  0  0  0  0  0  0  0  0
    0.7424   -2.2595    1.7006 O   0  0  0  0  0  0  0  0  0  0  0  0
    1.2582   -1.2486   -0.3003 C   0  0  0  0  0  0  0  0  0  0  0  0
    1.1799   -0.1946   -1.1448 O   0  0  0  0  0  0  0  0  0  0  0  0
    1.6714    1.0056   -0.7080 C   0  0  0  0  0  0  0  0  0  0  0  0
    3.1624    0.8643   -0.4317 C   0  0  0  0  0  0  0  0  0  0  0  0
    3.6467    2.1125    0.0126 O   0  0  0  0  0  0  0  0  0  0  0  0
   -2.7526    2.9090   -0.1525 H   0  0  0  0  0  0  0  0  0  0  0  0
   -3.5180    1.5698   -0.8242 H   0  0  0  0  0  0  0  0  0  0  0  0
   -2.6878    0.9916    1.2597 H   0  0  0  0  0  0  0  0  0  0  0  0
   -1.0293    1.5990    0.7661 H   0  0  0  0  0  0  0  0  0  0  0  0
   -1.2301   -0.0915   -1.2038 H   0  0  0  0  0  0  0  0  0  0  0  0
   -3.3739   -0.4074   -1.4770 H   0  0  0  0  0  0  0  0  0  0  0  0
   -3.1321   -1.7631   -0.4040 H   0  0  0  0  0  0  0  0  0  0  0  0
   -1.6515   -1.5461    1.4577 H   0  0  0  0  0  0  0  0  0  0  0  0
   -1.1016   -2.2385   -0.0687 H   0  0  0  0  0  0  0  0  0  0  0  0
    0.6566   -0.1974    1.4727 H   0  0  0  0  0  0  0  0  0  0  0  0
    0.5889   -2.9913    1.0374 H   0  0  0  0  0  0  0  0  0  0  0  0
    2.3076   -1.5218   -0.0050 H   0  0  0  0  0  0  0  0  0  0  0  0
    0.8790   -2.1827   -0.7901 H   0  0  0  0  0  0  0  0  0  0  0  0
    1.5323    1.7371   -1.5493 H   0  0  0  0  0  0  0  0  0  0  0  0
    1.1563    1.4566    0.1548 H   0  0  0  0  0  0  0  0  0  0  0  0
    3.6821    0.5321   -1.3455 H   0  0  0  0  0  0  0  0  0  0  0  0
    3.3707    0.1315    0.3690 H   0  0  0  0  0  0  0  0  0  0  0  0
    4.6240    2.0471    0.1112 H   0  0  0  0  0  0  0  0  0  0  0  0
  1  2  1  0
  2  3  1  0
  3  4  1  0
  3  5  1  0
  5  6  1  0
  6  7  1  0
  6  8  1  0
  8  9  1  0
  9 10  1  0
 10 11  1  0
 11 12  1  0
  1 13  1  0
  1 14  1  0
  2 15  1  0
  2 16  1  0
  3 17  1  6
  4 18  1  0
  4 19  1  0
  5 20  1  0
  5 21  1  0
  6 22  1  1
  7 23  1  0
  8 24  1  0
  8 25  1  0
 10 26  1  0
 10 27  1  0
 11 28  1  0
 11 29  1  0
 12 30  1  0
M  END
$$$$

     RDKit          3D

 30 29  0  0  0  0  0  0  0  0999 V2000
   -3.7847   -0.9274    0.4767 N   0  0  0  0  0  0  0  0  0  0  0  0
   -3.2563    0.2576    1.1319 C   0  0  0  0  0  0  0  0  0  0  0  0
   -2.0432    0.7597    0.3496 C   0  0  2  0  0  0  0  0  0  0  0  0
   -2.4414    1.0871   -1.0024 N   0  0  0  0  0  0  0  0  0  0  0  0
   -0.9414   -0.2911    0.3592 C   0  0  0  0  0  0  0  0  0  0  0  0
    0.2244    0.2411   -0.4173 C   0  0  1  0  0  0  0  0  0  0  0  0
    0.6822    1.3932    0.1597 O   0  0  0  0  0  0  0  0  0  0  0  0
    1.2629   -0.7903   -0.7245 C   0  0  0  0  0  0  0  0  0  0  0  0
    1.9859   -1.2784    0.3066 O   0  0  0  0  0  0  0  0  0  0  0  0
    2.7407   -0.4442    1.0493 C   0  0  0  0  0  0  0  0  0  0  0  0
    3.8134    0.3073    0.3037 C   0  0  0  0  0  0  0  0  0  0  0  0
    4.7332   -0.5448   -0.3081 O   0  0  0  0  0  0  0  0  0  0  0  0
   -3.4207   -1.7696    0.9781 H   0  0  0  0  0  0  0  0  0  0  0  0
   -4.8193   -0.8955    0.4506 H   0  0  0  0  0  0  0  0  0  0  0  0
   -4.0545    1.0068    1.1633 H   0  0  0  0  0  0  0  0  0  0  0  0
   -2.9886    0.0006    2.1581 H   0  0  0  0  0  0  0  0  0  0  0  0
   -1.7403    1.6964    0.8468 H   0  0  0  0  0  0  0  0  0  0  0  0
   -2.4265    0.2448   -1.6274 H   0  0  0  0  0  0  0  0  0  0  0  0
   -1.8027    1.8036   -1.4389 H   0  0  0  0  0  0  0  0  0  0  0  0
   -0.6849   -0.5604    1.3996 H   0  0  0  0  0  0  0  0  0  0  0  0
   -1.3378   -1.2257   -0.1026 H   0  0  0  0  0  0  0  0  0  0  0  0
   -0.2057    0.5337   -1.4255 H   0  0  0  0  0  0  0  0  0  0  0  0
    0.2683    1.5224    1.0478 H   0  0  0  0  0  0  0  0  0  0  0  0
    1.9168   -0.4434   -1.5750 H   0  0  0  0  0  0  0  0  0  0  0  0
    0.7020   -1.6642   -1.1764 H   0  0  0  0  0  0  0  0  0  0  0  0
    3.3025   -1.0906    1.7919 H   0  0  0  0  0  0  0  0  0  0  0  0
    2.2076    0.2842    1.6881 H   0  0  0  0  0  0  0  0  0  0  0  0
    4.3939    0.8728    1.0787 H   0  0  0  0  0  0  0  0  0  0  0  0
    3.4166    1.0720   -0.3860 H   0  0  0  0  0  0  0  0  0  0  0  0
    4.2978   -1.1578   -0.9243 H   0  0  0  0  0  0  0  0  0  0  0  0
  1  2  1  0
  2  3  1  0
  3  4  1  0
  3  5  1  0
  5  6  1  0
  6  7  1  0
  6  8  1  0
  8  9  1  0
  9 10  1  0
 10 11  1  0
 11 12  1  0
  1 13  1  0
  1 14  1  0
  2 15  1  0
  2 16  1  0
  3 17  1  1
  4 18  1  0
  4 19  1  0
  5 20  1  0
  5 21  1  0
  6 22  1  6
  7 23  1  0
  8 24  1  0
  8 25  1  0
 10 26  1  0
 10 27  1  0
 11 28  1  0
 11 29  1  0
 12 30  1  0
M  END
$$$$

     RDKit          3D

 30 29  0  0  0  0  0  0  0  0999 V2000
   -2.8587    1.0900    1.7292 N   0  0  0  0  0  0  0  0  0  0  0  0
   -2.6951    0.4113    0.4583 C   0  0  0  0  0  0  0  0  0  0  0  0
   -1.2127    0.4196    0.0391 C   0  0  2  0  0  0  0  0  0  0  0  0
   -0.7679    1.8087   -0.0877 N   0  0  0  0  0  0  0  0  0  0  0  0
   -1.1693   -0.2939   -1.2787 C   0  0  0  0  0  0  0  0  0  0  0  0
    0.1965   -0.4235   -1.8882 C   0  0  1  0  0  0  0  0  0  0  0  0
    0.7984    0.7826   -2.1257 O   0  0  0  0  0  0  0  0  0  0  0  0
    1.0563   -1.4274   -1.2058 C   0  0  0  0  0  0  0  0  0  0  0  0
    1.5083   -1.0524    0.0034 O   0  0  0  0  0  0  0  0  0  0  0  0
    2.3221    0.0124    0.1514 C   0  0  0  0  0  0  0  0  0  0  0  0
    2.6459    0.1111    1.6581 C   0  0  0  0  0  0  0  0  0  0  0  0
    3.2765   -1.0637    2.0672 O   0  0  0  0  0  0  0  0  0  0  0  0
   -2.8093    2.1104    1.6553 H   0  0  0  0  0  0  0  0  0  0  0  0
   -3.7671    0.7613    2.1508 H   0  0  0  0  0  0  0  0  0  0  0  0
   -3.2363    0.9569   -0.3281 H   0  0  0  0  0  0  0  0  0  0  0  0
   -3.0038   -0.6312    0.5240 H   0  0  0  0  0  0  0  0  0  0  0  0
   -0.6010   -0.0518    0.8285 H   0  0  0  0  0  0  0  0  0  0  0  0
   -0.4093    2.1167    0.8361 H   0  0  0  0  0  0  0  0  0  0  0  0
   -1.5510    2.4054   -0.4382 H   0  0  0  0  0  0  0  0  0  0  0  0
   -1.5878   -1.3104   -1.1137 H   0  0  0  0  0  0  0  0  0  0  0  0
   -1.7964    0.2838   -1.9881 H   0  0  0  0  0  0  0  0  0  0  0  0
   -0.0019   -0.8623   -2.9328 H   0  0  0  0  0  0  0  0  0  0  0  0
    0.1913    1.5347   -2.2468 H   0  0  0  0  0  0  0  0  0  0  0  0
    0.4041   -2.3484   -1.0376 H   0  0  0  0  0  0  0  0  0  0  0  0
    1.8506   -1.8251   -1.8915 H   0  0  0  0  0  0  0  0  0  0  0  0
    3.2776   -0.0417   -0.4156 H   0  0  0  0  0  0  0  0  0  0  0  0
    1.8508    0.9578   -0.1457 H   0  0  0  0  0  0  0  0  0  0  0  0
    1.6814    0.2324    2.1912 H   0  0  0  0  0  0  0  0  0  0  0  0
    3.3116    0.9816    1.8160 H   0  0  0  0  0  0  0  0  0  0  0  0
    3.0962   -1.2670    3.0158 H   0  0  0  0  0  0  0  0  0  0  0  0
  1  2  1  0
  2  3  1  0
  3  4  1  0
  3  5  1  0
  5  6  1  0
  6  7  1  0
  6  8  1  0
  8  9  1  0
  9 10  1  0
 10 11  1  0
 11 12  1  0
  1 13  1  0
  1 14  1  0
  2 15  1  0
  2 16  1  0
  3 17  1  1
  4 18  1  0
  4 19  1  0
  5 20  1  0
  5 21  1  0
  6 22  1  6
  7 23  1  0
  8 24  1  0
  8 25  1  0
 10 26  1  0
 10 27  1  0
 11 28  1  0
 11 29  1  0
 12 30  1  0
M  END
$$$$

     RDKit          3D

 30 29  0  0  0  0  0  0  0  0999 V2000
    2.8534    1.8156    0.4932 N   0  0  0  0  0  0  0  0  0  0  0  0
    3.2882    0.4895    0.0723 C   0  0  0  0  0  0  0  0  0  0  0  0
    2.2748   -0.5548    0.5356 C   0  0  2  0  0  0  0  0  0  0  0  0
    2.7215   -1.8491    0.1116 N   0  0  0  0  0  0  0  0  0  0  0  0
    0.9019   -0.2603   -0.0332 C   0  0  0  0  0  0  0  0  0  0  0  0
   -0.0382   -1.3092    0.4528 C   0  0  1  0  0  0  0  0  0  0  0  0
   -0.0591   -1.2593    1.8463 O   0  0  0  0  0  0  0  0  0  0  0  0
   -1.4425   -1.1334   -0.0680 C   0  0  0  0  0  0  0  0  0  0  0  0
   -1.9737    0.0761    0.3243 O   0  0  0  0  0  0  0  0  0  0  0  0
   -3.2613    0.2105   -0.1669 C   0  0  0  0  0  0  0  0  0  0  0  0
   -3.7694    1.5741    0.3149 C   0  0  0  0  0  0  0  0  0  0  0  0
   -2.9254    2.5560   -0.1909 O   0  0  0  0  0  0  0  0  0  0  0  0
    3.6908    2.3646    0.7975 H   0  0  0  0  0  0  0  0  0  0  0  0
    2.4040    2.2869   -0.3281 H   0  0  0  0  0  0  0  0  0  0  0  0
    3.4111    0.4604   -1.0151 H   0  0  0  0  0  0  0  0  0  0  0  0
    4.2474    0.2777    0.5633 H   0  0  0  0  0  0  0  0  0  0  0  0
    2.1999   -0.4539    1.6388 H   0  0  0  0  0  0  0  0  0  0  0  0
    3.3326   -2.2530    0.8511 H   0  0  0  0  0  0  0  0  0  0  0  0
    3.2083   -1.7451   -0.8071 H   0  0  0  0  0  0  0  0  0  0  0  0
    0.5340    0.7241    0.2882 H   0  0  0  0  0  0  0  0  0  0  0  0
    1.0058   -0.2608   -1.1430 H   0  0  0  0  0  0  0  0  0  0  0  0
    0.3020   -2.3168    0.1602 H   0  0  0  0  0  0  0  0  0  0  0  0
   -0.6108   -1.9855    2.2356 H   0  0  0  0  0  0  0  0  0  0  0  0
   -2.0688   -1.9704    0.3017 H   0  0  0  0  0  0  0  0  0  0  0  0
   -1.3948   -1.1846   -1.1889 H   0  0  0  0  0  0  0  0  0  0  0  0
   -3.9286   -0.5971    0.1636 H   0  0  0  0  0  0  0  0  0  0  0  0
   -3.2474    0.2743   -1.2804 H   0  0  0  0  0  0  0  0  0  0  0  0
   -3.7011    1.5438    1.4163 H   0  0  0  0  0  0  0  0  0  0  0  0
   -4.8039    1.7631    0.0004 H   0  0  0  0  0  0  0  0  0  0  0  0
   -3.1505    2.7168   -1.1338 H   0  0  0  0  0  0  0  0  0  0  0  0
  1  2  1  0
  2  3  1  0
  3  4  1  0
  3  5  1  0
  5  6  1  0
  6  7  1  0
  6  8  1  0
  8  9  1  0
  9 10  1  0
 10 11  1  0
 11 12  1  0
  1 13  1  0
  1 14  1  0
  2 15  1  0
  2 16  1  0
  3 17  1  1
  4 18  1  0
  4 19  1  0
  5 20  1  0
  5 21  1  0
  6 22  1  1
  7 23  1  0
  8 24  1  0
  8 25  1  0
 10 26  1  0
 10 27  1  0
 11 28  1  0
 11 29  1  0
 12 30  1  0
M  END
$$$$
