
     RDKit          3D

 26 26  0  0  0  0  0  0  0  0999 V2000
    2.6261   -0.3769    0.6104 C   0  0  0  0  0  0  0  0  0  0  0  0
    1.8162    0.4958   -0.3200 C   0  0  1  0  0  0  0  0  0  0  0  0
    1.9009    0.0202   -1.6218 O   0  0  0  0  0  0  0  0  0  0  0  0
    0.3786    0.5705    0.1431 C   0  0  1  0  0  0  0  0  0  0  0  0
   -0.4214    1.4386   -0.7836 C   0  0  0  0  0  0  0  0  0  0  0  0
   -1.8128    1.3459   -0.6846 N   0  0  0  0  0  0  0  0  0  0  0  0
   -2.3688    0.0462   -0.4653 C   0  0  0  0  0  0  0  0  0  0  0  0
   -1.6544   -0.5840    0.7003 C   0  0  1  0  0  0  0  0  0  0  0  0
   -2.2331   -1.7655    1.1171 O   0  0  0  0  0  0  0  0  0  0  0  0
   -0.2192   -0.8021    0.1963 C   0  0  2  0  0  0  0  0  0  0  0  0
    0.4608   -1.6974    0.9759 O   0  0  0  0  0  0  0  0  0  0  0  0
    2.6650   -1.4268    0.2516 H   0  0  0  0  0  0  0  0  0  0  0  0
    3.6759    0.0287    0.7029 H   0  0  0  0  0  0  0  0  0  0  0  0
    2.2238   -0.3228    1.6527 H   0  0  0  0  0  0  0  0  0  0  0  0
    2.2414    1.5267   -0.2656 H   0  0  0  0  0  0  0  0  0  0  0  0
    1.8891    0.8269   -2.2193 H   0  0  0  0  0  0  0  0  0  0  0  0
    0.3514    1.0206    1.1565 H   0  0  0  0  0  0  0  0  0  0  0  0
   -0.1025    2.4912   -0.6074 H   0  0  0  0  0  0  0  0  0  0  0  0
   -0.1115    1.2165   -1.8398 H   0  0  0  0  0  0  0  0  0  0  0  0
   -2.3047    2.1117   -0.1866 H   0  0  0  0  0  0  0  0  0  0  0  0
   -3.4415    0.1546   -0.2373 H   0  0  0  0  0  0  0  0  0  0  0  0
   -2.2366   -0.5358   -1.4099 H   0  0  0  0  0  0  0  0  0  0  0  0
   -1.6417    0.1709    1.5179 H   0  0  0  0  0  0  0  0  0  0  0  0
   -1.6805   -2.1249    1.8477 H   0  0  0  0  0  0  0  0  0  0  0  0
   -0.3031   -1.2185   -0.8459 H   0  0  0  0  0  0  0  0  0  0  0  0
    0.3026   -2.6105    0.6147 H   0  0  0  0  0  0  0  0  0  0  0  0
  1  2  1  0
  2  3  1  0
  2  4  1  0
  4  5  1  0
  5  6  1  0
  6  7  1  0
  7  8  1  0
  8  9  1  0
  8 10  1  0
 10 11  1  0
 10  4  1  0
  1 12  1  0
  1 13  1  0
  1 14  1  0
  2 15  1  6
  3 16  1  0
  4 17  1  1
  5 18  1  0
  5 19  1  0
  6 20  1  0
  7 21  1  0
  7 22  1  0
  8 23  1  1
  9 24  1  0
 10 25  1  6
 11 26  1  0
M  END
$$$$

     RDKit          3D

 26 26  0  0  0  0  0  0  0  0999 V2000
    2.7790   -0.3280    0.5960 C   0  0  0  0  0  0  0  0  0  0  0  0
    1.5520    0.5429    0.5477 C   0  0  1  0  0  0  0  0  0  0  0  0
    1.9322    1.7962    0.0765 O   0  0  0  0  0  0  0  0  0  0  0  0
    0.5129   -0.0263   -0.4291 C   0  0  1  0  0  0  0  0  0  0  0  0
    0.1167   -1.3939    0.0176 C   0  0  0  0  0  0  0  0  0  0  0  0
   -1.2818   -1.6874   -0.3274 N   0  0  0  0  0  0  0  0  0  0  0  0
   -2.0269   -0.7565    0.5305 C   0  0  0  0  0  0  0  0  0  0  0  0
   -1.9158    0.5917   -0.1175 C   0  0  1  0  0  0  0  0  0  0  0  0
   -2.3502    1.5352    0.8439 O   0  0  0  0  0  0  0  0  0  0  0  0
   -0.5861    0.9262   -0.6574 C   0  0  2  0  0  0  0  0  0  0  0  0
   -0.7294    1.1935   -2.0403 O   0  0  0  0  0  0  0  0  0  0  0  0
    2.6701   -1.2161    1.2354 H   0  0  0  0  0  0  0  0  0  0  0  0
    3.6110    0.2776    0.9919 H   0  0  0  0  0  0  0  0  0  0  0  0
    3.0720   -0.6701   -0.4358 H   0  0  0  0  0  0  0  0  0  0  0  0
    1.1455    0.6306    1.5670 H   0  0  0  0  0  0  0  0  0  0  0  0
    2.6257    1.6879   -0.6290 H   0  0  0  0  0  0  0  0  0  0  0  0
    1.0930   -0.1658   -1.3900 H   0  0  0  0  0  0  0  0  0  0  0  0
    0.1501   -1.4978    1.1410 H   0  0  0  0  0  0  0  0  0  0  0  0
    0.7265   -2.2081   -0.4180 H   0  0  0  0  0  0  0  0  0  0  0  0
   -1.4796   -2.6495    0.0383 H   0  0  0  0  0  0  0  0  0  0  0  0
   -3.0809   -1.1027    0.5059 H   0  0  0  0  0  0  0  0  0  0  0  0
   -1.6171   -0.7460    1.5623 H   0  0  0  0  0  0  0  0  0  0  0  0
   -2.7242    0.6201   -0.9073 H   0  0  0  0  0  0  0  0  0  0  0  0
   -2.6989    2.3110    0.3343 H   0  0  0  0  0  0  0  0  0  0  0  0
   -0.2776    1.9247   -0.2262 H   0  0  0  0  0  0  0  0  0  0  0  0
   -1.2185    0.4105   -2.4104 H   0  0  0  0  0  0  0  0  0  0  0  0
  1  2  1  0
  2  3  1  0
  2  4  1  0
  4  5  1  0
  5  6  1  0
  6  7  1  0
  7  8  1  0
  8  9  1  0
  8 10  1  0
 10 11  1  0
 10  4  1  0
  1 12  1  0
  1 13  1  0
  1 14  1  0
  2 15  1  1
  3 16  1  0
  4 17  1  6
  5 18  1  0
  5 19  1  0
  6 20  1  0
  7 21  1  0
  7 22  1  0
  8 23  1  6
  9 24  1  0
 10 25  1  1
 11 26  1  0
M  END
$$$$

     RDKit          3D

 26 26  0  0  0  0  0  0  0  0999 V2000
   -2.3954   -1.2862   -0.4725 C   0  0  0  0  0  0  0  0  0  0  0  0
   -1.9630    0.1500   -0.4161 C   0  0  1  0  0  0  0  0  0  0  0  0
   -2.3707    0.7900    0.7342 O   0  0  0  0  0  0  0  0  0  0  0  0
   -0.4698    0.2315   -0.5212 C   0  0  1  0  0  0  0  0  0  0  0  0
   -0.0164    1.6868   -0.4651 C   0  0  0  0  0  0  0  0  0  0  0  0
    1.4014    1.7432   -0.7725 N   0  0  0  0  0  0  0  0  0  0  0  0
    2.1525    0.9795    0.1840 C   0  0  0  0  0  0  0  0  0  0  0  0
    1.7432   -0.4720    0.1959 C   0  0  1  0  0  0  0  0  0  0  0  0
    2.4838   -1.1811    1.1034 O   0  0  0  0  0  0  0  0  0  0  0  0
    0.2538   -0.5014    0.5618 C   0  0  2  0  0  0  0  0  0  0  0  0
   -0.1620   -1.7938    0.7590 O   0  0  0  0  0  0  0  0  0  0  0  0
   -2.4869   -1.6706    0.5472 H   0  0  0  0  0  0  0  0  0  0  0  0
   -1.6672   -1.9359   -1.0247 H   0  0  0  0  0  0  0  0  0  0  0  0
   -3.3489   -1.3768   -1.0458 H   0  0  0  0  0  0  0  0  0  0  0  0
   -2.3846    0.6745   -1.3044 H   0  0  0  0  0  0  0  0  0  0  0  0
   -2.0688    0.2396    1.5022 H   0  0  0  0  0  0  0  0  0  0  0  0
   -0.1388   -0.1639   -1.4992 H   0  0  0  0  0  0  0  0  0  0  0  0
   -0.5892    2.3299   -1.1326 H   0  0  0  0  0  0  0  0  0  0  0  0
   -0.1474    2.0351    0.5728 H   0  0  0  0  0  0  0  0  0  0  0  0
    1.6080    1.4397   -1.7488 H   0  0  0  0  0  0  0  0  0  0  0  0
    3.2337    1.0789   -0.0213 H   0  0  0  0  0  0  0  0  0  0  0  0
    1.9806    1.4059    1.1916 H   0  0  0  0  0  0  0  0  0  0  0  0
    1.8850   -0.9194   -0.8142 H   0  0  0  0  0  0  0  0  0  0  0  0
    3.3131   -1.5449    0.6827 H   0  0  0  0  0  0  0  0  0  0  0  0
    0.1800    0.1154    1.4980 H   0  0  0  0  0  0  0  0  0  0  0  0
   -0.0259   -2.0539    1.7057 H   0  0  0  0  0  0  0  0  0  0  0  0
  1  2  1  0
  2  3  1  0
  2  4  1  0
  4  5  1  0
  5  6  1  0
  6  7  1  0
  7  8  1  0
  8  9  1  0
  8 10  1  0
 10 11  1  0
 10  4  1  0
  1 12  1  0
  1 13  1  0
  1 14  1  0
  2 15  1  6
  3 16  1  0
  4 17  1  6
  5 18  1  0
  5 19  1  0
  6 20  1  0
  7 21  1  0
  7 22  1  0
  8 23  1  6
  9 24  1  0
 10 25  1  1
 11 26  1  0
M  END
$$$$

     RDKit          3D

 26 26  0  0  0  0  0  0  0  0999 V2000
    2.8514    0.3833    0.4061 C   0  0  0  0  0  0  0  0  0  0  0  0
    1.7485   -0.1596   -0.4613 C   0  0  1  0  0  0  0  0  0  0  0  0
    2.0609   -1.4540   -0.8177 O   0  0  0  0  0  0  0  0  0  0  0  0
    0.4330   -0.0945    0.2973 C   0  0  1  0  0  0  0  0  0  0  0  0
    0.0938    1.3149    0.6772 C   0  0  0  0  0  0  0  0  0  0  0  0
   -1.2124    1.7211    0.2018 N   0  0  0  0  0  0  0  0  0  0  0  0
   -2.2280    0.8226    0.6560 C   0  0  0  0  0  0  0  0  0  0  0  0
   -1.9401   -0.6258    0.3486 C   0  0  1  0  0  0  0  0  0  0  0  0
   -3.0145   -1.2859   -0.2228 O   0  0  0  0  0  0  0  0  0  0  0  0
   -0.6876   -0.7018   -0.5054 C   0  0  2  0  0  0  0  0  0  0  0  0
   -0.4194   -2.0621   -0.7439 O   0  0  0  0  0  0  0  0  0  0  0  0
    3.8245    0.0621   -0.0269 H   0  0  0  0  0  0  0  0  0  0  0  0
    2.7149   -0.0224    1.4364 H   0  0  0  0  0  0  0  0  0  0  0  0
    2.7604    1.4696    0.4631 H   0  0  0  0  0  0  0  0  0  0  0  0
    1.6469    0.4780   -1.3570 H   0  0  0  0  0  0  0  0  0  0  0  0
    2.5020   -1.4472   -1.7127 H   0  0  0  0  0  0  0  0  0  0  0  0
    0.5494   -0.7224    1.2176 H   0  0  0  0  0  0  0  0  0  0  0  0
    0.0650    1.4121    1.7932 H   0  0  0  0  0  0  0  0  0  0  0  0
    0.8154    2.0671    0.3165 H   0  0  0  0  0  0  0  0  0  0  0  0
   -1.2367    1.9031   -0.8242 H   0  0  0  0  0  0  0  0  0  0  0  0
   -2.3651    0.9952    1.7528 H   0  0  0  0  0  0  0  0  0  0  0  0
   -3.1912    1.0707    0.1432 H   0  0  0  0  0  0  0  0  0  0  0  0
   -1.6838   -1.1104    1.3196 H   0  0  0  0  0  0  0  0  0  0  0  0
   -2.8068   -1.4911   -1.1803 H   0  0  0  0  0  0  0  0  0  0  0  0
   -0.8181   -0.2311   -1.4863 H   0  0  0  0  0  0  0  0  0  0  0  0
   -0.4622   -2.2917   -1.6909 H   0  0  0  0  0  0  0  0  0  0  0  0
  1  2  1  0
  2  3  1  0
  2  4  1  0
  4  5  1  0
  5  6  1  0
  6  7  1  0
  7  8  1  0
  8  9  1  0
  8 10  1  0
 10 11  1  0
 10  4  1  0
  1 12  1  0
  1 13  1  0
  1 14  1  0
  2 15  1  6
  3 16  1  0
  4 17  1  1
  5 18  1  0
  5 19  1  0
  6 20  1  0
  7 21  1  0
  7 22  1  0
  8 23  1  1
  9 24  1  0
 10 25  1  6
 11 26  1  0
M  END
$$$$

     RDKit          3D

 26 26  0  0  0  0  0  0  0  0999 V2000
    2.4558    0.9468   -0.1757 C   0  0  0  0  0  0  0  0  0  0  0  0
    1.8316   -0.4292   -0.2269 C   0  0  1  0  0  0  0  0  0  0  0  0
    2.0758   -1.0272    1.0125 O   0  0  0  0  0  0  0  0  0  0  0  0
    0.3615   -0.3096   -0.5091 C   0  0  1  0  0  0  0  0  0  0  0  0
   -0.3295   -1.6545   -0.5768 C   0  0  0  0  0  0  0  0  0  0  0  0
   -1.6965   -1.6157   -0.2074 N   0  0  0  0  0  0  0  0  0  0  0  0
   -2.3998   -0.4149   -0.4641 C   0  0  0  0  0  0  0  0  0  0  0  0
   -1.7001    0.8441   -0.0935 C   0  0  1  0  0  0  0  0  0  0  0  0
   -2.4403    1.6984    0.7024 O   0  0  0  0  0  0  0  0  0  0  0  0
   -0.3717    0.4680    0.5622 C   0  0  2  0  0  0  0  0  0  0  0  0
    0.2991    1.5464    1.0571 O   0  0  0  0  0  0  0  0  0  0  0  0
    3.4332    0.9637   -0.7423 H   0  0  0  0  0  0  0  0  0  0  0  0
    1.8204    1.6855   -0.7062 H   0  0  0  0  0  0  0  0  0  0  0  0
    2.6118    1.3161    0.8554 H   0  0  0  0  0  0  0  0  0  0  0  0
    2.3274   -1.0545   -0.9864 H   0  0  0  0  0  0  0  0  0  0  0  0
    3.0647   -0.8963    1.1722 H   0  0  0  0  0  0  0  0  0  0  0  0
    0.2414    0.1669   -1.5030 H   0  0  0  0  0  0  0  0  0  0  0  0
    0.2063   -2.3109    0.1699 H   0  0  0  0  0  0  0  0  0  0  0  0
   -0.1245   -2.1200   -1.5643 H   0  0  0  0  0  0  0  0  0  0  0  0
   -1.9388   -2.1009    0.6803 H   0  0  0  0  0  0  0  0  0  0  0  0
   -2.6991   -0.4089   -1.5444 H   0  0  0  0  0  0  0  0  0  0  0  0
   -3.3647   -0.4471    0.1058 H   0  0  0  0  0  0  0  0  0  0  0  0
   -1.4307    1.3829   -1.0283 H   0  0  0  0  0  0  0  0  0  0  0  0
   -2.0734    2.6216    0.5907 H   0  0  0  0  0  0  0  0  0  0  0  0
   -0.6581   -0.2414    1.3929 H   0  0  0  0  0  0  0  0  0  0  0  0
    0.4982    1.3906    2.0266 H   0  0  0  0  0  0  0  0  0  0  0  0
  1  2  1  0
  2  3  1  0
  2  4  1  0
  4  5  1  0
  5  6  1  0
  6  7  1  0
  7  8  1  0
  8  9  1  0
  8 10  1  0
 10 11  1  0
 10  4  1  0
  1 12  1  0
  1 13  1  0
  1 14  1  0
  2 15  1  6
  3 16  1  0
  4 17  1  6
  5 18  1  0
  5 19  1  0
  6 20  1  0
  7 21  1  0
  7 22  1  0
  8 23  1  6
  9 24  1  0
 10 25  1  1
 11 26  1  0
M  END
$$$$

     RDKit          3D

 26 26  0  0  0  0  0  0  0  0999 V2000
    2.0350    1.0607   -0.0375 C   0  0  0  0  0  0  0  0  0  0  0  0
    1.8639   -0.4325    0.0000 C   0  0  1  0  0  0  0  0  0  0  0  0
    2.5325   -0.8945    1.1450 O   0  0  0  0  0  0  0  0  0  0  0  0
    0.3914   -0.8208    0.2036 C   0  0  1  0  0  0  0  0  0  0  0  0
   -0.0545   -0.2449    1.4846 C   0  0  0  0  0  0  0  0  0  0  0  0
   -1.3721    0.2460    1.5603 N   0  0  0  0  0  0  0  0  0  0  0  0
   -1.8984    0.9082    0.4399 C   0  0  0  0  0  0  0  0  0  0  0  0
   -1.7191    0.1031   -0.8049 C   0  0  1  0  0  0  0  0  0  0  0  0
   -2.0395    0.9462   -1.8934 O   0  0  0  0  0  0  0  0  0  0  0  0
   -0.3647   -0.4543   -1.0085 C   0  0  2  0  0  0  0  0  0  0  0  0
   -0.5156   -1.5644   -1.8755 O   0  0  0  0  0  0  0  0  0  0  0  0
    2.5035    1.3625   -1.0176 H   0  0  0  0  0  0  0  0  0  0  0  0
    2.7356    1.4408    0.7373 H   0  0  0  0  0  0  0  0  0  0  0  0
    1.0649    1.5965    0.0313 H   0  0  0  0  0  0  0  0  0  0  0  0
    2.2669   -0.8933   -0.9178 H   0  0  0  0  0  0  0  0  0  0  0  0
    2.8996   -1.7876    0.9410 H   0  0  0  0  0  0  0  0  0  0  0  0
    0.4210   -1.9500    0.2634 H   0  0  0  0  0  0  0  0  0  0  0  0
    0.6434    0.5746    1.8306 H   0  0  0  0  0  0  0  0  0  0  0  0
    0.0569   -1.0319    2.2898 H   0  0  0  0  0  0  0  0  0  0  0  0
   -2.0280   -0.2499    2.1715 H   0  0  0  0  0  0  0  0  0  0  0  0
   -3.0051    1.0363    0.5908 H   0  0  0  0  0  0  0  0  0  0  0  0
   -1.5110    1.9532    0.3318 H   0  0  0  0  0  0  0  0  0  0  0  0
   -2.4991   -0.6956   -0.8228 H   0  0  0  0  0  0  0  0  0  0  0  0
   -2.9508    1.3333   -1.7338 H   0  0  0  0  0  0  0  0  0  0  0  0
    0.2217    0.2892   -1.6240 H   0  0  0  0  0  0  0  0  0  0  0  0
    0.3216   -1.8308   -2.2851 H   0  0  0  0  0  0  0  0  0  0  0  0
  1  2  1  0
  2  3  1  0
  2  4  1  0
  4  5  1  0
  5  6  1  0
  6  7  1  0
  7  8  1  0
  8  9  1  0
  8 10  1  0
 10 11  1  0
 10  4  1  0
  1 12  1  0
  1 13  1  0
  1 14  1  0
  2 15  1  6
  3 16  1  0
  4 17  1  1
  5 18  1  0
  5 19  1  0
  6 20  1  0
  7 21  1  0
  7 22  1  0
  8 23  1  1
  9 24  1  0
 10 25  1  6
 11 26  1  0
M  END
$$$$

     RDKit          3D

 26 26  0  0  0  0  0  0  0  0999 V2000
    2.4806    0.5068    0.7588 C   0  0  0  0  0  0  0  0  0  0  0  0
    1.8561    0.2008   -0.5632 C   0  0  1  0  0  0  0  0  0  0  0  0
    2.5243   -0.8364   -1.2126 O   0  0  0  0  0  0  0  0  0  0  0  0
    0.4085   -0.1496   -0.5032 C   0  0  1  0  0  0  0  0  0  0  0  0
    0.0986   -1.3539    0.3293 C   0  0  0  0  0  0  0  0  0  0  0  0
   -1.2213   -1.7852    0.0795 N   0  0  0  0  0  0  0  0  0  0  0  0
   -2.2364   -0.8378   -0.0704 C   0  0  0  0  0  0  0  0  0  0  0  0
   -1.8787    0.5582   -0.3815 C   0  0  1  0  0  0  0  0  0  0  0  0
   -2.8173    1.4744    0.1307 O   0  0  0  0  0  0  0  0  0  0  0  0
   -0.4715    0.9491    0.0254 C   0  0  2  0  0  0  0  0  0  0  0  0
   -0.1645    2.1930   -0.4790 O   0  0  0  0  0  0  0  0  0  0  0  0
    2.0920    1.4700    1.1393 H   0  0  0  0  0  0  0  0  0  0  0  0
    3.5698    0.6448    0.5939 H   0  0  0  0  0  0  0  0  0  0  0  0
    2.3818   -0.3256    1.4851 H   0  0  0  0  0  0  0  0  0  0  0  0
    1.9613    1.0994   -1.2062 H   0  0  0  0  0  0  0  0  0  0  0  0
    3.1603   -1.3101   -0.6356 H   0  0  0  0  0  0  0  0  0  0  0  0
    0.0805   -0.3719   -1.5435 H   0  0  0  0  0  0  0  0  0  0  0  0
    0.2126   -1.1570    1.4270 H   0  0  0  0  0  0  0  0  0  0  0  0
    0.8096   -2.1811    0.0932 H   0  0  0  0  0  0  0  0  0  0  0  0
   -1.3211   -2.6758   -0.4335 H   0  0  0  0  0  0  0  0  0  0  0  0
   -2.9516   -1.1978   -0.8689 H   0  0  0  0  0  0  0  0  0  0  0  0
   -2.8721   -0.8339    0.8634 H   0  0  0  0  0  0  0  0  0  0  0  0
   -1.9151    0.7103   -1.4990 H   0  0  0  0  0  0  0  0  0  0  0  0
   -2.8539    1.4250    1.1298 H   0  0  0  0  0  0  0  0  0  0  0  0
   -0.4542    0.9187    1.1494 H   0  0  0  0  0  0  0  0  0  0  0  0
   -0.4784    2.8653    0.1918 H   0  0  0  0  0  0  0  0  0  0  0  0
  1  2  1  0
  2  3  1  0
  2  4  1  0
  4  5  1  0
  5  6  1  0
  6  7  1  0
  7  8  1  0
  8  9  1  0
  8 10  1  0
 10 11  1  0
 10  4  1  0
  1 12  1  0
  1 13  1  0
  1 14  1  0
  2 15  1  6
  3 16  1  0
  4 17  1  6
  5 18  1  0
  5 19  1  0
  6 20  1  0
  7 21  1  0
  7 22  1  0
  8 23  1  6
  9 24  1  0
 10 25  1  1
 11 26  1  0
M  END
$$$$

     RDKit          3D

 26 26  0  0  0  0  0  0  0  0999 V2000
   -2.2291    0.2138    0.9453 C   0  0  0  0  0  0  0  0  0  0  0  0
   -1.7698   -0.0392   -0.4533 C   0  0  1  0  0  0  0  0  0  0  0  0
   -2.5218    0.7601   -1.3143 O   0  0  0  0  0  0  0  0  0  0  0  0
   -0.2936    0.1454   -0.6498 C   0  0  1  0  0  0  0  0  0  0  0  0
    0.2030    1.5140   -0.3385 C   0  0  0  0  0  0  0  0  0  0  0  0
    1.4897    1.5291    0.3242 N   0  0  0  0  0  0  0  0  0  0  0  0
    2.3479    0.5791   -0.3821 C   0  0  0  0  0  0  0  0  0  0  0  0
    1.9188   -0.7886    0.0894 C   0  0  1  0  0  0  0  0  0  0  0  0
    2.3406   -0.9095    1.4259 O   0  0  0  0  0  0  0  0  0  0  0  0
    0.4248   -0.9569    0.0764 C   0  0  2  0  0  0  0  0  0  0  0  0
    0.1648   -2.1574   -0.6105 O   0  0  0  0  0  0  0  0  0  0  0  0
   -1.8667   -0.5340    1.6800 H   0  0  0  0  0  0  0  0  0  0  0  0
   -1.9873    1.2153    1.3286 H   0  0  0  0  0  0  0  0  0  0  0  0
   -3.3382    0.1328    0.9528 H   0  0  0  0  0  0  0  0  0  0  0  0
   -2.0023   -1.0997   -0.6963 H   0  0  0  0  0  0  0  0  0  0  0  0
   -3.3612    0.3101   -1.5894 H   0  0  0  0  0  0  0  0  0  0  0  0
   -0.1032   -0.0310   -1.7494 H   0  0  0  0  0  0  0  0  0  0  0  0
   -0.4826    2.1201    0.2909 H   0  0  0  0  0  0  0  0  0  0  0  0
    0.3411    2.1284   -1.2777 H   0  0  0  0  0  0  0  0  0  0  0  0
    1.4512    1.3102    1.3268 H   0  0  0  0  0  0  0  0  0  0  0  0
    2.2679    0.7104   -1.4664 H   0  0  0  0  0  0  0  0  0  0  0  0
    3.3830    0.7376   -0.0003 H   0  0  0  0  0  0  0  0  0  0  0  0
    2.4484   -1.5429   -0.5183 H   0  0  0  0  0  0  0  0  0  0  0  0
    1.8161   -1.6596    1.8038 H   0  0  0  0  0  0  0  0  0  0  0  0
    0.0057   -1.0880    1.0901 H   0  0  0  0  0  0  0  0  0  0  0  0
   -0.6470   -2.5994   -0.2878 H   0  0  0  0  0  0  0  0  0  0  0  0
  1  2  1  0
  2  3  1  0
  2  4  1  0
  4  5  1  0
  5  6  1  0
  6  7  1  0
  7  8  1  0
  8  9  1  0
  8 10  1  0
 10 11  1  0
 10  4  1  0
  1 12  1  0
  1 13  1  0
  1 14  1  0
  2 15  1  6
  3 16  1  0
  4 17  1  6
  5 18  1  0
  5 19  1  0
  6 20  1  0
  7 21  1  0
  7 22  1  0
  8 23  1  6
  9 24  1  0
 10 25  1  1
 11 26  1  0
M  END
$$$$
