
     RDKit          3D

 26 26  0  0  0  0  0  0  0  0999 V2000
    4.6246    1.5440   -0.3746 N   0  0  0  0  0  0  0  0  0  0  0  0
    3.4135    1.0370   -0.6238 O   0  0  0  0  0  0  0  0  0  0  0  0
    3.3695   -0.3466   -0.3901 C   0  0  0  0  0  0  0  0  0  0  0  0
    1.9828   -0.8698   -0.6855 C   0  0  0  0  0  0  0  0  0  0  0  0
    1.0158   -0.2175    0.1646 N   0  0  0  0  0  0  0  0  0  0  0  0
   -0.3826   -0.5322    0.0879 C   0  0  0  0  0  0  0  0  0  0  0  0
   -0.6814   -1.4029   -0.7627 O   0  0  0  0  0  0  0  0  0  0  0  0
   -1.2962    0.1646    0.9747 C   0  0  2  0  0  0  0  0  0  0  0  0
   -2.2780   -0.8212    1.6823 C   0  0  0  0  0  0  0  0  0  0  0  0
   -2.7481    0.3083    0.8047 C   0  0  2  0  0  0  0  0  0  0  0  0
   -3.4954    0.0567   -0.4199 C   0  0  0  0  0  0  0  0  0  0  0  0
   -4.6466    0.8126   -0.7801 N   0  0  0  0  0  0  0  0  0  0  0  0
   -3.1528   -0.8442   -1.2150 O   0  0  0  0  0  0  0  0  0  0  0  0
    4.9639    2.0855   -1.1969 H   0  0  0  0  0  0  0  0  0  0  0  0
    5.3326    0.7927   -0.1956 H   0  0  0  0  0  0  0  0  0  0  0  0
    4.1312   -0.8892   -0.9768 H   0  0  0  0  0  0  0  0  0  0  0  0
    3.6098   -0.4833    0.6920 H   0  0  0  0  0  0  0  0  0  0  0  0
    2.0033   -1.9637   -0.4752 H   0  0  0  0  0  0  0  0  0  0  0  0
    1.7451   -0.6361   -1.7327 H   0  0  0  0  0  0  0  0  0  0  0  0
    1.3693    0.4953    0.8416 H   0  0  0  0  0  0  0  0  0  0  0  0
   -0.7928    0.8985    1.6786 H   0  0  0  0  0  0  0  0  0  0  0  0
   -2.4131   -1.8124    1.2461 H   0  0  0  0  0  0  0  0  0  0  0  0
   -2.3057   -0.7411    2.7814 H   0  0  0  0  0  0  0  0  0  0  0  0
   -3.1915    1.1474    1.4365 H   0  0  0  0  0  0  0  0  0  0  0  0
   -5.1632    1.3327   -0.0220 H   0  0  0  0  0  0  0  0  0  0  0  0
   -5.0138    0.8849   -1.7529 H   0  0  0  0  0  0  0  0  0  0  0  0
  1  2  1  0
  2  3  1  0
  3  4  1  0
  4  5  1  0
  5  6  1  0
  6  7  2  0
  6  8  1  0
  8  9  1  0
  9 10  1  0
 10 11  1  0
 11 12  1  0
 11 13  2  0
 10  8  1  0
  1 14  1  0
  1 15  1  0
  3 16  1  0
  3 17  1  0
  4 18  1  0
  4 19  1  0
  5 20  1  0
  8 21  1  1
  9 22  1  0
  9 23  1  0
 10 24  1  1
 12 25  1  0
 12 26  1  0
M  END
$$$$

     RDKit          3D

 26 26  0  0  0  0  0  0  0  0999 V2000
   -2.2395   -2.9438   -1.9752 N   0  0  0  0  0  0  0  0  0  0  0  0
   -1.8707   -1.6666   -1.7954 O   0  0  0  0  0  0  0  0  0  0  0  0
   -2.3458   -1.1483   -0.5917 C   0  0  0  0  0  0  0  0  0  0  0  0
   -1.9175    0.2712   -0.4250 C   0  0  0  0  0  0  0  0  0  0  0  0
   -0.4579    0.3986   -0.4211 N   0  0  0  0  0  0  0  0  0  0  0  0
    0.1939    1.6374   -0.2779 C   0  0  0  0  0  0  0  0  0  0  0  0
   -0.5744    2.6517   -0.1705 O   0  0  0  0  0  0  0  0  0  0  0  0
    1.6462    1.8635   -0.2499 C   0  0  2  0  0  0  0  0  0  0  0  0
    2.6162    0.7819   -0.5592 C   0  0  0  0  0  0  0  0  0  0  0  0
    2.5209    1.3394    0.8404 C   0  0  2  0  0  0  0  0  0  0  0  0
    2.0580    0.5193    1.9426 C   0  0  0  0  0  0  0  0  0  0  0  0
    0.9669   -0.3712    1.8830 N   0  0  0  0  0  0  0  0  0  0  0  0
    2.6551    0.5686    3.0941 O   0  0  0  0  0  0  0  0  0  0  0  0
   -2.9563   -3.2164   -1.2553 H   0  0  0  0  0  0  0  0  0  0  0  0
   -2.6251   -3.1354   -2.9199 H   0  0  0  0  0  0  0  0  0  0  0  0
   -3.4506   -1.1748   -0.5571 H   0  0  0  0  0  0  0  0  0  0  0  0
   -1.9317   -1.7438    0.2530 H   0  0  0  0  0  0  0  0  0  0  0  0
   -2.3251    0.9501   -1.1778 H   0  0  0  0  0  0  0  0  0  0  0  0
   -2.2682    0.6004    0.5959 H   0  0  0  0  0  0  0  0  0  0  0  0
    0.0893   -0.4693   -0.5657 H   0  0  0  0  0  0  0  0  0  0  0  0
    1.9623    2.9323   -0.5255 H   0  0  0  0  0  0  0  0  0  0  0  0
    3.5395    0.9912   -1.1351 H   0  0  0  0  0  0  0  0  0  0  0  0
    2.1791   -0.2260   -0.7217 H   0  0  0  0  0  0  0  0  0  0  0  0
    3.4269    2.0078    1.1142 H   0  0  0  0  0  0  0  0  0  0  0  0
    0.0319   -0.1083    2.2790 H   0  0  0  0  0  0  0  0  0  0  0  0
    1.0765   -1.3096    1.4430 H   0  0  0  0  0  0  0  0  0  0  0  0
  1  2  1  0
  2  3  1  0
  3  4  1  0
  4  5  1  0
  5  6  1  0
  6  7  2  0
  6  8  1  0
  8  9  1  0
  9 10  1  0
 10 11  1  0
 11 12  1  0
 11 13  2  0
 10  8  1  0
  1 14  1  0
  1 15  1  0
  3 16  1  0
  3 17  1  0
  4 18  1  0
  4 19  1  0
  5 20  1  0
  8 21  1  6
  9 22  1  0
  9 23  1  0
 10 24  1  1
 12 25  1  0
 12 26  1  0
M  END
$$$$

     RDKit          3D

 26 26  0  0  0  0  0  0  0  0999 V2000
    5.4436   -0.6748    0.4113 N   0  0  0  0  0  0  0  0  0  0  0  0
    4.3672   -0.0958    0.9646 O   0  0  0  0  0  0  0  0  0  0  0  0
    3.2722   -0.3630    0.1653 C   0  0  0  0  0  0  0  0  0  0  0  0
    1.9971    0.2490    0.7031 C   0  0  0  0  0  0  0  0  0  0  0  0
    0.9227   -0.0920   -0.2068 N   0  0  0  0  0  0  0  0  0  0  0  0
   -0.4307    0.3364    0.0122 C   0  0  0  0  0  0  0  0  0  0  0  0
   -0.6003    1.0255    1.0506 O   0  0  0  0  0  0  0  0  0  0  0  0
   -1.4899   -0.0242   -0.9235 C   0  0  2  0  0  0  0  0  0  0  0  0
   -2.3971    1.1763   -1.2767 C   0  0  0  0  0  0  0  0  0  0  0  0
   -2.9158   -0.1270   -0.6434 C   0  0  2  0  0  0  0  0  0  0  0  0
   -3.5722    0.0819    0.6407 C   0  0  0  0  0  0  0  0  0  0  0  0
   -4.8882   -0.4827    0.8254 N   0  0  0  0  0  0  0  0  0  0  0  0
   -3.1077    0.7051    1.6055 O   0  0  0  0  0  0  0  0  0  0  0  0
    6.1426    0.0070    0.0738 H   0  0  0  0  0  0  0  0  0  0  0  0
    5.8696   -1.4210    1.0014 H   0  0  0  0  0  0  0  0  0  0  0  0
    3.1373   -1.4805    0.1809 H   0  0  0  0  0  0  0  0  0  0  0  0
    3.4714   -0.0578   -0.8634 H   0  0  0  0  0  0  0  0  0  0  0  0
    2.1538    1.3224    0.8146 H   0  0  0  0  0  0  0  0  0  0  0  0
    1.8063   -0.1650    1.7178 H   0  0  0  0  0  0  0  0  0  0  0  0
    1.0924   -0.6649   -1.0602 H   0  0  0  0  0  0  0  0  0  0  0  0
   -1.1253   -0.6352   -1.8043 H   0  0  0  0  0  0  0  0  0  0  0  0
   -2.5481    1.3628   -2.3397 H   0  0  0  0  0  0  0  0  0  0  0  0
   -2.3465    2.0716   -0.6545 H   0  0  0  0  0  0  0  0  0  0  0  0
   -3.5095   -0.7134   -1.3921 H   0  0  0  0  0  0  0  0  0  0  0  0
   -5.0564   -1.3615    1.3577 H   0  0  0  0  0  0  0  0  0  0  0  0
   -5.6883    0.0208    0.4039 H   0  0  0  0  0  0  0  0  0  0  0  0
  1  2  1  0
  2  3  1  0
  3  4  1  0
  4  5  1  0
  5  6  1  0
  6  7  2  0
  6  8  1  0
  8  9  1  0
  9 10  1  0
 10 11  1  0
 11 12  1  0
 11 13  2  0
 10  8  1  0
  1 14  1  0
  1 15  1  0
  3 16  1  0
  3 17  1  0
  4 18  1  0
  4 19  1  0
  5 20  1  0
  8 21  1  6
  9 22  1  0
  9 23  1  0
 10 24  1  6
 12 25  1  0
 12 26  1  0
M  END
$$$$

     RDKit          3D

 26 26  0  0  0  0  0  0  0  0999 V2000
    5.5297    0.2611   -0.0208 N   0  0  0  0  0  0  0  0  0  0  0  0
    4.3011    0.3746   -0.5637 O   0  0  0  0  0  0  0  0  0  0  0  0
    3.3019   -0.0628    0.3102 C   0  0  0  0  0  0  0  0  0  0  0  0
    1.9751    0.1135   -0.4095 C   0  0  0  0  0  0  0  0  0  0  0  0
    0.8700   -0.3158    0.4219 N   0  0  0  0  0  0  0  0  0  0  0  0
   -0.4942   -0.2446   -0.0449 C   0  0  0  0  0  0  0  0  0  0  0  0
   -0.6064    0.2161   -1.2130 O   0  0  0  0  0  0  0  0  0  0  0  0
   -1.5946   -0.6838    0.8121 C   0  0  2  0  0  0  0  0  0  0  0  0
   -2.6970   -1.5549    0.2861 C   0  0  0  0  0  0  0  0  0  0  0  0
   -2.9533   -0.1405    0.8012 C   0  0  2  0  0  0  0  0  0  0  0  0
   -3.4879    0.7791   -0.2127 C   0  0  0  0  0  0  0  0  0  0  0  0
   -4.4927    1.7209    0.1441 N   0  0  0  0  0  0  0  0  0  0  0  0
   -3.1087    0.7907   -1.4032 O   0  0  0  0  0  0  0  0  0  0  0  0
    6.1758    1.0182   -0.3162 H   0  0  0  0  0  0  0  0  0  0  0  0
    5.9591   -0.6627   -0.1222 H   0  0  0  0  0  0  0  0  0  0  0  0
    3.3337    0.5503    1.2320 H   0  0  0  0  0  0  0  0  0  0  0  0
    3.4565   -1.1122    0.5984 H   0  0  0  0  0  0  0  0  0  0  0  0
    1.9454   -0.4990   -1.3278 H   0  0  0  0  0  0  0  0  0  0  0  0
    1.8274    1.1583   -0.7105 H   0  0  0  0  0  0  0  0  0  0  0  0
    1.0909   -0.6801    1.3735 H   0  0  0  0  0  0  0  0  0  0  0  0
   -1.2218   -1.0706    1.8131 H   0  0  0  0  0  0  0  0  0  0  0  0
   -3.1568   -2.3376    0.9038 H   0  0  0  0  0  0  0  0  0  0  0  0
   -2.7618   -1.7249   -0.7981 H   0  0  0  0  0  0  0  0  0  0  0  0
   -3.4231   -0.0468    1.8327 H   0  0  0  0  0  0  0  0  0  0  0  0
   -5.4257    1.4043    0.4833 H   0  0  0  0  0  0  0  0  0  0  0  0
   -4.3427    2.7495    0.0832 H   0  0  0  0  0  0  0  0  0  0  0  0
  1  2  1  0
  2  3  1  0
  3  4  1  0
  4  5  1  0
  5  6  1  0
  6  7  2  0
  6  8  1  0
  8  9  1  0
  9 10  1  0
 10 11  1  0
 11 12  1  0
 11 13  2  0
 10  8  1  0
  1 14  1  0
  1 15  1  0
  3 16  1  0
  3 17  1  0
  4 18  1  0
  4 19  1  0
  5 20  1  0
  8 21  1  1
  9 22  1  0
  9 23  1  0
 10 24  1  1
 12 25  1  0
 12 26  1  0
M  END
$$$$

     RDKit          3D

 26 26  0  0  0  0  0  0  0  0999 V2000
    4.3034    1.7938   -0.0218 N   0  0  0  0  0  0  0  0  0  0  0  0
    4.1455    0.5097    0.3456 O   0  0  0  0  0  0  0  0  0  0  0  0
    3.0841    0.0005   -0.5377 C   0  0  0  0  0  0  0  0  0  0  0  0
    2.0186   -0.3031    0.4380 C   0  0  0  0  0  0  0  0  0  0  0  0
    0.8186   -0.8877   -0.0325 N   0  0  0  0  0  0  0  0  0  0  0  0
   -0.4483   -0.4513    0.4685 C   0  0  0  0  0  0  0  0  0  0  0  0
   -0.4117    0.5575    1.2372 O   0  0  0  0  0  0  0  0  0  0  0  0
   -1.6297   -1.2001    0.0912 C   0  0  2  0  0  0  0  0  0  0  0  0
   -1.9541   -1.4557   -1.3653 C   0  0  0  0  0  0  0  0  0  0  0  0
   -2.9269   -0.7898   -0.3818 C   0  0  2  0  0  0  0  0  0  0  0  0
   -3.3872    0.5255   -0.7756 C   0  0  0  0  0  0  0  0  0  0  0  0
   -3.5538    1.6200    0.1010 N   0  0  0  0  0  0  0  0  0  0  0  0
   -3.6864    0.7228   -1.9685 O   0  0  0  0  0  0  0  0  0  0  0  0
    3.3672    2.2928    0.2889 H   0  0  0  0  0  0  0  0  0  0  0  0
    5.1251    2.3151    0.1639 H   0  0  0  0  0  0  0  0  0  0  0  0
    3.4683   -0.8679   -1.0442 H   0  0  0  0  0  0  0  0  0  0  0  0
    2.7575    0.7957   -1.1800 H   0  0  0  0  0  0  0  0  0  0  0  0
    1.8809    0.5270    1.1708 H   0  0  0  0  0  0  0  0  0  0  0  0
    2.5282   -1.1132    1.1310 H   0  0  0  0  0  0  0  0  0  0  0  0
    0.8668   -1.5939   -0.7774 H   0  0  0  0  0  0  0  0  0  0  0  0
   -1.6044   -2.2536    0.6661 H   0  0  0  0  0  0  0  0  0  0  0  0
   -1.5089   -0.8958   -2.1727 H   0  0  0  0  0  0  0  0  0  0  0  0
   -2.2021   -2.5189   -1.6354 H   0  0  0  0  0  0  0  0  0  0  0  0
   -3.8000   -1.4442   -0.0407 H   0  0  0  0  0  0  0  0  0  0  0  0
   -4.4696    2.1492    0.2092 H   0  0  0  0  0  0  0  0  0  0  0  0
   -2.7812    1.9657    0.6918 H   0  0  0  0  0  0  0  0  0  0  0  0
  1  2  1  0
  2  3  1  0
  3  4  1  0
  4  5  1  0
  5  6  1  0
  6  7  2  0
  6  8  1  0
  8  9  1  0
  9 10  1  0
 10 11  1  0
 11 12  1  0
 11 13  2  0
 10  8  1  0
  1 14  1  0
  1 15  1  0
  3 16  1  0
  3 17  1  0
  4 18  1  0
  4 19  1  0
  5 20  1  0
  8 21  1  1
  9 22  1  0
  9 23  1  0
 10 24  1  1
 12 25  1  0
 12 26  1  0
M  END
$$$$

     RDKit          3D

 26 26  0  0  0  0  0  0  0  0999 V2000
    4.4947   -1.5531    0.7179 N   0  0  0  0  0  0  0  0  0  0  0  0
    3.9226   -0.3486    0.6353 O   0  0  0  0  0  0  0  0  0  0  0  0
    2.5180   -0.4508    0.4948 C   0  0  0  0  0  0  0  0  0  0  0  0
    2.0078    0.9482    0.4145 C   0  0  0  0  0  0  0  0  0  0  0  0
    0.5764    1.0704    0.2674 N   0  0  0  0  0  0  0  0  0  0  0  0
   -0.1455    0.5308   -0.8308 C   0  0  0  0  0  0  0  0  0  0  0  0
    0.6101   -0.0613   -1.6868 O   0  0  0  0  0  0  0  0  0  0  0  0
   -1.5836    0.5899   -1.0640 C   0  0  2  0  0  0  0  0  0  0  0  0
   -2.4778    1.5497   -0.3923 C   0  0  0  0  0  0  0  0  0  0  0  0
   -2.6363    0.0800   -0.1599 C   0  0  2  0  0  0  0  0  0  0  0  0
   -2.4678   -0.4488    1.1693 C   0  0  0  0  0  0  0  0  0  0  0  0
   -3.4809   -1.3345    1.6972 N   0  0  0  0  0  0  0  0  0  0  0  0
   -1.5179   -0.2275    1.9512 O   0  0  0  0  0  0  0  0  0  0  0  0
    5.3767   -1.6459    0.1697 H   0  0  0  0  0  0  0  0  0  0  0  0
    3.8243   -2.3433    0.5601 H   0  0  0  0  0  0  0  0  0  0  0  0
    2.2569   -1.0445   -0.3816 H   0  0  0  0  0  0  0  0  0  0  0  0
    2.1720   -0.9229    1.4482 H   0  0  0  0  0  0  0  0  0  0  0  0
    2.2926    1.4616    1.3547 H   0  0  0  0  0  0  0  0  0  0  0  0
    2.5705    1.4635   -0.3897 H   0  0  0  0  0  0  0  0  0  0  0  0
    0.0233    1.5988    0.9735 H   0  0  0  0  0  0  0  0  0  0  0  0
   -1.8410    0.3333   -2.1504 H   0  0  0  0  0  0  0  0  0  0  0  0
   -3.2302    2.1372   -0.9605 H   0  0  0  0  0  0  0  0  0  0  0  0
   -2.0322    2.1666    0.4305 H   0  0  0  0  0  0  0  0  0  0  0  0
   -3.5929   -0.2939   -0.6793 H   0  0  0  0  0  0  0  0  0  0  0  0
   -3.8267   -1.1438    2.6460 H   0  0  0  0  0  0  0  0  0  0  0  0
   -3.8129   -2.1110    1.1120 H   0  0  0  0  0  0  0  0  0  0  0  0
  1  2  1  0
  2  3  1  0
  3  4  1  0
  4  5  1  0
  5  6  1  0
  6  7  2  0
  6  8  1  0
  8  9  1  0
  9 10  1  0
 10 11  1  0
 11 12  1  0
 11 13  2  0
 10  8  1  0
  1 14  1  0
  1 15  1  0
  3 16  1  0
  3 17  1  0
  4 18  1  0
  4 19  1  0
  5 20  1  0
  8 21  1  6
  9 22  1  0
  9 23  1  0
 10 24  1  6
 12 25  1  0
 12 26  1  0
M  END
$$$$

     RDKit          3D

 26 26  0  0  0  0  0  0  0  0999 V2000
    4.5511   -1.2316   -0.2687 N   0  0  0  0  0  0  0  0  0  0  0  0
    3.2581   -0.9666   -0.6540 O   0  0  0  0  0  0  0  0  0  0  0  0
    2.9158    0.3788   -0.3093 C   0  0  0  0  0  0  0  0  0  0  0  0
    1.8391    0.1960    0.6798 C   0  0  0  0  0  0  0  0  0  0  0  0
    0.5958   -0.4341    0.6175 N   0  0  0  0  0  0  0  0  0  0  0  0
   -0.5830    0.0108   -0.1065 C   0  0  0  0  0  0  0  0  0  0  0  0
   -0.4498    1.0665   -0.7170 O   0  0  0  0  0  0  0  0  0  0  0  0
   -1.7664   -0.8151   -0.0342 C   0  0  2  0  0  0  0  0  0  0  0  0
   -2.5256   -1.2339   -1.2587 C   0  0  0  0  0  0  0  0  0  0  0  0
   -3.1149   -0.2163   -0.3907 C   0  0  2  0  0  0  0  0  0  0  0  0
   -3.0721    1.2157   -0.6842 C   0  0  0  0  0  0  0  0  0  0  0  0
   -2.7224    2.1448    0.3242 N   0  0  0  0  0  0  0  0  0  0  0  0
   -3.3318    1.6857   -1.8089 O   0  0  0  0  0  0  0  0  0  0  0  0
    4.3763   -2.1912    0.3103 H   0  0  0  0  0  0  0  0  0  0  0  0
    4.9235   -0.5829    0.4147 H   0  0  0  0  0  0  0  0  0  0  0  0
    3.7608    0.8501    0.1749 H   0  0  0  0  0  0  0  0  0  0  0  0
    2.6469    0.9995   -1.2142 H   0  0  0  0  0  0  0  0  0  0  0  0
    1.6830    1.2970    1.1002 H   0  0  0  0  0  0  0  0  0  0  0  0
    2.4113   -0.2899    1.5740 H   0  0  0  0  0  0  0  0  0  0  0  0
    0.4529   -1.4165    1.1114 H   0  0  0  0  0  0  0  0  0  0  0  0
   -1.7831   -1.6211    0.8120 H   0  0  0  0  0  0  0  0  0  0  0  0
   -2.9672   -2.2801   -1.1077 H   0  0  0  0  0  0  0  0  0  0  0  0
   -2.0599   -1.1618   -2.2110 H   0  0  0  0  0  0  0  0  0  0  0  0
   -3.8880   -0.4550    0.4114 H   0  0  0  0  0  0  0  0  0  0  0  0
   -2.3983    1.8741    1.2691 H   0  0  0  0  0  0  0  0  0  0  0  0
   -2.7523    3.1773    0.1720 H   0  0  0  0  0  0  0  0  0  0  0  0
  1  2  1  0
  2  3  1  0
  3  4  1  0
  4  5  1  0
  5  6  1  0
  6  7  2  0
  6  8  1  0
  8  9  1  0
  9 10  1  0
 10 11  1  0
 11 12  1  0
 11 13  2  0
 10  8  1  0
  1 14  1  0
  1 15  1  0
  3 16  1  0
  3 17  1  0
  4 18  1  0
  4 19  1  0
  5 20  1  0
  8 21  1  1
  9 22  1  0
  9 23  1  0
 10 24  1  1
 12 25  1  0
 12 26  1  0
M  END
$$$$

     RDKit          3D

 26 26  0  0  0  0  0  0  0  0999 V2000
    5.0998    0.2687    0.7085 N   0  0  0  0  0  0  0  0  0  0  0  0
    3.8586   -0.2119    0.5366 O   0  0  0  0  0  0  0  0  0  0  0  0
    3.3377    0.1230   -0.7184 C   0  0  0  0  0  0  0  0  0  0  0  0
    1.9555   -0.4202   -0.8923 C   0  0  0  0  0  0  0  0  0  0  0  0
    1.0267    0.0874    0.0989 N   0  0  0  0  0  0  0  0  0  0  0  0
   -0.3559   -0.3101    0.1103 C   0  0  0  0  0  0  0  0  0  0  0  0
   -0.6677   -1.1158   -0.7963 O   0  0  0  0  0  0  0  0  0  0  0  0
   -1.3122    0.1962    1.1099 C   0  0  2  0  0  0  0  0  0  0  0  0
   -2.2256   -0.8271    1.7390 C   0  0  0  0  0  0  0  0  0  0  0  0
   -2.7513    0.3398    0.9023 C   0  0  2  0  0  0  0  0  0  0  0  0
   -3.5087   -0.1018   -0.2632 C   0  0  0  0  0  0  0  0  0  0  0  0
   -4.7479    0.5705   -0.5748 N   0  0  0  0  0  0  0  0  0  0  0  0
   -3.2115   -1.0217   -1.0561 O   0  0  0  0  0  0  0  0  0  0  0  0
    5.2083    0.4404    1.7524 H   0  0  0  0  0  0  0  0  0  0  0  0
    5.2748    1.1435    0.1704 H   0  0  0  0  0  0  0  0  0  0  0  0
    3.9899   -0.4052   -1.4602 H   0  0  0  0  0  0  0  0  0  0  0  0
    3.4099    1.2091   -0.8990 H   0  0  0  0  0  0  0  0  0  0  0  0
    2.0203   -1.5309   -0.6939 H   0  0  0  0  0  0  0  0  0  0  0  0
    1.5703   -0.3009   -1.9104 H   0  0  0  0  0  0  0  0  0  0  0  0
    1.3333    0.7505    0.8264 H   0  0  0  0  0  0  0  0  0  0  0  0
   -0.8938    0.9085    1.8959 H   0  0  0  0  0  0  0  0  0  0  0  0
   -2.2467   -1.8413    1.3182 H   0  0  0  0  0  0  0  0  0  0  0  0
   -2.4962   -0.7614    2.8012 H   0  0  0  0  0  0  0  0  0  0  0  0
   -3.2662    1.1810    1.4655 H   0  0  0  0  0  0  0  0  0  0  0  0
   -5.6577    0.0749   -0.4961 H   0  0  0  0  0  0  0  0  0  0  0  0
   -4.7435    1.5551   -0.8806 H   0  0  0  0  0  0  0  0  0  0  0  0
  1  2  1  0
  2  3  1  0
  3  4  1  0
  4  5  1  0
  5  6  1  0
  6  7  2  0
  6  8  1  0
  8  9  1  0
  9 10  1  0
 10 11  1  0
 11 12  1  0
 11 13  2  0
 10  8  1  0
  1 14  1  0
  1 15  1  0
  3 16  1  0
  3 17  1  0
  4 18  1  0
  4 19  1  0
  5 20  1  0
  8 21  1  1
  9 22  1  0
  9 23  1  0
 10 24  1  1
 12 25  1  0
 12 26  1  0
M  END
$$$$
