
     RDKit          3D

 27 28  0  0  0  0  0  0  0  0999 V2000
   -2.4855   -1.8498    0.4534 N   0  0  0  0  0  0  0  0  0  0  0  0
   -2.3517   -0.4104    0.3615 C   0  0  0  0  0  0  0  0  0  0  0  0
   -1.1305    0.1155   -0.2977 C   0  0  0  0  0  0  0  0  0  0  0  0
   -0.9597    1.3482   -0.4064 O   0  0  0  0  0  0  0  0  0  0  0  0
   -0.1157   -0.7380   -0.8271 N   0  0  0  0  0  0  0  0  0  0  0  0
    1.0654   -0.2413   -1.4644 C   0  0  0  0  0  0  0  0  0  0  0  0
    1.9001    0.6315   -0.5521 C   0  0  1  0  0  0  0  0  0  0  0  0
    2.5297   -0.1935    0.5609 C   0  0  0  0  0  0  0  0  0  0  0  0
    3.7510    0.5299    0.8490 N   0  0  0  0  0  0  0  0  0  0  0  0
    4.1200    1.1755   -0.3628 C   0  0  0  0  0  0  0  0  0  0  0  0
    5.2339    1.7355   -0.5692 O   0  0  0  0  0  0  0  0  0  0  0  0
    3.0417    1.0758   -1.2617 O   0  0  0  0  0  0  0  0  0  0  0  0
   -3.0805    0.4835    1.2888 C   0  0  0  0  0  0  0  0  0  0  0  0
   -3.6535    0.3132   -0.0721 C   0  0  0  0  0  0  0  0  0  0  0  0
   -2.6240   -2.2085   -0.5263 H   0  0  0  0  0  0  0  0  0  0  0  0
   -3.3449   -2.0864    0.9742 H   0  0  0  0  0  0  0  0  0  0  0  0
   -0.3001   -1.7711   -0.7140 H   0  0  0  0  0  0  0  0  0  0  0  0
    1.7018   -1.1077   -1.7390 H   0  0  0  0  0  0  0  0  0  0  0  0
    0.8624    0.3039   -2.4054 H   0  0  0  0  0  0  0  0  0  0  0  0
    1.3592    1.4942   -0.1529 H   0  0  0  0  0  0  0  0  0  0  0  0
    2.7750   -1.2109    0.1611 H   0  0  0  0  0  0  0  0  0  0  0  0
    1.8763   -0.2717    1.4411 H   0  0  0  0  0  0  0  0  0  0  0  0
    4.2381    0.5478    1.7867 H   0  0  0  0  0  0  0  0  0  0  0  0
   -2.6058    1.4728    1.5236 H   0  0  0  0  0  0  0  0  0  0  0  0
   -3.6585    0.0796    2.1579 H   0  0  0  0  0  0  0  0  0  0  0  0
   -4.5691   -0.2974   -0.1271 H   0  0  0  0  0  0  0  0  0  0  0  0
   -3.5752    1.0802   -0.8417 H   0  0  0  0  0  0  0  0  0  0  0  0
  1  2  1  0
  2  3  1  0
  3  4  2  0
  3  5  1  0
  5  6  1  0
  6  7  1  0
  7  8  1  0
  8  9  1  0
  9 10  1  0
 10 11  2  0
 10 12  1  0
  2 13  1  0
 13 14  1  0
 14  2  1  0
 12  7  1  0
  1 15  1  0
  1 16  1  0
  5 17  1  0
  6 18  1  0
  6 19  1  0
  7 20  1  1
  8 21  1  0
  8 22  1  0
  9 23  1  0
 13 24  1  0
 13 25  1  0
 14 26  1  0
 14 27  1  0
M  END
$$$$

     RDKit          3D

 27 28  0  0  0  0  0  0  0  0999 V2000
    2.6645   -0.5777   -1.3561 N   0  0  0  0  0  0  0  0  0  0  0  0
    2.5847    0.1280   -0.0978 C   0  0  0  0  0  0  0  0  0  0  0  0
    1.2564    0.1791    0.5737 C   0  0  0  0  0  0  0  0  0  0  0  0
    1.1346    0.7769    1.6633 O   0  0  0  0  0  0  0  0  0  0  0  0
    0.1527   -0.4587   -0.0473 N   0  0  0  0  0  0  0  0  0  0  0  0
   -1.1334   -0.4254    0.5749 C   0  0  0  0  0  0  0  0  0  0  0  0
   -2.1791   -1.1497   -0.2215 C   0  0  1  0  0  0  0  0  0  0  0  0
   -3.5376   -0.7896    0.3522 C   0  0  0  0  0  0  0  0  0  0  0  0
   -3.6372    0.6170   -0.0645 N   0  0  0  0  0  0  0  0  0  0  0  0
   -2.8120    0.7579   -1.2088 C   0  0  0  0  0  0  0  0  0  0  0  0
   -2.6295    1.8434   -1.8428 O   0  0  0  0  0  0  0  0  0  0  0  0
   -2.2517   -0.4981   -1.4974 O   0  0  0  0  0  0  0  0  0  0  0  0
    3.7883    0.2085    0.7310 C   0  0  0  0  0  0  0  0  0  0  0  0
    3.3299    1.4437   -0.0664 C   0  0  0  0  0  0  0  0  0  0  0  0
    2.4407   -1.5930   -1.1992 H   0  0  0  0  0  0  0  0  0  0  0  0
    1.9927   -0.1971   -2.0683 H   0  0  0  0  0  0  0  0  0  0  0  0
    0.2950   -0.9460   -0.9544 H   0  0  0  0  0  0  0  0  0  0  0  0
   -1.1071   -0.8843    1.6062 H   0  0  0  0  0  0  0  0  0  0  0  0
   -1.4740    0.6191    0.7432 H   0  0  0  0  0  0  0  0  0  0  0  0
   -2.0126   -2.2215   -0.3075 H   0  0  0  0  0  0  0  0  0  0  0  0
   -4.3595   -1.3500   -0.1414 H   0  0  0  0  0  0  0  0  0  0  0  0
   -3.5117   -0.8935    1.4390 H   0  0  0  0  0  0  0  0  0  0  0  0
   -4.2243    1.3317    0.4322 H   0  0  0  0  0  0  0  0  0  0  0  0
    3.6386    0.2553    1.8388 H   0  0  0  0  0  0  0  0  0  0  0  0
    4.7658   -0.1862    0.4308 H   0  0  0  0  0  0  0  0  0  0  0  0
    3.9195    1.7271   -0.9536 H   0  0  0  0  0  0  0  0  0  0  0  0
    2.9063    2.2831    0.5299 H   0  0  0  0  0  0  0  0  0  0  0  0
  1  2  1  0
  2  3  1  0
  3  4  2  0
  3  5  1  0
  5  6  1  0
  6  7  1  0
  7  8  1  0
  8  9  1  0
  9 10  1  0
 10 11  2  0
 10 12  1  0
  2 13  1  0
 13 14  1  0
 14  2  1  0
 12  7  1  0
  1 15  1  0
  1 16  1  0
  5 17  1  0
  6 18  1  0
  6 19  1  0
  7 20  1  6
  8 21  1  0
  8 22  1  0
  9 23  1  0
 13 24  1  0
 13 25  1  0
 14 26  1  0
 14 27  1  0
M  END
$$$$

     RDKit          3D

 27 28  0  0  0  0  0  0  0  0999 V2000
   -2.3669    0.1233   -1.6158 N   0  0  0  0  0  0  0  0  0  0  0  0
   -2.5739   -0.3487   -0.2830 C   0  0  0  0  0  0  0  0  0  0  0  0
   -1.3635   -0.5915    0.5438 C   0  0  0  0  0  0  0  0  0  0  0  0
   -1.4350   -1.0069    1.7288 O   0  0  0  0  0  0  0  0  0  0  0  0
   -0.0842   -0.3514   -0.0082 N   0  0  0  0  0  0  0  0  0  0  0  0
    1.1355   -0.5686    0.7461 C   0  0  0  0  0  0  0  0  0  0  0  0
    2.3504   -0.2385   -0.0714 C   0  0  1  0  0  0  0  0  0  0  0  0
    2.4448    1.2453   -0.3770 C   0  0  0  0  0  0  0  0  0  0  0  0
    3.9038    1.4170   -0.4304 N   0  0  0  0  0  0  0  0  0  0  0  0
    4.4973    0.4195    0.3923 C   0  0  0  0  0  0  0  0  0  0  0  0
    5.7059    0.3675    0.7378 O   0  0  0  0  0  0  0  0  0  0  0  0
    3.4931   -0.4776    0.7370 O   0  0  0  0  0  0  0  0  0  0  0  0
   -3.7327   -1.2202    0.0312 C   0  0  0  0  0  0  0  0  0  0  0  0
   -3.7979    0.2223    0.4005 C   0  0  0  0  0  0  0  0  0  0  0  0
   -3.1684    0.6703   -1.9989 H   0  0  0  0  0  0  0  0  0  0  0  0
   -2.0003   -0.5933   -2.2788 H   0  0  0  0  0  0  0  0  0  0  0  0
    0.0050   -0.0067   -0.9883 H   0  0  0  0  0  0  0  0  0  0  0  0
    1.1983   -1.6266    1.0487 H   0  0  0  0  0  0  0  0  0  0  0  0
    1.1189    0.0231    1.6915 H   0  0  0  0  0  0  0  0  0  0  0  0
    2.3463   -0.8088   -1.0006 H   0  0  0  0  0  0  0  0  0  0  0  0
    2.0317    1.5188   -1.3470 H   0  0  0  0  0  0  0  0  0  0  0  0
    2.0860    1.8698    0.4703 H   0  0  0  0  0  0  0  0  0  0  0  0
    4.4521    2.1275   -0.9614 H   0  0  0  0  0  0  0  0  0  0  0  0
   -4.3448   -1.6009   -0.8003 H   0  0  0  0  0  0  0  0  0  0  0  0
   -3.6882   -1.9187    0.8924 H   0  0  0  0  0  0  0  0  0  0  0  0
   -3.7081    0.5304    1.4689 H   0  0  0  0  0  0  0  0  0  0  0  0
   -4.5051    0.8237   -0.1921 H   0  0  0  0  0  0  0  0  0  0  0  0
  1  2  1  0
  2  3  1  0
  3  4  2  0
  3  5  1  0
  5  6  1  0
  6  7  1  0
  7  8  1  0
  8  9  1  0
  9 10  1  0
 10 11  2  0
 10 12  1  0
  2 13  1  0
 13 14  1  0
 14  2  1  0
 12  7  1  0
  1 15  1  0
  1 16  1  0
  5 17  1  0
  6 18  1  0
  6 19  1  0
  7 20  1  6
  8 21  1  0
  8 22  1  0
  9 23  1  0
 13 24  1  0
 13 25  1  0
 14 26  1  0
 14 27  1  0
M  END
$$$$

     RDKit          3D

 27 28  0  0  0  0  0  0  0  0999 V2000
   -2.9432    1.6177   -0.9227 N   0  0  0  0  0  0  0  0  0  0  0  0
   -2.4945    0.4011   -0.3025 C   0  0  0  0  0  0  0  0  0  0  0  0
   -1.0390    0.1201   -0.4733 C   0  0  0  0  0  0  0  0  0  0  0  0
   -0.4232    0.7663   -1.3480 O   0  0  0  0  0  0  0  0  0  0  0  0
   -0.3885   -0.8424    0.3246 N   0  0  0  0  0  0  0  0  0  0  0  0
    0.9859   -1.1594    0.2322 C   0  0  0  0  0  0  0  0  0  0  0  0
    1.9632   -0.0941    0.5389 C   0  0  1  0  0  0  0  0  0  0  0  0
    3.3677   -0.6453    0.2725 C   0  0  0  0  0  0  0  0  0  0  0  0
    4.0739    0.6170    0.0423 N   0  0  0  0  0  0  0  0  0  0  0  0
    3.1524    1.4894   -0.5851 C   0  0  0  0  0  0  0  0  0  0  0  0
    3.4361    2.5119   -1.2778 O   0  0  0  0  0  0  0  0  0  0  0  0
    1.8590    1.0215   -0.3015 O   0  0  0  0  0  0  0  0  0  0  0  0
   -3.2320   -0.0850    0.8793 C   0  0  0  0  0  0  0  0  0  0  0  0
   -3.3476   -0.8566   -0.3875 C   0  0  0  0  0  0  0  0  0  0  0  0
   -2.5248    2.4405   -0.4843 H   0  0  0  0  0  0  0  0  0  0  0  0
   -3.9727    1.6486   -1.0685 H   0  0  0  0  0  0  0  0  0  0  0  0
   -1.0157   -1.3328    1.0288 H   0  0  0  0  0  0  0  0  0  0  0  0
    1.2237   -2.0742    0.8556 H   0  0  0  0  0  0  0  0  0  0  0  0
    1.2176   -1.5172   -0.8123 H   0  0  0  0  0  0  0  0  0  0  0  0
    1.9024    0.1945    1.6131 H   0  0  0  0  0  0  0  0  0  0  0  0
    3.7675   -1.2103    1.1155 H   0  0  0  0  0  0  0  0  0  0  0  0
    3.3633   -1.1731   -0.6926 H   0  0  0  0  0  0  0  0  0  0  0  0
    5.0810    0.8268    0.3004 H   0  0  0  0  0  0  0  0  0  0  0  0
   -4.1687    0.4830    1.1322 H   0  0  0  0  0  0  0  0  0  0  0  0
   -2.7583   -0.5373    1.7501 H   0  0  0  0  0  0  0  0  0  0  0  0
   -4.2248   -0.7643   -1.0504 H   0  0  0  0  0  0  0  0  0  0  0  0
   -2.8610   -1.8462   -0.3788 H   0  0  0  0  0  0  0  0  0  0  0  0
  1  2  1  0
  2  3  1  0
  3  4  2  0
  3  5  1  0
  5  6  1  0
  6  7  1  0
  7  8  1  0
  8  9  1  0
  9 10  1  0
 10 11  2  0
 10 12  1  0
  2 13  1  0
 13 14  1  0
 14  2  1  0
 12  7  1  0
  1 15  1  0
  1 16  1  0
  5 17  1  0
  6 18  1  0
  6 19  1  0
  7 20  1  1
  8 21  1  0
  8 22  1  0
  9 23  1  0
 13 24  1  0
 13 25  1  0
 14 26  1  0
 14 27  1  0
M  END
$$$$

     RDKit          3D

 27 28  0  0  0  0  0  0  0  0999 V2000
   -2.1193   -1.0252    1.1898 N   0  0  0  0  0  0  0  0  0  0  0  0
   -2.5403   -0.2024    0.0927 C   0  0  0  0  0  0  0  0  0  0  0  0
   -1.4765    0.5110   -0.6532 C   0  0  0  0  0  0  0  0  0  0  0  0
   -1.6869    1.2619   -1.6294 O   0  0  0  0  0  0  0  0  0  0  0  0
   -0.1306    0.3272   -0.2281 N   0  0  0  0  0  0  0  0  0  0  0  0
    0.9256    0.9945   -0.9168 C   0  0  0  0  0  0  0  0  0  0  0  0
    2.2438    0.6380   -0.2781 C   0  0  1  0  0  0  0  0  0  0  0  0
    2.5136   -0.8311   -0.2843 C   0  0  0  0  0  0  0  0  0  0  0  0
    3.7821   -0.9537   -0.9518 N   0  0  0  0  0  0  0  0  0  0  0  0
    4.2412    0.3232   -1.3502 C   0  0  0  0  0  0  0  0  0  0  0  0
    5.2901    0.5845   -1.9791 O   0  0  0  0  0  0  0  0  0  0  0  0
    3.3302    1.2786   -0.9290 O   0  0  0  0  0  0  0  0  0  0  0  0
   -3.8151   -0.5615   -0.6102 C   0  0  0  0  0  0  0  0  0  0  0  0
   -3.7905    0.6290    0.2704 C   0  0  0  0  0  0  0  0  0  0  0  0
   -1.6350   -0.4941    1.9462 H   0  0  0  0  0  0  0  0  0  0  0  0
   -1.5194   -1.7884    0.7916 H   0  0  0  0  0  0  0  0  0  0  0  0
    0.1055   -0.2987    0.5945 H   0  0  0  0  0  0  0  0  0  0  0  0
    0.9392    0.7873   -2.0076 H   0  0  0  0  0  0  0  0  0  0  0  0
    0.7860    2.0981   -0.7431 H   0  0  0  0  0  0  0  0  0  0  0  0
    2.1903    1.0113    0.7867 H   0  0  0  0  0  0  0  0  0  0  0  0
    2.6126   -1.2614    0.7482 H   0  0  0  0  0  0  0  0  0  0  0  0
    1.7438   -1.4187   -0.8350 H   0  0  0  0  0  0  0  0  0  0  0  0
    4.2769   -1.8551   -1.1110 H   0  0  0  0  0  0  0  0  0  0  0  0
   -4.3271   -1.4671   -0.2209 H   0  0  0  0  0  0  0  0  0  0  0  0
   -3.8081   -0.4711   -1.7050 H   0  0  0  0  0  0  0  0  0  0  0  0
   -3.8816    1.6044   -0.2500 H   0  0  0  0  0  0  0  0  0  0  0  0
   -4.2506    0.5797    1.2708 H   0  0  0  0  0  0  0  0  0  0  0  0
  1  2  1  0
  2  3  1  0
  3  4  2  0
  3  5  1  0
  5  6  1  0
  6  7  1  0
  7  8  1  0
  8  9  1  0
  9 10  1  0
 10 11  2  0
 10 12  1  0
  2 13  1  0
 13 14  1  0
 14  2  1  0
 12  7  1  0
  1 15  1  0
  1 16  1  0
  5 17  1  0
  6 18  1  0
  6 19  1  0
  7 20  1  1
  8 21  1  0
  8 22  1  0
  9 23  1  0
 13 24  1  0
 13 25  1  0
 14 26  1  0
 14 27  1  0
M  END
$$$$

     RDKit          3D

 27 28  0  0  0  0  0  0  0  0999 V2000
    3.4567   -1.0275   -0.7812 N   0  0  0  0  0  0  0  0  0  0  0  0
    2.5830    0.0856   -0.4705 C   0  0  0  0  0  0  0  0  0  0  0  0
    1.1326   -0.1758   -0.6616 C   0  0  0  0  0  0  0  0  0  0  0  0
    0.5951    0.4622   -1.5913 O   0  0  0  0  0  0  0  0  0  0  0  0
    0.3654   -1.0464    0.1178 N   0  0  0  0  0  0  0  0  0  0  0  0
   -1.0144   -1.3384   -0.0712 C   0  0  0  0  0  0  0  0  0  0  0  0
   -1.8701   -0.1165   -0.1828 C   0  0  1  0  0  0  0  0  0  0  0  0
   -3.3352   -0.5964   -0.1937 C   0  0  0  0  0  0  0  0  0  0  0  0
   -4.0177    0.5722    0.3498 N   0  0  0  0  0  0  0  0  0  0  0  0
   -3.0305    1.4204    0.9370 C   0  0  0  0  0  0  0  0  0  0  0  0
   -3.2976    2.5718    1.3724 O   0  0  0  0  0  0  0  0  0  0  0  0
   -1.8126    0.7705    0.9243 O   0  0  0  0  0  0  0  0  0  0  0  0
    2.9289    0.6809    0.8961 C   0  0  0  0  0  0  0  0  0  0  0  0
    2.9997    1.5160   -0.3107 C   0  0  0  0  0  0  0  0  0  0  0  0
    3.3504   -1.8450   -0.1821 H   0  0  0  0  0  0  0  0  0  0  0  0
    4.3900   -0.7146   -1.0561 H   0  0  0  0  0  0  0  0  0  0  0  0
    0.8991   -1.5397    0.9171 H   0  0  0  0  0  0  0  0  0  0  0  0
   -1.1901   -1.9751   -0.9180 H   0  0  0  0  0  0  0  0  0  0  0  0
   -1.3975   -1.9390    0.8290 H   0  0  0  0  0  0  0  0  0  0  0  0
   -1.7776    0.4533   -1.1378 H   0  0  0  0  0  0  0  0  0  0  0  0
   -3.4563   -1.3901    0.5504 H   0  0  0  0  0  0  0  0  0  0  0  0
   -3.6863   -0.8206   -1.1734 H   0  0  0  0  0  0  0  0  0  0  0  0
   -5.0268    0.7516    0.2989 H   0  0  0  0  0  0  0  0  0  0  0  0
    3.8731    0.3132    1.3180 H   0  0  0  0  0  0  0  0  0  0  0  0
    2.0996    0.7810    1.6207 H   0  0  0  0  0  0  0  0  0  0  0  0
    3.9826    1.8172   -0.7664 H   0  0  0  0  0  0  0  0  0  0  0  0
    2.2564    2.3293   -0.3790 H   0  0  0  0  0  0  0  0  0  0  0  0
  1  2  1  0
  2  3  1  0
  3  4  2  0
  3  5  1  0
  5  6  1  0
  6  7  1  0
  7  8  1  0
  8  9  1  0
  9 10  1  0
 10 11  2  0
 10 12  1  0
  2 13  1  0
 13 14  1  0
 14  2  1  0
 12  7  1  0
  1 15  1  0
  1 16  1  0
  5 17  1  0
  6 18  1  0
  6 19  1  0
  7 20  1  6
  8 21  1  0
  8 22  1  0
  9 23  1  0
 13 24  1  0
 13 25  1  0
 14 26  1  0
 14 27  1  0
M  END
$$$$

     RDKit          3D

 27 28  0  0  0  0  0  0  0  0999 V2000
   -2.8474   -0.0797    1.5416 N   0  0  0  0  0  0  0  0  0  0  0  0
   -2.5260   -0.2548    0.1458 C   0  0  0  0  0  0  0  0  0  0  0  0
   -1.2011    0.2161   -0.2992 C   0  0  0  0  0  0  0  0  0  0  0  0
   -0.8361    0.1046   -1.4956 O   0  0  0  0  0  0  0  0  0  0  0  0
   -0.3135    0.8092    0.6385 N   0  0  0  0  0  0  0  0  0  0  0  0
    0.9925    1.2966    0.3037 C   0  0  0  0  0  0  0  0  0  0  0  0
    1.8864    0.2257   -0.2464 C   0  0  1  0  0  0  0  0  0  0  0  0
    3.2699    0.8136   -0.4629 C   0  0  0  0  0  0  0  0  0  0  0  0
    4.1764   -0.2212   -0.0168 N   0  0  0  0  0  0  0  0  0  0  0  0
    3.4128   -1.2689    0.5747 C   0  0  0  0  0  0  0  0  0  0  0  0
    3.7684   -2.4022    0.9696 O   0  0  0  0  0  0  0  0  0  0  0  0
    2.0800   -0.8314    0.6701 O   0  0  0  0  0  0  0  0  0  0  0  0
   -2.9474   -1.5650   -0.5153 C   0  0  0  0  0  0  0  0  0  0  0  0
   -3.6810   -0.2848   -0.7792 C   0  0  0  0  0  0  0  0  0  0  0  0
   -3.8448   -0.2984    1.7375 H   0  0  0  0  0  0  0  0  0  0  0  0
   -2.7139    0.9234    1.7891 H   0  0  0  0  0  0  0  0  0  0  0  0
   -0.6495    0.8897    1.6416 H   0  0  0  0  0  0  0  0  0  0  0  0
    0.9179    2.0871   -0.4951 H   0  0  0  0  0  0  0  0  0  0  0  0
    1.4528    1.7985    1.1775 H   0  0  0  0  0  0  0  0  0  0  0  0
    1.4669   -0.1466   -1.1940 H   0  0  0  0  0  0  0  0  0  0  0  0
    3.4085    1.7588    0.0978 H   0  0  0  0  0  0  0  0  0  0  0  0
    3.4776    0.9947   -1.5405 H   0  0  0  0  0  0  0  0  0  0  0  0
    5.1993   -0.2303   -0.0972 H   0  0  0  0  0  0  0  0  0  0  0  0
   -3.3472   -2.3105    0.1873 H   0  0  0  0  0  0  0  0  0  0  0  0
   -2.3453   -1.9754   -1.3259 H   0  0  0  0  0  0  0  0  0  0  0  0
   -4.6899   -0.2311   -0.3663 H   0  0  0  0  0  0  0  0  0  0  0  0
   -3.5665    0.1823   -1.7772 H   0  0  0  0  0  0  0  0  0  0  0  0
  1  2  1  0
  2  3  1  0
  3  4  2  0
  3  5  1  0
  5  6  1  0
  6  7  1  0
  7  8  1  0
  8  9  1  0
  9 10  1  0
 10 11  2  0
 10 12  1  0
  2 13  1  0
 13 14  1  0
 14  2  1  0
 12  7  1  0
  1 15  1  0
  1 16  1  0
  5 17  1  0
  6 18  1  0
  6 19  1  0
  7 20  1  6
  8 21  1  0
  8 22  1  0
  9 23  1  0
 13 24  1  0
 13 25  1  0
 14 26  1  0
 14 27  1  0
M  END
$$$$

     RDKit          3D

 27 28  0  0  0  0  0  0  0  0999 V2000
   -3.2433   -0.2820    1.1222 N   0  0  0  0  0  0  0  0  0  0  0  0
   -2.5531   -0.5177   -0.1333 C   0  0  0  0  0  0  0  0  0  0  0  0
   -1.0450   -0.5006   -0.0775 C   0  0  0  0  0  0  0  0  0  0  0  0
   -0.3729   -0.6946   -1.1139 O   0  0  0  0  0  0  0  0  0  0  0  0
   -0.3515   -0.2670    1.1363 N   0  0  0  0  0  0  0  0  0  0  0  0
    1.0588   -0.2186    1.3268 C   0  0  0  0  0  0  0  0  0  0  0  0
    1.8158    0.8273    0.6019 C   0  0  1  0  0  0  0  0  0  0  0  0
    3.3062    0.5182    0.8125 C   0  0  0  0  0  0  0  0  0  0  0  0
    3.8989    1.1391   -0.3369 N   0  0  0  0  0  0  0  0  0  0  0  0
    2.9374    1.0193   -1.3901 C   0  0  0  0  0  0  0  0  0  0  0  0
    3.1852    1.1509   -2.6107 O   0  0  0  0  0  0  0  0  0  0  0  0
    1.7073    0.7346   -0.7931 O   0  0  0  0  0  0  0  0  0  0  0  0
   -3.2237   -0.0613   -1.3779 C   0  0  0  0  0  0  0  0  0  0  0  0
   -3.2178   -1.5216   -1.0282 C   0  0  0  0  0  0  0  0  0  0  0  0
   -2.8311   -0.9750    1.8113 H   0  0  0  0  0  0  0  0  0  0  0  0
   -2.9398    0.6617    1.4714 H   0  0  0  0  0  0  0  0  0  0  0  0
   -0.9797   -0.1122    1.9907 H   0  0  0  0  0  0  0  0  0  0  0  0
    1.2477   -0.0571    2.4326 H   0  0  0  0  0  0  0  0  0  0  0  0
    1.5541   -1.2000    1.1229 H   0  0  0  0  0  0  0  0  0  0  0  0
    1.6104    1.8625    0.9569 H   0  0  0  0  0  0  0  0  0  0  0  0
    3.6516    0.9395    1.7683 H   0  0  0  0  0  0  0  0  0  0  0  0
    3.4417   -0.5830    0.7521 H   0  0  0  0  0  0  0  0  0  0  0  0
    4.8439    1.5741   -0.3447 H   0  0  0  0  0  0  0  0  0  0  0  0
   -4.1646    0.5152   -1.2384 H   0  0  0  0  0  0  0  0  0  0  0  0
   -2.5684    0.2170   -2.2184 H   0  0  0  0  0  0  0  0  0  0  0  0
   -2.5786   -2.2063   -1.6516 H   0  0  0  0  0  0  0  0  0  0  0  0
   -4.1895   -1.9623   -0.7480 H   0  0  0  0  0  0  0  0  0  0  0  0
  1  2  1  0
  2  3  1  0
  3  4  2  0
  3  5  1  0
  5  6  1  0
  6  7  1  0
  7  8  1  0
  8  9  1  0
  9 10  1  0
 10 11  2  0
 10 12  1  0
  2 13  1  0
 13 14  1  0
 14  2  1  0
 12  7  1  0
  1 15  1  0
  1 16  1  0
  5 17  1  0
  6 18  1  0
  6 19  1  0
  7 20  1  1
  8 21  1  0
  8 22  1  0
  9 23  1  0
 13 24  1  0
 13 25  1  0
 14 26  1  0
 14 27  1  0
M  END
$$$$
