
     RDKit          3D

 22 22  0  0  0  0  0  0  0  0999 V2000
   -1.8381   -1.1943    0.4371 C   0  0  0  0  0  0  0  0  0  0  0  0
   -1.2467    0.2011    0.2102 C   0  0  2  0  0  0  0  0  0  0  0  0
   -1.7551    0.6894   -1.1247 C   0  0  0  0  0  0  0  0  0  0  0  0
   -3.1423    0.8120   -1.0662 O   0  0  0  0  0  0  0  0  0  0  0  0
    0.1852    0.0488    0.2291 N   0  0  0  0  0  0  0  0  0  0  0  0
    1.2362   -0.6575   -0.4582 C   0  0  0  0  0  0  0  0  0  0  0  0
    2.1208    0.5156   -0.0924 C   0  0  2  0  0  0  0  0  0  0  0  0
    3.4461    0.1939    0.3363 N   0  0  0  0  0  0  0  0  0  0  0  0
    1.1866    0.6304    1.0540 C   0  0  0  0  0  0  0  0  0  0  0  0
    1.2316    1.0459    2.2257 O   0  0  0  0  0  0  0  0  0  0  0  0
   -1.2288   -1.8900   -0.1786 H   0  0  0  0  0  0  0  0  0  0  0  0
   -2.9054   -1.2293    0.1151 H   0  0  0  0  0  0  0  0  0  0  0  0
   -1.7329   -1.4920    1.5183 H   0  0  0  0  0  0  0  0  0  0  0  0
   -1.6001    0.8910    0.9749 H   0  0  0  0  0  0  0  0  0  0  0  0
   -1.2450    1.6018   -1.4479 H   0  0  0  0  0  0  0  0  0  0  0  0
   -1.5109   -0.1035   -1.8718 H   0  0  0  0  0  0  0  0  0  0  0  0
   -3.3594    1.5814   -0.4706 H   0  0  0  0  0  0  0  0  0  0  0  0
    1.5430   -1.5400    0.1356 H   0  0  0  0  0  0  0  0  0  0  0  0
    1.0982   -0.8265   -1.5257 H   0  0  0  0  0  0  0  0  0  0  0  0
    2.0460    1.3323   -0.8343 H   0  0  0  0  0  0  0  0  0  0  0  0
    3.4574   -0.2860    1.2505 H   0  0  0  0  0  0  0  0  0  0  0  0
    4.0134   -0.3245   -0.3402 H   0  0  0  0  0  0  0  0  0  0  0  0
  1  2  1  0
  2  3  1  0
  3  4  1  0
  2  5  1  0
  5  6  1  0
  6  7  1  0
  7  8  1  0
  7  9  1  0
  9 10  2  0
  9  5  1  0
  1 11  1  0
  1 12  1  0
  1 13  1  0
  2 14  1  1
  3 15  1  0
  3 16  1  0
  4 17  1  0
  6 18  1  0
  6 19  1  0
  7 20  1  6
  8 21  1  0
  8 22  1  0
M  END
$$$$

     RDKit          3D

 22 22  0  0  0  0  0  0  0  0999 V2000
   -1.4458    1.9170   -0.1084 C   0  0  0  0  0  0  0  0  0  0  0  0
   -1.3027    0.4040   -0.1039 C   0  0  2  0  0  0  0  0  0  0  0  0
   -1.9610   -0.1682    1.1415 C   0  0  0  0  0  0  0  0  0  0  0  0
   -1.8167   -1.5700    1.0687 O   0  0  0  0  0  0  0  0  0  0  0  0
    0.0859    0.0168   -0.0978 N   0  0  0  0  0  0  0  0  0  0  0  0
    0.9190   -0.7279   -1.0165 C   0  0  0  0  0  0  0  0  0  0  0  0
    2.1303   -0.1994   -0.3228 C   0  0  2  0  0  0  0  0  0  0  0  0
    3.0316   -1.2650    0.0722 N   0  0  0  0  0  0  0  0  0  0  0  0
    1.2001    0.1753    0.7519 C   0  0  0  0  0  0  0  0  0  0  0  0
    1.3417    0.5075    1.9583 O   0  0  0  0  0  0  0  0  0  0  0  0
   -2.5140    2.1628    0.0833 H   0  0  0  0  0  0  0  0  0  0  0  0
   -1.1435    2.3092   -1.0915 H   0  0  0  0  0  0  0  0  0  0  0  0
   -0.8661    2.3354    0.7394 H   0  0  0  0  0  0  0  0  0  0  0  0
   -1.8165    0.0424   -1.0152 H   0  0  0  0  0  0  0  0  0  0  0  0
   -1.4125    0.1980    2.0205 H   0  0  0  0  0  0  0  0  0  0  0  0
   -3.0108    0.1122    1.2433 H   0  0  0  0  0  0  0  0  0  0  0  0
   -2.7119   -2.0126    1.1817 H   0  0  0  0  0  0  0  0  0  0  0  0
    0.8087   -1.8192   -0.9136 H   0  0  0  0  0  0  0  0  0  0  0  0
    0.7537   -0.3742   -2.0531 H   0  0  0  0  0  0  0  0  0  0  0  0
    2.6152    0.6366   -0.8700 H   0  0  0  0  0  0  0  0  0  0  0  0
    3.1928   -1.8682   -0.7430 H   0  0  0  0  0  0  0  0  0  0  0  0
    3.9224   -0.8125    0.3697 H   0  0  0  0  0  0  0  0  0  0  0  0
  1  2  1  0
  2  3  1  0
  3  4  1  0
  2  5  1  0
  5  6  1  0
  6  7  1  0
  7  8  1  0
  7  9  1  0
  9 10  2  0
  9  5  1  0
  1 11  1  0
  1 12  1  0
  1 13  1  0
  2 14  1  6
  3 15  1  0
  3 16  1  0
  4 17  1  0
  6 18  1  0
  6 19  1  0
  7 20  1  6
  8 21  1  0
  8 22  1  0
M  END
$$$$

     RDKit          3D

 22 22  0  0  0  0  0  0  0  0999 V2000
   -1.7168    1.2731    0.5301 C   0  0  0  0  0  0  0  0  0  0  0  0
   -1.0427    0.4565   -0.5572 C   0  0  2  0  0  0  0  0  0  0  0  0
   -1.8566   -0.8272   -0.6901 C   0  0  0  0  0  0  0  0  0  0  0  0
   -3.1318   -0.4397   -1.0930 O   0  0  0  0  0  0  0  0  0  0  0  0
    0.3108    0.1708   -0.1399 N   0  0  0  0  0  0  0  0  0  0  0  0
    1.0182   -0.4462    0.9544 C   0  0  0  0  0  0  0  0  0  0  0  0
    2.1476   -0.6740    0.0005 C   0  0  2  0  0  0  0  0  0  0  0  0
    3.4662   -0.3401    0.5256 N   0  0  0  0  0  0  0  0  0  0  0  0
    1.5589    0.4420   -0.7564 C   0  0  0  0  0  0  0  0  0  0  0  0
    1.9763    1.2809   -1.5926 O   0  0  0  0  0  0  0  0  0  0  0  0
   -2.4106    1.9874    0.0375 H   0  0  0  0  0  0  0  0  0  0  0  0
   -2.2941    0.6177    1.2242 H   0  0  0  0  0  0  0  0  0  0  0  0
   -0.9543    1.7851    1.1329 H   0  0  0  0  0  0  0  0  0  0  0  0
   -1.0940    0.9714   -1.5165 H   0  0  0  0  0  0  0  0  0  0  0  0
   -1.9095   -1.2541    0.3540 H   0  0  0  0  0  0  0  0  0  0  0  0
   -1.3816   -1.5417   -1.3697 H   0  0  0  0  0  0  0  0  0  0  0  0
   -3.7940   -1.1448   -1.0271 H   0  0  0  0  0  0  0  0  0  0  0  0
    0.5476   -1.3702    1.3543 H   0  0  0  0  0  0  0  0  0  0  0  0
    1.2897    0.2502    1.7844 H   0  0  0  0  0  0  0  0  0  0  0  0
    2.1057   -1.6700   -0.4858 H   0  0  0  0  0  0  0  0  0  0  0  0
    3.3155    0.0606    1.4758 H   0  0  0  0  0  0  0  0  0  0  0  0
    3.8495    0.4122   -0.0685 H   0  0  0  0  0  0  0  0  0  0  0  0
  1  2  1  0
  2  3  1  0
  3  4  1  0
  2  5  1  0
  5  6  1  0
  6  7  1  0
  7  8  1  0
  7  9  1  0
  9 10  2  0
  9  5  1  0
  1 11  1  0
  1 12  1  0
  1 13  1  0
  2 14  1  6
  3 15  1  0
  3 16  1  0
  4 17  1  0
  6 18  1  0
  6 19  1  0
  7 20  1  6
  8 21  1  0
  8 22  1  0
M  END
$$$$

     RDKit          3D

 22 22  0  0  0  0  0  0  0  0999 V2000
   -1.5054   -0.7477   -1.3932 C   0  0  0  0  0  0  0  0  0  0  0  0
   -1.1577   -0.5726    0.0742 C   0  0  2  0  0  0  0  0  0  0  0  0
   -1.9984    0.5754    0.6250 C   0  0  0  0  0  0  0  0  0  0  0  0
   -3.3336    0.2473    0.5091 O   0  0  0  0  0  0  0  0  0  0  0  0
    0.2453   -0.2739    0.1749 N   0  0  0  0  0  0  0  0  0  0  0  0
    1.1217    0.7777   -0.2956 C   0  0  0  0  0  0  0  0  0  0  0  0
    2.0458    0.4207    0.8225 C   0  0  2  0  0  0  0  0  0  0  0  0
    3.4249    0.4291    0.3639 N   0  0  0  0  0  0  0  0  0  0  0  0
    1.3771   -0.8835    0.7807 C   0  0  0  0  0  0  0  0  0  0  0  0
    1.6559   -2.0443    1.1218 O   0  0  0  0  0  0  0  0  0  0  0  0
   -0.7483   -1.4097   -1.8398 H   0  0  0  0  0  0  0  0  0  0  0  0
   -2.5405   -1.1185   -1.5221 H   0  0  0  0  0  0  0  0  0  0  0  0
   -1.3843    0.2536   -1.8747 H   0  0  0  0  0  0  0  0  0  0  0  0
   -1.4366   -1.5040    0.5920 H   0  0  0  0  0  0  0  0  0  0  0  0
   -1.7838    0.6996    1.7082 H   0  0  0  0  0  0  0  0  0  0  0  0
   -1.7626    1.4957    0.0771 H   0  0  0  0  0  0  0  0  0  0  0  0
   -3.4980   -0.7153    0.3309 H   0  0  0  0  0  0  0  0  0  0  0  0
    1.5467    0.4842   -1.2825 H   0  0  0  0  0  0  0  0  0  0  0  0
    0.6884    1.7977   -0.2640 H   0  0  0  0  0  0  0  0  0  0  0  0
    1.9018    1.0253    1.7389 H   0  0  0  0  0  0  0  0  0  0  0  0
    3.5866    1.3626   -0.0784 H   0  0  0  0  0  0  0  0  0  0  0  0
    3.5550   -0.2992   -0.3690 H   0  0  0  0  0  0  0  0  0  0  0  0
  1  2  1  0
  2  3  1  0
  3  4  1  0
  2  5  1  0
  5  6  1  0
  6  7  1  0
  7  8  1  0
  7  9  1  0
  9 10  2  0
  9  5  1  0
  1 11  1  0
  1 12  1  0
  1 13  1  0
  2 14  1  1
  3 15  1  0
  3 16  1  0
  4 17  1  0
  6 18  1  0
  6 19  1  0
  7 20  1  1
  8 21  1  0
  8 22  1  0
M  END
$$$$

     RDKit          3D

 22 22  0  0  0  0  0  0  0  0999 V2000
   -1.6606   -1.5393   -0.3994 C   0  0  0  0  0  0  0  0  0  0  0  0
   -1.1299   -0.3880    0.4554 C   0  0  2  0  0  0  0  0  0  0  0  0
   -1.8918    0.8881    0.1718 C   0  0  0  0  0  0  0  0  0  0  0  0
   -3.2351    0.7752    0.4456 O   0  0  0  0  0  0  0  0  0  0  0  0
    0.2511   -0.2366    0.1624 N   0  0  0  0  0  0  0  0  0  0  0  0
    1.1494    0.1004   -0.9320 C   0  0  0  0  0  0  0  0  0  0  0  0
    1.9956    0.7289    0.1846 C   0  0  2  0  0  0  0  0  0  0  0  0
    3.4130    0.6546   -0.0372 N   0  0  0  0  0  0  0  0  0  0  0  0
    1.4058   -0.3831    0.9621 C   0  0  0  0  0  0  0  0  0  0  0  0
    1.6558   -1.1721    1.8916 O   0  0  0  0  0  0  0  0  0  0  0  0
   -2.7193   -1.7191   -0.2118 H   0  0  0  0  0  0  0  0  0  0  0  0
   -1.4453   -1.2509   -1.4512 H   0  0  0  0  0  0  0  0  0  0  0  0
   -1.0125   -2.4106   -0.1731 H   0  0  0  0  0  0  0  0  0  0  0  0
   -1.3297   -0.6722    1.5010 H   0  0  0  0  0  0  0  0  0  0  0  0
   -1.4280    1.6832    0.7878 H   0  0  0  0  0  0  0  0  0  0  0  0
   -1.7549    1.1349   -0.9035 H   0  0  0  0  0  0  0  0  0  0  0  0
   -3.6548    1.6403    0.6607 H   0  0  0  0  0  0  0  0  0  0  0  0
    1.6022   -0.8376   -1.3190 H   0  0  0  0  0  0  0  0  0  0  0  0
    0.7646    0.8054   -1.6623 H   0  0  0  0  0  0  0  0  0  0  0  0
    1.5845    1.6971    0.4734 H   0  0  0  0  0  0  0  0  0  0  0  0
    3.6794    0.7059   -1.0421 H   0  0  0  0  0  0  0  0  0  0  0  0
    3.7605   -0.2046    0.4351 H   0  0  0  0  0  0  0  0  0  0  0  0
  1  2  1  0
  2  3  1  0
  3  4  1  0
  2  5  1  0
  5  6  1  0
  6  7  1  0
  7  8  1  0
  7  9  1  0
  9 10  2  0
  9  5  1  0
  1 11  1  0
  1 12  1  0
  1 13  1  0
  2 14  1  1
  3 15  1  0
  3 16  1  0
  4 17  1  0
  6 18  1  0
  6 19  1  0
  7 20  1  1
  8 21  1  0
  8 22  1  0
M  END
$$$$

     RDKit          3D

 22 22  0  0  0  0  0  0  0  0999 V2000
   -1.9349   -1.2929   -0.2169 C   0  0  0  0  0  0  0  0  0  0  0  0
   -1.1365   -0.3119    0.6232 C   0  0  2  0  0  0  0  0  0  0  0  0
   -1.7878    1.0574    0.6252 C   0  0  0  0  0  0  0  0  0  0  0  0
   -1.8270    1.6070   -0.6490 O   0  0  0  0  0  0  0  0  0  0  0  0
    0.2009   -0.2692    0.1505 N   0  0  0  0  0  0  0  0  0  0  0  0
    0.9496    0.0819   -1.0165 C   0  0  0  0  0  0  0  0  0  0  0  0
    1.9922    0.5384   -0.0180 C   0  0  2  0  0  0  0  0  0  0  0  0
    3.3579    0.4028   -0.4305 N   0  0  0  0  0  0  0  0  0  0  0  0
    1.4294   -0.6042    0.7500 C   0  0  0  0  0  0  0  0  0  0  0  0
    1.7713   -1.4905    1.5547 O   0  0  0  0  0  0  0  0  0  0  0  0
   -3.0112   -1.2566    0.1214 H   0  0  0  0  0  0  0  0  0  0  0  0
   -1.8484   -1.0722   -1.2904 H   0  0  0  0  0  0  0  0  0  0  0  0
   -1.5945   -2.3209    0.0157 H   0  0  0  0  0  0  0  0  0  0  0  0
   -1.2283   -0.6843    1.6758 H   0  0  0  0  0  0  0  0  0  0  0  0
   -2.8184    1.0187    0.9997 H   0  0  0  0  0  0  0  0  0  0  0  0
   -1.1976    1.7085    1.2895 H   0  0  0  0  0  0  0  0  0  0  0  0
   -2.4313    1.0352   -1.2055 H   0  0  0  0  0  0  0  0  0  0  0  0
    0.5224    0.8732   -1.6529 H   0  0  0  0  0  0  0  0  0  0  0  0
    1.2851   -0.8331   -1.5697 H   0  0  0  0  0  0  0  0  0  0  0  0
    1.6967    1.4984    0.4189 H   0  0  0  0  0  0  0  0  0  0  0  0
    3.6632   -0.5830   -0.4521 H   0  0  0  0  0  0  0  0  0  0  0  0
    3.9473    0.8973    0.2769 H   0  0  0  0  0  0  0  0  0  0  0  0
  1  2  1  0
  2  3  1  0
  3  4  1  0
  2  5  1  0
  5  6  1  0
  6  7  1  0
  7  8  1  0
  7  9  1  0
  9 10  2  0
  9  5  1  0
  1 11  1  0
  1 12  1  0
  1 13  1  0
  2 14  1  1
  3 15  1  0
  3 16  1  0
  4 17  1  0
  6 18  1  0
  6 19  1  0
  7 20  1  1
  8 21  1  0
  8 22  1  0
M  END
$$$$

     RDKit          3D

 22 22  0  0  0  0  0  0  0  0999 V2000
   -1.7018    0.3827    1.1569 C   0  0  0  0  0  0  0  0  0  0  0  0
   -1.1559    0.4823   -0.2739 C   0  0  2  0  0  0  0  0  0  0  0  0
   -1.8947   -0.5733   -1.1007 C   0  0  0  0  0  0  0  0  0  0  0  0
   -3.2544   -0.3544   -1.0670 O   0  0  0  0  0  0  0  0  0  0  0  0
    0.2536    0.2826   -0.2893 N   0  0  0  0  0  0  0  0  0  0  0  0
    1.4819    0.9971   -0.6426 C   0  0  0  0  0  0  0  0  0  0  0  0
    2.0832    0.2015    0.5249 C   0  0  2  0  0  0  0  0  0  0  0  0
    3.4603   -0.1511    0.3551 N   0  0  0  0  0  0  0  0  0  0  0  0
    1.0935   -0.8035    0.0727 C   0  0  0  0  0  0  0  0  0  0  0  0
    0.9031   -2.0341   -0.0259 O   0  0  0  0  0  0  0  0  0  0  0  0
   -1.5694   -0.6593    1.5220 H   0  0  0  0  0  0  0  0  0  0  0  0
   -2.7879    0.5908    1.1666 H   0  0  0  0  0  0  0  0  0  0  0  0
   -1.1504    1.0539    1.8351 H   0  0  0  0  0  0  0  0  0  0  0  0
   -1.4528    1.4826   -0.6393 H   0  0  0  0  0  0  0  0  0  0  0  0
   -1.5358   -0.4659   -2.1497 H   0  0  0  0  0  0  0  0  0  0  0  0
   -1.5796   -1.5517   -0.7051 H   0  0  0  0  0  0  0  0  0  0  0  0
   -3.7307   -1.0434   -0.5148 H   0  0  0  0  0  0  0  0  0  0  0  0
    1.4603    2.0729   -0.4922 H   0  0  0  0  0  0  0  0  0  0  0  0
    1.8375    0.6130   -1.6144 H   0  0  0  0  0  0  0  0  0  0  0  0
    1.8127    0.6901    1.4796 H   0  0  0  0  0  0  0  0  0  0  0  0
    3.5036   -1.1614    0.0967 H   0  0  0  0  0  0  0  0  0  0  0  0
    3.9237   -0.0515    1.3053 H   0  0  0  0  0  0  0  0  0  0  0  0
  1  2  1  0
  2  3  1  0
  3  4  1  0
  2  5  1  0
  5  6  1  0
  6  7  1  0
  7  8  1  0
  7  9  1  0
  9 10  2  0
  9  5  1  0
  1 11  1  0
  1 12  1  0
  1 13  1  0
  2 14  1  6
  3 15  1  0
  3 16  1  0
  4 17  1  0
  6 18  1  0
  6 19  1  0
  7 20  1  1
  8 21  1  0
  8 22  1  0
M  END
$$$$

     RDKit          3D

 22 22  0  0  0  0  0  0  0  0999 V2000
   -1.9756   -1.4880    0.0933 C   0  0  0  0  0  0  0  0  0  0  0  0
   -1.3094   -0.1486    0.3645 C   0  0  2  0  0  0  0  0  0  0  0  0
   -1.7955    0.8248   -0.6992 C   0  0  0  0  0  0  0  0  0  0  0  0
   -1.2269    2.0793   -0.5300 O   0  0  0  0  0  0  0  0  0  0  0  0
    0.1289   -0.2433    0.2359 N   0  0  0  0  0  0  0  0  0  0  0  0
    1.2871   -0.0078    1.0664 C   0  0  0  0  0  0  0  0  0  0  0  0
    2.2104   -0.3005   -0.0702 C   0  0  2  0  0  0  0  0  0  0  0  0
    2.8569    0.8959   -0.5770 N   0  0  0  0  0  0  0  0  0  0  0  0
    0.9716   -0.6259   -0.8193 C   0  0  0  0  0  0  0  0  0  0  0  0
    0.7984   -1.0844   -1.9937 O   0  0  0  0  0  0  0  0  0  0  0  0
   -2.7641   -1.4020   -0.6876 H   0  0  0  0  0  0  0  0  0  0  0  0
   -2.5059   -1.8507    1.0166 H   0  0  0  0  0  0  0  0  0  0  0  0
   -1.2587   -2.2615   -0.2237 H   0  0  0  0  0  0  0  0  0  0  0  0
   -1.6001    0.1996    1.3761 H   0  0  0  0  0  0  0  0  0  0  0  0
   -1.4589    0.4208   -1.6882 H   0  0  0  0  0  0  0  0  0  0  0  0
   -2.9031    0.9035   -0.7118 H   0  0  0  0  0  0  0  0  0  0  0  0
   -1.6967    2.7194   -1.1083 H   0  0  0  0  0  0  0  0  0  0  0  0
    1.3602   -0.7991    1.8634 H   0  0  0  0  0  0  0  0  0  0  0  0
    1.3307    1.0163    1.4940 H   0  0  0  0  0  0  0  0  0  0  0  0
    2.8802   -1.1631    0.1032 H   0  0  0  0  0  0  0  0  0  0  0  0
    2.8600    1.6818    0.0809 H   0  0  0  0  0  0  0  0  0  0  0  0
    3.8105    0.6335   -0.9065 H   0  0  0  0  0  0  0  0  0  0  0  0
  1  2  1  0
  2  3  1  0
  3  4  1  0
  2  5  1  0
  5  6  1  0
  6  7  1  0
  7  8  1  0
  7  9  1  0
  9 10  2  0
  9  5  1  0
  1 11  1  0
  1 12  1  0
  1 13  1  0
  2 14  1  1
  3 15  1  0
  3 16  1  0
  4 17  1  0
  6 18  1  0
  6 19  1  0
  7 20  1  1
  8 21  1  0
  8 22  1  0
M  END
$$$$
