
     RDKit          3D

 24 24  0  0  0  0  0  0  0  0999 V2000
   -4.4428    0.7228   -1.3181 O   0  0  0  0  0  0  0  0  0  0  0  0
   -3.3835    0.3304   -0.7899 C   0  0  0  0  0  0  0  0  0  0  0  0
   -2.0308    0.9102   -0.9601 C   0  0  0  0  0  0  0  0  0  0  0  0
   -1.1509   -0.2238   -0.5429 C   0  0  1  0  0  0  0  0  0  0  0  0
    0.2100    0.2114   -0.1452 C   0  0  0  0  0  0  0  0  0  0  0  0
    0.4858    1.4315   -0.1928 O   0  0  0  0  0  0  0  0  0  0  0  0
    1.1961   -0.6952    0.2812 N   0  0  0  0  0  0  0  0  0  0  0  0
    2.5272   -0.4182    0.6815 C   0  0  0  0  0  0  0  0  0  0  0  0
    3.4316    0.2002   -0.3239 C   0  0  0  0  0  0  0  0  0  0  0  0
    2.9741    1.4098   -0.7597 O   0  0  0  0  0  0  0  0  0  0  0  0
   -1.9142   -0.8130    0.6252 C   0  0  0  0  0  0  0  0  0  0  0  0
   -3.2875   -0.7751    0.0939 N   0  0  0  0  0  0  0  0  0  0  0  0
   -1.8384    1.2487   -2.0019 H   0  0  0  0  0  0  0  0  0  0  0  0
   -1.9710    1.7742   -0.2495 H   0  0  0  0  0  0  0  0  0  0  0  0
   -1.1436   -0.9785   -1.3378 H   0  0  0  0  0  0  0  0  0  0  0  0
    0.8716   -1.7153    0.2947 H   0  0  0  0  0  0  0  0  0  0  0  0
    2.5902    0.2087    1.6112 H   0  0  0  0  0  0  0  0  0  0  0  0
    3.0315   -1.3785    1.0015 H   0  0  0  0  0  0  0  0  0  0  0  0
    4.4160    0.3826    0.1763 H   0  0  0  0  0  0  0  0  0  0  0  0
    3.6371   -0.4826   -1.1772 H   0  0  0  0  0  0  0  0  0  0  0  0
    3.2338    2.1369   -0.1664 H   0  0  0  0  0  0  0  0  0  0  0  0
   -1.8435   -0.1575    1.5278 H   0  0  0  0  0  0  0  0  0  0  0  0
   -1.5957   -1.8495    0.8367 H   0  0  0  0  0  0  0  0  0  0  0  0
   -4.0032   -1.4802    0.3736 H   0  0  0  0  0  0  0  0  0  0  0  0
  1  2  2  0
  2  3  1  0
  3  4  1  0
  4  5  1  0
  5  6  2  0
  5  7  1  0
  7  8  1  0
  8  9  1  0
  9 10  1  0
  4 11  1  0
 11 12  1  0
 12  2  1  0
  3 13  1  0
  3 14  1  0
  4 15  1  6
  7 16  1  0
  8 17  1  0
  8 18  1  0
  9 19  1  0
  9 20  1  0
 10 21  1  0
 11 22  1  0
 11 23  1  0
 12 24  1  0
M  END
$$$$

     RDKit          3D

 24 24  0  0  0  0  0  0  0  0999 V2000
   -4.0483    1.4787    0.9854 O   0  0  0  0  0  0  0  0  0  0  0  0
   -3.2518    0.6719    0.4446 C   0  0  0  0  0  0  0  0  0  0  0  0
   -1.8281    0.4991    0.8270 C   0  0  0  0  0  0  0  0  0  0  0  0
   -1.2468   -0.0591   -0.4766 C   0  0  1  0  0  0  0  0  0  0  0  0
    0.0537   -0.6987   -0.2794 C   0  0  0  0  0  0  0  0  0  0  0  0
    0.2388   -1.9072   -0.5540 O   0  0  0  0  0  0  0  0  0  0  0  0
    1.1229    0.0924    0.2395 N   0  0  0  0  0  0  0  0  0  0  0  0
    2.4444   -0.4598    0.4664 C   0  0  0  0  0  0  0  0  0  0  0  0
    3.3444    0.6090    1.0122 C   0  0  0  0  0  0  0  0  0  0  0  0
    4.6319    0.1501    1.2546 O   0  0  0  0  0  0  0  0  0  0  0  0
   -2.3288   -0.9862   -0.9199 C   0  0  0  0  0  0  0  0  0  0  0  0
   -3.5304   -0.2271   -0.6217 N   0  0  0  0  0  0  0  0  0  0  0  0
   -1.6951   -0.3066    1.5843 H   0  0  0  0  0  0  0  0  0  0  0  0
   -1.3358    1.4402    1.1067 H   0  0  0  0  0  0  0  0  0  0  0  0
   -1.1792    0.7672   -1.2229 H   0  0  0  0  0  0  0  0  0  0  0  0
    0.9332    1.1143    0.4623 H   0  0  0  0  0  0  0  0  0  0  0  0
    2.8118   -0.8302   -0.4941 H   0  0  0  0  0  0  0  0  0  0  0  0
    2.3420   -1.2407    1.2452 H   0  0  0  0  0  0  0  0  0  0  0  0
    3.4000    1.4121    0.2310 H   0  0  0  0  0  0  0  0  0  0  0  0
    2.9134    1.0890    1.9092 H   0  0  0  0  0  0  0  0  0  0  0  0
    5.2573    0.8842    1.0525 H   0  0  0  0  0  0  0  0  0  0  0  0
   -2.2563   -1.2578   -1.9939 H   0  0  0  0  0  0  0  0  0  0  0  0
   -2.3461   -1.9105   -0.3052 H   0  0  0  0  0  0  0  0  0  0  0  0
   -4.4469   -0.3242   -1.1084 H   0  0  0  0  0  0  0  0  0  0  0  0
  1  2  2  0
  2  3  1  0
  3  4  1  0
  4  5  1  0
  5  6  2  0
  5  7  1  0
  7  8  1  0
  8  9  1  0
  9 10  1  0
  4 11  1  0
 11 12  1  0
 12  2  1  0
  3 13  1  0
  3 14  1  0
  4 15  1  6
  7 16  1  0
  8 17  1  0
  8 18  1  0
  9 19  1  0
  9 20  1  0
 10 21  1  0
 11 22  1  0
 11 23  1  0
 12 24  1  0
M  END
$$$$

     RDKit          3D

 24 24  0  0  0  0  0  0  0  0999 V2000
   -2.6306   -0.9709    2.0929 O   0  0  0  0  0  0  0  0  0  0  0  0
   -2.4458   -0.4059    0.9743 C   0  0  0  0  0  0  0  0  0  0  0  0
   -1.7719    0.9022    0.7638 C   0  0  0  0  0  0  0  0  0  0  0  0
   -1.2794    0.7573   -0.6605 C   0  0  1  0  0  0  0  0  0  0  0  0
   -0.1130   -0.1734   -0.7409 C   0  0  0  0  0  0  0  0  0  0  0  0
   -0.1729   -1.2244   -1.4433 O   0  0  0  0  0  0  0  0  0  0  0  0
    1.0691    0.1297   -0.0212 N   0  0  0  0  0  0  0  0  0  0  0  0
    2.2105   -0.7387   -0.0727 C   0  0  0  0  0  0  0  0  0  0  0  0
    3.3399   -0.1957    0.7779 C   0  0  0  0  0  0  0  0  0  0  0  0
    3.7062    1.0579    0.3049 O   0  0  0  0  0  0  0  0  0  0  0  0
   -2.4916    0.1096   -1.3020 C   0  0  0  0  0  0  0  0  0  0  0  0
   -2.8356   -0.8897   -0.3071 N   0  0  0  0  0  0  0  0  0  0  0  0
   -2.5386    1.6790    0.7867 H   0  0  0  0  0  0  0  0  0  0  0  0
   -0.9436    1.0676    1.4782 H   0  0  0  0  0  0  0  0  0  0  0  0
   -1.0388    1.7321   -1.1225 H   0  0  0  0  0  0  0  0  0  0  0  0
    1.0864    1.0008    0.5466 H   0  0  0  0  0  0  0  0  0  0  0  0
    2.5944   -0.7837   -1.1268 H   0  0  0  0  0  0  0  0  0  0  0  0
    1.9333   -1.7643    0.2179 H   0  0  0  0  0  0  0  0  0  0  0  0
    3.0129   -0.0984    1.8341 H   0  0  0  0  0  0  0  0  0  0  0  0
    4.2064   -0.8927    0.7040 H   0  0  0  0  0  0  0  0  0  0  0  0
    3.9544    1.0358   -0.6370 H   0  0  0  0  0  0  0  0  0  0  0  0
   -2.2418   -0.3444   -2.2805 H   0  0  0  0  0  0  0  0  0  0  0  0
   -3.3205    0.8202   -1.3577 H   0  0  0  0  0  0  0  0  0  0  0  0
   -3.2893   -1.8100   -0.4721 H   0  0  0  0  0  0  0  0  0  0  0  0
  1  2  2  0
  2  3  1  0
  3  4  1  0
  4  5  1  0
  5  6  2  0
  5  7  1  0
  7  8  1  0
  8  9  1  0
  9 10  1  0
  4 11  1  0
 11 12  1  0
 12  2  1  0
  3 13  1  0
  3 14  1  0
  4 15  1  6
  7 16  1  0
  8 17  1  0
  8 18  1  0
  9 19  1  0
  9 20  1  0
 10 21  1  0
 11 22  1  0
 11 23  1  0
 12 24  1  0
M  END
$$$$

     RDKit          3D

 24 24  0  0  0  0  0  0  0  0999 V2000
   -2.7490    2.4282   -0.3957 O   0  0  0  0  0  0  0  0  0  0  0  0
   -2.6106    1.1820   -0.2131 C   0  0  0  0  0  0  0  0  0  0  0  0
   -1.6027    0.3592   -0.8969 C   0  0  0  0  0  0  0  0  0  0  0  0
   -1.3813   -0.7701    0.0943 C   0  0  1  0  0  0  0  0  0  0  0  0
   -0.0980   -0.4983    0.7776 C   0  0  0  0  0  0  0  0  0  0  0  0
   -0.1006   -0.3528    2.0233 O   0  0  0  0  0  0  0  0  0  0  0  0
    1.1157   -0.4024    0.0491 N   0  0  0  0  0  0  0  0  0  0  0  0
    2.3467   -0.1344    0.7670 C   0  0  0  0  0  0  0  0  0  0  0  0
    3.5048   -0.0788   -0.2341 C   0  0  0  0  0  0  0  0  0  0  0  0
    3.2436    0.9401   -1.1435 O   0  0  0  0  0  0  0  0  0  0  0  0
   -2.4994   -0.7185    1.0765 C   0  0  0  0  0  0  0  0  0  0  0  0
   -3.3529    0.3505    0.6410 N   0  0  0  0  0  0  0  0  0  0  0  0
   -0.6879    0.9714   -1.0344 H   0  0  0  0  0  0  0  0  0  0  0  0
   -2.0155   -0.0248   -1.8506 H   0  0  0  0  0  0  0  0  0  0  0  0
   -1.3540   -1.7488   -0.4275 H   0  0  0  0  0  0  0  0  0  0  0  0
    1.1182   -0.5225   -0.9799 H   0  0  0  0  0  0  0  0  0  0  0  0
    2.5279   -0.9193    1.5247 H   0  0  0  0  0  0  0  0  0  0  0  0
    2.2754    0.8833    1.2367 H   0  0  0  0  0  0  0  0  0  0  0  0
    4.4124    0.1031    0.3520 H   0  0  0  0  0  0  0  0  0  0  0  0
    3.5540   -1.0300   -0.7991 H   0  0  0  0  0  0  0  0  0  0  0  0
    3.9276    1.6497   -1.0404 H   0  0  0  0  0  0  0  0  0  0  0  0
   -2.1696   -0.4732    2.1185 H   0  0  0  0  0  0  0  0  0  0  0  0
   -3.0392   -1.6915    1.1524 H   0  0  0  0  0  0  0  0  0  0  0  0
   -4.3656    0.4977    0.9093 H   0  0  0  0  0  0  0  0  0  0  0  0
  1  2  2  0
  2  3  1  0
  3  4  1  0
  4  5  1  0
  5  6  2  0
  5  7  1  0
  7  8  1  0
  8  9  1  0
  9 10  1  0
  4 11  1  0
 11 12  1  0
 12  2  1  0
  3 13  1  0
  3 14  1  0
  4 15  1  6
  7 16  1  0
  8 17  1  0
  8 18  1  0
  9 19  1  0
  9 20  1  0
 10 21  1  0
 11 22  1  0
 11 23  1  0
 12 24  1  0
M  END
$$$$

     RDKit          3D

 24 24  0  0  0  0  0  0  0  0999 V2000
   -4.1154   -0.4236   -1.6231 O   0  0  0  0  0  0  0  0  0  0  0  0
   -3.2118   -0.1014   -0.8191 C   0  0  0  0  0  0  0  0  0  0  0  0
   -1.7327   -0.3251   -0.9900 C   0  0  0  0  0  0  0  0  0  0  0  0
   -1.2919   -0.4310    0.4480 C   0  0  1  0  0  0  0  0  0  0  0  0
    0.1554   -0.1366    0.6197 C   0  0  0  0  0  0  0  0  0  0  0  0
    0.5294    0.8116    1.3543 O   0  0  0  0  0  0  0  0  0  0  0  0
    1.1538   -0.9065   -0.0318 N   0  0  0  0  0  0  0  0  0  0  0  0
    2.5676   -0.6629    0.1005 C   0  0  0  0  0  0  0  0  0  0  0  0
    2.9943    0.7043   -0.3576 C   0  0  0  0  0  0  0  0  0  0  0  0
    4.3746    0.7885   -0.1695 O   0  0  0  0  0  0  0  0  0  0  0  0
   -2.1192    0.5988    1.1569 C   0  0  0  0  0  0  0  0  0  0  0  0
   -3.3782    0.5448    0.4298 N   0  0  0  0  0  0  0  0  0  0  0  0
   -1.5200   -1.2396   -1.5626 H   0  0  0  0  0  0  0  0  0  0  0  0
   -1.2611    0.5844   -1.4526 H   0  0  0  0  0  0  0  0  0  0  0  0
   -1.5810   -1.4234    0.8169 H   0  0  0  0  0  0  0  0  0  0  0  0
    0.7919   -1.6978   -0.6423 H   0  0  0  0  0  0  0  0  0  0  0  0
    3.1071   -1.4146   -0.5181 H   0  0  0  0  0  0  0  0  0  0  0  0
    2.9151   -0.7712    1.1500 H   0  0  0  0  0  0  0  0  0  0  0  0
    2.4562    1.4612    0.2137 H   0  0  0  0  0  0  0  0  0  0  0  0
    2.7833    0.7926   -1.4541 H   0  0  0  0  0  0  0  0  0  0  0  0
    4.5928    0.4219    0.7079 H   0  0  0  0  0  0  0  0  0  0  0  0
   -1.6571    1.6028    1.0643 H   0  0  0  0  0  0  0  0  0  0  0  0
   -2.2881    0.2929    2.2091 H   0  0  0  0  0  0  0  0  0  0  0  0
   -4.2650    0.9300    0.7888 H   0  0  0  0  0  0  0  0  0  0  0  0
  1  2  2  0
  2  3  1  0
  3  4  1  0
  4  5  1  0
  5  6  2  0
  5  7  1  0
  7  8  1  0
  8  9  1  0
  9 10  1  0
  4 11  1  0
 11 12  1  0
 12  2  1  0
  3 13  1  0
  3 14  1  0
  4 15  1  1
  7 16  1  0
  8 17  1  0
  8 18  1  0
  9 19  1  0
  9 20  1  0
 10 21  1  0
 11 22  1  0
 11 23  1  0
 12 24  1  0
M  END
$$$$

     RDKit          3D

 24 24  0  0  0  0  0  0  0  0999 V2000
   -4.8446    0.5279   -0.2682 O   0  0  0  0  0  0  0  0  0  0  0  0
   -3.6379    0.1801   -0.1746 C   0  0  0  0  0  0  0  0  0  0  0  0
   -2.4539    1.0398    0.0840 C   0  0  0  0  0  0  0  0  0  0  0  0
   -1.3367    0.2196   -0.4957 C   0  0  1  0  0  0  0  0  0  0  0  0
   -0.0350    0.5991    0.1203 C   0  0  0  0  0  0  0  0  0  0  0  0
    0.0080    1.5007    1.0007 O   0  0  0  0  0  0  0  0  0  0  0  0
    1.1854   -0.0211   -0.2461 N   0  0  0  0  0  0  0  0  0  0  0  0
    2.4463    0.3870    0.3898 C   0  0  0  0  0  0  0  0  0  0  0  0
    3.5867   -0.4259   -0.1783 C   0  0  0  0  0  0  0  0  0  0  0  0
    4.7661   -0.0186    0.4412 O   0  0  0  0  0  0  0  0  0  0  0  0
   -1.7311   -1.1992   -0.1730 C   0  0  0  0  0  0  0  0  0  0  0  0
   -3.1746   -1.1601   -0.3061 N   0  0  0  0  0  0  0  0  0  0  0  0
   -2.3249    1.1877    1.1901 H   0  0  0  0  0  0  0  0  0  0  0  0
   -2.5733    2.0272   -0.3834 H   0  0  0  0  0  0  0  0  0  0  0  0
   -1.3499    0.3382   -1.5825 H   0  0  0  0  0  0  0  0  0  0  0  0
    1.1498   -0.7634   -0.9709 H   0  0  0  0  0  0  0  0  0  0  0  0
    2.3544    0.2512    1.4813 H   0  0  0  0  0  0  0  0  0  0  0  0
    2.6279    1.4528    0.1738 H   0  0  0  0  0  0  0  0  0  0  0  0
    3.6693   -0.1609   -1.2661 H   0  0  0  0  0  0  0  0  0  0  0  0
    3.4107   -1.5076   -0.1127 H   0  0  0  0  0  0  0  0  0  0  0  0
    4.7034    0.9326    0.6714 H   0  0  0  0  0  0  0  0  0  0  0  0
   -1.4257   -1.4605    0.8575 H   0  0  0  0  0  0  0  0  0  0  0  0
   -1.2711   -1.9123   -0.9032 H   0  0  0  0  0  0  0  0  0  0  0  0
   -3.7493   -2.0143   -0.4732 H   0  0  0  0  0  0  0  0  0  0  0  0
  1  2  2  0
  2  3  1  0
  3  4  1  0
  4  5  1  0
  5  6  2  0
  5  7  1  0
  7  8  1  0
  8  9  1  0
  9 10  1  0
  4 11  1  0
 11 12  1  0
 12  2  1  0
  3 13  1  0
  3 14  1  0
  4 15  1  6
  7 16  1  0
  8 17  1  0
  8 18  1  0
  9 19  1  0
  9 20  1  0
 10 21  1  0
 11 22  1  0
 11 23  1  0
 12 24  1  0
M  END
$$$$

     RDKit          3D

 24 24  0  0  0  0  0  0  0  0999 V2000
   -4.4147    0.3976   -1.0407 O   0  0  0  0  0  0  0  0  0  0  0  0
   -3.3143    0.1158   -0.5085 C   0  0  0  0  0  0  0  0  0  0  0  0
   -1.9960   -0.1007   -1.1606 C   0  0  0  0  0  0  0  0  0  0  0  0
   -1.1504   -0.7921   -0.1286 C   0  0  1  0  0  0  0  0  0  0  0  0
    0.1289   -0.1265    0.1307 C   0  0  0  0  0  0  0  0  0  0  0  0
    0.3693    0.2802    1.2963 O   0  0  0  0  0  0  0  0  0  0  0  0
    1.1272    0.0959   -0.8451 N   0  0  0  0  0  0  0  0  0  0  0  0
    2.3459    0.7600   -0.4739 C   0  0  0  0  0  0  0  0  0  0  0  0
    3.1481    0.0685    0.5807 C   0  0  0  0  0  0  0  0  0  0  0  0
    4.2927    0.8702    0.8003 O   0  0  0  0  0  0  0  0  0  0  0  0
   -1.9560   -0.8354    1.1463 C   0  0  0  0  0  0  0  0  0  0  0  0
   -3.1474   -0.0511    0.8956 N   0  0  0  0  0  0  0  0  0  0  0  0
   -1.5584    0.8153   -1.5538 H   0  0  0  0  0  0  0  0  0  0  0  0
   -2.1847   -0.7761   -2.0267 H   0  0  0  0  0  0  0  0  0  0  0  0
   -0.9481   -1.8361   -0.4674 H   0  0  0  0  0  0  0  0  0  0  0  0
    0.9663   -0.2228   -1.8139 H   0  0  0  0  0  0  0  0  0  0  0  0
    2.1514    1.8042   -0.0909 H   0  0  0  0  0  0  0  0  0  0  0  0
    2.9947    0.9120   -1.3634 H   0  0  0  0  0  0  0  0  0  0  0  0
    3.4786   -0.9464    0.2721 H   0  0  0  0  0  0  0  0  0  0  0  0
    2.6546   -0.0264    1.5601 H   0  0  0  0  0  0  0  0  0  0  0  0
    4.4252    1.5219    0.0855 H   0  0  0  0  0  0  0  0  0  0  0  0
   -1.4266   -0.3559    1.9922 H   0  0  0  0  0  0  0  0  0  0  0  0
   -2.2193   -1.8929    1.4200 H   0  0  0  0  0  0  0  0  0  0  0  0
   -3.7669    0.3207    1.6309 H   0  0  0  0  0  0  0  0  0  0  0  0
  1  2  2  0
  2  3  1  0
  3  4  1  0
  4  5  1  0
  5  6  2  0
  5  7  1  0
  7  8  1  0
  8  9  1  0
  9 10  1  0
  4 11  1  0
 11 12  1  0
 12  2  1  0
  3 13  1  0
  3 14  1  0
  4 15  1  6
  7 16  1  0
  8 17  1  0
  8 18  1  0
  9 19  1  0
  9 20  1  0
 10 21  1  0
 11 22  1  0
 11 23  1  0
 12 24  1  0
M  END
$$$$

     RDKit          3D

 24 24  0  0  0  0  0  0  0  0999 V2000
   -3.8821    1.9988    0.8633 O   0  0  0  0  0  0  0  0  0  0  0  0
   -3.1429    1.0984    0.4263 C   0  0  0  0  0  0  0  0  0  0  0  0
   -1.6601    0.9194    0.6289 C   0  0  0  0  0  0  0  0  0  0  0  0
   -1.2962    0.1544   -0.6199 C   0  0  1  0  0  0  0  0  0  0  0  0
   -0.0452   -0.5833   -0.5190 C   0  0  0  0  0  0  0  0  0  0  0  0
   -0.0887   -1.8490   -0.6821 O   0  0  0  0  0  0  0  0  0  0  0  0
    1.2197    0.0100   -0.2518 N   0  0  0  0  0  0  0  0  0  0  0  0
    2.3800   -0.8372   -0.1786 C   0  0  0  0  0  0  0  0  0  0  0  0
    3.6459   -0.0719    0.1101 C   0  0  0  0  0  0  0  0  0  0  0  0
    3.9397    0.8732   -0.8383 O   0  0  0  0  0  0  0  0  0  0  0  0
   -2.4522   -0.8122   -0.7291 C   0  0  0  0  0  0  0  0  0  0  0  0
   -3.5963    0.0122   -0.3923 N   0  0  0  0  0  0  0  0  0  0  0  0
   -1.4758    0.3287    1.5298 H   0  0  0  0  0  0  0  0  0  0  0  0
   -1.2191    1.9238    0.6286 H   0  0  0  0  0  0  0  0  0  0  0  0
   -1.3574    0.8254   -1.4998 H   0  0  0  0  0  0  0  0  0  0  0  0
    1.2529    1.0380   -0.1197 H   0  0  0  0  0  0  0  0  0  0  0  0
    2.1844   -1.6303    0.5595 H   0  0  0  0  0  0  0  0  0  0  0  0
    2.4623   -1.3535   -1.1686 H   0  0  0  0  0  0  0  0  0  0  0  0
    4.4602   -0.8219    0.2331 H   0  0  0  0  0  0  0  0  0  0  0  0
    3.5099    0.3774    1.1366 H   0  0  0  0  0  0  0  0  0  0  0  0
    4.6605    1.4592   -0.4505 H   0  0  0  0  0  0  0  0  0  0  0  0
   -2.3897   -1.5931    0.0835 H   0  0  0  0  0  0  0  0  0  0  0  0
   -2.5399   -1.2696   -1.7306 H   0  0  0  0  0  0  0  0  0  0  0  0
   -4.5700   -0.1969   -0.7195 H   0  0  0  0  0  0  0  0  0  0  0  0
  1  2  2  0
  2  3  1  0
  3  4  1  0
  4  5  1  0
  5  6  2  0
  5  7  1  0
  7  8  1  0
  8  9  1  0
  9 10  1  0
  4 11  1  0
 11 12  1  0
 12  2  1  0
  3 13  1  0
  3 14  1  0
  4 15  1  6
  7 16  1  0
  8 17  1  0
  8 18  1  0
  9 19  1  0
  9 20  1  0
 10 21  1  0
 11 22  1  0
 11 23  1  0
 12 24  1  0
M  END
$$$$
