
     RDKit          3D

 28 28  0  0  0  0  0  0  0  0999 V2000
    4.2029   -0.4456   -0.2688 N   0  0  0  0  0  0  0  0  0  0  0  0
    3.1605    0.4299   -0.6802 C   0  0  0  0  0  0  0  0  0  0  0  0
    3.3977    1.1958   -1.6501 O   0  0  0  0  0  0  0  0  0  0  0  0
    1.8296    0.4566   -0.0030 C   0  0  2  0  0  0  0  0  0  0  0  0
    1.8291   -0.5172    1.0697 N   0  0  0  0  0  0  0  0  0  0  0  0
    0.8070    0.0617   -1.0506 C   0  0  0  0  0  0  0  0  0  0  0  0
   -0.5304    0.0451   -0.5340 N   0  0  0  0  0  0  0  0  0  0  0  0
   -1.3333    1.2372   -0.5950 C   0  0  0  0  0  0  0  0  0  0  0  0
   -2.7666    0.7671   -0.8790 C   0  0  0  0  0  0  0  0  0  0  0  0
   -3.2581    0.0668    0.3483 C   0  0  0  0  0  0  0  0  0  0  0  0
   -2.3329   -1.0073    0.8435 C   0  0  0  0  0  0  0  0  0  0  0  0
   -1.0878   -1.1166    0.0378 C   0  0  0  0  0  0  0  0  0  0  0  0
   -0.5433   -2.2623   -0.1231 O   0  0  0  0  0  0  0  0  0  0  0  0
    4.1024   -1.4740   -0.4300 H   0  0  0  0  0  0  0  0  0  0  0  0
    5.0657   -0.0886    0.1900 H   0  0  0  0  0  0  0  0  0  0  0  0
    1.6065    1.4551    0.4231 H   0  0  0  0  0  0  0  0  0  0  0  0
    2.2012   -1.4212    0.6638 H   0  0  0  0  0  0  0  0  0  0  0  0
    2.5720   -0.2199    1.7662 H   0  0  0  0  0  0  0  0  0  0  0  0
    1.1383   -0.9394   -1.4409 H   0  0  0  0  0  0  0  0  0  0  0  0
    0.9394    0.7643   -1.9011 H   0  0  0  0  0  0  0  0  0  0  0  0
   -1.3124    1.7764    0.3747 H   0  0  0  0  0  0  0  0  0  0  0  0
   -1.0061    1.9330   -1.3891 H   0  0  0  0  0  0  0  0  0  0  0  0
   -2.6851    0.0754   -1.7499 H   0  0  0  0  0  0  0  0  0  0  0  0
   -3.4225    1.5982   -1.1249 H   0  0  0  0  0  0  0  0  0  0  0  0
   -4.2680   -0.3944    0.1420 H   0  0  0  0  0  0  0  0  0  0  0  0
   -3.4019    0.8463    1.1384 H   0  0  0  0  0  0  0  0  0  0  0  0
   -2.8564   -1.9970    0.8646 H   0  0  0  0  0  0  0  0  0  0  0  0
   -2.0475   -0.8255    1.9192 H   0  0  0  0  0  0  0  0  0  0  0  0
  1  2  1  0
  2  3  2  0
  2  4  1  0
  4  5  1  0
  4  6  1  0
  6  7  1  0
  7  8  1  0
  8  9  1  0
  9 10  1  0
 10 11  1  0
 11 12  1  0
 12 13  2  0
 12  7  1  0
  1 14  1  0
  1 15  1  0
  4 16  1  1
  5 17  1  0
  5 18  1  0
  6 19  1  0
  6 20  1  0
  8 21  1  0
  8 22  1  0
  9 23  1  0
  9 24  1  0
 10 25  1  0
 10 26  1  0
 11 27  1  0
 11 28  1  0
M  END
$$$$

     RDKit          3D

 28 28  0  0  0  0  0  0  0  0999 V2000
   -2.1175    1.3272   -0.4079 N   0  0  0  0  0  0  0  0  0  0  0  0
   -2.6673    0.0657   -0.0643 C   0  0  0  0  0  0  0  0  0  0  0  0
   -3.7758    0.0381    0.5067 O   0  0  0  0  0  0  0  0  0  0  0  0
   -1.9418   -1.1510   -0.3795 C   0  0  2  0  0  0  0  0  0  0  0  0
   -2.8155   -2.2766    0.0169 N   0  0  0  0  0  0  0  0  0  0  0  0
   -0.6516   -1.3867    0.2976 C   0  0  0  0  0  0  0  0  0  0  0  0
    0.4023   -0.4677    0.1335 N   0  0  0  0  0  0  0  0  0  0  0  0
    0.7058    0.6743    0.9576 C   0  0  0  0  0  0  0  0  0  0  0  0
    1.2858    1.7691    0.0902 C   0  0  0  0  0  0  0  0  0  0  0  0
    2.6227    1.3809   -0.4947 C   0  0  0  0  0  0  0  0  0  0  0  0
    2.6287   -0.0261   -1.0199 C   0  0  0  0  0  0  0  0  0  0  0  0
    1.3011   -0.6821   -0.9727 C   0  0  0  0  0  0  0  0  0  0  0  0
    0.9822   -1.4315   -1.9270 O   0  0  0  0  0  0  0  0  0  0  0  0
   -1.8415    1.5667   -1.4056 H   0  0  0  0  0  0  0  0  0  0  0  0
   -1.9520    2.0912    0.2946 H   0  0  0  0  0  0  0  0  0  0  0  0
   -1.8074   -1.3161   -1.4834 H   0  0  0  0  0  0  0  0  0  0  0  0
   -2.2877   -3.1344   -0.2177 H   0  0  0  0  0  0  0  0  0  0  0  0
   -2.8596   -2.2217    1.0600 H   0  0  0  0  0  0  0  0  0  0  0  0
   -0.8742   -1.5458    1.3995 H   0  0  0  0  0  0  0  0  0  0  0  0
   -0.2991   -2.4038   -0.0290 H   0  0  0  0  0  0  0  0  0  0  0  0
   -0.1220    1.1042    1.5100 H   0  0  0  0  0  0  0  0  0  0  0  0
    1.5401    0.3372    1.6427 H   0  0  0  0  0  0  0  0  0  0  0  0
    1.4540    2.6479    0.7731 H   0  0  0  0  0  0  0  0  0  0  0  0
    0.5532    2.0567   -0.6736 H   0  0  0  0  0  0  0  0  0  0  0  0
    3.3810    1.5523    0.2844 H   0  0  0  0  0  0  0  0  0  0  0  0
    2.8200    2.0905   -1.3300 H   0  0  0  0  0  0  0  0  0  0  0  0
    3.0333   -0.0390   -2.0383 H   0  0  0  0  0  0  0  0  0  0  0  0
    3.3027   -0.6197   -0.3548 H   0  0  0  0  0  0  0  0  0  0  0  0
  1  2  1  0
  2  3  2  0
  2  4  1  0
  4  5  1  0
  4  6  1  0
  6  7  1  0
  7  8  1  0
  8  9  1  0
  9 10  1  0
 10 11  1  0
 11 12  1  0
 12 13  2  0
 12  7  1  0
  1 14  1  0
  1 15  1  0
  4 16  1  6
  5 17  1  0
  5 18  1  0
  6 19  1  0
  6 20  1  0
  8 21  1  0
  8 22  1  0
  9 23  1  0
  9 24  1  0
 10 25  1  0
 10 26  1  0
 11 27  1  0
 11 28  1  0
M  END
$$$$

     RDKit          3D

 28 28  0  0  0  0  0  0  0  0999 V2000
    4.2157   -0.1727   -0.1116 N   0  0  0  0  0  0  0  0  0  0  0  0
    3.1498    0.6173   -0.6029 C   0  0  0  0  0  0  0  0  0  0  0  0
    3.3759    1.4169   -1.5401 O   0  0  0  0  0  0  0  0  0  0  0  0
    1.8062    0.5149   -0.0399 C   0  0  2  0  0  0  0  0  0  0  0  0
    1.7186   -0.4473    1.0256 N   0  0  0  0  0  0  0  0  0  0  0  0
    0.7719    0.0924   -1.0921 C   0  0  0  0  0  0  0  0  0  0  0  0
   -0.4914    0.0289   -0.4213 N   0  0  0  0  0  0  0  0  0  0  0  0
   -1.0185   -1.1574    0.2303 C   0  0  0  0  0  0  0  0  0  0  0  0
   -2.4887   -1.2296   -0.2023 C   0  0  0  0  0  0  0  0  0  0  0  0
   -3.2543   -0.1141    0.4712 C   0  0  0  0  0  0  0  0  0  0  0  0
   -2.4667    1.1559    0.5618 C   0  0  0  0  0  0  0  0  0  0  0  0
   -1.3104    1.1940   -0.3731 C   0  0  0  0  0  0  0  0  0  0  0  0
   -1.0259    2.1660   -1.0990 O   0  0  0  0  0  0  0  0  0  0  0  0
    4.9812   -0.4499   -0.7553 H   0  0  0  0  0  0  0  0  0  0  0  0
    4.2483   -0.4811    0.8800 H   0  0  0  0  0  0  0  0  0  0  0  0
    1.4854    1.4983    0.3827 H   0  0  0  0  0  0  0  0  0  0  0  0
    2.0818   -1.3924    0.7196 H   0  0  0  0  0  0  0  0  0  0  0  0
    2.2360   -0.1592    1.8926 H   0  0  0  0  0  0  0  0  0  0  0  0
    0.7008    0.8259   -1.9078 H   0  0  0  0  0  0  0  0  0  0  0  0
    1.0853   -0.9163   -1.4684 H   0  0  0  0  0  0  0  0  0  0  0  0
   -1.0440   -1.0146    1.3398 H   0  0  0  0  0  0  0  0  0  0  0  0
   -0.4727   -2.0667   -0.0296 H   0  0  0  0  0  0  0  0  0  0  0  0
   -2.8771   -2.2201    0.0263 H   0  0  0  0  0  0  0  0  0  0  0  0
   -2.5644   -1.0594   -1.3011 H   0  0  0  0  0  0  0  0  0  0  0  0
   -4.1864    0.1118   -0.1005 H   0  0  0  0  0  0  0  0  0  0  0  0
   -3.5000   -0.4762    1.5058 H   0  0  0  0  0  0  0  0  0  0  0  0
   -2.0546    1.2693    1.6058 H   0  0  0  0  0  0  0  0  0  0  0  0
   -3.1019    2.0517    0.4033 H   0  0  0  0  0  0  0  0  0  0  0  0
  1  2  1  0
  2  3  2  0
  2  4  1  0
  4  5  1  0
  4  6  1  0
  6  7  1  0
  7  8  1  0
  8  9  1  0
  9 10  1  0
 10 11  1  0
 11 12  1  0
 12 13  2  0
 12  7  1  0
  1 14  1  0
  1 15  1  0
  4 16  1  1
  5 17  1  0
  5 18  1  0
  6 19  1  0
  6 20  1  0
  8 21  1  0
  8 22  1  0
  9 23  1  0
  9 24  1  0
 10 25  1  0
 10 26  1  0
 11 27  1  0
 11 28  1  0
M  END
$$$$

     RDKit          3D

 28 28  0  0  0  0  0  0  0  0999 V2000
    3.9281    0.6575   -0.4036 N   0  0  0  0  0  0  0  0  0  0  0  0
    3.2631   -0.4007    0.2597 C   0  0  0  0  0  0  0  0  0  0  0  0
    3.8774   -1.4443    0.5831 O   0  0  0  0  0  0  0  0  0  0  0  0
    1.8374   -0.2737    0.5722 C   0  0  2  0  0  0  0  0  0  0  0  0
    1.3802   -1.4708    1.2457 N   0  0  0  0  0  0  0  0  0  0  0  0
    1.0927   -0.1048   -0.7593 C   0  0  0  0  0  0  0  0  0  0  0  0
   -0.3341    0.0290   -0.5444 N   0  0  0  0  0  0  0  0  0  0  0  0
   -0.8622    1.3626   -0.3577 C   0  0  0  0  0  0  0  0  0  0  0  0
   -2.0972    1.3847    0.5044 C   0  0  0  0  0  0  0  0  0  0  0  0
   -3.1221    0.3720    0.0246 C   0  0  0  0  0  0  0  0  0  0  0  0
   -2.5903   -1.0247    0.0478 C   0  0  0  0  0  0  0  0  0  0  0  0
   -1.2138   -1.0802   -0.5115 C   0  0  0  0  0  0  0  0  0  0  0  0
   -0.7639   -2.1680   -0.9975 O   0  0  0  0  0  0  0  0  0  0  0  0
    3.5981    0.9844   -1.3343 H   0  0  0  0  0  0  0  0  0  0  0  0
    4.7615    1.1419    0.0097 H   0  0  0  0  0  0  0  0  0  0  0  0
    1.6085    0.5970    1.2180 H   0  0  0  0  0  0  0  0  0  0  0  0
    1.5010   -2.2949    0.6086 H   0  0  0  0  0  0  0  0  0  0  0  0
    0.3634   -1.3852    1.5005 H   0  0  0  0  0  0  0  0  0  0  0  0
    1.3601   -0.9755   -1.3718 H   0  0  0  0  0  0  0  0  0  0  0  0
    1.4546    0.8009   -1.2728 H   0  0  0  0  0  0  0  0  0  0  0  0
   -0.0991    2.0036    0.1607 H   0  0  0  0  0  0  0  0  0  0  0  0
   -1.1108    1.8167   -1.3545 H   0  0  0  0  0  0  0  0  0  0  0  0
   -2.5709    2.3759    0.4168 H   0  0  0  0  0  0  0  0  0  0  0  0
   -1.8717    1.1760    1.5548 H   0  0  0  0  0  0  0  0  0  0  0  0
   -3.9658    0.4196    0.7628 H   0  0  0  0  0  0  0  0  0  0  0  0
   -3.5424    0.6357   -0.9682 H   0  0  0  0  0  0  0  0  0  0  0  0
   -3.2356   -1.6377   -0.6426 H   0  0  0  0  0  0  0  0  0  0  0  0
   -2.6462   -1.4971    1.0489 H   0  0  0  0  0  0  0  0  0  0  0  0
  1  2  1  0
  2  3  2  0
  2  4  1  0
  4  5  1  0
  4  6  1  0
  6  7  1  0
  7  8  1  0
  8  9  1  0
  9 10  1  0
 10 11  1  0
 11 12  1  0
 12 13  2  0
 12  7  1  0
  1 14  1  0
  1 15  1  0
  4 16  1  1
  5 17  1  0
  5 18  1  0
  6 19  1  0
  6 20  1  0
  8 21  1  0
  8 22  1  0
  9 23  1  0
  9 24  1  0
 10 25  1  0
 10 26  1  0
 11 27  1  0
 11 28  1  0
M  END
$$$$

     RDKit          3D

 28 28  0  0  0  0  0  0  0  0999 V2000
   -1.7366   -0.9086    1.2575 N   0  0  0  0  0  0  0  0  0  0  0  0
   -2.4918   -0.4975    0.1387 C   0  0  0  0  0  0  0  0  0  0  0  0
   -3.5298   -1.1394   -0.1311 O   0  0  0  0  0  0  0  0  0  0  0  0
   -2.0485    0.6563   -0.6698 C   0  0  2  0  0  0  0  0  0  0  0  0
   -3.0395    0.8427   -1.7348 N   0  0  0  0  0  0  0  0  0  0  0  0
   -0.7320    0.4412   -1.3671 C   0  0  0  0  0  0  0  0  0  0  0  0
    0.3688    0.1768   -0.4839 N   0  0  0  0  0  0  0  0  0  0  0  0
    1.1558    1.2641    0.0334 C   0  0  0  0  0  0  0  0  0  0  0  0
    2.5978    0.7377    0.0915 C   0  0  0  0  0  0  0  0  0  0  0  0
    2.7024   -0.3488    1.1155 C   0  0  0  0  0  0  0  0  0  0  0  0
    1.5546   -1.3078    1.1188 C   0  0  0  0  0  0  0  0  0  0  0  0
    0.7167   -1.1357   -0.0955 C   0  0  0  0  0  0  0  0  0  0  0  0
    0.3322   -2.1559   -0.7551 O   0  0  0  0  0  0  0  0  0  0  0  0
   -1.3038   -0.1838    1.8517 H   0  0  0  0  0  0  0  0  0  0  0  0
   -1.5807   -1.9008    1.5326 H   0  0  0  0  0  0  0  0  0  0  0  0
   -2.0626    1.6085   -0.0917 H   0  0  0  0  0  0  0  0  0  0  0  0
   -2.8362    0.0843   -2.4389 H   0  0  0  0  0  0  0  0  0  0  0  0
   -4.0075    0.8140   -1.3705 H   0  0  0  0  0  0  0  0  0  0  0  0
   -0.9022   -0.4110   -2.0886 H   0  0  0  0  0  0  0  0  0  0  0  0
   -0.5616    1.3352   -2.0048 H   0  0  0  0  0  0  0  0  0  0  0  0
    1.0995    2.1730   -0.5806 H   0  0  0  0  0  0  0  0  0  0  0  0
    0.8737    1.4547    1.1006 H   0  0  0  0  0  0  0  0  0  0  0  0
    2.7783    0.2892   -0.9106 H   0  0  0  0  0  0  0  0  0  0  0  0
    3.3046    1.5556    0.2334 H   0  0  0  0  0  0  0  0  0  0  0  0
    2.8438    0.1361    2.1039 H   0  0  0  0  0  0  0  0  0  0  0  0
    3.6456   -0.9314    0.9225 H   0  0  0  0  0  0  0  0  0  0  0  0
    0.9410   -1.1119    2.0464 H   0  0  0  0  0  0  0  0  0  0  0  0
    1.9181   -2.3569    1.1763 H   0  0  0  0  0  0  0  0  0  0  0  0
  1  2  1  0
  2  3  2  0
  2  4  1  0
  4  5  1  0
  4  6  1  0
  6  7  1  0
  7  8  1  0
  8  9  1  0
  9 10  1  0
 10 11  1  0
 11 12  1  0
 12 13  2  0
 12  7  1  0
  1 14  1  0
  1 15  1  0
  4 16  1  1
  5 17  1  0
  5 18  1  0
  6 19  1  0
  6 20  1  0
  8 21  1  0
  8 22  1  0
  9 23  1  0
  9 24  1  0
 10 25  1  0
 10 26  1  0
 11 27  1  0
 11 28  1  0
M  END
$$$$

     RDKit          3D

 28 28  0  0  0  0  0  0  0  0999 V2000
    3.0908    1.2339   -0.5940 N   0  0  0  0  0  0  0  0  0  0  0  0
    1.8398    0.8814    0.0062 C   0  0  0  0  0  0  0  0  0  0  0  0
    0.8526    1.6016   -0.2844 O   0  0  0  0  0  0  0  0  0  0  0  0
    1.6982   -0.2718    0.9263 C   0  0  2  0  0  0  0  0  0  0  0  0
    2.9959   -0.8851    1.1345 N   0  0  0  0  0  0  0  0  0  0  0  0
    0.8016   -1.3666    0.3640 C   0  0  0  0  0  0  0  0  0  0  0  0
   -0.5289   -0.9294    0.0881 N   0  0  0  0  0  0  0  0  0  0  0  0
   -1.6166   -0.9730    1.0797 C   0  0  0  0  0  0  0  0  0  0  0  0
   -1.9933    0.4686    1.3235 C   0  0  0  0  0  0  0  0  0  0  0  0
   -2.5172    1.0923    0.0704 C   0  0  0  0  0  0  0  0  0  0  0  0
   -2.2378    0.3166   -1.1762 C   0  0  0  0  0  0  0  0  0  0  0  0
   -0.9418   -0.4023   -1.1749 C   0  0  0  0  0  0  0  0  0  0  0  0
   -0.2464   -0.5502   -2.1842 O   0  0  0  0  0  0  0  0  0  0  0  0
    3.1958    1.3249   -1.6289 H   0  0  0  0  0  0  0  0  0  0  0  0
    3.8874    1.3936    0.0602 H   0  0  0  0  0  0  0  0  0  0  0  0
    1.2810    0.1015    1.8690 H   0  0  0  0  0  0  0  0  0  0  0  0
    3.4171   -0.6452    2.0421 H   0  0  0  0  0  0  0  0  0  0  0  0
    3.6161   -0.8125    0.3195 H   0  0  0  0  0  0  0  0  0  0  0  0
    0.7354   -2.2101    1.0799 H   0  0  0  0  0  0  0  0  0  0  0  0
    1.2680   -1.7967   -0.5585 H   0  0  0  0  0  0  0  0  0  0  0  0
   -1.2792   -1.4791    2.0009 H   0  0  0  0  0  0  0  0  0  0  0  0
   -2.4892   -1.4709    0.6154 H   0  0  0  0  0  0  0  0  0  0  0  0
   -2.7136    0.5676    2.1610 H   0  0  0  0  0  0  0  0  0  0  0  0
   -1.0503    1.0137    1.6047 H   0  0  0  0  0  0  0  0  0  0  0  0
   -3.6250    1.1965    0.1991 H   0  0  0  0  0  0  0  0  0  0  0  0
   -2.1077    2.1339   -0.0814 H   0  0  0  0  0  0  0  0  0  0  0  0
   -3.0287   -0.4871   -1.2586 H   0  0  0  0  0  0  0  0  0  0  0  0
   -2.3041    0.9542   -2.0857 H   0  0  0  0  0  0  0  0  0  0  0  0
  1  2  1  0
  2  3  2  0
  2  4  1  0
  4  5  1  0
  4  6  1  0
  6  7  1  0
  7  8  1  0
  8  9  1  0
  9 10  1  0
 10 11  1  0
 11 12  1  0
 12 13  2  0
 12  7  1  0
  1 14  1  0
  1 15  1  0
  4 16  1  1
  5 17  1  0
  5 18  1  0
  6 19  1  0
  6 20  1  0
  8 21  1  0
  8 22  1  0
  9 23  1  0
  9 24  1  0
 10 25  1  0
 10 26  1  0
 11 27  1  0
 11 28  1  0
M  END
$$$$

     RDKit          3D

 28 28  0  0  0  0  0  0  0  0999 V2000
    3.7377    0.9528   -1.1788 N   0  0  0  0  0  0  0  0  0  0  0  0
    3.2692    0.4862    0.0664 C   0  0  0  0  0  0  0  0  0  0  0  0
    4.0735   -0.0179    0.9119 O   0  0  0  0  0  0  0  0  0  0  0  0
    1.8179    0.5783    0.4091 C   0  0  2  0  0  0  0  0  0  0  0  0
    1.5593    0.0461    1.7241 N   0  0  0  0  0  0  0  0  0  0  0  0
    1.0238   -0.2412   -0.5860 C   0  0  0  0  0  0  0  0  0  0  0  0
   -0.3820   -0.1878   -0.3026 N   0  0  0  0  0  0  0  0  0  0  0  0
   -0.9710   -1.1618    0.5735 C   0  0  0  0  0  0  0  0  0  0  0  0
   -2.3382   -1.4907   -0.0435 C   0  0  0  0  0  0  0  0  0  0  0  0
   -3.2101   -0.2759    0.1964 C   0  0  0  0  0  0  0  0  0  0  0  0
   -2.5738    0.9815   -0.2851 C   0  0  0  0  0  0  0  0  0  0  0  0
   -1.2161    0.8012   -0.8629 C   0  0  0  0  0  0  0  0  0  0  0  0
   -0.8346    1.5334   -1.8409 O   0  0  0  0  0  0  0  0  0  0  0  0
    3.0634    1.1933   -1.9219 H   0  0  0  0  0  0  0  0  0  0  0  0
    4.7494    1.0542   -1.3490 H   0  0  0  0  0  0  0  0  0  0  0  0
    1.5574    1.6487    0.3621 H   0  0  0  0  0  0  0  0  0  0  0  0
    2.0412    0.5605    2.4797 H   0  0  0  0  0  0  0  0  0  0  0  0
    1.7867   -0.9706    1.7332 H   0  0  0  0  0  0  0  0  0  0  0  0
    1.2546    0.1319   -1.6051 H   0  0  0  0  0  0  0  0  0  0  0  0
    1.3678   -1.2952   -0.5622 H   0  0  0  0  0  0  0  0  0  0  0  0
   -0.3880   -2.0960    0.6602 H   0  0  0  0  0  0  0  0  0  0  0  0
   -1.1601   -0.6753    1.5522 H   0  0  0  0  0  0  0  0  0  0  0  0
   -2.7471   -2.3985    0.3886 H   0  0  0  0  0  0  0  0  0  0  0  0
   -2.1554   -1.6612   -1.1275 H   0  0  0  0  0  0  0  0  0  0  0  0
   -4.2263   -0.4374   -0.2670 H   0  0  0  0  0  0  0  0  0  0  0  0
   -3.3533   -0.2279    1.3159 H   0  0  0  0  0  0  0  0  0  0  0  0
   -3.2662    1.4617   -1.0302 H   0  0  0  0  0  0  0  0  0  0  0  0
   -2.4797    1.7078    0.5588 H   0  0  0  0  0  0  0  0  0  0  0  0
  1  2  1  0
  2  3  2  0
  2  4  1  0
  4  5  1  0
  4  6  1  0
  6  7  1  0
  7  8  1  0
  8  9  1  0
  9 10  1  0
 10 11  1  0
 11 12  1  0
 12 13  2  0
 12  7  1  0
  1 14  1  0
  1 15  1  0
  4 16  1  1
  5 17  1  0
  5 18  1  0
  6 19  1  0
  6 20  1  0
  8 21  1  0
  8 22  1  0
  9 23  1  0
  9 24  1  0
 10 25  1  0
 10 26  1  0
 11 27  1  0
 11 28  1  0
M  END
$$$$

     RDKit          3D

 28 28  0  0  0  0  0  0  0  0999 V2000
    1.9427   -1.1115    0.4904 N   0  0  0  0  0  0  0  0  0  0  0  0
    2.4241    0.2092    0.3025 C   0  0  0  0  0  0  0  0  0  0  0  0
    3.3946    0.6308    1.0124 O   0  0  0  0  0  0  0  0  0  0  0  0
    1.8414    1.1240   -0.6949 C   0  0  2  0  0  0  0  0  0  0  0  0
    2.6921    2.3094   -0.7921 N   0  0  0  0  0  0  0  0  0  0  0  0
    0.4451    1.5570   -0.3305 C   0  0  0  0  0  0  0  0  0  0  0  0
   -0.4257    0.4508   -0.2268 N   0  0  0  0  0  0  0  0  0  0  0  0
   -1.1412   -0.0598   -1.3796 C   0  0  0  0  0  0  0  0  0  0  0  0
   -2.5631   -0.3113   -0.8559 C   0  0  0  0  0  0  0  0  0  0  0  0
   -2.5486   -1.5294    0.0294 C   0  0  0  0  0  0  0  0  0  0  0  0
   -1.3274   -1.5482    0.9099 C   0  0  0  0  0  0  0  0  0  0  0  0
   -0.6523   -0.2181    1.0014 C   0  0  0  0  0  0  0  0  0  0  0  0
   -0.3020    0.2857    2.1179 O   0  0  0  0  0  0  0  0  0  0  0  0
    1.9091   -1.5147    1.4374 H   0  0  0  0  0  0  0  0  0  0  0  0
    1.6256   -1.6703   -0.3211 H   0  0  0  0  0  0  0  0  0  0  0  0
    1.8562    0.6506   -1.7031 H   0  0  0  0  0  0  0  0  0  0  0  0
    3.5965    1.9978   -1.1721 H   0  0  0  0  0  0  0  0  0  0  0  0
    2.8399    2.6985    0.1674 H   0  0  0  0  0  0  0  0  0  0  0  0
    0.4838    2.1638    0.6057 H   0  0  0  0  0  0  0  0  0  0  0  0
    0.1371    2.2650   -1.1631 H   0  0  0  0  0  0  0  0  0  0  0  0
   -1.1683    0.6509   -2.2225 H   0  0  0  0  0  0  0  0  0  0  0  0
   -0.7351   -1.0241   -1.7364 H   0  0  0  0  0  0  0  0  0  0  0  0
   -2.8448    0.5596   -0.2307 H   0  0  0  0  0  0  0  0  0  0  0  0
   -3.2394   -0.4336   -1.7190 H   0  0  0  0  0  0  0  0  0  0  0  0
   -2.5501   -2.4513   -0.6136 H   0  0  0  0  0  0  0  0  0  0  0  0
   -3.4885   -1.5105    0.6475 H   0  0  0  0  0  0  0  0  0  0  0  0
   -0.5734   -2.2701    0.5372 H   0  0  0  0  0  0  0  0  0  0  0  0
   -1.6285   -1.9006    1.9216 H   0  0  0  0  0  0  0  0  0  0  0  0
  1  2  1  0
  2  3  2  0
  2  4  1  0
  4  5  1  0
  4  6  1  0
  6  7  1  0
  7  8  1  0
  8  9  1  0
  9 10  1  0
 10 11  1  0
 11 12  1  0
 12 13  2  0
 12  7  1  0
  1 14  1  0
  1 15  1  0
  4 16  1  6
  5 17  1  0
  5 18  1  0
  6 19  1  0
  6 20  1  0
  8 21  1  0
  8 22  1  0
  9 23  1  0
  9 24  1  0
 10 25  1  0
 10 26  1  0
 11 27  1  0
 11 28  1  0
M  END
$$$$
