
     RDKit          3D

 27 27  0  0  0  0  0  0  0  0999 V2000
    3.9893   -0.3972    0.0620 N   0  0  0  0  0  0  0  0  0  0  0  0
    2.9997    0.2928   -0.6723 C   0  0  0  0  0  0  0  0  0  0  0  0
    3.2516    0.7894   -1.8200 O   0  0  0  0  0  0  0  0  0  0  0  0
    1.6491    0.4283   -0.0734 C   0  0  2  0  0  0  0  0  0  0  0  0
    1.6421   -0.2112    1.2010 N   0  0  0  0  0  0  0  0  0  0  0  0
    0.5666   -0.0632   -0.9972 C   0  0  0  0  0  0  0  0  0  0  0  0
   -0.7053    0.0609   -0.4420 N   0  0  0  0  0  0  0  0  0  0  0  0
   -1.8218   -0.3572   -1.1877 C   0  0  0  0  0  0  0  0  0  0  0  0
   -2.9141   -0.9482   -0.3036 C   0  0  0  0  0  0  0  0  0  0  0  0
   -3.3368    0.1378    0.5871 N   0  0  0  0  0  0  0  0  0  0  0  0
   -2.2735    0.9655    1.0810 C   0  0  0  0  0  0  0  0  0  0  0  0
   -2.5615    2.0407    1.6656 O   0  0  0  0  0  0  0  0  0  0  0  0
   -0.8809    0.4937    0.8677 C   0  0  0  0  0  0  0  0  0  0  0  0
    4.7742    0.1363    0.4696 H   0  0  0  0  0  0  0  0  0  0  0  0
    3.9471   -1.4191    0.2007 H   0  0  0  0  0  0  0  0  0  0  0  0
    1.4844    1.5415    0.0201 H   0  0  0  0  0  0  0  0  0  0  0  0
    1.8148    0.4387    2.0006 H   0  0  0  0  0  0  0  0  0  0  0  0
    2.2314   -1.0698    1.2491 H   0  0  0  0  0  0  0  0  0  0  0  0
    0.7813   -1.1161   -1.3294 H   0  0  0  0  0  0  0  0  0  0  0  0
    0.6337    0.5488   -1.9335 H   0  0  0  0  0  0  0  0  0  0  0  0
   -2.2831    0.5353   -1.6837 H   0  0  0  0  0  0  0  0  0  0  0  0
   -1.5630   -1.0662   -1.9766 H   0  0  0  0  0  0  0  0  0  0  0  0
   -3.7387   -1.3661   -0.8801 H   0  0  0  0  0  0  0  0  0  0  0  0
   -2.4343   -1.7020    0.3546 H   0  0  0  0  0  0  0  0  0  0  0  0
   -4.3297    0.3003    0.8444 H   0  0  0  0  0  0  0  0  0  0  0  0
   -0.2217    1.3438    1.1146 H   0  0  0  0  0  0  0  0  0  0  0  0
   -0.7007   -0.3376    1.5814 H   0  0  0  0  0  0  0  0  0  0  0  0
  1  2  1  0
  2  3  2  0
  2  4  1  0
  4  5  1  0
  4  6  1  0
  6  7  1  0
  7  8  1  0
  8  9  1  0
  9 10  1  0
 10 11  1  0
 11 12  2  0
 11 13  1  0
 13  7  1  0
  1 14  1  0
  1 15  1  0
  4 16  1  1
  5 17  1  0
  5 18  1  0
  6 19  1  0
  6 20  1  0
  8 21  1  0
  8 22  1  0
  9 23  1  0
  9 24  1  0
 10 25  1  0
 13 26  1  0
 13 27  1  0
M  END
$$$$

     RDKit          3D

 27 27  0  0  0  0  0  0  0  0999 V2000
    3.9945    0.2884   -0.6119 N   0  0  0  0  0  0  0  0  0  0  0  0
    2.6798    0.7517   -0.8529 C   0  0  0  0  0  0  0  0  0  0  0  0
    2.4555    1.3762   -1.9128 O   0  0  0  0  0  0  0  0  0  0  0  0
    1.5749    0.5181    0.1076 C   0  0  2  0  0  0  0  0  0  0  0  0
    2.0764   -0.2276    1.2620 N   0  0  0  0  0  0  0  0  0  0  0  0
    0.4858   -0.2466   -0.5347 C   0  0  0  0  0  0  0  0  0  0  0  0
   -0.6383   -0.5558    0.2286 N   0  0  0  0  0  0  0  0  0  0  0  0
   -1.6588   -1.2817   -0.3945 C   0  0  0  0  0  0  0  0  0  0  0  0
   -2.9973   -0.5899   -0.4890 C   0  0  0  0  0  0  0  0  0  0  0  0
   -2.8404    0.8301   -0.2284 N   0  0  0  0  0  0  0  0  0  0  0  0
   -2.0414    1.1915    0.8813 C   0  0  0  0  0  0  0  0  0  0  0  0
   -2.1790    2.2929    1.4485 O   0  0  0  0  0  0  0  0  0  0  0  0
   -1.0390    0.1958    1.3291 C   0  0  0  0  0  0  0  0  0  0  0  0
    4.4356   -0.3138   -1.3582 H   0  0  0  0  0  0  0  0  0  0  0  0
    4.5346    0.5149    0.2587 H   0  0  0  0  0  0  0  0  0  0  0  0
    1.2859    1.5108    0.4991 H   0  0  0  0  0  0  0  0  0  0  0  0
    1.3818   -0.9597    1.5042 H   0  0  0  0  0  0  0  0  0  0  0  0
    2.9891   -0.6978    1.0395 H   0  0  0  0  0  0  0  0  0  0  0  0
    0.1531    0.3198   -1.4546 H   0  0  0  0  0  0  0  0  0  0  0  0
    0.9142   -1.1922   -0.9358 H   0  0  0  0  0  0  0  0  0  0  0  0
   -1.8219   -2.2405    0.1827 H   0  0  0  0  0  0  0  0  0  0  0  0
   -1.4029   -1.6026   -1.4439 H   0  0  0  0  0  0  0  0  0  0  0  0
   -3.4640   -0.6924   -1.4900 H   0  0  0  0  0  0  0  0  0  0  0  0
   -3.7047   -0.9738    0.2981 H   0  0  0  0  0  0  0  0  0  0  0  0
   -3.2884    1.5642   -0.8206 H   0  0  0  0  0  0  0  0  0  0  0  0
   -1.5931   -0.4876    2.0418 H   0  0  0  0  0  0  0  0  0  0  0  0
   -0.2921    0.7074    1.9182 H   0  0  0  0  0  0  0  0  0  0  0  0
  1  2  1  0
  2  3  2  0
  2  4  1  0
  4  5  1  0
  4  6  1  0
  6  7  1  0
  7  8  1  0
  8  9  1  0
  9 10  1  0
 10 11  1  0
 11 12  2  0
 11 13  1  0
 13  7  1  0
  1 14  1  0
  1 15  1  0
  4 16  1  1
  5 17  1  0
  5 18  1  0
  6 19  1  0
  6 20  1  0
  8 21  1  0
  8 22  1  0
  9 23  1  0
  9 24  1  0
 10 25  1  0
 13 26  1  0
 13 27  1  0
M  END
$$$$

     RDKit          3D

 27 27  0  0  0  0  0  0  0  0999 V2000
   -3.2643   -0.6312    0.2840 N   0  0  0  0  0  0  0  0  0  0  0  0
   -2.5071    0.5625    0.2364 C   0  0  0  0  0  0  0  0  0  0  0  0
   -2.7553    1.4732    1.0481 O   0  0  0  0  0  0  0  0  0  0  0  0
   -1.4389    0.6861   -0.7849 C   0  0  2  0  0  0  0  0  0  0  0  0
   -1.3660   -0.5043   -1.5871 N   0  0  0  0  0  0  0  0  0  0  0  0
   -0.1540    1.0915   -0.1390 C   0  0  0  0  0  0  0  0  0  0  0  0
    0.2981    0.1703    0.8389 N   0  0  0  0  0  0  0  0  0  0  0  0
    1.5476    0.5679    1.4636 C   0  0  0  0  0  0  0  0  0  0  0  0
    2.6948    0.5842    0.4914 C   0  0  0  0  0  0  0  0  0  0  0  0
    2.5785   -0.3972   -0.5687 N   0  0  0  0  0  0  0  0  0  0  0  0
    1.4940   -1.2835   -0.6581 C   0  0  0  0  0  0  0  0  0  0  0  0
    1.3795   -2.1185   -1.5688 O   0  0  0  0  0  0  0  0  0  0  0  0
    0.4540   -1.1974    0.3941 C   0  0  0  0  0  0  0  0  0  0  0  0
   -4.1337   -0.7374   -0.2461 H   0  0  0  0  0  0  0  0  0  0  0  0
   -2.9289   -1.4198    0.8721 H   0  0  0  0  0  0  0  0  0  0  0  0
   -1.7712    1.5427   -1.4399 H   0  0  0  0  0  0  0  0  0  0  0  0
   -2.2076   -1.1307   -1.4062 H   0  0  0  0  0  0  0  0  0  0  0  0
   -1.3980   -0.2444   -2.6150 H   0  0  0  0  0  0  0  0  0  0  0  0
    0.6014    1.3399   -0.9182 H   0  0  0  0  0  0  0  0  0  0  0  0
   -0.3536    2.0596    0.3849 H   0  0  0  0  0  0  0  0  0  0  0  0
    1.7333   -0.1705    2.2783 H   0  0  0  0  0  0  0  0  0  0  0  0
    1.3930    1.5678    1.9124 H   0  0  0  0  0  0  0  0  0  0  0  0
    2.6926    1.5930    0.0068 H   0  0  0  0  0  0  0  0  0  0  0  0
    3.6432    0.4855    1.0491 H   0  0  0  0  0  0  0  0  0  0  0  0
    3.3249   -0.4281   -1.2668 H   0  0  0  0  0  0  0  0  0  0  0  0
   -0.4646   -1.7332    0.1901 H   0  0  0  0  0  0  0  0  0  0  0  0
    0.9083   -1.7280    1.2894 H   0  0  0  0  0  0  0  0  0  0  0  0
  1  2  1  0
  2  3  2  0
  2  4  1  0
  4  5  1  0
  4  6  1  0
  6  7  1  0
  7  8  1  0
  8  9  1  0
  9 10  1  0
 10 11  1  0
 11 12  2  0
 11 13  1  0
 13  7  1  0
  1 14  1  0
  1 15  1  0
  4 16  1  6
  5 17  1  0
  5 18  1  0
  6 19  1  0
  6 20  1  0
  8 21  1  0
  8 22  1  0
  9 23  1  0
  9 24  1  0
 10 25  1  0
 13 26  1  0
 13 27  1  0
M  END
$$$$

     RDKit          3D

 27 27  0  0  0  0  0  0  0  0999 V2000
    4.0732   -0.0183   -0.3894 N   0  0  0  0  0  0  0  0  0  0  0  0
    2.8067    0.2500   -0.9506 C   0  0  0  0  0  0  0  0  0  0  0  0
    2.6842    0.1551   -2.2033 O   0  0  0  0  0  0  0  0  0  0  0  0
    1.6836    0.6278   -0.0587 C   0  0  2  0  0  0  0  0  0  0  0  0
    2.1666    0.6356    1.2827 N   0  0  0  0  0  0  0  0  0  0  0  0
    0.5855   -0.3714   -0.2955 C   0  0  0  0  0  0  0  0  0  0  0  0
   -0.5891   -0.1882    0.4667 N   0  0  0  0  0  0  0  0  0  0  0  0
   -1.3789    0.9552    0.1846 C   0  0  0  0  0  0  0  0  0  0  0  0
   -2.4446    0.7054   -0.8915 C   0  0  0  0  0  0  0  0  0  0  0  0
   -3.3558   -0.2546   -0.3102 N   0  0  0  0  0  0  0  0  0  0  0  0
   -2.8263   -1.1391    0.6622 C   0  0  0  0  0  0  0  0  0  0  0  0
   -3.6062   -1.6728    1.4961 O   0  0  0  0  0  0  0  0  0  0  0  0
   -1.3646   -1.3801    0.6302 C   0  0  0  0  0  0  0  0  0  0  0  0
    4.3285   -0.8743    0.1374 H   0  0  0  0  0  0  0  0  0  0  0  0
    4.8413    0.6994   -0.5024 H   0  0  0  0  0  0  0  0  0  0  0  0
    1.3874    1.6561   -0.3864 H   0  0  0  0  0  0  0  0  0  0  0  0
    1.9889   -0.2265    1.8289 H   0  0  0  0  0  0  0  0  0  0  0  0
    1.9795    1.5128    1.8094 H   0  0  0  0  0  0  0  0  0  0  0  0
    1.0034   -1.3741   -0.0736 H   0  0  0  0  0  0  0  0  0  0  0  0
    0.3342   -0.3659   -1.3757 H   0  0  0  0  0  0  0  0  0  0  0  0
   -0.8495    1.8539   -0.1047 H   0  0  0  0  0  0  0  0  0  0  0  0
   -1.9614    1.2082    1.1114 H   0  0  0  0  0  0  0  0  0  0  0  0
   -2.9253    1.6568   -1.1487 H   0  0  0  0  0  0  0  0  0  0  0  0
   -1.9996    0.2394   -1.7897 H   0  0  0  0  0  0  0  0  0  0  0  0
   -4.3464   -0.2691   -0.6128 H   0  0  0  0  0  0  0  0  0  0  0  0
   -1.1116   -2.1752   -0.1287 H   0  0  0  0  0  0  0  0  0  0  0  0
   -1.1035   -1.8461    1.6123 H   0  0  0  0  0  0  0  0  0  0  0  0
  1  2  1  0
  2  3  2  0
  2  4  1  0
  4  5  1  0
  4  6  1  0
  6  7  1  0
  7  8  1  0
  8  9  1  0
  9 10  1  0
 10 11  1  0
 11 12  2  0
 11 13  1  0
 13  7  1  0
  1 14  1  0
  1 15  1  0
  4 16  1  6
  5 17  1  0
  5 18  1  0
  6 19  1  0
  6 20  1  0
  8 21  1  0
  8 22  1  0
  9 23  1  0
  9 24  1  0
 10 25  1  0
 13 26  1  0
 13 27  1  0
M  END
$$$$

     RDKit          3D

 27 27  0  0  0  0  0  0  0  0999 V2000
    3.4179    0.9821    1.1328 N   0  0  0  0  0  0  0  0  0  0  0  0
    2.1800    0.2719    1.1203 C   0  0  0  0  0  0  0  0  0  0  0  0
    1.3746    0.4091    2.0657 O   0  0  0  0  0  0  0  0  0  0  0  0
    1.8307   -0.6333   -0.0049 C   0  0  2  0  0  0  0  0  0  0  0  0
    2.9373   -0.6141   -0.9726 N   0  0  0  0  0  0  0  0  0  0  0  0
    0.6458   -0.0660   -0.7162 C   0  0  0  0  0  0  0  0  0  0  0  0
   -0.5256    0.0780    0.1057 N   0  0  0  0  0  0  0  0  0  0  0  0
   -1.5428    0.6434   -0.7909 C   0  0  0  0  0  0  0  0  0  0  0  0
   -2.7876    1.0283   -0.0884 C   0  0  0  0  0  0  0  0  0  0  0  0
   -3.1738    0.1217    0.9684 N   0  0  0  0  0  0  0  0  0  0  0  0
   -2.2672   -0.8907    1.3777 C   0  0  0  0  0  0  0  0  0  0  0  0
   -2.5856   -1.5391    2.4236 O   0  0  0  0  0  0  0  0  0  0  0  0
   -1.0132   -1.1755    0.6217 C   0  0  0  0  0  0  0  0  0  0  0  0
    3.5485    1.7793    1.7655 H   0  0  0  0  0  0  0  0  0  0  0  0
    4.1951    0.6897    0.4954 H   0  0  0  0  0  0  0  0  0  0  0  0
    1.7209   -1.6727    0.3100 H   0  0  0  0  0  0  0  0  0  0  0  0
    2.6719   -1.3342   -1.7028 H   0  0  0  0  0  0  0  0  0  0  0  0
    2.9035    0.3088   -1.5013 H   0  0  0  0  0  0  0  0  0  0  0  0
    0.3691   -0.6249   -1.6313 H   0  0  0  0  0  0  0  0  0  0  0  0
    0.9231    0.9597   -1.0632 H   0  0  0  0  0  0  0  0  0  0  0  0
   -1.6855   -0.0557   -1.6468 H   0  0  0  0  0  0  0  0  0  0  0  0
   -1.0557    1.5655   -1.2206 H   0  0  0  0  0  0  0  0  0  0  0  0
   -2.7428    2.0478    0.2989 H   0  0  0  0  0  0  0  0  0  0  0  0
   -3.6282    0.9980   -0.8407 H   0  0  0  0  0  0  0  0  0  0  0  0
   -4.1053    0.2422    1.3942 H   0  0  0  0  0  0  0  0  0  0  0  0
   -1.2941   -1.8880   -0.1843 H   0  0  0  0  0  0  0  0  0  0  0  0
   -0.3111   -1.6313    1.3189 H   0  0  0  0  0  0  0  0  0  0  0  0
  1  2  1  0
  2  3  2  0
  2  4  1  0
  4  5  1  0
  4  6  1  0
  6  7  1  0
  7  8  1  0
  8  9  1  0
  9 10  1  0
 10 11  1  0
 11 12  2  0
 11 13  1  0
 13  7  1  0
  1 14  1  0
  1 15  1  0
  4 16  1  1
  5 17  1  0
  5 18  1  0
  6 19  1  0
  6 20  1  0
  8 21  1  0
  8 22  1  0
  9 23  1  0
  9 24  1  0
 10 25  1  0
 13 26  1  0
 13 27  1  0
M  END
$$$$

     RDKit          3D

 27 27  0  0  0  0  0  0  0  0999 V2000
    4.0952   -0.2859   -0.1504 N   0  0  0  0  0  0  0  0  0  0  0  0
    2.9416    0.4607    0.2008 C   0  0  0  0  0  0  0  0  0  0  0  0
    3.0790    1.7146    0.3413 O   0  0  0  0  0  0  0  0  0  0  0  0
    1.6265   -0.2053    0.3958 C   0  0  2  0  0  0  0  0  0  0  0  0
    1.7926   -1.6084    0.1713 N   0  0  0  0  0  0  0  0  0  0  0  0
    0.6432    0.4581   -0.5180 C   0  0  0  0  0  0  0  0  0  0  0  0
   -0.6836   -0.0805   -0.4420 N   0  0  0  0  0  0  0  0  0  0  0  0
   -1.3447    0.1842    0.8096 C   0  0  0  0  0  0  0  0  0  0  0  0
   -2.5937   -0.6878    0.8265 C   0  0  0  0  0  0  0  0  0  0  0  0
   -3.5248   -0.0344   -0.1066 N   0  0  0  0  0  0  0  0  0  0  0  0
   -2.8705    0.7760   -1.1054 C   0  0  0  0  0  0  0  0  0  0  0  0
   -3.5397    1.7012   -1.6564 O   0  0  0  0  0  0  0  0  0  0  0  0
   -1.4735    0.5626   -1.4945 C   0  0  0  0  0  0  0  0  0  0  0  0
    4.1183   -0.8488   -1.0097 H   0  0  0  0  0  0  0  0  0  0  0  0
    4.9113   -0.2482    0.4803 H   0  0  0  0  0  0  0  0  0  0  0  0
    1.3370    0.0175    1.4610 H   0  0  0  0  0  0  0  0  0  0  0  0
    2.3556   -1.8155   -0.6654 H   0  0  0  0  0  0  0  0  0  0  0  0
    2.2730   -1.9952    1.0359 H   0  0  0  0  0  0  0  0  0  0  0  0
    0.6789    1.5432   -0.3219 H   0  0  0  0  0  0  0  0  0  0  0  0
    1.0044    0.2976   -1.5622 H   0  0  0  0  0  0  0  0  0  0  0  0
   -1.7184    1.2403    0.8812 H   0  0  0  0  0  0  0  0  0  0  0  0
   -0.7391   -0.0087    1.6904 H   0  0  0  0  0  0  0  0  0  0  0  0
   -3.0240   -0.7724    1.8359 H   0  0  0  0  0  0  0  0  0  0  0  0
   -2.3537   -1.6698    0.3643 H   0  0  0  0  0  0  0  0  0  0  0  0
   -4.5455   -0.1420   -0.0562 H   0  0  0  0  0  0  0  0  0  0  0  0
   -1.0280    1.5410   -1.7638 H   0  0  0  0  0  0  0  0  0  0  0  0
   -1.4175   -0.0940   -2.3869 H   0  0  0  0  0  0  0  0  0  0  0  0
  1  2  1  0
  2  3  2  0
  2  4  1  0
  4  5  1  0
  4  6  1  0
  6  7  1  0
  7  8  1  0
  8  9  1  0
  9 10  1  0
 10 11  1  0
 11 12  2  0
 11 13  1  0
 13  7  1  0
  1 14  1  0
  1 15  1  0
  4 16  1  1
  5 17  1  0
  5 18  1  0
  6 19  1  0
  6 20  1  0
  8 21  1  0
  8 22  1  0
  9 23  1  0
  9 24  1  0
 10 25  1  0
 13 26  1  0
 13 27  1  0
M  END
$$$$

     RDKit          3D

 27 27  0  0  0  0  0  0  0  0999 V2000
   -4.1052   -0.7030    0.1830 N   0  0  0  0  0  0  0  0  0  0  0  0
   -2.8237   -0.9386    0.7077 C   0  0  0  0  0  0  0  0  0  0  0  0
   -2.5754   -1.9298    1.4642 O   0  0  0  0  0  0  0  0  0  0  0  0
   -1.6972   -0.0234    0.3917 C   0  0  2  0  0  0  0  0  0  0  0  0
   -2.1664    1.0141   -0.4590 N   0  0  0  0  0  0  0  0  0  0  0  0
   -0.5184   -0.7814   -0.1756 C   0  0  0  0  0  0  0  0  0  0  0  0
    0.5892    0.0578   -0.4947 N   0  0  0  0  0  0  0  0  0  0  0  0
    1.6522   -0.7304   -1.0209 C   0  0  0  0  0  0  0  0  0  0  0  0
    2.9665   -0.5666   -0.3344 C   0  0  0  0  0  0  0  0  0  0  0  0
    3.2882    0.8659   -0.2538 N   0  0  0  0  0  0  0  0  0  0  0  0
    2.2024    1.6777    0.2005 C   0  0  0  0  0  0  0  0  0  0  0  0
    2.2937    2.9089    0.2602 O   0  0  0  0  0  0  0  0  0  0  0  0
    0.9709    0.9136    0.5888 C   0  0  0  0  0  0  0  0  0  0  0  0
   -4.9387   -1.0023    0.7095 H   0  0  0  0  0  0  0  0  0  0  0  0
   -4.2267   -0.2285   -0.7335 H   0  0  0  0  0  0  0  0  0  0  0  0
   -1.3822    0.4173    1.3788 H   0  0  0  0  0  0  0  0  0  0  0  0
   -1.4827    1.3398   -1.1749 H   0  0  0  0  0  0  0  0  0  0  0  0
   -2.5839    1.8264    0.0749 H   0  0  0  0  0  0  0  0  0  0  0  0
   -0.8811   -1.2496   -1.1270 H   0  0  0  0  0  0  0  0  0  0  0  0
   -0.1977   -1.5982    0.4915 H   0  0  0  0  0  0  0  0  0  0  0  0
    1.3975   -1.8273   -0.9843 H   0  0  0  0  0  0  0  0  0  0  0  0
    1.8123   -0.5277   -2.1162 H   0  0  0  0  0  0  0  0  0  0  0  0
    3.7582   -1.0185   -0.9663 H   0  0  0  0  0  0  0  0  0  0  0  0
    3.0122   -1.0185    0.6712 H   0  0  0  0  0  0  0  0  0  0  0  0
    4.2009    1.2576   -0.4975 H   0  0  0  0  0  0  0  0  0  0  0  0
    0.1863    1.6115    0.8564 H   0  0  0  0  0  0  0  0  0  0  0  0
    1.2487    0.2533    1.4557 H   0  0  0  0  0  0  0  0  0  0  0  0
  1  2  1  0
  2  3  2  0
  2  4  1  0
  4  5  1  0
  4  6  1  0
  6  7  1  0
  7  8  1  0
  8  9  1  0
  9 10  1  0
 10 11  1  0
 11 12  2  0
 11 13  1  0
 13  7  1  0
  1 14  1  0
  1 15  1  0
  4 16  1  1
  5 17  1  0
  5 18  1  0
  6 19  1  0
  6 20  1  0
  8 21  1  0
  8 22  1  0
  9 23  1  0
  9 24  1  0
 10 25  1  0
 13 26  1  0
 13 27  1  0
M  END
$$$$

     RDKit          3D

 27 27  0  0  0  0  0  0  0  0999 V2000
    4.0983   -0.4434    0.1214 N   0  0  0  0  0  0  0  0  0  0  0  0
    2.9381    0.0563   -0.5594 C   0  0  0  0  0  0  0  0  0  0  0  0
    3.0211    0.2368   -1.8203 O   0  0  0  0  0  0  0  0  0  0  0  0
    1.6635    0.3646    0.1566 C   0  0  2  0  0  0  0  0  0  0  0  0
    1.8659    0.0503    1.5508 N   0  0  0  0  0  0  0  0  0  0  0  0
    0.5899   -0.4417   -0.4799 C   0  0  0  0  0  0  0  0  0  0  0  0
   -0.7219   -0.2639    0.0879 N   0  0  0  0  0  0  0  0  0  0  0  0
   -1.2302    1.0718   -0.1905 C   0  0  0  0  0  0  0  0  0  0  0  0
   -2.6227    1.2939    0.2664 C   0  0  0  0  0  0  0  0  0  0  0  0
   -3.4431    0.1207    0.2908 N   0  0  0  0  0  0  0  0  0  0  0  0
   -2.8986   -1.1751   -0.0324 C   0  0  0  0  0  0  0  0  0  0  0  0
   -3.5178   -2.2294    0.2495 O   0  0  0  0  0  0  0  0  0  0  0  0
   -1.5856   -1.1644   -0.7030 C   0  0  0  0  0  0  0  0  0  0  0  0
    4.6969    0.2444    0.6509 H   0  0  0  0  0  0  0  0  0  0  0  0
    4.3444   -1.4547    0.0956 H   0  0  0  0  0  0  0  0  0  0  0  0
    1.5227    1.4546    0.0916 H   0  0  0  0  0  0  0  0  0  0  0  0
    2.4979    0.7351    1.9869 H   0  0  0  0  0  0  0  0  0  0  0  0
    2.2221   -0.9168    1.6915 H   0  0  0  0  0  0  0  0  0  0  0  0
    0.5099   -0.2684   -1.5695 H   0  0  0  0  0  0  0  0  0  0  0  0
    0.8487   -1.5222   -0.3529 H   0  0  0  0  0  0  0  0  0  0  0  0
   -1.1175    1.2330   -1.2803 H   0  0  0  0  0  0  0  0  0  0  0  0
   -0.5993    1.8436    0.3380 H   0  0  0  0  0  0  0  0  0  0  0  0
   -3.1090    2.0229   -0.4372 H   0  0  0  0  0  0  0  0  0  0  0  0
   -2.6814    1.7383    1.3019 H   0  0  0  0  0  0  0  0  0  0  0  0
   -4.4376    0.2117    0.5445 H   0  0  0  0  0  0  0  0  0  0  0  0
   -1.1315   -2.1416   -0.8347 H   0  0  0  0  0  0  0  0  0  0  0  0
   -1.7231   -0.6563   -1.6954 H   0  0  0  0  0  0  0  0  0  0  0  0
  1  2  1  0
  2  3  2  0
  2  4  1  0
  4  5  1  0
  4  6  1  0
  6  7  1  0
  7  8  1  0
  8  9  1  0
  9 10  1  0
 10 11  1  0
 11 12  2  0
 11 13  1  0
 13  7  1  0
  1 14  1  0
  1 15  1  0
  4 16  1  1
  5 17  1  0
  5 18  1  0
  6 19  1  0
  6 20  1  0
  8 21  1  0
  8 22  1  0
  9 23  1  0
  9 24  1  0
 10 25  1  0
 13 26  1  0
 13 27  1  0
M  END
$$$$
