
     RDKit          3D

 28 27  0  0  0  0  0  0  0  0999 V2000
    3.2377    1.4623    1.5039 C   0  0  0  0  0  0  0  0  0  0  0  0
    3.0493    1.1414    0.1835 O   0  0  0  0  0  0  0  0  0  0  0  0
    2.9505   -0.1878   -0.0388 N   0  0  0  0  0  0  0  0  0  0  0  0
    3.1990   -0.4833   -1.4362 C   0  0  0  0  0  0  0  0  0  0  0  0
    1.7132   -0.7414    0.4300 C   0  0  0  0  0  0  0  0  0  0  0  0
    0.5066   -0.0755   -0.1924 C   0  0  0  0  0  0  0  0  0  0  0  0
   -0.7269   -0.6713    0.3126 N   0  0  0  0  0  0  0  0  0  0  0  0
   -1.9844   -0.1948   -0.1406 C   0  0  0  0  0  0  0  0  0  0  0  0
   -1.9647    0.7430   -0.9774 O   0  0  0  0  0  0  0  0  0  0  0  0
   -3.2034   -0.8156    0.3864 C   0  0  0  0  0  0  0  0  0  0  0  0
   -4.4528   -0.2533   -0.1463 C   0  0  0  0  0  0  0  0  0  0  0  0
   -4.5334    0.8110   -1.0854 N   0  0  0  0  0  0  0  0  0  0  0  0
   -5.5212   -0.8001    0.3029 O   0  0  0  0  0  0  0  0  0  0  0  0
    3.1994    0.6243    2.1990 H   0  0  0  0  0  0  0  0  0  0  0  0
    4.1996    2.0098    1.6943 H   0  0  0  0  0  0  0  0  0  0  0  0
    2.4240    2.1758    1.7982 H   0  0  0  0  0  0  0  0  0  0  0  0
    4.1821   -0.9918   -1.4794 H   0  0  0  0  0  0  0  0  0  0  0  0
    2.4320   -1.1463   -1.8827 H   0  0  0  0  0  0  0  0  0  0  0  0
    3.2434    0.4586   -2.0039 H   0  0  0  0  0  0  0  0  0  0  0  0
    1.6677   -0.5722    1.5312 H   0  0  0  0  0  0  0  0  0  0  0  0
    1.7124   -1.8230    0.2493 H   0  0  0  0  0  0  0  0  0  0  0  0
    0.4942   -0.1555   -1.2815 H   0  0  0  0  0  0  0  0  0  0  0  0
    0.4675    0.9920    0.1140 H   0  0  0  0  0  0  0  0  0  0  0  0
   -0.7092   -1.4556    1.0134 H   0  0  0  0  0  0  0  0  0  0  0  0
   -3.2075   -1.9180    0.3095 H   0  0  0  0  0  0  0  0  0  0  0  0
   -3.2126   -0.6038    1.4960 H   0  0  0  0  0  0  0  0  0  0  0  0
   -4.0548    0.8229   -2.0114 H   0  0  0  0  0  0  0  0  0  0  0  0
   -5.1078    1.6482   -0.8481 H   0  0  0  0  0  0  0  0  0  0  0  0
  1  2  1  0
  2  3  1  0
  3  4  1  0
  3  5  1  0
  5  6  1  0
  6  7  1  0
  7  8  1  0
  8  9  2  0
  8 10  1  0
 10 11  1  0
 11 12  1  0
 11 13  2  0
  1 14  1  0
  1 15  1  0
  1 16  1  0
  4 17  1  0
  4 18  1  0
  4 19  1  0
  5 20  1  0
  5 21  1  0
  6 22  1  0
  6 23  1  0
  7 24  1  0
 10 25  1  0
 10 26  1  0
 12 27  1  0
 12 28  1  0
M  END
$$$$

     RDKit          3D

 28 27  0  0  0  0  0  0  0  0999 V2000
   -4.4006    0.8452    0.1631 C   0  0  0  0  0  0  0  0  0  0  0  0
   -3.1068    0.5593   -0.1914 O   0  0  0  0  0  0  0  0  0  0  0  0
   -2.5546   -0.4653    0.5021 N   0  0  0  0  0  0  0  0  0  0  0  0
   -2.4233   -1.6517   -0.3529 C   0  0  0  0  0  0  0  0  0  0  0  0
   -1.1669   -0.0350    0.7522 C   0  0  0  0  0  0  0  0  0  0  0  0
   -0.6739    0.4577   -0.6099 C   0  0  0  0  0  0  0  0  0  0  0  0
    0.6858    0.9180   -0.5244 N   0  0  0  0  0  0  0  0  0  0  0  0
    1.7515    0.0757   -0.1241 C   0  0  0  0  0  0  0  0  0  0  0  0
    1.5646   -1.1420    0.1836 O   0  0  0  0  0  0  0  0  0  0  0  0
    3.1353    0.6166   -0.0567 C   0  0  0  0  0  0  0  0  0  0  0  0
    4.0861   -0.4390    0.3878 C   0  0  0  0  0  0  0  0  0  0  0  0
    5.4591   -0.1436    0.5129 N   0  0  0  0  0  0  0  0  0  0  0  0
    3.6630   -1.5913    0.6503 O   0  0  0  0  0  0  0  0  0  0  0  0
   -4.5027    1.2298    1.2154 H   0  0  0  0  0  0  0  0  0  0  0  0
   -4.7135    1.7187   -0.4745 H   0  0  0  0  0  0  0  0  0  0  0  0
   -5.1188    0.0196    0.0320 H   0  0  0  0  0  0  0  0  0  0  0  0
   -2.6435   -1.4366   -1.3994 H   0  0  0  0  0  0  0  0  0  0  0  0
   -3.1753   -2.4083   -0.0074 H   0  0  0  0  0  0  0  0  0  0  0  0
   -1.4286   -2.1013   -0.2957 H   0  0  0  0  0  0  0  0  0  0  0  0
   -0.5686   -0.8901    1.0817 H   0  0  0  0  0  0  0  0  0  0  0  0
   -1.2112    0.7782    1.4855 H   0  0  0  0  0  0  0  0  0  0  0  0
   -0.7839   -0.3935   -1.3295 H   0  0  0  0  0  0  0  0  0  0  0  0
   -1.3204    1.2501   -1.0035 H   0  0  0  0  0  0  0  0  0  0  0  0
    0.8942    1.9032   -0.7650 H   0  0  0  0  0  0  0  0  0  0  0  0
    3.4544    1.0355   -1.0169 H   0  0  0  0  0  0  0  0  0  0  0  0
    3.1167    1.3926    0.7605 H   0  0  0  0  0  0  0  0  0  0  0  0
    5.8409    0.8006    0.7350 H   0  0  0  0  0  0  0  0  0  0  0  0
    6.1409   -0.9030    0.3786 H   0  0  0  0  0  0  0  0  0  0  0  0
  1  2  1  0
  2  3  1  0
  3  4  1  0
  3  5  1  0
  5  6  1  0
  6  7  1  0
  7  8  1  0
  8  9  2  0
  8 10  1  0
 10 11  1  0
 11 12  1  0
 11 13  2  0
  1 14  1  0
  1 15  1  0
  1 16  1  0
  4 17  1  0
  4 18  1  0
  4 19  1  0
  5 20  1  0
  5 21  1  0
  6 22  1  0
  6 23  1  0
  7 24  1  0
 10 25  1  0
 10 26  1  0
 12 27  1  0
 12 28  1  0
M  END
$$$$

     RDKit          3D

 28 27  0  0  0  0  0  0  0  0999 V2000
    3.6780    0.5302   -0.5362 C   0  0  0  0  0  0  0  0  0  0  0  0
    2.5738   -0.1756   -0.9448 O   0  0  0  0  0  0  0  0  0  0  0  0
    1.8378   -0.7241    0.0170 N   0  0  0  0  0  0  0  0  0  0  0  0
    2.4618   -1.7364    0.7968 C   0  0  0  0  0  0  0  0  0  0  0  0
    1.1955    0.2300    0.9017 C   0  0  0  0  0  0  0  0  0  0  0  0
    0.5304    1.3573    0.1884 C   0  0  0  0  0  0  0  0  0  0  0  0
   -0.5242    0.9696   -0.7200 N   0  0  0  0  0  0  0  0  0  0  0  0
   -1.6938    0.2727   -0.3041 C   0  0  0  0  0  0  0  0  0  0  0  0
   -1.8045   -0.0257    0.9234 O   0  0  0  0  0  0  0  0  0  0  0  0
   -2.7777   -0.1086   -1.2596 C   0  0  0  0  0  0  0  0  0  0  0  0
   -3.8956   -0.7682   -0.5989 C   0  0  0  0  0  0  0  0  0  0  0  0
   -4.7966   -0.0004    0.1776 N   0  0  0  0  0  0  0  0  0  0  0  0
   -4.0820   -2.0028   -0.6997 O   0  0  0  0  0  0  0  0  0  0  0  0
    3.6550    0.8265    0.5273 H   0  0  0  0  0  0  0  0  0  0  0  0
    3.6984    1.4880   -1.1259 H   0  0  0  0  0  0  0  0  0  0  0  0
    4.6381    0.0370   -0.7968 H   0  0  0  0  0  0  0  0  0  0  0  0
    1.7994   -2.6436    0.7870 H   0  0  0  0  0  0  0  0  0  0  0  0
    3.4405   -2.0885    0.4740 H   0  0  0  0  0  0  0  0  0  0  0  0
    2.4553   -1.4199    1.8756 H   0  0  0  0  0  0  0  0  0  0  0  0
    1.9186    0.5590    1.6689 H   0  0  0  0  0  0  0  0  0  0  0  0
    0.4142   -0.3583    1.4508 H   0  0  0  0  0  0  0  0  0  0  0  0
    1.2745    1.9728   -0.3929 H   0  0  0  0  0  0  0  0  0  0  0  0
    0.1358    2.0674    0.9734 H   0  0  0  0  0  0  0  0  0  0  0  0
   -0.4447    1.2078   -1.7509 H   0  0  0  0  0  0  0  0  0  0  0  0
   -3.1134    0.7698   -1.8820 H   0  0  0  0  0  0  0  0  0  0  0  0
   -2.3228   -0.8404   -1.9741 H   0  0  0  0  0  0  0  0  0  0  0  0
   -4.9101    1.0084   -0.0437 H   0  0  0  0  0  0  0  0  0  0  0  0
   -5.3417   -0.4041    0.9555 H   0  0  0  0  0  0  0  0  0  0  0  0
  1  2  1  0
  2  3  1  0
  3  4  1  0
  3  5  1  0
  5  6  1  0
  6  7  1  0
  7  8  1  0
  8  9  2  0
  8 10  1  0
 10 11  1  0
 11 12  1  0
 11 13  2  0
  1 14  1  0
  1 15  1  0
  1 16  1  0
  4 17  1  0
  4 18  1  0
  4 19  1  0
  5 20  1  0
  5 21  1  0
  6 22  1  0
  6 23  1  0
  7 24  1  0
 10 25  1  0
 10 26  1  0
 12 27  1  0
 12 28  1  0
M  END
$$$$

     RDKit          3D

 28 27  0  0  0  0  0  0  0  0999 V2000
   -4.2442   -0.4405   -0.9924 C   0  0  0  0  0  0  0  0  0  0  0  0
   -3.1558    0.4374   -1.0740 O   0  0  0  0  0  0  0  0  0  0  0  0
   -2.5066    0.5268    0.0679 N   0  0  0  0  0  0  0  0  0  0  0  0
   -3.1648    1.1312    1.1694 C   0  0  0  0  0  0  0  0  0  0  0  0
   -1.0960    0.6102    0.0437 C   0  0  0  0  0  0  0  0  0  0  0  0
   -0.4092   -0.2122    1.1049 C   0  0  0  0  0  0  0  0  0  0  0  0
    1.0078   -0.1015    1.1017 N   0  0  0  0  0  0  0  0  0  0  0  0
    1.8838   -0.4381    0.0380 C   0  0  0  0  0  0  0  0  0  0  0  0
    1.3804   -0.8785   -1.0130 O   0  0  0  0  0  0  0  0  0  0  0  0
    3.3693   -0.2706    0.1697 C   0  0  0  0  0  0  0  0  0  0  0  0
    4.0801   -0.6562   -1.0440 C   0  0  0  0  0  0  0  0  0  0  0  0
    5.4865   -0.5409   -1.0815 N   0  0  0  0  0  0  0  0  0  0  0  0
    3.4501   -1.0829   -2.0385 O   0  0  0  0  0  0  0  0  0  0  0  0
   -4.6779   -0.4057    0.0279 H   0  0  0  0  0  0  0  0  0  0  0  0
   -3.9425   -1.4804   -1.1820 H   0  0  0  0  0  0  0  0  0  0  0  0
   -5.0322   -0.1894   -1.7503 H   0  0  0  0  0  0  0  0  0  0  0  0
   -4.2217    1.3904    0.8654 H   0  0  0  0  0  0  0  0  0  0  0  0
   -2.6569    2.1038    1.3638 H   0  0  0  0  0  0  0  0  0  0  0  0
   -3.2128    0.5660    2.0991 H   0  0  0  0  0  0  0  0  0  0  0  0
   -0.7591    0.3009   -0.9811 H   0  0  0  0  0  0  0  0  0  0  0  0
   -0.7791    1.6647    0.1477 H   0  0  0  0  0  0  0  0  0  0  0  0
   -0.7916   -0.0203    2.1200 H   0  0  0  0  0  0  0  0  0  0  0  0
   -0.7526   -1.2764    0.8904 H   0  0  0  0  0  0  0  0  0  0  0  0
    1.5113    0.2739    1.9673 H   0  0  0  0  0  0  0  0  0  0  0  0
    3.5149    0.8149    0.3821 H   0  0  0  0  0  0  0  0  0  0  0  0
    3.7347   -0.8366    1.0673 H   0  0  0  0  0  0  0  0  0  0  0  0
    5.9148    0.1582   -1.7105 H   0  0  0  0  0  0  0  0  0  0  0  0
    6.0693   -1.1479   -0.4849 H   0  0  0  0  0  0  0  0  0  0  0  0
  1  2  1  0
  2  3  1  0
  3  4  1  0
  3  5  1  0
  5  6  1  0
  6  7  1  0
  7  8  1  0
  8  9  2  0
  8 10  1  0
 10 11  1  0
 11 12  1  0
 11 13  2  0
  1 14  1  0
  1 15  1  0
  1 16  1  0
  4 17  1  0
  4 18  1  0
  4 19  1  0
  5 20  1  0
  5 21  1  0
  6 22  1  0
  6 23  1  0
  7 24  1  0
 10 25  1  0
 10 26  1  0
 12 27  1  0
 12 28  1  0
M  END
$$$$

     RDKit          3D

 28 27  0  0  0  0  0  0  0  0999 V2000
   -3.8625    1.1915    0.6184 C   0  0  0  0  0  0  0  0  0  0  0  0
   -2.8454    0.2952    0.7978 O   0  0  0  0  0  0  0  0  0  0  0  0
   -2.5959   -0.5160   -0.2559 N   0  0  0  0  0  0  0  0  0  0  0  0
   -2.1803    0.1652   -1.4245 C   0  0  0  0  0  0  0  0  0  0  0  0
   -1.8069   -1.5928    0.2196 C   0  0  0  0  0  0  0  0  0  0  0  0
   -0.4754   -1.2751    0.7900 C   0  0  0  0  0  0  0  0  0  0  0  0
    0.4746   -0.6481   -0.0863 N   0  0  0  0  0  0  0  0  0  0  0  0
    1.7543   -0.3499    0.5300 C   0  0  0  0  0  0  0  0  0  0  0  0
    1.9777   -0.6305    1.7287 O   0  0  0  0  0  0  0  0  0  0  0  0
    2.8168    0.2959   -0.2635 C   0  0  0  0  0  0  0  0  0  0  0  0
    4.0162    0.4838    0.5746 C   0  0  0  0  0  0  0  0  0  0  0  0
    5.2061    1.1085    0.0482 N   0  0  0  0  0  0  0  0  0  0  0  0
    3.9873    0.0854    1.7749 O   0  0  0  0  0  0  0  0  0  0  0  0
   -3.5391    2.1531    1.1109 H   0  0  0  0  0  0  0  0  0  0  0  0
   -4.2232    1.3431   -0.3955 H   0  0  0  0  0  0  0  0  0  0  0  0
   -4.7291    0.8468    1.2446 H   0  0  0  0  0  0  0  0  0  0  0  0
   -1.7423   -0.5498   -2.1486 H   0  0  0  0  0  0  0  0  0  0  0  0
   -1.5135    1.0241   -1.2996 H   0  0  0  0  0  0  0  0  0  0  0  0
   -3.1190    0.5686   -1.9112 H   0  0  0  0  0  0  0  0  0  0  0  0
   -2.3995   -2.0712    1.0610 H   0  0  0  0  0  0  0  0  0  0  0  0
   -1.7244   -2.3838   -0.5614 H   0  0  0  0  0  0  0  0  0  0  0  0
   -0.5669   -0.6029    1.6781 H   0  0  0  0  0  0  0  0  0  0  0  0
   -0.0016   -2.2431    1.1298 H   0  0  0  0  0  0  0  0  0  0  0  0
    0.3471   -0.4027   -1.0749 H   0  0  0  0  0  0  0  0  0  0  0  0
    2.5008    1.3235   -0.5920 H   0  0  0  0  0  0  0  0  0  0  0  0
    3.0393   -0.2898   -1.1936 H   0  0  0  0  0  0  0  0  0  0  0  0
    5.0499    1.8305   -0.6884 H   0  0  0  0  0  0  0  0  0  0  0  0
    6.1551    0.8406    0.3966 H   0  0  0  0  0  0  0  0  0  0  0  0
  1  2  1  0
  2  3  1  0
  3  4  1  0
  3  5  1  0
  5  6  1  0
  6  7  1  0
  7  8  1  0
  8  9  2  0
  8 10  1  0
 10 11  1  0
 11 12  1  0
 11 13  2  0
  1 14  1  0
  1 15  1  0
  1 16  1  0
  4 17  1  0
  4 18  1  0
  4 19  1  0
  5 20  1  0
  5 21  1  0
  6 22  1  0
  6 23  1  0
  7 24  1  0
 10 25  1  0
 10 26  1  0
 12 27  1  0
 12 28  1  0
M  END
$$$$

     RDKit          3D

 28 27  0  0  0  0  0  0  0  0999 V2000
   -4.2346    1.3338   -0.4817 C   0  0  0  0  0  0  0  0  0  0  0  0
   -3.4070    0.4393    0.2291 O   0  0  0  0  0  0  0  0  0  0  0  0
   -2.5964   -0.2026   -0.6106 N   0  0  0  0  0  0  0  0  0  0  0  0
   -2.6837   -1.6272   -0.5020 C   0  0  0  0  0  0  0  0  0  0  0  0
   -1.2319    0.2273   -0.5491 C   0  0  0  0  0  0  0  0  0  0  0  0
   -0.6505    0.0063    0.8121 C   0  0  0  0  0  0  0  0  0  0  0  0
    0.7161    0.4148    0.9442 N   0  0  0  0  0  0  0  0  0  0  0  0
    1.7861   -0.1196    0.1786 C   0  0  0  0  0  0  0  0  0  0  0  0
    1.5219   -1.0105   -0.6722 O   0  0  0  0  0  0  0  0  0  0  0  0
    3.1986    0.3566    0.3690 C   0  0  0  0  0  0  0  0  0  0  0  0
    4.1197   -0.3582   -0.5381 C   0  0  0  0  0  0  0  0  0  0  0  0
    5.5024   -0.0807   -0.5430 N   0  0  0  0  0  0  0  0  0  0  0  0
    3.6566   -1.2234   -1.3123 O   0  0  0  0  0  0  0  0  0  0  0  0
   -3.7059    2.2766   -0.7049 H   0  0  0  0  0  0  0  0  0  0  0  0
   -4.4713    0.8551   -1.4498 H   0  0  0  0  0  0  0  0  0  0  0  0
   -5.1555    1.5597    0.0621 H   0  0  0  0  0  0  0  0  0  0  0  0
   -3.3987   -1.9461    0.3049 H   0  0  0  0  0  0  0  0  0  0  0  0
   -3.1308   -2.0456   -1.4402 H   0  0  0  0  0  0  0  0  0  0  0  0
   -1.7237   -2.1514   -0.3646 H   0  0  0  0  0  0  0  0  0  0  0  0
   -1.2237    1.3168   -0.7941 H   0  0  0  0  0  0  0  0  0  0  0  0
   -0.6127   -0.3180   -1.2893 H   0  0  0  0  0  0  0  0  0  0  0  0
   -1.2538    0.5573    1.5918 H   0  0  0  0  0  0  0  0  0  0  0  0
   -0.7993   -1.0730    1.0830 H   0  0  0  0  0  0  0  0  0  0  0  0
    0.9989    1.1635    1.6480 H   0  0  0  0  0  0  0  0  0  0  0  0
    3.2961    1.4405    0.2550 H   0  0  0  0  0  0  0  0  0  0  0  0
    3.4371    0.1338    1.4497 H   0  0  0  0  0  0  0  0  0  0  0  0
    6.1661   -0.4974   -1.2283 H   0  0  0  0  0  0  0  0  0  0  0  0
    5.8800    0.5724    0.1735 H   0  0  0  0  0  0  0  0  0  0  0  0
  1  2  1  0
  2  3  1  0
  3  4  1  0
  3  5  1  0
  5  6  1  0
  6  7  1  0
  7  8  1  0
  8  9  2  0
  8 10  1  0
 10 11  1  0
 11 12  1  0
 11 13  2  0
  1 14  1  0
  1 15  1  0
  1 16  1  0
  4 17  1  0
  4 18  1  0
  4 19  1  0
  5 20  1  0
  5 21  1  0
  6 22  1  0
  6 23  1  0
  7 24  1  0
 10 25  1  0
 10 26  1  0
 12 27  1  0
 12 28  1  0
M  END
$$$$

     RDKit          3D

 28 27  0  0  0  0  0  0  0  0999 V2000
   -1.9549   -1.3231   -0.8118 C   0  0  0  0  0  0  0  0  0  0  0  0
   -2.5821   -0.4738    0.0732 O   0  0  0  0  0  0  0  0  0  0  0  0
   -2.2865    0.8148   -0.2353 N   0  0  0  0  0  0  0  0  0  0  0  0
   -3.4505    1.4986   -0.7838 C   0  0  0  0  0  0  0  0  0  0  0  0
   -1.7464    1.5268    0.9053 C   0  0  0  0  0  0  0  0  0  0  0  0
   -0.5555    0.7564    1.4084 C   0  0  0  0  0  0  0  0  0  0  0  0
    0.4722    0.6312    0.3931 N   0  0  0  0  0  0  0  0  0  0  0  0
    1.6988   -0.0515    0.5941 C   0  0  0  0  0  0  0  0  0  0  0  0
    1.8996   -0.5604    1.7239 O   0  0  0  0  0  0  0  0  0  0  0  0
    2.7281   -0.1867   -0.4690 C   0  0  0  0  0  0  0  0  0  0  0  0
    3.9000   -0.9570   -0.0030 C   0  0  0  0  0  0  0  0  0  0  0  0
    4.3225   -2.1099   -0.7126 N   0  0  0  0  0  0  0  0  0  0  0  0
    4.5544   -0.6322    1.0228 O   0  0  0  0  0  0  0  0  0  0  0  0
   -1.0998   -0.9101   -1.3393 H   0  0  0  0  0  0  0  0  0  0  0  0
   -2.6738   -1.6828   -1.5904 H   0  0  0  0  0  0  0  0  0  0  0  0
   -1.6251   -2.2434   -0.2616 H   0  0  0  0  0  0  0  0  0  0  0  0
   -3.0767    2.3810   -1.3498 H   0  0  0  0  0  0  0  0  0  0  0  0
   -4.1673    1.7191    0.0060 H   0  0  0  0  0  0  0  0  0  0  0  0
   -3.8645    0.7778   -1.5477 H   0  0  0  0  0  0  0  0  0  0  0  0
   -2.5409    1.4937    1.6980 H   0  0  0  0  0  0  0  0  0  0  0  0
   -1.5106    2.5585    0.6344 H   0  0  0  0  0  0  0  0  0  0  0  0
   -0.8992   -0.3227    1.5648 H   0  0  0  0  0  0  0  0  0  0  0  0
   -0.1654    1.1390    2.3487 H   0  0  0  0  0  0  0  0  0  0  0  0
    0.3357    1.0521   -0.5506 H   0  0  0  0  0  0  0  0  0  0  0  0
    2.2558   -0.6589   -1.3556 H   0  0  0  0  0  0  0  0  0  0  0  0
    3.0994    0.8152   -0.8072 H   0  0  0  0  0  0  0  0  0  0  0  0
    4.0919   -2.1799   -1.7228 H   0  0  0  0  0  0  0  0  0  0  0  0
    4.8408   -2.8719   -0.2578 H   0  0  0  0  0  0  0  0  0  0  0  0
  1  2  1  0
  2  3  1  0
  3  4  1  0
  3  5  1  0
  5  6  1  0
  6  7  1  0
  7  8  1  0
  8  9  2  0
  8 10  1  0
 10 11  1  0
 11 12  1  0
 11 13  2  0
  1 14  1  0
  1 15  1  0
  1 16  1  0
  4 17  1  0
  4 18  1  0
  4 19  1  0
  5 20  1  0
  5 21  1  0
  6 22  1  0
  6 23  1  0
  7 24  1  0
 10 25  1  0
 10 26  1  0
 12 27  1  0
 12 28  1  0
M  END
$$$$

     RDKit          3D

 28 27  0  0  0  0  0  0  0  0999 V2000
   -4.3225   -1.0828    0.5647 C   0  0  0  0  0  0  0  0  0  0  0  0
   -3.3653   -0.2748    1.2168 O   0  0  0  0  0  0  0  0  0  0  0  0
   -2.6756    0.3568    0.3005 N   0  0  0  0  0  0  0  0  0  0  0  0
   -2.9874    1.6913    0.0054 C   0  0  0  0  0  0  0  0  0  0  0  0
   -1.4933   -0.2031   -0.1906 C   0  0  0  0  0  0  0  0  0  0  0  0
   -0.2147    0.3155    0.3661 C   0  0  0  0  0  0  0  0  0  0  0  0
    0.8968   -0.3788   -0.2585 N   0  0  0  0  0  0  0  0  0  0  0  0
    2.2562   -0.0812    0.0888 C   0  0  0  0  0  0  0  0  0  0  0  0
    2.4731    0.8023    0.9547 O   0  0  0  0  0  0  0  0  0  0  0  0
    3.3161   -0.8395   -0.6004 C   0  0  0  0  0  0  0  0  0  0  0  0
    4.6725   -0.4301   -0.1485 C   0  0  0  0  0  0  0  0  0  0  0  0
    4.8977    0.5717    0.8282 N   0  0  0  0  0  0  0  0  0  0  0  0
    5.6533   -1.0058   -0.6638 O   0  0  0  0  0  0  0  0  0  0  0  0
   -5.0403   -1.5233    1.2560 H   0  0  0  0  0  0  0  0  0  0  0  0
   -3.7254   -1.8414    0.0065 H   0  0  0  0  0  0  0  0  0  0  0  0
   -4.7767   -0.4238   -0.2118 H   0  0  0  0  0  0  0  0  0  0  0  0
   -3.0093    2.3845    0.8670 H   0  0  0  0  0  0  0  0  0  0  0  0
   -2.3223    2.0668   -0.7862 H   0  0  0  0  0  0  0  0  0  0  0  0
   -4.0302    1.7297   -0.4247 H   0  0  0  0  0  0  0  0  0  0  0  0
   -1.5133   -1.3128    0.0146 H   0  0  0  0  0  0  0  0  0  0  0  0
   -1.4784   -0.1189   -1.3047 H   0  0  0  0  0  0  0  0  0  0  0  0
   -0.1800    0.0078    1.4500 H   0  0  0  0  0  0  0  0  0  0  0  0
   -0.1064    1.4122    0.2723 H   0  0  0  0  0  0  0  0  0  0  0  0
    0.7071   -1.1167   -0.9793 H   0  0  0  0  0  0  0  0  0  0  0  0
    3.2139   -0.7323   -1.6987 H   0  0  0  0  0  0  0  0  0  0  0  0
    3.1966   -1.9047   -0.3356 H   0  0  0  0  0  0  0  0  0  0  0  0
    5.2454    0.3671    1.7881 H   0  0  0  0  0  0  0  0  0  0  0  0
    4.7124    1.5641    0.5940 H   0  0  0  0  0  0  0  0  0  0  0  0
  1  2  1  0
  2  3  1  0
  3  4  1  0
  3  5  1  0
  5  6  1  0
  6  7  1  0
  7  8  1  0
  8  9  2  0
  8 10  1  0
 10 11  1  0
 11 12  1  0
 11 13  2  0
  1 14  1  0
  1 15  1  0
  1 16  1  0
  4 17  1  0
  4 18  1  0
  4 19  1  0
  5 20  1  0
  5 21  1  0
  6 22  1  0
  6 23  1  0
  7 24  1  0
 10 25  1  0
 10 26  1  0
 12 27  1  0
 12 28  1  0
M  END
$$$$
