
     RDKit          3D

 19 19  0  0  0  0  0  0  0  0999 V2000
    2.8441   -0.1954    0.1705 N   0  0  0  0  0  0  0  0  0  0  0  0
    1.6628    0.5002    0.5187 C   0  0  0  0  0  0  0  0  0  0  0  0
    1.7614    1.5854    1.1288 O   0  0  0  0  0  0  0  0  0  0  0  0
    0.3696   -0.0490    0.1674 C   0  0  1  0  0  0  0  0  0  0  0  0
    0.4598   -1.2631   -0.5082 O   0  0  0  0  0  0  0  0  0  0  0  0
   -0.5826   -0.1303    1.3142 C   0  0  0  0  0  0  0  0  0  0  0  0
   -1.8302    0.0195    0.8844 C   0  0  0  0  0  0  0  0  0  0  0  0
   -1.7906    0.2115   -0.5891 C   0  0  2  0  0  0  0  0  0  0  0  0
   -1.6924   -1.0523   -1.1681 O   0  0  0  0  0  0  0  0  0  0  0  0
   -0.4403    0.8778   -0.7512 C   0  0  0  0  0  0  0  0  0  0  0  0
    3.7729    0.2818    0.0164 H   0  0  0  0  0  0  0  0  0  0  0  0
    2.8709   -1.2406    0.0422 H   0  0  0  0  0  0  0  0  0  0  0  0
    0.6786   -1.0373   -1.4678 H   0  0  0  0  0  0  0  0  0  0  0  0
   -0.2929   -0.2867    2.3311 H   0  0  0  0  0  0  0  0  0  0  0  0
   -2.7390    0.0047    1.5074 H   0  0  0  0  0  0  0  0  0  0  0  0
   -2.6221    0.8052   -0.9792 H   0  0  0  0  0  0  0  0  0  0  0  0
   -1.8341   -1.7840   -0.5277 H   0  0  0  0  0  0  0  0  0  0  0  0
   -0.0623    0.8602   -1.7745 H   0  0  0  0  0  0  0  0  0  0  0  0
   -0.5337    1.8925   -0.3153 H   0  0  0  0  0  0  0  0  0  0  0  0
  1  2  1  0
  2  3  2  0
  2  4  1  0
  4  5  1  6
  4  6  1  0
  6  7  2  0
  7  8  1  0
  8  9  1  0
  8 10  1  0
 10  4  1  0
  1 11  1  0
  1 12  1  0
  5 13  1  0
  6 14  1  0
  7 15  1  0
  8 16  1  6
  9 17  1  0
 10 18  1  0
 10 19  1  0
M  END
$$$$

     RDKit          3D

 19 19  0  0  0  0  0  0  0  0999 V2000
   -2.1001   -0.7140   -0.6766 N   0  0  0  0  0  0  0  0  0  0  0  0
   -1.4994    0.5637   -0.8299 C   0  0  0  0  0  0  0  0  0  0  0  0
   -2.1447    1.4360   -1.4621 O   0  0  0  0  0  0  0  0  0  0  0  0
   -0.1731    0.9214   -0.2939 C   0  0  1  0  0  0  0  0  0  0  0  0
    0.1570    2.2192   -0.5894 O   0  0  0  0  0  0  0  0  0  0  0  0
   -0.1000    0.6196    1.1702 C   0  0  0  0  0  0  0  0  0  0  0  0
    0.5500   -0.5208    1.3446 C   0  0  0  0  0  0  0  0  0  0  0  0
    0.9896   -1.1236    0.0547 C   0  0  2  0  0  0  0  0  0  0  0  0
    2.3111   -1.5559    0.1137 O   0  0  0  0  0  0  0  0  0  0  0  0
    0.9143    0.0295   -0.8993 C   0  0  0  0  0  0  0  0  0  0  0  0
   -1.7455   -1.4833   -1.2943 H   0  0  0  0  0  0  0  0  0  0  0  0
   -2.8683   -0.8905    0.0238 H   0  0  0  0  0  0  0  0  0  0  0  0
   -0.1781    2.8815    0.0601 H   0  0  0  0  0  0  0  0  0  0  0  0
   -0.5098    1.2297    1.9690 H   0  0  0  0  0  0  0  0  0  0  0  0
    0.7187   -0.9310    2.3444 H   0  0  0  0  0  0  0  0  0  0  0  0
    0.3445   -1.9796   -0.2240 H   0  0  0  0  0  0  0  0  0  0  0  0
    2.8341   -1.0154    0.7514 H   0  0  0  0  0  0  0  0  0  0  0  0
    0.6135   -0.2546   -1.9105 H   0  0  0  0  0  0  0  0  0  0  0  0
    1.8863    0.5680   -0.8755 H   0  0  0  0  0  0  0  0  0  0  0  0
  1  2  1  0
  2  3  2  0
  2  4  1  0
  4  5  1  1
  4  6  1  0
  6  7  2  0
  7  8  1  0
  8  9  1  0
  8 10  1  0
 10  4  1  0
  1 11  1  0
  1 12  1  0
  5 13  1  0
  6 14  1  0
  7 15  1  0
  8 16  1  6
  9 17  1  0
 10 18  1  0
 10 19  1  0
M  END
$$$$

     RDKit          3D

 19 19  0  0  0  0  0  0  0  0999 V2000
    2.8240    0.6349   -0.2074 N   0  0  0  0  0  0  0  0  0  0  0  0
    1.4537    0.6751    0.0583 C   0  0  0  0  0  0  0  0  0  0  0  0
    0.9173    1.7609    0.4188 O   0  0  0  0  0  0  0  0  0  0  0  0
    0.5470   -0.5029   -0.0546 C   0  0  1  0  0  0  0  0  0  0  0  0
    1.2577   -1.6389   -0.4524 O   0  0  0  0  0  0  0  0  0  0  0  0
   -0.0927   -0.6802    1.2601 C   0  0  0  0  0  0  0  0  0  0  0  0
   -1.2788   -0.1113    1.2465 C   0  0  0  0  0  0  0  0  0  0  0  0
   -1.5539    0.5082   -0.0919 C   0  0  2  0  0  0  0  0  0  0  0  0
   -2.8559    0.2874   -0.5041 O   0  0  0  0  0  0  0  0  0  0  0  0
   -0.5961   -0.2482   -0.9879 C   0  0  0  0  0  0  0  0  0  0  0  0
    3.4063   -0.1405    0.1536 H   0  0  0  0  0  0  0  0  0  0  0  0
    3.2752    1.3789   -0.7681 H   0  0  0  0  0  0  0  0  0  0  0  0
    0.6248   -2.1919   -0.9845 H   0  0  0  0  0  0  0  0  0  0  0  0
    0.3334   -1.1973    2.1188 H   0  0  0  0  0  0  0  0  0  0  0  0
   -2.0222   -0.0554    2.0614 H   0  0  0  0  0  0  0  0  0  0  0  0
   -1.3452    1.5749   -0.0960 H   0  0  0  0  0  0  0  0  0  0  0  0
   -3.5103    0.8511   -0.0613 H   0  0  0  0  0  0  0  0  0  0  0  0
   -1.0729   -1.2266   -1.2177 H   0  0  0  0  0  0  0  0  0  0  0  0
   -0.3113    0.3217   -1.8916 H   0  0  0  0  0  0  0  0  0  0  0  0
  1  2  1  0
  2  3  2  0
  2  4  1  0
  4  5  1  6
  4  6  1  0
  6  7  2  0
  7  8  1  0
  8  9  1  0
  8 10  1  0
 10  4  1  0
  1 11  1  0
  1 12  1  0
  5 13  1  0
  6 14  1  0
  7 15  1  0
  8 16  1  1
  9 17  1  0
 10 18  1  0
 10 19  1  0
M  END
$$$$

     RDKit          3D

 19 19  0  0  0  0  0  0  0  0999 V2000
    2.6500    0.3994   -0.3188 N   0  0  0  0  0  0  0  0  0  0  0  0
    1.7469   -0.3742    0.4572 C   0  0  0  0  0  0  0  0  0  0  0  0
    2.2409   -1.2010    1.2627 O   0  0  0  0  0  0  0  0  0  0  0  0
    0.2993   -0.2667    0.3753 C   0  0  1  0  0  0  0  0  0  0  0  0
   -0.3204   -1.1632    1.2676 O   0  0  0  0  0  0  0  0  0  0  0  0
   -0.2268    1.0759    0.7117 C   0  0  0  0  0  0  0  0  0  0  0  0
   -1.3816    1.2269    0.0893 C   0  0  0  0  0  0  0  0  0  0  0  0
   -1.7094   -0.0078   -0.7104 C   0  0  2  0  0  0  0  0  0  0  0  0
   -2.3343   -0.8892    0.1534 O   0  0  0  0  0  0  0  0  0  0  0  0
   -0.2719   -0.4874   -0.9922 C   0  0  0  0  0  0  0  0  0  0  0  0
    3.4468    0.9032    0.1316 H   0  0  0  0  0  0  0  0  0  0  0  0
    2.5759    0.5093   -1.3557 H   0  0  0  0  0  0  0  0  0  0  0  0
   -0.3603   -0.7507    2.1810 H   0  0  0  0  0  0  0  0  0  0  0  0
    0.2348    1.8321    1.3578 H   0  0  0  0  0  0  0  0  0  0  0  0
   -1.9937    2.1240    0.1579 H   0  0  0  0  0  0  0  0  0  0  0  0
   -2.2554    0.2120   -1.6230 H   0  0  0  0  0  0  0  0  0  0  0  0
   -2.2240   -1.8414   -0.1001 H   0  0  0  0  0  0  0  0  0  0  0  0
    0.1401    0.2311   -1.7153 H   0  0  0  0  0  0  0  0  0  0  0  0
   -0.2569   -1.5323   -1.3301 H   0  0  0  0  0  0  0  0  0  0  0  0
  1  2  1  0
  2  3  2  0
  2  4  1  0
  4  5  1  1
  4  6  1  0
  6  7  2  0
  7  8  1  0
  8  9  1  0
  8 10  1  0
 10  4  1  0
  1 11  1  0
  1 12  1  0
  5 13  1  0
  6 14  1  0
  7 15  1  0
  8 16  1  6
  9 17  1  0
 10 18  1  0
 10 19  1  0
M  END
$$$$

     RDKit          3D

 19 19  0  0  0  0  0  0  0  0999 V2000
    2.1148   -0.0849   -1.1660 N   0  0  0  0  0  0  0  0  0  0  0  0
    1.9005   -0.3731    0.2094 C   0  0  0  0  0  0  0  0  0  0  0  0
    2.8646   -0.7688    0.8831 O   0  0  0  0  0  0  0  0  0  0  0  0
    0.5835   -0.2168    0.8469 C   0  0  1  0  0  0  0  0  0  0  0  0
    0.6420   -0.5612    2.1868 O   0  0  0  0  0  0  0  0  0  0  0  0
    0.0780    1.1793    0.7545 C   0  0  0  0  0  0  0  0  0  0  0  0
   -1.0472    1.2456    0.0758 C   0  0  0  0  0  0  0  0  0  0  0  0
   -1.4907   -0.0768   -0.4015 C   0  0  2  0  0  0  0  0  0  0  0  0
   -2.7941   -0.3713    0.0010 O   0  0  0  0  0  0  0  0  0  0  0  0
   -0.4856   -1.0284    0.1482 C   0  0  0  0  0  0  0  0  0  0  0  0
    2.1251   -0.8543   -1.8689 H   0  0  0  0  0  0  0  0  0  0  0  0
    2.2603    0.9073   -1.4523 H   0  0  0  0  0  0  0  0  0  0  0  0
   -0.0517   -0.0565    2.6636 H   0  0  0  0  0  0  0  0  0  0  0  0
    0.6057    2.0264    1.2094 H   0  0  0  0  0  0  0  0  0  0  0  0
   -1.6080    2.1667   -0.1244 H   0  0  0  0  0  0  0  0  0  0  0  0
   -1.4741   -0.1257   -1.5057 H   0  0  0  0  0  0  0  0  0  0  0  0
   -3.1843    0.3447    0.5615 H   0  0  0  0  0  0  0  0  0  0  0  0
   -0.9737   -1.6880    0.8779 H   0  0  0  0  0  0  0  0  0  0  0  0
   -0.0652   -1.6642   -0.6497 H   0  0  0  0  0  0  0  0  0  0  0  0
  1  2  1  0
  2  3  2  0
  2  4  1  0
  4  5  1  1
  4  6  1  0
  6  7  2  0
  7  8  1  0
  8  9  1  0
  8 10  1  0
 10  4  1  0
  1 11  1  0
  1 12  1  0
  5 13  1  0
  6 14  1  0
  7 15  1  0
  8 16  1  6
  9 17  1  0
 10 18  1  0
 10 19  1  0
M  END
$$$$

     RDKit          3D

 19 19  0  0  0  0  0  0  0  0999 V2000
   -2.9362    0.2001    0.0472 N   0  0  0  0  0  0  0  0  0  0  0  0
   -1.6737    0.1110    0.6681 C   0  0  0  0  0  0  0  0  0  0  0  0
   -1.5930   -0.0587    1.8986 O   0  0  0  0  0  0  0  0  0  0  0  0
   -0.4512    0.2189   -0.1410 C   0  0  1  0  0  0  0  0  0  0  0  0
   -0.7854    0.4019   -1.4630 O   0  0  0  0  0  0  0  0  0  0  0  0
    0.4099    1.3113    0.3893 C   0  0  0  0  0  0  0  0  0  0  0  0
    1.6089    0.8806    0.7256 C   0  0  0  0  0  0  0  0  0  0  0  0
    1.7316   -0.5859    0.4671 C   0  0  2  0  0  0  0  0  0  0  0  0
    2.7381   -0.8257   -0.4765 O   0  0  0  0  0  0  0  0  0  0  0  0
    0.4048   -1.0270   -0.0646 C   0  0  0  0  0  0  0  0  0  0  0  0
   -3.7116    0.7779    0.4456 H   0  0  0  0  0  0  0  0  0  0  0  0
   -3.1009   -0.3342   -0.8476 H   0  0  0  0  0  0  0  0  0  0  0  0
   -0.8056   -0.4592   -1.9167 H   0  0  0  0  0  0  0  0  0  0  0  0
    0.0751    2.3366    0.4817 H   0  0  0  0  0  0  0  0  0  0  0  0
    2.4406    1.4513    1.1380 H   0  0  0  0  0  0  0  0  0  0  0  0
    1.9792   -1.1532    1.3899 H   0  0  0  0  0  0  0  0  0  0  0  0
    3.2374    0.0295   -0.6086 H   0  0  0  0  0  0  0  0  0  0  0  0
    0.5389   -1.5143   -1.0548 H   0  0  0  0  0  0  0  0  0  0  0  0
   -0.1071   -1.7607    0.5805 H   0  0  0  0  0  0  0  0  0  0  0  0
  1  2  1  0
  2  3  2  0
  2  4  1  0
  4  5  1  6
  4  6  1  0
  6  7  2  0
  7  8  1  0
  8  9  1  0
  8 10  1  0
 10  4  1  0
  1 11  1  0
  1 12  1  0
  5 13  1  0
  6 14  1  0
  7 15  1  0
  8 16  1  1
  9 17  1  0
 10 18  1  0
 10 19  1  0
M  END
$$$$

     RDKit          3D

 19 19  0  0  0  0  0  0  0  0999 V2000
    2.6287    0.2146   -0.2846 N   0  0  0  0  0  0  0  0  0  0  0  0
    1.7580   -0.2148    0.7448 C   0  0  0  0  0  0  0  0  0  0  0  0
    2.2313   -0.7558    1.7893 O   0  0  0  0  0  0  0  0  0  0  0  0
    0.2904   -0.0657    0.6720 C   0  0  1  0  0  0  0  0  0  0  0  0
   -0.3505   -0.5586    1.7957 O   0  0  0  0  0  0  0  0  0  0  0  0
   -0.1367    1.3420    0.4977 C   0  0  0  0  0  0  0  0  0  0  0  0
   -1.2768    1.3521   -0.1733 C   0  0  0  0  0  0  0  0  0  0  0  0
   -1.6946   -0.0617   -0.4981 C   0  0  2  0  0  0  0  0  0  0  0  0
   -2.3856   -0.5329    0.6084 O   0  0  0  0  0  0  0  0  0  0  0  0
   -0.2926   -0.6921   -0.5749 C   0  0  0  0  0  0  0  0  0  0  0  0
    2.3753    1.0093   -0.8826 H   0  0  0  0  0  0  0  0  0  0  0  0
    3.5350   -0.2717   -0.4452 H   0  0  0  0  0  0  0  0  0  0  0  0
   -0.3753   -1.5331    1.8582 H   0  0  0  0  0  0  0  0  0  0  0  0
    0.4420    2.1882    0.8850 H   0  0  0  0  0  0  0  0  0  0  0  0
   -1.8152    2.2453   -0.4407 H   0  0  0  0  0  0  0  0  0  0  0  0
   -2.2321   -0.1345   -1.4391 H   0  0  0  0  0  0  0  0  0  0  0  0
   -2.5566   -1.5025    0.5879 H   0  0  0  0  0  0  0  0  0  0  0  0
    0.1813   -0.2535   -1.4706 H   0  0  0  0  0  0  0  0  0  0  0  0
   -0.3261   -1.7746   -0.5468 H   0  0  0  0  0  0  0  0  0  0  0  0
  1  2  1  0
  2  3  2  0
  2  4  1  0
  4  5  1  1
  4  6  1  0
  6  7  2  0
  7  8  1  0
  8  9  1  0
  8 10  1  0
 10  4  1  0
  1 11  1  0
  1 12  1  0
  5 13  1  0
  6 14  1  0
  7 15  1  0
  8 16  1  6
  9 17  1  0
 10 18  1  0
 10 19  1  0
M  END
$$$$

     RDKit          3D

 19 19  0  0  0  0  0  0  0  0999 V2000
    2.7054    0.6925    0.0407 N   0  0  0  0  0  0  0  0  0  0  0  0
    1.2863    0.7860    0.0655 C   0  0  0  0  0  0  0  0  0  0  0  0
    0.7871    1.9174   -0.1504 O   0  0  0  0  0  0  0  0  0  0  0  0
    0.4640   -0.4028    0.3340 C   0  0  1  0  0  0  0  0  0  0  0  0
    1.2328   -1.5425    0.5501 O   0  0  0  0  0  0  0  0  0  0  0  0
   -0.5527   -0.2082    1.3919 C   0  0  0  0  0  0  0  0  0  0  0  0
   -1.7153    0.1526    0.8675 C   0  0  0  0  0  0  0  0  0  0  0  0
   -1.5759    0.2307   -0.5864 C   0  0  2  0  0  0  0  0  0  0  0  0
   -2.7213   -0.1414   -1.2776 O   0  0  0  0  0  0  0  0  0  0  0  0
   -0.4167   -0.6965   -0.8632 C   0  0  0  0  0  0  0  0  0  0  0  0
    3.3226    1.4274   -0.3711 H   0  0  0  0  0  0  0  0  0  0  0  0
    3.1922   -0.1382    0.4452 H   0  0  0  0  0  0  0  0  0  0  0  0
    1.7502   -1.5071    1.3832 H   0  0  0  0  0  0  0  0  0  0  0  0
   -0.3858   -0.3384    2.4493 H   0  0  0  0  0  0  0  0  0  0  0  0
   -2.6549    0.3682    1.3929 H   0  0  0  0  0  0  0  0  0  0  0  0
   -1.3357    1.2766   -0.8577 H   0  0  0  0  0  0  0  0  0  0  0  0
   -2.6918    0.3293   -2.1481 H   0  0  0  0  0  0  0  0  0  0  0  0
    0.0937   -0.4572   -1.8189 H   0  0  0  0  0  0  0  0  0  0  0  0
   -0.7841   -1.7483   -0.8469 H   0  0  0  0  0  0  0  0  0  0  0  0
  1  2  1  0
  2  3  2  0
  2  4  1  0
  4  5  1  1
  4  6  1  0
  6  7  2  0
  7  8  1  0
  8  9  1  0
  8 10  1  0
 10  4  1  0
  1 11  1  0
  1 12  1  0
  5 13  1  0
  6 14  1  0
  7 15  1  0
  8 16  1  1
  9 17  1  0
 10 18  1  0
 10 19  1  0
M  END
$$$$
