
     RDKit          3D

 17 18  0  0  0  0  0  0  0  0999 V2000
   -2.9901   -1.2506   -0.8333 O   0  0  0  0  0  0  0  0  0  0  0  0
   -1.9251   -0.7065   -0.4350 C   0  0  0  0  0  0  0  0  0  0  0  0
   -0.7291   -1.1825   -0.8514 N   0  0  0  0  0  0  0  0  0  0  0  0
    0.4436   -0.6507   -0.4664 C   0  0  0  0  0  0  0  0  0  0  0  0
    1.6377   -1.1381   -0.8918 N   0  0  0  0  0  0  0  0  0  0  0  0
    2.7992   -0.5904   -0.4938 C   0  0  0  0  0  0  0  0  0  0  0  0
    2.7279    0.4866    0.3642 C   0  0  0  0  0  0  0  0  0  0  0  0
    1.5386    0.9743    0.7898 N   0  0  0  0  0  0  0  0  0  0  0  0
    0.3752    0.4283    0.3931 C   0  0  0  0  0  0  0  0  0  0  0  0
   -0.8547    0.8979    0.8056 C   0  0  0  0  0  0  0  0  0  0  0  0
   -0.9265    1.8821    1.5899 O   0  0  0  0  0  0  0  0  0  0  0  0
   -2.0134    0.3455    0.4037 N   0  0  0  0  0  0  0  0  0  0  0  0
   -3.2250    0.8480    0.8417 O   0  0  0  0  0  0  0  0  0  0  0  0
   -0.6777   -1.9967   -1.5001 H   0  0  0  0  0  0  0  0  0  0  0  0
    3.7449   -0.9949   -0.8454 H   0  0  0  0  0  0  0  0  0  0  0  0
    3.6750    0.9241    0.6816 H   0  0  0  0  0  0  0  0  0  0  0  0
   -3.6003    1.7235    0.4477 H   0  0  0  0  0  0  0  0  0  0  0  0
  1  2  2  0
  2  3  1  0
  3  4  1  0
  4  5  2  0
  5  6  1  0
  6  7  2  0
  7  8  1  0
  8  9  2  0
  9 10  1  0
 10 11  2  0
 10 12  1  0
 12 13  1  0
 12  2  1  0
  9  4  1  0
  3 14  1  0
  6 15  1  0
  7 16  1  0
 13 17  1  0
M  END
$$$$

     RDKit          3D

 17 18  0  0  0  0  0  0  0  0999 V2000
   -2.7215    1.8995    0.2952 O   0  0  0  0  0  0  0  0  0  0  0  0
   -1.7413    1.1399    0.1401 C   0  0  0  0  0  0  0  0  0  0  0  0
   -0.5028    1.5427    0.4681 N   0  0  0  0  0  0  0  0  0  0  0  0
    0.5153    0.6747    0.2765 C   0  0  0  0  0  0  0  0  0  0  0  0
    1.7862    1.0030    0.5804 N   0  0  0  0  0  0  0  0  0  0  0  0
    2.8077    0.1488    0.3946 C   0  0  0  0  0  0  0  0  0  0  0  0
    2.5834   -1.1091   -0.1205 C   0  0  0  0  0  0  0  0  0  0  0  0
    1.3304   -1.4572   -0.4295 N   0  0  0  0  0  0  0  0  0  0  0  0
    0.3011   -0.5863   -0.2384 C   0  0  0  0  0  0  0  0  0  0  0  0
   -0.9886   -0.9834   -0.5714 C   0  0  0  0  0  0  0  0  0  0  0  0
   -1.1958   -2.1347   -1.0431 O   0  0  0  0  0  0  0  0  0  0  0  0
   -1.9714   -0.0918   -0.3658 N   0  0  0  0  0  0  0  0  0  0  0  0
   -3.2499   -0.4722   -0.6908 O   0  0  0  0  0  0  0  0  0  0  0  0
   -0.3113    2.4977    0.8621 H   0  0  0  0  0  0  0  0  0  0  0  0
    3.8360    0.4361    0.6488 H   0  0  0  0  0  0  0  0  0  0  0  0
    3.4296   -1.8005   -0.2682 H   0  0  0  0  0  0  0  0  0  0  0  0
   -3.9068   -0.7071    0.0618 H   0  0  0  0  0  0  0  0  0  0  0  0
  1  2  2  0
  2  3  1  0
  3  4  1  0
  4  5  2  0
  5  6  1  0
  6  7  2  0
  7  8  1  0
  8  9  2  0
  9 10  1  0
 10 11  2  0
 10 12  1  0
 12 13  1  0
 12  2  1  0
  9  4  1  0
  3 14  1  0
  6 15  1  0
  7 16  1  0
 13 17  1  0
M  END
$$$$

     RDKit          3D

 17 18  0  0  0  0  0  0  0  0999 V2000
    2.7773    1.8253    0.1170 O   0  0  0  0  0  0  0  0  0  0  0  0
    1.8006    1.0268    0.0144 C   0  0  0  0  0  0  0  0  0  0  0  0
    0.5815    1.5268    0.2918 N   0  0  0  0  0  0  0  0  0  0  0  0
   -0.5000    0.7108    0.1967 C   0  0  0  0  0  0  0  0  0  0  0  0
   -1.7266    1.1763    0.4655 N   0  0  0  0  0  0  0  0  0  0  0  0
   -2.7970    0.3707    0.3719 C   0  0  0  0  0  0  0  0  0  0  0  0
   -2.6070   -0.9573   -0.0098 C   0  0  0  0  0  0  0  0  0  0  0  0
   -1.3891   -1.4570   -0.2870 N   0  0  0  0  0  0  0  0  0  0  0  0
   -0.3365   -0.6062   -0.1790 C   0  0  0  0  0  0  0  0  0  0  0  0
    0.9397   -1.0742   -0.4544 C   0  0  0  0  0  0  0  0  0  0  0  0
    1.0529   -2.2766   -0.7932 O   0  0  0  0  0  0  0  0  0  0  0  0
    1.9830   -0.2447   -0.3512 N   0  0  0  0  0  0  0  0  0  0  0  0
    3.2497   -0.7141   -0.6257 O   0  0  0  0  0  0  0  0  0  0  0  0
    0.4277    2.5288    0.5810 H   0  0  0  0  0  0  0  0  0  0  0  0
   -3.7898    0.7550    0.5916 H   0  0  0  0  0  0  0  0  0  0  0  0
   -3.4964   -1.5978   -0.0798 H   0  0  0  0  0  0  0  0  0  0  0  0
    3.8300   -0.9924    0.1503 H   0  0  0  0  0  0  0  0  0  0  0  0
  1  2  2  0
  2  3  1  0
  3  4  1  0
  4  5  2  0
  5  6  1  0
  6  7  2  0
  7  8  1  0
  8  9  2  0
  9 10  1  0
 10 11  2  0
 10 12  1  0
 12 13  1  0
 12  2  1  0
  9  4  1  0
  3 14  1  0
  6 15  1  0
  7 16  1  0
 13 17  1  0
M  END
$$$$

     RDKit          3D

 17 18  0  0  0  0  0  0  0  0999 V2000
   -2.7769    1.8700    0.1823 O   0  0  0  0  0  0  0  0  0  0  0  0
   -1.8062    1.0903    0.0791 C   0  0  0  0  0  0  0  0  0  0  0  0
   -0.5506    1.5802    0.2399 N   0  0  0  0  0  0  0  0  0  0  0  0
    0.5187    0.7527    0.1323 C   0  0  0  0  0  0  0  0  0  0  0  0
    1.7775    1.2006    0.2850 N   0  0  0  0  0  0  0  0  0  0  0  0
    2.7968    0.3428    0.1689 C   0  0  0  0  0  0  0  0  0  0  0  0
    2.6352   -1.0010   -0.1035 C   0  0  0  0  0  0  0  0  0  0  0  0
    1.3732   -1.4423   -0.2551 N   0  0  0  0  0  0  0  0  0  0  0  0
    0.3324   -0.5887   -0.1409 C   0  0  0  0  0  0  0  0  0  0  0  0
   -0.9660   -1.0287   -0.2941 C   0  0  0  0  0  0  0  0  0  0  0  0
   -1.1926   -2.2243   -0.5407 O   0  0  0  0  0  0  0  0  0  0  0  0
   -2.0324   -0.1942   -0.1850 N   0  0  0  0  0  0  0  0  0  0  0  0
   -3.3276   -0.6307   -0.3373 O   0  0  0  0  0  0  0  0  0  0  0  0
   -0.4078    2.5968    0.4470 H   0  0  0  0  0  0  0  0  0  0  0  0
    3.7981    0.7695    0.3042 H   0  0  0  0  0  0  0  0  0  0  0  0
    3.4988   -1.6740   -0.1913 H   0  0  0  0  0  0  0  0  0  0  0  0
   -3.6706   -1.4189    0.2091 H   0  0  0  0  0  0  0  0  0  0  0  0
  1  2  2  0
  2  3  1  0
  3  4  1  0
  4  5  2  0
  5  6  1  0
  6  7  2  0
  7  8  1  0
  8  9  2  0
  9 10  1  0
 10 11  2  0
 10 12  1  0
 12 13  1  0
 12  2  1  0
  9  4  1  0
  3 14  1  0
  6 15  1  0
  7 16  1  0
 13 17  1  0
M  END
$$$$

     RDKit          3D

 17 18  0  0  0  0  0  0  0  0999 V2000
    2.8564    1.7921    0.0142 O   0  0  0  0  0  0  0  0  0  0  0  0
    1.8293    1.0685    0.0346 C   0  0  0  0  0  0  0  0  0  0  0  0
    0.5755    1.5445   -0.0784 N   0  0  0  0  0  0  0  0  0  0  0  0
   -0.5088    0.7602   -0.0548 C   0  0  0  0  0  0  0  0  0  0  0  0
   -1.7633    1.2469   -0.1689 N   0  0  0  0  0  0  0  0  0  0  0  0
   -2.8411    0.4450   -0.1431 C   0  0  0  0  0  0  0  0  0  0  0  0
   -2.6670   -0.9267    0.0050 C   0  0  0  0  0  0  0  0  0  0  0  0
   -1.4138   -1.4244    0.1202 N   0  0  0  0  0  0  0  0  0  0  0  0
   -0.3556   -0.6102    0.0922 C   0  0  0  0  0  0  0  0  0  0  0  0
    0.9504   -1.0622    0.2054 C   0  0  0  0  0  0  0  0  0  0  0  0
    1.1573   -2.3065    0.3423 O   0  0  0  0  0  0  0  0  0  0  0  0
    2.0218   -0.2608    0.1794 N   0  0  0  0  0  0  0  0  0  0  0  0
    3.2781   -0.7990    0.2988 O   0  0  0  0  0  0  0  0  0  0  0  0
    0.4939    2.5786   -0.1875 H   0  0  0  0  0  0  0  0  0  0  0  0
   -3.8555    0.7893   -0.2304 H   0  0  0  0  0  0  0  0  0  0  0  0
   -3.5356   -1.5877    0.0273 H   0  0  0  0  0  0  0  0  0  0  0  0
    3.7779   -1.2478   -0.4562 H   0  0  0  0  0  0  0  0  0  0  0  0
  1  2  2  0
  2  3  1  0
  3  4  1  0
  4  5  2  0
  5  6  1  0
  6  7  2  0
  7  8  1  0
  8  9  2  0
  9 10  1  0
 10 11  2  0
 10 12  1  0
 12 13  1  0
 12  2  1  0
  9  4  1  0
  3 14  1  0
  6 15  1  0
  7 16  1  0
 13 17  1  0
M  END
$$$$

     RDKit          3D

 17 18  0  0  0  0  0  0  0  0999 V2000
   -2.8339    1.6911    0.6520 O   0  0  0  0  0  0  0  0  0  0  0  0
   -1.8238    0.9926    0.3505 C   0  0  0  0  0  0  0  0  0  0  0  0
   -0.5635    1.4083    0.6186 N   0  0  0  0  0  0  0  0  0  0  0  0
    0.5200    0.6764    0.3039 C   0  0  0  0  0  0  0  0  0  0  0  0
    1.7831    1.0960    0.5740 N   0  0  0  0  0  0  0  0  0  0  0  0
    2.8567    0.3469    0.2502 C   0  0  0  0  0  0  0  0  0  0  0  0
    2.6602   -0.8705   -0.3685 C   0  0  0  0  0  0  0  0  0  0  0  0
    1.3967   -1.2842   -0.6357 N   0  0  0  0  0  0  0  0  0  0  0  0
    0.3222   -0.5404   -0.3146 C   0  0  0  0  0  0  0  0  0  0  0  0
   -0.9750   -0.9324   -0.5726 C   0  0  0  0  0  0  0  0  0  0  0  0
   -1.1799   -2.0498   -1.1416 O   0  0  0  0  0  0  0  0  0  0  0  0
   -2.0491   -0.1972   -0.2557 N   0  0  0  0  0  0  0  0  0  0  0  0
   -3.3385   -0.6093   -0.5234 O   0  0  0  0  0  0  0  0  0  0  0  0
   -0.4073    2.3149    1.0798 H   0  0  0  0  0  0  0  0  0  0  0  0
    3.8611    0.6951    0.4723 H   0  0  0  0  0  0  0  0  0  0  0  0
    3.5355   -1.4544   -0.6190 H   0  0  0  0  0  0  0  0  0  0  0  0
   -3.7646   -1.2831    0.1296 H   0  0  0  0  0  0  0  0  0  0  0  0
  1  2  2  0
  2  3  1  0
  3  4  1  0
  4  5  2  0
  5  6  1  0
  6  7  2  0
  7  8  1  0
  8  9  2  0
  9 10  1  0
 10 11  2  0
 10 12  1  0
 12 13  1  0
 12  2  1  0
  9  4  1  0
  3 14  1  0
  6 15  1  0
  7 16  1  0
 13 17  1  0
M  END
$$$$

     RDKit          3D

 17 18  0  0  0  0  0  0  0  0999 V2000
    2.8528    1.7512   -0.1436 O   0  0  0  0  0  0  0  0  0  0  0  0
    1.8482    0.9946   -0.1311 C   0  0  0  0  0  0  0  0  0  0  0  0
    0.6273    1.5284    0.0940 N   0  0  0  0  0  0  0  0  0  0  0  0
   -0.4705    0.7433    0.1137 C   0  0  0  0  0  0  0  0  0  0  0  0
   -1.6507    1.2993    0.3370 N   0  0  0  0  0  0  0  0  0  0  0  0
   -2.7658    0.5460    0.3634 C   0  0  0  0  0  0  0  0  0  0  0  0
   -2.6623   -0.8047    0.1559 C   0  0  0  0  0  0  0  0  0  0  0  0
   -1.4619   -1.4121   -0.0773 N   0  0  0  0  0  0  0  0  0  0  0  0
   -0.3723   -0.6198   -0.0950 C   0  0  0  0  0  0  0  0  0  0  0  0
    0.9002   -1.1232   -0.3219 C   0  0  0  0  0  0  0  0  0  0  0  0
    1.0178   -2.3574   -0.5143 O   0  0  0  0  0  0  0  0  0  0  0  0
    1.9880   -0.3338   -0.3398 N   0  0  0  0  0  0  0  0  0  0  0  0
    3.2466   -0.8767   -0.5707 O   0  0  0  0  0  0  0  0  0  0  0  0
    0.5814    2.5631    0.2489 H   0  0  0  0  0  0  0  0  0  0  0  0
   -3.7483    0.9605    0.5423 H   0  0  0  0  0  0  0  0  0  0  0  0
   -3.5805   -1.4084    0.1800 H   0  0  0  0  0  0  0  0  0  0  0  0
    3.6502   -1.4502    0.1585 H   0  0  0  0  0  0  0  0  0  0  0  0
  1  2  2  0
  2  3  1  0
  3  4  1  0
  4  5  2  0
  5  6  1  0
  6  7  2  0
  7  8  1  0
  8  9  2  0
  9 10  1  0
 10 11  2  0
 10 12  1  0
 12 13  1  0
 12  2  1  0
  9  4  1  0
  3 14  1  0
  6 15  1  0
  7 16  1  0
 13 17  1  0
M  END
$$$$

     RDKit          3D

 17 18  0  0  0  0  0  0  0  0999 V2000
   -2.7710    1.9046    0.2603 O   0  0  0  0  0  0  0  0  0  0  0  0
   -1.7898    1.1369    0.1305 C   0  0  0  0  0  0  0  0  0  0  0  0
   -0.5077    1.5658    0.2377 N   0  0  0  0  0  0  0  0  0  0  0  0
    0.5348    0.7295    0.0957 C   0  0  0  0  0  0  0  0  0  0  0  0
    1.8264    1.1553    0.2025 N   0  0  0  0  0  0  0  0  0  0  0  0
    2.8333    0.2743    0.0513 C   0  0  0  0  0  0  0  0  0  0  0  0
    2.6229   -1.0609   -0.2108 C   0  0  0  0  0  0  0  0  0  0  0  0
    1.3337   -1.4650   -0.3133 N   0  0  0  0  0  0  0  0  0  0  0  0
    0.3021   -0.6074   -0.1671 C   0  0  0  0  0  0  0  0  0  0  0  0
   -1.0185   -0.9955   -0.2671 C   0  0  0  0  0  0  0  0  0  0  0  0
   -1.2489   -2.2046   -0.5052 O   0  0  0  0  0  0  0  0  0  0  0  0
   -2.0462   -0.1539   -0.1239 N   0  0  0  0  0  0  0  0  0  0  0  0
   -3.3494   -0.6386   -0.2422 O   0  0  0  0  0  0  0  0  0  0  0  0
   -0.3443    2.5685    0.4346 H   0  0  0  0  0  0  0  0  0  0  0  0
    3.8397    0.6601    0.1449 H   0  0  0  0  0  0  0  0  0  0  0  0
    3.4616   -1.7359   -0.3254 H   0  0  0  0  0  0  0  0  0  0  0  0
   -3.6787   -1.1331    0.5977 H   0  0  0  0  0  0  0  0  0  0  0  0
  1  2  2  0
  2  3  1  0
  3  4  1  0
  4  5  2  0
  5  6  1  0
  6  7  2  0
  7  8  1  0
  8  9  2  0
  9 10  1  0
 10 11  2  0
 10 12  1  0
 12 13  1  0
 12  2  1  0
  9  4  1  0
  3 14  1  0
  6 15  1  0
  7 16  1  0
 13 17  1  0
M  END
$$$$
