
     RDKit          3D

 19 18  0  0  0  0  0  0  0  0999 V2000
    2.0397   -0.2202    1.5710 O   0  0  0  0  0  0  0  0  0  0  0  0
    1.4825   -0.1898    0.4909 C   0  0  0  0  0  0  0  0  0  0  0  0
    2.1786    0.3946   -0.6579 C   0  0  0  0  0  0  0  0  0  0  0  0
    3.4391    0.8423   -0.2882 O   0  0  0  0  0  0  0  0  0  0  0  0
    0.1049   -0.7604    0.4122 C   0  0  1  0  0  0  0  0  0  0  0  0
   -0.3092   -1.2460    1.6498 O   0  0  0  0  0  0  0  0  0  0  0  0
   -0.8752    0.2909   -0.0759 C   0  0  0  0  0  0  0  0  0  0  0  0
   -2.2707   -0.2351   -0.1710 C   0  0  0  0  0  0  0  0  0  0  0  0
   -3.0967    0.7858   -0.6224 O   0  0  0  0  0  0  0  0  0  0  0  0
    1.6408    1.2452   -1.1313 H   0  0  0  0  0  0  0  0  0  0  0  0
    2.3054   -0.4068   -1.4219 H   0  0  0  0  0  0  0  0  0  0  0  0
    3.3646    1.3613    0.5519 H   0  0  0  0  0  0  0  0  0  0  0  0
    0.0789   -1.6166   -0.2975 H   0  0  0  0  0  0  0  0  0  0  0  0
   -1.0276   -1.9055    1.5675 H   0  0  0  0  0  0  0  0  0  0  0  0
   -0.8660    1.1283    0.6402 H   0  0  0  0  0  0  0  0  0  0  0  0
   -0.5651    0.6691   -1.0592 H   0  0  0  0  0  0  0  0  0  0  0  0
   -2.6332   -0.5469    0.8308 H   0  0  0  0  0  0  0  0  0  0  0  0
   -2.3652   -1.0795   -0.8886 H   0  0  0  0  0  0  0  0  0  0  0  0
   -2.6256    1.4894   -1.1004 H   0  0  0  0  0  0  0  0  0  0  0  0
  1  2  2  0
  2  3  1  0
  3  4  1  0
  2  5  1  0
  5  6  1  0
  5  7  1  0
  7  8  1  0
  8  9  1  0
  3 10  1  0
  3 11  1  0
  4 12  1  0
  5 13  1  6
  6 14  1  0
  7 15  1  0
  7 16  1  0
  8 17  1  0
  8 18  1  0
  9 19  1  0
M  END
$$$$

     RDKit          3D

 19 18  0  0  0  0  0  0  0  0999 V2000
    1.9808   -1.7854    0.4048 O   0  0  0  0  0  0  0  0  0  0  0  0
    1.4912   -0.6717    0.2532 C   0  0  0  0  0  0  0  0  0  0  0  0
    2.2237    0.5005    0.7481 C   0  0  0  0  0  0  0  0  0  0  0  0
    1.5628    1.6768    0.4885 O   0  0  0  0  0  0  0  0  0  0  0  0
    0.1872   -0.5630   -0.4208 C   0  0  1  0  0  0  0  0  0  0  0  0
   -0.2942   -1.8043   -0.8359 O   0  0  0  0  0  0  0  0  0  0  0  0
   -0.8564   -0.0569    0.5849 C   0  0  0  0  0  0  0  0  0  0  0  0
   -2.1631    0.0192   -0.2078 C   0  0  0  0  0  0  0  0  0  0  0  0
   -3.1865    0.4730    0.6220 O   0  0  0  0  0  0  0  0  0  0  0  0
    2.4516    0.4003    1.8475 H   0  0  0  0  0  0  0  0  0  0  0  0
    3.2320    0.5177    0.2528 H   0  0  0  0  0  0  0  0  0  0  0  0
    2.0770    2.3077   -0.0938 H   0  0  0  0  0  0  0  0  0  0  0  0
    0.1638    0.1109   -1.2786 H   0  0  0  0  0  0  0  0  0  0  0  0
    0.4085   -2.4091   -1.1529 H   0  0  0  0  0  0  0  0  0  0  0  0
   -0.9288   -0.7653    1.4219 H   0  0  0  0  0  0  0  0  0  0  0  0
   -0.6026    0.9603    0.9163 H   0  0  0  0  0  0  0  0  0  0  0  0
   -1.9875    0.6995   -1.0536 H   0  0  0  0  0  0  0  0  0  0  0  0
   -2.3655   -1.0345   -0.5349 H   0  0  0  0  0  0  0  0  0  0  0  0
   -3.3941    1.4244    0.3629 H   0  0  0  0  0  0  0  0  0  0  0  0
  1  2  2  0
  2  3  1  0
  3  4  1  0
  2  5  1  0
  5  6  1  0
  5  7  1  0
  7  8  1  0
  8  9  1  0
  3 10  1  0
  3 11  1  0
  4 12  1  0
  5 13  1  6
  6 14  1  0
  7 15  1  0
  7 16  1  0
  8 17  1  0
  8 18  1  0
  9 19  1  0
M  END
$$$$

     RDKit          3D

 19 18  0  0  0  0  0  0  0  0999 V2000
   -1.3282   -2.2314   -0.0658 O   0  0  0  0  0  0  0  0  0  0  0  0
   -1.2118   -1.0396    0.2170 C   0  0  0  0  0  0  0  0  0  0  0  0
   -2.4124   -0.1676    0.2727 C   0  0  0  0  0  0  0  0  0  0  0  0
   -2.0395    1.1197    0.6387 O   0  0  0  0  0  0  0  0  0  0  0  0
    0.1406   -0.5219    0.4935 C   0  0  1  0  0  0  0  0  0  0  0  0
    1.0809   -1.5793    0.4244 O   0  0  0  0  0  0  0  0  0  0  0  0
    0.6121    0.4592   -0.5710 C   0  0  0  0  0  0  0  0  0  0  0  0
    1.9875    0.9618   -0.2562 C   0  0  0  0  0  0  0  0  0  0  0  0
    2.8737   -0.1019   -0.2080 O   0  0  0  0  0  0  0  0  0  0  0  0
   -2.9618   -0.1781   -0.6893 H   0  0  0  0  0  0  0  0  0  0  0  0
   -3.0910   -0.5350    1.0828 H   0  0  0  0  0  0  0  0  0  0  0  0
   -2.8652    1.6923    0.5489 H   0  0  0  0  0  0  0  0  0  0  0  0
    0.1994   -0.0317    1.4754 H   0  0  0  0  0  0  0  0  0  0  0  0
    0.7829   -2.1672   -0.3180 H   0  0  0  0  0  0  0  0  0  0  0  0
   -0.0952    1.2890   -0.6065 H   0  0  0  0  0  0  0  0  0  0  0  0
    0.6449   -0.0150   -1.5673 H   0  0  0  0  0  0  0  0  0  0  0  0
    1.9751    1.4354    0.7378 H   0  0  0  0  0  0  0  0  0  0  0  0
    2.2660    1.6921   -1.0385 H   0  0  0  0  0  0  0  0  0  0  0  0
    3.4421   -0.0811    0.6131 H   0  0  0  0  0  0  0  0  0  0  0  0
  1  2  2  0
  2  3  1  0
  3  4  1  0
  2  5  1  0
  5  6  1  0
  5  7  1  0
  7  8  1  0
  8  9  1  0
  3 10  1  0
  3 11  1  0
  4 12  1  0
  5 13  1  1
  6 14  1  0
  7 15  1  0
  7 16  1  0
  8 17  1  0
  8 18  1  0
  9 19  1  0
M  END
$$$$

     RDKit          3D

 19 18  0  0  0  0  0  0  0  0999 V2000
    1.3409   -0.5087    1.7118 O   0  0  0  0  0  0  0  0  0  0  0  0
    1.2748   -0.1130    0.5632 C   0  0  0  0  0  0  0  0  0  0  0  0
    2.4923   -0.2024   -0.2657 C   0  0  0  0  0  0  0  0  0  0  0  0
    2.3424    0.2604   -1.5440 O   0  0  0  0  0  0  0  0  0  0  0  0
   -0.0031    0.4310    0.0588 C   0  0  1  0  0  0  0  0  0  0  0  0
    0.1880    0.8086   -1.2672 O   0  0  0  0  0  0  0  0  0  0  0  0
   -1.0700   -0.6614    0.1004 C   0  0  0  0  0  0  0  0  0  0  0  0
   -2.3815   -0.1393   -0.4065 C   0  0  0  0  0  0  0  0  0  0  0  0
   -2.7852    0.9151    0.3865 O   0  0  0  0  0  0  0  0  0  0  0  0
    3.3161    0.3724    0.2115 H   0  0  0  0  0  0  0  0  0  0  0  0
    2.7809   -1.2929   -0.2931 H   0  0  0  0  0  0  0  0  0  0  0  0
    2.4671    1.2358   -1.6402 H   0  0  0  0  0  0  0  0  0  0  0  0
   -0.3370    1.3292    0.6024 H   0  0  0  0  0  0  0  0  0  0  0  0
    0.0260    0.0014   -1.8218 H   0  0  0  0  0  0  0  0  0  0  0  0
   -0.6950   -1.5281   -0.4798 H   0  0  0  0  0  0  0  0  0  0  0  0
   -1.2202   -0.9864    1.1586 H   0  0  0  0  0  0  0  0  0  0  0  0
   -2.2944    0.1961   -1.4692 H   0  0  0  0  0  0  0  0  0  0  0  0
   -3.1101   -0.9805   -0.3571 H   0  0  0  0  0  0  0  0  0  0  0  0
   -2.3321    0.8627    1.2521 H   0  0  0  0  0  0  0  0  0  0  0  0
  1  2  2  0
  2  3  1  0
  3  4  1  0
  2  5  1  0
  5  6  1  0
  5  7  1  0
  7  8  1  0
  8  9  1  0
  3 10  1  0
  3 11  1  0
  4 12  1  0
  5 13  1  1
  6 14  1  0
  7 15  1  0
  7 16  1  0
  8 17  1  0
  8 18  1  0
  9 19  1  0
M  END
$$$$

     RDKit          3D

 19 18  0  0  0  0  0  0  0  0999 V2000
    1.0252   -2.1701   -0.0911 O   0  0  0  0  0  0  0  0  0  0  0  0
    1.0057   -0.9535   -0.0865 C   0  0  0  0  0  0  0  0  0  0  0  0
    1.8708   -0.2686    0.9040 C   0  0  0  0  0  0  0  0  0  0  0  0
    1.8023    1.1110    0.8453 O   0  0  0  0  0  0  0  0  0  0  0  0
    0.1458   -0.2547   -1.0411 C   0  0  1  0  0  0  0  0  0  0  0  0
   -0.5552   -1.1581   -1.8742 O   0  0  0  0  0  0  0  0  0  0  0  0
   -0.8475    0.6877   -0.4161 C   0  0  0  0  0  0  0  0  0  0  0  0
   -1.7998    0.0286    0.5232 C   0  0  0  0  0  0  0  0  0  0  0  0
   -2.6516    1.0196    1.0193 O   0  0  0  0  0  0  0  0  0  0  0  0
    2.9318   -0.5991    0.7384 H   0  0  0  0  0  0  0  0  0  0  0  0
    1.5640   -0.6473    1.9221 H   0  0  0  0  0  0  0  0  0  0  0  0
    2.5277    1.4423    0.2265 H   0  0  0  0  0  0  0  0  0  0  0  0
    0.7794    0.3474   -1.7274 H   0  0  0  0  0  0  0  0  0  0  0  0
    0.0503   -1.9405   -2.0106 H   0  0  0  0  0  0  0  0  0  0  0  0
   -1.4680    1.0855   -1.2731 H   0  0  0  0  0  0  0  0  0  0  0  0
   -0.3559    1.5417    0.0809 H   0  0  0  0  0  0  0  0  0  0  0  0
   -2.4725   -0.6733   -0.0519 H   0  0  0  0  0  0  0  0  0  0  0  0
   -1.3078   -0.5195    1.3474 H   0  0  0  0  0  0  0  0  0  0  0  0
   -2.2447    1.9208    0.9647 H   0  0  0  0  0  0  0  0  0  0  0  0
  1  2  2  0
  2  3  1  0
  3  4  1  0
  2  5  1  0
  5  6  1  0
  5  7  1  0
  7  8  1  0
  8  9  1  0
  3 10  1  0
  3 11  1  0
  4 12  1  0
  5 13  1  6
  6 14  1  0
  7 15  1  0
  7 16  1  0
  8 17  1  0
  8 18  1  0
  9 19  1  0
M  END
$$$$

     RDKit          3D

 19 18  0  0  0  0  0  0  0  0999 V2000
   -1.7427    1.0958    1.6069 O   0  0  0  0  0  0  0  0  0  0  0  0
   -1.2619    0.5509    0.6233 C   0  0  0  0  0  0  0  0  0  0  0  0
   -2.0989   -0.4354   -0.1107 C   0  0  0  0  0  0  0  0  0  0  0  0
   -3.3502   -0.5776    0.4768 O   0  0  0  0  0  0  0  0  0  0  0  0
    0.1082    0.8294    0.1354 C   0  0  1  0  0  0  0  0  0  0  0  0
    0.7165    1.7783    0.9612 O   0  0  0  0  0  0  0  0  0  0  0  0
    0.8982   -0.4606    0.1154 C   0  0  0  0  0  0  0  0  0  0  0  0
    2.3062   -0.2484   -0.3727 C   0  0  0  0  0  0  0  0  0  0  0  0
    2.9605   -1.4744   -0.3608 O   0  0  0  0  0  0  0  0  0  0  0  0
   -2.2344   -0.0126   -1.1463 H   0  0  0  0  0  0  0  0  0  0  0  0
   -1.6161   -1.4133   -0.2216 H   0  0  0  0  0  0  0  0  0  0  0  0
   -4.0235    0.0401    0.1379 H   0  0  0  0  0  0  0  0  0  0  0  0
    0.0609    1.2580   -0.8762 H   0  0  0  0  0  0  0  0  0  0  0  0
    0.4620    2.6710    0.6297 H   0  0  0  0  0  0  0  0  0  0  0  0
    0.9571   -0.8699    1.1420 H   0  0  0  0  0  0  0  0  0  0  0  0
    0.3949   -1.1900   -0.5177 H   0  0  0  0  0  0  0  0  0  0  0  0
    2.3142    0.1785   -1.3939 H   0  0  0  0  0  0  0  0  0  0  0  0
    2.8601    0.4600    0.2814 H   0  0  0  0  0  0  0  0  0  0  0  0
    2.2892   -2.1800   -0.4524 H   0  0  0  0  0  0  0  0  0  0  0  0
  1  2  2  0
  2  3  1  0
  3  4  1  0
  2  5  1  0
  5  6  1  0
  5  7  1  0
  7  8  1  0
  8  9  1  0
  3 10  1  0
  3 11  1  0
  4 12  1  0
  5 13  1  6
  6 14  1  0
  7 15  1  0
  7 16  1  0
  8 17  1  0
  8 18  1  0
  9 19  1  0
M  END
$$$$

     RDKit          3D

 19 18  0  0  0  0  0  0  0  0999 V2000
   -0.7127    1.4747    0.9082 O   0  0  0  0  0  0  0  0  0  0  0  0
   -1.0576    0.4903    0.2911 C   0  0  0  0  0  0  0  0  0  0  0  0
   -2.4270    0.4714   -0.2685 C   0  0  0  0  0  0  0  0  0  0  0  0
   -2.6610   -0.7157   -0.9396 O   0  0  0  0  0  0  0  0  0  0  0  0
   -0.1462   -0.6289    0.1134 C   0  0  1  0  0  0  0  0  0  0  0  0
   -0.7479   -1.6638   -0.6229 O   0  0  0  0  0  0  0  0  0  0  0  0
    1.1463   -0.3157   -0.5653 C   0  0  0  0  0  0  0  0  0  0  0  0
    1.9918    0.6966    0.1311 C   0  0  0  0  0  0  0  0  0  0  0  0
    3.1675    0.9036   -0.5929 O   0  0  0  0  0  0  0  0  0  0  0  0
   -2.6075    1.2963   -0.9872 H   0  0  0  0  0  0  0  0  0  0  0  0
   -3.1498    0.6101    0.5658 H   0  0  0  0  0  0  0  0  0  0  0  0
   -2.7322   -0.5807   -1.9160 H   0  0  0  0  0  0  0  0  0  0  0  0
    0.0361   -1.0797    1.1323 H   0  0  0  0  0  0  0  0  0  0  0  0
   -0.3031   -1.8216   -1.4854 H   0  0  0  0  0  0  0  0  0  0  0  0
    0.9828   -0.0523   -1.6214 H   0  0  0  0  0  0  0  0  0  0  0  0
    1.7338   -1.2805   -0.5904 H   0  0  0  0  0  0  0  0  0  0  0  0
    2.2739    0.3895    1.1341 H   0  0  0  0  0  0  0  0  0  0  0  0
    1.4709    1.6925    0.1221 H   0  0  0  0  0  0  0  0  0  0  0  0
    3.7418    0.1139   -0.6204 H   0  0  0  0  0  0  0  0  0  0  0  0
  1  2  2  0
  2  3  1  0
  3  4  1  0
  2  5  1  0
  5  6  1  0
  5  7  1  0
  7  8  1  0
  8  9  1  0
  3 10  1  0
  3 11  1  0
  4 12  1  0
  5 13  1  1
  6 14  1  0
  7 15  1  0
  7 16  1  0
  8 17  1  0
  8 18  1  0
  9 19  1  0
M  END
$$$$

     RDKit          3D

 19 18  0  0  0  0  0  0  0  0999 V2000
    2.0507    1.1641    1.0112 O   0  0  0  0  0  0  0  0  0  0  0  0
    1.4724    0.3576    0.3205 C   0  0  0  0  0  0  0  0  0  0  0  0
    2.1580   -0.3852   -0.7833 C   0  0  0  0  0  0  0  0  0  0  0  0
    3.4911   -0.0209   -0.8824 O   0  0  0  0  0  0  0  0  0  0  0  0
    0.0450    0.0851    0.5602 C   0  0  1  0  0  0  0  0  0  0  0  0
   -0.4342    0.8504    1.6102 O   0  0  0  0  0  0  0  0  0  0  0  0
   -0.7883    0.3602   -0.6730 C   0  0  0  0  0  0  0  0  0  0  0  0
   -2.2319    0.0780   -0.4103 C   0  0  0  0  0  0  0  0  0  0  0  0
   -2.3648   -1.2636   -0.0546 O   0  0  0  0  0  0  0  0  0  0  0  0
    2.1238   -1.4627   -0.5194 H   0  0  0  0  0  0  0  0  0  0  0  0
    1.6776   -0.2051   -1.7619 H   0  0  0  0  0  0  0  0  0  0  0  0
    3.9004    0.0146    0.0115 H   0  0  0  0  0  0  0  0  0  0  0  0
   -0.1059   -0.9875    0.8588 H   0  0  0  0  0  0  0  0  0  0  0  0
   -1.3257    0.5882    1.9075 H   0  0  0  0  0  0  0  0  0  0  0  0
   -0.3946   -0.2102   -1.5106 H   0  0  0  0  0  0  0  0  0  0  0  0
   -0.6549    1.4439   -0.9189 H   0  0  0  0  0  0  0  0  0  0  0  0
   -2.6450    0.7318    0.3571 H   0  0  0  0  0  0  0  0  0  0  0  0
   -2.7908    0.2684   -1.3574 H   0  0  0  0  0  0  0  0  0  0  0  0
   -3.1830   -1.4074    0.4711 H   0  0  0  0  0  0  0  0  0  0  0  0
  1  2  2  0
  2  3  1  0
  3  4  1  0
  2  5  1  0
  5  6  1  0
  5  7  1  0
  7  8  1  0
  8  9  1  0
  3 10  1  0
  3 11  1  0
  4 12  1  0
  5 13  1  1
  6 14  1  0
  7 15  1  0
  7 16  1  0
  8 17  1  0
  8 18  1  0
  9 19  1  0
M  END
$$$$
