
     RDKit          3D

 20 20  0  0  0  0  0  0  0  0999 V2000
    2.3612    1.9019   -0.7158 O   0  0  0  0  0  0  0  0  0  0  0  0
    2.2946    0.9071   -0.0477 C   0  0  0  0  0  0  0  0  0  0  0  0
    1.0736    0.6112    0.7458 C   0  0  1  0  0  0  0  0  0  0  0  0
    0.1516    1.6335    0.5494 O   0  0  0  0  0  0  0  0  0  0  0  0
   -1.0763    1.5254   -0.0266 C   0  0  0  0  0  0  0  0  0  0  0  0
   -1.8093    2.5323   -0.1261 O   0  0  0  0  0  0  0  0  0  0  0  0
   -1.5409    0.2158   -0.5339 C   0  0  2  0  0  0  0  0  0  0  0  0
   -2.2361   -0.4860    0.4714 O   0  0  0  0  0  0  0  0  0  0  0  0
   -0.2700   -0.5571   -0.9149 C   0  0  2  0  0  0  0  0  0  0  0  0
   -0.5789   -1.7413   -1.5578 O   0  0  0  0  0  0  0  0  0  0  0  0
    0.5043   -0.7578    0.3641 C   0  0  2  0  0  0  0  0  0  0  0  0
   -0.2925   -1.1861    1.4053 O   0  0  0  0  0  0  0  0  0  0  0  0
    3.1311    0.2151   -0.0200 H   0  0  0  0  0  0  0  0  0  0  0  0
    1.3299    0.5638    1.8240 H   0  0  0  0  0  0  0  0  0  0  0  0
   -2.1415    0.2884   -1.4494 H   0  0  0  0  0  0  0  0  0  0  0  0
   -2.6441    0.1666    1.0801 H   0  0  0  0  0  0  0  0  0  0  0  0
    0.3105    0.1510   -1.5553 H   0  0  0  0  0  0  0  0  0  0  0  0
    0.0972   -2.4490   -1.3997 H   0  0  0  0  0  0  0  0  0  0  0  0
    1.3621   -1.4543    0.2314 H   0  0  0  0  0  0  0  0  0  0  0  0
   -0.0263   -2.0805    1.6757 H   0  0  0  0  0  0  0  0  0  0  0  0
  1  2  2  0
  2  3  1  0
  3  4  1  0
  4  5  1  0
  5  6  2  0
  5  7  1  0
  7  8  1  0
  7  9  1  0
  9 10  1  0
  9 11  1  0
 11 12  1  0
 11  3  1  0
  2 13  1  0
  3 14  1  1
  7 15  1  6
  8 16  1  0
  9 17  1  6
 10 18  1  0
 11 19  1  6
 12 20  1  0
M  END
$$$$

     RDKit          3D

 20 20  0  0  0  0  0  0  0  0999 V2000
    2.3383   -0.8277    1.8592 O   0  0  0  0  0  0  0  0  0  0  0  0
    1.7957   -1.1061    0.8085 C   0  0  0  0  0  0  0  0  0  0  0  0
    1.4889   -0.0893   -0.2247 C   0  0  1  0  0  0  0  0  0  0  0  0
    0.8632   -0.7394   -1.3133 O   0  0  0  0  0  0  0  0  0  0  0  0
   -0.3641   -1.3395   -1.0606 C   0  0  0  0  0  0  0  0  0  0  0  0
   -0.7778   -2.2967   -1.7413 O   0  0  0  0  0  0  0  0  0  0  0  0
   -1.1443   -0.7558    0.0794 C   0  0  2  0  0  0  0  0  0  0  0  0
   -2.4872   -0.9364   -0.2057 O   0  0  0  0  0  0  0  0  0  0  0  0
   -0.8750    0.7463    0.0224 C   0  0  2  0  0  0  0  0  0  0  0  0
   -1.1103    1.2184   -1.2695 O   0  0  0  0  0  0  0  0  0  0  0  0
    0.5850    0.9971    0.3315 C   0  0  2  0  0  0  0  0  0  0  0  0
    0.9314    2.2087   -0.2701 O   0  0  0  0  0  0  0  0  0  0  0  0
    1.5280   -2.1342    0.6233 H   0  0  0  0  0  0  0  0  0  0  0  0
    2.4393    0.3972   -0.5334 H   0  0  0  0  0  0  0  0  0  0  0  0
   -0.8324   -1.1561    1.0454 H   0  0  0  0  0  0  0  0  0  0  0  0
   -3.0006   -0.8062    0.6265 H   0  0  0  0  0  0  0  0  0  0  0  0
   -1.5263    1.2243    0.7565 H   0  0  0  0  0  0  0  0  0  0  0  0
   -2.0454    1.5447   -1.3319 H   0  0  0  0  0  0  0  0  0  0  0  0
    0.7243    1.0905    1.4459 H   0  0  0  0  0  0  0  0  0  0  0  0
    1.4693    2.7602    0.3517 H   0  0  0  0  0  0  0  0  0  0  0  0
  1  2  2  0
  2  3  1  0
  3  4  1  0
  4  5  1  0
  5  6  2  0
  5  7  1  0
  7  8  1  0
  7  9  1  0
  9 10  1  0
  9 11  1  0
 11 12  1  0
 11  3  1  0
  2 13  1  0
  3 14  1  6
  7 15  1  1
  8 16  1  0
  9 17  1  1
 10 18  1  0
 11 19  1  1
 12 20  1  0
M  END
$$$$

     RDKit          3D

 20 20  0  0  0  0  0  0  0  0999 V2000
   -3.3373    0.0601   -0.2515 O   0  0  0  0  0  0  0  0  0  0  0  0
   -2.5746   -0.6058    0.4077 C   0  0  0  0  0  0  0  0  0  0  0  0
   -1.1700   -0.2415    0.4944 C   0  0  1  0  0  0  0  0  0  0  0  0
   -0.3953   -1.0998    1.2927 O   0  0  0  0  0  0  0  0  0  0  0  0
    0.9948   -1.0627    1.0752 C   0  0  0  0  0  0  0  0  0  0  0  0
    1.6889   -1.9826    1.5654 O   0  0  0  0  0  0  0  0  0  0  0  0
    1.6423    0.0101    0.3001 C   0  0  2  0  0  0  0  0  0  0  0  0
    2.2318    0.9689    1.1230 O   0  0  0  0  0  0  0  0  0  0  0  0
    0.7279    0.7029   -0.6588 C   0  0  2  0  0  0  0  0  0  0  0  0
    0.2177    1.8528   -0.0204 O   0  0  0  0  0  0  0  0  0  0  0  0
   -0.4804   -0.2073   -0.8711 C   0  0  2  0  0  0  0  0  0  0  0  0
   -1.3125    0.2398   -1.8616 O   0  0  0  0  0  0  0  0  0  0  0  0
   -2.9459   -1.4679    0.9275 H   0  0  0  0  0  0  0  0  0  0  0  0
   -1.0972    0.7764    0.9718 H   0  0  0  0  0  0  0  0  0  0  0  0
    2.4627   -0.4590   -0.2938 H   0  0  0  0  0  0  0  0  0  0  0  0
    3.1199    0.6238    1.3955 H   0  0  0  0  0  0  0  0  0  0  0  0
    1.2039    0.9768   -1.6072 H   0  0  0  0  0  0  0  0  0  0  0  0
    0.5579    2.6764   -0.4111 H   0  0  0  0  0  0  0  0  0  0  0  0
   -0.0420   -1.2164   -1.1070 H   0  0  0  0  0  0  0  0  0  0  0  0
   -1.4924   -0.5451   -2.4707 H   0  0  0  0  0  0  0  0  0  0  0  0
  1  2  2  0
  2  3  1  0
  3  4  1  0
  4  5  1  0
  5  6  2  0
  5  7  1  0
  7  8  1  0
  7  9  1  0
  9 10  1  0
  9 11  1  0
 11 12  1  0
 11  3  1  0
  2 13  1  0
  3 14  1  1
  7 15  1  6
  8 16  1  0
  9 17  1  6
 10 18  1  0
 11 19  1  6
 12 20  1  0
M  END
$$$$

     RDKit          3D

 20 20  0  0  0  0  0  0  0  0999 V2000
   -3.2810   -0.0998   -0.1040 O   0  0  0  0  0  0  0  0  0  0  0  0
   -2.3456   -0.8747   -0.3507 C   0  0  0  0  0  0  0  0  0  0  0  0
   -1.1664   -0.8540    0.5593 C   0  0  1  0  0  0  0  0  0  0  0  0
   -0.2230   -1.7952    0.1149 O   0  0  0  0  0  0  0  0  0  0  0  0
    0.9016   -1.4578   -0.6165 C   0  0  0  0  0  0  0  0  0  0  0  0
    1.4406   -2.3151   -1.3546 O   0  0  0  0  0  0  0  0  0  0  0  0
    1.4567   -0.0943   -0.5222 C   0  0  2  0  0  0  0  0  0  0  0  0
    2.2947    0.0300    0.5809 O   0  0  0  0  0  0  0  0  0  0  0  0
    0.3229    0.8890   -0.4477 C   0  0  2  0  0  0  0  0  0  0  0  0
    0.8254    2.1740   -0.1794 O   0  0  0  0  0  0  0  0  0  0  0  0
   -0.6100    0.5313    0.6626 C   0  0  2  0  0  0  0  0  0  0  0  0
   -0.0109    0.7884    1.8903 O   0  0  0  0  0  0  0  0  0  0  0  0
   -2.3815   -1.5371   -1.1884 H   0  0  0  0  0  0  0  0  0  0  0  0
   -1.4981   -1.1957    1.5828 H   0  0  0  0  0  0  0  0  0  0  0  0
    2.0614    0.1402   -1.4181 H   0  0  0  0  0  0  0  0  0  0  0  0
    2.7905   -0.8172    0.7142 H   0  0  0  0  0  0  0  0  0  0  0  0
   -0.2371    0.8717   -1.4077 H   0  0  0  0  0  0  0  0  0  0  0  0
    0.9853    2.6060   -1.0364 H   0  0  0  0  0  0  0  0  0  0  0  0
   -1.4859    1.2413    0.5954 H   0  0  0  0  0  0  0  0  0  0  0  0
    0.1603    1.7690    1.9252 H   0  0  0  0  0  0  0  0  0  0  0  0
  1  2  2  0
  2  3  1  0
  3  4  1  0
  4  5  1  0
  5  6  2  0
  5  7  1  0
  7  8  1  0
  7  9  1  0
  9 10  1  0
  9 11  1  0
 11 12  1  0
 11  3  1  0
  2 13  1  0
  3 14  1  1
  7 15  1  6
  8 16  1  0
  9 17  1  6
 10 18  1  0
 11 19  1  6
 12 20  1  0
M  END
$$$$

     RDKit          3D

 20 20  0  0  0  0  0  0  0  0999 V2000
   -3.1023   -0.4734   -0.7379 O   0  0  0  0  0  0  0  0  0  0  0  0
   -2.5816    0.2023    0.1332 C   0  0  0  0  0  0  0  0  0  0  0  0
   -1.1320    0.4830   -0.0054 C   0  0  1  0  0  0  0  0  0  0  0  0
   -0.6642    1.2803    1.0819 O   0  0  0  0  0  0  0  0  0  0  0  0
    0.7349    1.3983    1.1678 C   0  0  0  0  0  0  0  0  0  0  0  0
    1.1921    2.2063    2.0112 O   0  0  0  0  0  0  0  0  0  0  0  0
    1.6409    0.6192    0.3171 C   0  0  2  0  0  0  0  0  0  0  0  0
    2.1104    1.4171   -0.7295 O   0  0  0  0  0  0  0  0  0  0  0  0
    1.0745   -0.6592   -0.1935 C   0  0  2  0  0  0  0  0  0  0  0  0
    1.2941   -0.7737   -1.5777 O   0  0  0  0  0  0  0  0  0  0  0  0
   -0.3826   -0.8391    0.0996 C   0  0  2  0  0  0  0  0  0  0  0  0
   -0.9907   -1.7590   -0.7310 O   0  0  0  0  0  0  0  0  0  0  0  0
   -3.1923    0.5566    0.9488 H   0  0  0  0  0  0  0  0  0  0  0  0
   -0.9314    1.0124   -0.9405 H   0  0  0  0  0  0  0  0  0  0  0  0
    2.5489    0.3835    0.9452 H   0  0  0  0  0  0  0  0  0  0  0  0
    1.3615    1.8894   -1.1784 H   0  0  0  0  0  0  0  0  0  0  0  0
    1.6074   -1.5472    0.2557 H   0  0  0  0  0  0  0  0  0  0  0  0
    1.1999   -1.7272   -1.8662 H   0  0  0  0  0  0  0  0  0  0  0  0
   -0.4607   -1.1308    1.1861 H   0  0  0  0  0  0  0  0  0  0  0  0
   -1.3268   -2.5390   -0.1866 H   0  0  0  0  0  0  0  0  0  0  0  0
  1  2  2  0
  2  3  1  0
  3  4  1  0
  4  5  1  0
  5  6  2  0
  5  7  1  0
  7  8  1  0
  7  9  1  0
  9 10  1  0
  9 11  1  0
 11 12  1  0
 11  3  1  0
  2 13  1  0
  3 14  1  6
  7 15  1  1
  8 16  1  0
  9 17  1  1
 10 18  1  0
 11 19  1  1
 12 20  1  0
M  END
$$$$

     RDKit          3D

 20 20  0  0  0  0  0  0  0  0999 V2000
    3.4653   -0.5261   -0.4215 O   0  0  0  0  0  0  0  0  0  0  0  0
    2.6727    0.3952   -0.6238 C   0  0  0  0  0  0  0  0  0  0  0  0
    1.3842    0.4506    0.1131 C   0  0  1  0  0  0  0  0  0  0  0  0
    0.6846    1.5801   -0.2991 O   0  0  0  0  0  0  0  0  0  0  0  0
   -0.6762    1.6543   -0.2563 C   0  0  0  0  0  0  0  0  0  0  0  0
   -1.2861    2.7246   -0.0252 O   0  0  0  0  0  0  0  0  0  0  0  0
   -1.4668    0.4271   -0.4912 C   0  0  2  0  0  0  0  0  0  0  0  0
   -2.6968    0.5738    0.1879 O   0  0  0  0  0  0  0  0  0  0  0  0
   -0.8044   -0.7821    0.0646 C   0  0  2  0  0  0  0  0  0  0  0  0
   -1.1614   -0.9072    1.4161 O   0  0  0  0  0  0  0  0  0  0  0  0
    0.6663   -0.8411   -0.0914 C   0  0  2  0  0  0  0  0  0  0  0  0
    1.1617   -1.7482    0.8750 O   0  0  0  0  0  0  0  0  0  0  0  0
    2.9717    1.1329   -1.3495 H   0  0  0  0  0  0  0  0  0  0  0  0
    1.6208    0.5524    1.2039 H   0  0  0  0  0  0  0  0  0  0  0  0
   -1.7270    0.3021   -1.5688 H   0  0  0  0  0  0  0  0  0  0  0  0
   -3.4303    0.8022   -0.4394 H   0  0  0  0  0  0  0  0  0  0  0  0
   -1.2395   -1.6756   -0.4712 H   0  0  0  0  0  0  0  0  0  0  0  0
   -1.9571   -1.4964    1.4918 H   0  0  0  0  0  0  0  0  0  0  0  0
    0.9525   -1.2717   -1.0670 H   0  0  0  0  0  0  0  0  0  0  0  0
    0.8658   -1.3468    1.7521 H   0  0  0  0  0  0  0  0  0  0  0  0
  1  2  2  0
  2  3  1  0
  3  4  1  0
  4  5  1  0
  5  6  2  0
  5  7  1  0
  7  8  1  0
  7  9  1  0
  9 10  1  0
  9 11  1  0
 11 12  1  0
 11  3  1  0
  2 13  1  0
  3 14  1  1
  7 15  1  6
  8 16  1  0
  9 17  1  6
 10 18  1  0
 11 19  1  6
 12 20  1  0
M  END
$$$$

     RDKit          3D

 20 20  0  0  0  0  0  0  0  0999 V2000
    3.2026    1.1410   -0.6118 O   0  0  0  0  0  0  0  0  0  0  0  0
    2.6393    0.2656    0.0202 C   0  0  0  0  0  0  0  0  0  0  0  0
    1.1772    0.3280    0.1970 C   0  0  1  0  0  0  0  0  0  0  0  0
    0.6425    1.4548   -0.4306 O   0  0  0  0  0  0  0  0  0  0  0  0
   -0.6754    1.4697   -0.8230 C   0  0  0  0  0  0  0  0  0  0  0  0
   -1.1200    2.4548   -1.4916 O   0  0  0  0  0  0  0  0  0  0  0  0
   -1.6526    0.3949   -0.5199 C   0  0  2  0  0  0  0  0  0  0  0  0
   -2.6141    0.8707    0.3695 O   0  0  0  0  0  0  0  0  0  0  0  0
   -0.9851   -0.8179    0.0795 C   0  0  2  0  0  0  0  0  0  0  0  0
   -1.0211   -0.7228    1.4712 O   0  0  0  0  0  0  0  0  0  0  0  0
    0.4784   -0.9062   -0.3102 C   0  0  2  0  0  0  0  0  0  0  0  0
    0.9762   -2.0778    0.2262 O   0  0  0  0  0  0  0  0  0  0  0  0
    3.2556   -0.5192    0.4212 H   0  0  0  0  0  0  0  0  0  0  0  0
    0.9849    0.4243    1.2947 H   0  0  0  0  0  0  0  0  0  0  0  0
   -2.1770    0.0979   -1.4456 H   0  0  0  0  0  0  0  0  0  0  0  0
   -2.1599    1.5016    1.0074 H   0  0  0  0  0  0  0  0  0  0  0  0
   -1.4703   -1.7702   -0.2075 H   0  0  0  0  0  0  0  0  0  0  0  0
   -1.9484   -0.6659    1.8175 H   0  0  0  0  0  0  0  0  0  0  0  0
    0.6145   -0.9299   -1.4116 H   0  0  0  0  0  0  0  0  0  0  0  0
    1.8528   -1.9934    0.6333 H   0  0  0  0  0  0  0  0  0  0  0  0
  1  2  2  0
  2  3  1  0
  3  4  1  0
  4  5  1  0
  5  6  2  0
  5  7  1  0
  7  8  1  0
  7  9  1  0
  9 10  1  0
  9 11  1  0
 11 12  1  0
 11  3  1  0
  2 13  1  0
  3 14  1  1
  7 15  1  6
  8 16  1  0
  9 17  1  1
 10 18  1  0
 11 19  1  6
 12 20  1  0
M  END
$$$$

     RDKit          3D

 20 20  0  0  0  0  0  0  0  0999 V2000
    2.5672   -1.4440    1.6737 O   0  0  0  0  0  0  0  0  0  0  0  0
    2.4909   -0.7829    0.6576 C   0  0  0  0  0  0  0  0  0  0  0  0
    1.2095   -0.7656   -0.0848 C   0  0  1  0  0  0  0  0  0  0  0  0
    0.2804   -1.5782    0.5921 O   0  0  0  0  0  0  0  0  0  0  0  0
   -1.0813   -1.5205    0.3143 C   0  0  0  0  0  0  0  0  0  0  0  0
   -1.8323   -2.5060    0.3601 O   0  0  0  0  0  0  0  0  0  0  0  0
   -1.6129   -0.1616   -0.0557 C   0  0  2  0  0  0  0  0  0  0  0  0
   -1.6809   -0.1255   -1.4493 O   0  0  0  0  0  0  0  0  0  0  0  0
   -0.6056    0.8384    0.4712 C   0  0  2  0  0  0  0  0  0  0  0  0
   -1.0698    2.1209    0.2786 O   0  0  0  0  0  0  0  0  0  0  0  0
    0.7071    0.6534   -0.2519 C   0  0  2  0  0  0  0  0  0  0  0  0
    0.5820    0.9810   -1.5814 O   0  0  0  0  0  0  0  0  0  0  0  0
    3.3442   -0.2090    0.2898 H   0  0  0  0  0  0  0  0  0  0  0  0
    1.3493   -1.2115   -1.0918 H   0  0  0  0  0  0  0  0  0  0  0  0
   -2.5930    0.0073    0.3974 H   0  0  0  0  0  0  0  0  0  0  0  0
   -2.5043   -0.6339   -1.6912 H   0  0  0  0  0  0  0  0  0  0  0  0
   -0.4339    0.5901    1.5416 H   0  0  0  0  0  0  0  0  0  0  0  0
   -1.4166    2.4716    1.1568 H   0  0  0  0  0  0  0  0  0  0  0  0
    1.4354    1.3420    0.2239 H   0  0  0  0  0  0  0  0  0  0  0  0
    0.8644    1.9340   -1.7511 H   0  0  0  0  0  0  0  0  0  0  0  0
  1  2  2  0
  2  3  1  0
  3  4  1  0
  4  5  1  0
  5  6  2  0
  5  7  1  0
  7  8  1  0
  7  9  1  0
  9 10  1  0
  9 11  1  0
 11 12  1  0
 11  3  1  0
  2 13  1  0
  3 14  1  6
  7 15  1  1
  8 16  1  0
  9 17  1  1
 10 18  1  0
 11 19  1  1
 12 20  1  0
M  END
$$$$
