
     RDKit          3D

 27 27  0  0  0  0  0  0  0  0999 V2000
    0.9745    2.0400    0.5883 N   0  0  0  0  0  0  0  0  0  0  0  0
    0.1197    0.9074    0.4666 C   0  0  1  0  0  0  0  0  0  0  0  0
   -0.8524    1.1421   -0.6577 C   0  0  2  0  0  0  0  0  0  0  0  0
   -1.5916    2.2840   -0.3572 O   0  0  0  0  0  0  0  0  0  0  0  0
   -1.8167   -0.0231   -0.6311 C   0  0  2  0  0  0  0  0  0  0  0  0
   -2.5065    0.0717    0.5844 O   0  0  0  0  0  0  0  0  0  0  0  0
   -1.1334   -1.3271   -0.8276 C   0  0  0  0  0  0  0  0  0  0  0  0
    0.0960   -1.5516   -0.0526 C   0  0  2  0  0  0  0  0  0  0  0  0
   -0.2303   -2.3501    1.0676 O   0  0  0  0  0  0  0  0  0  0  0  0
    0.8819   -0.3670    0.3483 C   0  0  1  0  0  0  0  0  0  0  0  0
    2.1298   -0.2203   -0.5340 C   0  0  0  0  0  0  0  0  0  0  0  0
    2.9948    0.7471    0.0106 O   0  0  0  0  0  0  0  0  0  0  0  0
    1.3636    2.3928   -0.3121 H   0  0  0  0  0  0  0  0  0  0  0  0
    0.4665    2.8633    1.0132 H   0  0  0  0  0  0  0  0  0  0  0  0
   -0.4957    0.8404    1.4066 H   0  0  0  0  0  0  0  0  0  0  0  0
   -0.3835    1.2961   -1.6272 H   0  0  0  0  0  0  0  0  0  0  0  0
   -2.2134    2.1619    0.3966 H   0  0  0  0  0  0  0  0  0  0  0  0
   -2.5540    0.1139   -1.4518 H   0  0  0  0  0  0  0  0  0  0  0  0
   -2.1925   -0.5654    1.2518 H   0  0  0  0  0  0  0  0  0  0  0  0
   -1.8913   -2.1364   -0.6089 H   0  0  0  0  0  0  0  0  0  0  0  0
   -0.9458   -1.4408   -1.9367 H   0  0  0  0  0  0  0  0  0  0  0  0
    0.7708   -2.2175   -0.6706 H   0  0  0  0  0  0  0  0  0  0  0  0
   -0.1890   -3.3019    0.8476 H   0  0  0  0  0  0  0  0  0  0  0  0
    1.3012   -0.5727    1.3795 H   0  0  0  0  0  0  0  0  0  0  0  0
    1.8819   -0.0162   -1.5738 H   0  0  0  0  0  0  0  0  0  0  0  0
    2.6763   -1.1860   -0.4462 H   0  0  0  0  0  0  0  0  0  0  0  0
    3.3390    0.4153    0.8749 H   0  0  0  0  0  0  0  0  0  0  0  0
  1  2  1  0
  2  3  1  0
  3  4  1  0
  3  5  1  0
  5  6  1  0
  5  7  1  0
  7  8  1  0
  8  9  1  0
  8 10  1  0
 10 11  1  0
 11 12  1  0
 10  2  1  0
  1 13  1  0
  1 14  1  0
  2 15  1  1
  3 16  1  6
  4 17  1  0
  5 18  1  6
  6 19  1  0
  7 20  1  0
  7 21  1  0
  8 22  1  6
  9 23  1  0
 10 24  1  1
 11 25  1  0
 11 26  1  0
 12 27  1  0
M  END
$$$$

     RDKit          3D

 27 27  0  0  0  0  0  0  0  0999 V2000
   -0.1311    0.9522    1.7949 N   0  0  0  0  0  0  0  0  0  0  0  0
   -0.2633    1.0124    0.3530 C   0  0  1  0  0  0  0  0  0  0  0  0
    1.0841    1.1019   -0.3248 C   0  0  2  0  0  0  0  0  0  0  0  0
    0.8800    1.5572   -1.6209 O   0  0  0  0  0  0  0  0  0  0  0  0
    1.8618   -0.1717   -0.2755 C   0  0  2  0  0  0  0  0  0  0  0  0
    3.0061   -0.0160   -1.0398 O   0  0  0  0  0  0  0  0  0  0  0  0
    1.0583   -1.3755   -0.7166 C   0  0  0  0  0  0  0  0  0  0  0  0
   -0.1778   -1.4038    0.1923 C   0  0  2  0  0  0  0  0  0  0  0  0
   -0.8514   -2.5883    0.1307 O   0  0  0  0  0  0  0  0  0  0  0  0
   -0.9831   -0.1990   -0.2001 C   0  0  1  0  0  0  0  0  0  0  0  0
   -2.4150   -0.2726    0.2554 C   0  0  0  0  0  0  0  0  0  0  0  0
   -3.0461    0.8989   -0.2042 O   0  0  0  0  0  0  0  0  0  0  0  0
    0.7941    0.5766    2.0959 H   0  0  0  0  0  0  0  0  0  0  0  0
   -0.2590    1.9057    2.2221 H   0  0  0  0  0  0  0  0  0  0  0  0
   -0.8579    1.8975    0.0962 H   0  0  0  0  0  0  0  0  0  0  0  0
    1.6672    1.8708    0.2410 H   0  0  0  0  0  0  0  0  0  0  0  0
    0.8804    2.5543   -1.6297 H   0  0  0  0  0  0  0  0  0  0  0  0
    2.1154   -0.3576    0.8073 H   0  0  0  0  0  0  0  0  0  0  0  0
    3.5425    0.7073   -0.6119 H   0  0  0  0  0  0  0  0  0  0  0  0
    0.6506   -1.1931   -1.7440 H   0  0  0  0  0  0  0  0  0  0  0  0
    1.6589   -2.2749   -0.6301 H   0  0  0  0  0  0  0  0  0  0  0  0
    0.2339   -1.2323    1.2266 H   0  0  0  0  0  0  0  0  0  0  0  0
   -0.5668   -3.1472    0.9211 H   0  0  0  0  0  0  0  0  0  0  0  0
   -0.9724   -0.1044   -1.3050 H   0  0  0  0  0  0  0  0  0  0  0  0
   -2.5203   -0.3669    1.3357 H   0  0  0  0  0  0  0  0  0  0  0  0
   -2.8919   -1.1031   -0.3121 H   0  0  0  0  0  0  0  0  0  0  0  0
   -3.4973    0.7715   -1.0576 H   0  0  0  0  0  0  0  0  0  0  0  0
  1  2  1  0
  2  3  1  0
  3  4  1  0
  3  5  1  0
  5  6  1  0
  5  7  1  0
  7  8  1  0
  8  9  1  0
  8 10  1  0
 10 11  1  0
 11 12  1  0
 10  2  1  0
  1 13  1  0
  1 14  1  0
  2 15  1  1
  3 16  1  1
  4 17  1  0
  5 18  1  1
  6 19  1  0
  7 20  1  0
  7 21  1  0
  8 22  1  1
  9 23  1  0
 10 24  1  6
 11 25  1  0
 11 26  1  0
 12 27  1  0
M  END
$$$$

     RDKit          3D

 27 27  0  0  0  0  0  0  0  0999 V2000
    0.3049    2.2892   -0.3846 N   0  0  0  0  0  0  0  0  0  0  0  0
   -0.0674    1.0578    0.3339 C   0  0  1  0  0  0  0  0  0  0  0  0
   -1.3854    0.6369   -0.1916 C   0  0  2  0  0  0  0  0  0  0  0  0
   -2.4009    1.3518    0.4685 O   0  0  0  0  0  0  0  0  0  0  0  0
   -1.6998   -0.8066   -0.0844 C   0  0  2  0  0  0  0  0  0  0  0  0
   -1.9156   -1.1701    1.2403 O   0  0  0  0  0  0  0  0  0  0  0  0
   -0.5704   -1.5799   -0.7138 C   0  0  0  0  0  0  0  0  0  0  0  0
    0.7362   -1.3084   -0.0481 C   0  0  2  0  0  0  0  0  0  0  0  0
    0.7626   -2.0803    1.1368 O   0  0  0  0  0  0  0  0  0  0  0  0
    1.0472    0.1042    0.2245 C   0  0  1  0  0  0  0  0  0  0  0  0
    2.0785    0.5742   -0.8145 C   0  0  0  0  0  0  0  0  0  0  0  0
    3.0977   -0.4032   -0.8414 O   0  0  0  0  0  0  0  0  0  0  0  0
   -0.4744    2.6719   -0.9316 H   0  0  0  0  0  0  0  0  0  0  0  0
    0.7919    2.9607    0.2162 H   0  0  0  0  0  0  0  0  0  0  0  0
   -0.2221    1.4050    1.3988 H   0  0  0  0  0  0  0  0  0  0  0  0
   -1.4744    0.9285   -1.2756 H   0  0  0  0  0  0  0  0  0  0  0  0
   -3.0008    1.8154   -0.1425 H   0  0  0  0  0  0  0  0  0  0  0  0
   -2.6085   -1.0170   -0.6906 H   0  0  0  0  0  0  0  0  0  0  0  0
   -2.8365   -0.8597    1.4660 H   0  0  0  0  0  0  0  0  0  0  0  0
   -0.8165   -2.6541   -0.6354 H   0  0  0  0  0  0  0  0  0  0  0  0
   -0.5188   -1.3051   -1.7797 H   0  0  0  0  0  0  0  0  0  0  0  0
    1.5299   -1.7807   -0.6977 H   0  0  0  0  0  0  0  0  0  0  0  0
    0.1813   -2.8764    1.0442 H   0  0  0  0  0  0  0  0  0  0  0  0
    1.6304    0.1363    1.1944 H   0  0  0  0  0  0  0  0  0  0  0  0
    2.4910    1.5544   -0.4988 H   0  0  0  0  0  0  0  0  0  0  0  0
    1.5777    0.5862   -1.7862 H   0  0  0  0  0  0  0  0  0  0  0  0
    3.7623   -0.2311   -0.1176 H   0  0  0  0  0  0  0  0  0  0  0  0
  1  2  1  0
  2  3  1  0
  3  4  1  0
  3  5  1  0
  5  6  1  0
  5  7  1  0
  7  8  1  0
  8  9  1  0
  8 10  1  0
 10 11  1  0
 11 12  1  0
 10  2  1  0
  1 13  1  0
  1 14  1  0
  2 15  1  1
  3 16  1  6
  4 17  1  0
  5 18  1  6
  6 19  1  0
  7 20  1  0
  7 21  1  0
  8 22  1  6
  9 23  1  0
 10 24  1  1
 11 25  1  0
 11 26  1  0
 12 27  1  0
M  END
$$$$

     RDKit          3D

 27 27  0  0  0  0  0  0  0  0999 V2000
    0.5337    2.2108    0.6196 N   0  0  0  0  0  0  0  0  0  0  0  0
   -0.0522    0.8911    0.7039 C   0  0  1  0  0  0  0  0  0  0  0  0
   -1.1794    0.8402   -0.3082 C   0  0  2  0  0  0  0  0  0  0  0  0
   -2.0717    1.8450   -0.0204 O   0  0  0  0  0  0  0  0  0  0  0  0
   -1.9125   -0.4808   -0.2279 C   0  0  2  0  0  0  0  0  0  0  0  0
   -2.8511   -0.4232    0.8095 O   0  0  0  0  0  0  0  0  0  0  0  0
   -0.9213   -1.5574    0.0751 C   0  0  0  0  0  0  0  0  0  0  0  0
    0.4238   -1.1504   -0.5364 C   0  0  2  0  0  0  0  0  0  0  0  0
    1.2700   -2.2642   -0.6164 O   0  0  0  0  0  0  0  0  0  0  0  0
    1.0059   -0.1201    0.4058 C   0  0  1  0  0  0  0  0  0  0  0  0
    2.2852    0.4769   -0.1204 C   0  0  0  0  0  0  0  0  0  0  0  0
    3.1689   -0.5774   -0.3502 O   0  0  0  0  0  0  0  0  0  0  0  0
    1.2007    2.3210    1.3965 H   0  0  0  0  0  0  0  0  0  0  0  0
   -0.1662    2.9607    0.5374 H   0  0  0  0  0  0  0  0  0  0  0  0
   -0.5219    0.7186    1.7012 H   0  0  0  0  0  0  0  0  0  0  0  0
   -0.8046    1.0015   -1.3342 H   0  0  0  0  0  0  0  0  0  0  0  0
   -2.5946    2.0891   -0.8249 H   0  0  0  0  0  0  0  0  0  0  0  0
   -2.4866   -0.6733   -1.1522 H   0  0  0  0  0  0  0  0  0  0  0  0
   -3.0333   -1.3191    1.1947 H   0  0  0  0  0  0  0  0  0  0  0  0
   -0.7675   -1.5722    1.1864 H   0  0  0  0  0  0  0  0  0  0  0  0
   -1.2189   -2.5587   -0.2284 H   0  0  0  0  0  0  0  0  0  0  0  0
    0.2819   -0.7423   -1.5625 H   0  0  0  0  0  0  0  0  0  0  0  0
    0.7296   -2.9635   -1.1029 H   0  0  0  0  0  0  0  0  0  0  0  0
    1.2603   -0.6550    1.3482 H   0  0  0  0  0  0  0  0  0  0  0  0
    2.7126    1.1198    0.6697 H   0  0  0  0  0  0  0  0  0  0  0  0
    2.1176    1.0934   -1.0087 H   0  0  0  0  0  0  0  0  0  0  0  0
    3.5916   -0.5103   -1.2543 H   0  0  0  0  0  0  0  0  0  0  0  0
  1  2  1  0
  2  3  1  0
  3  4  1  0
  3  5  1  0
  5  6  1  0
  5  7  1  0
  7  8  1  0
  8  9  1  0
  8 10  1  0
 10 11  1  0
 11 12  1  0
 10  2  1  0
  1 13  1  0
  1 14  1  0
  2 15  1  1
  3 16  1  6
  4 17  1  0
  5 18  1  6
  6 19  1  0
  7 20  1  0
  7 21  1  0
  8 22  1  6
  9 23  1  0
 10 24  1  1
 11 25  1  0
 11 26  1  0
 12 27  1  0
M  END
$$$$

     RDKit          3D

 27 27  0  0  0  0  0  0  0  0999 V2000
   -1.0879    2.0702   -0.1027 N   0  0  0  0  0  0  0  0  0  0  0  0
   -0.2631    0.9424   -0.5749 C   0  0  1  0  0  0  0  0  0  0  0  0
    1.0628    1.1002    0.0417 C   0  0  2  0  0  0  0  0  0  0  0  0
    1.8407    1.9481   -0.7840 O   0  0  0  0  0  0  0  0  0  0  0  0
    1.8443   -0.1299    0.2990 C   0  0  2  0  0  0  0  0  0  0  0  0
    3.1654   -0.0261   -0.1966 O   0  0  0  0  0  0  0  0  0  0  0  0
    1.2614   -1.3745   -0.3058 C   0  0  0  0  0  0  0  0  0  0  0  0
   -0.2015   -1.5000    0.0359 C   0  0  2  0  0  0  0  0  0  0  0  0
   -0.6618   -2.6499   -0.6488 O   0  0  0  0  0  0  0  0  0  0  0  0
   -1.0099   -0.3031   -0.2932 C   0  0  1  0  0  0  0  0  0  0  0  0
   -2.0885   -0.0522    0.7715 C   0  0  0  0  0  0  0  0  0  0  0  0
   -2.7969   -1.2127    1.0457 O   0  0  0  0  0  0  0  0  0  0  0  0
   -0.4892    2.9026    0.0782 H   0  0  0  0  0  0  0  0  0  0  0  0
   -1.9027    2.2338   -0.6983 H   0  0  0  0  0  0  0  0  0  0  0  0
   -0.1835    1.1250   -1.6881 H   0  0  0  0  0  0  0  0  0  0  0  0
    0.9888    1.6668    1.0167 H   0  0  0  0  0  0  0  0  0  0  0  0
    1.4118    2.8333   -0.8804 H   0  0  0  0  0  0  0  0  0  0  0  0
    1.9750   -0.3293    1.3953 H   0  0  0  0  0  0  0  0  0  0  0  0
    3.7577   -0.6694    0.2748 H   0  0  0  0  0  0  0  0  0  0  0  0
    1.7755   -2.2432    0.1900 H   0  0  0  0  0  0  0  0  0  0  0  0
    1.4416   -1.4809   -1.3833 H   0  0  0  0  0  0  0  0  0  0  0  0
   -0.2885   -1.7737    1.1224 H   0  0  0  0  0  0  0  0  0  0  0  0
   -0.5816   -2.3954   -1.6200 H   0  0  0  0  0  0  0  0  0  0  0  0
   -1.6103   -0.5583   -1.2185 H   0  0  0  0  0  0  0  0  0  0  0  0
   -2.7894    0.7335    0.4206 H   0  0  0  0  0  0  0  0  0  0  0  0
   -1.5785    0.3298    1.6696 H   0  0  0  0  0  0  0  0  0  0  0  0
   -2.9916   -1.1872    2.0333 H   0  0  0  0  0  0  0  0  0  0  0  0
  1  2  1  0
  2  3  1  0
  3  4  1  0
  3  5  1  0
  5  6  1  0
  5  7  1  0
  7  8  1  0
  8  9  1  0
  8 10  1  0
 10 11  1  0
 11 12  1  0
 10  2  1  0
  1 13  1  0
  1 14  1  0
  2 15  1  6
  3 16  1  1
  4 17  1  0
  5 18  1  1
  6 19  1  0
  7 20  1  0
  7 21  1  0
  8 22  1  1
  9 23  1  0
 10 24  1  6
 11 25  1  0
 11 26  1  0
 12 27  1  0
M  END
$$$$

     RDKit          3D

 27 27  0  0  0  0  0  0  0  0999 V2000
   -0.8593    1.9866    0.5546 N   0  0  0  0  0  0  0  0  0  0  0  0
   -0.1247    1.1189   -0.3832 C   0  0  1  0  0  0  0  0  0  0  0  0
    1.3051    1.0602   -0.0509 C   0  0  2  0  0  0  0  0  0  0  0  0
    2.0765    1.3087   -1.2146 O   0  0  0  0  0  0  0  0  0  0  0  0
    1.8357   -0.1355    0.6143 C   0  0  2  0  0  0  0  0  0  0  0  0
    3.0869   -0.5037    0.0772 O   0  0  0  0  0  0  0  0  0  0  0  0
    0.9939   -1.3664    0.5818 C   0  0  0  0  0  0  0  0  0  0  0  0
   -0.4730   -1.1201    0.6765 C   0  0  2  0  0  0  0  0  0  0  0  0
   -1.1230   -2.3445    0.4294 O   0  0  0  0  0  0  0  0  0  0  0  0
   -0.8236   -0.2081   -0.4740 C   0  0  1  0  0  0  0  0  0  0  0  0
   -2.3025   -0.0717   -0.5378 C   0  0  0  0  0  0  0  0  0  0  0  0
   -2.8695    0.5539    0.5439 O   0  0  0  0  0  0  0  0  0  0  0  0
   -0.8305    1.6162    1.5209 H   0  0  0  0  0  0  0  0  0  0  0  0
   -0.3179    2.8850    0.5599 H   0  0  0  0  0  0  0  0  0  0  0  0
   -0.2743    1.6091   -1.3745 H   0  0  0  0  0  0  0  0  0  0  0  0
    1.5484    1.9597    0.5932 H   0  0  0  0  0  0  0  0  0  0  0  0
    2.6067    0.5409   -1.4769 H   0  0  0  0  0  0  0  0  0  0  0  0
    2.0620    0.0578    1.7064 H   0  0  0  0  0  0  0  0  0  0  0  0
    2.9858   -1.2706   -0.5635 H   0  0  0  0  0  0  0  0  0  0  0  0
    1.1814   -1.9582   -0.3445 H   0  0  0  0  0  0  0  0  0  0  0  0
    1.2746   -2.0436    1.4292 H   0  0  0  0  0  0  0  0  0  0  0  0
   -0.8147   -0.7434    1.6508 H   0  0  0  0  0  0  0  0  0  0  0  0
   -0.7010   -2.7488   -0.3690 H   0  0  0  0  0  0  0  0  0  0  0  0
   -0.4808   -0.7074   -1.4039 H   0  0  0  0  0  0  0  0  0  0  0  0
   -2.7548   -1.0830   -0.6338 H   0  0  0  0  0  0  0  0  0  0  0  0
   -2.5922    0.4764   -1.4648 H   0  0  0  0  0  0  0  0  0  0  0  0
   -3.6151    1.1317    0.2496 H   0  0  0  0  0  0  0  0  0  0  0  0
  1  2  1  0
  2  3  1  0
  3  4  1  0
  3  5  1  0
  5  6  1  0
  5  7  1  0
  7  8  1  0
  8  9  1  0
  8 10  1  0
 10 11  1  0
 11 12  1  0
 10  2  1  0
  1 13  1  0
  1 14  1  0
  2 15  1  6
  3 16  1  1
  4 17  1  0
  5 18  1  1
  6 19  1  0
  7 20  1  0
  7 21  1  0
  8 22  1  1
  9 23  1  0
 10 24  1  6
 11 25  1  0
 11 26  1  0
 12 27  1  0
M  END
$$$$

     RDKit          3D

 27 27  0  0  0  0  0  0  0  0999 V2000
   -0.1067    2.2036   -0.2298 N   0  0  0  0  0  0  0  0  0  0  0  0
   -0.1576    1.0007    0.6034 C   0  0  1  0  0  0  0  0  0  0  0  0
   -1.5032    0.3412    0.5459 C   0  0  2  0  0  0  0  0  0  0  0  0
   -2.2874    0.7953    1.5869 O   0  0  0  0  0  0  0  0  0  0  0  0
   -1.4405   -1.1519    0.6142 C   0  0  2  0  0  0  0  0  0  0  0  0
   -1.0180   -1.5209    1.9090 O   0  0  0  0  0  0  0  0  0  0  0  0
   -0.5761   -1.7786   -0.4282 C   0  0  0  0  0  0  0  0  0  0  0  0
    0.3235   -0.7220   -1.0477 C   0  0  2  0  0  0  0  0  0  0  0  0
    1.2814   -1.2618   -1.8821 O   0  0  0  0  0  0  0  0  0  0  0  0
    0.9170    0.0679    0.0998 C   0  0  1  0  0  0  0  0  0  0  0  0
    2.1233    0.8534   -0.4135 C   0  0  0  0  0  0  0  0  0  0  0  0
    2.6501    1.6270    0.6195 O   0  0  0  0  0  0  0  0  0  0  0  0
   -0.8175    2.9072    0.0674 H   0  0  0  0  0  0  0  0  0  0  0  0
   -0.1654    1.9631   -1.2448 H   0  0  0  0  0  0  0  0  0  0  0  0
    0.0738    1.3275    1.6457 H   0  0  0  0  0  0  0  0  0  0  0  0
   -1.9795    0.6246   -0.4066 H   0  0  0  0  0  0  0  0  0  0  0  0
   -3.0772    0.2020    1.7098 H   0  0  0  0  0  0  0  0  0  0  0  0
   -2.4725   -1.5376    0.4808 H   0  0  0  0  0  0  0  0  0  0  0  0
   -0.9882   -2.5064    1.9351 H   0  0  0  0  0  0  0  0  0  0  0  0
    0.1226   -2.5399    0.0267 H   0  0  0  0  0  0  0  0  0  0  0  0
   -1.1390   -2.2973   -1.2178 H   0  0  0  0  0  0  0  0  0  0  0  0
   -0.3513   -0.0403   -1.6161 H   0  0  0  0  0  0  0  0  0  0  0  0
    0.9141   -1.3094   -2.8183 H   0  0  0  0  0  0  0  0  0  0  0  0
    1.2823   -0.6215    0.8871 H   0  0  0  0  0  0  0  0  0  0  0  0
    1.8349    1.5334   -1.2329 H   0  0  0  0  0  0  0  0  0  0  0  0
    2.9260    0.1531   -0.7188 H   0  0  0  0  0  0  0  0  0  0  0  0
    3.6314    1.6876    0.5251 H   0  0  0  0  0  0  0  0  0  0  0  0
  1  2  1  0
  2  3  1  0
  3  4  1  0
  3  5  1  0
  5  6  1  0
  5  7  1  0
  7  8  1  0
  8  9  1  0
  8 10  1  0
 10 11  1  0
 11 12  1  0
 10  2  1  0
  1 13  1  0
  1 14  1  0
  2 15  1  1
  3 16  1  6
  4 17  1  0
  5 18  1  6
  6 19  1  0
  7 20  1  0
  7 21  1  0
  8 22  1  6
  9 23  1  0
 10 24  1  1
 11 25  1  0
 11 26  1  0
 12 27  1  0
M  END
$$$$

     RDKit          3D

 27 27  0  0  0  0  0  0  0  0999 V2000
    0.5642    2.2221   -0.0081 N   0  0  0  0  0  0  0  0  0  0  0  0
    0.0257    0.9525    0.4056 C   0  0  1  0  0  0  0  0  0  0  0  0
   -1.2918    0.6611   -0.3180 C   0  0  2  0  0  0  0  0  0  0  0  0
   -2.2168    1.6607    0.0218 O   0  0  0  0  0  0  0  0  0  0  0  0
   -1.8190   -0.6301    0.2497 C   0  0  2  0  0  0  0  0  0  0  0  0
   -2.0096   -0.4086    1.6304 O   0  0  0  0  0  0  0  0  0  0  0  0
   -0.8777   -1.7874    0.0511 C   0  0  0  0  0  0  0  0  0  0  0  0
    0.3435   -1.2667   -0.7065 C   0  0  2  0  0  0  0  0  0  0  0  0
    1.2909   -2.2734   -0.8388 O   0  0  0  0  0  0  0  0  0  0  0  0
    0.9523   -0.1926    0.1685 C   0  0  1  0  0  0  0  0  0  0  0  0
    2.2801    0.2316   -0.4135 C   0  0  0  0  0  0  0  0  0  0  0  0
    2.9377    1.1136    0.4409 O   0  0  0  0  0  0  0  0  0  0  0  0
   -0.1113    2.6537   -0.6994 H   0  0  0  0  0  0  0  0  0  0  0  0
    0.6856    2.8859    0.8017 H   0  0  0  0  0  0  0  0  0  0  0  0
   -0.2467    1.0448    1.4823 H   0  0  0  0  0  0  0  0  0  0  0  0
   -1.1789    0.6565   -1.3976 H   0  0  0  0  0  0  0  0  0  0  0  0
   -2.6228    2.0611   -0.8027 H   0  0  0  0  0  0  0  0  0  0  0  0
   -2.8358   -0.8503   -0.1555 H   0  0  0  0  0  0  0  0  0  0  0  0
   -2.7870    0.1747    1.7746 H   0  0  0  0  0  0  0  0  0  0  0  0
   -0.4716   -2.1170    1.0521 H   0  0  0  0  0  0  0  0  0  0  0  0
   -1.3412   -2.6496   -0.4595 H   0  0  0  0  0  0  0  0  0  0  0  0
    0.0881   -0.9135   -1.7065 H   0  0  0  0  0  0  0  0  0  0  0  0
    0.8906   -3.1696   -0.9224 H   0  0  0  0  0  0  0  0  0  0  0  0
    1.1722   -0.6760    1.1514 H   0  0  0  0  0  0  0  0  0  0  0  0
    2.2004    0.6910   -1.4043 H   0  0  0  0  0  0  0  0  0  0  0  0
    2.9362   -0.6560   -0.5118 H   0  0  0  0  0  0  0  0  0  0  0  0
    3.4428    0.5813    1.1143 H   0  0  0  0  0  0  0  0  0  0  0  0
  1  2  1  0
  2  3  1  0
  3  4  1  0
  3  5  1  0
  5  6  1  0
  5  7  1  0
  7  8  1  0
  8  9  1  0
  8 10  1  0
 10 11  1  0
 11 12  1  0
 10  2  1  0
  1 13  1  0
  1 14  1  0
  2 15  1  1
  3 16  1  6
  4 17  1  0
  5 18  1  6
  6 19  1  0
  7 20  1  0
  7 21  1  0
  8 22  1  6
  9 23  1  0
 10 24  1  1
 11 25  1  0
 11 26  1  0
 12 27  1  0
M  END
$$$$
