
     RDKit          3D

 25 25  0  0  0  0  0  0  0  0999 V2000
    2.9617    1.3045    0.7027 O   0  0  0  0  0  0  0  0  0  0  0  0
    2.6284   -0.0314    0.5276 C   0  0  0  0  0  0  0  0  0  0  0  0
    1.5484   -0.1044   -0.5209 C   0  0  0  0  0  0  0  0  0  0  0  0
    0.3048    0.6512   -0.1434 C   0  0  1  0  0  0  0  0  0  0  0  0
   -0.6817    0.4838   -1.2913 C   0  0  0  0  0  0  0  0  0  0  0  0
   -1.2692   -0.8638   -1.0283 C   0  0  2  0  0  0  0  0  0  0  0  0
   -2.4874   -1.0521   -1.6778 O   0  0  0  0  0  0  0  0  0  0  0  0
   -1.4283   -0.9109    0.4783 C   0  0  2  0  0  0  0  0  0  0  0  0
   -2.7475   -0.5639    0.7780 O   0  0  0  0  0  0  0  0  0  0  0  0
   -0.4337    0.0826    1.0128 C   0  0  2  0  0  0  0  0  0  0  0  0
   -1.1788    1.1301    1.6043 O   0  0  0  0  0  0  0  0  0  0  0  0
    3.9190    1.3516    0.9437 H   0  0  0  0  0  0  0  0  0  0  0  0
    2.3748   -0.5552    1.4518 H   0  0  0  0  0  0  0  0  0  0  0  0
    3.5261   -0.5305    0.1055 H   0  0  0  0  0  0  0  0  0  0  0  0
    1.3372   -1.1769   -0.7053 H   0  0  0  0  0  0  0  0  0  0  0  0
    1.9424    0.3294   -1.4615 H   0  0  0  0  0  0  0  0  0  0  0  0
    0.5259    1.7122    0.0242 H   0  0  0  0  0  0  0  0  0  0  0  0
   -0.1226    0.4500   -2.2446 H   0  0  0  0  0  0  0  0  0  0  0  0
   -1.4182    1.3033   -1.3228 H   0  0  0  0  0  0  0  0  0  0  0  0
   -0.5487   -1.6468   -1.3279 H   0  0  0  0  0  0  0  0  0  0  0  0
   -3.1852   -0.5231   -1.2109 H   0  0  0  0  0  0  0  0  0  0  0  0
   -1.2774   -1.9339    0.8860 H   0  0  0  0  0  0  0  0  0  0  0  0
   -2.7963   -0.1950    1.6909 H   0  0  0  0  0  0  0  0  0  0  0  0
    0.1976   -0.3224    1.8200 H   0  0  0  0  0  0  0  0  0  0  0  0
   -1.6912    1.6116    0.9089 H   0  0  0  0  0  0  0  0  0  0  0  0
  1  2  1  0
  2  3  1  0
  3  4  1  0
  4  5  1  0
  5  6  1  0
  6  7  1  0
  6  8  1  0
  8  9  1  0
  8 10  1  0
 10 11  1  0
 10  4  1  0
  1 12  1  0
  2 13  1  0
  2 14  1  0
  3 15  1  0
  3 16  1  0
  4 17  1  1
  5 18  1  0
  5 19  1  0
  6 20  1  6
  7 21  1  0
  8 22  1  1
  9 23  1  0
 10 24  1  1
 11 25  1  0
M  END
$$$$

     RDKit          3D

 25 25  0  0  0  0  0  0  0  0999 V2000
    3.0856   -0.5498   -0.8046 O   0  0  0  0  0  0  0  0  0  0  0  0
    2.7119   -0.2646    0.5240 C   0  0  0  0  0  0  0  0  0  0  0  0
    1.5187    0.6555    0.4291 C   0  0  0  0  0  0  0  0  0  0  0  0
    0.3945    0.0124   -0.3036 C   0  0  1  0  0  0  0  0  0  0  0  0
   -0.0554   -1.2331    0.4051 C   0  0  0  0  0  0  0  0  0  0  0  0
   -1.4439   -0.8934    0.9665 C   0  0  2  0  0  0  0  0  0  0  0  0
   -2.4252   -1.3926    0.1347 O   0  0  0  0  0  0  0  0  0  0  0  0
   -1.4454    0.6359    1.0138 C   0  0  2  0  0  0  0  0  0  0  0  0
   -2.7296    1.1277    1.1282 O   0  0  0  0  0  0  0  0  0  0  0  0
   -0.7996    0.9417   -0.3033 C   0  0  2  0  0  0  0  0  0  0  0  0
   -1.6382    0.6377   -1.3805 O   0  0  0  0  0  0  0  0  0  0  0  0
    3.1386    0.3131   -1.3087 H   0  0  0  0  0  0  0  0  0  0  0  0
    3.5517    0.2448    1.0600 H   0  0  0  0  0  0  0  0  0  0  0  0
    2.5032   -1.1775    1.0717 H   0  0  0  0  0  0  0  0  0  0  0  0
    1.8028    1.6279   -0.0643 H   0  0  0  0  0  0  0  0  0  0  0  0
    1.2483    0.9254    1.4717 H   0  0  0  0  0  0  0  0  0  0  0  0
    0.6748   -0.2826   -1.3452 H   0  0  0  0  0  0  0  0  0  0  0  0
    0.5579   -1.5178    1.2765 H   0  0  0  0  0  0  0  0  0  0  0  0
   -0.1721   -2.0972   -0.3031 H   0  0  0  0  0  0  0  0  0  0  0  0
   -1.5933   -1.2780    1.9719 H   0  0  0  0  0  0  0  0  0  0  0  0
   -3.2890   -0.9725    0.2863 H   0  0  0  0  0  0  0  0  0  0  0  0
   -0.7633    0.9337    1.8112 H   0  0  0  0  0  0  0  0  0  0  0  0
   -2.9329    1.8782    0.5218 H   0  0  0  0  0  0  0  0  0  0  0  0
   -0.4860    2.0107   -0.3685 H   0  0  0  0  0  0  0  0  0  0  0  0
   -1.4142   -0.2857   -1.6573 H   0  0  0  0  0  0  0  0  0  0  0  0
  1  2  1  0
  2  3  1  0
  3  4  1  0
  4  5  1  0
  5  6  1  0
  6  7  1  0
  6  8  1  0
  8  9  1  0
  8 10  1  0
 10 11  1  0
 10  4  1  0
  1 12  1  0
  2 13  1  0
  2 14  1  0
  3 15  1  0
  3 16  1  0
  4 17  1  6
  5 18  1  0
  5 19  1  0
  6 20  1  1
  7 21  1  0
  8 22  1  1
  9 23  1  0
 10 24  1  1
 11 25  1  0
M  END
$$$$

     RDKit          3D

 25 25  0  0  0  0  0  0  0  0999 V2000
   -3.0827   -0.0037   -1.4744 O   0  0  0  0  0  0  0  0  0  0  0  0
   -2.6702    0.6091   -0.2919 C   0  0  0  0  0  0  0  0  0  0  0  0
   -1.5844   -0.1629    0.3917 C   0  0  0  0  0  0  0  0  0  0  0  0
   -0.3381   -0.3486   -0.4051 C   0  0  1  0  0  0  0  0  0  0  0  0
    0.2678    0.9702   -0.7581 C   0  0  0  0  0  0  0  0  0  0  0  0
    1.4571    1.0520    0.2040 C   0  0  2  0  0  0  0  0  0  0  0  0
    2.3883    1.9606   -0.2465 O   0  0  0  0  0  0  0  0  0  0  0  0
    1.9538   -0.3770    0.1260 C   0  0  2  0  0  0  0  0  0  0  0  0
    2.4345   -0.6611   -1.1310 O   0  0  0  0  0  0  0  0  0  0  0  0
    0.6481   -1.1255    0.4274 C   0  0  2  0  0  0  0  0  0  0  0  0
    0.8034   -2.4331    0.0087 O   0  0  0  0  0  0  0  0  0  0  0  0
   -3.3899   -0.9333   -1.3212 H   0  0  0  0  0  0  0  0  0  0  0  0
   -3.5323    0.6348    0.4389 H   0  0  0  0  0  0  0  0  0  0  0  0
   -2.3824    1.6365   -0.5126 H   0  0  0  0  0  0  0  0  0  0  0  0
   -1.9659   -1.1580    0.7166 H   0  0  0  0  0  0  0  0  0  0  0  0
   -1.3291    0.3872    1.3301 H   0  0  0  0  0  0  0  0  0  0  0  0
   -0.5171   -0.9019   -1.3608 H   0  0  0  0  0  0  0  0  0  0  0  0
   -0.3747    1.8414   -0.6455 H   0  0  0  0  0  0  0  0  0  0  0  0
    0.6946    0.9709   -1.7883 H   0  0  0  0  0  0  0  0  0  0  0  0
    1.0876    1.2576    1.2318 H   0  0  0  0  0  0  0  0  0  0  0  0
    2.8545    2.3437    0.5529 H   0  0  0  0  0  0  0  0  0  0  0  0
    2.6774   -0.6208    0.9187 H   0  0  0  0  0  0  0  0  0  0  0  0
    3.3945   -0.9585   -1.0984 H   0  0  0  0  0  0  0  0  0  0  0  0
    0.4787   -1.0229    1.5080 H   0  0  0  0  0  0  0  0  0  0  0  0
    0.0265   -2.9567    0.3336 H   0  0  0  0  0  0  0  0  0  0  0  0
  1  2  1  0
  2  3  1  0
  3  4  1  0
  4  5  1  0
  5  6  1  0
  6  7  1  0
  6  8  1  0
  8  9  1  0
  8 10  1  0
 10 11  1  0
 10  4  1  0
  1 12  1  0
  2 13  1  0
  2 14  1  0
  3 15  1  0
  3 16  1  0
  4 17  1  6
  5 18  1  0
  5 19  1  0
  6 20  1  1
  7 21  1  0
  8 22  1  1
  9 23  1  0
 10 24  1  1
 11 25  1  0
M  END
$$$$

     RDKit          3D

 25 25  0  0  0  0  0  0  0  0999 V2000
    3.5224    0.0139    0.9870 O   0  0  0  0  0  0  0  0  0  0  0  0
    2.1154    0.0542    0.8884 C   0  0  0  0  0  0  0  0  0  0  0  0
    1.7739   -0.1973   -0.5461 C   0  0  0  0  0  0  0  0  0  0  0  0
    0.2993   -0.1867   -0.8199 C   0  0  1  0  0  0  0  0  0  0  0  0
   -0.4460   -1.2313   -0.0396 C   0  0  0  0  0  0  0  0  0  0  0  0
   -1.4816   -0.5267    0.7884 C   0  0  2  0  0  0  0  0  0  0  0  0
   -2.7021   -1.2185    0.7483 O   0  0  0  0  0  0  0  0  0  0  0  0
   -1.5923    0.8702    0.2574 C   0  0  2  0  0  0  0  0  0  0  0  0
   -2.7547    1.0395   -0.5131 O   0  0  0  0  0  0  0  0  0  0  0  0
   -0.3544    1.1331   -0.5746 C   0  0  2  0  0  0  0  0  0  0  0  0
   -0.7810    1.7315   -1.7813 O   0  0  0  0  0  0  0  0  0  0  0  0
    3.8431   -0.9233    0.9497 H   0  0  0  0  0  0  0  0  0  0  0  0
    1.7162   -0.6734    1.5923 H   0  0  0  0  0  0  0  0  0  0  0  0
    1.8443    1.1154    1.1354 H   0  0  0  0  0  0  0  0  0  0  0  0
    2.2586    0.5676   -1.1653 H   0  0  0  0  0  0  0  0  0  0  0  0
    2.1538   -1.2081   -0.8087 H   0  0  0  0  0  0  0  0  0  0  0  0
    0.1782   -0.4269   -1.9133 H   0  0  0  0  0  0  0  0  0  0  0  0
   -0.9169   -1.9856   -0.7058 H   0  0  0  0  0  0  0  0  0  0  0  0
    0.2570   -1.8062    0.6100 H   0  0  0  0  0  0  0  0  0  0  0  0
   -1.1900   -0.4961    1.8674 H   0  0  0  0  0  0  0  0  0  0  0  0
   -2.5028   -2.1149    1.1487 H   0  0  0  0  0  0  0  0  0  0  0  0
   -1.6657    1.5856    1.0979 H   0  0  0  0  0  0  0  0  0  0  0  0
   -2.8122    1.9884   -0.7189 H   0  0  0  0  0  0  0  0  0  0  0  0
    0.2709    1.8727   -0.0727 H   0  0  0  0  0  0  0  0  0  0  0  0
   -1.0335    1.0231   -2.4118 H   0  0  0  0  0  0  0  0  0  0  0  0
  1  2  1  0
  2  3  1  0
  3  4  1  0
  4  5  1  0
  5  6  1  0
  6  7  1  0
  6  8  1  0
  8  9  1  0
  8 10  1  0
 10 11  1  0
 10  4  1  0
  1 12  1  0
  2 13  1  0
  2 14  1  0
  3 15  1  0
  3 16  1  0
  4 17  1  6
  5 18  1  0
  5 19  1  0
  6 20  1  1
  7 21  1  0
  8 22  1  1
  9 23  1  0
 10 24  1  1
 11 25  1  0
M  END
$$$$

     RDKit          3D

 25 25  0  0  0  0  0  0  0  0999 V2000
   -3.6409    0.4898   -0.4817 O   0  0  0  0  0  0  0  0  0  0  0  0
   -2.6090    0.0934    0.3743 C   0  0  0  0  0  0  0  0  0  0  0  0
   -1.4965   -0.4662   -0.4741 C   0  0  0  0  0  0  0  0  0  0  0  0
   -0.3221   -0.9300    0.3296 C   0  0  1  0  0  0  0  0  0  0  0  0
    0.7138   -1.4654   -0.6524 C   0  0  0  0  0  0  0  0  0  0  0  0
    1.5546   -0.2666   -1.0276 C   0  0  2  0  0  0  0  0  0  0  0  0
    2.9011   -0.5873   -0.9690 O   0  0  0  0  0  0  0  0  0  0  0  0
    1.2044    0.8358   -0.0769 C   0  0  2  0  0  0  0  0  0  0  0  0
    2.3632    1.3839    0.4796 O   0  0  0  0  0  0  0  0  0  0  0  0
    0.4279    0.1608    1.0092 C   0  0  2  0  0  0  0  0  0  0  0  0
    1.3688   -0.4519    1.8674 O   0  0  0  0  0  0  0  0  0  0  0  0
   -4.5221    0.3270   -0.1076 H   0  0  0  0  0  0  0  0  0  0  0  0
   -2.2628    0.9993    0.9247 H   0  0  0  0  0  0  0  0  0  0  0  0
   -2.9836   -0.6965    1.0386 H   0  0  0  0  0  0  0  0  0  0  0  0
   -1.2100    0.2287   -1.2833 H   0  0  0  0  0  0  0  0  0  0  0  0
   -1.9163   -1.3699   -0.9885 H   0  0  0  0  0  0  0  0  0  0  0  0
   -0.6617   -1.7112    1.0335 H   0  0  0  0  0  0  0  0  0  0  0  0
    0.1984   -1.9079   -1.5398 H   0  0  0  0  0  0  0  0  0  0  0  0
    1.3103   -2.2150   -0.1064 H   0  0  0  0  0  0  0  0  0  0  0  0
    1.3278    0.0776   -2.0545 H   0  0  0  0  0  0  0  0  0  0  0  0
    3.4568    0.1579   -0.6638 H   0  0  0  0  0  0  0  0  0  0  0  0
    0.6184    1.6469   -0.5209 H   0  0  0  0  0  0  0  0  0  0  0  0
    2.1496    2.2443    0.8825 H   0  0  0  0  0  0  0  0  0  0  0  0
   -0.1803    0.8364    1.6251 H   0  0  0  0  0  0  0  0  0  0  0  0
    2.2102   -0.6392    1.3818 H   0  0  0  0  0  0  0  0  0  0  0  0
  1  2  1  0
  2  3  1  0
  3  4  1  0
  4  5  1  0
  5  6  1  0
  6  7  1  0
  6  8  1  0
  8  9  1  0
  8 10  1  0
 10 11  1  0
 10  4  1  0
  1 12  1  0
  2 13  1  0
  2 14  1  0
  3 15  1  0
  3 16  1  0
  4 17  1  1
  5 18  1  0
  5 19  1  0
  6 20  1  6
  7 21  1  0
  8 22  1  6
  9 23  1  0
 10 24  1  1
 11 25  1  0
M  END
$$$$

     RDKit          3D

 25 25  0  0  0  0  0  0  0  0999 V2000
    3.6410    0.2491    0.1002 O   0  0  0  0  0  0  0  0  0  0  0  0
    2.2519    0.4895    0.2037 C   0  0  0  0  0  0  0  0  0  0  0  0
    1.5640   -0.7407   -0.2784 C   0  0  0  0  0  0  0  0  0  0  0  0
    0.0698   -0.6725   -0.2424 C   0  0  1  0  0  0  0  0  0  0  0  0
   -0.4678   -0.4419    1.1551 C   0  0  0  0  0  0  0  0  0  0  0  0
   -1.5332    0.6367    1.0218 C   0  0  2  0  0  0  0  0  0  0  0  0
   -2.5987    0.4237    1.8825 O   0  0  0  0  0  0  0  0  0  0  0  0
   -1.9305    0.4683   -0.4327 C   0  0  2  0  0  0  0  0  0  0  0  0
   -2.4661   -0.7916   -0.6786 O   0  0  0  0  0  0  0  0  0  0  0  0
   -0.5176    0.4443   -1.0421 C   0  0  2  0  0  0  0  0  0  0  0  0
   -0.5806    0.2058   -2.3943 O   0  0  0  0  0  0  0  0  0  0  0  0
    3.8442   -0.7081    0.3154 H   0  0  0  0  0  0  0  0  0  0  0  0
    2.0683    0.7583    1.2438 H   0  0  0  0  0  0  0  0  0  0  0  0
    2.0117    1.3212   -0.4993 H   0  0  0  0  0  0  0  0  0  0  0  0
    1.8992   -0.9704   -1.2962 H   0  0  0  0  0  0  0  0  0  0  0  0
    1.8754   -1.5852    0.3696 H   0  0  0  0  0  0  0  0  0  0  0  0
   -0.3190   -1.6260   -0.6591 H   0  0  0  0  0  0  0  0  0  0  0  0
    0.3154   -0.0896    1.8478 H   0  0  0  0  0  0  0  0  0  0  0  0
   -0.9411   -1.3642    1.5568 H   0  0  0  0  0  0  0  0  0  0  0  0
   -1.0484    1.6066    1.1398 H   0  0  0  0  0  0  0  0  0  0  0  0
   -2.3439    0.8233    2.7565 H   0  0  0  0  0  0  0  0  0  0  0  0
   -2.5282    1.2872   -0.8214 H   0  0  0  0  0  0  0  0  0  0  0  0
   -2.3907   -0.9593   -1.6694 H   0  0  0  0  0  0  0  0  0  0  0  0
   -0.0810    1.4370   -0.7946 H   0  0  0  0  0  0  0  0  0  0  0  0
    0.2060   -0.2015   -2.7845 H   0  0  0  0  0  0  0  0  0  0  0  0
  1  2  1  0
  2  3  1  0
  3  4  1  0
  4  5  1  0
  5  6  1  0
  6  7  1  0
  6  8  1  0
  8  9  1  0
  8 10  1  0
 10 11  1  0
 10  4  1  0
  1 12  1  0
  2 13  1  0
  2 14  1  0
  3 15  1  0
  3 16  1  0
  4 17  1  6
  5 18  1  0
  5 19  1  0
  6 20  1  6
  7 21  1  0
  8 22  1  6
  9 23  1  0
 10 24  1  6
 11 25  1  0
M  END
$$$$

     RDKit          3D

 25 25  0  0  0  0  0  0  0  0999 V2000
    3.8565   -0.5115    0.2148 O   0  0  0  0  0  0  0  0  0  0  0  0
    2.5117   -0.8424    0.3676 C   0  0  0  0  0  0  0  0  0  0  0  0
    1.6685    0.1564   -0.3842 C   0  0  0  0  0  0  0  0  0  0  0  0
    0.1999   -0.1612   -0.2480 C   0  0  1  0  0  0  0  0  0  0  0  0
   -0.2502   -0.1368    1.2047 C   0  0  0  0  0  0  0  0  0  0  0  0
   -1.7417    0.1016    1.1137 C   0  0  2  0  0  0  0  0  0  0  0  0
   -2.4877   -0.9799    1.5484 O   0  0  0  0  0  0  0  0  0  0  0  0
   -2.0311    0.4328   -0.3407 C   0  0  2  0  0  0  0  0  0  0  0  0
   -2.2836   -0.7694   -1.0351 O   0  0  0  0  0  0  0  0  0  0  0  0
   -0.6665    0.9607   -0.7854 C   0  0  2  0  0  0  0  0  0  0  0  0
   -0.5788    1.1056   -2.1452 O   0  0  0  0  0  0  0  0  0  0  0  0
    3.9720    0.0867   -0.5545 H   0  0  0  0  0  0  0  0  0  0  0  0
    2.2357   -0.8780    1.4526 H   0  0  0  0  0  0  0  0  0  0  0  0
    2.3404   -1.8481   -0.0718 H   0  0  0  0  0  0  0  0  0  0  0  0
    1.8925    1.1936   -0.1460 H   0  0  0  0  0  0  0  0  0  0  0  0
    1.9132    0.0164   -1.4694 H   0  0  0  0  0  0  0  0  0  0  0  0
   -0.0713   -1.1377   -0.6574 H   0  0  0  0  0  0  0  0  0  0  0  0
   -0.0201   -1.0868    1.7260 H   0  0  0  0  0  0  0  0  0  0  0  0
    0.1981    0.7363    1.7390 H   0  0  0  0  0  0  0  0  0  0  0  0
   -2.0387    1.0202    1.6911 H   0  0  0  0  0  0  0  0  0  0  0  0
   -3.2545   -0.6405    2.0961 H   0  0  0  0  0  0  0  0  0  0  0  0
   -2.8247    1.1640   -0.4728 H   0  0  0  0  0  0  0  0  0  0  0  0
   -2.2663   -1.5339   -0.3950 H   0  0  0  0  0  0  0  0  0  0  0  0
   -0.4736    1.8660   -0.2063 H   0  0  0  0  0  0  0  0  0  0  0  0
    0.2001    1.6860   -2.3387 H   0  0  0  0  0  0  0  0  0  0  0  0
  1  2  1  0
  2  3  1  0
  3  4  1  0
  4  5  1  0
  5  6  1  0
  6  7  1  0
  6  8  1  0
  8  9  1  0
  8 10  1  0
 10 11  1  0
 10  4  1  0
  1 12  1  0
  2 13  1  0
  2 14  1  0
  3 15  1  0
  3 16  1  0
  4 17  1  6
  5 18  1  0
  5 19  1  0
  6 20  1  1
  7 21  1  0
  8 22  1  1
  9 23  1  0
 10 24  1  1
 11 25  1  0
M  END
$$$$

     RDKit          3D

 25 25  0  0  0  0  0  0  0  0999 V2000
    2.9508    0.8518    0.7688 O   0  0  0  0  0  0  0  0  0  0  0  0
    2.5665    0.5624   -0.5350 C   0  0  0  0  0  0  0  0  0  0  0  0
    1.6158   -0.6195   -0.5170 C   0  0  0  0  0  0  0  0  0  0  0  0
    0.4317   -0.2147    0.3165 C   0  0  1  0  0  0  0  0  0  0  0  0
   -0.2129    0.9890   -0.3137 C   0  0  0  0  0  0  0  0  0  0  0  0
   -1.6985    0.6680   -0.3447 C   0  0  2  0  0  0  0  0  0  0  0  0
   -2.3146    0.9233    0.8598 O   0  0  0  0  0  0  0  0  0  0  0  0
   -1.6654   -0.8513   -0.5526 C   0  0  2  0  0  0  0  0  0  0  0  0
   -2.9048   -1.3827   -0.2838 O   0  0  0  0  0  0  0  0  0  0  0  0
   -0.6145   -1.2610    0.4474 C   0  0  2  0  0  0  0  0  0  0  0  0
   -1.1993   -1.1575    1.7154 O   0  0  0  0  0  0  0  0  0  0  0  0
    3.8382    0.4433    0.9647 H   0  0  0  0  0  0  0  0  0  0  0  0
    2.0666    1.4665   -0.9394 H   0  0  0  0  0  0  0  0  0  0  0  0
    3.4414    0.3752   -1.1900 H   0  0  0  0  0  0  0  0  0  0  0  0
    2.1561   -1.4904   -0.0961 H   0  0  0  0  0  0  0  0  0  0  0  0
    1.3321   -0.8610   -1.5675 H   0  0  0  0  0  0  0  0  0  0  0  0
    0.8238    0.0075    1.3398 H   0  0  0  0  0  0  0  0  0  0  0  0
    0.1050    1.1327   -1.3858 H   0  0  0  0  0  0  0  0  0  0  0  0
    0.0052    1.8851    0.2976 H   0  0  0  0  0  0  0  0  0  0  0  0
   -2.2150    1.1246   -1.1969 H   0  0  0  0  0  0  0  0  0  0  0  0
   -2.4926    1.8900    0.9768 H   0  0  0  0  0  0  0  0  0  0  0  0
   -1.3172   -1.0431   -1.5928 H   0  0  0  0  0  0  0  0  0  0  0  0
   -3.5863   -0.7790   -0.7025 H   0  0  0  0  0  0  0  0  0  0  0  0
   -0.2469   -2.2923    0.2769 H   0  0  0  0  0  0  0  0  0  0  0  0
   -0.8654   -0.3668    2.2111 H   0  0  0  0  0  0  0  0  0  0  0  0
  1  2  1  0
  2  3  1  0
  3  4  1  0
  4  5  1  0
  5  6  1  0
  6  7  1  0
  6  8  1  0
  8  9  1  0
  8 10  1  0
 10 11  1  0
 10  4  1  0
  1 12  1  0
  2 13  1  0
  2 14  1  0
  3 15  1  0
  3 16  1  0
  4 17  1  1
  5 18  1  0
  5 19  1  0
  6 20  1  6
  7 21  1  0
  8 22  1  6
  9 23  1  0
 10 24  1  6
 11 25  1  0
M  END
$$$$
