
     RDKit          3D

 26 25  0  0  0  0  0  0  0  0999 V2000
    2.8250    1.4892   -1.2565 N   0  0  0  0  0  0  0  0  0  0  0  0
    3.0925    0.7970   -0.2206 C   0  0  0  0  0  0  0  0  0  0  0  0
    4.4374    0.4995    0.1971 N   0  0  0  0  0  0  0  0  0  0  0  0
    1.9843    0.2626    0.5311 N   0  0  0  0  0  0  0  0  0  0  0  0
    0.7580   -0.0503   -0.1923 C   0  0  0  0  0  0  0  0  0  0  0  0
   -0.1067   -0.8168    0.7505 C   0  0  0  0  0  0  0  0  0  0  0  0
   -1.4173   -1.2772    0.2412 C   0  0  2  0  0  0  0  0  0  0  0  0
   -1.3325   -2.0820   -0.8935 O   0  0  0  0  0  0  0  0  0  0  0  0
   -2.5896   -0.3799    0.2997 C   0  0  0  0  0  0  0  0  0  0  0  0
   -2.5117    0.9186   -0.4246 C   0  0  0  0  0  0  0  0  0  0  0  0
   -3.7583    1.5881   -0.2262 O   0  0  0  0  0  0  0  0  0  0  0  0
    3.5530    1.8794   -1.8544 H   0  0  0  0  0  0  0  0  0  0  0  0
    5.0374   -0.0100   -0.4663 H   0  0  0  0  0  0  0  0  0  0  0  0
    4.7872    0.7886    1.1128 H   0  0  0  0  0  0  0  0  0  0  0  0
    2.0645    0.1127    1.5437 H   0  0  0  0  0  0  0  0  0  0  0  0
    0.3687    0.9129   -0.5392 H   0  0  0  0  0  0  0  0  0  0  0  0
    0.9467   -0.6475   -1.1205 H   0  0  0  0  0  0  0  0  0  0  0  0
   -0.2593   -0.1639    1.6442 H   0  0  0  0  0  0  0  0  0  0  0  0
    0.4948   -1.7039    1.0920 H   0  0  0  0  0  0  0  0  0  0  0  0
   -1.7082   -2.1067    1.0472 H   0  0  0  0  0  0  0  0  0  0  0  0
   -2.0866   -2.7449   -0.9656 H   0  0  0  0  0  0  0  0  0  0  0  0
   -2.9333   -0.2098    1.3567 H   0  0  0  0  0  0  0  0  0  0  0  0
   -3.4974   -0.9059   -0.1526 H   0  0  0  0  0  0  0  0  0  0  0  0
   -1.7842    1.6562    0.0315 H   0  0  0  0  0  0  0  0  0  0  0  0
   -2.3884    0.8172   -1.5011 H   0  0  0  0  0  0  0  0  0  0  0  0
   -3.9762    1.3767    0.7363 H   0  0  0  0  0  0  0  0  0  0  0  0
  1  2  2  3
  2  3  1  0
  2  4  1  0
  4  5  1  0
  5  6  1  0
  6  7  1  0
  7  8  1  0
  7  9  1  0
  9 10  1  0
 10 11  1  0
  1 12  1  0
  3 13  1  0
  3 14  1  0
  4 15  1  0
  5 16  1  0
  5 17  1  0
  6 18  1  0
  6 19  1  0
  7 20  1  1
  8 21  1  0
  9 22  1  0
  9 23  1  0
 10 24  1  0
 10 25  1  0
 11 26  1  0
M  END
$$$$

     RDKit          3D

 26 25  0  0  0  0  0  0  0  0999 V2000
    3.5644   -1.0884   -0.6257 N   0  0  0  0  0  0  0  0  0  0  0  0
    2.8575   -0.0200   -0.4159 C   0  0  0  0  0  0  0  0  0  0  0  0
    3.5346    1.2107   -0.1557 N   0  0  0  0  0  0  0  0  0  0  0  0
    1.4127   -0.0866   -0.4474 N   0  0  0  0  0  0  0  0  0  0  0  0
    0.7796   -1.2988   -0.0613 C   0  0  0  0  0  0  0  0  0  0  0  0
   -0.6895   -1.3605    0.0150 C   0  0  0  0  0  0  0  0  0  0  0  0
   -1.3896   -0.4945    1.0092 C   0  0  2  0  0  0  0  0  0  0  0  0
   -2.8066   -0.7547    0.9250 O   0  0  0  0  0  0  0  0  0  0  0  0
   -1.2478    0.9822    0.8387 C   0  0  0  0  0  0  0  0  0  0  0  0
   -1.7851    1.4699   -0.4852 C   0  0  0  0  0  0  0  0  0  0  0  0
   -3.1605    1.1206   -0.4822 O   0  0  0  0  0  0  0  0  0  0  0  0
    3.1484   -2.0236   -0.8221 H   0  0  0  0  0  0  0  0  0  0  0  0
    4.3005    1.2901    0.5445 H   0  0  0  0  0  0  0  0  0  0  0  0
    3.2106    2.0450   -0.7207 H   0  0  0  0  0  0  0  0  0  0  0  0
    0.9531    0.7685   -0.7749 H   0  0  0  0  0  0  0  0  0  0  0  0
    1.1661   -1.6173    0.9652 H   0  0  0  0  0  0  0  0  0  0  0  0
    1.1192   -2.1644   -0.7227 H   0  0  0  0  0  0  0  0  0  0  0  0
   -0.9734   -2.4297    0.2940 H   0  0  0  0  0  0  0  0  0  0  0  0
   -1.1782   -1.2706   -1.0117 H   0  0  0  0  0  0  0  0  0  0  0  0
   -1.0878   -0.8014    2.0296 H   0  0  0  0  0  0  0  0  0  0  0  0
   -2.9202   -1.6197    0.4451 H   0  0  0  0  0  0  0  0  0  0  0  0
   -1.9028    1.5140    1.6146 H   0  0  0  0  0  0  0  0  0  0  0  0
   -0.2511    1.3960    1.0405 H   0  0  0  0  0  0  0  0  0  0  0  0
   -1.6946    2.5698   -0.5254 H   0  0  0  0  0  0  0  0  0  0  0  0
   -1.3092    0.9994   -1.3647 H   0  0  0  0  0  0  0  0  0  0  0  0
   -3.6505    1.6640    0.1739 H   0  0  0  0  0  0  0  0  0  0  0  0
  1  2  2  3
  2  3  1  0
  2  4  1  0
  4  5  1  0
  5  6  1  0
  6  7  1  0
  7  8  1  0
  7  9  1  0
  9 10  1  0
 10 11  1  0
  1 12  1  0
  3 13  1  0
  3 14  1  0
  4 15  1  0
  5 16  1  0
  5 17  1  0
  6 18  1  0
  6 19  1  0
  7 20  1  1
  8 21  1  0
  9 22  1  0
  9 23  1  0
 10 24  1  0
 10 25  1  0
 11 26  1  0
M  END
$$$$

     RDKit          3D

 26 25  0  0  0  0  0  0  0  0999 V2000
    3.7480   -1.3209   -0.5619 N   0  0  0  0  0  0  0  0  0  0  0  0
    3.4908   -0.0817   -0.4259 C   0  0  0  0  0  0  0  0  0  0  0  0
    4.5233    0.9100   -0.6122 N   0  0  0  0  0  0  0  0  0  0  0  0
    2.1703    0.3186   -0.0869 N   0  0  0  0  0  0  0  0  0  0  0  0
    1.0499   -0.6319   -0.1573 C   0  0  0  0  0  0  0  0  0  0  0  0
   -0.2344    0.0796    0.2619 C   0  0  0  0  0  0  0  0  0  0  0  0
   -1.3487   -0.9322    0.1734 C   0  0  2  0  0  0  0  0  0  0  0  0
   -1.4130   -1.3714   -1.1534 O   0  0  0  0  0  0  0  0  0  0  0  0
   -2.6857   -0.3574    0.5593 C   0  0  0  0  0  0  0  0  0  0  0  0
   -3.0748    0.7865   -0.3261 C   0  0  0  0  0  0  0  0  0  0  0  0
   -4.3091    1.2923    0.0552 O   0  0  0  0  0  0  0  0  0  0  0  0
    3.0224   -2.0271   -0.4315 H   0  0  0  0  0  0  0  0  0  0  0  0
    4.7178    1.3217   -1.5379 H   0  0  0  0  0  0  0  0  0  0  0  0
    5.0568    1.1872    0.2223 H   0  0  0  0  0  0  0  0  0  0  0  0
    2.0059    1.2943    0.2122 H   0  0  0  0  0  0  0  0  0  0  0  0
    0.9698   -1.0159   -1.1944 H   0  0  0  0  0  0  0  0  0  0  0  0
    1.2141   -1.4836    0.5066 H   0  0  0  0  0  0  0  0  0  0  0  0
   -0.4445    0.9167   -0.4525 H   0  0  0  0  0  0  0  0  0  0  0  0
   -0.1213    0.4329    1.3055 H   0  0  0  0  0  0  0  0  0  0  0  0
   -1.0928   -1.8117    0.7856 H   0  0  0  0  0  0  0  0  0  0  0  0
   -1.4092   -0.6024   -1.7496 H   0  0  0  0  0  0  0  0  0  0  0  0
   -3.4408   -1.1558    0.4251 H   0  0  0  0  0  0  0  0  0  0  0  0
   -2.6825   -0.0379    1.6171 H   0  0  0  0  0  0  0  0  0  0  0  0
   -2.3495    1.6272   -0.3005 H   0  0  0  0  0  0  0  0  0  0  0  0
   -3.1151    0.4569   -1.3889 H   0  0  0  0  0  0  0  0  0  0  0  0
   -4.2477    2.2062    0.4360 H   0  0  0  0  0  0  0  0  0  0  0  0
  1  2  2  3
  2  3  1  0
  2  4  1  0
  4  5  1  0
  5  6  1  0
  6  7  1  0
  7  8  1  0
  7  9  1  0
  9 10  1  0
 10 11  1  0
  1 12  1  0
  3 13  1  0
  3 14  1  0
  4 15  1  0
  5 16  1  0
  5 17  1  0
  6 18  1  0
  6 19  1  0
  7 20  1  1
  8 21  1  0
  9 22  1  0
  9 23  1  0
 10 24  1  0
 10 25  1  0
 11 26  1  0
M  END
$$$$

     RDKit          3D

 26 25  0  0  0  0  0  0  0  0999 V2000
    3.7576   -0.6708    0.7132 N   0  0  0  0  0  0  0  0  0  0  0  0
    3.2310    0.4517    0.4161 C   0  0  0  0  0  0  0  0  0  0  0  0
    4.0653    1.6212    0.4475 N   0  0  0  0  0  0  0  0  0  0  0  0
    1.8592    0.5780    0.0590 N   0  0  0  0  0  0  0  0  0  0  0  0
    1.2171   -0.5685   -0.5535 C   0  0  0  0  0  0  0  0  0  0  0  0
   -0.2312   -0.2878   -0.8754 C   0  0  0  0  0  0  0  0  0  0  0  0
   -0.9959    0.0560    0.3946 C   0  0  2  0  0  0  0  0  0  0  0  0
   -0.9596   -0.9709    1.3103 O   0  0  0  0  0  0  0  0  0  0  0  0
   -2.4114    0.4200    0.0467 C   0  0  0  0  0  0  0  0  0  0  0  0
   -3.1378   -0.7114   -0.6461 C   0  0  0  0  0  0  0  0  0  0  0  0
   -4.4323   -0.2484   -0.9132 O   0  0  0  0  0  0  0  0  0  0  0  0
    3.2840   -1.5779    0.7316 H   0  0  0  0  0  0  0  0  0  0  0  0
    3.7325    2.4646    0.9246 H   0  0  0  0  0  0  0  0  0  0  0  0
    4.9905    1.6036   -0.0089 H   0  0  0  0  0  0  0  0  0  0  0  0
    1.3414    1.4838    0.2411 H   0  0  0  0  0  0  0  0  0  0  0  0
    1.3013   -1.4531    0.1425 H   0  0  0  0  0  0  0  0  0  0  0  0
    1.7449   -0.7984   -1.5018 H   0  0  0  0  0  0  0  0  0  0  0  0
   -0.6604   -1.1552   -1.3826 H   0  0  0  0  0  0  0  0  0  0  0  0
   -0.2522    0.5918   -1.5493 H   0  0  0  0  0  0  0  0  0  0  0  0
   -0.5214    0.9399    0.8672 H   0  0  0  0  0  0  0  0  0  0  0  0
   -1.2197   -1.8494    0.9225 H   0  0  0  0  0  0  0  0  0  0  0  0
   -2.4533    1.3118   -0.5939 H   0  0  0  0  0  0  0  0  0  0  0  0
   -2.9556    0.5881    1.0174 H   0  0  0  0  0  0  0  0  0  0  0  0
   -3.1408   -1.6206   -0.0220 H   0  0  0  0  0  0  0  0  0  0  0  0
   -2.6740   -0.9510   -1.6265 H   0  0  0  0  0  0  0  0  0  0  0  0
   -4.4789    0.7531   -0.8718 H   0  0  0  0  0  0  0  0  0  0  0  0
  1  2  2  3
  2  3  1  0
  2  4  1  0
  4  5  1  0
  5  6  1  0
  6  7  1  0
  7  8  1  0
  7  9  1  0
  9 10  1  0
 10 11  1  0
  1 12  1  0
  3 13  1  0
  3 14  1  0
  4 15  1  0
  5 16  1  0
  5 17  1  0
  6 18  1  0
  6 19  1  0
  7 20  1  1
  8 21  1  0
  9 22  1  0
  9 23  1  0
 10 24  1  0
 10 25  1  0
 11 26  1  0
M  END
$$$$

     RDKit          3D

 26 25  0  0  0  0  0  0  0  0999 V2000
    2.4867    0.1971   -1.4772 N   0  0  0  0  0  0  0  0  0  0  0  0
    2.8032    0.0932   -0.2348 C   0  0  0  0  0  0  0  0  0  0  0  0
    3.9385    0.8029    0.2537 N   0  0  0  0  0  0  0  0  0  0  0  0
    2.0665   -0.7033    0.6696 N   0  0  0  0  0  0  0  0  0  0  0  0
    0.8619   -1.3799    0.2518 C   0  0  0  0  0  0  0  0  0  0  0  0
   -0.1851   -0.2745   -0.0088 C   0  0  0  0  0  0  0  0  0  0  0  0
   -1.4713   -0.8841   -0.4499 C   0  0  2  0  0  0  0  0  0  0  0  0
   -1.1897   -1.6200   -1.6268 O   0  0  0  0  0  0  0  0  0  0  0  0
   -2.4622    0.1731   -0.8335 C   0  0  0  0  0  0  0  0  0  0  0  0
   -2.8553    1.1451    0.2261 C   0  0  0  0  0  0  0  0  0  0  0  0
   -1.8107    1.8912    0.6899 O   0  0  0  0  0  0  0  0  0  0  0  0
    3.0329    0.7791   -2.1244 H   0  0  0  0  0  0  0  0  0  0  0  0
    3.8312    1.4077    1.0703 H   0  0  0  0  0  0  0  0  0  0  0  0
    4.8460    0.6857   -0.2350 H   0  0  0  0  0  0  0  0  0  0  0  0
    2.3970   -0.8040    1.6520 H   0  0  0  0  0  0  0  0  0  0  0  0
    1.0354   -1.9171   -0.6999 H   0  0  0  0  0  0  0  0  0  0  0  0
    0.4908   -2.0523    1.0463 H   0  0  0  0  0  0  0  0  0  0  0  0
   -0.2720    0.3378    0.9295 H   0  0  0  0  0  0  0  0  0  0  0  0
    0.2428    0.3794   -0.7797 H   0  0  0  0  0  0  0  0  0  0  0  0
   -1.8628   -1.5543    0.3247 H   0  0  0  0  0  0  0  0  0  0  0  0
   -1.7046   -2.4831   -1.5686 H   0  0  0  0  0  0  0  0  0  0  0  0
   -3.3878   -0.3400   -1.1970 H   0  0  0  0  0  0  0  0  0  0  0  0
   -2.0980    0.7834   -1.6988 H   0  0  0  0  0  0  0  0  0  0  0  0
   -3.5737    1.8744   -0.2556 H   0  0  0  0  0  0  0  0  0  0  0  0
   -3.3790    0.6374    1.0763 H   0  0  0  0  0  0  0  0  0  0  0  0
   -1.7807    2.8250    0.3467 H   0  0  0  0  0  0  0  0  0  0  0  0
  1  2  2  3
  2  3  1  0
  2  4  1  0
  4  5  1  0
  5  6  1  0
  6  7  1  0
  7  8  1  0
  7  9  1  0
  9 10  1  0
 10 11  1  0
  1 12  1  0
  3 13  1  0
  3 14  1  0
  4 15  1  0
  5 16  1  0
  5 17  1  0
  6 18  1  0
  6 19  1  0
  7 20  1  1
  8 21  1  0
  9 22  1  0
  9 23  1  0
 10 24  1  0
 10 25  1  0
 11 26  1  0
M  END
$$$$

     RDKit          3D

 26 25  0  0  0  0  0  0  0  0999 V2000
    3.1966    1.8647   -0.1288 N   0  0  0  0  0  0  0  0  0  0  0  0
    3.1507    0.5636   -0.1836 C   0  0  0  0  0  0  0  0  0  0  0  0
    4.3664   -0.1440   -0.1967 N   0  0  0  0  0  0  0  0  0  0  0  0
    1.8681   -0.0643   -0.2272 N   0  0  0  0  0  0  0  0  0  0  0  0
    0.7597    0.6775   -0.7500 C   0  0  0  0  0  0  0  0  0  0  0  0
   -0.5555   -0.0471   -0.7349 C   0  0  0  0  0  0  0  0  0  0  0  0
   -1.0389   -0.4451    0.6182 C   0  0  2  0  0  0  0  0  0  0  0  0
   -0.1409   -1.2962    1.2431 O   0  0  0  0  0  0  0  0  0  0  0  0
   -2.4140   -1.0641    0.5927 C   0  0  0  0  0  0  0  0  0  0  0  0
   -3.4488   -0.1185    0.0349 C   0  0  0  0  0  0  0  0  0  0  0  0
   -3.5014    1.0434    0.8317 O   0  0  0  0  0  0  0  0  0  0  0  0
    4.0968    2.3806   -0.0952 H   0  0  0  0  0  0  0  0  0  0  0  0
    4.4124   -1.0786   -0.6270 H   0  0  0  0  0  0  0  0  0  0  0  0
    5.2088    0.2712    0.2230 H   0  0  0  0  0  0  0  0  0  0  0  0
    1.8377   -1.0349    0.1267 H   0  0  0  0  0  0  0  0  0  0  0  0
    0.9826    0.9799   -1.8003 H   0  0  0  0  0  0  0  0  0  0  0  0
    0.6873    1.6389   -0.1744 H   0  0  0  0  0  0  0  0  0  0  0  0
   -1.3445    0.5195   -1.2914 H   0  0  0  0  0  0  0  0  0  0  0  0
   -0.3980   -0.9717   -1.3683 H   0  0  0  0  0  0  0  0  0  0  0  0
   -1.1238    0.4651    1.2521 H   0  0  0  0  0  0  0  0  0  0  0  0
   -0.5983   -2.1590    1.3953 H   0  0  0  0  0  0  0  0  0  0  0  0
   -2.7247   -1.3052    1.6290 H   0  0  0  0  0  0  0  0  0  0  0  0
   -2.4459   -1.9904    0.0091 H   0  0  0  0  0  0  0  0  0  0  0  0
   -4.4629   -0.5757    0.1366 H   0  0  0  0  0  0  0  0  0  0  0  0
   -3.3214    0.1077   -1.0312 H   0  0  0  0  0  0  0  0  0  0  0  0
   -3.0482    1.7826    0.3307 H   0  0  0  0  0  0  0  0  0  0  0  0
  1  2  2  3
  2  3  1  0
  2  4  1  0
  4  5  1  0
  5  6  1  0
  6  7  1  0
  7  8  1  0
  7  9  1  0
  9 10  1  0
 10 11  1  0
  1 12  1  0
  3 13  1  0
  3 14  1  0
  4 15  1  0
  5 16  1  0
  5 17  1  0
  6 18  1  0
  6 19  1  0
  7 20  1  1
  8 21  1  0
  9 22  1  0
  9 23  1  0
 10 24  1  0
 10 25  1  0
 11 26  1  0
M  END
$$$$

     RDKit          3D

 26 25  0  0  0  0  0  0  0  0999 V2000
   -2.6037    2.2820   -0.1613 N   0  0  0  0  0  0  0  0  0  0  0  0
   -2.6901    1.0765    0.2894 C   0  0  0  0  0  0  0  0  0  0  0  0
   -3.7490    0.7410    1.1739 N   0  0  0  0  0  0  0  0  0  0  0  0
   -1.7242    0.1150   -0.1103 N   0  0  0  0  0  0  0  0  0  0  0  0
   -0.5209    0.6296   -0.8072 C   0  0  0  0  0  0  0  0  0  0  0  0
    0.3593   -0.4812   -1.1444 C   0  0  0  0  0  0  0  0  0  0  0  0
    0.9436   -1.3832   -0.1816 C   0  0  2  0  0  0  0  0  0  0  0  0
    0.1122   -2.0919    0.6579 O   0  0  0  0  0  0  0  0  0  0  0  0
    2.2340   -1.0643    0.4722 C   0  0  0  0  0  0  0  0  0  0  0  0
    2.3667    0.1629    1.2744 C   0  0  0  0  0  0  0  0  0  0  0  0
    2.2002    1.3211    0.5447 O   0  0  0  0  0  0  0  0  0  0  0  0
   -1.8619    2.6002   -0.8077 H   0  0  0  0  0  0  0  0  0  0  0  0
   -4.3171   -0.1183    1.0471 H   0  0  0  0  0  0  0  0  0  0  0  0
   -3.9824    1.3553    1.9781 H   0  0  0  0  0  0  0  0  0  0  0  0
   -1.8530   -0.8995    0.0759 H   0  0  0  0  0  0  0  0  0  0  0  0
   -0.2202    1.5062   -0.2905 H   0  0  0  0  0  0  0  0  0  0  0  0
   -1.0010    1.0219   -1.7707 H   0  0  0  0  0  0  0  0  0  0  0  0
   -0.1804   -1.0616   -1.9703 H   0  0  0  0  0  0  0  0  0  0  0  0
    1.2256   -0.0419   -1.7459 H   0  0  0  0  0  0  0  0  0  0  0  0
    1.2928   -2.3089   -0.8652 H   0  0  0  0  0  0  0  0  0  0  0  0
    0.3920   -2.1297    1.5919 H   0  0  0  0  0  0  0  0  0  0  0  0
    3.0921   -1.1237   -0.2936 H   0  0  0  0  0  0  0  0  0  0  0  0
    2.5381   -1.9329    1.1574 H   0  0  0  0  0  0  0  0  0  0  0  0
    3.3710    0.2062    1.7936 H   0  0  0  0  0  0  0  0  0  0  0  0
    1.6131    0.1479    2.0934 H   0  0  0  0  0  0  0  0  0  0  0  0
    2.9632    1.4713   -0.0790 H   0  0  0  0  0  0  0  0  0  0  0  0
  1  2  2  3
  2  3  1  0
  2  4  1  0
  4  5  1  0
  5  6  1  0
  6  7  1  0
  7  8  1  0
  7  9  1  0
  9 10  1  0
 10 11  1  0
  1 12  1  0
  3 13  1  0
  3 14  1  0
  4 15  1  0
  5 16  1  0
  5 17  1  0
  6 18  1  0
  6 19  1  0
  7 20  1  6
  8 21  1  0
  9 22  1  0
  9 23  1  0
 10 24  1  0
 10 25  1  0
 11 26  1  0
M  END
$$$$

     RDKit          3D

 26 25  0  0  0  0  0  0  0  0999 V2000
    3.9026   -1.1591   -0.3707 N   0  0  0  0  0  0  0  0  0  0  0  0
    3.6883    0.0832   -0.0895 C   0  0  0  0  0  0  0  0  0  0  0  0
    4.7198    1.0311    0.0689 N   0  0  0  0  0  0  0  0  0  0  0  0
    2.3235    0.4979    0.0652 N   0  0  0  0  0  0  0  0  0  0  0  0
    1.2290   -0.4338   -0.1421 C   0  0  0  0  0  0  0  0  0  0  0  0
   -0.0524    0.3148    0.0973 C   0  0  0  0  0  0  0  0  0  0  0  0
   -1.2702   -0.5761   -0.0952 C   0  0  2  0  0  0  0  0  0  0  0  0
   -1.3301   -1.0870   -1.3774 O   0  0  0  0  0  0  0  0  0  0  0  0
   -2.4779    0.2693    0.2131 C   0  0  0  0  0  0  0  0  0  0  0  0
   -3.7761   -0.4874    0.0637 C   0  0  0  0  0  0  0  0  0  0  0  0
   -4.7990    0.4353    0.3840 O   0  0  0  0  0  0  0  0  0  0  0  0
    3.1477   -1.8403   -0.4839 H   0  0  0  0  0  0  0  0  0  0  0  0
    4.5694    2.0009   -0.2976 H   0  0  0  0  0  0  0  0  0  0  0  0
    5.6026    0.7504    0.5431 H   0  0  0  0  0  0  0  0  0  0  0  0
    2.1644    1.5109    0.3361 H   0  0  0  0  0  0  0  0  0  0  0  0
    1.2525   -0.7760   -1.2043 H   0  0  0  0  0  0  0  0  0  0  0  0
    1.3225   -1.3210    0.5343 H   0  0  0  0  0  0  0  0  0  0  0  0
   -0.0416    0.6772    1.1367 H   0  0  0  0  0  0  0  0  0  0  0  0
   -0.0975    1.1343   -0.6489 H   0  0  0  0  0  0  0  0  0  0  0  0
   -1.2370   -1.4395    0.6005 H   0  0  0  0  0  0  0  0  0  0  0  0
   -1.4533   -0.3797   -2.0657 H   0  0  0  0  0  0  0  0  0  0  0  0
   -2.4542    1.2030   -0.3448 H   0  0  0  0  0  0  0  0  0  0  0  0
   -2.4053    0.5374    1.3061 H   0  0  0  0  0  0  0  0  0  0  0  0
   -3.9630   -0.8585   -0.9453 H   0  0  0  0  0  0  0  0  0  0  0  0
   -3.8438   -1.3219    0.7816 H   0  0  0  0  0  0  0  0  0  0  0  0
   -4.7210    1.2345   -0.2100 H   0  0  0  0  0  0  0  0  0  0  0  0
  1  2  2  3
  2  3  1  0
  2  4  1  0
  4  5  1  0
  5  6  1  0
  6  7  1  0
  7  8  1  0
  7  9  1  0
  9 10  1  0
 10 11  1  0
  1 12  1  0
  3 13  1  0
  3 14  1  0
  4 15  1  0
  5 16  1  0
  5 17  1  0
  6 18  1  0
  6 19  1  0
  7 20  1  1
  8 21  1  0
  9 22  1  0
  9 23  1  0
 10 24  1  0
 10 25  1  0
 11 26  1  0
M  END
$$$$
