
     RDKit          3D

 19 18  0  0  0  0  0  0  0  0999 V2000
    2.2678   -0.0373    0.0416 C   0  0  0  0  0  0  0  0  0  0  0  0
    1.2188    0.8932    0.3097 N   0  0  0  0  0  0  0  0  0  0  0  0
   -0.0156    0.9505   -0.8424 S   0  0  0  0  0  6  0  0  0  0  0  0
    0.5296    0.6416   -2.2137 O   0  0  0  0  0  0  0  0  0  0  0  0
   -0.5956    2.3522   -0.9412 O   0  0  0  0  0  0  0  0  0  0  0  0
   -1.2354   -0.1880   -0.3997 N   0  0  0  0  0  0  0  0  0  0  0  0
   -0.9877   -1.4920   -0.9810 C   0  0  0  0  0  0  0  0  0  0  0  0
   -1.3037   -0.3637    0.9406 O   0  0  0  0  0  0  0  0  0  0  0  0
   -1.4671    0.8591    1.5630 C   0  0  0  0  0  0  0  0  0  0  0  0
    1.9435   -0.7098   -0.7882 H   0  0  0  0  0  0  0  0  0  0  0  0
    2.4472   -0.6153    0.9918 H   0  0  0  0  0  0  0  0  0  0  0  0
    3.2009    0.4478   -0.3215 H   0  0  0  0  0  0  0  0  0  0  0  0
    1.4971    1.7765    0.7363 H   0  0  0  0  0  0  0  0  0  0  0  0
   -0.0894   -1.9724   -0.6073 H   0  0  0  0  0  0  0  0  0  0  0  0
   -0.9298   -1.3449   -2.0921 H   0  0  0  0  0  0  0  0  0  0  0  0
   -1.9242   -2.0903   -0.7950 H   0  0  0  0  0  0  0  0  0  0  0  0
   -2.1828    0.6858    2.4201 H   0  0  0  0  0  0  0  0  0  0  0  0
   -0.5193    1.1957    2.0773 H   0  0  0  0  0  0  0  0  0  0  0  0
   -1.8542    1.6533    0.9018 H   0  0  0  0  0  0  0  0  0  0  0  0
  1  2  1  0
  2  3  1  0
  3  4  2  0
  3  5  2  0
  3  6  1  0
  6  7  1  0
  6  8  1  0
  8  9  1  0
  1 10  1  0
  1 11  1  0
  1 12  1  0
  2 13  1  0
  7 14  1  0
  7 15  1  0
  7 16  1  0
  9 17  1  0
  9 18  1  0
  9 19  1  0
M  END
$$$$

     RDKit          3D

 19 18  0  0  0  0  0  0  0  0999 V2000
   -2.5607   -0.8682    0.3159 C   0  0  0  0  0  0  0  0  0  0  0  0
   -2.0784    0.4712    0.0713 N   0  0  0  0  0  0  0  0  0  0  0  0
   -0.5975    0.3994   -0.7757 S   0  0  0  0  0  6  0  0  0  0  0  0
   -0.5373   -0.9023   -1.5561 O   0  0  0  0  0  0  0  0  0  0  0  0
   -0.3671    1.5637   -1.6767 O   0  0  0  0  0  0  0  0  0  0  0  0
    0.7052    0.3430    0.3859 N   0  0  0  0  0  0  0  0  0  0  0  0
    1.1469    1.7019    0.7179 C   0  0  0  0  0  0  0  0  0  0  0  0
    1.7553   -0.2233   -0.2699 O   0  0  0  0  0  0  0  0  0  0  0  0
    2.2738   -1.2909    0.4951 C   0  0  0  0  0  0  0  0  0  0  0  0
   -3.5776   -0.9840   -0.1357 H   0  0  0  0  0  0  0  0  0  0  0  0
   -2.5761   -1.0382    1.4038 H   0  0  0  0  0  0  0  0  0  0  0  0
   -1.9221   -1.6301   -0.1981 H   0  0  0  0  0  0  0  0  0  0  0  0
   -2.7353    1.0685   -0.4544 H   0  0  0  0  0  0  0  0  0  0  0  0
    1.1720    2.2468   -0.2566 H   0  0  0  0  0  0  0  0  0  0  0  0
    2.1777    1.5874    1.1194 H   0  0  0  0  0  0  0  0  0  0  0  0
    0.4697    2.1629    1.4551 H   0  0  0  0  0  0  0  0  0  0  0  0
    3.0928   -0.8539    1.0972 H   0  0  0  0  0  0  0  0  0  0  0  0
    1.5201   -1.7224    1.1675 H   0  0  0  0  0  0  0  0  0  0  0  0
    2.6388   -2.0314   -0.2239 H   0  0  0  0  0  0  0  0  0  0  0  0
  1  2  1  0
  2  3  1  0
  3  4  2  0
  3  5  2  0
  3  6  1  0
  6  7  1  0
  6  8  1  0
  8  9  1  0
  1 10  1  0
  1 11  1  0
  1 12  1  0
  2 13  1  0
  7 14  1  0
  7 15  1  0
  7 16  1  0
  9 17  1  0
  9 18  1  0
  9 19  1  0
M  END
$$$$

     RDKit          3D

 19 18  0  0  0  0  0  0  0  0999 V2000
    2.6241   -0.4843   -0.4372 C   0  0  0  0  0  0  0  0  0  0  0  0
    1.6776   -0.8827    0.6106 N   0  0  0  0  0  0  0  0  0  0  0  0
    0.3942    0.2739    0.6238 S   0  0  0  0  0  6  0  0  0  0  0  0
   -0.1424    0.3113    2.0482 O   0  0  0  0  0  0  0  0  0  0  0  0
    0.9433    1.6415    0.3341 O   0  0  0  0  0  0  0  0  0  0  0  0
   -0.8889   -0.1457   -0.4121 N   0  0  0  0  0  0  0  0  0  0  0  0
   -0.7370    0.3750   -1.7596 C   0  0  0  0  0  0  0  0  0  0  0  0
   -2.0246    0.4468    0.0849 O   0  0  0  0  0  0  0  0  0  0  0  0
   -2.4829   -0.1958    1.2231 C   0  0  0  0  0  0  0  0  0  0  0  0
    2.1005    0.0276   -1.2668 H   0  0  0  0  0  0  0  0  0  0  0  0
    3.2530   -1.3329   -0.7651 H   0  0  0  0  0  0  0  0  0  0  0  0
    3.3397    0.2875   -0.0259 H   0  0  0  0  0  0  0  0  0  0  0  0
    2.2238   -0.8642    1.5006 H   0  0  0  0  0  0  0  0  0  0  0  0
   -1.7428    0.2503   -2.2461 H   0  0  0  0  0  0  0  0  0  0  0  0
   -0.0226   -0.1850   -2.3659 H   0  0  0  0  0  0  0  0  0  0  0  0
   -0.5340    1.4576   -1.7733 H   0  0  0  0  0  0  0  0  0  0  0  0
   -1.9280   -1.1019    1.4822 H   0  0  0  0  0  0  0  0  0  0  0  0
   -2.4737    0.5171    2.0947 H   0  0  0  0  0  0  0  0  0  0  0  0
   -3.5792   -0.3960    1.0499 H   0  0  0  0  0  0  0  0  0  0  0  0
  1  2  1  0
  2  3  1  0
  3  4  2  0
  3  5  2  0
  3  6  1  0
  6  7  1  0
  6  8  1  0
  8  9  1  0
  1 10  1  0
  1 11  1  0
  1 12  1  0
  2 13  1  0
  7 14  1  0
  7 15  1  0
  7 16  1  0
  9 17  1  0
  9 18  1  0
  9 19  1  0
M  END
$$$$

     RDKit          3D

 19 18  0  0  0  0  0  0  0  0999 V2000
   -2.8030   -0.5817    0.0404 C   0  0  0  0  0  0  0  0  0  0  0  0
   -2.1766    0.6976   -0.2242 N   0  0  0  0  0  0  0  0  0  0  0  0
   -0.6779    0.8851    0.5729 S   0  0  0  0  0  6  0  0  0  0  0  0
   -0.4873    2.3455    0.9257 O   0  0  0  0  0  0  0  0  0  0  0  0
   -0.7582    0.1418    1.8932 O   0  0  0  0  0  0  0  0  0  0  0  0
    0.6529    0.3364   -0.3634 N   0  0  0  0  0  0  0  0  0  0  0  0
    0.8880   -1.0373   -0.0882 C   0  0  0  0  0  0  0  0  0  0  0  0
    1.7032    1.1353   -0.2908 O   0  0  0  0  0  0  0  0  0  0  0  0
    2.9087    0.5195   -0.0845 C   0  0  0  0  0  0  0  0  0  0  0  0
   -3.5559   -0.5059    0.8709 H   0  0  0  0  0  0  0  0  0  0  0  0
   -3.4049   -0.9165   -0.8475 H   0  0  0  0  0  0  0  0  0  0  0  0
   -2.0750   -1.3595    0.3499 H   0  0  0  0  0  0  0  0  0  0  0  0
   -2.8392    1.4298    0.1711 H   0  0  0  0  0  0  0  0  0  0  0  0
    0.1064   -1.6712   -0.6011 H   0  0  0  0  0  0  0  0  0  0  0  0
    1.8863   -1.3993   -0.3585 H   0  0  0  0  0  0  0  0  0  0  0  0
    0.7202   -1.1976    1.0154 H   0  0  0  0  0  0  0  0  0  0  0  0
    2.9552   -0.1123    0.8119 H   0  0  0  0  0  0  0  0  0  0  0  0
    3.6723    1.3379    0.0614 H   0  0  0  0  0  0  0  0  0  0  0  0
    3.2848   -0.0475   -0.9733 H   0  0  0  0  0  0  0  0  0  0  0  0
  1  2  1  0
  2  3  1  0
  3  4  2  0
  3  5  2  0
  3  6  1  0
  6  7  1  0
  6  8  1  0
  8  9  1  0
  1 10  1  0
  1 11  1  0
  1 12  1  0
  2 13  1  0
  7 14  1  0
  7 15  1  0
  7 16  1  0
  9 17  1  0
  9 18  1  0
  9 19  1  0
M  END
$$$$

     RDKit          3D

 19 18  0  0  0  0  0  0  0  0999 V2000
    2.7098   -0.4494   -0.1358 C   0  0  0  0  0  0  0  0  0  0  0  0
    1.7366   -0.4256    0.9315 N   0  0  0  0  0  0  0  0  0  0  0  0
    0.5190    0.7426    0.6990 S   0  0  0  0  0  6  0  0  0  0  0  0
   -0.0437    1.2854    1.9725 O   0  0  0  0  0  0  0  0  0  0  0  0
    1.1071    1.8620   -0.1458 O   0  0  0  0  0  0  0  0  0  0  0  0
   -0.7767    0.0166   -0.1755 N   0  0  0  0  0  0  0  0  0  0  0  0
   -0.6154    0.1535   -1.6084 C   0  0  0  0  0  0  0  0  0  0  0  0
   -1.9828    0.4634    0.2419 O   0  0  0  0  0  0  0  0  0  0  0  0
   -2.6143   -0.5726    0.9115 C   0  0  0  0  0  0  0  0  0  0  0  0
    2.2713    0.0427   -1.0310 H   0  0  0  0  0  0  0  0  0  0  0  0
    3.6343    0.1155    0.1161 H   0  0  0  0  0  0  0  0  0  0  0  0
    2.9926   -1.4717   -0.3866 H   0  0  0  0  0  0  0  0  0  0  0  0
    1.3729   -1.3723    1.1672 H   0  0  0  0  0  0  0  0  0  0  0  0
   -1.6435    0.0539   -2.0475 H   0  0  0  0  0  0  0  0  0  0  0  0
   -0.0061   -0.6622   -2.0214 H   0  0  0  0  0  0  0  0  0  0  0  0
   -0.2641    1.1605   -1.8297 H   0  0  0  0  0  0  0  0  0  0  0  0
   -3.7026   -0.4491    0.7458 H   0  0  0  0  0  0  0  0  0  0  0  0
   -2.4417   -0.4718    1.9947 H   0  0  0  0  0  0  0  0  0  0  0  0
   -2.2527   -1.5780    0.6017 H   0  0  0  0  0  0  0  0  0  0  0  0
  1  2  1  0
  2  3  1  0
  3  4  2  0
  3  5  2  0
  3  6  1  0
  6  7  1  0
  6  8  1  0
  8  9  1  0
  1 10  1  0
  1 11  1  0
  1 12  1  0
  2 13  1  0
  7 14  1  0
  7 15  1  0
  7 16  1  0
  9 17  1  0
  9 18  1  0
  9 19  1  0
M  END
$$$$

     RDKit          3D

 19 18  0  0  0  0  0  0  0  0999 V2000
    2.6976    0.0585   -0.0868 C   0  0  0  0  0  0  0  0  0  0  0  0
    1.7538    1.0947   -0.3907 N   0  0  0  0  0  0  0  0  0  0  0  0
    0.2240    0.7366    0.3284 S   0  0  0  0  0  6  0  0  0  0  0  0
   -0.4277    2.0454    0.6706 O   0  0  0  0  0  0  0  0  0  0  0  0
    0.4780   -0.0173    1.6184 O   0  0  0  0  0  0  0  0  0  0  0  0
   -0.6942   -0.1673   -0.7801 N   0  0  0  0  0  0  0  0  0  0  0  0
   -0.5190   -1.5797   -0.6665 C   0  0  0  0  0  0  0  0  0  0  0  0
   -1.9694    0.2225   -0.8958 O   0  0  0  0  0  0  0  0  0  0  0  0
   -2.5733    0.4999    0.3210 C   0  0  0  0  0  0  0  0  0  0  0  0
    3.6190    0.1341   -0.6773 H   0  0  0  0  0  0  0  0  0  0  0  0
    2.2247   -0.9187   -0.2545 H   0  0  0  0  0  0  0  0  0  0  0  0
    3.0043    0.1862    0.9840 H   0  0  0  0  0  0  0  0  0  0  0  0
    2.1392    2.0102   -0.0854 H   0  0  0  0  0  0  0  0  0  0  0  0
   -0.4806   -1.9308    0.3857 H   0  0  0  0  0  0  0  0  0  0  0  0
    0.3161   -1.9527   -1.2777 H   0  0  0  0  0  0  0  0  0  0  0  0
   -1.4440   -2.0602   -1.0959 H   0  0  0  0  0  0  0  0  0  0  0  0
   -1.9989    0.1192    1.1844 H   0  0  0  0  0  0  0  0  0  0  0  0
   -2.8009    1.5643    0.3804 H   0  0  0  0  0  0  0  0  0  0  0  0
   -3.5487   -0.0448    0.3379 H   0  0  0  0  0  0  0  0  0  0  0  0
  1  2  1  0
  2  3  1  0
  3  4  2  0
  3  5  2  0
  3  6  1  0
  6  7  1  0
  6  8  1  0
  8  9  1  0
  1 10  1  0
  1 11  1  0
  1 12  1  0
  2 13  1  0
  7 14  1  0
  7 15  1  0
  7 16  1  0
  9 17  1  0
  9 18  1  0
  9 19  1  0
M  END
$$$$

     RDKit          3D

 19 18  0  0  0  0  0  0  0  0999 V2000
    2.4923   -0.5486    0.8606 C   0  0  0  0  0  0  0  0  0  0  0  0
    1.5591    0.4921    1.2445 N   0  0  0  0  0  0  0  0  0  0  0  0
    0.8752    1.1600   -0.1798 S   0  0  0  0  0  6  0  0  0  0  0  0
    0.5316    2.6286    0.0093 O   0  0  0  0  0  0  0  0  0  0  0  0
    1.8975    1.0077   -1.2807 O   0  0  0  0  0  0  0  0  0  0  0  0
   -0.5495    0.3647   -0.6814 N   0  0  0  0  0  0  0  0  0  0  0  0
   -1.6814    1.0025   -0.0600 C   0  0  0  0  0  0  0  0  0  0  0  0
   -0.5197   -0.9630   -0.5118 O   0  0  0  0  0  0  0  0  0  0  0  0
   -1.7177   -1.4730   -1.0212 C   0  0  0  0  0  0  0  0  0  0  0  0
    1.9693   -1.5047    0.6568 H   0  0  0  0  0  0  0  0  0  0  0  0
    3.2377   -0.7607    1.6711 H   0  0  0  0  0  0  0  0  0  0  0  0
    3.0476   -0.2636   -0.0729 H   0  0  0  0  0  0  0  0  0  0  0  0
    0.7984    0.0510    1.7850 H   0  0  0  0  0  0  0  0  0  0  0  0
   -1.6770    2.0682   -0.4122 H   0  0  0  0  0  0  0  0  0  0  0  0
   -1.5012    1.0385    1.0401 H   0  0  0  0  0  0  0  0  0  0  0  0
   -2.6511    0.5756   -0.3361 H   0  0  0  0  0  0  0  0  0  0  0  0
   -1.5486   -2.5178   -1.3684 H   0  0  0  0  0  0  0  0  0  0  0  0
   -2.5285   -1.4628   -0.2576 H   0  0  0  0  0  0  0  0  0  0  0  0
   -2.0340   -0.8948   -1.9320 H   0  0  0  0  0  0  0  0  0  0  0  0
  1  2  1  0
  2  3  1  0
  3  4  2  0
  3  5  2  0
  3  6  1  0
  6  7  1  0
  6  8  1  0
  8  9  1  0
  1 10  1  0
  1 11  1  0
  1 12  1  0
  2 13  1  0
  7 14  1  0
  7 15  1  0
  7 16  1  0
  9 17  1  0
  9 18  1  0
  9 19  1  0
M  END
$$$$

     RDKit          3D

 19 18  0  0  0  0  0  0  0  0999 V2000
   -2.6667    0.3486    0.8618 C   0  0  0  0  0  0  0  0  0  0  0  0
   -2.0598   -0.3226   -0.2095 N   0  0  0  0  0  0  0  0  0  0  0  0
   -0.7575    0.3730   -0.9673 S   0  0  0  0  0  6  0  0  0  0  0  0
   -0.8169    1.8935   -0.9965 O   0  0  0  0  0  0  0  0  0  0  0  0
   -0.7389   -0.0451   -2.4321 O   0  0  0  0  0  0  0  0  0  0  0  0
    0.6891   -0.1495   -0.1737 N   0  0  0  0  0  0  0  0  0  0  0  0
    1.1988   -1.3468   -0.7603 C   0  0  0  0  0  0  0  0  0  0  0  0
    1.5411    0.8673   -0.1262 O   0  0  0  0  0  0  0  0  0  0  0  0
    2.4345    0.7714    0.9435 C   0  0  0  0  0  0  0  0  0  0  0  0
   -3.6811    0.6799    0.5814 H   0  0  0  0  0  0  0  0  0  0  0  0
   -2.0308    1.2100    1.1659 H   0  0  0  0  0  0  0  0  0  0  0  0
   -2.6776   -0.3298    1.7604 H   0  0  0  0  0  0  0  0  0  0  0  0
   -2.4351   -1.1994   -0.5277 H   0  0  0  0  0  0  0  0  0  0  0  0
    0.4943   -1.7322   -1.5144 H   0  0  0  0  0  0  0  0  0  0  0  0
    2.1855   -1.1942   -1.2396 H   0  0  0  0  0  0  0  0  0  0  0  0
    1.3276   -2.1395    0.0087 H   0  0  0  0  0  0  0  0  0  0  0  0
    2.4825    1.7751    1.4187 H   0  0  0  0  0  0  0  0  0  0  0  0
    2.0943    0.0203    1.6865 H   0  0  0  0  0  0  0  0  0  0  0  0
    3.4168    0.5200    0.5205 H   0  0  0  0  0  0  0  0  0  0  0  0
  1  2  1  0
  2  3  1  0
  3  4  2  0
  3  5  2  0
  3  6  1  0
  6  7  1  0
  6  8  1  0
  8  9  1  0
  1 10  1  0
  1 11  1  0
  1 12  1  0
  2 13  1  0
  7 14  1  0
  7 15  1  0
  7 16  1  0
  9 17  1  0
  9 18  1  0
  9 19  1  0
M  END
$$$$
