
     RDKit          3D

 15 15  0  0  0  0  0  0  0  0999 V2000
   -0.2358   -1.7389    0.4304 N   0  0  0  0  0  0  0  0  0  0  0  0
   -0.2121   -0.5091   -0.2893 C   0  0  1  0  0  0  0  0  0  0  0  0
   -1.1225    0.5480    0.3510 C   0  0  0  0  0  0  0  0  0  0  0  0
   -0.5312    1.7893   -0.2366 C   0  0  0  0  0  0  0  0  0  0  0  0
   -1.1218    2.8961   -0.3016 O   0  0  0  0  0  0  0  0  0  0  0  0
    0.7550    1.4962   -0.6831 O   0  0  0  0  0  0  0  0  0  0  0  0
    1.1220    0.2350   -0.1369 C   0  0  2  0  0  0  0  0  0  0  0  0
    2.1452   -0.3756   -0.8012 O   0  0  0  0  0  0  0  0  0  0  0  0
   -1.1689   -1.8128    0.9351 H   0  0  0  0  0  0  0  0  0  0  0  0
   -0.1546   -2.5218   -0.2624 H   0  0  0  0  0  0  0  0  0  0  0  0
   -0.4579   -0.5885   -1.3559 H   0  0  0  0  0  0  0  0  0  0  0  0
   -0.8809    0.5689    1.4245 H   0  0  0  0  0  0  0  0  0  0  0  0
   -2.1686    0.4054    0.1035 H   0  0  0  0  0  0  0  0  0  0  0  0
    1.2815    0.3916    0.9418 H   0  0  0  0  0  0  0  0  0  0  0  0
    2.7505   -0.7838   -0.1194 H   0  0  0  0  0  0  0  0  0  0  0  0
  1  2  1  0
  2  3  1  0
  3  4  1  0
  4  5  2  0
  4  6  1  0
  6  7  1  0
  7  8  1  0
  7  2  1  0
  1  9  1  0
  1 10  1  0
  2 11  1  6
  3 12  1  0
  3 13  1  0
  7 14  1  1
  8 15  1  0
M  END
$$$$

     RDKit          3D

 15 15  0  0  0  0  0  0  0  0999 V2000
    1.7708   -0.6206    0.2491 N   0  0  0  0  0  0  0  0  0  0  0  0
    0.4781   -0.0677    0.4714 C   0  0  1  0  0  0  0  0  0  0  0  0
    0.3746    1.3010   -0.2063 C   0  0  0  0  0  0  0  0  0  0  0  0
   -1.0875    1.4275   -0.3713 C   0  0  0  0  0  0  0  0  0  0  0  0
   -1.7405    2.4863   -0.5177 O   0  0  0  0  0  0  0  0  0  0  0  0
   -1.6578    0.1669   -0.3407 O   0  0  0  0  0  0  0  0  0  0  0  0
   -0.6409   -0.8236   -0.2012 C   0  0  2  0  0  0  0  0  0  0  0  0
   -1.0995   -1.8837    0.5629 O   0  0  0  0  0  0  0  0  0  0  0  0
    2.0776   -1.3100    0.9506 H   0  0  0  0  0  0  0  0  0  0  0  0
    1.9422   -0.9666   -0.6995 H   0  0  0  0  0  0  0  0  0  0  0  0
    0.2718    0.0437    1.5353 H   0  0  0  0  0  0  0  0  0  0  0  0
    0.9186    1.2901   -1.1749 H   0  0  0  0  0  0  0  0  0  0  0  0
    0.8118    2.0552    0.4519 H   0  0  0  0  0  0  0  0  0  0  0  0
   -0.3381   -1.1125   -1.2093 H   0  0  0  0  0  0  0  0  0  0  0  0
   -2.0811   -1.9860    0.4999 H   0  0  0  0  0  0  0  0  0  0  0  0
  1  2  1  0
  2  3  1  0
  3  4  1  0
  4  5  2  0
  4  6  1  0
  6  7  1  0
  7  8  1  0
  7  2  1  0
  1  9  1  0
  1 10  1  0
  2 11  1  1
  3 12  1  0
  3 13  1  0
  7 14  1  6
  8 15  1  0
M  END
$$$$

     RDKit          3D

 15 15  0  0  0  0  0  0  0  0999 V2000
   -1.4060   -0.8342    0.9076 N   0  0  0  0  0  0  0  0  0  0  0  0
   -0.2664   -0.0671    0.5322 C   0  0  1  0  0  0  0  0  0  0  0  0
    0.8266   -0.9030   -0.1167 C   0  0  0  0  0  0  0  0  0  0  0  0
    1.5209    0.1253   -0.9404 C   0  0  0  0  0  0  0  0  0  0  0  0
    2.7338    0.1008   -1.2296 O   0  0  0  0  0  0  0  0  0  0  0  0
    0.5824    1.0589   -1.2941 O   0  0  0  0  0  0  0  0  0  0  0  0
   -0.5912    0.9368   -0.5300 C   0  0  2  0  0  0  0  0  0  0  0  0
   -0.8778    2.1916    0.0307 O   0  0  0  0  0  0  0  0  0  0  0  0
   -1.1137   -1.5112    1.6646 H   0  0  0  0  0  0  0  0  0  0  0  0
   -1.8237   -1.3840    0.1374 H   0  0  0  0  0  0  0  0  0  0  0  0
    0.1746    0.3792    1.4405 H   0  0  0  0  0  0  0  0  0  0  0  0
    1.4951   -1.3704    0.6064 H   0  0  0  0  0  0  0  0  0  0  0  0
    0.3751   -1.6599   -0.7752 H   0  0  0  0  0  0  0  0  0  0  0  0
   -1.4244    0.5650   -1.1462 H   0  0  0  0  0  0  0  0  0  0  0  0
   -0.2053    2.3722    0.7130 H   0  0  0  0  0  0  0  0  0  0  0  0
  1  2  1  0
  2  3  1  0
  3  4  1  0
  4  5  2  0
  4  6  1  0
  6  7  1  0
  7  8  1  0
  7  2  1  0
  1  9  1  0
  1 10  1  0
  2 11  1  1
  3 12  1  0
  3 13  1  0
  7 14  1  6
  8 15  1  0
M  END
$$$$

     RDKit          3D

 15 15  0  0  0  0  0  0  0  0999 V2000
   -0.6370   -1.1786    1.2406 N   0  0  0  0  0  0  0  0  0  0  0  0
   -0.4495   -0.3715    0.0683 C   0  0  1  0  0  0  0  0  0  0  0  0
   -0.6562    1.1142    0.3519 C   0  0  0  0  0  0  0  0  0  0  0  0
    0.0556    1.6915   -0.8290 C   0  0  0  0  0  0  0  0  0  0  0  0
   -0.2156    2.8137   -1.3209 O   0  0  0  0  0  0  0  0  0  0  0  0
    1.0182    0.7707   -1.2317 O   0  0  0  0  0  0  0  0  0  0  0  0
    1.0261   -0.3381   -0.3429 C   0  0  2  0  0  0  0  0  0  0  0  0
    1.4050   -1.5122   -0.9380 O   0  0  0  0  0  0  0  0  0  0  0  0
   -1.4830   -0.9197    1.7773 H   0  0  0  0  0  0  0  0  0  0  0  0
   -0.7641   -2.1749    0.9013 H   0  0  0  0  0  0  0  0  0  0  0  0
   -1.0653   -0.6422   -0.7867 H   0  0  0  0  0  0  0  0  0  0  0  0
   -1.7042    1.3976    0.4057 H   0  0  0  0  0  0  0  0  0  0  0  0
   -0.0749    1.4293    1.2485 H   0  0  0  0  0  0  0  0  0  0  0  0
    1.5974   -0.0575    0.5508 H   0  0  0  0  0  0  0  0  0  0  0  0
    1.9477   -2.0221   -0.2646 H   0  0  0  0  0  0  0  0  0  0  0  0
  1  2  1  0
  2  3  1  0
  3  4  1  0
  4  5  2  0
  4  6  1  0
  6  7  1  0
  7  8  1  0
  7  2  1  0
  1  9  1  0
  1 10  1  0
  2 11  1  6
  3 12  1  0
  3 13  1  0
  7 14  1  1
  8 15  1  0
M  END
$$$$

     RDKit          3D

 15 15  0  0  0  0  0  0  0  0999 V2000
   -1.0579   -1.4414    0.5648 N   0  0  0  0  0  0  0  0  0  0  0  0
   -0.4836   -0.3577   -0.1682 C   0  0  1  0  0  0  0  0  0  0  0  0
   -0.6636    0.9846    0.5179 C   0  0  0  0  0  0  0  0  0  0  0  0
    0.3279    1.7833   -0.2372 C   0  0  0  0  0  0  0  0  0  0  0  0
    0.2364    3.0086   -0.4562 O   0  0  0  0  0  0  0  0  0  0  0  0
    1.3332    0.9200   -0.6310 O   0  0  0  0  0  0  0  0  0  0  0  0
    1.0471   -0.4054   -0.1811 C   0  0  2  0  0  0  0  0  0  0  0  0
    1.4984   -1.3651   -1.0526 O   0  0  0  0  0  0  0  0  0  0  0  0
   -1.8605   -1.0978    1.1630 H   0  0  0  0  0  0  0  0  0  0  0  0
   -1.4925   -2.0984   -0.1500 H   0  0  0  0  0  0  0  0  0  0  0  0
   -0.8035   -0.2821   -1.2147 H   0  0  0  0  0  0  0  0  0  0  0  0
   -1.6823    1.3643    0.4562 H   0  0  0  0  0  0  0  0  0  0  0  0
   -0.2782    0.8640    1.5478 H   0  0  0  0  0  0  0  0  0  0  0  0
    1.3945   -0.5029    0.8492 H   0  0  0  0  0  0  0  0  0  0  0  0
    2.4845   -1.3740   -1.0079 H   0  0  0  0  0  0  0  0  0  0  0  0
  1  2  1  0
  2  3  1  0
  3  4  1  0
  4  5  2  0
  4  6  1  0
  6  7  1  0
  7  8  1  0
  7  2  1  0
  1  9  1  0
  1 10  1  0
  2 11  1  6
  3 12  1  0
  3 13  1  0
  7 14  1  1
  8 15  1  0
M  END
$$$$

     RDKit          3D

 15 15  0  0  0  0  0  0  0  0999 V2000
    1.7148   -0.4326    0.4215 N   0  0  0  0  0  0  0  0  0  0  0  0
    0.5706    0.0037   -0.3279 C   0  0  1  0  0  0  0  0  0  0  0  0
   -0.5424   -1.0132   -0.3685 C   0  0  0  0  0  0  0  0  0  0  0  0
   -1.4832   -0.5856    0.6682 C   0  0  0  0  0  0  0  0  0  0  0  0
   -2.3090   -1.3058    1.2743 O   0  0  0  0  0  0  0  0  0  0  0  0
   -1.3038    0.7633    0.8673 O   0  0  0  0  0  0  0  0  0  0  0  0
   -0.0447    1.1802    0.3650 C   0  0  2  0  0  0  0  0  0  0  0  0
   -0.2541    2.2626   -0.5110 O   0  0  0  0  0  0  0  0  0  0  0  0
    1.7033   -1.4610    0.5907 H   0  0  0  0  0  0  0  0  0  0  0  0
    2.5845   -0.1704   -0.1143 H   0  0  0  0  0  0  0  0  0  0  0  0
    0.8557    0.3008   -1.3471 H   0  0  0  0  0  0  0  0  0  0  0  0
   -1.0154   -0.9724   -1.3472 H   0  0  0  0  0  0  0  0  0  0  0  0
   -0.2040   -2.0447   -0.1795 H   0  0  0  0  0  0  0  0  0  0  0  0
    0.5603    1.5406    1.2331 H   0  0  0  0  0  0  0  0  0  0  0  0
   -0.8325    1.9345   -1.2247 H   0  0  0  0  0  0  0  0  0  0  0  0
  1  2  1  0
  2  3  1  0
  3  4  1  0
  4  5  2  0
  4  6  1  0
  6  7  1  0
  7  8  1  0
  7  2  1  0
  1  9  1  0
  1 10  1  0
  2 11  1  6
  3 12  1  0
  3 13  1  0
  7 14  1  1
  8 15  1  0
M  END
$$$$

     RDKit          3D

 15 15  0  0  0  0  0  0  0  0999 V2000
    0.3416    1.7489    0.5898 N   0  0  0  0  0  0  0  0  0  0  0  0
    0.1740    0.3318    0.4742 C   0  0  1  0  0  0  0  0  0  0  0  0
   -1.2594   -0.0460    0.0988 C   0  0  0  0  0  0  0  0  0  0  0  0
   -1.0180   -1.4539   -0.3836 C   0  0  0  0  0  0  0  0  0  0  0  0
   -1.6895   -2.4818   -0.1100 O   0  0  0  0  0  0  0  0  0  0  0  0
    0.1131   -1.3254   -1.1907 O   0  0  0  0  0  0  0  0  0  0  0  0
    0.9283   -0.2627   -0.6971 C   0  0  2  0  0  0  0  0  0  0  0  0
    2.1353   -0.8171   -0.3295 O   0  0  0  0  0  0  0  0  0  0  0  0
   -0.5028    2.1308    1.0841 H   0  0  0  0  0  0  0  0  0  0  0  0
    0.4603    2.2386   -0.3273 H   0  0  0  0  0  0  0  0  0  0  0  0
    0.4549   -0.1430    1.4339 H   0  0  0  0  0  0  0  0  0  0  0  0
   -1.9319   -0.0101    0.9519 H   0  0  0  0  0  0  0  0  0  0  0  0
   -1.5549    0.5685   -0.7579 H   0  0  0  0  0  0  0  0  0  0  0  0
    1.1295    0.4909   -1.4815 H   0  0  0  0  0  0  0  0  0  0  0  0
    2.2195   -0.9695    0.6451 H   0  0  0  0  0  0  0  0  0  0  0  0
  1  2  1  0
  2  3  1  0
  3  4  1  0
  4  5  2  0
  4  6  1  0
  6  7  1  0
  7  8  1  0
  7  2  1  0
  1  9  1  0
  1 10  1  0
  2 11  1  1
  3 12  1  0
  3 13  1  0
  7 14  1  6
  8 15  1  0
M  END
$$$$

     RDKit          3D

 15 15  0  0  0  0  0  0  0  0999 V2000
   -1.2000   -1.2054   -0.4235 N   0  0  0  0  0  0  0  0  0  0  0  0
   -0.5564   -0.1490    0.3304 C   0  0  1  0  0  0  0  0  0  0  0  0
    0.8675   -0.4745    0.6941 C   0  0  0  0  0  0  0  0  0  0  0  0
    1.5753   -0.2404   -0.5905 C   0  0  0  0  0  0  0  0  0  0  0  0
    2.6861   -0.7549   -0.8882 O   0  0  0  0  0  0  0  0  0  0  0  0
    0.8187    0.6153   -1.3720 O   0  0  0  0  0  0  0  0  0  0  0  0
   -0.3464    1.0061   -0.6572 C   0  0  2  0  0  0  0  0  0  0  0  0
   -0.1669    2.2128    0.0155 O   0  0  0  0  0  0  0  0  0  0  0  0
   -2.2153   -0.9918   -0.4713 H   0  0  0  0  0  0  0  0  0  0  0  0
   -0.9959   -2.1328   -0.0442 H   0  0  0  0  0  0  0  0  0  0  0  0
   -1.1447    0.1802    1.2064 H   0  0  0  0  0  0  0  0  0  0  0  0
    1.2183    0.2927    1.3996 H   0  0  0  0  0  0  0  0  0  0  0  0
    1.0090   -1.4760    1.0928 H   0  0  0  0  0  0  0  0  0  0  0  0
   -1.2369    1.0752   -1.2834 H   0  0  0  0  0  0  0  0  0  0  0  0
   -0.3124    2.0424    0.9917 H   0  0  0  0  0  0  0  0  0  0  0  0
  1  2  1  0
  2  3  1  0
  3  4  1  0
  4  5  2  0
  4  6  1  0
  6  7  1  0
  7  8  1  0
  7  2  1  0
  1  9  1  0
  1 10  1  0
  2 11  1  1
  3 12  1  0
  3 13  1  0
  7 14  1  6
  8 15  1  0
M  END
$$$$
