
     RDKit          3D

 21 20  0  0  0  0  0  0  0  0999 V2000
   -0.9262   -1.3392   -0.1821 C   0  0  0  0  0  0  0  0  0  0  0  0
   -0.5641   -0.0518    0.4912 C   0  0  2  0  0  0  0  0  0  0  0  0
   -1.2412    0.0259    1.7258 O   0  0  0  0  0  0  0  0  0  0  0  0
   -1.0294    1.1517   -0.3377 C   0  0  0  0  0  0  0  0  0  0  0  0
   -2.4191    1.0101   -0.4721 O   0  0  0  0  0  0  0  0  0  0  0  0
    0.9021    0.1009    0.7354 C   0  0  1  0  0  0  0  0  0  0  0  0
    1.2971   -0.9481    1.5965 O   0  0  0  0  0  0  0  0  0  0  0  0
    1.6815   -0.0355   -0.5573 C   0  0  0  0  0  0  0  0  0  0  0  0
    3.0681    0.0468   -0.2925 O   0  0  0  0  0  0  0  0  0  0  0  0
   -0.3311   -2.1673    0.2333 H   0  0  0  0  0  0  0  0  0  0  0  0
   -0.7800   -1.2721   -1.2813 H   0  0  0  0  0  0  0  0  0  0  0  0
   -2.0268   -1.5123   -0.0275 H   0  0  0  0  0  0  0  0  0  0  0  0
   -2.1937   -0.1422    1.5194 H   0  0  0  0  0  0  0  0  0  0  0  0
   -0.5513    1.1679   -1.3349 H   0  0  0  0  0  0  0  0  0  0  0  0
   -0.8514    2.0724    0.2448 H   0  0  0  0  0  0  0  0  0  0  0  0
   -2.9011    1.8142   -0.2205 H   0  0  0  0  0  0  0  0  0  0  0  0
    1.1140    1.0526    1.2216 H   0  0  0  0  0  0  0  0  0  0  0  0
    1.4788   -1.7680    1.0852 H   0  0  0  0  0  0  0  0  0  0  0  0
    1.4824   -0.9974   -1.0392 H   0  0  0  0  0  0  0  0  0  0  0  0
    1.4378    0.7846   -1.2424 H   0  0  0  0  0  0  0  0  0  0  0  0
    3.3535    1.0069   -0.3127 H   0  0  0  0  0  0  0  0  0  0  0  0
  1  2  1  0
  2  3  1  1
  2  4  1  0
  4  5  1  0
  2  6  1  0
  6  7  1  0
  6  8  1  0
  8  9  1  0
  1 10  1  0
  1 11  1  0
  1 12  1  0
  3 13  1  0
  4 14  1  0
  4 15  1  0
  5 16  1  0
  6 17  1  1
  7 18  1  0
  8 19  1  0
  8 20  1  0
  9 21  1  0
M  END
$$$$

     RDKit          3D

 21 20  0  0  0  0  0  0  0  0999 V2000
   -0.5831   -1.2245    1.1991 C   0  0  0  0  0  0  0  0  0  0  0  0
   -0.5575   -0.0411    0.2823 C   0  0  2  0  0  0  0  0  0  0  0  0
   -0.7768    1.0969    1.0349 O   0  0  0  0  0  0  0  0  0  0  0  0
   -1.7987   -0.2036   -0.6165 C   0  0  0  0  0  0  0  0  0  0  0  0
   -1.9741    0.8807   -1.4393 O   0  0  0  0  0  0  0  0  0  0  0  0
    0.5964    0.0371   -0.6348 C   0  0  1  0  0  0  0  0  0  0  0  0
    0.3683    1.0966   -1.5216 O   0  0  0  0  0  0  0  0  0  0  0  0
    1.9361    0.2467   -0.0323 C   0  0  0  0  0  0  0  0  0  0  0  0
    2.3316   -0.7106    0.8755 O   0  0  0  0  0  0  0  0  0  0  0  0
   -0.6766   -2.1935    0.6607 H   0  0  0  0  0  0  0  0  0  0  0  0
    0.2380   -1.2394    1.9396 H   0  0  0  0  0  0  0  0  0  0  0  0
   -1.5214   -1.1352    1.8042 H   0  0  0  0  0  0  0  0  0  0  0  0
   -0.1536    1.8319    0.8514 H   0  0  0  0  0  0  0  0  0  0  0  0
   -2.6957   -0.4077   -0.0309 H   0  0  0  0  0  0  0  0  0  0  0  0
   -1.6510   -1.1022   -1.2837 H   0  0  0  0  0  0  0  0  0  0  0  0
   -2.3257    1.6796   -0.9723 H   0  0  0  0  0  0  0  0  0  0  0  0
    0.6219   -0.8808   -1.2551 H   0  0  0  0  0  0  0  0  0  0  0  0
    0.7819    1.9155   -1.0986 H   0  0  0  0  0  0  0  0  0  0  0  0
    2.6835    0.2502   -0.8542 H   0  0  0  0  0  0  0  0  0  0  0  0
    1.9909    1.2639    0.4295 H   0  0  0  0  0  0  0  0  0  0  0  0
    3.1657   -1.1602    0.6622 H   0  0  0  0  0  0  0  0  0  0  0  0
  1  2  1  0
  2  3  1  1
  2  4  1  0
  4  5  1  0
  2  6  1  0
  6  7  1  0
  6  8  1  0
  8  9  1  0
  1 10  1  0
  1 11  1  0
  1 12  1  0
  3 13  1  0
  4 14  1  0
  4 15  1  0
  5 16  1  0
  6 17  1  6
  7 18  1  0
  8 19  1  0
  8 20  1  0
  9 21  1  0
M  END
$$$$

     RDKit          3D

 21 20  0  0  0  0  0  0  0  0999 V2000
   -0.6025   -0.4276   -1.5814 C   0  0  0  0  0  0  0  0  0  0  0  0
   -0.6162   -0.2462   -0.1070 C   0  0  2  0  0  0  0  0  0  0  0  0
   -1.5635   -1.1528    0.4283 O   0  0  0  0  0  0  0  0  0  0  0  0
   -1.1391    1.1298    0.2437 C   0  0  0  0  0  0  0  0  0  0  0  0
   -1.2404    1.2667    1.6305 O   0  0  0  0  0  0  0  0  0  0  0  0
    0.6822   -0.5561    0.5732 C   0  0  1  0  0  0  0  0  0  0  0  0
    1.0423   -1.8825    0.3072 O   0  0  0  0  0  0  0  0  0  0  0  0
    1.8192    0.3173    0.1919 C   0  0  0  0  0  0  0  0  0  0  0  0
    1.6347    1.6610    0.3906 O   0  0  0  0  0  0  0  0  0  0  0  0
    0.0779   -1.2231   -1.9450 H   0  0  0  0  0  0  0  0  0  0  0  0
   -0.4176    0.5552   -2.0774 H   0  0  0  0  0  0  0  0  0  0  0  0
   -1.6318   -0.7295   -1.8995 H   0  0  0  0  0  0  0  0  0  0  0  0
   -1.4556   -1.9890   -0.0769 H   0  0  0  0  0  0  0  0  0  0  0  0
   -0.5922    1.9491   -0.2384 H   0  0  0  0  0  0  0  0  0  0  0  0
   -2.1987    1.1735   -0.1292 H   0  0  0  0  0  0  0  0  0  0  0  0
   -2.0570    0.8381    1.9765 H   0  0  0  0  0  0  0  0  0  0  0  0
    0.5256   -0.4800    1.6679 H   0  0  0  0  0  0  0  0  0  0  0  0
    0.6302   -2.5115    0.9647 H   0  0  0  0  0  0  0  0  0  0  0  0
    2.1270    0.1589   -0.8830 H   0  0  0  0  0  0  0  0  0  0  0  0
    2.7043    0.0056    0.7843 H   0  0  0  0  0  0  0  0  0  0  0  0
    2.2714    2.1431   -0.2208 H   0  0  0  0  0  0  0  0  0  0  0  0
  1  2  1  0
  2  3  1  1
  2  4  1  0
  4  5  1  0
  2  6  1  0
  6  7  1  0
  6  8  1  0
  8  9  1  0
  1 10  1  0
  1 11  1  0
  1 12  1  0
  3 13  1  0
  4 14  1  0
  4 15  1  0
  5 16  1  0
  6 17  1  1
  7 18  1  0
  8 19  1  0
  8 20  1  0
  9 21  1  0
M  END
$$$$

     RDKit          3D

 21 20  0  0  0  0  0  0  0  0999 V2000
   -0.6340   -1.2676   -0.9825 C   0  0  0  0  0  0  0  0  0  0  0  0
   -0.6046   -0.3560    0.1898 C   0  0  2  0  0  0  0  0  0  0  0  0
   -1.4163   -0.9551    1.1858 O   0  0  0  0  0  0  0  0  0  0  0  0
   -1.2533    0.9928   -0.0949 C   0  0  0  0  0  0  0  0  0  0  0  0
   -2.5622    0.8204   -0.5493 O   0  0  0  0  0  0  0  0  0  0  0  0
    0.7307   -0.1454    0.8069 C   0  0  1  0  0  0  0  0  0  0  0  0
    1.2710   -1.3486    1.2096 O   0  0  0  0  0  0  0  0  0  0  0  0
    1.6939    0.6478   -0.0153 C   0  0  0  0  0  0  0  0  0  0  0  0
    2.1150    0.0393   -1.1666 O   0  0  0  0  0  0  0  0  0  0  0  0
   -1.5346   -1.0243   -1.6185 H   0  0  0  0  0  0  0  0  0  0  0  0
    0.2233   -1.2429   -1.6442 H   0  0  0  0  0  0  0  0  0  0  0  0
   -0.7334   -2.3333   -0.6257 H   0  0  0  0  0  0  0  0  0  0  0  0
   -1.9066   -0.2922    1.6991 H   0  0  0  0  0  0  0  0  0  0  0  0
   -0.6754    1.5918   -0.8198 H   0  0  0  0  0  0  0  0  0  0  0  0
   -1.3110    1.5275    0.8732 H   0  0  0  0  0  0  0  0  0  0  0  0
   -2.7775    1.5371   -1.2235 H   0  0  0  0  0  0  0  0  0  0  0  0
    0.5579    0.4536    1.7506 H   0  0  0  0  0  0  0  0  0  0  0  0
    1.8525   -1.2141    1.9947 H   0  0  0  0  0  0  0  0  0  0  0  0
    1.2898    1.6492   -0.2462 H   0  0  0  0  0  0  0  0  0  0  0  0
    2.6008    0.8202    0.6214 H   0  0  0  0  0  0  0  0  0  0  0  0
    3.0741    0.0999   -1.3444 H   0  0  0  0  0  0  0  0  0  0  0  0
  1  2  1  0
  2  3  1  1
  2  4  1  0
  4  5  1  0
  2  6  1  0
  6  7  1  0
  6  8  1  0
  8  9  1  0
  1 10  1  0
  1 11  1  0
  1 12  1  0
  3 13  1  0
  4 14  1  0
  4 15  1  0
  5 16  1  0
  6 17  1  1
  7 18  1  0
  8 19  1  0
  8 20  1  0
  9 21  1  0
M  END
$$$$

     RDKit          3D

 21 20  0  0  0  0  0  0  0  0999 V2000
   -1.0661   -1.3179   -0.7368 C   0  0  0  0  0  0  0  0  0  0  0  0
   -0.6969   -0.1943    0.1691 C   0  0  2  0  0  0  0  0  0  0  0  0
   -0.9156   -0.5897    1.4836 O   0  0  0  0  0  0  0  0  0  0  0  0
   -1.6136    0.9785   -0.1385 C   0  0  0  0  0  0  0  0  0  0  0  0
   -1.4162    1.4006   -1.4594 O   0  0  0  0  0  0  0  0  0  0  0  0
    0.7128    0.2841    0.0222 C   0  0  1  0  0  0  0  0  0  0  0  0
    0.8843    1.3619    0.8900 O   0  0  0  0  0  0  0  0  0  0  0  0
    1.7315   -0.7991    0.2575 C   0  0  0  0  0  0  0  0  0  0  0  0
    3.0005   -0.2668    0.0581 O   0  0  0  0  0  0  0  0  0  0  0  0
   -0.3627   -2.1608   -0.7361 H   0  0  0  0  0  0  0  0  0  0  0  0
   -2.0423   -1.7391   -0.3551 H   0  0  0  0  0  0  0  0  0  0  0  0
   -1.3126   -0.9573   -1.7681 H   0  0  0  0  0  0  0  0  0  0  0  0
   -1.1083    0.1716    2.0628 H   0  0  0  0  0  0  0  0  0  0  0  0
   -1.3899    1.8190    0.5211 H   0  0  0  0  0  0  0  0  0  0  0  0
   -2.6860    0.6969   -0.0284 H   0  0  0  0  0  0  0  0  0  0  0  0
   -0.8118    2.1794   -1.4998 H   0  0  0  0  0  0  0  0  0  0  0  0
    0.8974    0.6832   -1.0029 H   0  0  0  0  0  0  0  0  0  0  0  0
    1.5836    1.1956    1.5671 H   0  0  0  0  0  0  0  0  0  0  0  0
    1.5807   -1.5622   -0.5427 H   0  0  0  0  0  0  0  0  0  0  0  0
    1.5954   -1.2148    1.2753 H   0  0  0  0  0  0  0  0  0  0  0  0
    3.4358    0.0311    0.8759 H   0  0  0  0  0  0  0  0  0  0  0  0
  1  2  1  0
  2  3  1  1
  2  4  1  0
  4  5  1  0
  2  6  1  0
  6  7  1  0
  6  8  1  0
  8  9  1  0
  1 10  1  0
  1 11  1  0
  1 12  1  0
  3 13  1  0
  4 14  1  0
  4 15  1  0
  5 16  1  0
  6 17  1  6
  7 18  1  0
  8 19  1  0
  8 20  1  0
  9 21  1  0
M  END
$$$$

     RDKit          3D

 21 20  0  0  0  0  0  0  0  0999 V2000
   -1.1374   -1.1403    0.0150 C   0  0  0  0  0  0  0  0  0  0  0  0
   -0.4306    0.1180    0.4791 C   0  0  2  0  0  0  0  0  0  0  0  0
   -0.9422    0.5177    1.7381 O   0  0  0  0  0  0  0  0  0  0  0  0
   -0.7829    1.2085   -0.4780 C   0  0  0  0  0  0  0  0  0  0  0  0
   -2.1982    1.2890   -0.4580 O   0  0  0  0  0  0  0  0  0  0  0  0
    1.0308   -0.1086    0.6733 C   0  0  1  0  0  0  0  0  0  0  0  0
    1.1663   -1.1156    1.6433 O   0  0  0  0  0  0  0  0  0  0  0  0
    1.7698   -0.5438   -0.5451 C   0  0  0  0  0  0  0  0  0  0  0  0
    1.7075    0.3824   -1.5812 O   0  0  0  0  0  0  0  0  0  0  0  0
   -1.1493   -1.2242   -1.0914 H   0  0  0  0  0  0  0  0  0  0  0  0
   -0.6581   -2.0600    0.4043 H   0  0  0  0  0  0  0  0  0  0  0  0
   -2.2026   -1.0466    0.3545 H   0  0  0  0  0  0  0  0  0  0  0  0
   -1.9082    0.6395    1.7158 H   0  0  0  0  0  0  0  0  0  0  0  0
   -0.3607    2.1882   -0.1961 H   0  0  0  0  0  0  0  0  0  0  0  0
   -0.5577    0.9394   -1.5455 H   0  0  0  0  0  0  0  0  0  0  0  0
   -2.5102    2.0738   -0.9559 H   0  0  0  0  0  0  0  0  0  0  0  0
    1.5445    0.7816    1.0861 H   0  0  0  0  0  0  0  0  0  0  0  0
    1.3527   -1.9956    1.2539 H   0  0  0  0  0  0  0  0  0  0  0  0
    2.8444   -0.6766   -0.3053 H   0  0  0  0  0  0  0  0  0  0  0  0
    1.4267   -1.5100   -0.9636 H   0  0  0  0  0  0  0  0  0  0  0  0
    1.9954    1.2830   -1.2435 H   0  0  0  0  0  0  0  0  0  0  0  0
  1  2  1  0
  2  3  1  1
  2  4  1  0
  4  5  1  0
  2  6  1  0
  6  7  1  0
  6  8  1  0
  8  9  1  0
  1 10  1  0
  1 11  1  0
  1 12  1  0
  3 13  1  0
  4 14  1  0
  4 15  1  0
  5 16  1  0
  6 17  1  1
  7 18  1  0
  8 19  1  0
  8 20  1  0
  9 21  1  0
M  END
$$$$

     RDKit          3D

 21 20  0  0  0  0  0  0  0  0999 V2000
   -1.5297   -0.3544    1.2130 C   0  0  0  0  0  0  0  0  0  0  0  0
   -0.6111    0.1520    0.1427 C   0  0  2  0  0  0  0  0  0  0  0  0
   -0.5101    1.5504    0.3257 O   0  0  0  0  0  0  0  0  0  0  0  0
   -1.1481   -0.0612   -1.2432 C   0  0  0  0  0  0  0  0  0  0  0  0
   -2.4008    0.5670   -1.3023 O   0  0  0  0  0  0  0  0  0  0  0  0
    0.7606   -0.4090    0.3465 C   0  0  1  0  0  0  0  0  0  0  0  0
    0.8213   -1.7804    0.1986 O   0  0  0  0  0  0  0  0  0  0  0  0
    1.7698    0.2434   -0.5926 C   0  0  0  0  0  0  0  0  0  0  0  0
    3.0466   -0.1955   -0.2886 O   0  0  0  0  0  0  0  0  0  0  0  0
   -2.5781   -0.4123    0.8482 H   0  0  0  0  0  0  0  0  0  0  0  0
   -1.4368    0.2834    2.1135 H   0  0  0  0  0  0  0  0  0  0  0  0
   -1.1579   -1.3691    1.5065 H   0  0  0  0  0  0  0  0  0  0  0  0
   -0.2737    1.7755    1.2428 H   0  0  0  0  0  0  0  0  0  0  0  0
   -0.4931    0.5160   -1.9480 H   0  0  0  0  0  0  0  0  0  0  0  0
   -1.1726   -1.1034   -1.5672 H   0  0  0  0  0  0  0  0  0  0  0  0
   -2.3246    1.5362   -1.4750 H   0  0  0  0  0  0  0  0  0  0  0  0
    1.0841   -0.1550    1.3705 H   0  0  0  0  0  0  0  0  0  0  0  0
    1.6781   -2.0804    0.6294 H   0  0  0  0  0  0  0  0  0  0  0  0
    1.7264    1.3354   -0.5507 H   0  0  0  0  0  0  0  0  0  0  0  0
    1.5318   -0.0878   -1.6338 H   0  0  0  0  0  0  0  0  0  0  0  0
    3.2178    0.0494    0.6641 H   0  0  0  0  0  0  0  0  0  0  0  0
  1  2  1  0
  2  3  1  1
  2  4  1  0
  4  5  1  0
  2  6  1  0
  6  7  1  0
  6  8  1  0
  8  9  1  0
  1 10  1  0
  1 11  1  0
  1 12  1  0
  3 13  1  0
  4 14  1  0
  4 15  1  0
  5 16  1  0
  6 17  1  1
  7 18  1  0
  8 19  1  0
  8 20  1  0
  9 21  1  0
M  END
$$$$

     RDKit          3D

 21 20  0  0  0  0  0  0  0  0999 V2000
   -1.0326   -0.6266   -1.1674 C   0  0  0  0  0  0  0  0  0  0  0  0
   -0.5909   -0.3098    0.2113 C   0  0  2  0  0  0  0  0  0  0  0  0
   -0.4559   -1.5007    0.9233 O   0  0  0  0  0  0  0  0  0  0  0  0
   -1.6691    0.5100    0.9043 C   0  0  0  0  0  0  0  0  0  0  0  0
   -1.8777    1.7264    0.2620 O   0  0  0  0  0  0  0  0  0  0  0  0
    0.6885    0.4588    0.3096 C   0  0  1  0  0  0  0  0  0  0  0  0
    0.9499    0.7305    1.6525 O   0  0  0  0  0  0  0  0  0  0  0  0
    1.8805   -0.2722   -0.2426 C   0  0  0  0  0  0  0  0  0  0  0  0
    2.9833    0.5819   -0.0897 O   0  0  0  0  0  0  0  0  0  0  0  0
   -1.6429    0.2234   -1.5834 H   0  0  0  0  0  0  0  0  0  0  0  0
   -0.2153   -0.8906   -1.8648 H   0  0  0  0  0  0  0  0  0  0  0  0
   -1.7227   -1.5025   -1.1612 H   0  0  0  0  0  0  0  0  0  0  0  0
   -0.6073   -2.2921    0.3408 H   0  0  0  0  0  0  0  0  0  0  0  0
   -2.6438   -0.0358    0.9014 H   0  0  0  0  0  0  0  0  0  0  0  0
   -1.4128    0.7081    1.9699 H   0  0  0  0  0  0  0  0  0  0  0  0
   -2.2564    2.3402    0.9374 H   0  0  0  0  0  0  0  0  0  0  0  0
    0.6412    1.4407   -0.2050 H   0  0  0  0  0  0  0  0  0  0  0  0
    1.4476   -0.0651    1.9960 H   0  0  0  0  0  0  0  0  0  0  0  0
    2.0903   -1.1649    0.3553 H   0  0  0  0  0  0  0  0  0  0  0  0
    1.8061   -0.4809   -1.3292 H   0  0  0  0  0  0  0  0  0  0  0  0
    3.6400    0.4211   -0.8132 H   0  0  0  0  0  0  0  0  0  0  0  0
  1  2  1  0
  2  3  1  1
  2  4  1  0
  4  5  1  0
  2  6  1  0
  6  7  1  0
  6  8  1  0
  8  9  1  0
  1 10  1  0
  1 11  1  0
  1 12  1  0
  3 13  1  0
  4 14  1  0
  4 15  1  0
  5 16  1  0
  6 17  1  6
  7 18  1  0
  8 19  1  0
  8 20  1  0
  9 21  1  0
M  END
$$$$
