
     RDKit          3D

 27 27  0  0  0  0  0  0  0  0999 V2000
    3.9643    0.5542   -0.1533 O   0  0  0  0  0  0  0  0  0  0  0  0
    2.9063   -0.2830    0.2686 C   0  0  0  0  0  0  0  0  0  0  0  0
    1.7026    0.5964    0.4283 C   0  0  0  0  0  0  0  0  0  0  0  0
    0.4792   -0.1400    0.8758 C   0  0  1  0  0  0  0  0  0  0  0  0
   -0.5576    0.8038    0.9807 O   0  0  0  0  0  0  0  0  0  0  0  0
   -1.1268    1.1012   -0.2399 C   0  0  2  0  0  0  0  0  0  0  0  0
   -1.8424    2.2861   -0.1332 O   0  0  0  0  0  0  0  0  0  0  0  0
   -2.0297   -0.0515   -0.6895 C   0  0  2  0  0  0  0  0  0  0  0  0
   -3.3227    0.2702   -0.2849 O   0  0  0  0  0  0  0  0  0  0  0  0
   -1.5022   -1.2880    0.0113 C   0  0  2  0  0  0  0  0  0  0  0  0
   -1.8057   -1.1250    1.3734 O   0  0  0  0  0  0  0  0  0  0  0  0
    0.0275   -1.1985   -0.0809 C   0  0  1  0  0  0  0  0  0  0  0  0
    0.3916   -0.9359   -1.3943 O   0  0  0  0  0  0  0  0  0  0  0  0
    3.7478    1.5078   -0.0241 H   0  0  0  0  0  0  0  0  0  0  0  0
    2.7784   -1.0768   -0.4742 H   0  0  0  0  0  0  0  0  0  0  0  0
    3.2629   -0.7107    1.2443 H   0  0  0  0  0  0  0  0  0  0  0  0
    1.9445    1.3475    1.2117 H   0  0  0  0  0  0  0  0  0  0  0  0
    1.5732    1.1631   -0.5112 H   0  0  0  0  0  0  0  0  0  0  0  0
    0.6764   -0.5901    1.8500 H   0  0  0  0  0  0  0  0  0  0  0  0
   -0.3909    1.2410   -1.0556 H   0  0  0  0  0  0  0  0  0  0  0  0
   -1.1467    3.0165   -0.0956 H   0  0  0  0  0  0  0  0  0  0  0  0
   -2.0069   -0.1954   -1.7750 H   0  0  0  0  0  0  0  0  0  0  0  0
   -3.5744    1.0870   -0.7709 H   0  0  0  0  0  0  0  0  0  0  0  0
   -1.8900   -2.2163   -0.4046 H   0  0  0  0  0  0  0  0  0  0  0  0
   -2.7487   -1.2436    1.5699 H   0  0  0  0  0  0  0  0  0  0  0  0
    0.3897   -2.2160    0.2093 H   0  0  0  0  0  0  0  0  0  0  0  0
    0.1002   -1.7039   -1.9361 H   0  0  0  0  0  0  0  0  0  0  0  0
  1  2  1  0
  2  3  1  0
  3  4  1  0
  4  5  1  0
  5  6  1  0
  6  7  1  0
  6  8  1  0
  8  9  1  0
  8 10  1  0
 10 11  1  0
 10 12  1  0
 12 13  1  0
 12  4  1  0
  1 14  1  0
  2 15  1  0
  2 16  1  0
  3 17  1  0
  3 18  1  0
  4 19  1  1
  6 20  1  6
  7 21  1  0
  8 22  1  6
  9 23  1  0
 10 24  1  6
 11 25  1  0
 12 26  1  1
 13 27  1  0
M  END
$$$$

     RDKit          3D

 27 27  0  0  0  0  0  0  0  0999 V2000
    3.1730    1.0784   -0.6508 O   0  0  0  0  0  0  0  0  0  0  0  0
    3.1146    0.0080    0.2027 C   0  0  0  0  0  0  0  0  0  0  0  0
    1.8833   -0.8347    0.0357 C   0  0  0  0  0  0  0  0  0  0  0  0
    0.6084   -0.1077    0.2640 C   0  0  1  0  0  0  0  0  0  0  0  0
    0.4315    0.9646   -0.6056 O   0  0  0  0  0  0  0  0  0  0  0  0
   -0.7777    1.5768   -0.4082 C   0  0  2  0  0  0  0  0  0  0  0  0
   -0.8191    2.2265    0.8450 O   0  0  0  0  0  0  0  0  0  0  0  0
   -1.9693    0.6995   -0.5917 C   0  0  2  0  0  0  0  0  0  0  0  0
   -2.7041    0.6325    0.6064 O   0  0  0  0  0  0  0  0  0  0  0  0
   -1.5295   -0.7191   -0.8986 C   0  0  2  0  0  0  0  0  0  0  0  0
   -2.6304   -1.5590   -0.7678 O   0  0  0  0  0  0  0  0  0  0  0  0
   -0.5295   -1.1096    0.1648 C   0  0  1  0  0  0  0  0  0  0  0  0
   -0.0509   -2.3876   -0.1439 O   0  0  0  0  0  0  0  0  0  0  0  0
    3.4844    1.9036   -0.1598 H   0  0  0  0  0  0  0  0  0  0  0  0
    3.1633    0.3900    1.2598 H   0  0  0  0  0  0  0  0  0  0  0  0
    4.0222   -0.6166    0.0786 H   0  0  0  0  0  0  0  0  0  0  0  0
    1.9035   -1.2779   -0.9818 H   0  0  0  0  0  0  0  0  0  0  0  0
    1.9296   -1.6877    0.7426 H   0  0  0  0  0  0  0  0  0  0  0  0
    0.5699    0.3111    1.2910 H   0  0  0  0  0  0  0  0  0  0  0  0
   -0.8539    2.4083   -1.1658 H   0  0  0  0  0  0  0  0  0  0  0  0
   -1.7194    2.5926    0.9979 H   0  0  0  0  0  0  0  0  0  0  0  0
   -2.6591    1.0108   -1.3875 H   0  0  0  0  0  0  0  0  0  0  0  0
   -3.4769    1.2736    0.5747 H   0  0  0  0  0  0  0  0  0  0  0  0
   -1.0759   -0.7429   -1.8907 H   0  0  0  0  0  0  0  0  0  0  0  0
   -2.4494   -2.3473   -0.1872 H   0  0  0  0  0  0  0  0  0  0  0  0
   -1.0928   -1.2023    1.1168 H   0  0  0  0  0  0  0  0  0  0  0  0
    0.0541   -2.4839   -1.1239 H   0  0  0  0  0  0  0  0  0  0  0  0
  1  2  1  0
  2  3  1  0
  3  4  1  0
  4  5  1  0
  5  6  1  0
  6  7  1  0
  6  8  1  0
  8  9  1  0
  8 10  1  0
 10 11  1  0
 10 12  1  0
 12 13  1  0
 12  4  1  0
  1 14  1  0
  2 15  1  0
  2 16  1  0
  3 17  1  0
  3 18  1  0
  4 19  1  1
  6 20  1  6
  7 21  1  0
  8 22  1  6
  9 23  1  0
 10 24  1  6
 11 25  1  0
 12 26  1  1
 13 27  1  0
M  END
$$$$

     RDKit          3D

 27 27  0  0  0  0  0  0  0  0999 V2000
    2.6060    1.3274   -0.8654 O   0  0  0  0  0  0  0  0  0  0  0  0
    2.9473    0.2103   -0.1076 C   0  0  0  0  0  0  0  0  0  0  0  0
    1.7806   -0.7731   -0.0168 C   0  0  0  0  0  0  0  0  0  0  0  0
    0.5741   -0.0868    0.6433 C   0  0  1  0  0  0  0  0  0  0  0  0
    0.2449    0.9556   -0.1179 O   0  0  0  0  0  0  0  0  0  0  0  0
   -0.8253    0.9552   -0.9109 C   0  0  2  0  0  0  0  0  0  0  0  0
   -1.4355    2.2282   -0.8697 O   0  0  0  0  0  0  0  0  0  0  0  0
   -1.8826   -0.0556   -0.6734 C   0  0  2  0  0  0  0  0  0  0  0  0
   -3.1180    0.4588   -1.0452 O   0  0  0  0  0  0  0  0  0  0  0  0
   -1.8482   -0.4440    0.7905 C   0  0  2  0  0  0  0  0  0  0  0  0
   -1.9084    0.7103    1.5709 O   0  0  0  0  0  0  0  0  0  0  0  0
   -0.4679   -1.0946    0.9589 C   0  0  1  0  0  0  0  0  0  0  0  0
   -0.4608   -2.2103    0.1376 O   0  0  0  0  0  0  0  0  0  0  0  0
    2.9876    2.1216   -0.3796 H   0  0  0  0  0  0  0  0  0  0  0  0
    3.2091    0.4816    0.9376 H   0  0  0  0  0  0  0  0  0  0  0  0
    3.7915   -0.3428   -0.5213 H   0  0  0  0  0  0  0  0  0  0  0  0
    2.1358   -1.6268    0.5867 H   0  0  0  0  0  0  0  0  0  0  0  0
    1.5487   -1.0611   -1.0652 H   0  0  0  0  0  0  0  0  0  0  0  0
    0.9821    0.2876    1.6296 H   0  0  0  0  0  0  0  0  0  0  0  0
   -0.4914    0.8475   -1.9858 H   0  0  0  0  0  0  0  0  0  0  0  0
   -0.9211    2.8912   -1.3941 H   0  0  0  0  0  0  0  0  0  0  0  0
   -1.6412   -0.9787   -1.2453 H   0  0  0  0  0  0  0  0  0  0  0  0
   -3.6706   -0.2560   -1.4732 H   0  0  0  0  0  0  0  0  0  0  0  0
   -2.6451   -1.1470    1.0719 H   0  0  0  0  0  0  0  0  0  0  0  0
   -1.5015    0.5656    2.4568 H   0  0  0  0  0  0  0  0  0  0  0  0
   -0.4248   -1.4429    1.9982 H   0  0  0  0  0  0  0  0  0  0  0  0
    0.4348   -2.5212   -0.1106 H   0  0  0  0  0  0  0  0  0  0  0  0
  1  2  1  0
  2  3  1  0
  3  4  1  0
  4  5  1  0
  5  6  1  0
  6  7  1  0
  6  8  1  0
  8  9  1  0
  8 10  1  0
 10 11  1  0
 10 12  1  0
 12 13  1  0
 12  4  1  0
  1 14  1  0
  2 15  1  0
  2 16  1  0
  3 17  1  0
  3 18  1  0
  4 19  1  1
  6 20  1  6
  7 21  1  0
  8 22  1  6
  9 23  1  0
 10 24  1  1
 11 25  1  0
 12 26  1  1
 13 27  1  0
M  END
$$$$

     RDKit          3D

 27 27  0  0  0  0  0  0  0  0999 V2000
    3.8601   -0.2341   -0.3158 O   0  0  0  0  0  0  0  0  0  0  0  0
    2.4688   -0.2562   -0.3331 C   0  0  0  0  0  0  0  0  0  0  0  0
    1.8775    1.0552    0.1192 C   0  0  0  0  0  0  0  0  0  0  0  0
    0.3670    1.0395    0.0980 C   0  0  1  0  0  0  0  0  0  0  0  0
   -0.0245    0.7831   -1.2059 O   0  0  0  0  0  0  0  0  0  0  0  0
   -1.3639    0.6052   -1.3837 C   0  0  2  0  0  0  0  0  0  0  0  0
   -2.0874    1.7934   -1.4207 O   0  0  0  0  0  0  0  0  0  0  0  0
   -1.9967   -0.3796   -0.4221 C   0  0  2  0  0  0  0  0  0  0  0  0
   -2.6992    0.3931    0.5206 O   0  0  0  0  0  0  0  0  0  0  0  0
   -0.8039   -1.0720    0.2560 C   0  0  2  0  0  0  0  0  0  0  0  0
   -1.1942   -2.1324    1.0275 O   0  0  0  0  0  0  0  0  0  0  0  0
   -0.1749    0.0499    1.0932 C   0  0  1  0  0  0  0  0  0  0  0  0
    0.7250   -0.4047    2.0186 O   0  0  0  0  0  0  0  0  0  0  0  0
    4.2443   -1.0930   -0.0205 H   0  0  0  0  0  0  0  0  0  0  0  0
    2.1381   -0.5208   -1.3538 H   0  0  0  0  0  0  0  0  0  0  0  0
    2.1666   -1.0812    0.3372 H   0  0  0  0  0  0  0  0  0  0  0  0
    2.2112    1.8249   -0.6318 H   0  0  0  0  0  0  0  0  0  0  0  0
    2.2830    1.2922    1.1240 H   0  0  0  0  0  0  0  0  0  0  0  0
   -0.0211    2.0756    0.3339 H   0  0  0  0  0  0  0  0  0  0  0  0
   -1.4991    0.1450   -2.4072 H   0  0  0  0  0  0  0  0  0  0  0  0
   -1.9856    2.1845   -2.3023 H   0  0  0  0  0  0  0  0  0  0  0  0
   -2.6480   -1.1150   -0.9243 H   0  0  0  0  0  0  0  0  0  0  0  0
   -3.0420   -0.1667    1.2644 H   0  0  0  0  0  0  0  0  0  0  0  0
   -0.0500   -1.3156   -0.5204 H   0  0  0  0  0  0  0  0  0  0  0  0
   -1.9685   -2.5658    0.5930 H   0  0  0  0  0  0  0  0  0  0  0  0
   -1.0124    0.5607    1.6590 H   0  0  0  0  0  0  0  0  0  0  0  0
    0.2295   -0.7609    2.7970 H   0  0  0  0  0  0  0  0  0  0  0  0
  1  2  1  0
  2  3  1  0
  3  4  1  0
  4  5  1  0
  5  6  1  0
  6  7  1  0
  6  8  1  0
  8  9  1  0
  8 10  1  0
 10 11  1  0
 10 12  1  0
 12 13  1  0
 12  4  1  0
  1 14  1  0
  2 15  1  0
  2 16  1  0
  3 17  1  0
  3 18  1  0
  4 19  1  1
  6 20  1  6
  7 21  1  0
  8 22  1  6
  9 23  1  0
 10 24  1  6
 11 25  1  0
 12 26  1  1
 13 27  1  0
M  END
$$$$

     RDKit          3D

 27 27  0  0  0  0  0  0  0  0999 V2000
    4.2344    0.1567    0.1373 O   0  0  0  0  0  0  0  0  0  0  0  0
    2.9698   -0.3310    0.4609 C   0  0  0  0  0  0  0  0  0  0  0  0
    1.9552    0.2675   -0.4894 C   0  0  0  0  0  0  0  0  0  0  0  0
    0.5546   -0.2236   -0.1909 C   0  0  1  0  0  0  0  0  0  0  0  0
    0.2431    0.1462    1.0959 O   0  0  0  0  0  0  0  0  0  0  0  0
   -1.0291   -0.1984    1.4933 C   0  0  2  0  0  0  0  0  0  0  0  0
   -1.2163   -1.5677    1.3336 O   0  0  0  0  0  0  0  0  0  0  0  0
   -2.0085    0.5956    0.6609 C   0  0  2  0  0  0  0  0  0  0  0  0
   -3.2913    0.2063    1.0463 O   0  0  0  0  0  0  0  0  0  0  0  0
   -1.7973    0.4038   -0.8149 C   0  0  2  0  0  0  0  0  0  0  0  0
   -2.5499   -0.7062   -1.2337 O   0  0  0  0  0  0  0  0  0  0  0  0
   -0.3813    0.2942   -1.2329 C   0  0  1  0  0  0  0  0  0  0  0  0
    0.1052    1.5409   -1.6633 O   0  0  0  0  0  0  0  0  0  0  0  0
    4.6537    0.4952    0.9679 H   0  0  0  0  0  0  0  0  0  0  0  0
    2.7199   -0.1090    1.5111 H   0  0  0  0  0  0  0  0  0  0  0  0
    3.0166   -1.4368    0.3114 H   0  0  0  0  0  0  0  0  0  0  0  0
    2.2821   -0.0206   -1.5214 H   0  0  0  0  0  0  0  0  0  0  0  0
    2.0258    1.3732   -0.4510 H   0  0  0  0  0  0  0  0  0  0  0  0
    0.6102   -1.3482   -0.2574 H   0  0  0  0  0  0  0  0  0  0  0  0
   -1.1482    0.1256    2.5473 H   0  0  0  0  0  0  0  0  0  0  0  0
   -1.5965   -1.9398    2.1792 H   0  0  0  0  0  0  0  0  0  0  0  0
   -1.8938    1.6554    0.9416 H   0  0  0  0  0  0  0  0  0  0  0  0
   -3.6710   -0.5048    0.5049 H   0  0  0  0  0  0  0  0  0  0  0  0
   -2.2508    1.2824   -1.3257 H   0  0  0  0  0  0  0  0  0  0  0  0
   -1.9844   -1.5205   -1.3060 H   0  0  0  0  0  0  0  0  0  0  0  0
   -0.2948   -0.3755   -2.1259 H   0  0  0  0  0  0  0  0  0  0  0  0
   -0.2575    1.7391   -2.5792 H   0  0  0  0  0  0  0  0  0  0  0  0
  1  2  1  0
  2  3  1  0
  3  4  1  0
  4  5  1  0
  5  6  1  0
  6  7  1  0
  6  8  1  0
  8  9  1  0
  8 10  1  0
 10 11  1  0
 10 12  1  0
 12 13  1  0
 12  4  1  0
  1 14  1  0
  2 15  1  0
  2 16  1  0
  3 17  1  0
  3 18  1  0
  4 19  1  1
  6 20  1  1
  7 21  1  0
  8 22  1  6
  9 23  1  0
 10 24  1  6
 11 25  1  0
 12 26  1  6
 13 27  1  0
M  END
$$$$

     RDKit          3D

 27 27  0  0  0  0  0  0  0  0999 V2000
   -3.2488    0.0776   -1.4402 O   0  0  0  0  0  0  0  0  0  0  0  0
   -2.9021   -0.7093   -0.3656 C   0  0  0  0  0  0  0  0  0  0  0  0
   -2.0329   -0.0211    0.6451 C   0  0  0  0  0  0  0  0  0  0  0  0
   -0.7375    0.4296    0.0042 C   0  0  1  0  0  0  0  0  0  0  0  0
    0.1043    1.0647    0.8645 O   0  0  0  0  0  0  0  0  0  0  0  0
    1.2703    0.4322    1.1655 C   0  0  2  0  0  0  0  0  0  0  0  0
    2.0604    1.3400    1.9123 O   0  0  0  0  0  0  0  0  0  0  0  0
    2.1022    0.0214   -0.0087 C   0  0  2  0  0  0  0  0  0  0  0  0
    3.1963    0.8400   -0.2315 O   0  0  0  0  0  0  0  0  0  0  0  0
    1.2501   -0.1433   -1.2493 C   0  0  2  0  0  0  0  0  0  0  0  0
    0.9621    1.1507   -1.7163 O   0  0  0  0  0  0  0  0  0  0  0  0
   -0.0703   -0.7367   -0.7323 C   0  0  1  0  0  0  0  0  0  0  0  0
    0.2873   -1.7545    0.1412 O   0  0  0  0  0  0  0  0  0  0  0  0
   -2.5153    0.4191   -1.9746 H   0  0  0  0  0  0  0  0  0  0  0  0
   -2.4535   -1.6710   -0.7251 H   0  0  0  0  0  0  0  0  0  0  0  0
   -3.8566   -1.0145    0.1347 H   0  0  0  0  0  0  0  0  0  0  0  0
   -1.8895   -0.6602    1.5103 H   0  0  0  0  0  0  0  0  0  0  0  0
   -2.5623    0.8980    0.9646 H   0  0  0  0  0  0  0  0  0  0  0  0
   -1.0222    1.1524   -0.7947 H   0  0  0  0  0  0  0  0  0  0  0  0
    1.0891   -0.4197    1.8838 H   0  0  0  0  0  0  0  0  0  0  0  0
    2.5344    1.9588    1.2803 H   0  0  0  0  0  0  0  0  0  0  0  0
    2.5124   -1.0022    0.2203 H   0  0  0  0  0  0  0  0  0  0  0  0
    4.0504    0.3168   -0.3466 H   0  0  0  0  0  0  0  0  0  0  0  0
    1.7093   -0.7793   -2.0108 H   0  0  0  0  0  0  0  0  0  0  0  0
    1.2329    1.8503   -1.0920 H   0  0  0  0  0  0  0  0  0  0  0  0
   -0.6772   -1.0688   -1.5707 H   0  0  0  0  0  0  0  0  0  0  0  0
   -0.3930   -1.9712    0.8069 H   0  0  0  0  0  0  0  0  0  0  0  0
  1  2  1  0
  2  3  1  0
  3  4  1  0
  4  5  1  0
  5  6  1  0
  6  7  1  0
  6  8  1  0
  8  9  1  0
  8 10  1  0
 10 11  1  0
 10 12  1  0
 12 13  1  0
 12  4  1  0
  1 14  1  0
  2 15  1  0
  2 16  1  0
  3 17  1  0
  3 18  1  0
  4 19  1  6
  6 20  1  1
  7 21  1  0
  8 22  1  1
  9 23  1  0
 10 24  1  6
 11 25  1  0
 12 26  1  6
 13 27  1  0
M  END
$$$$

     RDKit          3D

 27 27  0  0  0  0  0  0  0  0999 V2000
    4.1319   -0.2725   -0.1281 O   0  0  0  0  0  0  0  0  0  0  0  0
    2.8960    0.1811   -0.5604 C   0  0  0  0  0  0  0  0  0  0  0  0
    1.8819   -0.8713   -0.2167 C   0  0  0  0  0  0  0  0  0  0  0  0
    0.4681   -0.4723   -0.6522 C   0  0  1  0  0  0  0  0  0  0  0  0
   -0.4407   -1.4565   -0.3306 O   0  0  0  0  0  0  0  0  0  0  0  0
   -1.3089   -1.1540    0.6780 C   0  0  2  0  0  0  0  0  0  0  0  0
   -2.1403   -2.2560    0.8788 O   0  0  0  0  0  0  0  0  0  0  0  0
   -2.1549    0.0619    0.3779 C   0  0  2  0  0  0  0  0  0  0  0  0
   -3.0985   -0.3104   -0.5767 O   0  0  0  0  0  0  0  0  0  0  0  0
   -1.3314    1.2093   -0.1417 C   0  0  2  0  0  0  0  0  0  0  0  0
   -1.8256    1.6396   -1.3699 O   0  0  0  0  0  0  0  0  0  0  0  0
    0.1378    0.9024   -0.1997 C   0  0  1  0  0  0  0  0  0  0  0  0
    0.7334    1.1056    1.0680 O   0  0  0  0  0  0  0  0  0  0  0  0
    3.9962   -0.6959    0.7749 H   0  0  0  0  0  0  0  0  0  0  0  0
    2.9614    0.2195   -1.6876 H   0  0  0  0  0  0  0  0  0  0  0  0
    2.6919    1.1808   -0.1734 H   0  0  0  0  0  0  0  0  0  0  0  0
    2.1386   -1.7828   -0.7812 H   0  0  0  0  0  0  0  0  0  0  0  0
    1.9210   -1.1095    0.8507 H   0  0  0  0  0  0  0  0  0  0  0  0
    0.5304   -0.4858   -1.7837 H   0  0  0  0  0  0  0  0  0  0  0  0
   -0.7666   -1.0017    1.6497 H   0  0  0  0  0  0  0  0  0  0  0  0
   -1.8644   -3.0423    0.3517 H   0  0  0  0  0  0  0  0  0  0  0  0
   -2.7187    0.3106    1.2980 H   0  0  0  0  0  0  0  0  0  0  0  0
   -4.0003    0.0800   -0.3601 H   0  0  0  0  0  0  0  0  0  0  0  0
   -1.4659    2.0501    0.5675 H   0  0  0  0  0  0  0  0  0  0  0  0
   -2.5607    2.2687   -1.2290 H   0  0  0  0  0  0  0  0  0  0  0  0
    0.6130    1.6436   -0.8708 H   0  0  0  0  0  0  0  0  0  0  0  0
    0.5751    2.0580    1.3504 H   0  0  0  0  0  0  0  0  0  0  0  0
  1  2  1  0
  2  3  1  0
  3  4  1  0
  4  5  1  0
  5  6  1  0
  6  7  1  0
  6  8  1  0
  8  9  1  0
  8 10  1  0
 10 11  1  0
 10 12  1  0
 12 13  1  0
 12  4  1  0
  1 14  1  0
  2 15  1  0
  2 16  1  0
  3 17  1  0
  3 18  1  0
  4 19  1  6
  6 20  1  1
  7 21  1  0
  8 22  1  1
  9 23  1  0
 10 24  1  1
 11 25  1  0
 12 26  1  6
 13 27  1  0
M  END
$$$$

     RDKit          3D

 27 27  0  0  0  0  0  0  0  0999 V2000
   -3.8405   -0.7858   -0.5407 O   0  0  0  0  0  0  0  0  0  0  0  0
   -2.8235   -0.5864    0.3771 C   0  0  0  0  0  0  0  0  0  0  0  0
   -1.7281    0.2175   -0.3209 C   0  0  0  0  0  0  0  0  0  0  0  0
   -0.5875    0.4526    0.6759 C   0  0  1  0  0  0  0  0  0  0  0  0
   -0.0549   -0.7272    1.1224 O   0  0  0  0  0  0  0  0  0  0  0  0
    0.7681   -1.3723    0.2301 C   0  0  2  0  0  0  0  0  0  0  0  0
    1.1812   -2.5713    0.7629 O   0  0  0  0  0  0  0  0  0  0  0  0
    2.0090   -0.4999    0.0538 C   0  0  2  0  0  0  0  0  0  0  0  0
    2.6181   -0.2430    1.2755 O   0  0  0  0  0  0  0  0  0  0  0  0
    1.5418    0.7709   -0.6211 C   0  0  2  0  0  0  0  0  0  0  0  0
    2.5918    1.6983   -0.7064 O   0  0  0  0  0  0  0  0  0  0  0  0
    0.3845    1.4040    0.0723 C   0  0  1  0  0  0  0  0  0  0  0  0
   -0.3098    2.1837   -0.8768 O   0  0  0  0  0  0  0  0  0  0  0  0
   -3.4703   -0.7859   -1.4459 H   0  0  0  0  0  0  0  0  0  0  0  0
   -3.2087    0.0307    1.2362 H   0  0  0  0  0  0  0  0  0  0  0  0
   -2.3990   -1.5391    0.7324 H   0  0  0  0  0  0  0  0  0  0  0  0
   -1.3654   -0.3839   -1.1714 H   0  0  0  0  0  0  0  0  0  0  0  0
   -2.1605    1.1709   -0.6589 H   0  0  0  0  0  0  0  0  0  0  0  0
   -1.0368    0.9670    1.5757 H   0  0  0  0  0  0  0  0  0  0  0  0
    0.3185   -1.4706   -0.7818 H   0  0  0  0  0  0  0  0  0  0  0  0
    0.4743   -3.2643    0.6921 H   0  0  0  0  0  0  0  0  0  0  0  0
    2.7577   -0.9776   -0.6094 H   0  0  0  0  0  0  0  0  0  0  0  0
    3.3326   -0.9223    1.4208 H   0  0  0  0  0  0  0  0  0  0  0  0
    1.2306    0.4900   -1.6500 H   0  0  0  0  0  0  0  0  0  0  0  0
    3.0856    1.4823   -1.5393 H   0  0  0  0  0  0  0  0  0  0  0  0
    0.7804    2.1187    0.8258 H   0  0  0  0  0  0  0  0  0  0  0  0
   -0.0892    3.1433   -0.7866 H   0  0  0  0  0  0  0  0  0  0  0  0
  1  2  1  0
  2  3  1  0
  3  4  1  0
  4  5  1  0
  5  6  1  0
  6  7  1  0
  6  8  1  0
  8  9  1  0
  8 10  1  0
 10 11  1  0
 10 12  1  0
 12 13  1  0
 12  4  1  0
  1 14  1  0
  2 15  1  0
  2 16  1  0
  3 17  1  0
  3 18  1  0
  4 19  1  1
  6 20  1  6
  7 21  1  0
  8 22  1  6
  9 23  1  0
 10 24  1  6
 11 25  1  0
 12 26  1  1
 13 27  1  0
M  END
$$$$
