
     RDKit          3D

 25 24  0  0  0  0  0  0  0  0999 V2000
    3.4949    0.7523    1.0645 C   0  0  0  0  0  0  0  0  0  0  0  0
    2.6531   -0.3275    0.7835 O   0  0  0  0  0  0  0  0  0  0  0  0
    1.4306    0.1275    0.2798 C   0  0  0  0  0  0  0  0  0  0  0  0
    0.4943   -0.9925   -0.0364 C   0  0  1  0  0  0  0  0  0  0  0  0
    0.1813   -1.7893    1.1011 N   0  0  0  0  0  0  0  0  0  0  0  0
   -0.7097   -0.4506   -0.7511 C   0  0  1  0  0  0  0  0  0  0  0  0
   -1.6384   -1.5258   -1.0704 N   0  0  0  0  0  0  0  0  0  0  0  0
   -1.4348    0.5871    0.0868 C   0  0  0  0  0  0  0  0  0  0  0  0
   -2.6239    1.1186   -0.6240 C   0  0  0  0  0  0  0  0  0  0  0  0
   -2.8812    0.6815   -1.7619 O   0  0  0  0  0  0  0  0  0  0  0  0
   -3.3911    2.0763    0.0137 O   0  0  0  0  0  0  0  0  0  0  0  0
    3.6529    1.3068    0.0982 H   0  0  0  0  0  0  0  0  0  0  0  0
    3.0614    1.4429    1.8080 H   0  0  0  0  0  0  0  0  0  0  0  0
    4.4946    0.3881    1.3733 H   0  0  0  0  0  0  0  0  0  0  0  0
    1.6431    0.7034   -0.6456 H   0  0  0  0  0  0  0  0  0  0  0  0
    1.0121    0.8306    1.0162 H   0  0  0  0  0  0  0  0  0  0  0  0
    1.0042   -1.6786   -0.7774 H   0  0  0  0  0  0  0  0  0  0  0  0
   -0.7983   -2.1023    1.1283 H   0  0  0  0  0  0  0  0  0  0  0  0
    0.5532   -1.4340    2.0029 H   0  0  0  0  0  0  0  0  0  0  0  0
   -0.4275    0.0221   -1.7149 H   0  0  0  0  0  0  0  0  0  0  0  0
   -1.9791   -1.4569   -2.0346 H   0  0  0  0  0  0  0  0  0  0  0  0
   -1.2057   -2.4645   -0.8479 H   0  0  0  0  0  0  0  0  0  0  0  0
   -0.7595    1.4683    0.2422 H   0  0  0  0  0  0  0  0  0  0  0  0
   -1.6857    0.1740    1.0817 H   0  0  0  0  0  0  0  0  0  0  0  0
   -4.1408    2.5425   -0.4870 H   0  0  0  0  0  0  0  0  0  0  0  0
  1  2  1  0
  2  3  1  0
  3  4  1  0
  4  5  1  0
  4  6  1  0
  6  7  1  0
  6  8  1  0
  8  9  1  0
  9 10  2  0
  9 11  1  0
  1 12  1  0
  1 13  1  0
  1 14  1  0
  3 15  1  0
  3 16  1  0
  4 17  1  6
  5 18  1  0
  5 19  1  0
  6 20  1  6
  7 21  1  0
  7 22  1  0
  8 23  1  0
  8 24  1  0
 11 25  1  0
M  END
$$$$

     RDKit          3D

 25 24  0  0  0  0  0  0  0  0999 V2000
    2.5158    1.4294    0.7545 C   0  0  0  0  0  0  0  0  0  0  0  0
    1.3445    1.0623    0.0741 O   0  0  0  0  0  0  0  0  0  0  0  0
    1.3943   -0.2510   -0.3057 C   0  0  0  0  0  0  0  0  0  0  0  0
    0.2039   -0.7792   -1.0432 C   0  0  1  0  0  0  0  0  0  0  0  0
    0.5271   -2.1962   -1.3333 N   0  0  0  0  0  0  0  0  0  0  0  0
   -1.0930   -0.7611   -0.3409 C   0  0  1  0  0  0  0  0  0  0  0  0
   -1.0348   -1.5138    0.9081 N   0  0  0  0  0  0  0  0  0  0  0  0
   -1.9134    0.4537   -0.3083 C   0  0  0  0  0  0  0  0  0  0  0  0
   -1.3944    1.6726    0.2793 C   0  0  0  0  0  0  0  0  0  0  0  0
   -1.1037    2.6543   -0.4526 O   0  0  0  0  0  0  0  0  0  0  0  0
   -1.1996    1.8121    1.6418 O   0  0  0  0  0  0  0  0  0  0  0  0
    2.6108    0.7907    1.6568 H   0  0  0  0  0  0  0  0  0  0  0  0
    2.5413    2.5028    0.9450 H   0  0  0  0  0  0  0  0  0  0  0  0
    3.3863    1.1459    0.1038 H   0  0  0  0  0  0  0  0  0  0  0  0
    2.3327   -0.3923   -0.9303 H   0  0  0  0  0  0  0  0  0  0  0  0
    1.6150   -0.9035    0.5911 H   0  0  0  0  0  0  0  0  0  0  0  0
    0.1149   -0.3248   -2.0652 H   0  0  0  0  0  0  0  0  0  0  0  0
    0.2325   -2.4650   -2.2912 H   0  0  0  0  0  0  0  0  0  0  0  0
    0.0584   -2.8123   -0.6265 H   0  0  0  0  0  0  0  0  0  0  0  0
   -1.7484   -1.4947   -0.9970 H   0  0  0  0  0  0  0  0  0  0  0  0
   -1.7623   -2.2520    0.9847 H   0  0  0  0  0  0  0  0  0  0  0  0
   -1.0373   -0.8779    1.7477 H   0  0  0  0  0  0  0  0  0  0  0  0
   -2.8757    0.1683    0.2388 H   0  0  0  0  0  0  0  0  0  0  0  0
   -2.3149    0.6301   -1.3586 H   0  0  0  0  0  0  0  0  0  0  0  0
   -1.4000    2.7015    2.1270 H   0  0  0  0  0  0  0  0  0  0  0  0
  1  2  1  0
  2  3  1  0
  3  4  1  0
  4  5  1  0
  4  6  1  0
  6  7  1  0
  6  8  1  0
  8  9  1  0
  9 10  2  0
  9 11  1  0
  1 12  1  0
  1 13  1  0
  1 14  1  0
  3 15  1  0
  3 16  1  0
  4 17  1  6
  5 18  1  0
  5 19  1  0
  6 20  1  6
  7 21  1  0
  7 22  1  0
  8 23  1  0
  8 24  1  0
 11 25  1  0
M  END
$$$$

     RDKit          3D

 25 24  0  0  0  0  0  0  0  0999 V2000
    3.3221    0.0887    0.5034 C   0  0  0  0  0  0  0  0  0  0  0  0
    2.4718   -0.9249    0.8848 O   0  0  0  0  0  0  0  0  0  0  0  0
    1.1290   -0.6247    0.8820 C   0  0  0  0  0  0  0  0  0  0  0  0
    0.6776   -0.2537   -0.4741 C   0  0  1  0  0  0  0  0  0  0  0  0
    0.9567   -1.4031   -1.3487 N   0  0  0  0  0  0  0  0  0  0  0  0
   -0.7906    0.0400   -0.5928 C   0  0  1  0  0  0  0  0  0  0  0  0
   -1.5379   -1.1209   -0.2098 N   0  0  0  0  0  0  0  0  0  0  0  0
   -1.2457    1.2112    0.2173 C   0  0  0  0  0  0  0  0  0  0  0  0
   -2.7023    1.4483    0.0572 C   0  0  0  0  0  0  0  0  0  0  0  0
   -3.0812    2.0629   -0.9769 O   0  0  0  0  0  0  0  0  0  0  0  0
   -3.6666    1.0467    0.9543 O   0  0  0  0  0  0  0  0  0  0  0  0
    3.1936    0.4619   -0.5065 H   0  0  0  0  0  0  0  0  0  0  0  0
    4.3597   -0.2341    0.7353 H   0  0  0  0  0  0  0  0  0  0  0  0
    3.1004    0.9427    1.2158 H   0  0  0  0  0  0  0  0  0  0  0  0
    0.6014   -1.5447    1.2268 H   0  0  0  0  0  0  0  0  0  0  0  0
    1.0103    0.2012    1.6360 H   0  0  0  0  0  0  0  0  0  0  0  0
    1.2762    0.5833   -0.8677 H   0  0  0  0  0  0  0  0  0  0  0  0
    1.9718   -1.5461   -1.4837 H   0  0  0  0  0  0  0  0  0  0  0  0
    0.4919   -2.2331   -0.9340 H   0  0  0  0  0  0  0  0  0  0  0  0
   -0.9986    0.2600   -1.6619 H   0  0  0  0  0  0  0  0  0  0  0  0
   -2.1642   -0.9829    0.5972 H   0  0  0  0  0  0  0  0  0  0  0  0
   -1.9164   -1.6785   -0.9829 H   0  0  0  0  0  0  0  0  0  0  0  0
   -0.7543    2.1628   -0.0568 H   0  0  0  0  0  0  0  0  0  0  0  0
   -1.0474    1.0647    1.2983 H   0  0  0  0  0  0  0  0  0  0  0  0
   -4.6573    0.9721    0.6768 H   0  0  0  0  0  0  0  0  0  0  0  0
  1  2  1  0
  2  3  1  0
  3  4  1  0
  4  5  1  0
  4  6  1  0
  6  7  1  0
  6  8  1  0
  8  9  1  0
  9 10  2  0
  9 11  1  0
  1 12  1  0
  1 13  1  0
  1 14  1  0
  3 15  1  0
  3 16  1  0
  4 17  1  6
  5 18  1  0
  5 19  1  0
  6 20  1  6
  7 21  1  0
  7 22  1  0
  8 23  1  0
  8 24  1  0
 11 25  1  0
M  END
$$$$

     RDKit          3D

 25 24  0  0  0  0  0  0  0  0999 V2000
    3.6758   -0.2118    0.6505 C   0  0  0  0  0  0  0  0  0  0  0  0
    2.7052    0.6108    0.1049 O   0  0  0  0  0  0  0  0  0  0  0  0
    1.4856   -0.0846    0.1684 C   0  0  0  0  0  0  0  0  0  0  0  0
    0.4368    0.7875   -0.4137 C   0  0  1  0  0  0  0  0  0  0  0  0
    0.7772    1.0894   -1.7926 N   0  0  0  0  0  0  0  0  0  0  0  0
   -0.9490    0.2604   -0.3774 C   0  0  1  0  0  0  0  0  0  0  0  0
   -1.0227   -0.9851   -1.1112 N   0  0  0  0  0  0  0  0  0  0  0  0
   -1.5296    0.1128    1.0028 C   0  0  0  0  0  0  0  0  0  0  0  0
   -2.9041   -0.4196    0.8545 C   0  0  0  0  0  0  0  0  0  0  0  0
   -3.1753   -1.6339    0.7062 O   0  0  0  0  0  0  0  0  0  0  0  0
   -3.9443    0.4937    0.8831 O   0  0  0  0  0  0  0  0  0  0  0  0
    4.6512    0.3330    0.6052 H   0  0  0  0  0  0  0  0  0  0  0  0
    3.4537   -0.4936    1.6970 H   0  0  0  0  0  0  0  0  0  0  0  0
    3.7313   -1.1586    0.0584 H   0  0  0  0  0  0  0  0  0  0  0  0
    1.6277   -0.9913   -0.4602 H   0  0  0  0  0  0  0  0  0  0  0  0
    1.3335   -0.3967    1.1959 H   0  0  0  0  0  0  0  0  0  0  0  0
    0.4595    1.7788    0.1218 H   0  0  0  0  0  0  0  0  0  0  0  0
    0.1617    1.8464   -2.1650 H   0  0  0  0  0  0  0  0  0  0  0  0
    0.7533    0.2691   -2.4074 H   0  0  0  0  0  0  0  0  0  0  0  0
   -1.5852    0.9896   -0.9622 H   0  0  0  0  0  0  0  0  0  0  0  0
   -1.7867   -1.0124   -1.8103 H   0  0  0  0  0  0  0  0  0  0  0  0
   -0.9367   -1.8267   -0.5235 H   0  0  0  0  0  0  0  0  0  0  0  0
   -1.5916    1.0475    1.5586 H   0  0  0  0  0  0  0  0  0  0  0  0
   -0.9041   -0.6521    1.5279 H   0  0  0  0  0  0  0  0  0  0  0  0
   -4.9232    0.2474    0.8882 H   0  0  0  0  0  0  0  0  0  0  0  0
  1  2  1  0
  2  3  1  0
  3  4  1  0
  4  5  1  0
  4  6  1  0
  6  7  1  0
  6  8  1  0
  8  9  1  0
  9 10  2  0
  9 11  1  0
  1 12  1  0
  1 13  1  0
  1 14  1  0
  3 15  1  0
  3 16  1  0
  4 17  1  1
  5 18  1  0
  5 19  1  0
  6 20  1  6
  7 21  1  0
  7 22  1  0
  8 23  1  0
  8 24  1  0
 11 25  1  0
M  END
$$$$

     RDKit          3D

 25 24  0  0  0  0  0  0  0  0999 V2000
    3.5432    0.0194   -0.2321 C   0  0  0  0  0  0  0  0  0  0  0  0
    2.1951    0.0761   -0.6009 O   0  0  0  0  0  0  0  0  0  0  0  0
    1.4450    0.5881    0.4593 C   0  0  0  0  0  0  0  0  0  0  0  0
   -0.0148    0.6413    0.0358 C   0  0  1  0  0  0  0  0  0  0  0  0
   -0.1501    1.4910   -1.1153 N   0  0  0  0  0  0  0  0  0  0  0  0
   -0.4604   -0.7669   -0.2707 C   0  0  1  0  0  0  0  0  0  0  0  0
   -0.3257   -1.6144    0.8887 N   0  0  0  0  0  0  0  0  0  0  0  0
   -1.8810   -0.8213   -0.7583 C   0  0  0  0  0  0  0  0  0  0  0  0
   -2.8598   -0.2971    0.2026 C   0  0  0  0  0  0  0  0  0  0  0  0
   -3.2681   -0.9533    1.1957 O   0  0  0  0  0  0  0  0  0  0  0  0
   -3.3948    0.9909    0.0511 O   0  0  0  0  0  0  0  0  0  0  0  0
    4.1412   -0.3851   -1.0664 H   0  0  0  0  0  0  0  0  0  0  0  0
    3.6388   -0.6212    0.6617 H   0  0  0  0  0  0  0  0  0  0  0  0
    3.8433    1.0606    0.0016 H   0  0  0  0  0  0  0  0  0  0  0  0
    1.8398    1.6031    0.6777 H   0  0  0  0  0  0  0  0  0  0  0  0
    1.5984   -0.0823    1.3169 H   0  0  0  0  0  0  0  0  0  0  0  0
   -0.5907    1.0452    0.8923 H   0  0  0  0  0  0  0  0  0  0  0  0
    0.5770    1.1828   -1.8179 H   0  0  0  0  0  0  0  0  0  0  0  0
   -0.0085    2.4850   -0.8808 H   0  0  0  0  0  0  0  0  0  0  0  0
    0.1785   -1.1916   -1.0738 H   0  0  0  0  0  0  0  0  0  0  0  0
   -0.5365   -1.0389    1.7288 H   0  0  0  0  0  0  0  0  0  0  0  0
   -1.0592   -2.3545    0.8243 H   0  0  0  0  0  0  0  0  0  0  0  0
   -1.9897   -0.3349   -1.7617 H   0  0  0  0  0  0  0  0  0  0  0  0
   -2.1039   -1.9065   -0.9550 H   0  0  0  0  0  0  0  0  0  0  0  0
   -4.3570    1.1845    0.3506 H   0  0  0  0  0  0  0  0  0  0  0  0
  1  2  1  0
  2  3  1  0
  3  4  1  0
  4  5  1  0
  4  6  1  0
  6  7  1  0
  6  8  1  0
  8  9  1  0
  9 10  2  0
  9 11  1  0
  1 12  1  0
  1 13  1  0
  1 14  1  0
  3 15  1  0
  3 16  1  0
  4 17  1  1
  5 18  1  0
  5 19  1  0
  6 20  1  6
  7 21  1  0
  7 22  1  0
  8 23  1  0
  8 24  1  0
 11 25  1  0
M  END
$$$$

     RDKit          3D

 25 24  0  0  0  0  0  0  0  0999 V2000
    2.4119    1.3735    0.5899 C   0  0  0  0  0  0  0  0  0  0  0  0
    2.0653    0.0606    0.9048 O   0  0  0  0  0  0  0  0  0  0  0  0
    1.7548   -0.7119   -0.1994 C   0  0  0  0  0  0  0  0  0  0  0  0
    0.5863   -0.3148   -0.9896 C   0  0  1  0  0  0  0  0  0  0  0  0
    0.4925   -1.2452   -2.1525 N   0  0  0  0  0  0  0  0  0  0  0  0
   -0.7563   -0.3347   -0.3368 C   0  0  1  0  0  0  0  0  0  0  0  0
   -1.1837   -1.6024    0.1532 N   0  0  0  0  0  0  0  0  0  0  0  0
   -0.9218    0.7497    0.6932 C   0  0  0  0  0  0  0  0  0  0  0  0
   -2.2716    0.7112    1.3233 C   0  0  0  0  0  0  0  0  0  0  0  0
   -2.4892   -0.1274    2.2264 O   0  0  0  0  0  0  0  0  0  0  0  0
   -3.3034    1.5571    0.9624 O   0  0  0  0  0  0  0  0  0  0  0  0
    1.6220    1.9257    0.0750 H   0  0  0  0  0  0  0  0  0  0  0  0
    2.6899    1.8703    1.5385 H   0  0  0  0  0  0  0  0  0  0  0  0
    3.3556    1.4042   -0.0286 H   0  0  0  0  0  0  0  0  0  0  0  0
    1.7901   -1.7663    0.1248 H   0  0  0  0  0  0  0  0  0  0  0  0
    2.6546   -0.6136   -0.8831 H   0  0  0  0  0  0  0  0  0  0  0  0
    0.7485    0.6823   -1.4230 H   0  0  0  0  0  0  0  0  0  0  0  0
    0.0275   -2.1088   -1.7718 H   0  0  0  0  0  0  0  0  0  0  0  0
   -0.2381   -0.7961   -2.7695 H   0  0  0  0  0  0  0  0  0  0  0  0
   -1.4899   -0.0717   -1.1599 H   0  0  0  0  0  0  0  0  0  0  0  0
   -0.5344   -2.1270    0.7258 H   0  0  0  0  0  0  0  0  0  0  0  0
   -1.8279   -2.1345   -0.4473 H   0  0  0  0  0  0  0  0  0  0  0  0
   -0.1654    0.5762    1.5101 H   0  0  0  0  0  0  0  0  0  0  0  0
   -0.7571    1.7638    0.3124 H   0  0  0  0  0  0  0  0  0  0  0  0
   -4.2603    1.2799    1.0215 H   0  0  0  0  0  0  0  0  0  0  0  0
  1  2  1  0
  2  3  1  0
  3  4  1  0
  4  5  1  0
  4  6  1  0
  6  7  1  0
  6  8  1  0
  8  9  1  0
  9 10  2  0
  9 11  1  0
  1 12  1  0
  1 13  1  0
  1 14  1  0
  3 15  1  0
  3 16  1  0
  4 17  1  6
  5 18  1  0
  5 19  1  0
  6 20  1  6
  7 21  1  0
  7 22  1  0
  8 23  1  0
  8 24  1  0
 11 25  1  0
M  END
$$$$

     RDKit          3D

 25 24  0  0  0  0  0  0  0  0999 V2000
    3.3972    0.1919    0.3980 C   0  0  0  0  0  0  0  0  0  0  0  0
    2.6487   -0.8451   -0.0983 O   0  0  0  0  0  0  0  0  0  0  0  0
    1.3399   -0.8918    0.3452 C   0  0  0  0  0  0  0  0  0  0  0  0
    0.5713    0.3486   -0.0200 C   0  0  1  0  0  0  0  0  0  0  0  0
    0.5768    0.4582   -1.4810 N   0  0  0  0  0  0  0  0  0  0  0  0
   -0.8495    0.3191    0.4570 C   0  0  1  0  0  0  0  0  0  0  0  0
   -1.4985    1.5733    0.0477 N   0  0  0  0  0  0  0  0  0  0  0  0
   -1.6299   -0.8254   -0.1499 C   0  0  0  0  0  0  0  0  0  0  0  0
   -3.0360   -0.8364    0.3328 C   0  0  0  0  0  0  0  0  0  0  0  0
   -3.7925   -1.7325   -0.0911 O   0  0  0  0  0  0  0  0  0  0  0  0
   -3.5435    0.0838    1.2169 O   0  0  0  0  0  0  0  0  0  0  0  0
    3.4753    0.1775    1.5064 H   0  0  0  0  0  0  0  0  0  0  0  0
    3.0734    1.1785    0.0223 H   0  0  0  0  0  0  0  0  0  0  0  0
    4.4531    0.0703    0.0448 H   0  0  0  0  0  0  0  0  0  0  0  0
    0.8695   -1.7477   -0.2230 H   0  0  0  0  0  0  0  0  0  0  0  0
    1.2443   -1.1505    1.4177 H   0  0  0  0  0  0  0  0  0  0  0  0
    1.0757    1.2696    0.3631 H   0  0  0  0  0  0  0  0  0  0  0  0
    0.5697   -0.5250   -1.8669 H   0  0  0  0  0  0  0  0  0  0  0  0
    1.5019    0.8613   -1.7720 H   0  0  0  0  0  0  0  0  0  0  0  0
   -0.8804    0.2085    1.5569 H   0  0  0  0  0  0  0  0  0  0  0  0
   -1.1689    2.2804    0.7688 H   0  0  0  0  0  0  0  0  0  0  0  0
   -1.0704    1.8054   -0.8848 H   0  0  0  0  0  0  0  0  0  0  0  0
   -1.6472   -0.6707   -1.2500 H   0  0  0  0  0  0  0  0  0  0  0  0
   -1.1288   -1.7933    0.0895 H   0  0  0  0  0  0  0  0  0  0  0  0
   -4.5512    0.1920    1.3468 H   0  0  0  0  0  0  0  0  0  0  0  0
  1  2  1  0
  2  3  1  0
  3  4  1  0
  4  5  1  0
  4  6  1  0
  6  7  1  0
  6  8  1  0
  8  9  1  0
  9 10  2  0
  9 11  1  0
  1 12  1  0
  1 13  1  0
  1 14  1  0
  3 15  1  0
  3 16  1  0
  4 17  1  1
  5 18  1  0
  5 19  1  0
  6 20  1  1
  7 21  1  0
  7 22  1  0
  8 23  1  0
  8 24  1  0
 11 25  1  0
M  END
$$$$

     RDKit          3D

 25 24  0  0  0  0  0  0  0  0999 V2000
   -3.1168    0.3995    1.3880 C   0  0  0  0  0  0  0  0  0  0  0  0
   -2.1419   -0.4988    0.9414 O   0  0  0  0  0  0  0  0  0  0  0  0
   -1.1158    0.1675    0.2700 C   0  0  0  0  0  0  0  0  0  0  0  0
   -0.1221   -0.8966   -0.1667 C   0  0  1  0  0  0  0  0  0  0  0  0
   -0.8586   -1.8003   -1.0344 N   0  0  0  0  0  0  0  0  0  0  0  0
    1.0094   -0.2910   -0.9499 C   0  0  1  0  0  0  0  0  0  0  0  0
    0.4303    0.3467   -2.1141 N   0  0  0  0  0  0  0  0  0  0  0  0
    1.7767    0.7411   -0.1948 C   0  0  0  0  0  0  0  0  0  0  0  0
    2.4146    0.2658    1.0364 C   0  0  0  0  0  0  0  0  0  0  0  0
    2.3514   -0.9117    1.4452 O   0  0  0  0  0  0  0  0  0  0  0  0
    3.1346    1.1991    1.7889 O   0  0  0  0  0  0  0  0  0  0  0  0
   -2.5903    1.1076    2.0804 H   0  0  0  0  0  0  0  0  0  0  0  0
   -3.5417    0.9235    0.5099 H   0  0  0  0  0  0  0  0  0  0  0  0
   -3.9116   -0.1607    1.8843 H   0  0  0  0  0  0  0  0  0  0  0  0
   -0.6568    0.8698    0.9873 H   0  0  0  0  0  0  0  0  0  0  0  0
   -1.5413    0.6742   -0.6169 H   0  0  0  0  0  0  0  0  0  0  0  0
    0.2365   -1.4728    0.6822 H   0  0  0  0  0  0  0  0  0  0  0  0
   -0.2591   -2.5091   -1.4912 H   0  0  0  0  0  0  0  0  0  0  0  0
   -1.5361   -1.3328   -1.6449 H   0  0  0  0  0  0  0  0  0  0  0  0
    1.7083   -1.0966   -1.2390 H   0  0  0  0  0  0  0  0  0  0  0  0
   -0.1315   -0.2928   -2.7028 H   0  0  0  0  0  0  0  0  0  0  0  0
    1.1168    0.9255   -2.6375 H   0  0  0  0  0  0  0  0  0  0  0  0
    2.5536    1.1489   -0.8758 H   0  0  0  0  0  0  0  0  0  0  0  0
    1.1248    1.6185    0.0608 H   0  0  0  0  0  0  0  0  0  0  0  0
    3.6666    0.8756    2.5930 H   0  0  0  0  0  0  0  0  0  0  0  0
  1  2  1  0
  2  3  1  0
  3  4  1  0
  4  5  1  0
  4  6  1  0
  6  7  1  0
  6  8  1  0
  8  9  1  0
  9 10  2  0
  9 11  1  0
  1 12  1  0
  1 13  1  0
  1 14  1  0
  3 15  1  0
  3 16  1  0
  4 17  1  1
  5 18  1  0
  5 19  1  0
  6 20  1  6
  7 21  1  0
  7 22  1  0
  8 23  1  0
  8 24  1  0
 11 25  1  0
M  END
$$$$
