
     RDKit          3D

 21 20  0  0  0  0  0  0  0  0999 V2000
   -0.8048    1.3085   -0.0401 N   0  0  0  0  0  0  0  0  0  0  0  0
   -1.3903    0.0138   -0.2503 C   0  0  1  0  0  0  0  0  0  0  0  0
   -0.6052   -1.0391    0.4736 C   0  0  0  0  0  0  0  0  0  0  0  0
    0.7331   -1.1105    0.0158 N   0  0  0  0  0  0  0  0  0  0  0  0
    1.7308   -0.1329    0.1168 C   0  0  0  0  0  0  0  0  0  0  0  0
    1.5245    0.9633    0.6692 O   0  0  0  0  0  0  0  0  0  0  0  0
    3.1117   -0.3632   -0.4426 C   0  0  0  0  0  0  0  0  0  0  0  0
    3.9150    0.7321   -0.2250 O   0  0  0  0  0  0  0  0  0  0  0  0
   -2.8202    0.0137    0.1338 C   0  0  0  0  0  0  0  0  0  0  0  0
   -3.4865   -1.0266    0.0175 O   0  0  0  0  0  0  0  0  0  0  0  0
   -3.3933    1.1630    0.6141 O   0  0  0  0  0  0  0  0  0  0  0  0
   -0.8342    1.8587   -0.9054 H   0  0  0  0  0  0  0  0  0  0  0  0
   -1.2981    1.7503    0.7711 H   0  0  0  0  0  0  0  0  0  0  0  0
   -1.3051   -0.2169   -1.3528 H   0  0  0  0  0  0  0  0  0  0  0  0
   -1.0935   -2.0464    0.3791 H   0  0  0  0  0  0  0  0  0  0  0  0
   -0.6231   -0.7563    1.5684 H   0  0  0  0  0  0  0  0  0  0  0  0
    1.0337   -2.0166   -0.4699 H   0  0  0  0  0  0  0  0  0  0  0  0
    3.5534   -1.2442    0.0549 H   0  0  0  0  0  0  0  0  0  0  0  0
    3.0499   -0.5798   -1.5259 H   0  0  0  0  0  0  0  0  0  0  0  0
    3.4104    1.4010    0.3134 H   0  0  0  0  0  0  0  0  0  0  0  0
   -4.4079    1.3281    0.5823 H   0  0  0  0  0  0  0  0  0  0  0  0
  1  2  1  0
  2  3  1  0
  3  4  1  0
  4  5  1  0
  5  6  2  0
  5  7  1  0
  7  8  1  0
  2  9  1  0
  9 10  2  0
  9 11  1  0
  1 12  1  0
  1 13  1  0
  2 14  1  6
  3 15  1  0
  3 16  1  0
  4 17  1  0
  7 18  1  0
  7 19  1  0
  8 20  1  0
 11 21  1  0
M  END
$$$$

     RDKit          3D

 21 20  0  0  0  0  0  0  0  0999 V2000
    2.2302    0.2109    1.2078 N   0  0  0  0  0  0  0  0  0  0  0  0
    1.8188   -0.6847    0.1436 C   0  0  1  0  0  0  0  0  0  0  0  0
    0.3783   -1.0598    0.2203 C   0  0  0  0  0  0  0  0  0  0  0  0
   -0.5305    0.0276    0.1421 N   0  0  0  0  0  0  0  0  0  0  0  0
   -1.9284   -0.1965    0.2032 C   0  0  0  0  0  0  0  0  0  0  0  0
   -2.3327   -1.4043    0.3301 O   0  0  0  0  0  0  0  0  0  0  0  0
   -2.9358    0.8601    0.1308 C   0  0  0  0  0  0  0  0  0  0  0  0
   -4.2070    0.3094    0.2197 O   0  0  0  0  0  0  0  0  0  0  0  0
    2.1981   -0.1365   -1.1918 C   0  0  0  0  0  0  0  0  0  0  0  0
    1.9465   -0.7330   -2.2518 O   0  0  0  0  0  0  0  0  0  0  0  0
    2.8573    1.0847   -1.2692 O   0  0  0  0  0  0  0  0  0  0  0  0
    2.9950    0.8200    0.7859 H   0  0  0  0  0  0  0  0  0  0  0  0
    1.4665    0.8238    1.5473 H   0  0  0  0  0  0  0  0  0  0  0  0
    2.4166   -1.6204    0.2775 H   0  0  0  0  0  0  0  0  0  0  0  0
    0.1731   -1.7792   -0.6004 H   0  0  0  0  0  0  0  0  0  0  0  0
    0.2470   -1.6578    1.1652 H   0  0  0  0  0  0  0  0  0  0  0  0
   -0.1923    0.9967    0.0399 H   0  0  0  0  0  0  0  0  0  0  0  0
   -2.8681    1.3540   -0.8760 H   0  0  0  0  0  0  0  0  0  0  0  0
   -2.8047    1.6536    0.8990 H   0  0  0  0  0  0  0  0  0  0  0  0
   -4.1820   -0.3383    0.9699 H   0  0  0  0  0  0  0  0  0  0  0  0
    3.2544    1.4697   -2.0934 H   0  0  0  0  0  0  0  0  0  0  0  0
  1  2  1  0
  2  3  1  0
  3  4  1  0
  4  5  1  0
  5  6  2  0
  5  7  1  0
  7  8  1  0
  2  9  1  0
  9 10  2  0
  9 11  1  0
  1 12  1  0
  1 13  1  0
  2 14  1  1
  3 15  1  0
  3 16  1  0
  4 17  1  0
  7 18  1  0
  7 19  1  0
  8 20  1  0
 11 21  1  0
M  END
$$$$

     RDKit          3D

 21 20  0  0  0  0  0  0  0  0999 V2000
   -2.9298   -0.9639   -0.8066 N   0  0  0  0  0  0  0  0  0  0  0  0
   -1.8622   -0.5171    0.0887 C   0  0  1  0  0  0  0  0  0  0  0  0
   -0.5746   -0.6145   -0.6776 C   0  0  0  0  0  0  0  0  0  0  0  0
    0.5671   -0.2019    0.0908 N   0  0  0  0  0  0  0  0  0  0  0  0
    1.8549   -0.2380   -0.4976 C   0  0  0  0  0  0  0  0  0  0  0  0
    1.9442   -0.6408   -1.6999 O   0  0  0  0  0  0  0  0  0  0  0  0
    3.0813    0.1848    0.2686 C   0  0  0  0  0  0  0  0  0  0  0  0
    4.1763    0.0352   -0.5770 O   0  0  0  0  0  0  0  0  0  0  0  0
   -2.1591    0.9010    0.4156 C   0  0  0  0  0  0  0  0  0  0  0  0
   -3.1534    1.5222   -0.0309 O   0  0  0  0  0  0  0  0  0  0  0  0
   -1.3080    1.6025    1.2582 O   0  0  0  0  0  0  0  0  0  0  0  0
   -2.7747   -1.9588   -1.0695 H   0  0  0  0  0  0  0  0  0  0  0  0
   -3.8467   -0.8479   -0.3192 H   0  0  0  0  0  0  0  0  0  0  0  0
   -1.9049   -1.1452    0.9810 H   0  0  0  0  0  0  0  0  0  0  0  0
   -0.4335   -1.6274   -1.1064 H   0  0  0  0  0  0  0  0  0  0  0  0
   -0.6669    0.0698   -1.5590 H   0  0  0  0  0  0  0  0  0  0  0  0
    0.5173    0.1343    1.0851 H   0  0  0  0  0  0  0  0  0  0  0  0
    3.0244    1.2824    0.5160 H   0  0  0  0  0  0  0  0  0  0  0  0
    3.1932   -0.3854    1.1998 H   0  0  0  0  0  0  0  0  0  0  0  0
    4.3612    0.8231   -1.1220 H   0  0  0  0  0  0  0  0  0  0  0  0
   -1.1059    2.5859    1.1477 H   0  0  0  0  0  0  0  0  0  0  0  0
  1  2  1  0
  2  3  1  0
  3  4  1  0
  4  5  1  0
  5  6  2  0
  5  7  1  0
  7  8  1  0
  2  9  1  0
  9 10  2  0
  9 11  1  0
  1 12  1  0
  1 13  1  0
  2 14  1  1
  3 15  1  0
  3 16  1  0
  4 17  1  0
  7 18  1  0
  7 19  1  0
  8 20  1  0
 11 21  1  0
M  END
$$$$

     RDKit          3D

 21 20  0  0  0  0  0  0  0  0999 V2000
   -1.7379    0.8072    1.4250 N   0  0  0  0  0  0  0  0  0  0  0  0
   -1.7233    0.3916    0.0669 C   0  0  1  0  0  0  0  0  0  0  0  0
   -0.6350    0.9449   -0.7645 C   0  0  0  0  0  0  0  0  0  0  0  0
    0.7067    0.7185   -0.3880 N   0  0  0  0  0  0  0  0  0  0  0  0
    1.3895   -0.5037   -0.2479 C   0  0  0  0  0  0  0  0  0  0  0  0
    0.7735   -1.5574   -0.4773 O   0  0  0  0  0  0  0  0  0  0  0  0
    2.8467   -0.5407    0.1738 C   0  0  0  0  0  0  0  0  0  0  0  0
    3.3337    0.7249    0.3758 O   0  0  0  0  0  0  0  0  0  0  0  0
   -1.9308   -1.0442   -0.1122 C   0  0  0  0  0  0  0  0  0  0  0  0
   -1.9916   -1.9093    0.7906 O   0  0  0  0  0  0  0  0  0  0  0  0
   -2.0825   -1.5112   -1.4346 O   0  0  0  0  0  0  0  0  0  0  0  0
   -1.9267    1.7825    1.6128 H   0  0  0  0  0  0  0  0  0  0  0  0
   -1.1907    0.2711    2.0861 H   0  0  0  0  0  0  0  0  0  0  0  0
   -2.6859    0.8588   -0.3707 H   0  0  0  0  0  0  0  0  0  0  0  0
   -0.8545    0.5842   -1.8242 H   0  0  0  0  0  0  0  0  0  0  0  0
   -0.8375    2.0560   -0.8710 H   0  0  0  0  0  0  0  0  0  0  0  0
    1.3161    1.5744   -0.1722 H   0  0  0  0  0  0  0  0  0  0  0  0
    2.9161   -1.1820    1.0587 H   0  0  0  0  0  0  0  0  0  0  0  0
    3.4409   -1.0139   -0.6471 H   0  0  0  0  0  0  0  0  0  0  0  0
    3.3629    0.9872    1.3335 H   0  0  0  0  0  0  0  0  0  0  0  0
   -2.4897   -2.4388   -1.6135 H   0  0  0  0  0  0  0  0  0  0  0  0
  1  2  1  0
  2  3  1  0
  3  4  1  0
  4  5  1  0
  5  6  2  0
  5  7  1  0
  7  8  1  0
  2  9  1  0
  9 10  2  0
  9 11  1  0
  1 12  1  0
  1 13  1  0
  2 14  1  6
  3 15  1  0
  3 16  1  0
  4 17  1  0
  7 18  1  0
  7 19  1  0
  8 20  1  0
 11 21  1  0
M  END
$$$$

     RDKit          3D

 21 20  0  0  0  0  0  0  0  0999 V2000
   -0.9514   -1.7578    0.0264 N   0  0  0  0  0  0  0  0  0  0  0  0
   -1.3659   -0.4660    0.5281 C   0  0  1  0  0  0  0  0  0  0  0  0
   -0.5571    0.5793   -0.2472 C   0  0  0  0  0  0  0  0  0  0  0  0
    0.8332    0.3342    0.0034 N   0  0  0  0  0  0  0  0  0  0  0  0
    1.7868    1.1865   -0.6161 C   0  0  0  0  0  0  0  0  0  0  0  0
    1.4521    2.1348   -1.3660 O   0  0  0  0  0  0  0  0  0  0  0  0
    3.2345    0.9693   -0.3847 C   0  0  0  0  0  0  0  0  0  0  0  0
    3.4485   -0.1194    0.4690 O   0  0  0  0  0  0  0  0  0  0  0  0
   -2.8003   -0.2144    0.3074 C   0  0  0  0  0  0  0  0  0  0  0  0
   -3.2697    0.8809    0.7052 O   0  0  0  0  0  0  0  0  0  0  0  0
   -3.6561   -1.1270   -0.3173 O   0  0  0  0  0  0  0  0  0  0  0  0
   -0.8761   -2.4654    0.7804 H   0  0  0  0  0  0  0  0  0  0  0  0
   -1.6236   -2.0971   -0.6849 H   0  0  0  0  0  0  0  0  0  0  0  0
   -1.1176   -0.3789    1.6021 H   0  0  0  0  0  0  0  0  0  0  0  0
   -0.8866    1.5931    0.0616 H   0  0  0  0  0  0  0  0  0  0  0  0
   -0.8108    0.4463   -1.3002 H   0  0  0  0  0  0  0  0  0  0  0  0
    1.1947   -0.4304    0.6120 H   0  0  0  0  0  0  0  0  0  0  0  0
    3.6214    1.8834    0.1061 H   0  0  0  0  0  0  0  0  0  0  0  0
    3.7035    0.8018   -1.3731 H   0  0  0  0  0  0  0  0  0  0  0  0
    3.1009   -0.9505    0.0647 H   0  0  0  0  0  0  0  0  0  0  0  0
   -4.4603   -0.8029   -0.8649 H   0  0  0  0  0  0  0  0  0  0  0  0
  1  2  1  0
  2  3  1  0
  3  4  1  0
  4  5  1  0
  5  6  2  0
  5  7  1  0
  7  8  1  0
  2  9  1  0
  9 10  2  0
  9 11  1  0
  1 12  1  0
  1 13  1  0
  2 14  1  1
  3 15  1  0
  3 16  1  0
  4 17  1  0
  7 18  1  0
  7 19  1  0
  8 20  1  0
 11 21  1  0
M  END
$$$$

     RDKit          3D

 21 20  0  0  0  0  0  0  0  0999 V2000
   -2.0953    1.0426   -0.4190 N   0  0  0  0  0  0  0  0  0  0  0  0
   -1.7620   -0.3777   -0.3444 C   0  0  1  0  0  0  0  0  0  0  0  0
   -0.6700   -0.7332   -1.2875 C   0  0  0  0  0  0  0  0  0  0  0  0
    0.5647   -0.0473   -1.1503 N   0  0  0  0  0  0  0  0  0  0  0  0
    1.3988   -0.0628   -0.0311 C   0  0  0  0  0  0  0  0  0  0  0  0
    1.0928   -0.7265    0.9804 O   0  0  0  0  0  0  0  0  0  0  0  0
    2.6931    0.7272   -0.0239 C   0  0  0  0  0  0  0  0  0  0  0  0
    3.3092    0.5305    1.1962 O   0  0  0  0  0  0  0  0  0  0  0  0
   -1.6527   -0.8376    1.0351 C   0  0  0  0  0  0  0  0  0  0  0  0
   -1.5461   -2.0732    1.3134 O   0  0  0  0  0  0  0  0  0  0  0  0
   -1.6610    0.0458    2.1010 O   0  0  0  0  0  0  0  0  0  0  0  0
   -3.1040    1.2254   -0.3990 H   0  0  0  0  0  0  0  0  0  0  0  0
   -1.5706    1.5982    0.2918 H   0  0  0  0  0  0  0  0  0  0  0  0
   -2.7038   -0.8679   -0.8115 H   0  0  0  0  0  0  0  0  0  0  0  0
   -0.5320   -1.8494   -1.2012 H   0  0  0  0  0  0  0  0  0  0  0  0
   -1.0842   -0.5442   -2.3295 H   0  0  0  0  0  0  0  0  0  0  0  0
    0.9102    0.5502   -1.9810 H   0  0  0  0  0  0  0  0  0  0  0  0
    2.3840    1.7895   -0.1257 H   0  0  0  0  0  0  0  0  0  0  0  0
    3.3116    0.4399   -0.8804 H   0  0  0  0  0  0  0  0  0  0  0  0
    3.9145   -0.2495    1.1100 H   0  0  0  0  0  0  0  0  0  0  0  0
   -1.1973   -0.2566    2.9565 H   0  0  0  0  0  0  0  0  0  0  0  0
  1  2  1  0
  2  3  1  0
  3  4  1  0
  4  5  1  0
  5  6  2  0
  5  7  1  0
  7  8  1  0
  2  9  1  0
  9 10  2  0
  9 11  1  0
  1 12  1  0
  1 13  1  0
  2 14  1  6
  3 15  1  0
  3 16  1  0
  4 17  1  0
  7 18  1  0
  7 19  1  0
  8 20  1  0
 11 21  1  0
M  END
$$$$

     RDKit          3D

 21 20  0  0  0  0  0  0  0  0999 V2000
   -2.7772   -1.2335    0.2709 N   0  0  0  0  0  0  0  0  0  0  0  0
   -1.5179   -0.4932    0.5646 C   0  0  1  0  0  0  0  0  0  0  0  0
   -0.3755   -1.2335   -0.0205 C   0  0  0  0  0  0  0  0  0  0  0  0
    0.9331   -0.7289    0.0836 N   0  0  0  0  0  0  0  0  0  0  0  0
    1.4231    0.4274   -0.5350 C   0  0  0  0  0  0  0  0  0  0  0  0
    0.6952    1.1083   -1.2745 O   0  0  0  0  0  0  0  0  0  0  0  0
    2.8341    0.9098   -0.3474 C   0  0  0  0  0  0  0  0  0  0  0  0
    3.4848    0.0250    0.5046 O   0  0  0  0  0  0  0  0  0  0  0  0
   -1.7447    0.8745    0.1412 C   0  0  0  0  0  0  0  0  0  0  0  0
   -2.5098    1.1226   -0.8208 O   0  0  0  0  0  0  0  0  0  0  0  0
   -1.1427    1.9663    0.7735 O   0  0  0  0  0  0  0  0  0  0  0  0
   -2.7259   -2.1998    0.6131 H   0  0  0  0  0  0  0  0  0  0  0  0
   -3.5807   -0.7426    0.6882 H   0  0  0  0  0  0  0  0  0  0  0  0
   -1.4874   -0.5545    1.7050 H   0  0  0  0  0  0  0  0  0  0  0  0
   -0.4259   -2.2932    0.3948 H   0  0  0  0  0  0  0  0  0  0  0  0
   -0.5998   -1.4312   -1.1248 H   0  0  0  0  0  0  0  0  0  0  0  0
    1.6411   -1.2626    0.6885 H   0  0  0  0  0  0  0  0  0  0  0  0
    2.8258    1.9329    0.0648 H   0  0  0  0  0  0  0  0  0  0  0  0
    3.3336    0.8988   -1.3290 H   0  0  0  0  0  0  0  0  0  0  0  0
    3.0989   -0.0062    1.3964 H   0  0  0  0  0  0  0  0  0  0  0  0
   -1.3821    2.9135    0.5135 H   0  0  0  0  0  0  0  0  0  0  0  0
  1  2  1  0
  2  3  1  0
  3  4  1  0
  4  5  1  0
  5  6  2  0
  5  7  1  0
  7  8  1  0
  2  9  1  0
  9 10  2  0
  9 11  1  0
  1 12  1  0
  1 13  1  0
  2 14  1  1
  3 15  1  0
  3 16  1  0
  4 17  1  0
  7 18  1  0
  7 19  1  0
  8 20  1  0
 11 21  1  0
M  END
$$$$

     RDKit          3D

 21 20  0  0  0  0  0  0  0  0999 V2000
   -1.1769    1.0656    0.7183 N   0  0  0  0  0  0  0  0  0  0  0  0
   -1.3909    0.2110   -0.4032 C   0  0  1  0  0  0  0  0  0  0  0  0
   -0.5010   -0.9758   -0.3896 C   0  0  0  0  0  0  0  0  0  0  0  0
    0.9009   -0.6733   -0.4289 N   0  0  0  0  0  0  0  0  0  0  0  0
    1.6171    0.0238    0.5686 C   0  0  0  0  0  0  0  0  0  0  0  0
    1.0666    0.4409    1.6147 O   0  0  0  0  0  0  0  0  0  0  0  0
    3.0976    0.2777    0.3724 C   0  0  0  0  0  0  0  0  0  0  0  0
    3.5354   -0.2428   -0.8186 O   0  0  0  0  0  0  0  0  0  0  0  0
   -2.8244   -0.1524   -0.5739 C   0  0  0  0  0  0  0  0  0  0  0  0
   -3.1994   -0.8866   -1.4939 O   0  0  0  0  0  0  0  0  0  0  0  0
   -3.7340    0.3523    0.3248 O   0  0  0  0  0  0  0  0  0  0  0  0
   -1.6902    0.7255    1.5538 H   0  0  0  0  0  0  0  0  0  0  0  0
   -1.3365    2.0650    0.4915 H   0  0  0  0  0  0  0  0  0  0  0  0
   -1.1660    0.8436   -1.3237 H   0  0  0  0  0  0  0  0  0  0  0  0
   -0.6512   -1.5762    0.5642 H   0  0  0  0  0  0  0  0  0  0  0  0
   -0.7356   -1.7102   -1.1935 H   0  0  0  0  0  0  0  0  0  0  0  0
    1.4989   -0.9803   -1.2634 H   0  0  0  0  0  0  0  0  0  0  0  0
    3.6101   -0.2427    1.2077 H   0  0  0  0  0  0  0  0  0  0  0  0
    3.3052    1.3619    0.4221 H   0  0  0  0  0  0  0  0  0  0  0  0
    4.5116   -0.2362   -0.8219 H   0  0  0  0  0  0  0  0  0  0  0  0
   -4.7372    0.3093    0.2036 H   0  0  0  0  0  0  0  0  0  0  0  0
  1  2  1  0
  2  3  1  0
  3  4  1  0
  4  5  1  0
  5  6  2  0
  5  7  1  0
  7  8  1  0
  2  9  1  0
  9 10  2  0
  9 11  1  0
  1 12  1  0
  1 13  1  0
  2 14  1  6
  3 15  1  0
  3 16  1  0
  4 17  1  0
  7 18  1  0
  7 19  1  0
  8 20  1  0
 11 21  1  0
M  END
$$$$
