
     RDKit          3D

 26 25  0  0  0  0  0  0  0  0999 V2000
   -3.5674   -0.6950    0.9619 N   0  0  0  0  0  0  0  0  0  0  0  0
   -2.3615    0.1069    0.6427 C   0  0  0  0  0  0  0  0  0  0  0  0
   -1.7229   -0.6073   -0.5090 C   0  0  0  0  0  0  0  0  0  0  0  0
   -0.4748    0.0198   -1.0565 C   0  0  2  0  0  0  0  0  0  0  0  0
   -0.0291   -0.8005   -2.1404 O   0  0  0  0  0  0  0  0  0  0  0  0
    0.5931    0.0104   -0.0211 C   0  0  2  0  0  0  0  0  0  0  0  0
    0.2670    0.8128    1.0485 O   0  0  0  0  0  0  0  0  0  0  0  0
    1.9469    0.4248   -0.5612 C   0  0  2  0  0  0  0  0  0  0  0  0
    2.2964   -0.3640   -1.6335 O   0  0  0  0  0  0  0  0  0  0  0  0
    2.9517    0.2094    0.5775 C   0  0  0  0  0  0  0  0  0  0  0  0
    2.6340    0.9858    1.6744 O   0  0  0  0  0  0  0  0  0  0  0  0
   -4.3578   -0.4247    0.3362 H   0  0  0  0  0  0  0  0  0  0  0  0
   -3.7947   -0.6575    1.9605 H   0  0  0  0  0  0  0  0  0  0  0  0
   -2.6531    1.1493    0.4075 H   0  0  0  0  0  0  0  0  0  0  0  0
   -1.7823    0.0676    1.5904 H   0  0  0  0  0  0  0  0  0  0  0  0
   -2.5033   -0.6920   -1.3064 H   0  0  0  0  0  0  0  0  0  0  0  0
   -1.5287   -1.6597   -0.1446 H   0  0  0  0  0  0  0  0  0  0  0  0
   -0.6610    1.0005   -1.5141 H   0  0  0  0  0  0  0  0  0  0  0  0
   -0.8561   -1.1613   -2.5771 H   0  0  0  0  0  0  0  0  0  0  0  0
    0.7186   -1.0664    0.2994 H   0  0  0  0  0  0  0  0  0  0  0  0
    0.4533    1.7439    0.8067 H   0  0  0  0  0  0  0  0  0  0  0  0
    1.9752    1.4750   -0.8543 H   0  0  0  0  0  0  0  0  0  0  0  0
    3.1918   -0.8013   -1.5199 H   0  0  0  0  0  0  0  0  0  0  0  0
    3.9382    0.5280    0.1986 H   0  0  0  0  0  0  0  0  0  0  0  0
    2.9598   -0.8648    0.8586 H   0  0  0  0  0  0  0  0  0  0  0  0
    2.3665    0.4519    2.4751 H   0  0  0  0  0  0  0  0  0  0  0  0
  1  2  1  0
  2  3  1  0
  3  4  1  0
  4  5  1  0
  4  6  1  0
  6  7  1  0
  6  8  1  0
  8  9  1  0
  8 10  1  0
 10 11  1  0
  1 12  1  0
  1 13  1  0
  2 14  1  0
  2 15  1  0
  3 16  1  0
  3 17  1  0
  4 18  1  6
  5 19  1  0
  6 20  1  1
  7 21  1  0
  8 22  1  6
  9 23  1  0
 10 24  1  0
 10 25  1  0
 11 26  1  0
M  END
$$$$

     RDKit          3D

 26 25  0  0  0  0  0  0  0  0999 V2000
    2.2489    1.0812    0.5540 N   0  0  0  0  0  0  0  0  0  0  0  0
    2.7505   -0.1993    0.1448 C   0  0  0  0  0  0  0  0  0  0  0  0
    1.7507   -1.2911    0.3579 C   0  0  0  0  0  0  0  0  0  0  0  0
    0.4685   -1.1188   -0.3849 C   0  0  2  0  0  0  0  0  0  0  0  0
    0.6496   -1.0636   -1.7620 O   0  0  0  0  0  0  0  0  0  0  0  0
   -0.3997   -0.0042    0.1326 C   0  0  2  0  0  0  0  0  0  0  0  0
   -0.4960   -0.1801    1.5253 O   0  0  0  0  0  0  0  0  0  0  0  0
   -1.8071   -0.1509   -0.4036 C   0  0  2  0  0  0  0  0  0  0  0  0
   -1.8596   -0.0003   -1.7690 O   0  0  0  0  0  0  0  0  0  0  0  0
   -2.6819    0.9378    0.2209 C   0  0  0  0  0  0  0  0  0  0  0  0
   -2.1404    2.1539   -0.1867 O   0  0  0  0  0  0  0  0  0  0  0  0
    2.3664    1.2692    1.5643 H   0  0  0  0  0  0  0  0  0  0  0  0
    2.5582    1.8611   -0.0669 H   0  0  0  0  0  0  0  0  0  0  0  0
    3.1211   -0.1868   -0.9142 H   0  0  0  0  0  0  0  0  0  0  0  0
    3.6338   -0.4276    0.7749 H   0  0  0  0  0  0  0  0  0  0  0  0
    2.1691   -2.2816    0.0868 H   0  0  0  0  0  0  0  0  0  0  0  0
    1.5048   -1.3115    1.4501 H   0  0  0  0  0  0  0  0  0  0  0  0
   -0.1221   -2.0671   -0.2082 H   0  0  0  0  0  0  0  0  0  0  0  0
    1.0265   -0.2074   -2.0736 H   0  0  0  0  0  0  0  0  0  0  0  0
   -0.0252    0.9873   -0.1270 H   0  0  0  0  0  0  0  0  0  0  0  0
   -1.2261   -0.8299    1.7005 H   0  0  0  0  0  0  0  0  0  0  0  0
   -2.1761   -1.1484   -0.1343 H   0  0  0  0  0  0  0  0  0  0  0  0
   -2.6636   -0.4392   -2.1495 H   0  0  0  0  0  0  0  0  0  0  0  0
   -2.6748    0.8645    1.3302 H   0  0  0  0  0  0  0  0  0  0  0  0
   -3.7104    0.8896   -0.1353 H   0  0  0  0  0  0  0  0  0  0  0  0
   -2.2653    2.8634    0.4730 H   0  0  0  0  0  0  0  0  0  0  0  0
  1  2  1  0
  2  3  1  0
  3  4  1  0
  4  5  1  0
  4  6  1  0
  6  7  1  0
  6  8  1  0
  8  9  1  0
  8 10  1  0
 10 11  1  0
  1 12  1  0
  1 13  1  0
  2 14  1  0
  2 15  1  0
  3 16  1  0
  3 17  1  0
  4 18  1  6
  5 19  1  0
  6 20  1  1
  7 21  1  0
  8 22  1  6
  9 23  1  0
 10 24  1  0
 10 25  1  0
 11 26  1  0
M  END
$$$$

     RDKit          3D

 26 25  0  0  0  0  0  0  0  0999 V2000
   -4.0415    0.3385    0.7397 N   0  0  0  0  0  0  0  0  0  0  0  0
   -2.9337   -0.2916    0.0617 C   0  0  0  0  0  0  0  0  0  0  0  0
   -1.6102    0.3083    0.4860 C   0  0  0  0  0  0  0  0  0  0  0  0
   -0.5169   -0.4009   -0.2628 C   0  0  2  0  0  0  0  0  0  0  0  0
   -0.4729   -1.7608   -0.0183 O   0  0  0  0  0  0  0  0  0  0  0  0
    0.8447    0.1780    0.0304 C   0  0  2  0  0  0  0  0  0  0  0  0
    0.7623    1.5532   -0.2278 O   0  0  0  0  0  0  0  0  0  0  0  0
    1.8667   -0.4394   -0.8833 C   0  0  2  0  0  0  0  0  0  0  0  0
    1.9463   -1.7947   -0.6270 O   0  0  0  0  0  0  0  0  0  0  0  0
    3.1936    0.2642   -0.7057 C   0  0  0  0  0  0  0  0  0  0  0  0
    3.6414    0.1112    0.5900 O   0  0  0  0  0  0  0  0  0  0  0  0
   -4.2436   -0.1144    1.6525 H   0  0  0  0  0  0  0  0  0  0  0  0
   -4.8609    0.3673    0.1032 H   0  0  0  0  0  0  0  0  0  0  0  0
   -3.0774   -0.2421   -1.0342 H   0  0  0  0  0  0  0  0  0  0  0  0
   -2.9184   -1.3587    0.3638 H   0  0  0  0  0  0  0  0  0  0  0  0
   -1.5227    0.1701    1.5682 H   0  0  0  0  0  0  0  0  0  0  0  0
   -1.6017    1.3627    0.1697 H   0  0  0  0  0  0  0  0  0  0  0  0
   -0.6904   -0.2722   -1.3593 H   0  0  0  0  0  0  0  0  0  0  0  0
   -0.4632   -2.0003    0.9250 H   0  0  0  0  0  0  0  0  0  0  0  0
    1.1440   -0.0356    1.0725 H   0  0  0  0  0  0  0  0  0  0  0  0
    0.8962    2.0920    0.5861 H   0  0  0  0  0  0  0  0  0  0  0  0
    1.5108   -0.3291   -1.9326 H   0  0  0  0  0  0  0  0  0  0  0  0
    2.7615   -2.0779   -0.1684 H   0  0  0  0  0  0  0  0  0  0  0  0
    3.9613   -0.1160   -1.3931 H   0  0  0  0  0  0  0  0  0  0  0  0
    3.0400    1.3390   -0.8922 H   0  0  0  0  0  0  0  0  0  0  0  0
    3.3847    0.9027    1.1560 H   0  0  0  0  0  0  0  0  0  0  0  0
  1  2  1  0
  2  3  1  0
  3  4  1  0
  4  5  1  0
  4  6  1  0
  6  7  1  0
  6  8  1  0
  8  9  1  0
  8 10  1  0
 10 11  1  0
  1 12  1  0
  1 13  1  0
  2 14  1  0
  2 15  1  0
  3 16  1  0
  3 17  1  0
  4 18  1  6
  5 19  1  0
  6 20  1  1
  7 21  1  0
  8 22  1  6
  9 23  1  0
 10 24  1  0
 10 25  1  0
 11 26  1  0
M  END
$$$$

     RDKit          3D

 26 25  0  0  0  0  0  0  0  0999 V2000
   -3.1723   -0.0648   -1.2116 N   0  0  0  0  0  0  0  0  0  0  0  0
   -3.0589    0.6164    0.0653 C   0  0  0  0  0  0  0  0  0  0  0  0
   -1.8507    0.0646    0.8049 C   0  0  0  0  0  0  0  0  0  0  0  0
   -0.6485    0.3219   -0.0429 C   0  0  2  0  0  0  0  0  0  0  0  0
   -0.8162   -0.3180   -1.2542 O   0  0  0  0  0  0  0  0  0  0  0  0
    0.6462   -0.0842    0.6291 C   0  0  2  0  0  0  0  0  0  0  0  0
    0.8261    0.5471    1.8388 O   0  0  0  0  0  0  0  0  0  0  0  0
    1.7864    0.2253   -0.3409 C   0  0  2  0  0  0  0  0  0  0  0  0
    1.5856   -0.4155   -1.5418 O   0  0  0  0  0  0  0  0  0  0  0  0
    3.1069   -0.1394    0.3007 C   0  0  0  0  0  0  0  0  0  0  0  0
    4.1430    0.2096   -0.5420 O   0  0  0  0  0  0  0  0  0  0  0  0
   -3.9215    0.3077   -1.8032 H   0  0  0  0  0  0  0  0  0  0  0  0
   -3.1355   -1.0852   -1.1244 H   0  0  0  0  0  0  0  0  0  0  0  0
   -3.9963    0.5032    0.6551 H   0  0  0  0  0  0  0  0  0  0  0  0
   -2.9119    1.6929   -0.1662 H   0  0  0  0  0  0  0  0  0  0  0  0
   -2.0242   -1.0467    0.9146 H   0  0  0  0  0  0  0  0  0  0  0  0
   -1.7739    0.4532    1.8240 H   0  0  0  0  0  0  0  0  0  0  0  0
   -0.6104    1.4197   -0.2536 H   0  0  0  0  0  0  0  0  0  0  0  0
   -0.6656   -1.2892   -1.0906 H   0  0  0  0  0  0  0  0  0  0  0  0
    0.6203   -1.1788    0.7851 H   0  0  0  0  0  0  0  0  0  0  0  0
    0.4804    0.0016    2.5994 H   0  0  0  0  0  0  0  0  0  0  0  0
    1.8106    1.3186   -0.5352 H   0  0  0  0  0  0  0  0  0  0  0  0
    2.2747   -1.0952   -1.7503 H   0  0  0  0  0  0  0  0  0  0  0  0
    3.1960    0.4284    1.2479 H   0  0  0  0  0  0  0  0  0  0  0  0
    3.1252   -1.2230    0.5322 H   0  0  0  0  0  0  0  0  0  0  0  0
    4.9844   -0.1702   -0.1724 H   0  0  0  0  0  0  0  0  0  0  0  0
  1  2  1  0
  2  3  1  0
  3  4  1  0
  4  5  1  0
  4  6  1  0
  6  7  1  0
  6  8  1  0
  8  9  1  0
  8 10  1  0
 10 11  1  0
  1 12  1  0
  1 13  1  0
  2 14  1  0
  2 15  1  0
  3 16  1  0
  3 17  1  0
  4 18  1  6
  5 19  1  0
  6 20  1  1
  7 21  1  0
  8 22  1  6
  9 23  1  0
 10 24  1  0
 10 25  1  0
 11 26  1  0
M  END
$$$$

     RDKit          3D

 26 25  0  0  0  0  0  0  0  0999 V2000
    3.2300    1.2206    0.0179 N   0  0  0  0  0  0  0  0  0  0  0  0
    2.2843    0.1569   -0.3429 C   0  0  0  0  0  0  0  0  0  0  0  0
    1.4384   -0.1422    0.8634 C   0  0  0  0  0  0  0  0  0  0  0  0
    0.4284   -1.2158    0.6264 C   0  0  2  0  0  0  0  0  0  0  0  0
    1.0131   -2.4310    0.2620 O   0  0  0  0  0  0  0  0  0  0  0  0
   -0.6810   -0.8266   -0.3050 C   0  0  2  0  0  0  0  0  0  0  0  0
   -0.2923   -0.6711   -1.6170 O   0  0  0  0  0  0  0  0  0  0  0  0
   -1.4342    0.3613    0.2315 C   0  0  2  0  0  0  0  0  0  0  0  0
   -1.7739    0.0917    1.5666 O   0  0  0  0  0  0  0  0  0  0  0  0
   -2.7242    0.5952   -0.5304 C   0  0  0  0  0  0  0  0  0  0  0  0
   -3.3850    1.6715    0.0348 O   0  0  0  0  0  0  0  0  0  0  0  0
    3.7160    0.9206    0.8966 H   0  0  0  0  0  0  0  0  0  0  0  0
    3.9748    1.2226   -0.7286 H   0  0  0  0  0  0  0  0  0  0  0  0
    1.6520    0.5413   -1.1669 H   0  0  0  0  0  0  0  0  0  0  0  0
    2.9130   -0.7053   -0.6459 H   0  0  0  0  0  0  0  0  0  0  0  0
    2.1009   -0.4143    1.7084 H   0  0  0  0  0  0  0  0  0  0  0  0
    0.9062    0.7853    1.1478 H   0  0  0  0  0  0  0  0  0  0  0  0
   -0.0612   -1.4182    1.6234 H   0  0  0  0  0  0  0  0  0  0  0  0
    1.2689   -2.4418   -0.6880 H   0  0  0  0  0  0  0  0  0  0  0  0
   -1.4147   -1.6816   -0.2798 H   0  0  0  0  0  0  0  0  0  0  0  0
   -0.5812    0.2123   -1.9818 H   0  0  0  0  0  0  0  0  0  0  0  0
   -0.8355    1.2814    0.2220 H   0  0  0  0  0  0  0  0  0  0  0  0
   -2.7123   -0.2175    1.6380 H   0  0  0  0  0  0  0  0  0  0  0  0
   -2.4666    0.8702   -1.5642 H   0  0  0  0  0  0  0  0  0  0  0  0
   -3.3602   -0.2911   -0.5607 H   0  0  0  0  0  0  0  0  0  0  0  0
   -3.2039    2.5258   -0.4342 H   0  0  0  0  0  0  0  0  0  0  0  0
  1  2  1  0
  2  3  1  0
  3  4  1  0
  4  5  1  0
  4  6  1  0
  6  7  1  0
  6  8  1  0
  8  9  1  0
  8 10  1  0
 10 11  1  0
  1 12  1  0
  1 13  1  0
  2 14  1  0
  2 15  1  0
  3 16  1  0
  3 17  1  0
  4 18  1  1
  5 19  1  0
  6 20  1  6
  7 21  1  0
  8 22  1  1
  9 23  1  0
 10 24  1  0
 10 25  1  0
 11 26  1  0
M  END
$$$$

     RDKit          3D

 26 25  0  0  0  0  0  0  0  0999 V2000
    3.7463    0.1637    0.6833 N   0  0  0  0  0  0  0  0  0  0  0  0
    2.3064    0.4510    0.6943 C   0  0  0  0  0  0  0  0  0  0  0  0
    1.6028   -0.8530    0.5931 C   0  0  0  0  0  0  0  0  0  0  0  0
    0.1102   -0.8095    0.6059 C   0  0  2  0  0  0  0  0  0  0  0  0
   -0.3218   -2.1645    0.5004 O   0  0  0  0  0  0  0  0  0  0  0  0
   -0.5227   -0.0097   -0.4803 C   0  0  2  0  0  0  0  0  0  0  0  0
   -0.1493    1.3205   -0.3817 O   0  0  0  0  0  0  0  0  0  0  0  0
   -2.0371   -0.1808   -0.4419 C   0  0  2  0  0  0  0  0  0  0  0  0
   -2.6340    0.5054   -1.5026 O   0  0  0  0  0  0  0  0  0  0  0  0
   -2.5960    0.2564    0.8851 C   0  0  0  0  0  0  0  0  0  0  0  0
   -2.4073    1.5988    1.1359 O   0  0  0  0  0  0  0  0  0  0  0  0
    3.8669   -0.6175   -0.0029 H   0  0  0  0  0  0  0  0  0  0  0  0
    4.2735    0.9807    0.2820 H   0  0  0  0  0  0  0  0  0  0  0  0
    2.1048    1.0910   -0.1936 H   0  0  0  0  0  0  0  0  0  0  0  0
    2.0290    0.9605    1.6157 H   0  0  0  0  0  0  0  0  0  0  0  0
    1.9730   -1.3699   -0.3179 H   0  0  0  0  0  0  0  0  0  0  0  0
    1.9600   -1.4899    1.4436 H   0  0  0  0  0  0  0  0  0  0  0  0
   -0.2437   -0.4395    1.5939 H   0  0  0  0  0  0  0  0  0  0  0  0
   -0.0670   -2.5072   -0.3972 H   0  0  0  0  0  0  0  0  0  0  0  0
   -0.1382   -0.3493   -1.4823 H   0  0  0  0  0  0  0  0  0  0  0  0
   -0.1068    1.6284    0.5618 H   0  0  0  0  0  0  0  0  0  0  0  0
   -2.2577   -1.2562   -0.5901 H   0  0  0  0  0  0  0  0  0  0  0  0
   -2.0755    1.2060   -1.8812 H   0  0  0  0  0  0  0  0  0  0  0  0
   -3.7120    0.1116    0.8137 H   0  0  0  0  0  0  0  0  0  0  0  0
   -2.2702   -0.3888    1.6997 H   0  0  0  0  0  0  0  0  0  0  0  0
   -2.4337    2.1617    0.3325 H   0  0  0  0  0  0  0  0  0  0  0  0
  1  2  1  0
  2  3  1  0
  3  4  1  0
  4  5  1  0
  4  6  1  0
  6  7  1  0
  6  8  1  0
  8  9  1  0
  8 10  1  0
 10 11  1  0
  1 12  1  0
  1 13  1  0
  2 14  1  0
  2 15  1  0
  3 16  1  0
  3 17  1  0
  4 18  1  1
  5 19  1  0
  6 20  1  6
  7 21  1  0
  8 22  1  6
  9 23  1  0
 10 24  1  0
 10 25  1  0
 11 26  1  0
M  END
$$$$

     RDKit          3D

 26 25  0  0  0  0  0  0  0  0999 V2000
    4.1722   -0.6435   -0.0943 N   0  0  0  0  0  0  0  0  0  0  0  0
    3.0130    0.2006    0.1324 C   0  0  0  0  0  0  0  0  0  0  0  0
    1.7347   -0.5755   -0.0981 C   0  0  0  0  0  0  0  0  0  0  0  0
    0.5674    0.3668    0.1561 C   0  0  2  0  0  0  0  0  0  0  0  0
    0.6233    0.8204    1.4456 O   0  0  0  0  0  0  0  0  0  0  0  0
   -0.7111   -0.3818   -0.1488 C   0  0  2  0  0  0  0  0  0  0  0  0
   -0.6695   -0.7977   -1.4736 O   0  0  0  0  0  0  0  0  0  0  0  0
   -1.8976    0.5508    0.0561 C   0  0  2  0  0  0  0  0  0  0  0  0
   -1.9616    0.9825    1.3783 O   0  0  0  0  0  0  0  0  0  0  0  0
   -3.1617   -0.2478   -0.2854 C   0  0  0  0  0  0  0  0  0  0  0  0
   -4.2830    0.5815   -0.1103 O   0  0  0  0  0  0  0  0  0  0  0  0
    4.0753   -1.5718    0.3608 H   0  0  0  0  0  0  0  0  0  0  0  0
    5.0328   -0.1673    0.1946 H   0  0  0  0  0  0  0  0  0  0  0  0
    3.0662    0.6138    1.1487 H   0  0  0  0  0  0  0  0  0  0  0  0
    3.0606    1.0397   -0.5757 H   0  0  0  0  0  0  0  0  0  0  0  0
    1.6736   -1.4227    0.6071 H   0  0  0  0  0  0  0  0  0  0  0  0
    1.7278   -0.9456   -1.1385 H   0  0  0  0  0  0  0  0  0  0  0  0
    0.6812    1.1995   -0.5729 H   0  0  0  0  0  0  0  0  0  0  0  0
    0.7878    1.8082    1.4790 H   0  0  0  0  0  0  0  0  0  0  0  0
   -0.8350   -1.2306    0.5465 H   0  0  0  0  0  0  0  0  0  0  0  0
   -1.1410   -0.1210   -2.0180 H   0  0  0  0  0  0  0  0  0  0  0  0
   -1.8468    1.4103   -0.6348 H   0  0  0  0  0  0  0  0  0  0  0  0
   -2.2437    0.1835    1.9186 H   0  0  0  0  0  0  0  0  0  0  0  0
   -3.2330   -1.1526    0.3491 H   0  0  0  0  0  0  0  0  0  0  0  0
   -3.1249   -0.5717   -1.3328 H   0  0  0  0  0  0  0  0  0  0  0  0
   -5.1071    0.0720   -0.0133 H   0  0  0  0  0  0  0  0  0  0  0  0
  1  2  1  0
  2  3  1  0
  3  4  1  0
  4  5  1  0
  4  6  1  0
  6  7  1  0
  6  8  1  0
  8  9  1  0
  8 10  1  0
 10 11  1  0
  1 12  1  0
  1 13  1  0
  2 14  1  0
  2 15  1  0
  3 16  1  0
  3 17  1  0
  4 18  1  6
  5 19  1  0
  6 20  1  1
  7 21  1  0
  8 22  1  6
  9 23  1  0
 10 24  1  0
 10 25  1  0
 11 26  1  0
M  END
$$$$

     RDKit          3D

 26 25  0  0  0  0  0  0  0  0999 V2000
   -3.6030    0.8043    1.0492 N   0  0  0  0  0  0  0  0  0  0  0  0
   -2.8335    0.1960   -0.0113 C   0  0  0  0  0  0  0  0  0  0  0  0
   -1.3876    0.0771    0.4868 C   0  0  0  0  0  0  0  0  0  0  0  0
   -0.6111   -0.5618   -0.6449 C   0  0  2  0  0  0  0  0  0  0  0  0
   -1.1742   -1.8126   -0.9081 O   0  0  0  0  0  0  0  0  0  0  0  0
    0.8440   -0.7637   -0.2898 C   0  0  2  0  0  0  0  0  0  0  0  0
    0.9786   -1.5691    0.8295 O   0  0  0  0  0  0  0  0  0  0  0  0
    1.5054    0.5736   -0.1592 C   0  0  2  0  0  0  0  0  0  0  0  0
    1.2883    1.2681   -1.3479 O   0  0  0  0  0  0  0  0  0  0  0  0
    2.9969    0.4338    0.0810 C   0  0  0  0  0  0  0  0  0  0  0  0
    3.2689   -0.2492    1.2501 O   0  0  0  0  0  0  0  0  0  0  0  0
   -4.6210    0.8059    0.8672 H   0  0  0  0  0  0  0  0  0  0  0  0
   -3.2271    1.7384    1.3240 H   0  0  0  0  0  0  0  0  0  0  0  0
   -3.2552   -0.8020   -0.2139 H   0  0  0  0  0  0  0  0  0  0  0  0
   -2.8703    0.7646   -0.9509 H   0  0  0  0  0  0  0  0  0  0  0  0
   -0.9894    1.0733    0.6861 H   0  0  0  0  0  0  0  0  0  0  0  0
   -1.3141   -0.5842    1.3489 H   0  0  0  0  0  0  0  0  0  0  0  0
   -0.6809    0.0394   -1.5573 H   0  0  0  0  0  0  0  0  0  0  0  0
   -0.8383   -2.4217   -0.2086 H   0  0  0  0  0  0  0  0  0  0  0  0
    1.3108   -1.2577   -1.1906 H   0  0  0  0  0  0  0  0  0  0  0  0
    1.0921   -1.0239    1.6488 H   0  0  0  0  0  0  0  0  0  0  0  0
    1.0446    1.1625    0.6775 H   0  0  0  0  0  0  0  0  0  0  0  0
    2.1134    1.5926   -1.7578 H   0  0  0  0  0  0  0  0  0  0  0  0
    3.4588    1.4340    0.1101 H   0  0  0  0  0  0  0  0  0  0  0  0
    3.4312   -0.1033   -0.7846 H   0  0  0  0  0  0  0  0  0  0  0  0
    4.0726   -0.8146    1.1065 H   0  0  0  0  0  0  0  0  0  0  0  0
  1  2  1  0
  2  3  1  0
  3  4  1  0
  4  5  1  0
  4  6  1  0
  6  7  1  0
  6  8  1  0
  8  9  1  0
  8 10  1  0
 10 11  1  0
  1 12  1  0
  1 13  1  0
  2 14  1  0
  2 15  1  0
  3 16  1  0
  3 17  1  0
  4 18  1  6
  5 19  1  0
  6 20  1  6
  7 21  1  0
  8 22  1  1
  9 23  1  0
 10 24  1  0
 10 25  1  0
 11 26  1  0
M  END
$$$$
