
     RDKit          3D

 27 27  0  0  0  0  0  0  0  0999 V2000
   -3.9555    1.4623    0.5276 C   0  0  0  0  0  0  0  0  0  0  0  0
   -3.0658    0.6323   -0.1346 O   0  0  0  0  0  0  0  0  0  0  0  0
   -2.6253   -0.4171    0.6635 C   0  0  0  0  0  0  0  0  0  0  0  0
   -1.6642   -1.2763   -0.1177 C   0  0  0  0  0  0  0  0  0  0  0  0
   -0.5030   -0.5066   -0.5555 N   0  0  0  0  0  0  0  0  0  0  0  0
    0.4985   -1.1674   -1.3037 C   0  0  0  0  0  0  0  0  0  0  0  0
    0.2994   -2.4025   -1.5566 O   0  0  0  0  0  0  0  0  0  0  0  0
    1.7349   -0.5625   -1.8173 C   0  0  1  0  0  0  0  0  0  0  0  0
    1.9751    0.8904   -1.8396 C   0  0  0  0  0  0  0  0  0  0  0  0
    2.8001   -0.0257   -0.9253 C   0  0  1  0  0  0  0  0  0  0  0  0
    2.6940    0.1449    0.5134 C   0  0  0  0  0  0  0  0  0  0  0  0
    3.9194    0.2041    1.2734 N   0  0  0  0  0  0  0  0  0  0  0  0
    1.6413    0.2490    1.1885 O   0  0  0  0  0  0  0  0  0  0  0  0
   -4.2522    2.2637   -0.1768 H   0  0  0  0  0  0  0  0  0  0  0  0
   -4.8764    0.9198    0.8480 H   0  0  0  0  0  0  0  0  0  0  0  0
   -3.5331    1.9179    1.4443 H   0  0  0  0  0  0  0  0  0  0  0  0
   -2.2068   -0.0577    1.6138 H   0  0  0  0  0  0  0  0  0  0  0  0
   -3.5153   -1.0508    0.8802 H   0  0  0  0  0  0  0  0  0  0  0  0
   -1.2810   -2.1258    0.4696 H   0  0  0  0  0  0  0  0  0  0  0  0
   -2.1924   -1.6689   -1.0076 H   0  0  0  0  0  0  0  0  0  0  0  0
   -0.4023    0.4988   -0.3624 H   0  0  0  0  0  0  0  0  0  0  0  0
    2.2305   -1.1813   -2.6416 H   0  0  0  0  0  0  0  0  0  0  0  0
    1.2422    1.5639   -1.3507 H   0  0  0  0  0  0  0  0  0  0  0  0
    2.4874    1.3703   -2.6988 H   0  0  0  0  0  0  0  0  0  0  0  0
    3.8839   -0.1172   -1.2827 H   0  0  0  0  0  0  0  0  0  0  0  0
    4.1154    1.0374    1.8281 H   0  0  0  0  0  0  0  0  0  0  0  0
    4.5512   -0.5950    1.2289 H   0  0  0  0  0  0  0  0  0  0  0  0
  1  2  1  0
  2  3  1  0
  3  4  1  0
  4  5  1  0
  5  6  1  0
  6  7  2  0
  6  8  1  0
  8  9  1  0
  9 10  1  0
 10 11  1  0
 11 12  1  0
 11 13  2  0
 10  8  1  0
  1 14  1  0
  1 15  1  0
  1 16  1  0
  3 17  1  0
  3 18  1  0
  4 19  1  0
  4 20  1  0
  5 21  1  0
  8 22  1  6
  9 23  1  0
  9 24  1  0
 10 25  1  6
 12 26  1  0
 12 27  1  0
M  END
$$$$

     RDKit          3D

 27 27  0  0  0  0  0  0  0  0999 V2000
   -3.9931    0.2248    1.7220 C   0  0  0  0  0  0  0  0  0  0  0  0
   -4.0104    0.1944    0.3499 O   0  0  0  0  0  0  0  0  0  0  0  0
   -2.7988    0.0225   -0.2493 C   0  0  0  0  0  0  0  0  0  0  0  0
   -2.0774   -1.2589    0.0940 C   0  0  0  0  0  0  0  0  0  0  0  0
   -0.8073   -1.3671   -0.5827 N   0  0  0  0  0  0  0  0  0  0  0  0
    0.2710   -0.4377   -0.4230 C   0  0  0  0  0  0  0  0  0  0  0  0
    0.0754    0.5151    0.3564 O   0  0  0  0  0  0  0  0  0  0  0  0
    1.5474   -0.5760   -1.1266 C   0  0  1  0  0  0  0  0  0  0  0  0
    2.0931    0.6766   -1.7727 C   0  0  0  0  0  0  0  0  0  0  0  0
    2.8453   -0.1040   -0.6717 C   0  0  1  0  0  0  0  0  0  0  0  0
    3.1357    0.7065    0.4999 C   0  0  0  0  0  0  0  0  0  0  0  0
    4.4705    0.7210    1.0250 N   0  0  0  0  0  0  0  0  0  0  0  0
    2.3271    1.4277    1.1378 O   0  0  0  0  0  0  0  0  0  0  0  0
   -3.6083   -0.7188    2.1086 H   0  0  0  0  0  0  0  0  0  0  0  0
   -5.0603    0.3775    2.0589 H   0  0  0  0  0  0  0  0  0  0  0  0
   -3.3854    1.1089    2.0510 H   0  0  0  0  0  0  0  0  0  0  0  0
   -3.0072   -0.0610   -1.3612 H   0  0  0  0  0  0  0  0  0  0  0  0
   -2.1391    0.9196   -0.1860 H   0  0  0  0  0  0  0  0  0  0  0  0
   -1.9626   -1.3772    1.1991 H   0  0  0  0  0  0  0  0  0  0  0  0
   -2.7112   -2.0895   -0.2658 H   0  0  0  0  0  0  0  0  0  0  0  0
   -0.5892   -2.1611   -1.2565 H   0  0  0  0  0  0  0  0  0  0  0  0
    1.6006   -1.4731   -1.8361 H   0  0  0  0  0  0  0  0  0  0  0  0
    2.4949    0.6389   -2.7957 H   0  0  0  0  0  0  0  0  0  0  0  0
    1.6419    1.6401   -1.5080 H   0  0  0  0  0  0  0  0  0  0  0  0
    3.7456   -0.6430   -1.0733 H   0  0  0  0  0  0  0  0  0  0  0  0
    5.3233    0.9166    0.4691 H   0  0  0  0  0  0  0  0  0  0  0  0
    4.5786    0.5196    2.0369 H   0  0  0  0  0  0  0  0  0  0  0  0
  1  2  1  0
  2  3  1  0
  3  4  1  0
  4  5  1  0
  5  6  1  0
  6  7  2  0
  6  8  1  0
  8  9  1  0
  9 10  1  0
 10 11  1  0
 11 12  1  0
 11 13  2  0
 10  8  1  0
  1 14  1  0
  1 15  1  0
  1 16  1  0
  3 17  1  0
  3 18  1  0
  4 19  1  0
  4 20  1  0
  5 21  1  0
  8 22  1  6
  9 23  1  0
  9 24  1  0
 10 25  1  6
 12 26  1  0
 12 27  1  0
M  END
$$$$

     RDKit          3D

 27 27  0  0  0  0  0  0  0  0999 V2000
   -4.3781   -0.2860    1.6678 C   0  0  0  0  0  0  0  0  0  0  0  0
   -3.1477    0.1519    1.2287 O   0  0  0  0  0  0  0  0  0  0  0  0
   -3.1808    0.7780    0.0050 C   0  0  0  0  0  0  0  0  0  0  0  0
   -1.7751    1.1994   -0.3441 C   0  0  0  0  0  0  0  0  0  0  0  0
   -0.8995    0.0463   -0.4110 N   0  0  0  0  0  0  0  0  0  0  0  0
    0.5074    0.1939   -0.7312 C   0  0  0  0  0  0  0  0  0  0  0  0
    0.8646    1.3744   -0.9341 O   0  0  0  0  0  0  0  0  0  0  0  0
    1.3973   -0.9662   -0.8004 C   0  0  1  0  0  0  0  0  0  0  0  0
    2.5015   -1.0753   -1.8139 C   0  0  0  0  0  0  0  0  0  0  0  0
    2.7722   -0.8914   -0.3161 C   0  0  1  0  0  0  0  0  0  0  0  0
    3.5454    0.3167   -0.0390 C   0  0  0  0  0  0  0  0  0  0  0  0
    4.6111    0.2601    0.9229 N   0  0  0  0  0  0  0  0  0  0  0  0
    3.3564    1.4130   -0.5754 O   0  0  0  0  0  0  0  0  0  0  0  0
   -5.1189    0.5287    1.7842 H   0  0  0  0  0  0  0  0  0  0  0  0
   -4.2367   -0.8049    2.6300 H   0  0  0  0  0  0  0  0  0  0  0  0
   -4.7684   -1.0178    0.9397 H   0  0  0  0  0  0  0  0  0  0  0  0
   -3.8286    1.6829   -0.0063 H   0  0  0  0  0  0  0  0  0  0  0  0
   -3.5034    0.0449   -0.7830 H   0  0  0  0  0  0  0  0  0  0  0  0
   -1.4040    1.8162    0.5257 H   0  0  0  0  0  0  0  0  0  0  0  0
   -1.7254    1.7762   -1.2889 H   0  0  0  0  0  0  0  0  0  0  0  0
   -1.2125   -0.9334   -0.2391 H   0  0  0  0  0  0  0  0  0  0  0  0
    0.9151   -1.9905   -0.6246 H   0  0  0  0  0  0  0  0  0  0  0  0
    2.6768   -0.2351   -2.4967 H   0  0  0  0  0  0  0  0  0  0  0  0
    2.8279   -2.0432   -2.2000 H   0  0  0  0  0  0  0  0  0  0  0  0
    3.1592   -1.7944    0.2517 H   0  0  0  0  0  0  0  0  0  0  0  0
    4.9661    1.1047    1.4166 H   0  0  0  0  0  0  0  0  0  0  0  0
    5.0781   -0.6491    1.1669 H   0  0  0  0  0  0  0  0  0  0  0  0
  1  2  1  0
  2  3  1  0
  3  4  1  0
  4  5  1  0
  5  6  1  0
  6  7  2  0
  6  8  1  0
  8  9  1  0
  9 10  1  0
 10 11  1  0
 11 12  1  0
 11 13  2  0
 10  8  1  0
  1 14  1  0
  1 15  1  0
  1 16  1  0
  3 17  1  0
  3 18  1  0
  4 19  1  0
  4 20  1  0
  5 21  1  0
  8 22  1  1
  9 23  1  0
  9 24  1  0
 10 25  1  1
 12 26  1  0
 12 27  1  0
M  END
$$$$

     RDKit          3D

 27 27  0  0  0  0  0  0  0  0999 V2000
   -4.6719    0.6616    0.0685 C   0  0  0  0  0  0  0  0  0  0  0  0
   -3.3320    0.6453    0.3723 O   0  0  0  0  0  0  0  0  0  0  0  0
   -2.9203   -0.5627    0.9079 C   0  0  0  0  0  0  0  0  0  0  0  0
   -1.4514   -0.5614    1.2339 C   0  0  0  0  0  0  0  0  0  0  0  0
   -0.6810   -0.3200    0.0405 N   0  0  0  0  0  0  0  0  0  0  0  0
    0.7618   -0.2679    0.0730 C   0  0  0  0  0  0  0  0  0  0  0  0
    1.2703   -0.4438    1.1853 O   0  0  0  0  0  0  0  0  0  0  0  0
    1.5006   -0.0229   -1.1481 C   0  0  1  0  0  0  0  0  0  0  0  0
    2.6119    1.0247   -1.1275 C   0  0  0  0  0  0  0  0  0  0  0  0
    2.8495   -0.4613   -1.4827 C   0  0  1  0  0  0  0  0  0  0  0  0
    3.8312   -1.0908   -0.6293 C   0  0  0  0  0  0  0  0  0  0  0  0
    3.8188   -0.9245    0.7702 N   0  0  0  0  0  0  0  0  0  0  0  0
    4.7384   -1.8128   -1.1080 O   0  0  0  0  0  0  0  0  0  0  0  0
   -5.2977    0.4785    0.9906 H   0  0  0  0  0  0  0  0  0  0  0  0
   -4.9753   -0.0725   -0.6941 H   0  0  0  0  0  0  0  0  0  0  0  0
   -4.9812    1.6654   -0.2854 H   0  0  0  0  0  0  0  0  0  0  0  0
   -3.1479   -1.3754    0.1786 H   0  0  0  0  0  0  0  0  0  0  0  0
   -3.4867   -0.7599    1.8474 H   0  0  0  0  0  0  0  0  0  0  0  0
   -1.2702    0.3119    1.9181 H   0  0  0  0  0  0  0  0  0  0  0  0
   -1.1303   -1.4620    1.7727 H   0  0  0  0  0  0  0  0  0  0  0  0
   -1.1614   -0.1808   -0.8580 H   0  0  0  0  0  0  0  0  0  0  0  0
    0.8334    0.1292   -2.0619 H   0  0  0  0  0  0  0  0  0  0  0  0
    2.9122    1.3676   -0.1330 H   0  0  0  0  0  0  0  0  0  0  0  0
    2.7054    1.7445   -1.9488 H   0  0  0  0  0  0  0  0  0  0  0  0
    3.0429   -0.6657   -2.5885 H   0  0  0  0  0  0  0  0  0  0  0  0
    3.9626    0.0129    1.2513 H   0  0  0  0  0  0  0  0  0  0  0  0
    3.6683   -1.7236    1.4553 H   0  0  0  0  0  0  0  0  0  0  0  0
  1  2  1  0
  2  3  1  0
  3  4  1  0
  4  5  1  0
  5  6  1  0
  6  7  2  0
  6  8  1  0
  8  9  1  0
  9 10  1  0
 10 11  1  0
 11 12  1  0
 11 13  2  0
 10  8  1  0
  1 14  1  0
  1 15  1  0
  1 16  1  0
  3 17  1  0
  3 18  1  0
  4 19  1  0
  4 20  1  0
  5 21  1  0
  8 22  1  6
  9 23  1  0
  9 24  1  0
 10 25  1  6
 12 26  1  0
 12 27  1  0
M  END
$$$$

     RDKit          3D

 27 27  0  0  0  0  0  0  0  0999 V2000
    4.4361   -1.1298    0.1677 C   0  0  0  0  0  0  0  0  0  0  0  0
    3.9068    0.0167    0.7238 O   0  0  0  0  0  0  0  0  0  0  0  0
    2.5572   -0.0654    1.0344 C   0  0  0  0  0  0  0  0  0  0  0  0
    1.7851   -0.3392   -0.2053 C   0  0  0  0  0  0  0  0  0  0  0  0
    0.3495   -0.4373    0.0373 N   0  0  0  0  0  0  0  0  0  0  0  0
   -0.4838   -0.6976   -1.0830 C   0  0  0  0  0  0  0  0  0  0  0  0
    0.1059   -0.8375   -2.2195 O   0  0  0  0  0  0  0  0  0  0  0  0
   -1.9257   -0.8286   -1.0903 C   0  0  1  0  0  0  0  0  0  0  0  0
   -2.5070   -1.2815    0.2514 C   0  0  0  0  0  0  0  0  0  0  0  0
   -2.9153   -0.0007   -0.3771 C   0  0  1  0  0  0  0  0  0  0  0  0
   -2.7169    1.3047    0.1911 C   0  0  0  0  0  0  0  0  0  0  0  0
   -3.7797    2.2800    0.1989 N   0  0  0  0  0  0  0  0  0  0  0  0
   -1.6560    1.6883    0.7031 O   0  0  0  0  0  0  0  0  0  0  0  0
    4.2793   -1.9493    0.9292 H   0  0  0  0  0  0  0  0  0  0  0  0
    5.5404   -0.9508    0.0368 H   0  0  0  0  0  0  0  0  0  0  0  0
    4.0653   -1.3957   -0.8221 H   0  0  0  0  0  0  0  0  0  0  0  0
    2.2404    0.9163    1.4517 H   0  0  0  0  0  0  0  0  0  0  0  0
    2.4274   -0.8506    1.8092 H   0  0  0  0  0  0  0  0  0  0  0  0
    1.9407    0.4169   -0.9739 H   0  0  0  0  0  0  0  0  0  0  0  0
    2.0605   -1.3345   -0.6558 H   0  0  0  0  0  0  0  0  0  0  0  0
   -0.0575   -0.3452    0.9805 H   0  0  0  0  0  0  0  0  0  0  0  0
   -2.3230   -1.2744   -2.0525 H   0  0  0  0  0  0  0  0  0  0  0  0
   -3.1335   -2.1946    0.2086 H   0  0  0  0  0  0  0  0  0  0  0  0
   -1.8898   -1.2071    1.1458 H   0  0  0  0  0  0  0  0  0  0  0  0
   -3.9815   -0.1044   -0.8115 H   0  0  0  0  0  0  0  0  0  0  0  0
   -3.9394    2.8383    1.0648 H   0  0  0  0  0  0  0  0  0  0  0  0
   -4.3856    2.4326   -0.6435 H   0  0  0  0  0  0  0  0  0  0  0  0
  1  2  1  0
  2  3  1  0
  3  4  1  0
  4  5  1  0
  5  6  1  0
  6  7  2  0
  6  8  1  0
  8  9  1  0
  9 10  1  0
 10 11  1  0
 11 12  1  0
 11 13  2  0
 10  8  1  0
  1 14  1  0
  1 15  1  0
  1 16  1  0
  3 17  1  0
  3 18  1  0
  4 19  1  0
  4 20  1  0
  5 21  1  0
  8 22  1  6
  9 23  1  0
  9 24  1  0
 10 25  1  6
 12 26  1  0
 12 27  1  0
M  END
$$$$

     RDKit          3D

 27 27  0  0  0  0  0  0  0  0999 V2000
    4.3035   -0.1948    1.4515 C   0  0  0  0  0  0  0  0  0  0  0  0
    4.1348    0.7163    0.4204 O   0  0  0  0  0  0  0  0  0  0  0  0
    3.0549    0.4107   -0.3926 C   0  0  0  0  0  0  0  0  0  0  0  0
    1.7513    0.3828    0.3405 C   0  0  0  0  0  0  0  0  0  0  0  0
    0.7043    0.0552   -0.6054 N   0  0  0  0  0  0  0  0  0  0  0  0
   -0.6711   -0.0460   -0.1928 C   0  0  0  0  0  0  0  0  0  0  0  0
   -0.8743    0.1677    1.0175 O   0  0  0  0  0  0  0  0  0  0  0  0
   -1.6542   -0.3815   -1.2208 C   0  0  1  0  0  0  0  0  0  0  0  0
   -2.8999   -1.1508   -0.9575 C   0  0  0  0  0  0  0  0  0  0  0  0
   -2.9636    0.3074   -1.2273 C   0  0  1  0  0  0  0  0  0  0  0  0
   -3.5206    1.1197   -0.1441 C   0  0  0  0  0  0  0  0  0  0  0  0
   -3.3499    0.7962    1.2091 N   0  0  0  0  0  0  0  0  0  0  0  0
   -4.2014    2.1730   -0.3796 O   0  0  0  0  0  0  0  0  0  0  0  0
    4.4729   -1.2026    1.0638 H   0  0  0  0  0  0  0  0  0  0  0  0
    5.2360    0.1028    1.9893 H   0  0  0  0  0  0  0  0  0  0  0  0
    3.4633   -0.1148    2.1599 H   0  0  0  0  0  0  0  0  0  0  0  0
    2.9883    1.2244   -1.1528 H   0  0  0  0  0  0  0  0  0  0  0  0
    3.2387   -0.5308   -0.9426 H   0  0  0  0  0  0  0  0  0  0  0  0
    1.7119   -0.3782    1.1418 H   0  0  0  0  0  0  0  0  0  0  0  0
    1.5836    1.4111    0.7740 H   0  0  0  0  0  0  0  0  0  0  0  0
    0.9427   -0.1092   -1.5919 H   0  0  0  0  0  0  0  0  0  0  0  0
   -1.2534   -0.5868   -2.2681 H   0  0  0  0  0  0  0  0  0  0  0  0
   -3.3031   -1.8611   -1.7168 H   0  0  0  0  0  0  0  0  0  0  0  0
   -3.0096   -1.5123    0.0787 H   0  0  0  0  0  0  0  0  0  0  0  0
   -3.3090    0.6387   -2.2668 H   0  0  0  0  0  0  0  0  0  0  0  0
   -3.5269   -0.1789    1.5248 H   0  0  0  0  0  0  0  0  0  0  0  0
   -3.0492    1.5492    1.8880 H   0  0  0  0  0  0  0  0  0  0  0  0
  1  2  1  0
  2  3  1  0
  3  4  1  0
  4  5  1  0
  5  6  1  0
  6  7  2  0
  6  8  1  0
  8  9  1  0
  9 10  1  0
 10 11  1  0
 11 12  1  0
 11 13  2  0
 10  8  1  0
  1 14  1  0
  1 15  1  0
  1 16  1  0
  3 17  1  0
  3 18  1  0
  4 19  1  0
  4 20  1  0
  5 21  1  0
  8 22  1  6
  9 23  1  0
  9 24  1  0
 10 25  1  6
 12 26  1  0
 12 27  1  0
M  END
$$$$

     RDKit          3D

 27 27  0  0  0  0  0  0  0  0999 V2000
    4.0509    0.0673    0.8619 C   0  0  0  0  0  0  0  0  0  0  0  0
    3.2024   -0.1545   -0.2331 O   0  0  0  0  0  0  0  0  0  0  0  0
    2.5904    1.0219   -0.6495 C   0  0  0  0  0  0  0  0  0  0  0  0
    1.7042    0.7148   -1.8143 C   0  0  0  0  0  0  0  0  0  0  0  0
    0.6889   -0.2435   -1.4553 N   0  0  0  0  0  0  0  0  0  0  0  0
   -0.2893   -0.0071   -0.4212 C   0  0  0  0  0  0  0  0  0  0  0  0
   -0.1976    1.0992    0.1499 O   0  0  0  0  0  0  0  0  0  0  0  0
   -1.3105   -1.0031   -0.0773 C   0  0  1  0  0  0  0  0  0  0  0  0
   -1.6933   -1.2329    1.3616 C   0  0  0  0  0  0  0  0  0  0  0  0
   -2.6772   -0.7183    0.3560 C   0  0  1  0  0  0  0  0  0  0  0  0
   -3.2474    0.5978    0.6364 C   0  0  0  0  0  0  0  0  0  0  0  0
   -4.6371    0.8618    0.4606 N   0  0  0  0  0  0  0  0  0  0  0  0
   -2.5309    1.5357    1.0406 O   0  0  0  0  0  0  0  0  0  0  0  0
    4.4901   -0.9158    1.1217 H   0  0  0  0  0  0  0  0  0  0  0  0
    4.8051    0.8342    0.6154 H   0  0  0  0  0  0  0  0  0  0  0  0
    3.4600    0.4167    1.7579 H   0  0  0  0  0  0  0  0  0  0  0  0
    2.0773    1.5643    0.1439 H   0  0  0  0  0  0  0  0  0  0  0  0
    3.4271    1.6857   -1.0112 H   0  0  0  0  0  0  0  0  0  0  0  0
    2.2937    0.2724   -2.6478 H   0  0  0  0  0  0  0  0  0  0  0  0
    1.2402    1.6328   -2.2371 H   0  0  0  0  0  0  0  0  0  0  0  0
    0.6096   -1.1759   -1.9360 H   0  0  0  0  0  0  0  0  0  0  0  0
   -1.2119   -1.9664   -0.6825 H   0  0  0  0  0  0  0  0  0  0  0  0
   -1.2942   -0.5215    2.0975 H   0  0  0  0  0  0  0  0  0  0  0  0
   -1.7772   -2.2819    1.7331 H   0  0  0  0  0  0  0  0  0  0  0  0
   -3.4832   -1.4596    0.0385 H   0  0  0  0  0  0  0  0  0  0  0  0
   -5.1101    1.5816    1.0483 H   0  0  0  0  0  0  0  0  0  0  0  0
   -5.1798    0.3325   -0.2580 H   0  0  0  0  0  0  0  0  0  0  0  0
  1  2  1  0
  2  3  1  0
  3  4  1  0
  4  5  1  0
  5  6  1  0
  6  7  2  0
  6  8  1  0
  8  9  1  0
  9 10  1  0
 10 11  1  0
 11 12  1  0
 11 13  2  0
 10  8  1  0
  1 14  1  0
  1 15  1  0
  1 16  1  0
  3 17  1  0
  3 18  1  0
  4 19  1  0
  4 20  1  0
  5 21  1  0
  8 22  1  6
  9 23  1  0
  9 24  1  0
 10 25  1  6
 12 26  1  0
 12 27  1  0
M  END
$$$$

     RDKit          3D

 27 27  0  0  0  0  0  0  0  0999 V2000
    3.6154    1.1518   -1.2858 C   0  0  0  0  0  0  0  0  0  0  0  0
    2.5079    1.6003   -0.5992 O   0  0  0  0  0  0  0  0  0  0  0  0
    2.4090    1.1124    0.6822 C   0  0  0  0  0  0  0  0  0  0  0  0
    2.3226   -0.3854    0.7429 C   0  0  0  0  0  0  0  0  0  0  0  0
    1.1935   -0.9345    0.0483 N   0  0  0  0  0  0  0  0  0  0  0  0
   -0.1649   -0.6038    0.4064 C   0  0  0  0  0  0  0  0  0  0  0  0
   -0.3369    0.1939    1.3639 O   0  0  0  0  0  0  0  0  0  0  0  0
   -1.2616   -1.1994   -0.3456 C   0  0  1  0  0  0  0  0  0  0  0  0
   -2.3691   -1.8015    0.4932 C   0  0  0  0  0  0  0  0  0  0  0  0
   -2.6044   -0.6572   -0.5139 C   0  0  1  0  0  0  0  0  0  0  0  0
   -3.1559    0.5342    0.1202 C   0  0  0  0  0  0  0  0  0  0  0  0
   -4.2481    1.1979   -0.4877 N   0  0  0  0  0  0  0  0  0  0  0  0
   -2.7474    1.0600    1.1982 O   0  0  0  0  0  0  0  0  0  0  0  0
    3.5806    1.6205   -2.3120 H   0  0  0  0  0  0  0  0  0  0  0  0
    3.5104    0.0562   -1.4892 H   0  0  0  0  0  0  0  0  0  0  0  0
    4.5766    1.4314   -0.8539 H   0  0  0  0  0  0  0  0  0  0  0  0
    3.2960    1.4863    1.2653 H   0  0  0  0  0  0  0  0  0  0  0  0
    1.5342    1.5451    1.1739 H   0  0  0  0  0  0  0  0  0  0  0  0
    2.3000   -0.6739    1.8263 H   0  0  0  0  0  0  0  0  0  0  0  0
    3.2479   -0.8006    0.3409 H   0  0  0  0  0  0  0  0  0  0  0  0
    1.3472   -1.6064   -0.7563 H   0  0  0  0  0  0  0  0  0  0  0  0
   -0.9356   -1.9059   -1.1598 H   0  0  0  0  0  0  0  0  0  0  0  0
   -2.8193   -2.7660    0.2117 H   0  0  0  0  0  0  0  0  0  0  0  0
   -2.3719   -1.5743    1.5593 H   0  0  0  0  0  0  0  0  0  0  0  0
   -3.1464   -0.9531   -1.4576 H   0  0  0  0  0  0  0  0  0  0  0  0
   -5.1960    1.0631   -0.1140 H   0  0  0  0  0  0  0  0  0  0  0  0
   -4.0835    1.8090   -1.2976 H   0  0  0  0  0  0  0  0  0  0  0  0
  1  2  1  0
  2  3  1  0
  3  4  1  0
  4  5  1  0
  5  6  1  0
  6  7  2  0
  6  8  1  0
  8  9  1  0
  9 10  1  0
 10 11  1  0
 11 12  1  0
 11 13  2  0
 10  8  1  0
  1 14  1  0
  1 15  1  0
  1 16  1  0
  3 17  1  0
  3 18  1  0
  4 19  1  0
  4 20  1  0
  5 21  1  0
  8 22  1  6
  9 23  1  0
  9 24  1  0
 10 25  1  6
 12 26  1  0
 12 27  1  0
M  END
$$$$
