
     RDKit          3D

 23 23  0  0  0  0  0  0  0  0999 V2000
    3.9440   -0.9575    0.4935 N   0  0  0  0  0  0  0  0  0  0  0  0
    2.9130   -0.3181   -0.2727 C   0  0  0  0  0  0  0  0  0  0  0  0
    1.6028   -0.5266    0.4114 C   0  0  0  0  0  0  0  0  0  0  0  0
    0.5671    0.1388   -0.3960 N   0  0  0  0  0  0  0  0  0  0  0  0
   -0.7901    0.0931    0.0366 C   0  0  0  0  0  0  0  0  0  0  0  0
   -1.1447   -0.5510    1.1764 N   0  0  0  0  0  0  0  0  0  0  0  0
   -2.4255   -0.5950    1.5859 C   0  0  0  0  0  0  0  0  0  0  0  0
   -3.3576    0.0165    0.8387 N   0  0  0  0  0  0  0  0  0  0  0  0
   -3.0725    0.6707   -0.2990 C   0  0  0  0  0  0  0  0  0  0  0  0
   -3.9709    1.2420   -0.9899 O   0  0  0  0  0  0  0  0  0  0  0  0
   -1.7577    0.7161   -0.7199 C   0  0  0  0  0  0  0  0  0  0  0  0
   -1.4118    1.3940   -1.9122 N   0  0  0  0  0  0  0  0  0  0  0  0
    3.9378   -1.9823    0.4557 H   0  0  0  0  0  0  0  0  0  0  0  0
    4.8699   -0.5069    0.4408 H   0  0  0  0  0  0  0  0  0  0  0  0
    3.1224    0.7791   -0.2644 H   0  0  0  0  0  0  0  0  0  0  0  0
    2.8546   -0.7182   -1.3189 H   0  0  0  0  0  0  0  0  0  0  0  0
    1.3102   -1.6067    0.4334 H   0  0  0  0  0  0  0  0  0  0  0  0
    1.6299   -0.1131    1.4337 H   0  0  0  0  0  0  0  0  0  0  0  0
    0.8071    0.6418   -1.2763 H   0  0  0  0  0  0  0  0  0  0  0  0
   -2.6968   -1.1138    2.5001 H   0  0  0  0  0  0  0  0  0  0  0  0
   -4.3446   -0.0328    1.1794 H   0  0  0  0  0  0  0  0  0  0  0  0
   -1.7491    2.3650   -2.0430 H   0  0  0  0  0  0  0  0  0  0  0  0
   -0.8375    0.9649   -2.6598 H   0  0  0  0  0  0  0  0  0  0  0  0
  1  2  1  0
  2  3  1  0
  3  4  1  0
  4  5  1  0
  5  6  1  0
  6  7  2  0
  7  8  1  0
  8  9  1  0
  9 10  2  0
  9 11  1  0
 11 12  1  0
 11  5  2  0
  1 13  1  0
  1 14  1  0
  2 15  1  0
  2 16  1  0
  3 17  1  0
  3 18  1  0
  4 19  1  0
  7 20  1  0
  8 21  1  0
 12 22  1  0
 12 23  1  0
M  END
$$$$

     RDKit          3D

 23 23  0  0  0  0  0  0  0  0999 V2000
    2.7853    0.2442   -1.2403 N   0  0  0  0  0  0  0  0  0  0  0  0
    2.4378   -0.7050   -0.2177 C   0  0  0  0  0  0  0  0  0  0  0  0
    1.8243   -0.0521    0.9996 C   0  0  0  0  0  0  0  0  0  0  0  0
    0.6222    0.6663    0.7212 N   0  0  0  0  0  0  0  0  0  0  0  0
   -0.5261    0.0327    0.1770 C   0  0  0  0  0  0  0  0  0  0  0  0
   -0.5507   -1.2860   -0.1096 N   0  0  0  0  0  0  0  0  0  0  0  0
   -1.6436   -1.8743   -0.6244 C   0  0  0  0  0  0  0  0  0  0  0  0
   -2.7816   -1.1759   -0.8842 N   0  0  0  0  0  0  0  0  0  0  0  0
   -2.7873    0.1296   -0.6112 C   0  0  0  0  0  0  0  0  0  0  0  0
   -3.8081    0.8259   -0.8296 O   0  0  0  0  0  0  0  0  0  0  0  0
   -1.6785    0.7551   -0.0829 C   0  0  0  0  0  0  0  0  0  0  0  0
   -1.7348    2.1496    0.1907 N   0  0  0  0  0  0  0  0  0  0  0  0
    3.2387    1.1107   -0.8340 H   0  0  0  0  0  0  0  0  0  0  0  0
    3.5589   -0.2065   -1.8148 H   0  0  0  0  0  0  0  0  0  0  0  0
    1.7663   -1.4624   -0.6217 H   0  0  0  0  0  0  0  0  0  0  0  0
    3.3736   -1.1940    0.1190 H   0  0  0  0  0  0  0  0  0  0  0  0
    1.5466   -0.9013    1.6889 H   0  0  0  0  0  0  0  0  0  0  0  0
    2.5784    0.5293    1.5377 H   0  0  0  0  0  0  0  0  0  0  0  0
    0.5821    1.6863    0.9219 H   0  0  0  0  0  0  0  0  0  0  0  0
   -1.6525   -2.9428   -0.8526 H   0  0  0  0  0  0  0  0  0  0  0  0
   -3.6337   -1.6139   -1.2812 H   0  0  0  0  0  0  0  0  0  0  0  0
   -1.9793    2.7854   -0.6106 H   0  0  0  0  0  0  0  0  0  0  0  0
   -1.5377    2.4990    1.1527 H   0  0  0  0  0  0  0  0  0  0  0  0
  1  2  1  0
  2  3  1  0
  3  4  1  0
  4  5  1  0
  5  6  1  0
  6  7  2  0
  7  8  1  0
  8  9  1  0
  9 10  2  0
  9 11  1  0
 11 12  1  0
 11  5  2  0
  1 13  1  0
  1 14  1  0
  2 15  1  0
  2 16  1  0
  3 17  1  0
  3 18  1  0
  4 19  1  0
  7 20  1  0
  8 21  1  0
 12 22  1  0
 12 23  1  0
M  END
$$$$

     RDKit          3D

 23 23  0  0  0  0  0  0  0  0999 V2000
    2.1625   -0.4945    1.1593 N   0  0  0  0  0  0  0  0  0  0  0  0
    2.6401    0.2736    0.0737 C   0  0  0  0  0  0  0  0  0  0  0  0
    1.8479    0.2651   -1.1858 C   0  0  0  0  0  0  0  0  0  0  0  0
    0.5088    0.7500   -1.0609 N   0  0  0  0  0  0  0  0  0  0  0  0
   -0.4828    0.0547   -0.3570 C   0  0  0  0  0  0  0  0  0  0  0  0
   -0.2049   -1.1275    0.1995 N   0  0  0  0  0  0  0  0  0  0  0  0
   -1.0843   -1.8736    0.8750 C   0  0  0  0  0  0  0  0  0  0  0  0
   -2.3309   -1.3970    0.9996 N   0  0  0  0  0  0  0  0  0  0  0  0
   -2.6736   -0.2174    0.4645 C   0  0  0  0  0  0  0  0  0  0  0  0
   -3.8610    0.2301    0.5868 O   0  0  0  0  0  0  0  0  0  0  0  0
   -1.7663    0.5522   -0.2324 C   0  0  0  0  0  0  0  0  0  0  0  0
   -2.1289    1.8108   -0.8041 N   0  0  0  0  0  0  0  0  0  0  0  0
    2.4084   -1.5034    1.1351 H   0  0  0  0  0  0  0  0  0  0  0  0
    2.3726   -0.0854    2.0901 H   0  0  0  0  0  0  0  0  0  0  0  0
    2.7268    1.3434    0.4401 H   0  0  0  0  0  0  0  0  0  0  0  0
    3.6864   -0.0773   -0.1461 H   0  0  0  0  0  0  0  0  0  0  0  0
    1.8856   -0.7831   -1.5987 H   0  0  0  0  0  0  0  0  0  0  0  0
    2.3938    0.8745   -1.9511 H   0  0  0  0  0  0  0  0  0  0  0  0
    0.2502    1.6706   -1.5160 H   0  0  0  0  0  0  0  0  0  0  0  0
   -0.7947   -2.8384    1.3097 H   0  0  0  0  0  0  0  0  0  0  0  0
   -3.0263   -1.9770    1.5284 H   0  0  0  0  0  0  0  0  0  0  0  0
   -1.9908    2.0071   -1.8307 H   0  0  0  0  0  0  0  0  0  0  0  0
   -2.5386    2.5427   -0.1790 H   0  0  0  0  0  0  0  0  0  0  0  0
  1  2  1  0
  2  3  1  0
  3  4  1  0
  4  5  1  0
  5  6  1  0
  6  7  2  0
  7  8  1  0
  8  9  1  0
  9 10  2  0
  9 11  1  0
 11 12  1  0
 11  5  2  0
  1 13  1  0
  1 14  1  0
  2 15  1  0
  2 16  1  0
  3 17  1  0
  3 18  1  0
  4 19  1  0
  7 20  1  0
  8 21  1  0
 12 22  1  0
 12 23  1  0
M  END
$$$$

     RDKit          3D

 23 23  0  0  0  0  0  0  0  0999 V2000
    4.0234   -0.9415    0.1759 N   0  0  0  0  0  0  0  0  0  0  0  0
    3.0368    0.1224    0.0574 C   0  0  0  0  0  0  0  0  0  0  0  0
    1.6773   -0.4864    0.1459 C   0  0  0  0  0  0  0  0  0  0  0  0
    0.6092    0.4616    0.0423 N   0  0  0  0  0  0  0  0  0  0  0  0
   -0.7360    0.0257    0.1096 C   0  0  0  0  0  0  0  0  0  0  0  0
   -1.0797   -1.2635    0.2696 N   0  0  0  0  0  0  0  0  0  0  0  0
   -2.3264   -1.7167    0.3379 C   0  0  0  0  0  0  0  0  0  0  0  0
   -3.3164   -0.8197    0.2397 N   0  0  0  0  0  0  0  0  0  0  0  0
   -3.0894    0.4931    0.0780 C   0  0  0  0  0  0  0  0  0  0  0  0
   -4.0460    1.3164   -0.0116 O   0  0  0  0  0  0  0  0  0  0  0  0
   -1.7887    0.9367    0.0103 C   0  0  0  0  0  0  0  0  0  0  0  0
   -1.5567    2.3214   -0.1601 N   0  0  0  0  0  0  0  0  0  0  0  0
    3.5975   -1.8248    0.5544 H   0  0  0  0  0  0  0  0  0  0  0  0
    4.3905   -1.1098   -0.8068 H   0  0  0  0  0  0  0  0  0  0  0  0
    3.1631    0.7760    0.9657 H   0  0  0  0  0  0  0  0  0  0  0  0
    3.2094    0.7113   -0.8522 H   0  0  0  0  0  0  0  0  0  0  0  0
    1.5980   -0.9602    1.1658 H   0  0  0  0  0  0  0  0  0  0  0  0
    1.5125   -1.2571   -0.6435 H   0  0  0  0  0  0  0  0  0  0  0  0
    0.8168    1.4687   -0.0820 H   0  0  0  0  0  0  0  0  0  0  0  0
   -2.4774   -2.7776    0.4682 H   0  0  0  0  0  0  0  0  0  0  0  0
   -4.3015   -1.1540    0.2908 H   0  0  0  0  0  0  0  0  0  0  0  0
   -1.9454    3.0429    0.4763 H   0  0  0  0  0  0  0  0  0  0  0  0
   -0.9708    2.6352   -0.9576 H   0  0  0  0  0  0  0  0  0  0  0  0
  1  2  1  0
  2  3  1  0
  3  4  1  0
  4  5  1  0
  5  6  1  0
  6  7  2  0
  7  8  1  0
  8  9  1  0
  9 10  2  0
  9 11  1  0
 11 12  1  0
 11  5  2  0
  1 13  1  0
  1 14  1  0
  2 15  1  0
  2 16  1  0
  3 17  1  0
  3 18  1  0
  4 19  1  0
  7 20  1  0
  8 21  1  0
 12 22  1  0
 12 23  1  0
M  END
$$$$

     RDKit          3D

 23 23  0  0  0  0  0  0  0  0999 V2000
    3.3967   -0.6260    0.6361 N   0  0  0  0  0  0  0  0  0  0  0  0
    3.0224    0.1017   -0.5462 C   0  0  0  0  0  0  0  0  0  0  0  0
    1.6806    0.7547   -0.4437 C   0  0  0  0  0  0  0  0  0  0  0  0
    0.6255   -0.2046   -0.2169 N   0  0  0  0  0  0  0  0  0  0  0  0
   -0.7233    0.2027   -0.0887 C   0  0  0  0  0  0  0  0  0  0  0  0
   -1.0779    1.5180   -0.1746 N   0  0  0  0  0  0  0  0  0  0  0  0
   -2.3633    1.8922   -0.0510 C   0  0  0  0  0  0  0  0  0  0  0  0
   -3.3355    0.9872    0.1601 N   0  0  0  0  0  0  0  0  0  0  0  0
   -3.0089   -0.3289    0.2496 C   0  0  0  0  0  0  0  0  0  0  0  0
   -3.9036   -1.1841    0.4460 O   0  0  0  0  0  0  0  0  0  0  0  0
   -1.7107   -0.7404    0.1281 C   0  0  0  0  0  0  0  0  0  0  0  0
   -1.3186   -2.1104    0.2146 N   0  0  0  0  0  0  0  0  0  0  0  0
    4.4136   -0.6840    0.7941 H   0  0  0  0  0  0  0  0  0  0  0  0
    2.8383   -0.3716    1.4735 H   0  0  0  0  0  0  0  0  0  0  0  0
    3.0406   -0.5751   -1.4051 H   0  0  0  0  0  0  0  0  0  0  0  0
    3.7819    0.9057   -0.7012 H   0  0  0  0  0  0  0  0  0  0  0  0
    1.4686    1.2139   -1.4484 H   0  0  0  0  0  0  0  0  0  0  0  0
    1.6499    1.5498    0.3304 H   0  0  0  0  0  0  0  0  0  0  0  0
    0.8713   -1.2080   -0.1483 H   0  0  0  0  0  0  0  0  0  0  0  0
   -2.6686    2.9328   -0.1158 H   0  0  0  0  0  0  0  0  0  0  0  0
   -4.3459    1.2434    0.2611 H   0  0  0  0  0  0  0  0  0  0  0  0
   -1.2989   -2.6429    1.1091 H   0  0  0  0  0  0  0  0  0  0  0  0
   -1.0342   -2.6262   -0.6409 H   0  0  0  0  0  0  0  0  0  0  0  0
  1  2  1  0
  2  3  1  0
  3  4  1  0
  4  5  1  0
  5  6  1  0
  6  7  2  0
  7  8  1  0
  8  9  1  0
  9 10  2  0
  9 11  1  0
 11 12  1  0
 11  5  2  0
  1 13  1  0
  1 14  1  0
  2 15  1  0
  2 16  1  0
  3 17  1  0
  3 18  1  0
  4 19  1  0
  7 20  1  0
  8 21  1  0
 12 22  1  0
 12 23  1  0
M  END
$$$$

     RDKit          3D

 23 23  0  0  0  0  0  0  0  0999 V2000
    3.5191    0.5702   -0.1662 N   0  0  0  0  0  0  0  0  0  0  0  0
    3.0416   -0.7941   -0.0720 C   0  0  0  0  0  0  0  0  0  0  0  0
    1.6353   -0.9447   -0.5417 C   0  0  0  0  0  0  0  0  0  0  0  0
    0.6977   -0.1416    0.2172 N   0  0  0  0  0  0  0  0  0  0  0  0
   -0.6960   -0.1318   -0.0597 C   0  0  0  0  0  0  0  0  0  0  0  0
   -1.2197   -0.8746   -1.0495 N   0  0  0  0  0  0  0  0  0  0  0  0
   -2.5541   -0.8624   -1.3114 C   0  0  0  0  0  0  0  0  0  0  0  0
   -3.4360   -0.1228   -0.6164 N   0  0  0  0  0  0  0  0  0  0  0  0
   -2.9476    0.6341    0.3829 C   0  0  0  0  0  0  0  0  0  0  0  0
   -3.7363    1.3475    1.0662 O   0  0  0  0  0  0  0  0  0  0  0  0
   -1.5764    0.6367    0.6699 C   0  0  0  0  0  0  0  0  0  0  0  0
   -1.0469    1.4254    1.7155 N   0  0  0  0  0  0  0  0  0  0  0  0
    3.3976    0.9778   -1.1172 H   0  0  0  0  0  0  0  0  0  0  0  0
    3.0921    1.1894    0.5581 H   0  0  0  0  0  0  0  0  0  0  0  0
    3.2146   -1.1402    0.9577 H   0  0  0  0  0  0  0  0  0  0  0  0
    3.6879   -1.4096   -0.7307 H   0  0  0  0  0  0  0  0  0  0  0  0
    1.3728   -2.0146   -0.5449 H   0  0  0  0  0  0  0  0  0  0  0  0
    1.5853   -0.5928   -1.5925 H   0  0  0  0  0  0  0  0  0  0  0  0
    1.1000    0.4368    0.9868 H   0  0  0  0  0  0  0  0  0  0  0  0
   -2.9459   -1.4765   -2.1213 H   0  0  0  0  0  0  0  0  0  0  0  0
   -4.4598   -0.1177   -0.8223 H   0  0  0  0  0  0  0  0  0  0  0  0
   -1.3681    1.2564    2.6873 H   0  0  0  0  0  0  0  0  0  0  0  0
   -0.3574    2.1492    1.5041 H   0  0  0  0  0  0  0  0  0  0  0  0
  1  2  1  0
  2  3  1  0
  3  4  1  0
  4  5  1  0
  5  6  1  0
  6  7  2  0
  7  8  1  0
  8  9  1  0
  9 10  2  0
  9 11  1  0
 11 12  1  0
 11  5  2  0
  1 13  1  0
  1 14  1  0
  2 15  1  0
  2 16  1  0
  3 17  1  0
  3 18  1  0
  4 19  1  0
  7 20  1  0
  8 21  1  0
 12 22  1  0
 12 23  1  0
M  END
$$$$

     RDKit          3D

 23 23  0  0  0  0  0  0  0  0999 V2000
    3.9346   -1.1972    0.0940 N   0  0  0  0  0  0  0  0  0  0  0  0
    2.9369   -0.1156    0.0792 C   0  0  0  0  0  0  0  0  0  0  0  0
    1.5454   -0.7094   -0.0839 C   0  0  0  0  0  0  0  0  0  0  0  0
    0.5986    0.3556   -0.0958 N   0  0  0  0  0  0  0  0  0  0  0  0
   -0.7800    0.0434   -0.2389 C   0  0  0  0  0  0  0  0  0  0  0  0
   -1.1782   -1.2378   -0.3606 N   0  0  0  0  0  0  0  0  0  0  0  0
   -2.4678   -1.5236   -0.4941 C   0  0  0  0  0  0  0  0  0  0  0  0
   -3.3605   -0.5360   -0.5064 N   0  0  0  0  0  0  0  0  0  0  0  0
   -3.0194    0.7575   -0.3888 C   0  0  0  0  0  0  0  0  0  0  0  0
   -3.9206    1.6475   -0.4085 O   0  0  0  0  0  0  0  0  0  0  0  0
   -1.6912    1.0742   -0.2499 C   0  0  0  0  0  0  0  0  0  0  0  0
   -1.2588    2.4194   -0.1207 N   0  0  0  0  0  0  0  0  0  0  0  0
    3.4441   -2.0875   -0.1443 H   0  0  0  0  0  0  0  0  0  0  0  0
    4.6557   -1.0318   -0.6343 H   0  0  0  0  0  0  0  0  0  0  0  0
    3.0384    0.3805    1.0665 H   0  0  0  0  0  0  0  0  0  0  0  0
    3.1666    0.6034   -0.7251 H   0  0  0  0  0  0  0  0  0  0  0  0
    1.4819   -1.4187   -0.9029 H   0  0  0  0  0  0  0  0  0  0  0  0
    1.3584   -1.3014    0.8593 H   0  0  0  0  0  0  0  0  0  0  0  0
    0.8739    1.3499   -0.0043 H   0  0  0  0  0  0  0  0  0  0  0  0
   -2.7623   -2.5759   -0.5912 H   0  0  0  0  0  0  0  0  0  0  0  0
   -4.3844   -0.7683   -0.6127 H   0  0  0  0  0  0  0  0  0  0  0  0
   -1.4299    2.8959    0.7865 H   0  0  0  0  0  0  0  0  0  0  0  0
   -0.7815    2.9758   -0.8605 H   0  0  0  0  0  0  0  0  0  0  0  0
  1  2  1  0
  2  3  1  0
  3  4  1  0
  4  5  1  0
  5  6  1  0
  6  7  2  0
  7  8  1  0
  8  9  1  0
  9 10  2  0
  9 11  1  0
 11 12  1  0
 11  5  2  0
  1 13  1  0
  1 14  1  0
  2 15  1  0
  2 16  1  0
  3 17  1  0
  3 18  1  0
  4 19  1  0
  7 20  1  0
  8 21  1  0
 12 22  1  0
 12 23  1  0
M  END
$$$$

     RDKit          3D

 23 23  0  0  0  0  0  0  0  0999 V2000
    3.6963   -0.6249    0.2653 N   0  0  0  0  0  0  0  0  0  0  0  0
    2.2993   -0.7432   -0.1474 C   0  0  0  0  0  0  0  0  0  0  0  0
    1.8308    0.6417   -0.5114 C   0  0  0  0  0  0  0  0  0  0  0  0
    0.4410    0.6633   -0.9454 N   0  0  0  0  0  0  0  0  0  0  0  0
   -0.5890    0.2541   -0.0854 C   0  0  0  0  0  0  0  0  0  0  0  0
   -0.3161   -0.1591    1.1483 N   0  0  0  0  0  0  0  0  0  0  0  0
   -1.3101   -0.5522    1.9787 C   0  0  0  0  0  0  0  0  0  0  0  0
   -2.5757   -0.5333    1.5794 N   0  0  0  0  0  0  0  0  0  0  0  0
   -2.9317   -0.1284    0.3463 C   0  0  0  0  0  0  0  0  0  0  0  0
   -4.1129   -0.0930   -0.0763 O   0  0  0  0  0  0  0  0  0  0  0  0
   -1.8928    0.2756   -0.5026 C   0  0  0  0  0  0  0  0  0  0  0  0
   -2.1675    0.7185   -1.8198 N   0  0  0  0  0  0  0  0  0  0  0  0
    3.7917   -0.7671    1.2958 H   0  0  0  0  0  0  0  0  0  0  0  0
    4.0865    0.3228    0.0628 H   0  0  0  0  0  0  0  0  0  0  0  0
    1.7557   -1.2051    0.6764 H   0  0  0  0  0  0  0  0  0  0  0  0
    2.2794   -1.4150   -1.0231 H   0  0  0  0  0  0  0  0  0  0  0  0
    1.9362    1.2793    0.3996 H   0  0  0  0  0  0  0  0  0  0  0  0
    2.5052    1.0399   -1.2882 H   0  0  0  0  0  0  0  0  0  0  0  0
    0.2456    0.9968   -1.9246 H   0  0  0  0  0  0  0  0  0  0  0  0
   -1.0759   -0.8920    2.9959 H   0  0  0  0  0  0  0  0  0  0  0  0
   -3.3394   -0.8474    2.2514 H   0  0  0  0  0  0  0  0  0  0  0  0
   -1.9586    1.6906   -2.1516 H   0  0  0  0  0  0  0  0  0  0  0  0
   -2.5978    0.0780   -2.5242 H   0  0  0  0  0  0  0  0  0  0  0  0
  1  2  1  0
  2  3  1  0
  3  4  1  0
  4  5  1  0
  5  6  1  0
  6  7  2  0
  7  8  1  0
  8  9  1  0
  9 10  2  0
  9 11  1  0
 11 12  1  0
 11  5  2  0
  1 13  1  0
  1 14  1  0
  2 15  1  0
  2 16  1  0
  3 17  1  0
  3 18  1  0
  4 19  1  0
  7 20  1  0
  8 21  1  0
 12 22  1  0
 12 23  1  0
M  END
$$$$
