
     RDKit          3D

 24 25  0  0  0  0  0  0  0  0999 V2000
   -1.2781   -0.1328    2.3867 N   0  0  0  0  0  0  0  0  0  0  0  0
   -1.7097   -0.1966    1.0453 C   0  0  0  0  0  0  0  0  0  0  0  0
   -0.7745   -0.2656    0.0415 C   0  0  0  0  0  0  0  0  0  0  0  0
    0.6000   -0.2705    0.3871 N   0  0  0  0  0  0  0  0  0  0  0  0
    1.6539   -0.3408   -0.6031 C   0  0  0  0  0  0  0  0  0  0  0  0
    3.0088   -0.3291    0.0507 C   0  0  0  0  0  0  0  0  0  0  0  0
    3.4655    0.7584   -0.7894 N   0  0  0  0  0  0  0  0  0  0  0  0
    2.0685    0.9844   -1.1914 C   0  0  0  0  0  0  0  0  0  0  0  0
   -1.2023   -0.3258   -1.2313 N   0  0  0  0  0  0  0  0  0  0  0  0
   -2.5095   -0.3211   -1.5599 C   0  0  0  0  0  0  0  0  0  0  0  0
   -3.4125   -0.2531   -0.5642 N   0  0  0  0  0  0  0  0  0  0  0  0
   -3.0749   -0.1900    0.7351 C   0  0  0  0  0  0  0  0  0  0  0  0
   -3.9337   -0.1267    1.6566 O   0  0  0  0  0  0  0  0  0  0  0  0
   -1.6578    0.5691    3.0431 H   0  0  0  0  0  0  0  0  0  0  0  0
   -0.5667   -0.7993    2.7284 H   0  0  0  0  0  0  0  0  0  0  0  0
    0.8689   -0.2217    1.3939 H   0  0  0  0  0  0  0  0  0  0  0  0
    1.5231   -1.1290   -1.3543 H   0  0  0  0  0  0  0  0  0  0  0  0
    3.0256   -0.0153    1.1112 H   0  0  0  0  0  0  0  0  0  0  0  0
    3.6291   -1.2271   -0.0980 H   0  0  0  0  0  0  0  0  0  0  0  0
    3.8972    1.5633   -0.3029 H   0  0  0  0  0  0  0  0  0  0  0  0
    1.6175    1.8793   -0.6956 H   0  0  0  0  0  0  0  0  0  0  0  0
    2.0389    1.0110   -2.3006 H   0  0  0  0  0  0  0  0  0  0  0  0
   -2.8370   -0.3710   -2.6057 H   0  0  0  0  0  0  0  0  0  0  0  0
   -4.4404   -0.2499   -0.8311 H   0  0  0  0  0  0  0  0  0  0  0  0
  1  2  1  0
  2  3  2  0
  3  4  1  0
  4  5  1  0
  5  6  1  0
  6  7  1  0
  7  8  1  0
  3  9  1  0
  9 10  2  0
 10 11  1  0
 11 12  1  0
 12 13  2  0
 12  2  1  0
  8  5  1  0
  1 14  1  0
  1 15  1  0
  4 16  1  0
  5 17  1  0
  6 18  1  0
  6 19  1  0
  7 20  1  0
  8 21  1  0
  8 22  1  0
 10 23  1  0
 11 24  1  0
M  END
$$$$

     RDKit          3D

 24 25  0  0  0  0  0  0  0  0999 V2000
    1.6291    1.9596   -1.1485 N   0  0  0  0  0  0  0  0  0  0  0  0
    1.8329    0.7493   -0.4438 C   0  0  0  0  0  0  0  0  0  0  0  0
    0.7713    0.0858    0.1440 C   0  0  0  0  0  0  0  0  0  0  0  0
   -0.5568    0.6397    0.0336 N   0  0  0  0  0  0  0  0  0  0  0  0
   -1.6498   -0.0644    0.6517 C   0  0  0  0  0  0  0  0  0  0  0  0
   -2.9772    0.6334    0.4534 C   0  0  0  0  0  0  0  0  0  0  0  0
   -3.5415   -0.6360    0.0388 N   0  0  0  0  0  0  0  0  0  0  0  0
   -2.2095   -1.1828   -0.2190 C   0  0  0  0  0  0  0  0  0  0  0  0
    0.9840   -1.0567    0.8057 N   0  0  0  0  0  0  0  0  0  0  0  0
    2.2087   -1.5918    0.9223 C   0  0  0  0  0  0  0  0  0  0  0  0
    3.2697   -0.9799    0.3661 N   0  0  0  0  0  0  0  0  0  0  0  0
    3.0914    0.1684   -0.3050 C   0  0  0  0  0  0  0  0  0  0  0  0
    4.0773    0.7384   -0.8227 O   0  0  0  0  0  0  0  0  0  0  0  0
    1.0799    1.9652   -2.0267 H   0  0  0  0  0  0  0  0  0  0  0  0
    2.0272    2.8467   -0.7911 H   0  0  0  0  0  0  0  0  0  0  0  0
   -0.6917    1.5135   -0.4772 H   0  0  0  0  0  0  0  0  0  0  0  0
   -1.4528   -0.3800    1.6992 H   0  0  0  0  0  0  0  0  0  0  0  0
   -2.9519    1.4067   -0.3489 H   0  0  0  0  0  0  0  0  0  0  0  0
   -3.3624    1.0211    1.4229 H   0  0  0  0  0  0  0  0  0  0  0  0
   -4.1310   -0.6005   -0.8251 H   0  0  0  0  0  0  0  0  0  0  0  0
   -1.9535   -1.0596   -1.2888 H   0  0  0  0  0  0  0  0  0  0  0  0
   -2.0498   -2.1987    0.1971 H   0  0  0  0  0  0  0  0  0  0  0  0
    2.3606   -2.5364    1.4734 H   0  0  0  0  0  0  0  0  0  0  0  0
    4.1958   -1.4408    0.4887 H   0  0  0  0  0  0  0  0  0  0  0  0
  1  2  1  0
  2  3  2  0
  3  4  1  0
  4  5  1  0
  5  6  1  0
  6  7  1  0
  7  8  1  0
  3  9  1  0
  9 10  2  0
 10 11  1  0
 11 12  1  0
 12 13  2  0
 12  2  1  0
  8  5  1  0
  1 14  1  0
  1 15  1  0
  4 16  1  0
  5 17  1  0
  6 18  1  0
  6 19  1  0
  7 20  1  0
  8 21  1  0
  8 22  1  0
 10 23  1  0
 11 24  1  0
M  END
$$$$

     RDKit          3D

 24 25  0  0  0  0  0  0  0  0999 V2000
    2.3033   -1.9358    0.4460 N   0  0  0  0  0  0  0  0  0  0  0  0
    1.8959   -0.6125    0.1106 C   0  0  0  0  0  0  0  0  0  0  0  0
    0.5782   -0.2471   -0.0165 C   0  0  0  0  0  0  0  0  0  0  0  0
   -0.4518   -1.1585    0.1757 N   0  0  0  0  0  0  0  0  0  0  0  0
   -1.8657   -0.8990    0.0731 C   0  0  0  0  0  0  0  0  0  0  0  0
   -2.3240    0.1389    1.0638 C   0  0  0  0  0  0  0  0  0  0  0  0
   -2.3494    1.1200    0.0089 N   0  0  0  0  0  0  0  0  0  0  0  0
   -2.3258    0.0670   -0.9549 C   0  0  0  0  0  0  0  0  0  0  0  0
    0.3185    1.0246   -0.3351 N   0  0  0  0  0  0  0  0  0  0  0  0
    1.2842    1.9411   -0.5317 C   0  0  0  0  0  0  0  0  0  0  0  0
    2.5780    1.6080   -0.4132 N   0  0  0  0  0  0  0  0  0  0  0  0
    2.8797    0.3391   -0.0941 C   0  0  0  0  0  0  0  0  0  0  0  0
    4.1101    0.0567    0.0102 O   0  0  0  0  0  0  0  0  0  0  0  0
    2.4204   -2.2944    1.3969 H   0  0  0  0  0  0  0  0  0  0  0  0
    2.4911   -2.5710   -0.3822 H   0  0  0  0  0  0  0  0  0  0  0  0
   -0.1797   -2.1573    0.4262 H   0  0  0  0  0  0  0  0  0  0  0  0
   -2.4847   -1.8259    0.1409 H   0  0  0  0  0  0  0  0  0  0  0  0
   -1.5740    0.4278    1.8251 H   0  0  0  0  0  0  0  0  0  0  0  0
   -3.3240   -0.0471    1.5153 H   0  0  0  0  0  0  0  0  0  0  0  0
   -3.2259    1.7125    0.0029 H   0  0  0  0  0  0  0  0  0  0  0  0
   -1.6699    0.2082   -1.8380 H   0  0  0  0  0  0  0  0  0  0  0  0
   -3.3782   -0.1800   -1.2723 H   0  0  0  0  0  0  0  0  0  0  0  0
    0.9668    2.9489   -0.7874 H   0  0  0  0  0  0  0  0  0  0  0  0
    3.3268    2.3357   -0.5699 H   0  0  0  0  0  0  0  0  0  0  0  0
  1  2  1  0
  2  3  2  0
  3  4  1  0
  4  5  1  0
  5  6  1  0
  6  7  1  0
  7  8  1  0
  3  9  1  0
  9 10  2  0
 10 11  1  0
 11 12  1  0
 12 13  2  0
 12  2  1  0
  8  5  1  0
  1 14  1  0
  1 15  1  0
  4 16  1  0
  5 17  1  0
  6 18  1  0
  6 19  1  0
  7 20  1  0
  8 21  1  0
  8 22  1  0
 10 23  1  0
 11 24  1  0
M  END
$$$$

     RDKit          3D

 24 25  0  0  0  0  0  0  0  0999 V2000
   -2.1952   -1.7956   -1.0408 N   0  0  0  0  0  0  0  0  0  0  0  0
   -1.8633   -0.6244   -0.3134 C   0  0  0  0  0  0  0  0  0  0  0  0
   -0.5625   -0.2425   -0.0643 C   0  0  0  0  0  0  0  0  0  0  0  0
    0.4872   -1.0380   -0.5462 N   0  0  0  0  0  0  0  0  0  0  0  0
    1.8884   -0.7472   -0.3517 C   0  0  0  0  0  0  0  0  0  0  0  0
    2.2317    0.5863   -0.9620 C   0  0  0  0  0  0  0  0  0  0  0  0
    2.3925    1.1267    0.3728 N   0  0  0  0  0  0  0  0  0  0  0  0
    2.2702   -0.1765    0.9828 C   0  0  0  0  0  0  0  0  0  0  0  0
   -0.3023    0.8785    0.6314 N   0  0  0  0  0  0  0  0  0  0  0  0
   -1.2693    1.6777    1.1158 C   0  0  0  0  0  0  0  0  0  0  0  0
   -2.5369    1.3069    0.8739 N   0  0  0  0  0  0  0  0  0  0  0  0
   -2.8647    0.2044    0.1890 C   0  0  0  0  0  0  0  0  0  0  0  0
   -4.0614   -0.1409   -0.0365 O   0  0  0  0  0  0  0  0  0  0  0  0
   -2.5807   -2.6041   -0.5244 H   0  0  0  0  0  0  0  0  0  0  0  0
   -2.0685   -1.8754   -2.0632 H   0  0  0  0  0  0  0  0  0  0  0  0
    0.2653   -1.9087   -1.0885 H   0  0  0  0  0  0  0  0  0  0  0  0
    2.5498   -1.5768   -0.6666 H   0  0  0  0  0  0  0  0  0  0  0  0
    1.3947    1.0853   -1.5071 H   0  0  0  0  0  0  0  0  0  0  0  0
    3.1503    0.5365   -1.5646 H   0  0  0  0  0  0  0  0  0  0  0  0
    3.3176    1.6015    0.5325 H   0  0  0  0  0  0  0  0  0  0  0  0
    1.5058   -0.1673    1.7660 H   0  0  0  0  0  0  0  0  0  0  0  0
    3.2507   -0.6024    1.3468 H   0  0  0  0  0  0  0  0  0  0  0  0
   -1.0869    2.5726    1.6709 H   0  0  0  0  0  0  0  0  0  0  0  0
   -3.3122    1.9232    1.2472 H   0  0  0  0  0  0  0  0  0  0  0  0
  1  2  1  0
  2  3  2  0
  3  4  1  0
  4  5  1  0
  5  6  1  0
  6  7  1  0
  7  8  1  0
  3  9  1  0
  9 10  2  0
 10 11  1  0
 11 12  1  0
 12 13  2  0
 12  2  1  0
  8  5  1  0
  1 14  1  0
  1 15  1  0
  4 16  1  0
  5 17  1  0
  6 18  1  0
  6 19  1  0
  7 20  1  0
  8 21  1  0
  8 22  1  0
 10 23  1  0
 11 24  1  0
M  END
$$$$

     RDKit          3D

 24 25  0  0  0  0  0  0  0  0999 V2000
    1.8135   -2.1623    0.0610 N   0  0  0  0  0  0  0  0  0  0  0  0
    1.8096   -0.7503   -0.0006 C   0  0  0  0  0  0  0  0  0  0  0  0
    0.6617   -0.0239   -0.2352 C   0  0  0  0  0  0  0  0  0  0  0  0
   -0.5940   -0.6593   -0.4302 N   0  0  0  0  0  0  0  0  0  0  0  0
   -1.7786    0.1042   -0.6729 C   0  0  0  0  0  0  0  0  0  0  0  0
   -2.1719    1.0766    0.4019 C   0  0  0  0  0  0  0  0  0  0  0  0
   -3.0618    0.0700    0.9393 N   0  0  0  0  0  0  0  0  0  0  0  0
   -3.0613   -0.5980   -0.3369 C   0  0  0  0  0  0  0  0  0  0  0  0
    0.7571    1.3132   -0.2761 N   0  0  0  0  0  0  0  0  0  0  0  0
    1.9320    1.9441   -0.0953 C   0  0  0  0  0  0  0  0  0  0  0  0
    3.0529    1.2581    0.1328 N   0  0  0  0  0  0  0  0  0  0  0  0
    3.0245   -0.0818    0.1856 C   0  0  0  0  0  0  0  0  0  0  0  0
    4.0830   -0.7125    0.4003 O   0  0  0  0  0  0  0  0  0  0  0  0
    1.2104   -2.7302   -0.5603 H   0  0  0  0  0  0  0  0  0  0  0  0
    2.4246   -2.6471    0.7338 H   0  0  0  0  0  0  0  0  0  0  0  0
   -0.6278   -1.6995   -0.3913 H   0  0  0  0  0  0  0  0  0  0  0  0
   -1.7718    0.5499   -1.6888 H   0  0  0  0  0  0  0  0  0  0  0  0
   -2.7402    1.9190   -0.0336 H   0  0  0  0  0  0  0  0  0  0  0  0
   -1.3606    1.3815    1.0937 H   0  0  0  0  0  0  0  0  0  0  0  0
   -2.6455   -0.4848    1.7183 H   0  0  0  0  0  0  0  0  0  0  0  0
   -2.9654   -1.7025   -0.2688 H   0  0  0  0  0  0  0  0  0  0  0  0
   -3.8754   -0.2308   -1.0016 H   0  0  0  0  0  0  0  0  0  0  0  0
    1.9547    3.0438   -0.1388 H   0  0  0  0  0  0  0  0  0  0  0  0
    3.9304    1.8226    0.2638 H   0  0  0  0  0  0  0  0  0  0  0  0
  1  2  1  0
  2  3  2  0
  3  4  1  0
  4  5  1  0
  5  6  1  0
  6  7  1  0
  7  8  1  0
  3  9  1  0
  9 10  2  0
 10 11  1  0
 11 12  1  0
 12 13  2  0
 12  2  1  0
  8  5  1  0
  1 14  1  0
  1 15  1  0
  4 16  1  0
  5 17  1  0
  6 18  1  0
  6 19  1  0
  7 20  1  0
  8 21  1  0
  8 22  1  0
 10 23  1  0
 11 24  1  0
M  END
$$$$

     RDKit          3D

 24 25  0  0  0  0  0  0  0  0999 V2000
    1.7767   -2.0095    0.6312 N   0  0  0  0  0  0  0  0  0  0  0  0
    1.8813   -0.6549    0.2099 C   0  0  0  0  0  0  0  0  0  0  0  0
    0.7596    0.1613    0.1183 C   0  0  0  0  0  0  0  0  0  0  0  0
   -0.5428   -0.3422    0.4481 N   0  0  0  0  0  0  0  0  0  0  0  0
   -1.6759    0.5232    0.3433 C   0  0  0  0  0  0  0  0  0  0  0  0
   -2.9443   -0.2430    0.7474 C   0  0  0  0  0  0  0  0  0  0  0  0
   -2.8268   -0.8922   -0.5713 N   0  0  0  0  0  0  0  0  0  0  0  0
   -2.3722    0.4355   -1.0232 C   0  0  0  0  0  0  0  0  0  0  0  0
    0.9374    1.4243   -0.2855 N   0  0  0  0  0  0  0  0  0  0  0  0
    2.1365    1.9334   -0.6028 C   0  0  0  0  0  0  0  0  0  0  0  0
    3.2303    1.1577   -0.5196 N   0  0  0  0  0  0  0  0  0  0  0  0
    3.0857   -0.1205   -0.1158 C   0  0  0  0  0  0  0  0  0  0  0  0
    4.1339   -0.8400   -0.0432 O   0  0  0  0  0  0  0  0  0  0  0  0
    1.6484   -2.7679   -0.0863 H   0  0  0  0  0  0  0  0  0  0  0  0
    1.8213   -2.2945    1.6312 H   0  0  0  0  0  0  0  0  0  0  0  0
   -0.5970   -1.3351    0.7539 H   0  0  0  0  0  0  0  0  0  0  0  0
   -1.5981    1.5280    0.7523 H   0  0  0  0  0  0  0  0  0  0  0  0
   -2.7895   -0.9001    1.5964 H   0  0  0  0  0  0  0  0  0  0  0  0
   -3.8631    0.3701    0.7223 H   0  0  0  0  0  0  0  0  0  0  0  0
   -3.7362   -1.1859   -0.9755 H   0  0  0  0  0  0  0  0  0  0  0  0
   -1.6922    0.4123   -1.8766 H   0  0  0  0  0  0  0  0  0  0  0  0
   -3.2173    1.1226   -1.0421 H   0  0  0  0  0  0  0  0  0  0  0  0
    2.2613    2.9693   -0.9312 H   0  0  0  0  0  0  0  0  0  0  0  0
    4.1829    1.5480   -0.7675 H   0  0  0  0  0  0  0  0  0  0  0  0
  1  2  1  0
  2  3  2  0
  3  4  1  0
  4  5  1  0
  5  6  1  0
  6  7  1  0
  7  8  1  0
  3  9  1  0
  9 10  2  0
 10 11  1  0
 11 12  1  0
 12 13  2  0
 12  2  1  0
  8  5  1  0
  1 14  1  0
  1 15  1  0
  4 16  1  0
  5 17  1  0
  6 18  1  0
  6 19  1  0
  7 20  1  0
  8 21  1  0
  8 22  1  0
 10 23  1  0
 11 24  1  0
M  END
$$$$

     RDKit          3D

 24 25  0  0  0  0  0  0  0  0999 V2000
   -1.6514   -2.0853   -0.9320 N   0  0  0  0  0  0  0  0  0  0  0  0
   -1.7914   -0.7496   -0.4544 C   0  0  0  0  0  0  0  0  0  0  0  0
   -0.6923   -0.0793    0.0356 C   0  0  0  0  0  0  0  0  0  0  0  0
    0.5771   -0.7654    0.0466 N   0  0  0  0  0  0  0  0  0  0  0  0
    1.7113   -0.0494    0.5614 C   0  0  0  0  0  0  0  0  0  0  0  0
    2.0535    1.2266   -0.1726 C   0  0  0  0  0  0  0  0  0  0  0  0
    3.1594    0.5235   -0.7889 N   0  0  0  0  0  0  0  0  0  0  0  0
    3.0046   -0.6359    0.0567 C   0  0  0  0  0  0  0  0  0  0  0  0
   -0.8147    1.1727    0.4852 N   0  0  0  0  0  0  0  0  0  0  0  0
   -1.9800    1.8116    0.4785 C   0  0  0  0  0  0  0  0  0  0  0  0
   -3.0585    1.1728    0.0049 N   0  0  0  0  0  0  0  0  0  0  0  0
   -3.0012   -0.0884   -0.4620 C   0  0  0  0  0  0  0  0  0  0  0  0
   -4.0149   -0.6731   -0.9013 O   0  0  0  0  0  0  0  0  0  0  0  0
   -1.3917   -2.8749   -0.3055 H   0  0  0  0  0  0  0  0  0  0  0  0
   -1.8136   -2.2830   -1.9423 H   0  0  0  0  0  0  0  0  0  0  0  0
    0.6857   -1.7389   -0.3002 H   0  0  0  0  0  0  0  0  0  0  0  0
    1.7189    0.0992    1.6634 H   0  0  0  0  0  0  0  0  0  0  0  0
    2.3756    2.0341    0.5123 H   0  0  0  0  0  0  0  0  0  0  0  0
    1.2979    1.5382   -0.9292 H   0  0  0  0  0  0  0  0  0  0  0  0
    3.0121    0.2454   -1.7904 H   0  0  0  0  0  0  0  0  0  0  0  0
    2.9169   -1.6009   -0.4816 H   0  0  0  0  0  0  0  0  0  0  0  0
    3.7550   -0.7484    0.8661 H   0  0  0  0  0  0  0  0  0  0  0  0
   -2.0931    2.8457    0.8473 H   0  0  0  0  0  0  0  0  0  0  0  0
   -3.9652    1.7029    0.0123 H   0  0  0  0  0  0  0  0  0  0  0  0
  1  2  1  0
  2  3  2  0
  3  4  1  0
  4  5  1  0
  5  6  1  0
  6  7  1  0
  7  8  1  0
  3  9  1  0
  9 10  2  0
 10 11  1  0
 11 12  1  0
 12 13  2  0
 12  2  1  0
  8  5  1  0
  1 14  1  0
  1 15  1  0
  4 16  1  0
  5 17  1  0
  6 18  1  0
  6 19  1  0
  7 20  1  0
  8 21  1  0
  8 22  1  0
 10 23  1  0
 11 24  1  0
M  END
$$$$

     RDKit          3D

 24 25  0  0  0  0  0  0  0  0999 V2000
    1.3922    2.4151   -0.1188 N   0  0  0  0  0  0  0  0  0  0  0  0
    1.6675    1.0204    0.0472 C   0  0  0  0  0  0  0  0  0  0  0  0
    0.7596    0.0609   -0.3390 C   0  0  0  0  0  0  0  0  0  0  0  0
   -0.4622    0.4828   -0.9097 N   0  0  0  0  0  0  0  0  0  0  0  0
   -1.4914   -0.4375   -1.3509 C   0  0  0  0  0  0  0  0  0  0  0  0
   -1.9778   -1.2764   -0.1929 C   0  0  0  0  0  0  0  0  0  0  0  0
   -2.8672   -0.1537    0.1478 N   0  0  0  0  0  0  0  0  0  0  0  0
   -2.8710    0.1736   -1.2660 C   0  0  0  0  0  0  0  0  0  0  0  0
    1.0239   -1.2696   -0.1798 N   0  0  0  0  0  0  0  0  0  0  0  0
    2.1852   -1.6676    0.3613 C   0  0  0  0  0  0  0  0  0  0  0  0
    3.0632   -0.7342    0.7346 N   0  0  0  0  0  0  0  0  0  0  0  0
    2.8547    0.5799    0.6014 C   0  0  0  0  0  0  0  0  0  0  0  0
    3.7108    1.4284    0.9671 O   0  0  0  0  0  0  0  0  0  0  0  0
    0.9335    2.9767    0.6166 H   0  0  0  0  0  0  0  0  0  0  0  0
    1.6724    2.8541   -1.0175 H   0  0  0  0  0  0  0  0  0  0  0  0
   -0.6667    1.4926   -1.0346 H   0  0  0  0  0  0  0  0  0  0  0  0
   -1.2677   -0.9832   -2.2820 H   0  0  0  0  0  0  0  0  0  0  0  0
   -2.5411   -2.1960   -0.5024 H   0  0  0  0  0  0  0  0  0  0  0  0
   -1.2153   -1.4505    0.5903 H   0  0  0  0  0  0  0  0  0  0  0  0
   -3.7702   -0.4338    0.5524 H   0  0  0  0  0  0  0  0  0  0  0  0
   -3.6347   -0.3995   -1.8396 H   0  0  0  0  0  0  0  0  0  0  0  0
   -2.8980    1.2721   -1.4867 H   0  0  0  0  0  0  0  0  0  0  0  0
    2.4179   -2.7309    0.4983 H   0  0  0  0  0  0  0  0  0  0  0  0
    3.9823   -1.0239    1.1621 H   0  0  0  0  0  0  0  0  0  0  0  0
  1  2  1  0
  2  3  2  0
  3  4  1  0
  4  5  1  0
  5  6  1  0
  6  7  1  0
  7  8  1  0
  3  9  1  0
  9 10  2  0
 10 11  1  0
 11 12  1  0
 12 13  2  0
 12  2  1  0
  8  5  1  0
  1 14  1  0
  1 15  1  0
  4 16  1  0
  5 17  1  0
  6 18  1  0
  6 19  1  0
  7 20  1  0
  8 21  1  0
  8 22  1  0
 10 23  1  0
 11 24  1  0
M  END
$$$$
