
     RDKit          3D

 27 27  0  0  0  0  0  0  0  0999 V2000
   -3.4001   -0.1573   -0.2927 C   0  0  0  0  0  0  0  0  0  0  0  0
   -2.1564   -0.7849    0.2910 C   0  0  2  0  0  0  0  0  0  0  0  0
   -1.5011    0.3111    1.1426 C   0  0  0  0  0  0  0  0  0  0  0  0
   -0.5843    1.0536    0.1612 C   0  0  0  0  0  0  0  0  0  0  0  0
    0.6620    0.1662    0.0715 C   0  0  2  0  0  0  0  0  0  0  0  0
    1.5930    0.6495   -0.8931 N   0  0  0  0  0  0  0  0  0  0  0  0
    3.0597    1.1044   -0.1237 S   0  0  0  0  0  6  0  0  0  0  0  0
    4.1705   -0.2169   -0.0394 N   0  0  0  0  0  0  0  0  0  0  0  0
    3.7378    2.1942   -0.9192 O   0  0  0  0  0  0  0  0  0  0  0  0
    2.8246    1.5614    1.3007 O   0  0  0  0  0  0  0  0  0  0  0  0
    0.1470   -1.2245   -0.2439 C   0  0  0  0  0  0  0  0  0  0  0  0
   -1.2218   -1.2242   -0.6787 N   0  0  0  0  0  0  0  0  0  0  0  0
   -3.8913   -0.7734   -1.0423 H   0  0  0  0  0  0  0  0  0  0  0  0
   -3.0933    0.8478   -0.6756 H   0  0  0  0  0  0  0  0  0  0  0  0
   -4.0757    0.0589    0.5809 H   0  0  0  0  0  0  0  0  0  0  0  0
   -2.4466   -1.6533    0.9279 H   0  0  0  0  0  0  0  0  0  0  0  0
   -0.8842   -0.1885    1.9238 H   0  0  0  0  0  0  0  0  0  0  0  0
   -2.2578    0.9846    1.5799 H   0  0  0  0  0  0  0  0  0  0  0  0
   -0.3470    2.0631    0.4970 H   0  0  0  0  0  0  0  0  0  0  0  0
   -1.0359    1.0975   -0.8519 H   0  0  0  0  0  0  0  0  0  0  0  0
    1.1198    0.2054    1.0804 H   0  0  0  0  0  0  0  0  0  0  0  0
    1.8111   -0.0738   -1.5893 H   0  0  0  0  0  0  0  0  0  0  0  0
    4.3690   -0.5629   -0.9867 H   0  0  0  0  0  0  0  0  0  0  0  0
    3.8258   -0.9691    0.6152 H   0  0  0  0  0  0  0  0  0  0  0  0
    0.7671   -1.7182   -0.9945 H   0  0  0  0  0  0  0  0  0  0  0  0
    0.1875   -1.8119    0.7038 H   0  0  0  0  0  0  0  0  0  0  0  0
   -1.3795   -0.9387   -1.6454 H   0  0  0  0  0  0  0  0  0  0  0  0
  1  2  1  0
  2  3  1  0
  3  4  1  0
  4  5  1  0
  5  6  1  0
  6  7  1  0
  7  8  1  0
  7  9  2  0
  7 10  2  0
  5 11  1  0
 11 12  1  0
 12  2  1  0
  1 13  1  0
  1 14  1  0
  1 15  1  0
  2 16  1  1
  3 17  1  0
  3 18  1  0
  4 19  1  0
  4 20  1  0
  5 21  1  1
  6 22  1  0
  8 23  1  0
  8 24  1  0
 11 25  1  0
 11 26  1  0
 12 27  1  0
M  END
$$$$

     RDKit          3D

 27 27  0  0  0  0  0  0  0  0999 V2000
    3.1643    0.7817   -0.5874 C   0  0  0  0  0  0  0  0  0  0  0  0
    2.2817   -0.3369   -0.1299 C   0  0  2  0  0  0  0  0  0  0  0  0
    1.3253   -0.6780   -1.2600 C   0  0  0  0  0  0  0  0  0  0  0  0
    0.2028   -1.4986   -0.6271 C   0  0  0  0  0  0  0  0  0  0  0  0
   -0.6615   -0.4992    0.1521 C   0  0  2  0  0  0  0  0  0  0  0  0
   -1.4693    0.1826   -0.8499 N   0  0  0  0  0  0  0  0  0  0  0  0
   -3.1427   -0.1849   -0.6759 S   0  0  0  0  0  6  0  0  0  0  0  0
   -3.9634    0.8931    0.3578 N   0  0  0  0  0  0  0  0  0  0  0  0
   -3.7784   -0.1265   -2.0341 O   0  0  0  0  0  0  0  0  0  0  0  0
   -3.3301   -1.5842   -0.1219 O   0  0  0  0  0  0  0  0  0  0  0  0
    0.2363    0.4618    0.8616 C   0  0  0  0  0  0  0  0  0  0  0  0
    1.5714   -0.0582    1.0902 N   0  0  0  0  0  0  0  0  0  0  0  0
    4.2349    0.5484   -0.3682 H   0  0  0  0  0  0  0  0  0  0  0  0
    2.9420    1.7149   -0.0313 H   0  0  0  0  0  0  0  0  0  0  0  0
    3.0232    1.0020   -1.6608 H   0  0  0  0  0  0  0  0  0  0  0  0
    2.9210   -1.2392    0.0346 H   0  0  0  0  0  0  0  0  0  0  0  0
    0.8799    0.2608   -1.6394 H   0  0  0  0  0  0  0  0  0  0  0  0
    1.8577   -1.2415   -2.0339 H   0  0  0  0  0  0  0  0  0  0  0  0
   -0.4065   -1.9805   -1.4233 H   0  0  0  0  0  0  0  0  0  0  0  0
    0.6139   -2.2635    0.0627 H   0  0  0  0  0  0  0  0  0  0  0  0
   -1.2909   -1.1143    0.8202 H   0  0  0  0  0  0  0  0  0  0  0  0
   -1.2715    1.1968   -0.7807 H   0  0  0  0  0  0  0  0  0  0  0  0
   -4.8270    1.3041   -0.0599 H   0  0  0  0  0  0  0  0  0  0  0  0
   -3.3527    1.6034    0.8079 H   0  0  0  0  0  0  0  0  0  0  0  0
    0.3039    1.4021    0.2463 H   0  0  0  0  0  0  0  0  0  0  0  0
   -0.1601    0.7572    1.8549 H   0  0  0  0  0  0  0  0  0  0  0  0
    2.0958    0.6964    1.5914 H   0  0  0  0  0  0  0  0  0  0  0  0
  1  2  1  0
  2  3  1  0
  3  4  1  0
  4  5  1  0
  5  6  1  0
  6  7  1  0
  7  8  1  0
  7  9  2  0
  7 10  2  0
  5 11  1  0
 11 12  1  0
 12  2  1  0
  1 13  1  0
  1 14  1  0
  1 15  1  0
  2 16  1  1
  3 17  1  0
  3 18  1  0
  4 19  1  0
  4 20  1  0
  5 21  1  1
  6 22  1  0
  8 23  1  0
  8 24  1  0
 11 25  1  0
 11 26  1  0
 12 27  1  0
M  END
$$$$

     RDKit          3D

 27 27  0  0  0  0  0  0  0  0999 V2000
    3.3388    0.6696   -0.3807 C   0  0  0  0  0  0  0  0  0  0  0  0
    2.2175   -0.0166    0.3762 C   0  0  2  0  0  0  0  0  0  0  0  0
    1.6751   -1.1482   -0.4255 C   0  0  0  0  0  0  0  0  0  0  0  0
    0.3714   -0.7913   -1.0591 C   0  0  0  0  0  0  0  0  0  0  0  0
   -0.6511   -0.3522   -0.0545 C   0  0  2  0  0  0  0  0  0  0  0  0
   -1.6566    0.4274   -0.7893 N   0  0  0  0  0  0  0  0  0  0  0  0
   -3.2042   -0.2815   -0.7196 S   0  0  0  0  0  6  0  0  0  0  0  0
   -4.1248    0.2770    0.6313 N   0  0  0  0  0  0  0  0  0  0  0  0
   -3.9363    0.0495   -1.9975 O   0  0  0  0  0  0  0  0  0  0  0  0
   -3.0291   -1.7873   -0.6168 O   0  0  0  0  0  0  0  0  0  0  0  0
   -0.0454    0.4491    1.0575 C   0  0  0  0  0  0  0  0  0  0  0  0
    1.2540    0.9807    0.7352 N   0  0  0  0  0  0  0  0  0  0  0  0
    3.2137    1.7771   -0.3816 H   0  0  0  0  0  0  0  0  0  0  0  0
    3.3680    0.3496   -1.4426 H   0  0  0  0  0  0  0  0  0  0  0  0
    4.3278    0.4724    0.0946 H   0  0  0  0  0  0  0  0  0  0  0  0
    2.6417   -0.4443    1.3307 H   0  0  0  0  0  0  0  0  0  0  0  0
    1.5953   -2.0940    0.1473 H   0  0  0  0  0  0  0  0  0  0  0  0
    2.3951   -1.3770   -1.2618 H   0  0  0  0  0  0  0  0  0  0  0  0
   -0.0298   -1.6380   -1.6553 H   0  0  0  0  0  0  0  0  0  0  0  0
    0.5387    0.0460   -1.7568 H   0  0  0  0  0  0  0  0  0  0  0  0
   -1.1946   -1.2377    0.3705 H   0  0  0  0  0  0  0  0  0  0  0  0
   -1.6256    1.3976   -0.3984 H   0  0  0  0  0  0  0  0  0  0  0  0
   -3.6603   -0.0166    1.5048 H   0  0  0  0  0  0  0  0  0  0  0  0
   -4.1934    1.3294    0.5375 H   0  0  0  0  0  0  0  0  0  0  0  0
   -0.0182   -0.1094    2.0229 H   0  0  0  0  0  0  0  0  0  0  0  0
   -0.7132    1.3263    1.2422 H   0  0  0  0  0  0  0  0  0  0  0  0
    1.1455    1.7424    0.0487 H   0  0  0  0  0  0  0  0  0  0  0  0
  1  2  1  0
  2  3  1  0
  3  4  1  0
  4  5  1  0
  5  6  1  0
  6  7  1  0
  7  8  1  0
  7  9  2  0
  7 10  2  0
  5 11  1  0
 11 12  1  0
 12  2  1  0
  1 13  1  0
  1 14  1  0
  1 15  1  0
  2 16  1  1
  3 17  1  0
  3 18  1  0
  4 19  1  0
  4 20  1  0
  5 21  1  1
  6 22  1  0
  8 23  1  0
  8 24  1  0
 11 25  1  0
 11 26  1  0
 12 27  1  0
M  END
$$$$

     RDKit          3D

 27 27  0  0  0  0  0  0  0  0999 V2000
   -3.4794   -0.3381    0.2189 C   0  0  0  0  0  0  0  0  0  0  0  0
   -1.9811   -0.6751    0.1666 C   0  0  2  0  0  0  0  0  0  0  0  0
   -1.2792    0.3613    0.9722 C   0  0  0  0  0  0  0  0  0  0  0  0
   -0.1652    0.9849    0.1900 C   0  0  0  0  0  0  0  0  0  0  0  0
    0.6398   -0.1370   -0.4337 C   0  0  2  0  0  0  0  0  0  0  0  0
    1.8762    0.3685   -0.8690 N   0  0  0  0  0  0  0  0  0  0  0  0
    3.2678   -0.2415   -0.1270 S   0  0  0  0  0  6  0  0  0  0  0  0
    3.6240    0.7688    1.2553 N   0  0  0  0  0  0  0  0  0  0  0  0
    4.4361   -0.0610   -1.0711 O   0  0  0  0  0  0  0  0  0  0  0  0
    3.1643   -1.6285    0.3644 O   0  0  0  0  0  0  0  0  0  0  0  0
   -0.2205   -0.7748   -1.4810 C   0  0  0  0  0  0  0  0  0  0  0  0
   -1.6183   -0.7406   -1.2020 N   0  0  0  0  0  0  0  0  0  0  0  0
   -4.1051   -1.2152    0.0414 H   0  0  0  0  0  0  0  0  0  0  0  0
   -3.6100    0.4489   -0.5804 H   0  0  0  0  0  0  0  0  0  0  0  0
   -3.6920    0.1886    1.1711 H   0  0  0  0  0  0  0  0  0  0  0  0
   -1.9076   -1.6852    0.6602 H   0  0  0  0  0  0  0  0  0  0  0  0
   -1.9352    1.1545    1.3784 H   0  0  0  0  0  0  0  0  0  0  0  0
   -0.8126   -0.1259    1.8778 H   0  0  0  0  0  0  0  0  0  0  0  0
   -0.5634    1.5934   -0.6406 H   0  0  0  0  0  0  0  0  0  0  0  0
    0.5164    1.5980    0.8093 H   0  0  0  0  0  0  0  0  0  0  0  0
    0.7749   -0.9080    0.3800 H   0  0  0  0  0  0  0  0  0  0  0  0
    1.8607    1.4104   -0.8726 H   0  0  0  0  0  0  0  0  0  0  0  0
    4.5176    0.4729    1.7042 H   0  0  0  0  0  0  0  0  0  0  0  0
    2.8812    0.6736    1.9859 H   0  0  0  0  0  0  0  0  0  0  0  0
    0.0853   -1.8419   -1.5667 H   0  0  0  0  0  0  0  0  0  0  0  0
   -0.0741   -0.2463   -2.4676 H   0  0  0  0  0  0  0  0  0  0  0  0
   -2.2005   -0.2226   -1.8640 H   0  0  0  0  0  0  0  0  0  0  0  0
  1  2  1  0
  2  3  1  0
  3  4  1  0
  4  5  1  0
  5  6  1  0
  6  7  1  0
  7  8  1  0
  7  9  2  0
  7 10  2  0
  5 11  1  0
 11 12  1  0
 12  2  1  0
  1 13  1  0
  1 14  1  0
  1 15  1  0
  2 16  1  1
  3 17  1  0
  3 18  1  0
  4 19  1  0
  4 20  1  0
  5 21  1  1
  6 22  1  0
  8 23  1  0
  8 24  1  0
 11 25  1  0
 11 26  1  0
 12 27  1  0
M  END
$$$$

     RDKit          3D

 27 27  0  0  0  0  0  0  0  0999 V2000
   -3.3898   -0.2102    0.2610 C   0  0  0  0  0  0  0  0  0  0  0  0
   -2.1915    0.7216    0.0385 C   0  0  2  0  0  0  0  0  0  0  0  0
   -1.5270    0.2848   -1.2245 C   0  0  0  0  0  0  0  0  0  0  0  0
   -0.0633    0.5644   -1.2820 C   0  0  0  0  0  0  0  0  0  0  0  0
    0.6765    0.1623   -0.0253 C   0  0  2  0  0  0  0  0  0  0  0  0
    1.6449   -0.8311   -0.3699 N   0  0  0  0  0  0  0  0  0  0  0  0
    3.2536   -0.4244   -0.0944 S   0  0  0  0  0  6  0  0  0  0  0  0
    3.8817   -0.8150    1.4188 N   0  0  0  0  0  0  0  0  0  0  0  0
    3.4178    1.0742   -0.3076 O   0  0  0  0  0  0  0  0  0  0  0  0
    4.1116   -1.0744   -1.1613 O   0  0  0  0  0  0  0  0  0  0  0  0
   -0.3221   -0.3217    0.9962 C   0  0  0  0  0  0  0  0  0  0  0  0
   -1.3305    0.6831    1.1880 N   0  0  0  0  0  0  0  0  0  0  0  0
   -4.0869    0.2143    1.0077 H   0  0  0  0  0  0  0  0  0  0  0  0
   -3.9376   -0.3312   -0.7120 H   0  0  0  0  0  0  0  0  0  0  0  0
   -3.0425   -1.2087    0.5924 H   0  0  0  0  0  0  0  0  0  0  0  0
   -2.6375    1.7428   -0.0887 H   0  0  0  0  0  0  0  0  0  0  0  0
   -2.0076    0.8438   -2.0651 H   0  0  0  0  0  0  0  0  0  0  0  0
   -1.7189   -0.7822   -1.4200 H   0  0  0  0  0  0  0  0  0  0  0  0
    0.3394    0.0201   -2.1825 H   0  0  0  0  0  0  0  0  0  0  0  0
    0.1087    1.6521   -1.5319 H   0  0  0  0  0  0  0  0  0  0  0  0
    1.1463    1.0942    0.3903 H   0  0  0  0  0  0  0  0  0  0  0  0
    1.4532   -1.2986   -1.2597 H   0  0  0  0  0  0  0  0  0  0  0  0
    4.2633   -0.0541    1.9776 H   0  0  0  0  0  0  0  0  0  0  0  0
    3.4557   -1.5988    1.9138 H   0  0  0  0  0  0  0  0  0  0  0  0
    0.1856   -0.4818    1.9838 H   0  0  0  0  0  0  0  0  0  0  0  0
   -0.7903   -1.2604    0.6541 H   0  0  0  0  0  0  0  0  0  0  0  0
   -0.8925    1.6347    1.3026 H   0  0  0  0  0  0  0  0  0  0  0  0
  1  2  1  0
  2  3  1  0
  3  4  1  0
  4  5  1  0
  5  6  1  0
  6  7  1  0
  7  8  1  0
  7  9  2  0
  7 10  2  0
  5 11  1  0
 11 12  1  0
 12  2  1  0
  1 13  1  0
  1 14  1  0
  1 15  1  0
  2 16  1  6
  3 17  1  0
  3 18  1  0
  4 19  1  0
  4 20  1  0
  5 21  1  1
  6 22  1  0
  8 23  1  0
  8 24  1  0
 11 25  1  0
 11 26  1  0
 12 27  1  0
M  END
$$$$

     RDKit          3D

 27 27  0  0  0  0  0  0  0  0999 V2000
   -3.3113    0.7135    0.4111 C   0  0  0  0  0  0  0  0  0  0  0  0
   -1.8410    0.3652    0.2570 C   0  0  2  0  0  0  0  0  0  0  0  0
   -1.5212   -0.0142   -1.1783 C   0  0  0  0  0  0  0  0  0  0  0  0
   -0.0185   -0.1112   -1.3215 C   0  0  0  0  0  0  0  0  0  0  0  0
    0.6136   -0.3944    0.0272 C   0  0  2  0  0  0  0  0  0  0  0  0
    1.9492   -0.8842   -0.0776 N   0  0  0  0  0  0  0  0  0  0  0  0
    3.0169    0.0952    0.8206 S   0  0  0  0  0  6  0  0  0  0  0  0
    3.6696    1.3906   -0.1212 N   0  0  0  0  0  0  0  0  0  0  0  0
    4.1439   -0.7621    1.3550 O   0  0  0  0  0  0  0  0  0  0  0  0
    2.3383    0.7138    2.0046 O   0  0  0  0  0  0  0  0  0  0  0  0
   -0.2944   -1.4041    0.7271 C   0  0  0  0  0  0  0  0  0  0  0  0
   -1.5375   -0.7832    1.0787 N   0  0  0  0  0  0  0  0  0  0  0  0
   -3.9652   -0.1241    0.0994 H   0  0  0  0  0  0  0  0  0  0  0  0
   -3.4733    0.9408    1.4853 H   0  0  0  0  0  0  0  0  0  0  0  0
   -3.4804    1.6429   -0.1452 H   0  0  0  0  0  0  0  0  0  0  0  0
   -1.2736    1.2670    0.5219 H   0  0  0  0  0  0  0  0  0  0  0  0
   -1.9364    0.7901   -1.8285 H   0  0  0  0  0  0  0  0  0  0  0  0
   -2.0107   -0.9600   -1.4533 H   0  0  0  0  0  0  0  0  0  0  0  0
    0.2151   -0.9550   -1.9842 H   0  0  0  0  0  0  0  0  0  0  0  0
    0.3257    0.8419   -1.7529 H   0  0  0  0  0  0  0  0  0  0  0  0
    0.6128    0.5055    0.6717 H   0  0  0  0  0  0  0  0  0  0  0  0
    2.2622   -1.1125   -1.0215 H   0  0  0  0  0  0  0  0  0  0  0  0
    4.7190    1.4216    0.0375 H   0  0  0  0  0  0  0  0  0  0  0  0
    3.2832    2.3171    0.1695 H   0  0  0  0  0  0  0  0  0  0  0  0
   -0.3982   -2.3386    0.1501 H   0  0  0  0  0  0  0  0  0  0  0  0
    0.2186   -1.6811    1.6895 H   0  0  0  0  0  0  0  0  0  0  0  0
   -2.3064   -1.4805    0.9201 H   0  0  0  0  0  0  0  0  0  0  0  0
  1  2  1  0
  2  3  1  0
  3  4  1  0
  4  5  1  0
  5  6  1  0
  6  7  1  0
  7  8  1  0
  7  9  2  0
  7 10  2  0
  5 11  1  0
 11 12  1  0
 12  2  1  0
  1 13  1  0
  1 14  1  0
  1 15  1  0
  2 16  1  1
  3 17  1  0
  3 18  1  0
  4 19  1  0
  4 20  1  0
  5 21  1  1
  6 22  1  0
  8 23  1  0
  8 24  1  0
 11 25  1  0
 11 26  1  0
 12 27  1  0
M  END
$$$$

     RDKit          3D

 27 27  0  0  0  0  0  0  0  0999 V2000
   -3.4940   -0.5800   -0.7363 C   0  0  0  0  0  0  0  0  0  0  0  0
   -2.1898   -0.2600   -0.0681 C   0  0  2  0  0  0  0  0  0  0  0  0
   -1.6124    0.9817   -0.7051 C   0  0  0  0  0  0  0  0  0  0  0  0
   -0.3212    1.4084   -0.0876 C   0  0  0  0  0  0  0  0  0  0  0  0
    0.6242    0.2719    0.1943 C   0  0  2  0  0  0  0  0  0  0  0  0
    1.4904    0.1307   -0.9388 N   0  0  0  0  0  0  0  0  0  0  0  0
    3.1013    0.4956   -0.4626 S   0  0  0  0  0  6  0  0  0  0  0  0
    3.9433   -0.9076    0.0855 N   0  0  0  0  0  0  0  0  0  0  0  0
    3.8688    1.1167   -1.5705 O   0  0  0  0  0  0  0  0  0  0  0  0
    3.1204    1.4807    0.6963 O   0  0  0  0  0  0  0  0  0  0  0  0
   -0.0775   -0.9969    0.5810 C   0  0  0  0  0  0  0  0  0  0  0  0
   -1.2083   -1.3165   -0.2292 N   0  0  0  0  0  0  0  0  0  0  0  0
   -3.4022   -1.3884   -1.4653 H   0  0  0  0  0  0  0  0  0  0  0  0
   -4.2464   -0.8740    0.0509 H   0  0  0  0  0  0  0  0  0  0  0  0
   -3.9053    0.3490   -1.2214 H   0  0  0  0  0  0  0  0  0  0  0  0
   -2.3035   -0.1092    1.0369 H   0  0  0  0  0  0  0  0  0  0  0  0
   -2.3495    1.7846   -0.6363 H   0  0  0  0  0  0  0  0  0  0  0  0
   -1.4441    0.7516   -1.7738 H   0  0  0  0  0  0  0  0  0  0  0  0
    0.1512    2.1480   -0.7721 H   0  0  0  0  0  0  0  0  0  0  0  0
   -0.5438    1.9710    0.8516 H   0  0  0  0  0  0  0  0  0  0  0  0
    1.2379    0.5775    1.0619 H   0  0  0  0  0  0  0  0  0  0  0  0
    1.4195   -0.7718   -1.4229 H   0  0  0  0  0  0  0  0  0  0  0  0
    4.1103   -0.9072    1.1109 H   0  0  0  0  0  0  0  0  0  0  0  0
    4.7982   -1.1001   -0.4730 H   0  0  0  0  0  0  0  0  0  0  0  0
    0.6661   -1.8173    0.5751 H   0  0  0  0  0  0  0  0  0  0  0  0
   -0.4282   -0.8827    1.6287 H   0  0  0  0  0  0  0  0  0  0  0  0
   -1.0055   -1.5557   -1.2043 H   0  0  0  0  0  0  0  0  0  0  0  0
  1  2  1  0
  2  3  1  0
  3  4  1  0
  4  5  1  0
  5  6  1  0
  6  7  1  0
  7  8  1  0
  7  9  2  0
  7 10  2  0
  5 11  1  0
 11 12  1  0
 12  2  1  0
  1 13  1  0
  1 14  1  0
  1 15  1  0
  2 16  1  1
  3 17  1  0
  3 18  1  0
  4 19  1  0
  4 20  1  0
  5 21  1  1
  6 22  1  0
  8 23  1  0
  8 24  1  0
 11 25  1  0
 11 26  1  0
 12 27  1  0
M  END
$$$$

     RDKit          3D

 27 27  0  0  0  0  0  0  0  0999 V2000
   -3.5846   -0.3874    0.0200 C   0  0  0  0  0  0  0  0  0  0  0  0
   -2.2356    0.2317   -0.2869 C   0  0  2  0  0  0  0  0  0  0  0  0
   -1.3945   -0.7055   -1.1009 C   0  0  0  0  0  0  0  0  0  0  0  0
   -0.0135   -0.9011   -0.5364 C   0  0  0  0  0  0  0  0  0  0  0  0
    0.6243    0.3990   -0.1013 C   0  0  2  0  0  0  0  0  0  0  0  0
    1.7631    0.0683    0.7245 N   0  0  0  0  0  0  0  0  0  0  0  0
    3.2482    0.5895    0.0348 S   0  0  0  0  0  6  0  0  0  0  0  0
    3.9354   -0.6302   -0.9798 N   0  0  0  0  0  0  0  0  0  0  0  0
    4.2254    0.8393    1.1507 O   0  0  0  0  0  0  0  0  0  0  0  0
    3.0572    1.8645   -0.7541 O   0  0  0  0  0  0  0  0  0  0  0  0
   -0.3226    1.2291    0.7365 C   0  0  0  0  0  0  0  0  0  0  0  0
   -1.5791    0.5477    0.9616 N   0  0  0  0  0  0  0  0  0  0  0  0
   -3.7807   -1.2744   -0.6481 H   0  0  0  0  0  0  0  0  0  0  0  0
   -3.6327   -0.7839    1.0578 H   0  0  0  0  0  0  0  0  0  0  0  0
   -4.4113    0.3202   -0.1995 H   0  0  0  0  0  0  0  0  0  0  0  0
   -2.3975    1.1815   -0.8353 H   0  0  0  0  0  0  0  0  0  0  0  0
   -1.3722   -0.3398   -2.1474 H   0  0  0  0  0  0  0  0  0  0  0  0
   -1.8883   -1.6992   -1.1015 H   0  0  0  0  0  0  0  0  0  0  0  0
   -0.0556   -1.5549    0.3531 H   0  0  0  0  0  0  0  0  0  0  0  0
    0.6211   -1.3429   -1.3167 H   0  0  0  0  0  0  0  0  0  0  0  0
    0.9124    0.9332   -1.0382 H   0  0  0  0  0  0  0  0  0  0  0  0
    1.6601    0.3461    1.7137 H   0  0  0  0  0  0  0  0  0  0  0  0
    3.5568   -1.5858   -0.7586 H   0  0  0  0  0  0  0  0  0  0  0  0
    4.9770   -0.6970   -0.8658 H   0  0  0  0  0  0  0  0  0  0  0  0
    0.0988    1.4610    1.7436 H   0  0  0  0  0  0  0  0  0  0  0  0
   -0.5398    2.1735    0.2264 H   0  0  0  0  0  0  0  0  0  0  0  0
   -1.4719   -0.2826    1.5776 H   0  0  0  0  0  0  0  0  0  0  0  0
  1  2  1  0
  2  3  1  0
  3  4  1  0
  4  5  1  0
  5  6  1  0
  6  7  1  0
  7  8  1  0
  7  9  2  0
  7 10  2  0
  5 11  1  0
 11 12  1  0
 12  2  1  0
  1 13  1  0
  1 14  1  0
  1 15  1  0
  2 16  1  6
  3 17  1  0
  3 18  1  0
  4 19  1  0
  4 20  1  0
  5 21  1  6
  6 22  1  0
  8 23  1  0
  8 24  1  0
 11 25  1  0
 11 26  1  0
 12 27  1  0
M  END
$$$$
