
     RDKit          3D

 25 25  0  0  0  0  0  0  0  0999 V2000
    3.0843   -0.6523   -0.0668 N   0  0  0  0  0  0  0  0  0  0  0  0
    1.8595   -0.2806   -0.7689 C   0  0  0  0  0  0  0  0  0  0  0  0
    0.6746   -0.3905    0.1859 C   0  0  1  0  0  0  0  0  0  0  0  0
    0.9151    0.5461    1.3422 C   0  0  0  0  0  0  0  0  0  0  0  0
    0.7748    1.8759    0.9084 O   0  0  0  0  0  0  0  0  0  0  0  0
   -0.5443    2.1016    0.5378 C   0  0  0  0  0  0  0  0  0  0  0  0
   -1.0340    1.1660   -0.5272 C   0  0  0  0  0  0  0  0  0  0  0  0
   -0.5082   -0.1280   -0.5057 N   0  0  0  0  0  0  0  0  0  0  0  0
   -1.5578   -1.4067   -0.8161 S   0  0  0  0  0  6  0  0  0  0  0  0
   -2.8475   -1.5272    0.3430 N   0  0  0  0  0  0  0  0  0  0  0  0
   -2.1945   -1.1521   -2.1720 O   0  0  0  0  0  0  0  0  0  0  0  0
   -0.8041   -2.6864   -0.9193 O   0  0  0  0  0  0  0  0  0  0  0  0
    3.7450   -1.0462   -0.7457 H   0  0  0  0  0  0  0  0  0  0  0  0
    2.9174   -1.2885    0.7193 H   0  0  0  0  0  0  0  0  0  0  0  0
    1.7334   -1.0291   -1.5951 H   0  0  0  0  0  0  0  0  0  0  0  0
    1.9439    0.7141   -1.2056 H   0  0  0  0  0  0  0  0  0  0  0  0
    0.6769   -1.4234    0.6081 H   0  0  0  0  0  0  0  0  0  0  0  0
    1.9524    0.4509    1.7228 H   0  0  0  0  0  0  0  0  0  0  0  0
    0.2233    0.3350    2.1845 H   0  0  0  0  0  0  0  0  0  0  0  0
   -0.5985    3.1341    0.1134 H   0  0  0  0  0  0  0  0  0  0  0  0
   -1.2407    2.0493    1.3898 H   0  0  0  0  0  0  0  0  0  0  0  0
   -0.8629    1.6210   -1.5473 H   0  0  0  0  0  0  0  0  0  0  0  0
   -2.1578    1.1061   -0.4502 H   0  0  0  0  0  0  0  0  0  0  0  0
   -3.6681   -0.9467    0.0134 H   0  0  0  0  0  0  0  0  0  0  0  0
   -2.4823   -1.1424    1.2513 H   0  0  0  0  0  0  0  0  0  0  0  0
  1  2  1  0
  2  3  1  0
  3  4  1  0
  4  5  1  0
  5  6  1  0
  6  7  1  0
  7  8  1  0
  8  9  1  0
  9 10  1  0
  9 11  2  0
  9 12  2  0
  8  3  1  0
  1 13  1  0
  1 14  1  0
  2 15  1  0
  2 16  1  0
  3 17  1  1
  4 18  1  0
  4 19  1  0
  6 20  1  0
  6 21  1  0
  7 22  1  0
  7 23  1  0
 10 24  1  0
 10 25  1  0
M  END
$$$$

     RDKit          3D

 25 25  0  0  0  0  0  0  0  0999 V2000
    2.9354   -0.7334   -0.7798 N   0  0  0  0  0  0  0  0  0  0  0  0
    1.5010   -0.8917   -1.0056 C   0  0  0  0  0  0  0  0  0  0  0  0
    0.8162   -0.0169   -0.0190 C   0  0  1  0  0  0  0  0  0  0  0  0
    1.2954    1.4253   -0.2822 C   0  0  0  0  0  0  0  0  0  0  0  0
    0.9177    2.1387    0.8420 O   0  0  0  0  0  0  0  0  0  0  0  0
   -0.4201    2.1661    1.0947 C   0  0  0  0  0  0  0  0  0  0  0  0
   -1.1327    0.8585    0.9342 C   0  0  0  0  0  0  0  0  0  0  0  0
   -0.6196    0.0685   -0.1739 N   0  0  0  0  0  0  0  0  0  0  0  0
   -1.4228   -1.4361   -0.1869 S   0  0  0  0  0  6  0  0  0  0  0  0
   -3.1237   -1.1578   -0.4197 N   0  0  0  0  0  0  0  0  0  0  0  0
   -1.1561   -2.2935    0.9894 O   0  0  0  0  0  0  0  0  0  0  0  0
   -0.9812   -2.1781   -1.4452 O   0  0  0  0  0  0  0  0  0  0  0  0
    3.4448   -1.5738   -1.1317 H   0  0  0  0  0  0  0  0  0  0  0  0
    3.0884   -0.5507    0.2272 H   0  0  0  0  0  0  0  0  0  0  0  0
    1.2293   -1.9648   -0.9276 H   0  0  0  0  0  0  0  0  0  0  0  0
    1.2834   -0.5615   -2.0351 H   0  0  0  0  0  0  0  0  0  0  0  0
    1.0774   -0.3087    1.0222 H   0  0  0  0  0  0  0  0  0  0  0  0
    0.7756    1.7515   -1.1924 H   0  0  0  0  0  0  0  0  0  0  0  0
    2.3866    1.4370   -0.3539 H   0  0  0  0  0  0  0  0  0  0  0  0
   -0.5509    2.4692    2.1752 H   0  0  0  0  0  0  0  0  0  0  0  0
   -0.9354    2.9572    0.5148 H   0  0  0  0  0  0  0  0  0  0  0  0
   -2.1998    1.0611    0.7038 H   0  0  0  0  0  0  0  0  0  0  0  0
   -1.1200    0.2635    1.8697 H   0  0  0  0  0  0  0  0  0  0  0  0
   -3.5635   -1.9350   -0.9325 H   0  0  0  0  0  0  0  0  0  0  0  0
   -3.5254   -0.9944    0.5124 H   0  0  0  0  0  0  0  0  0  0  0  0
  1  2  1  0
  2  3  1  0
  3  4  1  0
  4  5  1  0
  5  6  1  0
  6  7  1  0
  7  8  1  0
  8  9  1  0
  9 10  1  0
  9 11  2  0
  9 12  2  0
  8  3  1  0
  1 13  1  0
  1 14  1  0
  2 15  1  0
  2 16  1  0
  3 17  1  1
  4 18  1  0
  4 19  1  0
  6 20  1  0
  6 21  1  0
  7 22  1  0
  7 23  1  0
 10 24  1  0
 10 25  1  0
M  END
$$$$

     RDKit          3D

 25 25  0  0  0  0  0  0  0  0999 V2000
   -2.5573   -1.6960   -0.7231 N   0  0  0  0  0  0  0  0  0  0  0  0
   -1.0947   -1.5286   -0.6579 C   0  0  0  0  0  0  0  0  0  0  0  0
   -0.7445   -0.1215   -0.3287 C   0  0  1  0  0  0  0  0  0  0  0  0
   -1.3367    0.2545    1.0133 C   0  0  0  0  0  0  0  0  0  0  0  0
   -1.2433    1.6033    1.2868 O   0  0  0  0  0  0  0  0  0  0  0  0
   -0.3587    2.2735    0.4573 C   0  0  0  0  0  0  0  0  0  0  0  0
    0.9060    1.5006    0.2023 C   0  0  0  0  0  0  0  0  0  0  0  0
    0.6221    0.2323   -0.4112 N   0  0  0  0  0  0  0  0  0  0  0  0
    1.7475   -0.9866   -0.0579 S   0  0  0  0  0  6  0  0  0  0  0  0
    3.3495   -0.5795   -0.6240 N   0  0  0  0  0  0  0  0  0  0  0  0
    1.8668   -1.3338    1.3764 O   0  0  0  0  0  0  0  0  0  0  0  0
    1.3639   -2.2219   -0.8241 O   0  0  0  0  0  0  0  0  0  0  0  0
   -2.8876   -1.8384    0.2574 H   0  0  0  0  0  0  0  0  0  0  0  0
   -2.9422   -0.8139   -1.1363 H   0  0  0  0  0  0  0  0  0  0  0  0
   -0.7482   -1.7574   -1.6864 H   0  0  0  0  0  0  0  0  0  0  0  0
   -0.7688   -2.2683    0.1019 H   0  0  0  0  0  0  0  0  0  0  0  0
   -1.2970    0.5248   -1.0763 H   0  0  0  0  0  0  0  0  0  0  0  0
   -0.9226   -0.3218    1.8378 H   0  0  0  0  0  0  0  0  0  0  0  0
   -2.4373    0.0184    0.9693 H   0  0  0  0  0  0  0  0  0  0  0  0
   -0.8115    2.6114   -0.4933 H   0  0  0  0  0  0  0  0  0  0  0  0
   -0.0610    3.2067    1.0098 H   0  0  0  0  0  0  0  0  0  0  0  0
    1.5127    2.0902   -0.5173 H   0  0  0  0  0  0  0  0  0  0  0  0
    1.4988    1.4028    1.1340 H   0  0  0  0  0  0  0  0  0  0  0  0
    3.3237    0.2399   -1.2630 H   0  0  0  0  0  0  0  0  0  0  0  0
    4.0202   -0.4907    0.1533 H   0  0  0  0  0  0  0  0  0  0  0  0
  1  2  1  0
  2  3  1  0
  3  4  1  0
  4  5  1  0
  5  6  1  0
  6  7  1  0
  7  8  1  0
  8  9  1  0
  9 10  1  0
  9 11  2  0
  9 12  2  0
  8  3  1  0
  1 13  1  0
  1 14  1  0
  2 15  1  0
  2 16  1  0
  3 17  1  6
  4 18  1  0
  4 19  1  0
  6 20  1  0
  6 21  1  0
  7 22  1  0
  7 23  1  0
 10 24  1  0
 10 25  1  0
M  END
$$$$

     RDKit          3D

 25 25  0  0  0  0  0  0  0  0999 V2000
    2.3166   -1.5250   -0.0435 N   0  0  0  0  0  0  0  0  0  0  0  0
    1.5751   -0.7951    0.9680 C   0  0  0  0  0  0  0  0  0  0  0  0
    0.6681    0.2385    0.3586 C   0  0  1  0  0  0  0  0  0  0  0  0
    1.4463    1.2563   -0.4461 C   0  0  0  0  0  0  0  0  0  0  0  0
    0.6638    2.3978   -0.4926 O   0  0  0  0  0  0  0  0  0  0  0  0
   -0.5354    2.0910   -1.0727 C   0  0  0  0  0  0  0  0  0  0  0  0
   -0.7763    0.6807   -1.4258 C   0  0  0  0  0  0  0  0  0  0  0  0
   -0.3448   -0.2967   -0.4860 N   0  0  0  0  0  0  0  0  0  0  0  0
   -1.7371   -0.8310    0.3907 S   0  0  0  0  0  6  0  0  0  0  0  0
   -2.8997   -1.5592   -0.6161 N   0  0  0  0  0  0  0  0  0  0  0  0
   -1.3216   -1.7080    1.5144 O   0  0  0  0  0  0  0  0  0  0  0  0
   -2.3737    0.4130    0.9956 O   0  0  0  0  0  0  0  0  0  0  0  0
    3.2808   -1.1033   -0.1871 H   0  0  0  0  0  0  0  0  0  0  0  0
    2.5064   -2.4887    0.3192 H   0  0  0  0  0  0  0  0  0  0  0  0
    2.3285   -0.2801    1.5991 H   0  0  0  0  0  0  0  0  0  0  0  0
    1.0428   -1.4990    1.6010 H   0  0  0  0  0  0  0  0  0  0  0  0
    0.1679    0.7692    1.2045 H   0  0  0  0  0  0  0  0  0  0  0  0
    2.4541    1.4392   -0.0267 H   0  0  0  0  0  0  0  0  0  0  0  0
    1.5475    0.8877   -1.5031 H   0  0  0  0  0  0  0  0  0  0  0  0
   -1.3412    2.4091   -0.3468 H   0  0  0  0  0  0  0  0  0  0  0  0
   -0.6335    2.7284   -1.9899 H   0  0  0  0  0  0  0  0  0  0  0  0
   -1.8538    0.5323   -1.6399 H   0  0  0  0  0  0  0  0  0  0  0  0
   -0.2323    0.4695   -2.3933 H   0  0  0  0  0  0  0  0  0  0  0  0
   -3.4888   -2.1898   -0.0494 H   0  0  0  0  0  0  0  0  0  0  0  0
   -2.4596   -2.0368   -1.4343 H   0  0  0  0  0  0  0  0  0  0  0  0
  1  2  1  0
  2  3  1  0
  3  4  1  0
  4  5  1  0
  5  6  1  0
  6  7  1  0
  7  8  1  0
  8  9  1  0
  9 10  1  0
  9 11  2  0
  9 12  2  0
  8  3  1  0
  1 13  1  0
  1 14  1  0
  2 15  1  0
  2 16  1  0
  3 17  1  1
  4 18  1  0
  4 19  1  0
  6 20  1  0
  6 21  1  0
  7 22  1  0
  7 23  1  0
 10 24  1  0
 10 25  1  0
M  END
$$$$

     RDKit          3D

 25 25  0  0  0  0  0  0  0  0999 V2000
    2.3369   -1.4021    0.5011 N   0  0  0  0  0  0  0  0  0  0  0  0
    2.1157   -0.1919   -0.1992 C   0  0  0  0  0  0  0  0  0  0  0  0
    0.7951    0.4667    0.0680 C   0  0  1  0  0  0  0  0  0  0  0  0
    0.8260    1.7303   -0.8047 C   0  0  0  0  0  0  0  0  0  0  0  0
   -0.1875    2.6072   -0.4686 O   0  0  0  0  0  0  0  0  0  0  0  0
   -1.2942    1.9261    0.0078 C   0  0  0  0  0  0  0  0  0  0  0  0
   -1.3901    0.6240   -0.7481 C   0  0  0  0  0  0  0  0  0  0  0  0
   -0.3331   -0.3054   -0.3635 N   0  0  0  0  0  0  0  0  0  0  0  0
   -0.9829   -1.3140    0.8666 S   0  0  0  0  0  6  0  0  0  0  0  0
   -2.3269   -2.1585    0.1337 N   0  0  0  0  0  0  0  0  0  0  0  0
   -0.0246   -2.3879    1.2948 O   0  0  0  0  0  0  0  0  0  0  0  0
   -1.4961   -0.5264    2.0283 O   0  0  0  0  0  0  0  0  0  0  0  0
    3.0219   -2.0029    0.0271 H   0  0  0  0  0  0  0  0  0  0  0  0
    2.6029   -1.2920    1.5027 H   0  0  0  0  0  0  0  0  0  0  0  0
    2.9078    0.5630    0.0637 H   0  0  0  0  0  0  0  0  0  0  0  0
    2.1926   -0.3968   -1.3014 H   0  0  0  0  0  0  0  0  0  0  0  0
    0.7358    0.7655    1.1435 H   0  0  0  0  0  0  0  0  0  0  0  0
    1.8200    2.1876   -0.6645 H   0  0  0  0  0  0  0  0  0  0  0  0
    0.7163    1.3599   -1.8475 H   0  0  0  0  0  0  0  0  0  0  0  0
   -2.1934    2.5100   -0.2114 H   0  0  0  0  0  0  0  0  0  0  0  0
   -1.1680    1.6926    1.0728 H   0  0  0  0  0  0  0  0  0  0  0  0
   -1.3388    0.7492   -1.8412 H   0  0  0  0  0  0  0  0  0  0  0  0
   -2.3965    0.2057   -0.5246 H   0  0  0  0  0  0  0  0  0  0  0  0
   -2.9438   -2.5856    0.8526 H   0  0  0  0  0  0  0  0  0  0  0  0
   -1.9951   -2.8243   -0.5880 H   0  0  0  0  0  0  0  0  0  0  0  0
  1  2  1  0
  2  3  1  0
  3  4  1  0
  4  5  1  0
  5  6  1  0
  6  7  1  0
  7  8  1  0
  8  9  1  0
  9 10  1  0
  9 11  2  0
  9 12  2  0
  8  3  1  0
  1 13  1  0
  1 14  1  0
  2 15  1  0
  2 16  1  0
  3 17  1  1
  4 18  1  0
  4 19  1  0
  6 20  1  0
  6 21  1  0
  7 22  1  0
  7 23  1  0
 10 24  1  0
 10 25  1  0
M  END
$$$$

     RDKit          3D

 25 25  0  0  0  0  0  0  0  0999 V2000
    2.2964    0.1716    1.7689 N   0  0  0  0  0  0  0  0  0  0  0  0
    2.0215   -0.6281    0.6129 C   0  0  0  0  0  0  0  0  0  0  0  0
    0.8943   -0.0491   -0.2350 C   0  0  1  0  0  0  0  0  0  0  0  0
    0.6929   -0.9515   -1.4009 C   0  0  0  0  0  0  0  0  0  0  0  0
   -0.0315   -2.0677   -0.9846 O   0  0  0  0  0  0  0  0  0  0  0  0
   -1.3252   -1.6217   -0.6722 C   0  0  0  0  0  0  0  0  0  0  0  0
   -1.2675   -0.7712    0.5542 C   0  0  0  0  0  0  0  0  0  0  0  0
   -0.2405    0.2153    0.5577 N   0  0  0  0  0  0  0  0  0  0  0  0
   -0.8575    1.8121    0.3987 S   0  0  0  0  0  6  0  0  0  0  0  0
   -1.6911    2.0132   -1.0927 N   0  0  0  0  0  0  0  0  0  0  0  0
    0.3106    2.7540    0.4423 O   0  0  0  0  0  0  0  0  0  0  0  0
   -1.7508    2.1498    1.5477 O   0  0  0  0  0  0  0  0  0  0  0  0
    2.6335   -0.4087    2.5422 H   0  0  0  0  0  0  0  0  0  0  0  0
    1.5586    0.8335    2.0346 H   0  0  0  0  0  0  0  0  0  0  0  0
    2.9562   -0.7341   -0.0049 H   0  0  0  0  0  0  0  0  0  0  0  0
    1.7505   -1.6506    0.9559 H   0  0  0  0  0  0  0  0  0  0  0  0
    1.2905    0.9311   -0.6293 H   0  0  0  0  0  0  0  0  0  0  0  0
    1.6905   -1.3023   -1.7426 H   0  0  0  0  0  0  0  0  0  0  0  0
    0.1888   -0.4310   -2.2298 H   0  0  0  0  0  0  0  0  0  0  0  0
   -1.9179   -2.5264   -0.4413 H   0  0  0  0  0  0  0  0  0  0  0  0
   -1.7590   -1.0979   -1.5379 H   0  0  0  0  0  0  0  0  0  0  0  0
   -2.2524   -0.2235    0.6293 H   0  0  0  0  0  0  0  0  0  0  0  0
   -1.2392   -1.4140    1.4627 H   0  0  0  0  0  0  0  0  0  0  0  0
   -1.2657    2.8028   -1.6435 H   0  0  0  0  0  0  0  0  0  0  0  0
   -2.6861    2.1944   -0.8921 H   0  0  0  0  0  0  0  0  0  0  0  0
  1  2  1  0
  2  3  1  0
  3  4  1  0
  4  5  1  0
  5  6  1  0
  6  7  1  0
  7  8  1  0
  8  9  1  0
  9 10  1  0
  9 11  2  0
  9 12  2  0
  8  3  1  0
  1 13  1  0
  1 14  1  0
  2 15  1  0
  2 16  1  0
  3 17  1  6
  4 18  1  0
  4 19  1  0
  6 20  1  0
  6 21  1  0
  7 22  1  0
  7 23  1  0
 10 24  1  0
 10 25  1  0
M  END
$$$$

     RDKit          3D

 25 25  0  0  0  0  0  0  0  0999 V2000
   -1.5476   -2.3052   -0.7895 N   0  0  0  0  0  0  0  0  0  0  0  0
   -1.4745   -1.4352    0.3811 C   0  0  0  0  0  0  0  0  0  0  0  0
   -1.0223   -0.0949   -0.0495 C   0  0  1  0  0  0  0  0  0  0  0  0
   -0.9410    0.8281    1.1675 C   0  0  0  0  0  0  0  0  0  0  0  0
   -0.7427    2.1044    0.7070 O   0  0  0  0  0  0  0  0  0  0  0  0
    0.3524    2.2737   -0.0993 C   0  0  0  0  0  0  0  0  0  0  0  0
    0.4226    1.2939   -1.2472 C   0  0  0  0  0  0  0  0  0  0  0  0
    0.1960   -0.0245   -0.7507 N   0  0  0  0  0  0  0  0  0  0  0  0
    1.5212   -0.8667   -0.2083 S   0  0  0  0  0  6  0  0  0  0  0  0
    2.3664   -0.1837    1.1149 N   0  0  0  0  0  0  0  0  0  0  0  0
    2.5360   -0.9717   -1.3415 O   0  0  0  0  0  0  0  0  0  0  0  0
    1.1312   -2.2776    0.1323 O   0  0  0  0  0  0  0  0  0  0  0  0
   -2.3698   -2.9643   -0.7206 H   0  0  0  0  0  0  0  0  0  0  0  0
   -1.6707   -1.7485   -1.6620 H   0  0  0  0  0  0  0  0  0  0  0  0
   -0.9097   -1.8923    1.2050 H   0  0  0  0  0  0  0  0  0  0  0  0
   -2.5417   -1.3328    0.7371 H   0  0  0  0  0  0  0  0  0  0  0  0
   -1.8205    0.3434   -0.6923 H   0  0  0  0  0  0  0  0  0  0  0  0
   -0.1653    0.4815    1.8824 H   0  0  0  0  0  0  0  0  0  0  0  0
   -1.9215    0.7950    1.6844 H   0  0  0  0  0  0  0  0  0  0  0  0
    1.3086    2.2269    0.4594 H   0  0  0  0  0  0  0  0  0  0  0  0
    0.2857    3.2992   -0.5442 H   0  0  0  0  0  0  0  0  0  0  0  0
    1.4170    1.3515   -1.6921 H   0  0  0  0  0  0  0  0  0  0  0  0
   -0.3865    1.5261   -1.9757 H   0  0  0  0  0  0  0  0  0  0  0  0
    2.9408   -0.9533    1.5425 H   0  0  0  0  0  0  0  0  0  0  0  0
    3.0359    0.5270    0.7591 H   0  0  0  0  0  0  0  0  0  0  0  0
  1  2  1  0
  2  3  1  0
  3  4  1  0
  4  5  1  0
  5  6  1  0
  6  7  1  0
  7  8  1  0
  8  9  1  0
  9 10  1  0
  9 11  2  0
  9 12  2  0
  8  3  1  0
  1 13  1  0
  1 14  1  0
  2 15  1  0
  2 16  1  0
  3 17  1  6
  4 18  1  0
  4 19  1  0
  6 20  1  0
  6 21  1  0
  7 22  1  0
  7 23  1  0
 10 24  1  0
 10 25  1  0
M  END
$$$$

     RDKit          3D

 25 25  0  0  0  0  0  0  0  0999 V2000
    2.7888   -1.0991    0.4741 N   0  0  0  0  0  0  0  0  0  0  0  0
    1.4740   -1.0966   -0.1660 C   0  0  0  0  0  0  0  0  0  0  0  0
    0.6348    0.0549    0.2718 C   0  0  1  0  0  0  0  0  0  0  0  0
    1.3446    1.3733   -0.0762 C   0  0  0  0  0  0  0  0  0  0  0  0
    0.5127    2.4590    0.1487 O   0  0  0  0  0  0  0  0  0  0  0  0
   -0.6770    2.4219   -0.5282 C   0  0  0  0  0  0  0  0  0  0  0  0
   -1.4289    1.1694   -0.0532 C   0  0  0  0  0  0  0  0  0  0  0  0
   -0.5935    0.0607   -0.4886 N   0  0  0  0  0  0  0  0  0  0  0  0
   -1.4235   -1.4044   -0.5852 S   0  0  0  0  0  6  0  0  0  0  0  0
   -2.0649   -1.9388    0.9410 N   0  0  0  0  0  0  0  0  0  0  0  0
   -2.6674   -1.1361   -1.4403 O   0  0  0  0  0  0  0  0  0  0  0  0
   -0.7141   -2.5283   -1.2248 O   0  0  0  0  0  0  0  0  0  0  0  0
    3.3030   -1.9355    0.0767 H   0  0  0  0  0  0  0  0  0  0  0  0
    3.3473   -0.2586    0.2134 H   0  0  0  0  0  0  0  0  0  0  0  0
    1.6606   -1.1417   -1.2542 H   0  0  0  0  0  0  0  0  0  0  0  0
    0.9965   -2.0448    0.2155 H   0  0  0  0  0  0  0  0  0  0  0  0
    0.4866    0.0324    1.3661 H   0  0  0  0  0  0  0  0  0  0  0  0
    2.1812    1.4509    0.6495 H   0  0  0  0  0  0  0  0  0  0  0  0
    1.7699    1.3422   -1.0910 H   0  0  0  0  0  0  0  0  0  0  0  0
   -0.5638    2.3698   -1.6369 H   0  0  0  0  0  0  0  0  0  0  0  0
   -1.2742    3.2874   -0.2496 H   0  0  0  0  0  0  0  0  0  0  0  0
   -2.4210    1.0895   -0.5093 H   0  0  0  0  0  0  0  0  0  0  0  0
   -1.4481    1.2303    1.0522 H   0  0  0  0  0  0  0  0  0  0  0  0
   -2.3959   -1.1217    1.5032 H   0  0  0  0  0  0  0  0  0  0  0  0
   -2.8278   -2.6362    0.7768 H   0  0  0  0  0  0  0  0  0  0  0  0
  1  2  1  0
  2  3  1  0
  3  4  1  0
  4  5  1  0
  5  6  1  0
  6  7  1  0
  7  8  1  0
  8  9  1  0
  9 10  1  0
  9 11  2  0
  9 12  2  0
  8  3  1  0
  1 13  1  0
  1 14  1  0
  2 15  1  0
  2 16  1  0
  3 17  1  1
  4 18  1  0
  4 19  1  0
  6 20  1  0
  6 21  1  0
  7 22  1  0
  7 23  1  0
 10 24  1  0
 10 25  1  0
M  END
$$$$
