
     RDKit          3D

 24 24  0  0  0  0  0  0  0  0999 V2000
   -0.9324   -2.2875   -0.2321 C   0  0  0  0  0  0  0  0  0  0  0  0
   -1.2574   -0.8904   -0.2410 N   0  0  0  0  0  0  0  0  0  0  0  0
   -0.3366    0.1162    0.0801 C   0  0  0  0  0  0  0  0  0  0  0  0
    0.9514   -0.1239    0.4113 C   0  0  0  0  0  0  0  0  0  0  0  0
    1.5551   -1.3894    0.4576 N   0  0  0  0  0  0  0  0  0  0  0  0
    2.2223   -1.9092   -0.7208 C   0  0  0  0  0  0  0  0  0  0  0  0
    2.2273   -1.1835   -1.7507 O   0  0  0  0  0  0  0  0  0  0  0  0
    1.7542    0.9982    0.7241 C   0  0  0  0  0  0  0  0  0  0  0  0
    2.9588    0.8495    1.0406 O   0  0  0  0  0  0  0  0  0  0  0  0
    1.2287    2.2269    0.6831 N   0  0  0  0  0  0  0  0  0  0  0  0
   -0.0551    2.4198    0.3487 C   0  0  0  0  0  0  0  0  0  0  0  0
   -0.5307    3.5974    0.3169 O   0  0  0  0  0  0  0  0  0  0  0  0
   -0.8346    1.3960    0.0507 N   0  0  0  0  0  0  0  0  0  0  0  0
   -2.2027    1.6278   -0.3033 C   0  0  0  0  0  0  0  0  0  0  0  0
   -1.9266   -2.8593   -0.3395 H   0  0  0  0  0  0  0  0  0  0  0  0
   -0.4170   -2.5583   -1.1611 H   0  0  0  0  0  0  0  0  0  0  0  0
   -0.4765   -2.5686    0.7086 H   0  0  0  0  0  0  0  0  0  0  0  0
   -2.2751   -0.6274   -0.5168 H   0  0  0  0  0  0  0  0  0  0  0  0
    1.5901   -2.0081    1.3284 H   0  0  0  0  0  0  0  0  0  0  0  0
    2.6860   -2.8866   -0.6778 H   0  0  0  0  0  0  0  0  0  0  0  0
    1.8476    3.0405    0.9200 H   0  0  0  0  0  0  0  0  0  0  0  0
   -2.4636    2.6917   -0.2011 H   0  0  0  0  0  0  0  0  0  0  0  0
   -2.8911    1.0844    0.4039 H   0  0  0  0  0  0  0  0  0  0  0  0
   -2.4220    1.2438   -1.3298 H   0  0  0  0  0  0  0  0  0  0  0  0
  1  2  1  0
  2  3  1  0
  3  4  2  0
  4  5  1  0
  5  6  1  0
  6  7  2  0
  4  8  1  0
  8  9  2  0
  8 10  1  0
 10 11  1  0
 11 12  2  0
 11 13  1  0
 13 14  1  0
 13  3  1  0
  1 15  1  0
  1 16  1  0
  1 17  1  0
  2 18  1  0
  5 19  1  0
  6 20  1  0
 10 21  1  0
 14 22  1  0
 14 23  1  0
 14 24  1  0
M  END
$$$$

     RDKit          3D

 24 24  0  0  0  0  0  0  0  0999 V2000
   -0.2110   -2.5245   -0.0222 C   0  0  0  0  0  0  0  0  0  0  0  0
   -0.8488   -1.2956   -0.3213 N   0  0  0  0  0  0  0  0  0  0  0  0
   -0.3741    0.0263   -0.1796 C   0  0  0  0  0  0  0  0  0  0  0  0
    0.8592    0.3369    0.3110 C   0  0  0  0  0  0  0  0  0  0  0  0
    1.7590   -0.6767    0.7380 N   0  0  0  0  0  0  0  0  0  0  0  0
    2.7027   -1.3255   -0.0957 C   0  0  0  0  0  0  0  0  0  0  0  0
    2.7637   -0.9872   -1.3257 O   0  0  0  0  0  0  0  0  0  0  0  0
    1.2913    1.6831    0.4238 C   0  0  0  0  0  0  0  0  0  0  0  0
    2.4278    1.8971    0.8790 O   0  0  0  0  0  0  0  0  0  0  0  0
    0.4351    2.6164    0.0286 N   0  0  0  0  0  0  0  0  0  0  0  0
   -0.7798    2.3584   -0.4567 C   0  0  0  0  0  0  0  0  0  0  0  0
   -1.5540    3.2957   -0.8184 O   0  0  0  0  0  0  0  0  0  0  0  0
   -1.1697    1.0830   -0.5557 N   0  0  0  0  0  0  0  0  0  0  0  0
   -2.4871    0.7818   -1.0808 C   0  0  0  0  0  0  0  0  0  0  0  0
   -1.0064   -3.3251   -0.0128 H   0  0  0  0  0  0  0  0  0  0  0  0
    0.2577   -2.4860    0.9707 H   0  0  0  0  0  0  0  0  0  0  0  0
    0.4789   -2.8793   -0.8401 H   0  0  0  0  0  0  0  0  0  0  0  0
   -1.8560   -1.3468   -0.7236 H   0  0  0  0  0  0  0  0  0  0  0  0
    1.7289   -0.9368    1.7449 H   0  0  0  0  0  0  0  0  0  0  0  0
    3.3516   -2.0870    0.3066 H   0  0  0  0  0  0  0  0  0  0  0  0
    0.7300    3.6345    0.1007 H   0  0  0  0  0  0  0  0  0  0  0  0
   -3.1029    0.2216   -0.3460 H   0  0  0  0  0  0  0  0  0  0  0  0
   -2.3825    0.2097   -2.0170 H   0  0  0  0  0  0  0  0  0  0  0  0
   -3.0137    1.7260   -1.2742 H   0  0  0  0  0  0  0  0  0  0  0  0
  1  2  1  0
  2  3  1  0
  3  4  2  0
  4  5  1  0
  5  6  1  0
  6  7  2  0
  4  8  1  0
  8  9  2  0
  8 10  1  0
 10 11  1  0
 11 12  2  0
 11 13  1  0
 13 14  1  0
 13  3  1  0
  1 15  1  0
  1 16  1  0
  1 17  1  0
  2 18  1  0
  5 19  1  0
  6 20  1  0
 10 21  1  0
 14 22  1  0
 14 23  1  0
 14 24  1  0
M  END
$$$$

     RDKit          3D

 24 24  0  0  0  0  0  0  0  0999 V2000
    0.6485    0.4735    2.4048 C   0  0  0  0  0  0  0  0  0  0  0  0
   -0.3943    0.4511    1.4248 N   0  0  0  0  0  0  0  0  0  0  0  0
   -0.3537   -0.0058    0.0981 C   0  0  0  0  0  0  0  0  0  0  0  0
    0.7730   -0.5347   -0.4775 C   0  0  0  0  0  0  0  0  0  0  0  0
    2.0010   -0.6854    0.2189 N   0  0  0  0  0  0  0  0  0  0  0  0
    2.9408    0.3652    0.2252 C   0  0  0  0  0  0  0  0  0  0  0  0
    2.7674    1.4634   -0.3597 O   0  0  0  0  0  0  0  0  0  0  0  0
    0.7280   -0.9534   -1.7946 C   0  0  0  0  0  0  0  0  0  0  0  0
    1.7619   -1.4512   -2.3620 O   0  0  0  0  0  0  0  0  0  0  0  0
   -0.4232   -0.8248   -2.4600 N   0  0  0  0  0  0  0  0  0  0  0  0
   -1.5021   -0.3105   -1.8839 C   0  0  0  0  0  0  0  0  0  0  0  0
   -2.5782   -0.2092   -2.5632 O   0  0  0  0  0  0  0  0  0  0  0  0
   -1.5109    0.1085   -0.6159 N   0  0  0  0  0  0  0  0  0  0  0  0
   -2.7212    0.6582   -0.0527 C   0  0  0  0  0  0  0  0  0  0  0  0
    1.2372    1.4265    2.2459 H   0  0  0  0  0  0  0  0  0  0  0  0
    1.2739   -0.4239    2.4550 H   0  0  0  0  0  0  0  0  0  0  0  0
    0.1785    0.5160    3.4341 H   0  0  0  0  0  0  0  0  0  0  0  0
   -1.3267    0.8489    1.7837 H   0  0  0  0  0  0  0  0  0  0  0  0
    2.1904   -1.6040    0.7083 H   0  0  0  0  0  0  0  0  0  0  0  0
    3.8632    0.2096    0.7675 H   0  0  0  0  0  0  0  0  0  0  0  0
   -0.4259   -1.1557   -3.4707 H   0  0  0  0  0  0  0  0  0  0  0  0
   -3.0930   -0.0140    0.7453 H   0  0  0  0  0  0  0  0  0  0  0  0
   -3.5050    0.7053   -0.8333 H   0  0  0  0  0  0  0  0  0  0  0  0
   -2.5295    1.6787    0.3620 H   0  0  0  0  0  0  0  0  0  0  0  0
  1  2  1  0
  2  3  1  0
  3  4  2  0
  4  5  1  0
  5  6  1  0
  6  7  2  0
  4  8  1  0
  8  9  2  0
  8 10  1  0
 10 11  1  0
 11 12  2  0
 11 13  1  0
 13 14  1  0
 13  3  1  0
  1 15  1  0
  1 16  1  0
  1 17  1  0
  2 18  1  0
  5 19  1  0
  6 20  1  0
 10 21  1  0
 14 22  1  0
 14 23  1  0
 14 24  1  0
M  END
$$$$

     RDKit          3D

 24 24  0  0  0  0  0  0  0  0999 V2000
   -0.6737    2.0508   -1.4708 C   0  0  0  0  0  0  0  0  0  0  0  0
    0.2047    1.0564   -0.9807 N   0  0  0  0  0  0  0  0  0  0  0  0
   -0.0754   -0.0151   -0.1517 C   0  0  0  0  0  0  0  0  0  0  0  0
    1.0331   -0.8216    0.1940 C   0  0  0  0  0  0  0  0  0  0  0  0
    2.2887   -0.4832   -0.3095 N   0  0  0  0  0  0  0  0  0  0  0  0
    3.2239    0.3741    0.3107 C   0  0  0  0  0  0  0  0  0  0  0  0
    2.9176    0.8830    1.4063 O   0  0  0  0  0  0  0  0  0  0  0  0
    0.8323   -1.9008    1.0086 C   0  0  0  0  0  0  0  0  0  0  0  0
    1.8463   -2.6178    1.3099 O   0  0  0  0  0  0  0  0  0  0  0  0
   -0.3848   -2.2106    1.4848 N   0  0  0  0  0  0  0  0  0  0  0  0
   -1.4191   -1.4432    1.1512 C   0  0  0  0  0  0  0  0  0  0  0  0
   -2.5709   -1.7065    1.5806 O   0  0  0  0  0  0  0  0  0  0  0  0
   -1.2838   -0.3434    0.3353 N   0  0  0  0  0  0  0  0  0  0  0  0
   -2.4738    0.4213    0.0237 C   0  0  0  0  0  0  0  0  0  0  0  0
   -0.0075    2.9289   -1.8497 H   0  0  0  0  0  0  0  0  0  0  0  0
   -1.1994    1.7882   -2.4286 H   0  0  0  0  0  0  0  0  0  0  0  0
   -1.2935    2.5771   -0.7405 H   0  0  0  0  0  0  0  0  0  0  0  0
    1.2120    1.1768   -1.3240 H   0  0  0  0  0  0  0  0  0  0  0  0
    2.5831   -0.8992   -1.2423 H   0  0  0  0  0  0  0  0  0  0  0  0
    4.1867    0.5733   -0.1747 H   0  0  0  0  0  0  0  0  0  0  0  0
   -0.4723   -3.0553    2.1080 H   0  0  0  0  0  0  0  0  0  0  0  0
   -2.5890    1.3498    0.5705 H   0  0  0  0  0  0  0  0  0  0  0  0
   -3.3705   -0.2652    0.2449 H   0  0  0  0  0  0  0  0  0  0  0  0
   -2.5149    0.5820   -1.0560 H   0  0  0  0  0  0  0  0  0  0  0  0
  1  2  1  0
  2  3  1  0
  3  4  2  0
  4  5  1  0
  5  6  1  0
  6  7  2  0
  4  8  1  0
  8  9  2  0
  8 10  1  0
 10 11  1  0
 11 12  2  0
 11 13  1  0
 13 14  1  0
 13  3  1  0
  1 15  1  0
  1 16  1  0
  1 17  1  0
  2 18  1  0
  5 19  1  0
  6 20  1  0
 10 21  1  0
 14 22  1  0
 14 23  1  0
 14 24  1  0
M  END
$$$$

     RDKit          3D

 24 24  0  0  0  0  0  0  0  0999 V2000
   -0.7152    2.2358   -0.8449 C   0  0  0  0  0  0  0  0  0  0  0  0
   -1.0533    0.8453   -0.7152 N   0  0  0  0  0  0  0  0  0  0  0  0
   -0.3572   -0.1216   -0.0023 C   0  0  0  0  0  0  0  0  0  0  0  0
    0.7742    0.1495    0.6943 C   0  0  0  0  0  0  0  0  0  0  0  0
    1.3740    1.4241    0.7970 N   0  0  0  0  0  0  0  0  0  0  0  0
    2.3373    1.8500   -0.1440 C   0  0  0  0  0  0  0  0  0  0  0  0
    2.6377    1.0461   -1.0763 O   0  0  0  0  0  0  0  0  0  0  0  0
    1.3994   -0.9036    1.3715 C   0  0  0  0  0  0  0  0  0  0  0  0
    2.4454   -0.6419    2.0126 O   0  0  0  0  0  0  0  0  0  0  0  0
    0.8891   -2.1338    1.3269 N   0  0  0  0  0  0  0  0  0  0  0  0
   -0.2339   -2.3477    0.6223 C   0  0  0  0  0  0  0  0  0  0  0  0
   -0.6800   -3.5271    0.6086 O   0  0  0  0  0  0  0  0  0  0  0  0
   -0.8829   -1.3930   -0.0472 N   0  0  0  0  0  0  0  0  0  0  0  0
   -2.1043   -1.6843   -0.7993 C   0  0  0  0  0  0  0  0  0  0  0  0
    0.0331    2.4155   -1.6622 H   0  0  0  0  0  0  0  0  0  0  0  0
   -0.4298    2.7526    0.0741 H   0  0  0  0  0  0  0  0  0  0  0  0
   -1.6229    2.8275   -1.1957 H   0  0  0  0  0  0  0  0  0  0  0  0
   -1.9477    0.5581   -1.2415 H   0  0  0  0  0  0  0  0  0  0  0  0
    1.1060    2.0323    1.5936 H   0  0  0  0  0  0  0  0  0  0  0  0
    2.8272    2.8269   -0.1040 H   0  0  0  0  0  0  0  0  0  0  0  0
    1.3720   -2.9280    1.8453 H   0  0  0  0  0  0  0  0  0  0  0  0
   -2.2288   -2.7670   -0.8098 H   0  0  0  0  0  0  0  0  0  0  0  0
   -1.9727   -1.3790   -1.8790 H   0  0  0  0  0  0  0  0  0  0  0  0
   -2.9667   -1.1367   -0.4249 H   0  0  0  0  0  0  0  0  0  0  0  0
  1  2  1  0
  2  3  1  0
  3  4  2  0
  4  5  1  0
  5  6  1  0
  6  7  2  0
  4  8  1  0
  8  9  2  0
  8 10  1  0
 10 11  1  0
 11 12  2  0
 11 13  1  0
 13 14  1  0
 13  3  1  0
  1 15  1  0
  1 16  1  0
  1 17  1  0
  2 18  1  0
  5 19  1  0
  6 20  1  0
 10 21  1  0
 14 22  1  0
 14 23  1  0
 14 24  1  0
M  END
$$$$

     RDKit          3D

 24 24  0  0  0  0  0  0  0  0999 V2000
    0.1590   -2.5012   -0.0137 C   0  0  0  0  0  0  0  0  0  0  0  0
   -0.6968   -1.3567    0.0805 N   0  0  0  0  0  0  0  0  0  0  0  0
   -0.3449   -0.0343   -0.1001 C   0  0  0  0  0  0  0  0  0  0  0  0
    0.9058    0.3970   -0.4066 C   0  0  0  0  0  0  0  0  0  0  0  0
    1.9813   -0.4876   -0.5844 N   0  0  0  0  0  0  0  0  0  0  0  0
    2.7537   -0.8359    0.5789 C   0  0  0  0  0  0  0  0  0  0  0  0
    2.4577   -0.3519    1.7095 O   0  0  0  0  0  0  0  0  0  0  0  0
    1.1569    1.7757   -0.5628 C   0  0  0  0  0  0  0  0  0  0  0  0
    2.3268    2.1211   -0.8450 O   0  0  0  0  0  0  0  0  0  0  0  0
    0.1435    2.6445   -0.4039 N   0  0  0  0  0  0  0  0  0  0  0  0
   -1.0748    2.1875   -0.1028 C   0  0  0  0  0  0  0  0  0  0  0  0
   -1.9924    3.0369    0.0363 O   0  0  0  0  0  0  0  0  0  0  0  0
   -1.3623    0.8890    0.0556 N   0  0  0  0  0  0  0  0  0  0  0  0
   -2.6796    0.4557    0.3767 C   0  0  0  0  0  0  0  0  0  0  0  0
    0.6644   -2.7037    0.9813 H   0  0  0  0  0  0  0  0  0  0  0  0
   -0.4876   -3.4456   -0.1192 H   0  0  0  0  0  0  0  0  0  0  0  0
    0.8286   -2.5345   -0.8680 H   0  0  0  0  0  0  0  0  0  0  0  0
   -1.7104   -1.6235    0.3236 H   0  0  0  0  0  0  0  0  0  0  0  0
    2.2690   -0.8912   -1.5047 H   0  0  0  0  0  0  0  0  0  0  0  0
    3.5922   -1.5136    0.4940 H   0  0  0  0  0  0  0  0  0  0  0  0
    0.3168    3.6763   -0.5176 H   0  0  0  0  0  0  0  0  0  0  0  0
   -2.7370   -0.1576    1.3008 H   0  0  0  0  0  0  0  0  0  0  0  0
   -3.1541   -0.0906   -0.4716 H   0  0  0  0  0  0  0  0  0  0  0  0
   -3.3158    1.3443    0.5636 H   0  0  0  0  0  0  0  0  0  0  0  0
  1  2  1  0
  2  3  1  0
  3  4  2  0
  4  5  1  0
  5  6  1  0
  6  7  2  0
  4  8  1  0
  8  9  2  0
  8 10  1  0
 10 11  1  0
 11 12  2  0
 11 13  1  0
 13 14  1  0
 13  3  1  0
  1 15  1  0
  1 16  1  0
  1 17  1  0
  2 18  1  0
  5 19  1  0
  6 20  1  0
 10 21  1  0
 14 22  1  0
 14 23  1  0
 14 24  1  0
M  END
$$$$

     RDKit          3D

 24 24  0  0  0  0  0  0  0  0999 V2000
   -0.9478   -2.4887    0.3385 C   0  0  0  0  0  0  0  0  0  0  0  0
   -0.0360   -1.4924   -0.0918 N   0  0  0  0  0  0  0  0  0  0  0  0
   -0.0917   -0.1045   -0.1303 C   0  0  0  0  0  0  0  0  0  0  0  0
    1.0046    0.6247   -0.6539 C   0  0  0  0  0  0  0  0  0  0  0  0
    2.1290   -0.0998   -1.1251 N   0  0  0  0  0  0  0  0  0  0  0  0
    3.2034   -0.4203   -0.2506 C   0  0  0  0  0  0  0  0  0  0  0  0
    3.1933   -0.0764    0.9557 O   0  0  0  0  0  0  0  0  0  0  0  0
    0.9372    1.9906   -0.6850 C   0  0  0  0  0  0  0  0  0  0  0  0
    1.9438    2.6060   -1.1633 O   0  0  0  0  0  0  0  0  0  0  0  0
   -0.1200    2.6899   -0.2432 N   0  0  0  0  0  0  0  0  0  0  0  0
   -1.1353    1.9886    0.2430 C   0  0  0  0  0  0  0  0  0  0  0  0
   -2.1299    2.6338    0.6593 O   0  0  0  0  0  0  0  0  0  0  0  0
   -1.1209    0.6108    0.2987 N   0  0  0  0  0  0  0  0  0  0  0  0
   -2.2942    0.0080    0.8589 C   0  0  0  0  0  0  0  0  0  0  0  0
   -0.5737   -3.4975   -0.0939 H   0  0  0  0  0  0  0  0  0  0  0  0
   -0.9596   -2.7038    1.4287 H   0  0  0  0  0  0  0  0  0  0  0  0
   -1.9734   -2.4023   -0.0161 H   0  0  0  0  0  0  0  0  0  0  0  0
    0.9107   -1.9028   -0.4669 H   0  0  0  0  0  0  0  0  0  0  0  0
    2.1142   -0.3757   -2.1357 H   0  0  0  0  0  0  0  0  0  0  0  0
    4.0485   -0.9769   -0.6479 H   0  0  0  0  0  0  0  0  0  0  0  0
   -0.1034    3.7237   -0.2972 H   0  0  0  0  0  0  0  0  0  0  0  0
   -2.8738    0.8080    1.4587 H   0  0  0  0  0  0  0  0  0  0  0  0
   -2.1087   -0.7520    1.6318 H   0  0  0  0  0  0  0  0  0  0  0  0
   -3.0161   -0.3911    0.1276 H   0  0  0  0  0  0  0  0  0  0  0  0
  1  2  1  0
  2  3  1  0
  3  4  2  0
  4  5  1  0
  5  6  1  0
  6  7  2  0
  4  8  1  0
  8  9  2  0
  8 10  1  0
 10 11  1  0
 11 12  2  0
 11 13  1  0
 13 14  1  0
 13  3  1  0
  1 15  1  0
  1 16  1  0
  1 17  1  0
  2 18  1  0
  5 19  1  0
  6 20  1  0
 10 21  1  0
 14 22  1  0
 14 23  1  0
 14 24  1  0
M  END
$$$$

     RDKit          3D

 24 24  0  0  0  0  0  0  0  0999 V2000
    1.1716    2.3699    0.4437 C   0  0  0  0  0  0  0  0  0  0  0  0
    0.1523    1.4752    0.0327 N   0  0  0  0  0  0  0  0  0  0  0  0
    0.0876    0.1086   -0.1378 C   0  0  0  0  0  0  0  0  0  0  0  0
   -1.1197   -0.4826   -0.5591 C   0  0  0  0  0  0  0  0  0  0  0  0
   -2.2187    0.3762   -0.7853 N   0  0  0  0  0  0  0  0  0  0  0  0
   -3.1151    0.6740    0.2779 C   0  0  0  0  0  0  0  0  0  0  0  0
   -2.9105    0.1641    1.4048 O   0  0  0  0  0  0  0  0  0  0  0  0
   -1.1927   -1.8372   -0.7327 C   0  0  0  0  0  0  0  0  0  0  0  0
   -2.2742   -2.3436   -1.1075 O   0  0  0  0  0  0  0  0  0  0  0  0
   -0.1502   -2.6446   -0.5170 N   0  0  0  0  0  0  0  0  0  0  0  0
    0.9900   -2.0807   -0.1185 C   0  0  0  0  0  0  0  0  0  0  0  0
    1.9722   -2.8436    0.0846 O   0  0  0  0  0  0  0  0  0  0  0  0
    1.0958   -0.7268    0.0646 N   0  0  0  0  0  0  0  0  0  0  0  0
    2.3910   -0.2582    0.4954 C   0  0  0  0  0  0  0  0  0  0  0  0
    0.6949    3.4019    0.6556 H   0  0  0  0  0  0  0  0  0  0  0  0
    1.8238    2.6294   -0.4382 H   0  0  0  0  0  0  0  0  0  0  0  0
    1.7184    2.1426    1.3461 H   0  0  0  0  0  0  0  0  0  0  0  0
   -0.7796    2.0032   -0.2004 H   0  0  0  0  0  0  0  0  0  0  0  0
   -2.3680    0.7879   -1.7302 H   0  0  0  0  0  0  0  0  0  0  0  0
   -3.9735    1.3247    0.1635 H   0  0  0  0  0  0  0  0  0  0  0  0
   -0.2384   -3.6980   -0.6610 H   0  0  0  0  0  0  0  0  0  0  0  0
    2.7844    0.5962   -0.0350 H   0  0  0  0  0  0  0  0  0  0  0  0
    3.1440   -1.1068    0.4770 H   0  0  0  0  0  0  0  0  0  0  0  0
    2.3145   -0.0318    1.5765 H   0  0  0  0  0  0  0  0  0  0  0  0
  1  2  1  0
  2  3  1  0
  3  4  2  0
  4  5  1  0
  5  6  1  0
  6  7  2  0
  4  8  1  0
  8  9  2  0
  8 10  1  0
 10 11  1  0
 11 12  2  0
 11 13  1  0
 13 14  1  0
 13  3  1  0
  1 15  1  0
  1 16  1  0
  1 17  1  0
  2 18  1  0
  5 19  1  0
  6 20  1  0
 10 21  1  0
 14 22  1  0
 14 23  1  0
 14 24  1  0
M  END
$$$$
