
     RDKit          3D

 22 22  0  0  0  0  0  0  0  0999 V2000
    3.4409   -1.5363    1.2578 O   0  0  0  0  0  0  0  0  0  0  0  0
    2.6426   -1.4622    0.3265 N   0  0  0  0  0  4  0  0  0  0  0  0
    2.8007   -2.3146   -0.7378 O   0  0  0  0  0  1  0  0  0  0  0  0
    1.5594   -0.5258    0.3088 C   0  0  0  0  0  0  0  0  0  0  0  0
    1.5682    0.3882   -0.6428 C   0  0  0  0  0  0  0  0  0  0  0  0
    0.4645    1.3852   -0.7050 C   0  0  1  0  0  0  0  0  0  0  0  0
    0.3474    1.8509   -2.0078 O   0  0  0  0  0  0  0  0  0  0  0  0
   -0.8497    0.7574   -0.3005 C   0  0  2  0  0  0  0  0  0  0  0  0
   -1.7521    1.7976   -0.0808 O   0  0  0  0  0  0  0  0  0  0  0  0
   -0.7524   -0.0587    0.9455 C   0  0  1  0  0  0  0  0  0  0  0  0
   -1.7593   -1.2022    0.8481 C   0  0  0  0  0  0  0  0  0  0  0  0
   -1.4214   -2.0979   -0.1628 O   0  0  0  0  0  0  0  0  0  0  0  0
    0.5310   -0.5358    1.2206 O   0  0  0  0  0  0  0  0  0  0  0  0
    2.3603    0.4341   -1.3845 H   0  0  0  0  0  0  0  0  0  0  0  0
    0.7112    2.2242   -0.0558 H   0  0  0  0  0  0  0  0  0  0  0  0
   -0.2307    2.6288   -2.0981 H   0  0  0  0  0  0  0  0  0  0  0  0
   -1.2789    0.1309   -1.1129 H   0  0  0  0  0  0  0  0  0  0  0  0
   -2.0630    1.8579    0.8386 H   0  0  0  0  0  0  0  0  0  0  0  0
   -1.0753    0.5530    1.8090 H   0  0  0  0  0  0  0  0  0  0  0  0
   -2.7488   -0.7250    0.6630 H   0  0  0  0  0  0  0  0  0  0  0  0
   -1.8019   -1.7569    1.8090 H   0  0  0  0  0  0  0  0  0  0  0  0
   -0.6926   -1.7927   -0.7382 H   0  0  0  0  0  0  0  0  0  0  0  0
  1  2  2  0
  2  3  1  0
  2  4  1  0
  4  5  2  0
  5  6  1  0
  6  7  1  0
  6  8  1  0
  8  9  1  0
  8 10  1  0
 10 11  1  0
 11 12  1  0
 10 13  1  0
 13  4  1  0
  5 14  1  0
  6 15  1  1
  7 16  1  0
  8 17  1  6
  9 18  1  0
 10 19  1  1
 11 20  1  0
 11 21  1  0
 12 22  1  0
M  CHG  2   2   1   3  -1
M  END
$$$$

     RDKit          3D

 22 22  0  0  0  0  0  0  0  0999 V2000
    3.6109   -1.7626   -0.5777 O   0  0  0  0  0  0  0  0  0  0  0  0
    2.4236   -1.9937   -0.2647 N   0  0  0  0  0  4  0  0  0  0  0  0
    2.0723   -3.2951   -0.0666 O   0  0  0  0  0  1  0  0  0  0  0  0
    1.4988   -0.9276   -0.1274 C   0  0  0  0  0  0  0  0  0  0  0  0
    1.8343    0.3254   -0.3189 C   0  0  0  0  0  0  0  0  0  0  0  0
    0.9077    1.4560   -0.1867 C   0  0  1  0  0  0  0  0  0  0  0  0
    1.1325    2.3260   -1.2663 O   0  0  0  0  0  0  0  0  0  0  0  0
   -0.5302    1.0870   -0.1902 C   0  0  2  0  0  0  0  0  0  0  0  0
   -1.2114    2.0373    0.6069 O   0  0  0  0  0  0  0  0  0  0  0  0
   -0.8502   -0.2802    0.2930 C   0  0  1  0  0  0  0  0  0  0  0  0
   -2.0180   -0.8717   -0.5101 C   0  0  0  0  0  0  0  0  0  0  0  0
   -2.3230   -2.0942    0.1314 O   0  0  0  0  0  0  0  0  0  0  0  0
    0.1899   -1.2024    0.2211 O   0  0  0  0  0  0  0  0  0  0  0  0
    2.8684    0.5789   -0.5973 H   0  0  0  0  0  0  0  0  0  0  0  0
    1.1758    2.0344    0.7240 H   0  0  0  0  0  0  0  0  0  0  0  0
    0.6335    3.1667   -1.0811 H   0  0  0  0  0  0  0  0  0  0  0  0
   -0.9617    1.2131   -1.2124 H   0  0  0  0  0  0  0  0  0  0  0  0
   -1.8725    1.5624    1.1810 H   0  0  0  0  0  0  0  0  0  0  0  0
   -1.1583   -0.2049    1.3610 H   0  0  0  0  0  0  0  0  0  0  0  0
   -2.8739   -0.1965   -0.5529 H   0  0  0  0  0  0  0  0  0  0  0  0
   -1.6807   -1.1288   -1.5347 H   0  0  0  0  0  0  0  0  0  0  0  0
   -2.8676   -1.8294    0.9329 H   0  0  0  0  0  0  0  0  0  0  0  0
  1  2  2  0
  2  3  1  0
  2  4  1  0
  4  5  2  0
  5  6  1  0
  6  7  1  0
  6  8  1  0
  8  9  1  0
  8 10  1  0
 10 11  1  0
 11 12  1  0
 10 13  1  0
 13  4  1  0
  5 14  1  0
  6 15  1  1
  7 16  1  0
  8 17  1  6
  9 18  1  0
 10 19  1  1
 11 20  1  0
 11 21  1  0
 12 22  1  0
M  CHG  2   2   1   3  -1
M  END
$$$$

     RDKit          3D

 22 22  0  0  0  0  0  0  0  0999 V2000
   -2.1955    2.6303   -1.9052 O   0  0  0  0  0  0  0  0  0  0  0  0
   -1.9665    2.3040   -0.7287 N   0  0  0  0  0  4  0  0  0  0  0  0
   -2.3900    3.0353    0.3384 O   0  0  0  0  0  1  0  0  0  0  0  0
   -1.2206    1.0988   -0.4993 C   0  0  0  0  0  0  0  0  0  0  0  0
   -1.8440   -0.0540   -0.3315 C   0  0  0  0  0  0  0  0  0  0  0  0
   -1.0375   -1.2716   -0.0977 C   0  0  1  0  0  0  0  0  0  0  0  0
   -0.6480   -1.8386   -1.2976 O   0  0  0  0  0  0  0  0  0  0  0  0
    0.1576   -0.9882    0.7869 C   0  0  2  0  0  0  0  0  0  0  0  0
   -0.2980   -0.9633    2.1074 O   0  0  0  0  0  0  0  0  0  0  0  0
    0.8687    0.2735    0.4363 C   0  0  1  0  0  0  0  0  0  0  0  0
    2.2804   -0.0015   -0.0780 C   0  0  0  0  0  0  0  0  0  0  0  0
    2.9027    1.2435   -0.1784 O   0  0  0  0  0  0  0  0  0  0  0  0
    0.1618    1.1049   -0.4469 O   0  0  0  0  0  0  0  0  0  0  0  0
   -2.9070   -0.1077   -0.3636 H   0  0  0  0  0  0  0  0  0  0  0  0
   -1.6712   -2.0336    0.4359 H   0  0  0  0  0  0  0  0  0  0  0  0
   -1.1563   -2.6604   -1.5097 H   0  0  0  0  0  0  0  0  0  0  0  0
    0.8731   -1.8461    0.6608 H   0  0  0  0  0  0  0  0  0  0  0  0
    0.4921   -0.9525    2.7045 H   0  0  0  0  0  0  0  0  0  0  0  0
    1.0144    0.8641    1.3790 H   0  0  0  0  0  0  0  0  0  0  0  0
    2.8186   -0.6201    0.6397 H   0  0  0  0  0  0  0  0  0  0  0  0
    2.2491   -0.4541   -1.0929 H   0  0  0  0  0  0  0  0  0  0  0  0
    3.5161    1.2370   -0.9594 H   0  0  0  0  0  0  0  0  0  0  0  0
  1  2  2  0
  2  3  1  0
  2  4  1  0
  4  5  2  0
  5  6  1  0
  6  7  1  0
  6  8  1  0
  8  9  1  0
  8 10  1  0
 10 11  1  0
 11 12  1  0
 10 13  1  0
 13  4  1  0
  5 14  1  0
  6 15  1  1
  7 16  1  0
  8 17  1  1
  9 18  1  0
 10 19  1  1
 11 20  1  0
 11 21  1  0
 12 22  1  0
M  CHG  2   2   1   3  -1
M  END
$$$$

     RDKit          3D

 22 22  0  0  0  0  0  0  0  0999 V2000
    2.6933    2.6733   -0.9997 O   0  0  0  0  0  0  0  0  0  0  0  0
    2.4367    1.9798    0.0002 N   0  0  0  0  0  4  0  0  0  0  0  0
    3.0544    2.1671    1.2082 O   0  0  0  0  0  1  0  0  0  0  0  0
    1.4606    0.9571   -0.1360 C   0  0  0  0  0  0  0  0  0  0  0  0
    1.8167   -0.2646    0.2116 C   0  0  0  0  0  0  0  0  0  0  0  0
    0.8206   -1.3524    0.0808 C   0  0  1  0  0  0  0  0  0  0  0  0
    1.0944   -2.4574    0.8353 O   0  0  0  0  0  0  0  0  0  0  0  0
   -0.5269   -0.7168    0.4367 C   0  0  2  0  0  0  0  0  0  0  0  0
   -1.5102   -1.6451    0.6376 O   0  0  0  0  0  0  0  0  0  0  0  0
   -0.8012    0.2409   -0.6868 C   0  0  1  0  0  0  0  0  0  0  0  0
   -2.2037    0.7735   -0.6853 C   0  0  0  0  0  0  0  0  0  0  0  0
   -2.5204    1.5044    0.4321 O   0  0  0  0  0  0  0  0  0  0  0  0
    0.1755    1.2491   -0.6214 O   0  0  0  0  0  0  0  0  0  0  0  0
    2.8096   -0.4589    0.5807 H   0  0  0  0  0  0  0  0  0  0  0  0
    0.7509   -1.6306   -1.0117 H   0  0  0  0  0  0  0  0  0  0  0  0
    1.5434   -3.1610    0.2737 H   0  0  0  0  0  0  0  0  0  0  0  0
   -0.3354   -0.1145    1.3700 H   0  0  0  0  0  0  0  0  0  0  0  0
   -1.3419   -2.0928    1.5050 H   0  0  0  0  0  0  0  0  0  0  0  0
   -0.6695   -0.3273   -1.6384 H   0  0  0  0  0  0  0  0  0  0  0  0
   -2.8860   -0.1054   -0.7523 H   0  0  0  0  0  0  0  0  0  0  0  0
   -2.3500    1.3494   -1.6131 H   0  0  0  0  0  0  0  0  0  0  0  0
   -3.5109    1.4324    0.5728 H   0  0  0  0  0  0  0  0  0  0  0  0
  1  2  2  0
  2  3  1  0
  2  4  1  0
  4  5  2  0
  5  6  1  0
  6  7  1  0
  6  8  1  0
  8  9  1  0
  8 10  1  0
 10 11  1  0
 11 12  1  0
 10 13  1  0
 13  4  1  0
  5 14  1  0
  6 15  1  6
  7 16  1  0
  8 17  1  1
  9 18  1  0
 10 19  1  6
 11 20  1  0
 11 21  1  0
 12 22  1  0
M  CHG  2   2   1   3  -1
M  END
$$$$

     RDKit          3D

 22 22  0  0  0  0  0  0  0  0999 V2000
    3.8339   -0.3193   -0.5164 O   0  0  0  0  0  0  0  0  0  0  0  0
    3.0274   -0.4071    0.4158 N   0  0  0  0  0  4  0  0  0  0  0  0
    3.4864   -0.4852    1.6970 O   0  0  0  0  0  1  0  0  0  0  0  0
    1.6390   -0.4261    0.1500 C   0  0  0  0  0  0  0  0  0  0  0  0
    0.9641   -1.5534   -0.0252 C   0  0  0  0  0  0  0  0  0  0  0  0
   -0.4873   -1.5403   -0.3017 C   0  0  1  0  0  0  0  0  0  0  0  0
   -1.1301   -2.6816    0.1503 O   0  0  0  0  0  0  0  0  0  0  0  0
   -1.0508   -0.2791    0.3228 C   0  0  2  0  0  0  0  0  0  0  0  0
   -2.4172   -0.1945    0.2143 O   0  0  0  0  0  0  0  0  0  0  0  0
   -0.3317    0.8647   -0.3626 C   0  0  1  0  0  0  0  0  0  0  0  0
   -0.9803    2.1948   -0.0875 C   0  0  0  0  0  0  0  0  0  0  0  0
   -0.2368    3.1621   -0.7684 O   0  0  0  0  0  0  0  0  0  0  0  0
    1.0118    0.8239    0.0817 O   0  0  0  0  0  0  0  0  0  0  0  0
    1.5004   -2.4746    0.0392 H   0  0  0  0  0  0  0  0  0  0  0  0
   -0.6343   -1.4930   -1.4054 H   0  0  0  0  0  0  0  0  0  0  0  0
   -1.9757   -2.7547   -0.3478 H   0  0  0  0  0  0  0  0  0  0  0  0
   -0.7043   -0.2850    1.3914 H   0  0  0  0  0  0  0  0  0  0  0  0
   -2.8473   -0.3495    1.1138 H   0  0  0  0  0  0  0  0  0  0  0  0
   -0.3211    0.6856   -1.4555 H   0  0  0  0  0  0  0  0  0  0  0  0
   -1.0939    2.4069    0.9830 H   0  0  0  0  0  0  0  0  0  0  0  0
   -1.9802    2.1774   -0.5884 H   0  0  0  0  0  0  0  0  0  0  0  0
    0.7280    2.9279   -0.7005 H   0  0  0  0  0  0  0  0  0  0  0  0
  1  2  2  0
  2  3  1  0
  2  4  1  0
  4  5  2  0
  5  6  1  0
  6  7  1  0
  6  8  1  0
  8  9  1  0
  8 10  1  0
 10 11  1  0
 11 12  1  0
 10 13  1  0
 13  4  1  0
  5 14  1  0
  6 15  1  6
  7 16  1  0
  8 17  1  1
  9 18  1  0
 10 19  1  6
 11 20  1  0
 11 21  1  0
 12 22  1  0
M  CHG  2   2   1   3  -1
M  END
$$$$

     RDKit          3D

 22 22  0  0  0  0  0  0  0  0999 V2000
   -3.3779   -0.9344    1.7428 O   0  0  0  0  0  0  0  0  0  0  0  0
   -2.7532   -1.5163    0.8413 N   0  0  0  0  0  4  0  0  0  0  0  0
   -3.1787   -2.7105    0.3605 O   0  0  0  0  0  1  0  0  0  0  0  0
   -1.5696   -0.8508    0.3503 C   0  0  0  0  0  0  0  0  0  0  0  0
   -1.5984   -0.1951   -0.7952 C   0  0  0  0  0  0  0  0  0  0  0  0
   -0.4398    0.5183   -1.3825 C   0  0  1  0  0  0  0  0  0  0  0  0
   -0.8308    1.6603   -2.0757 O   0  0  0  0  0  0  0  0  0  0  0  0
    0.5168    0.8368   -0.2547 C   0  0  2  0  0  0  0  0  0  0  0  0
    1.6785    1.4458   -0.7054 O   0  0  0  0  0  0  0  0  0  0  0  0
    0.7982   -0.4804    0.4357 C   0  0  1  0  0  0  0  0  0  0  0  0
    1.9672   -0.3728    1.3850 C   0  0  0  0  0  0  0  0  0  0  0  0
    3.1015    0.0348    0.6854 O   0  0  0  0  0  0  0  0  0  0  0  0
   -0.3824   -0.8871    1.0705 O   0  0  0  0  0  0  0  0  0  0  0  0
   -2.5355   -0.1840   -1.3335 H   0  0  0  0  0  0  0  0  0  0  0  0
    0.1213   -0.1369   -2.1009 H   0  0  0  0  0  0  0  0  0  0  0  0
   -1.1531    2.3766   -1.5075 H   0  0  0  0  0  0  0  0  0  0  0  0
   -0.0525    1.5020    0.4567 H   0  0  0  0  0  0  0  0  0  0  0  0
    1.5577    2.4210   -0.5776 H   0  0  0  0  0  0  0  0  0  0  0  0
    1.0489   -1.2248   -0.3498 H   0  0  0  0  0  0  0  0  0  0  0  0
    1.7774    0.4095    2.1514 H   0  0  0  0  0  0  0  0  0  0  0  0
    2.1919   -1.3455    1.8293 H   0  0  0  0  0  0  0  0  0  0  0  0
    3.1123   -0.3664   -0.2260 H   0  0  0  0  0  0  0  0  0  0  0  0
  1  2  2  0
  2  3  1  0
  2  4  1  0
  4  5  2  0
  5  6  1  0
  6  7  1  0
  6  8  1  0
  8  9  1  0
  8 10  1  0
 10 11  1  0
 11 12  1  0
 10 13  1  0
 13  4  1  0
  5 14  1  0
  6 15  1  6
  7 16  1  0
  8 17  1  1
  9 18  1  0
 10 19  1  6
 11 20  1  0
 11 21  1  0
 12 22  1  0
M  CHG  2   2   1   3  -1
M  END
$$$$

     RDKit          3D

 22 22  0  0  0  0  0  0  0  0999 V2000
    3.3885   -1.1322    1.5665 O   0  0  0  0  0  0  0  0  0  0  0  0
    3.0900   -0.8013    0.4080 N   0  0  0  0  0  4  0  0  0  0  0  0
    4.0203   -0.6456   -0.5842 O   0  0  0  0  0  1  0  0  0  0  0  0
    1.7279   -0.5747    0.0974 C   0  0  0  0  0  0  0  0  0  0  0  0
    0.9655   -1.6080   -0.2275 C   0  0  0  0  0  0  0  0  0  0  0  0
   -0.4638   -1.3665   -0.5530 C   0  0  1  0  0  0  0  0  0  0  0  0
   -1.2541   -2.4875   -0.3574 O   0  0  0  0  0  0  0  0  0  0  0  0
   -0.9110   -0.1831    0.2744 C   0  0  2  0  0  0  0  0  0  0  0  0
   -2.2793    0.0079    0.2329 O   0  0  0  0  0  0  0  0  0  0  0  0
   -0.1199    0.9982   -0.1771 C   0  0  1  0  0  0  0  0  0  0  0  0
   -0.5715    2.3020    0.4363 C   0  0  0  0  0  0  0  0  0  0  0  0
   -1.8958    2.5062    0.0918 O   0  0  0  0  0  0  0  0  0  0  0  0
    1.2491    0.7336    0.1480 O   0  0  0  0  0  0  0  0  0  0  0  0
    1.3608   -2.6157   -0.2598 H   0  0  0  0  0  0  0  0  0  0  0  0
   -0.5246   -1.0492   -1.6305 H   0  0  0  0  0  0  0  0  0  0  0  0
   -1.9797   -2.4592   -1.0391 H   0  0  0  0  0  0  0  0  0  0  0  0
   -0.6252   -0.4182    1.3305 H   0  0  0  0  0  0  0  0  0  0  0  0
   -2.6877   -0.5507    0.9549 H   0  0  0  0  0  0  0  0  0  0  0  0
   -0.1531    1.0444   -1.2846 H   0  0  0  0  0  0  0  0  0  0  0  0
   -0.3936    2.3611    1.5084 H   0  0  0  0  0  0  0  0  0  0  0  0
    0.0268    3.1060   -0.0824 H   0  0  0  0  0  0  0  0  0  0  0  0
   -1.9696    2.8326   -0.8534 H   0  0  0  0  0  0  0  0  0  0  0  0
  1  2  2  0
  2  3  1  0
  2  4  1  0
  4  5  2  0
  5  6  1  0
  6  7  1  0
  6  8  1  0
  8  9  1  0
  8 10  1  0
 10 11  1  0
 11 12  1  0
 10 13  1  0
 13  4  1  0
  5 14  1  0
  6 15  1  6
  7 16  1  0
  8 17  1  1
  9 18  1  0
 10 19  1  6
 11 20  1  0
 11 21  1  0
 12 22  1  0
M  CHG  2   2   1   3  -1
M  END
$$$$

     RDKit          3D

 22 22  0  0  0  0  0  0  0  0999 V2000
    3.6965   -1.1570   -0.1778 O   0  0  0  0  0  0  0  0  0  0  0  0
    3.1421   -0.0717   -0.4728 N   0  0  0  0  0  4  0  0  0  0  0  0
    3.8870    0.9216   -1.0754 O   0  0  0  0  0  1  0  0  0  0  0  0
    1.7520    0.1286   -0.1855 C   0  0  0  0  0  0  0  0  0  0  0  0
    1.3054    1.3331    0.0895 C   0  0  0  0  0  0  0  0  0  0  0  0
   -0.1412    1.5084    0.3832 C   0  0  1  0  0  0  0  0  0  0  0  0
   -0.5879    2.7872    0.0951 O   0  0  0  0  0  0  0  0  0  0  0  0
   -0.8703    0.4503   -0.4200 C   0  0  2  0  0  0  0  0  0  0  0  0
   -2.2364    0.6099   -0.4059 O   0  0  0  0  0  0  0  0  0  0  0  0
   -0.4081   -0.8763    0.1212 C   0  0  1  0  0  0  0  0  0  0  0  0
   -1.2406   -2.0292   -0.3653 C   0  0  0  0  0  0  0  0  0  0  0  0
   -2.5750   -1.8557   -0.0052 O   0  0  0  0  0  0  0  0  0  0  0  0
    0.9540   -1.0091   -0.2213 O   0  0  0  0  0  0  0  0  0  0  0  0
    2.0062    2.1762    0.0959 H   0  0  0  0  0  0  0  0  0  0  0  0
   -0.2716    1.2474    1.4681 H   0  0  0  0  0  0  0  0  0  0  0  0
    0.1179    3.3638   -0.3201 H   0  0  0  0  0  0  0  0  0  0  0  0
   -0.5128    0.5448   -1.4649 H   0  0  0  0  0  0  0  0  0  0  0  0
   -2.6620    0.4443    0.4496 H   0  0  0  0  0  0  0  0  0  0  0  0
   -0.4652   -0.8360    1.2205 H   0  0  0  0  0  0  0  0  0  0  0  0
   -0.8673   -2.9408    0.1511 H   0  0  0  0  0  0  0  0  0  0  0  0
   -1.1561   -2.1949   -1.4504 H   0  0  0  0  0  0  0  0  0  0  0  0
   -2.8667   -2.5450    0.6625 H   0  0  0  0  0  0  0  0  0  0  0  0
  1  2  2  0
  2  3  1  0
  2  4  1  0
  4  5  2  0
  5  6  1  0
  6  7  1  0
  6  8  1  0
  8  9  1  0
  8 10  1  0
 10 11  1  0
 11 12  1  0
 10 13  1  0
 13  4  1  0
  5 14  1  0
  6 15  1  1
  7 16  1  0
  8 17  1  6
  9 18  1  0
 10 19  1  1
 11 20  1  0
 11 21  1  0
 12 22  1  0
M  CHG  2   2   1   3  -1
M  END
$$$$
