
     RDKit          3D

 24 23  0  0  0  0  0  0  0  0999 V2000
   -3.1827    0.0187   -0.1738 C   0  0  0  0  0  0  0  0  0  0  0  0
   -1.8239   -0.5906   -0.2255 C   0  0  2  0  0  0  0  0  0  0  0  0
   -1.7538   -1.5728    0.7623 O   0  0  0  0  0  0  0  0  0  0  0  0
   -0.7035    0.3881   -0.0528 C   0  0  2  0  0  0  0  0  0  0  0  0
   -0.6689    1.3968   -0.9639 O   0  0  0  0  0  0  0  0  0  0  0  0
    0.6275   -0.3324   -0.0711 C   0  0  1  0  0  0  0  0  0  0  0  0
    0.8338   -0.8429   -1.3490 O   0  0  0  0  0  0  0  0  0  0  0  0
    1.7548    0.5777    0.3743 C   0  0  1  0  0  0  0  0  0  0  0  0
    3.0445   -0.1932    0.3305 C   0  0  0  0  0  0  0  0  0  0  0  0
    1.8856    1.6664   -0.4920 O   0  0  0  0  0  0  0  0  0  0  0  0
   -3.4723    0.2285    0.8839 H   0  0  0  0  0  0  0  0  0  0  0  0
   -3.9063   -0.7537   -0.5664 H   0  0  0  0  0  0  0  0  0  0  0  0
   -3.3096    0.8978   -0.8292 H   0  0  0  0  0  0  0  0  0  0  0  0
   -1.7290   -1.1309   -1.2041 H   0  0  0  0  0  0  0  0  0  0  0  0
   -2.3535   -2.3325    0.5915 H   0  0  0  0  0  0  0  0  0  0  0  0
   -0.8090    0.8351    0.9691 H   0  0  0  0  0  0  0  0  0  0  0  0
   -1.0422    2.2539   -0.6766 H   0  0  0  0  0  0  0  0  0  0  0  0
    0.6370   -1.1996    0.6382 H   0  0  0  0  0  0  0  0  0  0  0  0
    1.6554   -1.3731   -1.3977 H   0  0  0  0  0  0  0  0  0  0  0  0
    1.5071    0.9540    1.3713 H   0  0  0  0  0  0  0  0  0  0  0  0
    2.8818   -1.2181    0.7314 H   0  0  0  0  0  0  0  0  0  0  0  0
    3.8168    0.3703    0.9030 H   0  0  0  0  0  0  0  0  0  0  0  0
    3.4268   -0.2169   -0.7269 H   0  0  0  0  0  0  0  0  0  0  0  0
    2.6835    2.1696   -0.1987 H   0  0  0  0  0  0  0  0  0  0  0  0
  1  2  1  0
  2  3  1  0
  2  4  1  0
  4  5  1  0
  4  6  1  0
  6  7  1  0
  6  8  1  0
  8  9  1  0
  8 10  1  0
  1 11  1  0
  1 12  1  0
  1 13  1  0
  2 14  1  6
  3 15  1  0
  4 16  1  1
  5 17  1  0
  6 18  1  1
  7 19  1  0
  8 20  1  1
  9 21  1  0
  9 22  1  0
  9 23  1  0
 10 24  1  0
M  END
$$$$

     RDKit          3D

 24 23  0  0  0  0  0  0  0  0999 V2000
    2.3132    0.8489   -0.5203 C   0  0  0  0  0  0  0  0  0  0  0  0
    1.8041    0.0386    0.6525 C   0  0  2  0  0  0  0  0  0  0  0  0
    2.6974   -1.0071    0.8606 O   0  0  0  0  0  0  0  0  0  0  0  0
    0.4331   -0.5323    0.3962 C   0  0  2  0  0  0  0  0  0  0  0  0
    0.5195   -1.3399   -0.7391 O   0  0  0  0  0  0  0  0  0  0  0  0
   -0.5994    0.5532    0.1808 C   0  0  1  0  0  0  0  0  0  0  0  0
   -0.2111    1.3232   -0.9156 O   0  0  0  0  0  0  0  0  0  0  0  0
   -1.9605    0.0190   -0.0931 C   0  0  1  0  0  0  0  0  0  0  0  0
   -2.5198   -0.8432    0.9973 C   0  0  0  0  0  0  0  0  0  0  0  0
   -2.8226    1.1003   -0.2711 O   0  0  0  0  0  0  0  0  0  0  0  0
    1.8956    0.4230   -1.4452 H   0  0  0  0  0  0  0  0  0  0  0  0
    1.9999    1.9018   -0.4259 H   0  0  0  0  0  0  0  0  0  0  0  0
    3.4228    0.8021   -0.5812 H   0  0  0  0  0  0  0  0  0  0  0  0
    1.8282    0.6821    1.5606 H   0  0  0  0  0  0  0  0  0  0  0  0
    3.2521   -1.2111    0.0704 H   0  0  0  0  0  0  0  0  0  0  0  0
    0.1838   -1.1920    1.2378 H   0  0  0  0  0  0  0  0  0  0  0  0
    1.4262   -1.6969   -0.7831 H   0  0  0  0  0  0  0  0  0  0  0  0
   -0.5875    1.2116    1.0713 H   0  0  0  0  0  0  0  0  0  0  0  0
   -0.4393    0.8738   -1.7696 H   0  0  0  0  0  0  0  0  0  0  0  0
   -1.9295   -0.5803   -1.0345 H   0  0  0  0  0  0  0  0  0  0  0  0
   -2.4478   -0.3806    1.9847 H   0  0  0  0  0  0  0  0  0  0  0  0
   -3.6210   -0.9606    0.7769 H   0  0  0  0  0  0  0  0  0  0  0  0
   -2.1202   -1.8807    0.9791 H   0  0  0  0  0  0  0  0  0  0  0  0
   -2.5173    1.8469    0.3345 H   0  0  0  0  0  0  0  0  0  0  0  0
  1  2  1  0
  2  3  1  0
  2  4  1  0
  4  5  1  0
  4  6  1  0
  6  7  1  0
  6  8  1  0
  8  9  1  0
  8 10  1  0
  1 11  1  0
  1 12  1  0
  1 13  1  0
  2 14  1  1
  3 15  1  0
  4 16  1  1
  5 17  1  0
  6 18  1  1
  7 19  1  0
  8 20  1  6
  9 21  1  0
  9 22  1  0
  9 23  1  0
 10 24  1  0
M  END
$$$$

     RDKit          3D

 24 23  0  0  0  0  0  0  0  0999 V2000
   -2.1505   -1.0586    0.4358 C   0  0  0  0  0  0  0  0  0  0  0  0
   -1.6885    0.3660    0.4019 C   0  0  2  0  0  0  0  0  0  0  0  0
   -2.8268    1.1524    0.1090 O   0  0  0  0  0  0  0  0  0  0  0  0
   -0.6898    0.6046   -0.7070 C   0  0  2  0  0  0  0  0  0  0  0  0
   -1.3060    0.2069   -1.9037 O   0  0  0  0  0  0  0  0  0  0  0  0
    0.5524   -0.2094   -0.5515 C   0  0  1  0  0  0  0  0  0  0  0  0
    1.3675    0.0577   -1.6646 O   0  0  0  0  0  0  0  0  0  0  0  0
    1.3501    0.1230    0.6714 C   0  0  1  0  0  0  0  0  0  0  0  0
    2.6558   -0.6713    0.5935 C   0  0  0  0  0  0  0  0  0  0  0  0
    1.7140    1.4769    0.6414 O   0  0  0  0  0  0  0  0  0  0  0  0
   -1.3291   -1.7770    0.4829 H   0  0  0  0  0  0  0  0  0  0  0  0
   -2.7952   -1.2471   -0.4503 H   0  0  0  0  0  0  0  0  0  0  0  0
   -2.7963   -1.1889    1.3287 H   0  0  0  0  0  0  0  0  0  0  0  0
   -1.2907    0.7068    1.3775 H   0  0  0  0  0  0  0  0  0  0  0  0
   -2.5838    2.0941    0.0449 H   0  0  0  0  0  0  0  0  0  0  0  0
   -0.4474    1.6641   -0.8176 H   0  0  0  0  0  0  0  0  0  0  0  0
   -1.3101   -0.8016   -1.8955 H   0  0  0  0  0  0  0  0  0  0  0  0
    0.3417   -1.2986   -0.5848 H   0  0  0  0  0  0  0  0  0  0  0  0
    1.2302    1.0173   -1.8730 H   0  0  0  0  0  0  0  0  0  0  0  0
    0.8485   -0.1572    1.6106 H   0  0  0  0  0  0  0  0  0  0  0  0
    2.9182   -1.1070    1.5744 H   0  0  0  0  0  0  0  0  0  0  0  0
    3.4831   -0.0460    0.1826 H   0  0  0  0  0  0  0  0  0  0  0  0
    2.5451   -1.5365   -0.1125 H   0  0  0  0  0  0  0  0  0  0  0  0
    2.2076    1.6294   -0.1902 H   0  0  0  0  0  0  0  0  0  0  0  0
  1  2  1  0
  2  3  1  0
  2  4  1  0
  4  5  1  0
  4  6  1  0
  6  7  1  0
  6  8  1  0
  8  9  1  0
  8 10  1  0
  1 11  1  0
  1 12  1  0
  1 13  1  0
  2 14  1  1
  3 15  1  0
  4 16  1  6
  5 17  1  0
  6 18  1  1
  7 19  1  0
  8 20  1  1
  9 21  1  0
  9 22  1  0
  9 23  1  0
 10 24  1  0
M  END
$$$$

     RDKit          3D

 24 23  0  0  0  0  0  0  0  0999 V2000
   -2.8274    0.5129    0.6589 C   0  0  0  0  0  0  0  0  0  0  0  0
   -1.7937   -0.3932    0.0225 C   0  0  2  0  0  0  0  0  0  0  0  0
   -1.8733   -1.6839    0.4818 O   0  0  0  0  0  0  0  0  0  0  0  0
   -0.4430    0.2384    0.2621 C   0  0  2  0  0  0  0  0  0  0  0  0
   -0.5102    1.5398   -0.2532 O   0  0  0  0  0  0  0  0  0  0  0  0
    0.6556   -0.4718   -0.4977 C   0  0  1  0  0  0  0  0  0  0  0  0
    0.3031   -0.4665   -1.8394 O   0  0  0  0  0  0  0  0  0  0  0  0
    1.9218    0.3550   -0.3355 C   0  0  1  0  0  0  0  0  0  0  0  0
    2.3544    0.3872    1.1166 C   0  0  0  0  0  0  0  0  0  0  0  0
    2.9739   -0.1512   -1.0729 O   0  0  0  0  0  0  0  0  0  0  0  0
   -3.0704    1.3141   -0.0879 H   0  0  0  0  0  0  0  0  0  0  0  0
   -2.4171    1.0349    1.5395 H   0  0  0  0  0  0  0  0  0  0  0  0
   -3.7375   -0.0390    0.9630 H   0  0  0  0  0  0  0  0  0  0  0  0
   -1.9620   -0.4013   -1.0903 H   0  0  0  0  0  0  0  0  0  0  0  0
   -2.3120   -2.3044   -0.1380 H   0  0  0  0  0  0  0  0  0  0  0  0
   -0.2139    0.2712    1.3319 H   0  0  0  0  0  0  0  0  0  0  0  0
   -0.6610    1.4362   -1.2398 H   0  0  0  0  0  0  0  0  0  0  0  0
    0.8330   -1.4841   -0.1241 H   0  0  0  0  0  0  0  0  0  0  0  0
    0.7077   -1.1971   -2.3477 H   0  0  0  0  0  0  0  0  0  0  0  0
    1.7529    1.4065   -0.6444 H   0  0  0  0  0  0  0  0  0  0  0  0
    2.3970   -0.6518    1.5347 H   0  0  0  0  0  0  0  0  0  0  0  0
    3.3382    0.8838    1.1739 H   0  0  0  0  0  0  0  0  0  0  0  0
    1.6516    1.0059    1.7125 H   0  0  0  0  0  0  0  0  0  0  0  0
    2.9320   -1.1413   -1.1265 H   0  0  0  0  0  0  0  0  0  0  0  0
  1  2  1  0
  2  3  1  0
  2  4  1  0
  4  5  1  0
  4  6  1  0
  6  7  1  0
  6  8  1  0
  8  9  1  0
  8 10  1  0
  1 11  1  0
  1 12  1  0
  1 13  1  0
  2 14  1  6
  3 15  1  0
  4 16  1  1
  5 17  1  0
  6 18  1  1
  7 19  1  0
  8 20  1  6
  9 21  1  0
  9 22  1  0
  9 23  1  0
 10 24  1  0
M  END
$$$$

     RDKit          3D

 24 23  0  0  0  0  0  0  0  0999 V2000
   -2.8672   -0.3442   -0.3837 C   0  0  0  0  0  0  0  0  0  0  0  0
   -1.6904   -0.0734    0.5015 C   0  0  2  0  0  0  0  0  0  0  0  0
   -1.8579    1.1043    1.2512 O   0  0  0  0  0  0  0  0  0  0  0  0
   -0.4029    0.1336   -0.3092 C   0  0  2  0  0  0  0  0  0  0  0  0
   -0.2122   -1.0124   -1.0584 O   0  0  0  0  0  0  0  0  0  0  0  0
    0.6811    0.3911    0.6802 C   0  0  1  0  0  0  0  0  0  0  0  0
    0.7801   -0.6518    1.5724 O   0  0  0  0  0  0  0  0  0  0  0  0
    2.0225    0.6720    0.0905 C   0  0  1  0  0  0  0  0  0  0  0  0
    2.7218   -0.5608   -0.4394 C   0  0  0  0  0  0  0  0  0  0  0  0
    2.0127    1.7169   -0.8275 O   0  0  0  0  0  0  0  0  0  0  0  0
   -2.6324   -0.8799   -1.3038 H   0  0  0  0  0  0  0  0  0  0  0  0
   -3.5905   -0.9626    0.2124 H   0  0  0  0  0  0  0  0  0  0  0  0
   -3.4115    0.6237   -0.5584 H   0  0  0  0  0  0  0  0  0  0  0  0
   -1.4721   -0.9017    1.2052 H   0  0  0  0  0  0  0  0  0  0  0  0
   -2.4913    1.6930    0.7917 H   0  0  0  0  0  0  0  0  0  0  0  0
   -0.6083    0.9584   -0.9936 H   0  0  0  0  0  0  0  0  0  0  0  0
   -0.6463   -1.8103   -0.6564 H   0  0  0  0  0  0  0  0  0  0  0  0
    0.3837    1.2990    1.2664 H   0  0  0  0  0  0  0  0  0  0  0  0
    0.4804   -1.5137    1.2181 H   0  0  0  0  0  0  0  0  0  0  0  0
    2.6703    1.0386    0.9437 H   0  0  0  0  0  0  0  0  0  0  0  0
    2.0536   -1.3989   -0.6399 H   0  0  0  0  0  0  0  0  0  0  0  0
    3.5063   -0.9392    0.2627 H   0  0  0  0  0  0  0  0  0  0  0  0
    3.2898   -0.2422   -1.3515 H   0  0  0  0  0  0  0  0  0  0  0  0
    1.2804    1.6604   -1.4742 H   0  0  0  0  0  0  0  0  0  0  0  0
  1  2  1  0
  2  3  1  0
  2  4  1  0
  4  5  1  0
  4  6  1  0
  6  7  1  0
  6  8  1  0
  8  9  1  0
  8 10  1  0
  1 11  1  0
  1 12  1  0
  1 13  1  0
  2 14  1  1
  3 15  1  0
  4 16  1  6
  5 17  1  0
  6 18  1  1
  7 19  1  0
  8 20  1  1
  9 21  1  0
  9 22  1  0
  9 23  1  0
 10 24  1  0
M  END
$$$$

     RDKit          3D

 24 23  0  0  0  0  0  0  0  0999 V2000
    2.9455    0.8853   -0.4031 C   0  0  0  0  0  0  0  0  0  0  0  0
    1.9805   -0.1900    0.0663 C   0  0  2  0  0  0  0  0  0  0  0  0
    2.3646   -1.3946   -0.4875 O   0  0  0  0  0  0  0  0  0  0  0  0
    0.6042    0.2451   -0.3275 C   0  0  2  0  0  0  0  0  0  0  0  0
    0.3599    1.4744    0.3085 O   0  0  0  0  0  0  0  0  0  0  0  0
   -0.4826   -0.6974    0.0967 C   0  0  1  0  0  0  0  0  0  0  0  0
   -0.4602   -0.8535    1.4793 O   0  0  0  0  0  0  0  0  0  0  0  0
   -1.7935   -0.0302   -0.3451 C   0  0  1  0  0  0  0  0  0  0  0  0
   -2.9912   -0.8164    0.0956 C   0  0  0  0  0  0  0  0  0  0  0  0
   -1.8475    1.2232    0.2886 O   0  0  0  0  0  0  0  0  0  0  0  0
    2.4136    1.8160   -0.6963 H   0  0  0  0  0  0  0  0  0  0  0  0
    3.6017    1.1614    0.4472 H   0  0  0  0  0  0  0  0  0  0  0  0
    3.5300    0.5719   -1.2892 H   0  0  0  0  0  0  0  0  0  0  0  0
    2.0064   -0.2649    1.1872 H   0  0  0  0  0  0  0  0  0  0  0  0
    1.6316   -2.0338   -0.4585 H   0  0  0  0  0  0  0  0  0  0  0  0
    0.5822    0.3861   -1.4256 H   0  0  0  0  0  0  0  0  0  0  0  0
    0.5751    1.3288    1.2599 H   0  0  0  0  0  0  0  0  0  0  0  0
   -0.3771   -1.6874   -0.3751 H   0  0  0  0  0  0  0  0  0  0  0  0
   -1.0296   -0.1626    1.9131 H   0  0  0  0  0  0  0  0  0  0  0  0
   -1.7449    0.0982   -1.4344 H   0  0  0  0  0  0  0  0  0  0  0  0
   -2.8022   -1.9118    0.0734 H   0  0  0  0  0  0  0  0  0  0  0  0
   -3.8027   -0.6185   -0.6443 H   0  0  0  0  0  0  0  0  0  0  0  0
   -3.3189   -0.4534    1.0742 H   0  0  0  0  0  0  0  0  0  0  0  0
   -1.9449    1.9240   -0.4035 H   0  0  0  0  0  0  0  0  0  0  0  0
  1  2  1  0
  2  3  1  0
  2  4  1  0
  4  5  1  0
  4  6  1  0
  6  7  1  0
  6  8  1  0
  8  9  1  0
  8 10  1  0
  1 11  1  0
  1 12  1  0
  1 13  1  0
  2 14  1  1
  3 15  1  0
  4 16  1  6
  5 17  1  0
  6 18  1  6
  7 19  1  0
  8 20  1  6
  9 21  1  0
  9 22  1  0
  9 23  1  0
 10 24  1  0
M  END
$$$$

     RDKit          3D

 24 23  0  0  0  0  0  0  0  0999 V2000
   -2.3521    1.4903   -0.0823 C   0  0  0  0  0  0  0  0  0  0  0  0
   -2.0449    0.0335   -0.1028 C   0  0  2  0  0  0  0  0  0  0  0  0
   -2.2181   -0.5041    1.1825 O   0  0  0  0  0  0  0  0  0  0  0  0
   -0.6866   -0.3090   -0.6371 C   0  0  2  0  0  0  0  0  0  0  0  0
   -0.6129   -1.7077   -0.6791 O   0  0  0  0  0  0  0  0  0  0  0  0
    0.4405    0.1663    0.2385 C   0  0  1  0  0  0  0  0  0  0  0  0
    0.3709   -0.3212    1.5175 O   0  0  0  0  0  0  0  0  0  0  0  0
    1.7402   -0.2340   -0.4563 C   0  0  1  0  0  0  0  0  0  0  0  0
    2.9414    0.2758    0.3133 C   0  0  0  0  0  0  0  0  0  0  0  0
    1.8556   -1.6185   -0.5304 O   0  0  0  0  0  0  0  0  0  0  0  0
   -1.5195    2.1370    0.2173 H   0  0  0  0  0  0  0  0  0  0  0  0
   -3.2523    1.6295    0.5820 H   0  0  0  0  0  0  0  0  0  0  0  0
   -2.7044    1.8215   -1.1010 H   0  0  0  0  0  0  0  0  0  0  0  0
   -2.7916   -0.4794   -0.7447 H   0  0  0  0  0  0  0  0  0  0  0  0
   -2.6221   -1.4223    1.1312 H   0  0  0  0  0  0  0  0  0  0  0  0
   -0.5632    0.1052   -1.6422 H   0  0  0  0  0  0  0  0  0  0  0  0
   -1.5054   -2.1249   -0.6181 H   0  0  0  0  0  0  0  0  0  0  0  0
    0.4273    1.2690    0.2597 H   0  0  0  0  0  0  0  0  0  0  0  0
    0.8373    0.3394    2.1113 H   0  0  0  0  0  0  0  0  0  0  0  0
    1.7843    0.1615   -1.4835 H   0  0  0  0  0  0  0  0  0  0  0  0
    3.8376   -0.0560   -0.2506 H   0  0  0  0  0  0  0  0  0  0  0  0
    2.9406    1.3792    0.3870 H   0  0  0  0  0  0  0  0  0  0  0  0
    2.9891   -0.1891    1.3184 H   0  0  0  0  0  0  0  0  0  0  0  0
    2.7084   -1.8420   -0.9303 H   0  0  0  0  0  0  0  0  0  0  0  0
  1  2  1  0
  2  3  1  0
  2  4  1  0
  4  5  1  0
  4  6  1  0
  6  7  1  0
  6  8  1  0
  8  9  1  0
  8 10  1  0
  1 11  1  0
  1 12  1  0
  1 13  1  0
  2 14  1  6
  3 15  1  0
  4 16  1  6
  5 17  1  0
  6 18  1  1
  7 19  1  0
  8 20  1  6
  9 21  1  0
  9 22  1  0
  9 23  1  0
 10 24  1  0
M  END
$$$$

     RDKit          3D

 24 23  0  0  0  0  0  0  0  0999 V2000
   -2.3919   -0.0632    1.0313 C   0  0  0  0  0  0  0  0  0  0  0  0
   -1.8659    0.7101   -0.1295 C   0  0  2  0  0  0  0  0  0  0  0  0
   -2.8511    0.6492   -1.1441 O   0  0  0  0  0  0  0  0  0  0  0  0
   -0.6094    0.1638   -0.7171 C   0  0  2  0  0  0  0  0  0  0  0  0
   -0.7538   -1.1411   -1.1402 O   0  0  0  0  0  0  0  0  0  0  0  0
    0.6018    0.3271    0.1528 C   0  0  1  0  0  0  0  0  0  0  0  0
    0.5850   -0.4406    1.2940 O   0  0  0  0  0  0  0  0  0  0  0  0
    1.8435    0.0999   -0.6793 C   0  0  1  0  0  0  0  0  0  0  0  0
    3.0995    0.4969    0.0643 C   0  0  0  0  0  0  0  0  0  0  0  0
    1.9826   -1.2001   -1.0981 O   0  0  0  0  0  0  0  0  0  0  0  0
   -1.6702   -0.1855    1.8484 H   0  0  0  0  0  0  0  0  0  0  0  0
   -2.7663   -1.0596    0.7141 H   0  0  0  0  0  0  0  0  0  0  0  0
   -3.3117    0.4829    1.3922 H   0  0  0  0  0  0  0  0  0  0  0  0
   -1.7723    1.7626    0.1365 H   0  0  0  0  0  0  0  0  0  0  0  0
   -3.0263   -0.3063   -1.3477 H   0  0  0  0  0  0  0  0  0  0  0  0
   -0.4028    0.7692   -1.6497 H   0  0  0  0  0  0  0  0  0  0  0  0
   -1.3431   -1.6949   -0.6012 H   0  0  0  0  0  0  0  0  0  0  0  0
    0.6376    1.3992    0.4855 H   0  0  0  0  0  0  0  0  0  0  0  0
    0.3260   -1.3704    1.1629 H   0  0  0  0  0  0  0  0  0  0  0  0
    1.7875    0.7447   -1.5765 H   0  0  0  0  0  0  0  0  0  0  0  0
    3.0877    0.1549    1.1196 H   0  0  0  0  0  0  0  0  0  0  0  0
    3.9515   -0.0134   -0.4665 H   0  0  0  0  0  0  0  0  0  0  0  0
    3.2409    1.5947    0.0025 H   0  0  0  0  0  0  0  0  0  0  0  0
    1.6210   -1.8800   -0.4969 H   0  0  0  0  0  0  0  0  0  0  0  0
  1  2  1  0
  2  3  1  0
  2  4  1  0
  4  5  1  0
  4  6  1  0
  6  7  1  0
  6  8  1  0
  8  9  1  0
  8 10  1  0
  1 11  1  0
  1 12  1  0
  1 13  1  0
  2 14  1  1
  3 15  1  0
  4 16  1  6
  5 17  1  0
  6 18  1  1
  7 19  1  0
  8 20  1  6
  9 21  1  0
  9 22  1  0
  9 23  1  0
 10 24  1  0
M  END
$$$$
