
     RDKit          3D

 23 23  0  0  0  0  0  0  0  0999 V2000
    2.3671   -2.5593   -0.6043 C   0  0  0  0  0  0  0  0  0  0  0  0
    1.4500   -1.5198   -0.3226 O   0  0  0  0  0  0  0  0  0  0  0  0
    1.8325   -0.2906    0.0797 C   0  0  0  0  0  0  0  0  0  0  0  0
    3.0913   -0.0730    0.2071 O   0  0  0  0  0  0  0  0  0  0  0  0
    0.9058    0.8121    0.3808 C   0  0  0  0  0  0  0  0  0  0  0  0
   -0.3998    0.8527    0.3318 C   0  0  0  0  0  0  0  0  0  0  0  0
   -1.3251   -0.2257   -0.0487 C   0  0  0  0  0  0  0  0  0  0  0  0
   -0.9848   -1.3687   -0.3897 O   0  0  0  0  0  0  0  0  0  0  0  0
   -2.7127    0.0198   -0.0373 O   0  0  0  0  0  0  0  0  0  0  0  0
   -3.5902   -1.0203   -0.4036 C   0  0  0  0  0  0  0  0  0  0  0  0
   -0.8691    2.1699    0.7183 N   0  0  0  0  0  0  0  0  0  0  0  0
    0.2305    3.0302    0.6203 N   0  0  0  0  0  0  0  0  0  0  0  0
    1.3630    2.1864    0.8352 C   0  0  0  0  0  0  0  0  0  0  0  0
    3.2432   -2.5253    0.0806 H   0  0  0  0  0  0  0  0  0  0  0  0
    1.8659   -3.5352   -0.6354 H   0  0  0  0  0  0  0  0  0  0  0  0
    2.7866   -2.3881   -1.6259 H   0  0  0  0  0  0  0  0  0  0  0  0
   -3.8333   -1.0350   -1.4802 H   0  0  0  0  0  0  0  0  0  0  0  0
   -3.1026   -1.9995   -0.1713 H   0  0  0  0  0  0  0  0  0  0  0  0
   -4.5128   -0.9210    0.2202 H   0  0  0  0  0  0  0  0  0  0  0  0
   -1.8264    2.4139    1.0069 H   0  0  0  0  0  0  0  0  0  0  0  0
    0.2092    3.4208   -0.3605 H   0  0  0  0  0  0  0  0  0  0  0  0
    1.5368    2.0731    1.9297 H   0  0  0  0  0  0  0  0  0  0  0  0
    2.2749    2.4826    0.3009 H   0  0  0  0  0  0  0  0  0  0  0  0
  1  2  1  0
  2  3  1  0
  3  4  2  0
  3  5  1  0
  5  6  2  0
  6  7  1  0
  7  8  2  0
  7  9  1  0
  9 10  1  0
  6 11  1  0
 11 12  1  0
 12 13  1  0
 13  5  1  0
  1 14  1  0
  1 15  1  0
  1 16  1  0
 10 17  1  0
 10 18  1  0
 10 19  1  0
 11 20  1  0
 12 21  1  0
 13 22  1  0
 13 23  1  0
M  END
$$$$

     RDKit          3D

 23 23  0  0  0  0  0  0  0  0999 V2000
   -2.9594   -1.8850    1.0994 C   0  0  0  0  0  0  0  0  0  0  0  0
   -2.3690   -0.6542    0.7209 O   0  0  0  0  0  0  0  0  0  0  0  0
   -1.0031   -0.5706    0.3447 C   0  0  0  0  0  0  0  0  0  0  0  0
   -0.4035   -1.6598    0.3829 O   0  0  0  0  0  0  0  0  0  0  0  0
   -0.4705    0.7236   -0.0299 C   0  0  0  0  0  0  0  0  0  0  0  0
    0.7426    1.0222   -0.4046 C   0  0  0  0  0  0  0  0  0  0  0  0
    1.9228    0.1974   -0.5677 C   0  0  0  0  0  0  0  0  0  0  0  0
    3.0279    0.6899   -0.9492 O   0  0  0  0  0  0  0  0  0  0  0  0
    1.8911   -1.1482   -0.3161 O   0  0  0  0  0  0  0  0  0  0  0  0
    3.0125   -1.9969   -0.4594 C   0  0  0  0  0  0  0  0  0  0  0  0
    0.7575    2.4559   -0.6663 N   0  0  0  0  0  0  0  0  0  0  0  0
   -0.2701    3.0235    0.1236 N   0  0  0  0  0  0  0  0  0  0  0  0
   -1.2867    2.0047   -0.0471 C   0  0  0  0  0  0  0  0  0  0  0  0
   -3.4375   -1.7378    2.0760 H   0  0  0  0  0  0  0  0  0  0  0  0
   -2.2238   -2.7152    1.0782 H   0  0  0  0  0  0  0  0  0  0  0  0
   -3.7775   -2.0661    0.3459 H   0  0  0  0  0  0  0  0  0  0  0  0
    3.9097   -1.3431   -0.4379 H   0  0  0  0  0  0  0  0  0  0  0  0
    2.9848   -2.7197    0.3817 H   0  0  0  0  0  0  0  0  0  0  0  0
    2.9015   -2.5053   -1.4415 H   0  0  0  0  0  0  0  0  0  0  0  0
    1.4138    2.9315   -1.3162 H   0  0  0  0  0  0  0  0  0  0  0  0
   -0.5756    3.9358   -0.2560 H   0  0  0  0  0  0  0  0  0  0  0  0
   -1.7517    2.0247   -1.0549 H   0  0  0  0  0  0  0  0  0  0  0  0
   -2.0358    1.9926    0.7510 H   0  0  0  0  0  0  0  0  0  0  0  0
  1  2  1  0
  2  3  1  0
  3  4  2  0
  3  5  1  0
  5  6  2  0
  6  7  1  0
  7  8  2  0
  7  9  1  0
  9 10  1  0
  6 11  1  0
 11 12  1  0
 12 13  1  0
 13  5  1  0
  1 14  1  0
  1 15  1  0
  1 16  1  0
 10 17  1  0
 10 18  1  0
 10 19  1  0
 11 20  1  0
 12 21  1  0
 13 22  1  0
 13 23  1  0
M  END
$$$$

     RDKit          3D

 23 23  0  0  0  0  0  0  0  0999 V2000
    3.1521    1.6907    0.1720 C   0  0  0  0  0  0  0  0  0  0  0  0
    1.9115    1.0297    0.0925 O   0  0  0  0  0  0  0  0  0  0  0  0
    1.7344   -0.1886    0.6337 C   0  0  0  0  0  0  0  0  0  0  0  0
    2.7394   -0.7212    1.2232 O   0  0  0  0  0  0  0  0  0  0  0  0
    0.4923   -0.9756    0.6157 C   0  0  0  0  0  0  0  0  0  0  0  0
   -0.6427   -0.6329    0.0771 C   0  0  0  0  0  0  0  0  0  0  0  0
   -1.0391    0.5891   -0.6528 C   0  0  0  0  0  0  0  0  0  0  0  0
   -0.2741    1.5290   -0.8655 O   0  0  0  0  0  0  0  0  0  0  0  0
   -2.3377    0.7273   -1.1442 O   0  0  0  0  0  0  0  0  0  0  0  0
   -2.7680    1.8711   -1.8467 C   0  0  0  0  0  0  0  0  0  0  0  0
   -1.5818   -1.7206    0.3052 N   0  0  0  0  0  0  0  0  0  0  0  0
   -0.8376   -2.8578    0.6293 N   0  0  0  0  0  0  0  0  0  0  0  0
    0.3538   -2.3419    1.2427 C   0  0  0  0  0  0  0  0  0  0  0  0
    3.1487    2.4814   -0.6210 H   0  0  0  0  0  0  0  0  0  0  0  0
    4.0133    1.0399   -0.0193 H   0  0  0  0  0  0  0  0  0  0  0  0
    3.2263    2.1307    1.1894 H   0  0  0  0  0  0  0  0  0  0  0  0
   -3.4695    2.4133   -1.1584 H   0  0  0  0  0  0  0  0  0  0  0  0
   -3.3129    1.6295   -2.7747 H   0  0  0  0  0  0  0  0  0  0  0  0
   -1.9339    2.5904   -2.0411 H   0  0  0  0  0  0  0  0  0  0  0  0
   -2.6003   -1.6718    0.2423 H   0  0  0  0  0  0  0  0  0  0  0  0
   -1.4116   -3.4465    1.2672 H   0  0  0  0  0  0  0  0  0  0  0  0
    1.2496   -2.9437    1.0937 H   0  0  0  0  0  0  0  0  0  0  0  0
    0.1877   -2.2216    2.3397 H   0  0  0  0  0  0  0  0  0  0  0  0
  1  2  1  0
  2  3  1  0
  3  4  2  0
  3  5  1  0
  5  6  2  0
  6  7  1  0
  7  8  2  0
  7  9  1  0
  9 10  1  0
  6 11  1  0
 11 12  1  0
 12 13  1  0
 13  5  1  0
  1 14  1  0
  1 15  1  0
  1 16  1  0
 10 17  1  0
 10 18  1  0
 10 19  1  0
 11 20  1  0
 12 21  1  0
 13 22  1  0
 13 23  1  0
M  END
$$$$

     RDKit          3D

 23 23  0  0  0  0  0  0  0  0999 V2000
    3.6999   -1.7332   -0.0964 C   0  0  0  0  0  0  0  0  0  0  0  0
    2.8606   -0.5835   -0.2000 O   0  0  0  0  0  0  0  0  0  0  0  0
    1.4625   -0.6933   -0.1480 C   0  0  0  0  0  0  0  0  0  0  0  0
    1.0350   -1.8514   -0.0074 O   0  0  0  0  0  0  0  0  0  0  0  0
    0.6468    0.5201   -0.2593 C   0  0  0  0  0  0  0  0  0  0  0  0
   -0.6635    0.6555   -0.2369 C   0  0  0  0  0  0  0  0  0  0  0  0
   -1.6561   -0.3887   -0.0930 C   0  0  0  0  0  0  0  0  0  0  0  0
   -1.4430   -1.6133    0.0373 O   0  0  0  0  0  0  0  0  0  0  0  0
   -3.0094   -0.0225   -0.0961 O   0  0  0  0  0  0  0  0  0  0  0  0
   -4.0365   -0.9902    0.0401 C   0  0  0  0  0  0  0  0  0  0  0  0
   -1.0283    2.0518   -0.3801 N   0  0  0  0  0  0  0  0  0  0  0  0
    0.1308    2.7984   -0.1266 N   0  0  0  0  0  0  0  0  0  0  0  0
    1.2130    1.9144   -0.4321 C   0  0  0  0  0  0  0  0  0  0  0  0
    3.1428   -2.6175    0.2447 H   0  0  0  0  0  0  0  0  0  0  0  0
    4.4568   -1.4831    0.6736 H   0  0  0  0  0  0  0  0  0  0  0  0
    4.2388   -1.9328   -1.0385 H   0  0  0  0  0  0  0  0  0  0  0  0
   -4.4394   -1.1733   -0.9782 H   0  0  0  0  0  0  0  0  0  0  0  0
   -4.7890   -0.5685    0.7129 H   0  0  0  0  0  0  0  0  0  0  0  0
   -3.6287   -1.9319    0.4558 H   0  0  0  0  0  0  0  0  0  0  0  0
   -1.9543    2.4561   -0.6214 H   0  0  0  0  0  0  0  0  0  0  0  0
    0.1158    3.1343    0.8638 H   0  0  0  0  0  0  0  0  0  0  0  0
    2.0656    2.0004    0.2873 H   0  0  0  0  0  0  0  0  0  0  0  0
    1.5796    2.0522   -1.4760 H   0  0  0  0  0  0  0  0  0  0  0  0
  1  2  1  0
  2  3  1  0
  3  4  2  0
  3  5  1  0
  5  6  2  0
  6  7  1  0
  7  8  2  0
  7  9  1  0
  9 10  1  0
  6 11  1  0
 11 12  1  0
 12 13  1  0
 13  5  1  0
  1 14  1  0
  1 15  1  0
  1 16  1  0
 10 17  1  0
 10 18  1  0
 10 19  1  0
 11 20  1  0
 12 21  1  0
 13 22  1  0
 13 23  1  0
M  END
$$$$

     RDKit          3D

 23 23  0  0  0  0  0  0  0  0999 V2000
   -1.3982    2.8031   -0.2763 C   0  0  0  0  0  0  0  0  0  0  0  0
   -0.7597    1.5267   -0.1805 O   0  0  0  0  0  0  0  0  0  0  0  0
   -1.4612    0.3600   -0.2705 C   0  0  0  0  0  0  0  0  0  0  0  0
   -2.7316    0.4976   -0.4469 O   0  0  0  0  0  0  0  0  0  0  0  0
   -0.8849   -0.9518   -0.1830 C   0  0  0  0  0  0  0  0  0  0  0  0
    0.3625   -1.2745   -0.0088 C   0  0  0  0  0  0  0  0  0  0  0  0
    1.5346   -0.4449    0.1468 C   0  0  0  0  0  0  0  0  0  0  0  0
    2.6882   -0.9921    0.3075 O   0  0  0  0  0  0  0  0  0  0  0  0
    1.5691    0.9270    0.1440 O   0  0  0  0  0  0  0  0  0  0  0  0
    2.7388    1.6714    0.2997 C   0  0  0  0  0  0  0  0  0  0  0  0
    0.4358   -2.7331    0.0222 N   0  0  0  0  0  0  0  0  0  0  0  0
   -0.8424   -3.1165    0.5128 N   0  0  0  0  0  0  0  0  0  0  0  0
   -1.6734   -2.2559   -0.2994 C   0  0  0  0  0  0  0  0  0  0  0  0
   -0.6940    3.6070   -0.4804 H   0  0  0  0  0  0  0  0  0  0  0  0
   -1.9010    3.0129    0.7028 H   0  0  0  0  0  0  0  0  0  0  0  0
   -2.2116    2.7339   -1.0205 H   0  0  0  0  0  0  0  0  0  0  0  0
    2.6627    2.7001   -0.0582 H   0  0  0  0  0  0  0  0  0  0  0  0
    3.0363    1.6065    1.3857 H   0  0  0  0  0  0  0  0  0  0  0  0
    3.5362    1.1760   -0.2897 H   0  0  0  0  0  0  0  0  0  0  0  0
    1.2076   -3.3490   -0.2401 H   0  0  0  0  0  0  0  0  0  0  0  0
   -0.9202   -2.7399    1.5038 H   0  0  0  0  0  0  0  0  0  0  0  0
   -1.6057   -2.6361   -1.3420 H   0  0  0  0  0  0  0  0  0  0  0  0
   -2.6879   -2.1282    0.0710 H   0  0  0  0  0  0  0  0  0  0  0  0
  1  2  1  0
  2  3  1  0
  3  4  2  0
  3  5  1  0
  5  6  2  0
  6  7  1  0
  7  8  2  0
  7  9  1  0
  9 10  1  0
  6 11  1  0
 11 12  1  0
 12 13  1  0
 13  5  1  0
  1 14  1  0
  1 15  1  0
  1 16  1  0
 10 17  1  0
 10 18  1  0
 10 19  1  0
 11 20  1  0
 12 21  1  0
 13 22  1  0
 13 23  1  0
M  END
$$$$

     RDKit          3D

 23 23  0  0  0  0  0  0  0  0999 V2000
    3.3306   -2.3138    0.1217 C   0  0  0  0  0  0  0  0  0  0  0  0
    2.2187   -1.7773    0.7910 O   0  0  0  0  0  0  0  0  0  0  0  0
    1.3215   -0.9268    0.1197 C   0  0  0  0  0  0  0  0  0  0  0  0
    1.5946   -0.7050   -1.0704 O   0  0  0  0  0  0  0  0  0  0  0  0
    0.1856   -0.3939    0.8473 C   0  0  0  0  0  0  0  0  0  0  0  0
   -0.7279    0.4017    0.3678 C   0  0  0  0  0  0  0  0  0  0  0  0
   -0.9152    0.9864   -0.9533 C   0  0  0  0  0  0  0  0  0  0  0  0
   -0.1810    0.8206   -1.9423 O   0  0  0  0  0  0  0  0  0  0  0  0
   -2.0208    1.8335   -1.1963 O   0  0  0  0  0  0  0  0  0  0  0  0
   -2.2185    2.4024   -2.4509 C   0  0  0  0  0  0  0  0  0  0  0  0
   -1.6494    0.6662    1.4443 N   0  0  0  0  0  0  0  0  0  0  0  0
   -1.4686   -0.3134    2.4397 N   0  0  0  0  0  0  0  0  0  0  0  0
   -0.0950   -0.6943    2.2803 C   0  0  0  0  0  0  0  0  0  0  0  0
    3.9900   -2.7650    0.8610 H   0  0  0  0  0  0  0  0  0  0  0  0
    2.9996   -3.0475   -0.6396 H   0  0  0  0  0  0  0  0  0  0  0  0
    3.8986   -1.4655   -0.3488 H   0  0  0  0  0  0  0  0  0  0  0  0
   -3.2716    2.7498   -2.5058 H   0  0  0  0  0  0  0  0  0  0  0  0
   -1.4853    3.2337   -2.5764 H   0  0  0  0  0  0  0  0  0  0  0  0
   -2.1044    1.6565   -3.2874 H   0  0  0  0  0  0  0  0  0  0  0  0
   -2.3495    1.4360    1.5223 H   0  0  0  0  0  0  0  0  0  0  0  0
   -1.6735    0.0872    3.3741 H   0  0  0  0  0  0  0  0  0  0  0  0
    0.0864   -1.7683    2.5024 H   0  0  0  0  0  0  0  0  0  0  0  0
    0.5349   -0.1031    2.9647 H   0  0  0  0  0  0  0  0  0  0  0  0
  1  2  1  0
  2  3  1  0
  3  4  2  0
  3  5  1  0
  5  6  2  0
  6  7  1  0
  7  8  2  0
  7  9  1  0
  9 10  1  0
  6 11  1  0
 11 12  1  0
 12 13  1  0
 13  5  1  0
  1 14  1  0
  1 15  1  0
  1 16  1  0
 10 17  1  0
 10 18  1  0
 10 19  1  0
 11 20  1  0
 12 21  1  0
 13 22  1  0
 13 23  1  0
M  END
$$$$

     RDKit          3D

 23 23  0  0  0  0  0  0  0  0999 V2000
   -2.3424    2.1186    1.7292 C   0  0  0  0  0  0  0  0  0  0  0  0
   -1.4094    1.2723    1.0698 O   0  0  0  0  0  0  0  0  0  0  0  0
   -1.7908    0.3985    0.0709 C   0  0  0  0  0  0  0  0  0  0  0  0
   -3.0422    0.4091   -0.2140 O   0  0  0  0  0  0  0  0  0  0  0  0
   -0.9445   -0.5043   -0.6677 C   0  0  0  0  0  0  0  0  0  0  0  0
    0.3503   -0.7054   -0.5708 C   0  0  0  0  0  0  0  0  0  0  0  0
    1.3191   -0.0746    0.3157 C   0  0  0  0  0  0  0  0  0  0  0  0
    1.0351    0.8006    1.1589 O   0  0  0  0  0  0  0  0  0  0  0  0
    2.6741   -0.4226    0.2760 O   0  0  0  0  0  0  0  0  0  0  0  0
    3.6330    0.1721    1.1230 C   0  0  0  0  0  0  0  0  0  0  0  0
    0.7379   -1.7073   -1.5374 N   0  0  0  0  0  0  0  0  0  0  0  0
   -0.2504   -1.6549   -2.5177 N   0  0  0  0  0  0  0  0  0  0  0  0
   -1.4285   -1.4273   -1.7227 C   0  0  0  0  0  0  0  0  0  0  0  0
   -1.8155    2.7395    2.4609 H   0  0  0  0  0  0  0  0  0  0  0  0
   -3.0765    1.4982    2.2898 H   0  0  0  0  0  0  0  0  0  0  0  0
   -2.8874    2.7216    0.9797 H   0  0  0  0  0  0  0  0  0  0  0  0
    4.1985   -0.5996    1.7077 H   0  0  0  0  0  0  0  0  0  0  0  0
    4.3378    0.7447    0.4922 H   0  0  0  0  0  0  0  0  0  0  0  0
    3.1993    0.8681    1.8590 H   0  0  0  0  0  0  0  0  0  0  0  0
    1.5554   -2.3297   -1.5239 H   0  0  0  0  0  0  0  0  0  0  0  0
   -0.0849   -0.9692   -3.2589 H   0  0  0  0  0  0  0  0  0  0  0  0
   -1.7103   -2.3807   -1.2350 H   0  0  0  0  0  0  0  0  0  0  0  0
   -2.2578   -0.9674   -2.2850 H   0  0  0  0  0  0  0  0  0  0  0  0
  1  2  1  0
  2  3  1  0
  3  4  2  0
  3  5  1  0
  5  6  2  0
  6  7  1  0
  7  8  2  0
  7  9  1  0
  9 10  1  0
  6 11  1  0
 11 12  1  0
 12 13  1  0
 13  5  1  0
  1 14  1  0
  1 15  1  0
  1 16  1  0
 10 17  1  0
 10 18  1  0
 10 19  1  0
 11 20  1  0
 12 21  1  0
 13 22  1  0
 13 23  1  0
M  END
$$$$

     RDKit          3D

 23 23  0  0  0  0  0  0  0  0999 V2000
    4.0204   -0.5743    0.0076 C   0  0  0  0  0  0  0  0  0  0  0  0
    2.8783    0.2591    0.0161 O   0  0  0  0  0  0  0  0  0  0  0  0
    1.5682   -0.2695   -0.0254 C   0  0  0  0  0  0  0  0  0  0  0  0
    1.5213   -1.5000   -0.0686 O   0  0  0  0  0  0  0  0  0  0  0  0
    0.4335    0.6518   -0.0138 C   0  0  0  0  0  0  0  0  0  0  0  0
   -0.8395    0.4301   -0.0440 C   0  0  0  0  0  0  0  0  0  0  0  0
   -1.4951   -0.8729   -0.1010 C   0  0  0  0  0  0  0  0  0  0  0  0
   -0.9074   -1.9675   -0.1277 O   0  0  0  0  0  0  0  0  0  0  0  0
   -2.8885   -0.9210   -0.1287 O   0  0  0  0  0  0  0  0  0  0  0  0
   -3.5178   -2.1752   -0.1838 C   0  0  0  0  0  0  0  0  0  0  0  0
   -1.5296    1.6920   -0.0083 N   0  0  0  0  0  0  0  0  0  0  0  0
   -0.6475    2.5942    0.5678 N   0  0  0  0  0  0  0  0  0  0  0  0
    0.6150    2.1446    0.0347 C   0  0  0  0  0  0  0  0  0  0  0  0
    3.9151   -1.4021   -0.7444 H   0  0  0  0  0  0  0  0  0  0  0  0
    4.8812    0.0294   -0.3470 H   0  0  0  0  0  0  0  0  0  0  0  0
    4.2658   -1.0060    0.9753 H   0  0  0  0  0  0  0  0  0  0  0  0
   -3.4042   -2.6679    0.8202 H   0  0  0  0  0  0  0  0  0  0  0  0
   -4.6007   -2.0119   -0.3670 H   0  0  0  0  0  0  0  0  0  0  0  0
   -3.0514   -2.8107   -0.9486 H   0  0  0  0  0  0  0  0  0  0  0  0
   -2.4932    1.8337   -0.3590 H   0  0  0  0  0  0  0  0  0  0  0  0
   -0.8770    3.5572    0.2321 H   0  0  0  0  0  0  0  0  0  0  0  0
    0.7087    2.5564   -0.9856 H   0  0  0  0  0  0  0  0  0  0  0  0
    1.4445    2.4306    0.6728 H   0  0  0  0  0  0  0  0  0  0  0  0
  1  2  1  0
  2  3  1  0
  3  4  2  0
  3  5  1  0
  5  6  2  0
  6  7  1  0
  7  8  2  0
  7  9  1  0
  9 10  1  0
  6 11  1  0
 11 12  1  0
 12 13  1  0
 13  5  1  0
  1 14  1  0
  1 15  1  0
  1 16  1  0
 10 17  1  0
 10 18  1  0
 10 19  1  0
 11 20  1  0
 12 21  1  0
 13 22  1  0
 13 23  1  0
M  END
$$$$
