
     RDKit          3D

 25 26  0  0  0  0  0  0  0  0999 V2000
   -2.2640   -0.4328   -0.6834 C   0  0  0  0  0  0  0  0  0  0  0  0
   -0.9600   -0.7704   -0.2217 N   0  0  0  0  0  0  0  0  0  0  0  0
   -0.5931   -0.1201    1.0163 C   0  0  1  0  0  0  0  0  0  0  0  0
    0.6414   -0.7831    1.5542 C   0  0  0  0  0  0  0  0  0  0  0  0
    1.5910   -1.2124    0.5167 C   0  0  0  0  0  0  0  0  0  0  0  0
    2.7564   -1.3913    0.8101 O   0  0  0  0  0  0  0  0  0  0  0  0
    1.1838   -1.4462   -0.9196 C   0  0  0  0  0  0  0  0  0  0  0  0
    0.0981   -0.3809   -1.1438 C   0  0  2  0  0  0  0  0  0  0  0  0
    0.6606    0.9172   -0.6411 C   0  0  1  0  0  0  0  0  0  0  0  0
    0.7172    1.9059   -1.6163 O   0  0  0  0  0  0  0  0  0  0  0  0
   -0.2849    1.2879    0.4908 C   0  0  2  0  0  0  0  0  0  0  0  0
    0.2971    2.0859    1.4368 O   0  0  0  0  0  0  0  0  0  0  0  0
   -2.3051    0.3804   -1.4114 H   0  0  0  0  0  0  0  0  0  0  0  0
   -2.7225   -1.3409   -1.1403 H   0  0  0  0  0  0  0  0  0  0  0  0
   -2.9036   -0.2069    0.2121 H   0  0  0  0  0  0  0  0  0  0  0  0
   -1.3890   -0.1122    1.7570 H   0  0  0  0  0  0  0  0  0  0  0  0
    1.1414   -0.1326    2.3067 H   0  0  0  0  0  0  0  0  0  0  0  0
    0.3130   -1.6868    2.1097 H   0  0  0  0  0  0  0  0  0  0  0  0
    2.0086   -1.2798   -1.6135 H   0  0  0  0  0  0  0  0  0  0  0  0
    0.7441   -2.4537   -1.0281 H   0  0  0  0  0  0  0  0  0  0  0  0
   -0.2322   -0.3579   -2.1808 H   0  0  0  0  0  0  0  0  0  0  0  0
    1.6671    0.7996   -0.1607 H   0  0  0  0  0  0  0  0  0  0  0  0
    1.5200    2.4675   -1.4256 H   0  0  0  0  0  0  0  0  0  0  0  0
   -1.2350    1.6839    0.0732 H   0  0  0  0  0  0  0  0  0  0  0  0
   -0.4505    2.5798    1.9031 H   0  0  0  0  0  0  0  0  0  0  0  0
  1  2  1  0
  2  3  1  0
  3  4  1  0
  4  5  1  0
  5  6  2  0
  5  7  1  0
  7  8  1  0
  8  9  1  0
  9 10  1  0
  9 11  1  0
 11 12  1  0
  8  2  1  0
 11  3  1  0
  1 13  1  0
  1 14  1  0
  1 15  1  0
  3 16  1  1
  4 17  1  0
  4 18  1  0
  7 19  1  0
  7 20  1  0
  8 21  1  6
  9 22  1  1
 10 23  1  0
 11 24  1  6
 12 25  1  0
M  END
$$$$

     RDKit          3D

 25 26  0  0  0  0  0  0  0  0999 V2000
    2.1652   -0.0983   -1.0133 C   0  0  0  0  0  0  0  0  0  0  0  0
    0.8450    0.3238   -0.7983 N   0  0  0  0  0  0  0  0  0  0  0  0
   -0.1890   -0.6260   -0.9987 C   0  0  1  0  0  0  0  0  0  0  0  0
   -0.2226   -1.7365    0.0239 C   0  0  0  0  0  0  0  0  0  0  0  0
   -0.1788   -1.2095    1.3993 C   0  0  0  0  0  0  0  0  0  0  0  0
   -0.7532   -1.7932    2.3038 O   0  0  0  0  0  0  0  0  0  0  0  0
    0.5877    0.0513    1.6345 C   0  0  0  0  0  0  0  0  0  0  0  0
    0.5387    0.9542    0.4246 C   0  0  2  0  0  0  0  0  0  0  0  0
   -0.9441    1.3064    0.2275 C   0  0  1  0  0  0  0  0  0  0  0  0
   -0.9510    2.5640   -0.3786 O   0  0  0  0  0  0  0  0  0  0  0  0
   -1.4374    0.2295   -0.7354 C   0  0  2  0  0  0  0  0  0  0  0  0
   -2.4709   -0.5097   -0.2171 O   0  0  0  0  0  0  0  0  0  0  0  0
    2.2098   -1.0575   -1.5999 H   0  0  0  0  0  0  0  0  0  0  0  0
    2.8128   -0.1414   -0.1112 H   0  0  0  0  0  0  0  0  0  0  0  0
    2.6747    0.6501   -1.6904 H   0  0  0  0  0  0  0  0  0  0  0  0
   -0.2036   -1.0672   -2.0058 H   0  0  0  0  0  0  0  0  0  0  0  0
    0.6017   -2.4740   -0.1353 H   0  0  0  0  0  0  0  0  0  0  0  0
   -1.1709   -2.2910   -0.1052 H   0  0  0  0  0  0  0  0  0  0  0  0
    1.5953   -0.1191    2.0213 H   0  0  0  0  0  0  0  0  0  0  0  0
    0.0178    0.5936    2.4427 H   0  0  0  0  0  0  0  0  0  0  0  0
    1.1368    1.8504    0.6428 H   0  0  0  0  0  0  0  0  0  0  0  0
   -1.4903    1.2838    1.1834 H   0  0  0  0  0  0  0  0  0  0  0  0
   -0.3116    3.1492    0.0954 H   0  0  0  0  0  0  0  0  0  0  0  0
   -1.6766    0.7118   -1.6862 H   0  0  0  0  0  0  0  0  0  0  0  0
   -3.1853   -0.5447   -0.9238 H   0  0  0  0  0  0  0  0  0  0  0  0
  1  2  1  0
  2  3  1  0
  3  4  1  0
  4  5  1  0
  5  6  2  0
  5  7  1  0
  7  8  1  0
  8  9  1  0
  9 10  1  0
  9 11  1  0
 11 12  1  0
  8  2  1  0
 11  3  1  0
  1 13  1  0
  1 14  1  0
  1 15  1  0
  3 16  1  6
  4 17  1  0
  4 18  1  0
  7 19  1  0
  7 20  1  0
  8 21  1  1
  9 22  1  1
 10 23  1  0
 11 24  1  6
 12 25  1  0
M  END
$$$$

     RDKit          3D

 25 26  0  0  0  0  0  0  0  0999 V2000
    1.2787   -1.8853   -0.6745 C   0  0  0  0  0  0  0  0  0  0  0  0
    0.2969   -1.0885   -0.0554 N   0  0  0  0  0  0  0  0  0  0  0  0
   -0.4836   -0.2584   -0.9153 C   0  0  1  0  0  0  0  0  0  0  0  0
   -1.9091   -0.3189   -0.3450 C   0  0  0  0  0  0  0  0  0  0  0  0
   -1.7533   -0.2735    1.1355 C   0  0  0  0  0  0  0  0  0  0  0  0
   -2.7242   -0.5840    1.8056 O   0  0  0  0  0  0  0  0  0  0  0  0
   -0.5120    0.1193    1.8212 C   0  0  0  0  0  0  0  0  0  0  0  0
    0.7309   -0.2293    0.9909 C   0  0  2  0  0  0  0  0  0  0  0  0
    1.1623    1.0144    0.2030 C   0  0  1  0  0  0  0  0  0  0  0  0
    2.2809    0.6840   -0.5367 O   0  0  0  0  0  0  0  0  0  0  0  0
    0.0036    1.1736   -0.7225 C   0  0  2  0  0  0  0  0  0  0  0  0
   -0.9970    1.9907   -0.2001 O   0  0  0  0  0  0  0  0  0  0  0  0
    2.3239   -1.6948   -0.3508 H   0  0  0  0  0  0  0  0  0  0  0  0
    1.1664   -1.8617   -1.7812 H   0  0  0  0  0  0  0  0  0  0  0  0
    1.0871   -2.9631   -0.3947 H   0  0  0  0  0  0  0  0  0  0  0  0
   -0.4608   -0.5627   -1.9644 H   0  0  0  0  0  0  0  0  0  0  0  0
   -2.5155    0.5236   -0.7300 H   0  0  0  0  0  0  0  0  0  0  0  0
   -2.3312   -1.2800   -0.6965 H   0  0  0  0  0  0  0  0  0  0  0  0
   -0.3675   -0.4063    2.7908 H   0  0  0  0  0  0  0  0  0  0  0  0
   -0.4880    1.2158    2.0668 H   0  0  0  0  0  0  0  0  0  0  0  0
    1.5462   -0.6029    1.6035 H   0  0  0  0  0  0  0  0  0  0  0  0
    1.3602    1.8667    0.8537 H   0  0  0  0  0  0  0  0  0  0  0  0
    2.4121    1.3047   -1.2742 H   0  0  0  0  0  0  0  0  0  0  0  0
    0.2990    1.5758   -1.7265 H   0  0  0  0  0  0  0  0  0  0  0  0
   -1.4058    2.5408   -0.9033 H   0  0  0  0  0  0  0  0  0  0  0  0
  1  2  1  0
  2  3  1  0
  3  4  1  0
  4  5  1  0
  5  6  2  0
  5  7  1  0
  7  8  1  0
  8  9  1  0
  9 10  1  0
  9 11  1  0
 11 12  1  0
  8  2  1  0
 11  3  1  0
  1 13  1  0
  1 14  1  0
  1 15  1  0
  3 16  1  6
  4 17  1  0
  4 18  1  0
  7 19  1  0
  7 20  1  0
  8 21  1  1
  9 22  1  1
 10 23  1  0
 11 24  1  6
 12 25  1  0
M  END
$$$$

     RDKit          3D

 25 26  0  0  0  0  0  0  0  0999 V2000
   -0.9376    1.9034   -1.2334 C   0  0  0  0  0  0  0  0  0  0  0  0
    0.0089    1.0625   -0.6074 N   0  0  0  0  0  0  0  0  0  0  0  0
    0.1529   -0.2447   -1.1624 C   0  0  1  0  0  0  0  0  0  0  0  0
    1.5772   -0.6968   -0.8439 C   0  0  0  0  0  0  0  0  0  0  0  0
    1.8995   -0.3932    0.5556 C   0  0  0  0  0  0  0  0  0  0  0  0
    2.7617   -1.0578    1.1195 O   0  0  0  0  0  0  0  0  0  0  0  0
    1.2516    0.6774    1.3623 C   0  0  0  0  0  0  0  0  0  0  0  0
   -0.1642    0.8505    0.7902 C   0  0  2  0  0  0  0  0  0  0  0  0
   -0.8468   -0.4949    0.9687 C   0  0  1  0  0  0  0  0  0  0  0  0
   -2.1396   -0.3641    1.4674 O   0  0  0  0  0  0  0  0  0  0  0  0
   -0.8016   -1.1514   -0.3835 C   0  0  2  0  0  0  0  0  0  0  0  0
   -0.3311   -2.4567   -0.3205 O   0  0  0  0  0  0  0  0  0  0  0  0
   -0.7965    1.8527   -2.3309 H   0  0  0  0  0  0  0  0  0  0  0  0
   -0.6862    2.9697   -0.9597 H   0  0  0  0  0  0  0  0  0  0  0  0
   -1.9968    1.7043   -0.9844 H   0  0  0  0  0  0  0  0  0  0  0  0
   -0.0655   -0.3129   -2.2272 H   0  0  0  0  0  0  0  0  0  0  0  0
    1.7118   -1.7645   -1.0857 H   0  0  0  0  0  0  0  0  0  0  0  0
    2.2340   -0.0442   -1.4892 H   0  0  0  0  0  0  0  0  0  0  0  0
    1.2332    0.4203    2.4206 H   0  0  0  0  0  0  0  0  0  0  0  0
    1.7750    1.6288    1.1280 H   0  0  0  0  0  0  0  0  0  0  0  0
   -0.7047    1.6648    1.3139 H   0  0  0  0  0  0  0  0  0  0  0  0
   -0.3016   -1.1530    1.6753 H   0  0  0  0  0  0  0  0  0  0  0  0
   -2.1056   -0.3753    2.4529 H   0  0  0  0  0  0  0  0  0  0  0  0
   -1.8150   -1.1458   -0.8116 H   0  0  0  0  0  0  0  0  0  0  0  0
   -0.9130   -3.0790   -0.8145 H   0  0  0  0  0  0  0  0  0  0  0  0
  1  2  1  0
  2  3  1  0
  3  4  1  0
  4  5  1  0
  5  6  2  0
  5  7  1  0
  7  8  1  0
  8  9  1  0
  9 10  1  0
  9 11  1  0
 11 12  1  0
  8  2  1  0
 11  3  1  0
  1 13  1  0
  1 14  1  0
  1 15  1  0
  3 16  1  6
  4 17  1  0
  4 18  1  0
  7 19  1  0
  7 20  1  0
  8 21  1  1
  9 22  1  1
 10 23  1  0
 11 24  1  6
 12 25  1  0
M  END
$$$$

     RDKit          3D

 25 26  0  0  0  0  0  0  0  0999 V2000
   -0.5632    2.2819    0.2548 C   0  0  0  0  0  0  0  0  0  0  0  0
    0.2776    1.1536   -0.0255 N   0  0  0  0  0  0  0  0  0  0  0  0
   -0.1947    0.3424   -1.1063 C   0  0  1  0  0  0  0  0  0  0  0  0
    0.9722   -0.5111   -1.5879 C   0  0  0  0  0  0  0  0  0  0  0  0
    2.1160   -0.4307   -0.6059 C   0  0  0  0  0  0  0  0  0  0  0  0
    3.2618   -0.2809   -0.9497 O   0  0  0  0  0  0  0  0  0  0  0  0
    1.7062   -0.5533    0.8404 C   0  0  0  0  0  0  0  0  0  0  0  0
    0.4069    0.2324    1.0559 C   0  0  2  0  0  0  0  0  0  0  0  0
   -0.7219   -0.7698    0.9146 C   0  0  1  0  0  0  0  0  0  0  0  0
   -1.6486   -0.6427    1.9263 O   0  0  0  0  0  0  0  0  0  0  0  0
   -1.2706   -0.4884   -0.4548 C   0  0  2  0  0  0  0  0  0  0  0  0
   -1.5560   -1.6527   -1.1495 O   0  0  0  0  0  0  0  0  0  0  0  0
   -0.1169    2.8778    1.0632 H   0  0  0  0  0  0  0  0  0  0  0  0
   -1.6260    2.0336    0.4013 H   0  0  0  0  0  0  0  0  0  0  0  0
   -0.5309    2.9385   -0.6597 H   0  0  0  0  0  0  0  0  0  0  0  0
   -0.6336    0.9348   -1.9323 H   0  0  0  0  0  0  0  0  0  0  0  0
    1.3130   -0.1005   -2.5468 H   0  0  0  0  0  0  0  0  0  0  0  0
    0.7101   -1.5747   -1.6558 H   0  0  0  0  0  0  0  0  0  0  0  0
    2.4966   -0.2468    1.5249 H   0  0  0  0  0  0  0  0  0  0  0  0
    1.5323   -1.6516    0.9908 H   0  0  0  0  0  0  0  0  0  0  0  0
    0.4371    0.7104    2.0469 H   0  0  0  0  0  0  0  0  0  0  0  0
   -0.3549   -1.8211    0.9089 H   0  0  0  0  0  0  0  0  0  0  0  0
   -1.3832   -1.2546    2.6751 H   0  0  0  0  0  0  0  0  0  0  0  0
   -2.1801    0.1165   -0.3691 H   0  0  0  0  0  0  0  0  0  0  0  0
   -2.4496   -1.6431   -1.5596 H   0  0  0  0  0  0  0  0  0  0  0  0
  1  2  1  0
  2  3  1  0
  3  4  1  0
  4  5  1  0
  5  6  2  0
  5  7  1  0
  7  8  1  0
  8  9  1  0
  9 10  1  0
  9 11  1  0
 11 12  1  0
  8  2  1  0
 11  3  1  0
  1 13  1  0
  1 14  1  0
  1 15  1  0
  3 16  1  6
  4 17  1  0
  4 18  1  0
  7 19  1  0
  7 20  1  0
  8 21  1  1
  9 22  1  6
 10 23  1  0
 11 24  1  1
 12 25  1  0
M  END
$$$$

     RDKit          3D

 25 26  0  0  0  0  0  0  0  0999 V2000
   -0.7815   -2.2465    0.4685 C   0  0  0  0  0  0  0  0  0  0  0  0
   -0.0201   -1.1002    0.2601 N   0  0  0  0  0  0  0  0  0  0  0  0
   -0.0741   -0.0450    1.1782 C   0  0  1  0  0  0  0  0  0  0  0  0
    1.3580    0.5008    1.3035 C   0  0  0  0  0  0  0  0  0  0  0  0
    1.8381    0.7843   -0.0638 C   0  0  0  0  0  0  0  0  0  0  0  0
    2.4504    1.8004   -0.2921 O   0  0  0  0  0  0  0  0  0  0  0  0
    1.5795   -0.1632   -1.1675 C   0  0  0  0  0  0  0  0  0  0  0  0
    0.1044   -0.5808   -1.0482 C   0  0  2  0  0  0  0  0  0  0  0  0
   -0.7741    0.6655   -1.0046 C   0  0  1  0  0  0  0  0  0  0  0  0
   -1.9998    0.3982   -1.6046 O   0  0  0  0  0  0  0  0  0  0  0  0
   -0.9462    0.9909    0.4724 C   0  0  2  0  0  0  0  0  0  0  0  0
   -0.5765    2.2767    0.7827 O   0  0  0  0  0  0  0  0  0  0  0  0
   -0.7785   -2.8783   -0.4404 H   0  0  0  0  0  0  0  0  0  0  0  0
   -0.2940   -2.8676    1.2740 H   0  0  0  0  0  0  0  0  0  0  0  0
   -1.8258   -2.1059    0.8081 H   0  0  0  0  0  0  0  0  0  0  0  0
   -0.4475   -0.3031    2.1645 H   0  0  0  0  0  0  0  0  0  0  0  0
    1.9551   -0.3840    1.6691 H   0  0  0  0  0  0  0  0  0  0  0  0
    1.4144    1.3508    1.9812 H   0  0  0  0  0  0  0  0  0  0  0  0
    1.8125    0.2263   -2.1548 H   0  0  0  0  0  0  0  0  0  0  0  0
    2.1518   -1.0970   -0.9261 H   0  0  0  0  0  0  0  0  0  0  0  0
   -0.2044   -1.2328   -1.8648 H   0  0  0  0  0  0  0  0  0  0  0  0
   -0.3205    1.5184   -1.5207 H   0  0  0  0  0  0  0  0  0  0  0  0
   -2.7704    0.7502   -1.0920 H   0  0  0  0  0  0  0  0  0  0  0  0
   -2.0075    0.8423    0.7570 H   0  0  0  0  0  0  0  0  0  0  0  0
   -0.8436    2.8997    0.0603 H   0  0  0  0  0  0  0  0  0  0  0  0
  1  2  1  0
  2  3  1  0
  3  4  1  0
  4  5  1  0
  5  6  2  0
  5  7  1  0
  7  8  1  0
  8  9  1  0
  9 10  1  0
  9 11  1  0
 11 12  1  0
  8  2  1  0
 11  3  1  0
  1 13  1  0
  1 14  1  0
  1 15  1  0
  3 16  1  1
  4 17  1  0
  4 18  1  0
  7 19  1  0
  7 20  1  0
  8 21  1  6
  9 22  1  6
 10 23  1  0
 11 24  1  1
 12 25  1  0
M  END
$$$$

     RDKit          3D

 25 26  0  0  0  0  0  0  0  0999 V2000
   -1.8601    1.3583    0.2009 C   0  0  0  0  0  0  0  0  0  0  0  0
   -0.4655    1.0680    0.2493 N   0  0  0  0  0  0  0  0  0  0  0  0
   -0.0897    0.0337    1.1608 C   0  0  1  0  0  0  0  0  0  0  0  0
   -0.5118   -1.3435    0.7393 C   0  0  0  0  0  0  0  0  0  0  0  0
   -1.0247   -1.4001   -0.6510 C   0  0  0  0  0  0  0  0  0  0  0  0
   -1.8056   -2.2870   -0.9449 O   0  0  0  0  0  0  0  0  0  0  0  0
   -0.6293   -0.4318   -1.6847 C   0  0  0  0  0  0  0  0  0  0  0  0
    0.1282    0.6930   -0.9831 C   0  0  2  0  0  0  0  0  0  0  0  0
    1.4703    0.1090   -0.5564 C   0  0  1  0  0  0  0  0  0  0  0  0
    2.5295    0.8381   -1.0411 O   0  0  0  0  0  0  0  0  0  0  0  0
    1.4356    0.0868    0.9651 C   0  0  2  0  0  0  0  0  0  0  0  0
    2.0430   -1.0616    1.4582 O   0  0  0  0  0  0  0  0  0  0  0  0
   -2.0058    2.2538   -0.4319 H   0  0  0  0  0  0  0  0  0  0  0  0
   -2.4857    0.5319   -0.1680 H   0  0  0  0  0  0  0  0  0  0  0  0
   -2.1772    1.6614    1.2290 H   0  0  0  0  0  0  0  0  0  0  0  0
   -0.3608    0.2390    2.2175 H   0  0  0  0  0  0  0  0  0  0  0  0
   -1.2726   -1.7922    1.4438 H   0  0  0  0  0  0  0  0  0  0  0  0
    0.3487   -2.0750    0.7773 H   0  0  0  0  0  0  0  0  0  0  0  0
   -1.5630   -0.0142   -2.1366 H   0  0  0  0  0  0  0  0  0  0  0  0
    0.0031   -0.8586   -2.4834 H   0  0  0  0  0  0  0  0  0  0  0  0
    0.2877    1.5451   -1.6879 H   0  0  0  0  0  0  0  0  0  0  0  0
    1.5963   -0.9356   -0.8793 H   0  0  0  0  0  0  0  0  0  0  0  0
    2.4937    1.7360   -0.6445 H   0  0  0  0  0  0  0  0  0  0  0  0
    1.8534    1.0111    1.4023 H   0  0  0  0  0  0  0  0  0  0  0  0
    2.0624   -0.9657    2.4494 H   0  0  0  0  0  0  0  0  0  0  0  0
  1  2  1  0
  2  3  1  0
  3  4  1  0
  4  5  1  0
  5  6  2  0
  5  7  1  0
  7  8  1  0
  8  9  1  0
  9 10  1  0
  9 11  1  0
 11 12  1  0
  8  2  1  0
 11  3  1  0
  1 13  1  0
  1 14  1  0
  1 15  1  0
  3 16  1  1
  4 17  1  0
  4 18  1  0
  7 19  1  0
  7 20  1  0
  8 21  1  6
  9 22  1  6
 10 23  1  0
 11 24  1  1
 12 25  1  0
M  END
$$$$

     RDKit          3D

 25 26  0  0  0  0  0  0  0  0999 V2000
   -1.3566   -0.2728    1.8839 C   0  0  0  0  0  0  0  0  0  0  0  0
   -0.1967   -0.1129    1.1114 N   0  0  0  0  0  0  0  0  0  0  0  0
    0.1798   -1.1527    0.2311 C   0  0  1  0  0  0  0  0  0  0  0  0
   -0.6548   -1.2353   -1.0259 C   0  0  0  0  0  0  0  0  0  0  0  0
   -1.4117    0.0014   -1.2837 C   0  0  0  0  0  0  0  0  0  0  0  0
   -2.3836   -0.0493   -2.0152 O   0  0  0  0  0  0  0  0  0  0  0  0
   -1.0508    1.3041   -0.6983 C   0  0  0  0  0  0  0  0  0  0  0  0
   -0.0229    1.0785    0.3890 C   0  0  2  0  0  0  0  0  0  0  0  0
    1.3183    0.8233   -0.3197 C   0  0  1  0  0  0  0  0  0  0  0  0
    2.3022    1.5803    0.3284 O   0  0  0  0  0  0  0  0  0  0  0  0
    1.5916   -0.6577   -0.1271 C   0  0  2  0  0  0  0  0  0  0  0  0
    2.0876   -1.2706   -1.2394 O   0  0  0  0  0  0  0  0  0  0  0  0
   -1.2914    0.4349    2.7588 H   0  0  0  0  0  0  0  0  0  0  0  0
   -2.3178   -0.0604    1.3891 H   0  0  0  0  0  0  0  0  0  0  0  0
   -1.3572   -1.2869    2.3326 H   0  0  0  0  0  0  0  0  0  0  0  0
    0.2611   -2.1381    0.7151 H   0  0  0  0  0  0  0  0  0  0  0  0
    0.0452   -1.4032   -1.8792 H   0  0  0  0  0  0  0  0  0  0  0  0
   -1.3746   -2.0838   -1.0080 H   0  0  0  0  0  0  0  0  0  0  0  0
   -1.9073    1.8450   -0.2691 H   0  0  0  0  0  0  0  0  0  0  0  0
   -0.6035    1.9439   -1.4859 H   0  0  0  0  0  0  0  0  0  0  0  0
    0.0679    1.9712    1.0247 H   0  0  0  0  0  0  0  0  0  0  0  0
    1.2676    1.1185   -1.3673 H   0  0  0  0  0  0  0  0  0  0  0  0
    1.9315    2.4198    0.6972 H   0  0  0  0  0  0  0  0  0  0  0  0
    2.1944   -0.7739    0.7862 H   0  0  0  0  0  0  0  0  0  0  0  0
    2.6815   -2.0236   -0.9286 H   0  0  0  0  0  0  0  0  0  0  0  0
  1  2  1  0
  2  3  1  0
  3  4  1  0
  4  5  1  0
  5  6  2  0
  5  7  1  0
  7  8  1  0
  8  9  1  0
  9 10  1  0
  9 11  1  0
 11 12  1  0
  8  2  1  0
 11  3  1  0
  1 13  1  0
  1 14  1  0
  1 15  1  0
  3 16  1  1
  4 17  1  0
  4 18  1  0
  7 19  1  0
  7 20  1  0
  8 21  1  1
  9 22  1  6
 10 23  1  0
 11 24  1  1
 12 25  1  0
M  END
$$$$
