
     RDKit          3D

 15 15  0  0  0  0  0  0  0  0999 V2000
    2.2233   -0.1926   -0.1812 C   0  0  0  0  0  0  0  0  0  0  0  0
    0.8474    0.1837    0.2736 C   0  0  2  0  0  0  0  0  0  0  0  0
    0.2740   -0.7632    1.1521 O   0  0  0  0  0  0  0  0  0  0  0  0
   -1.1158   -0.6489    1.0862 C   0  0  0  0  0  0  0  0  0  0  0  0
   -1.9601   -1.1747    1.8634 O   0  0  0  0  0  0  0  0  0  0  0  0
   -1.4410    0.2276   -0.0956 C   0  0  2  0  0  0  0  0  0  0  0  0
   -2.4932   -0.2663   -0.8308 O   0  0  0  0  0  0  0  0  0  0  0  0
   -0.1512    0.2286   -0.8043 C   0  0  0  0  0  0  0  0  0  0  0  0
    0.0263    0.2590   -1.9843 O   0  0  0  0  0  0  0  0  0  0  0  0
    2.9048   -0.0092    0.7007 H   0  0  0  0  0  0  0  0  0  0  0  0
    2.3098   -1.2258   -0.5437 H   0  0  0  0  0  0  0  0  0  0  0  0
    2.5373    0.5498   -0.9423 H   0  0  0  0  0  0  0  0  0  0  0  0
    0.8998    1.1881    0.7390 H   0  0  0  0  0  0  0  0  0  0  0  0
   -1.6077    1.2617    0.2893 H   0  0  0  0  0  0  0  0  0  0  0  0
   -3.2537    0.3821   -0.7221 H   0  0  0  0  0  0  0  0  0  0  0  0
  1  2  1  0
  2  3  1  0
  3  4  1  0
  4  5  2  0
  4  6  1  0
  6  7  1  0
  6  8  1  0
  8  9  2  0
  8  2  1  0
  1 10  1  0
  1 11  1  0
  1 12  1  0
  2 13  1  1
  6 14  1  1
  7 15  1  0
M  END
$$$$

     RDKit          3D

 15 15  0  0  0  0  0  0  0  0999 V2000
   -2.2107   -0.2153    0.0483 C   0  0  0  0  0  0  0  0  0  0  0  0
   -0.8558    0.3310    0.3413 C   0  0  2  0  0  0  0  0  0  0  0  0
   -0.3071    1.0861   -0.7274 O   0  0  0  0  0  0  0  0  0  0  0  0
    1.0700    1.1342   -0.5204 C   0  0  0  0  0  0  0  0  0  0  0  0
    1.9005    1.9721   -0.9543 O   0  0  0  0  0  0  0  0  0  0  0  0
    1.4875   -0.0181    0.3481 C   0  0  2  0  0  0  0  0  0  0  0  0
    2.4483   -0.7941   -0.2596 O   0  0  0  0  0  0  0  0  0  0  0  0
    0.1808   -0.7330    0.5024 C   0  0  0  0  0  0  0  0  0  0  0  0
    0.0131   -1.9209    0.7128 O   0  0  0  0  0  0  0  0  0  0  0  0
   -2.3236   -1.2326    0.4913 H   0  0  0  0  0  0  0  0  0  0  0  0
   -2.4668   -0.2571   -1.0257 H   0  0  0  0  0  0  0  0  0  0  0  0
   -2.9763    0.4648    0.5228 H   0  0  0  0  0  0  0  0  0  0  0  0
   -0.8322    0.9252    1.2848 H   0  0  0  0  0  0  0  0  0  0  0  0
    1.8074    0.3806    1.3304 H   0  0  0  0  0  0  0  0  0  0  0  0
    3.0649   -1.1230    0.4651 H   0  0  0  0  0  0  0  0  0  0  0  0
  1  2  1  0
  2  3  1  0
  3  4  1  0
  4  5  2  0
  4  6  1  0
  6  7  1  0
  6  8  1  0
  8  9  2  0
  8  2  1  0
  1 10  1  0
  1 11  1  0
  1 12  1  0
  2 13  1  1
  6 14  1  1
  7 15  1  0
M  END
$$$$

     RDKit          3D

 15 15  0  0  0  0  0  0  0  0999 V2000
    2.2144   -0.1174   -0.0979 C   0  0  0  0  0  0  0  0  0  0  0  0
    0.8203    0.1007    0.4151 C   0  0  2  0  0  0  0  0  0  0  0  0
    0.2260   -1.1131    0.8866 O   0  0  0  0  0  0  0  0  0  0  0  0
   -1.1534   -1.0598    0.7139 C   0  0  0  0  0  0  0  0  0  0  0  0
   -2.0312   -1.8677    1.0916 O   0  0  0  0  0  0  0  0  0  0  0  0
   -1.4598    0.2019   -0.0485 C   0  0  2  0  0  0  0  0  0  0  0  0
   -2.4568    0.0139   -0.9793 O   0  0  0  0  0  0  0  0  0  0  0  0
   -0.1408    0.5048   -0.6188 C   0  0  0  0  0  0  0  0  0  0  0  0
    0.0926    0.9753   -1.6871 O   0  0  0  0  0  0  0  0  0  0  0  0
    2.8995    0.4470    0.5935 H   0  0  0  0  0  0  0  0  0  0  0  0
    2.3158    0.3523   -1.0890 H   0  0  0  0  0  0  0  0  0  0  0  0
    2.5338   -1.1788   -0.0794 H   0  0  0  0  0  0  0  0  0  0  0  0
    0.7810    0.8737    1.2367 H   0  0  0  0  0  0  0  0  0  0  0  0
   -1.6886    0.9788    0.7089 H   0  0  0  0  0  0  0  0  0  0  0  0
   -2.9528    0.8884   -1.0466 H   0  0  0  0  0  0  0  0  0  0  0  0
  1  2  1  0
  2  3  1  0
  3  4  1  0
  4  5  2  0
  4  6  1  0
  6  7  1  0
  6  8  1  0
  8  9  2  0
  8  2  1  0
  1 10  1  0
  1 11  1  0
  1 12  1  0
  2 13  1  1
  6 14  1  1
  7 15  1  0
M  END
$$$$

     RDKit          3D

 15 15  0  0  0  0  0  0  0  0999 V2000
   -2.1135   -0.3073   -0.7727 C   0  0  0  0  0  0  0  0  0  0  0  0
   -0.9189    0.0110    0.0610 C   0  0  2  0  0  0  0  0  0  0  0  0
   -0.4199    1.3150   -0.1268 O   0  0  0  0  0  0  0  0  0  0  0  0
    0.9488    1.3133   -0.3181 C   0  0  0  0  0  0  0  0  0  0  0  0
    1.6110    2.2852   -0.7655 O   0  0  0  0  0  0  0  0  0  0  0  0
    1.4465   -0.0381    0.1052 C   0  0  2  0  0  0  0  0  0  0  0  0
    2.5682   -0.4258   -0.5881 O   0  0  0  0  0  0  0  0  0  0  0  0
    0.2532   -0.8823   -0.2461 C   0  0  0  0  0  0  0  0  0  0  0  0
    0.2270   -2.0214   -0.6782 O   0  0  0  0  0  0  0  0  0  0  0  0
   -2.8840   -0.8363   -0.1527 H   0  0  0  0  0  0  0  0  0  0  0  0
   -2.5640    0.6718   -1.1056 H   0  0  0  0  0  0  0  0  0  0  0  0
   -1.9067   -0.9613   -1.6279 H   0  0  0  0  0  0  0  0  0  0  0  0
   -1.1473   -0.1832    1.1477 H   0  0  0  0  0  0  0  0  0  0  0  0
    1.5866   -0.0746    1.1988 H   0  0  0  0  0  0  0  0  0  0  0  0
    3.3130    0.1340   -0.3133 H   0  0  0  0  0  0  0  0  0  0  0  0
  1  2  1  0
  2  3  1  0
  3  4  1  0
  4  5  2  0
  4  6  1  0
  6  7  1  0
  6  8  1  0
  8  9  2  0
  8  2  1  0
  1 10  1  0
  1 11  1  0
  1 12  1  0
  2 13  1  1
  6 14  1  1
  7 15  1  0
M  END
$$$$

     RDKit          3D

 15 15  0  0  0  0  0  0  0  0999 V2000
   -2.1807    0.2851   -0.2958 C   0  0  0  0  0  0  0  0  0  0  0  0
   -0.7739    0.0428   -0.7684 C   0  0  2  0  0  0  0  0  0  0  0  0
   -0.3987   -1.3276   -0.6517 O   0  0  0  0  0  0  0  0  0  0  0  0
    0.9498   -1.4209   -0.3301 C   0  0  0  0  0  0  0  0  0  0  0  0
    1.5947   -2.4977   -0.2469 O   0  0  0  0  0  0  0  0  0  0  0  0
    1.4601   -0.0426   -0.1118 C   0  0  2  0  0  0  0  0  0  0  0  0
    2.3347    0.0353    0.9586 O   0  0  0  0  0  0  0  0  0  0  0  0
    0.2087    0.6972    0.1055 C   0  0  0  0  0  0  0  0  0  0  0  0
    0.0377    1.6246    0.8340 O   0  0  0  0  0  0  0  0  0  0  0  0
   -2.3491   -0.2493    0.6447 H   0  0  0  0  0  0  0  0  0  0  0  0
   -2.8833    0.0248   -1.1051 H   0  0  0  0  0  0  0  0  0  0  0  0
   -2.2834    1.3683   -0.0934 H   0  0  0  0  0  0  0  0  0  0  0  0
   -0.6385    0.3807   -1.8169 H   0  0  0  0  0  0  0  0  0  0  0  0
    1.9333    0.3115   -1.0607 H   0  0  0  0  0  0  0  0  0  0  0  0
    2.9886    0.7677    0.7227 H   0  0  0  0  0  0  0  0  0  0  0  0
  1  2  1  0
  2  3  1  0
  3  4  1  0
  4  5  2  0
  4  6  1  0
  6  7  1  0
  6  8  1  0
  8  9  2  0
  8  2  1  0
  1 10  1  0
  1 11  1  0
  1 12  1  0
  2 13  1  6
  6 14  1  6
  7 15  1  0
M  END
$$$$

     RDKit          3D

 15 15  0  0  0  0  0  0  0  0999 V2000
    2.0583   -0.4594    0.5621 C   0  0  0  0  0  0  0  0  0  0  0  0
    0.9275    0.1662   -0.2356 C   0  0  2  0  0  0  0  0  0  0  0  0
    0.4159    1.2560    0.5197 O   0  0  0  0  0  0  0  0  0  0  0  0
   -0.9203    1.4255    0.2143 C   0  0  0  0  0  0  0  0  0  0  0  0
   -1.5713    2.4848    0.2211 O   0  0  0  0  0  0  0  0  0  0  0  0
   -1.4459    0.0726   -0.1321 C   0  0  2  0  0  0  0  0  0  0  0  0
   -2.1072   -0.4740    0.9726 O   0  0  0  0  0  0  0  0  0  0  0  0
   -0.2151   -0.7533   -0.4136 C   0  0  0  0  0  0  0  0  0  0  0  0
   -0.2734   -1.9164   -0.7135 O   0  0  0  0  0  0  0  0  0  0  0  0
    2.5438   -1.2279   -0.0774 H   0  0  0  0  0  0  0  0  0  0  0  0
    1.6577   -0.9470    1.4726 H   0  0  0  0  0  0  0  0  0  0  0  0
    2.7690    0.3637    0.8134 H   0  0  0  0  0  0  0  0  0  0  0  0
    1.3082    0.4893   -1.2218 H   0  0  0  0  0  0  0  0  0  0  0  0
   -2.0646    0.0757   -1.0429 H   0  0  0  0  0  0  0  0  0  0  0  0
   -3.0824   -0.5559    0.7798 H   0  0  0  0  0  0  0  0  0  0  0  0
  1  2  1  0
  2  3  1  0
  3  4  1  0
  4  5  2  0
  4  6  1  0
  6  7  1  0
  6  8  1  0
  8  9  2  0
  8  2  1  0
  1 10  1  0
  1 11  1  0
  1 12  1  0
  2 13  1  6
  6 14  1  6
  7 15  1  0
M  END
$$$$

     RDKit          3D

 15 15  0  0  0  0  0  0  0  0999 V2000
   -2.1363   -0.0796   -0.4643 C   0  0  0  0  0  0  0  0  0  0  0  0
   -0.8551   -0.3708    0.2702 C   0  0  2  0  0  0  0  0  0  0  0  0
   -0.5292    0.7262    1.0873 O   0  0  0  0  0  0  0  0  0  0  0  0
    0.8075    1.0660    0.9730 C   0  0  0  0  0  0  0  0  0  0  0  0
    1.3860    2.0991    1.3984 O   0  0  0  0  0  0  0  0  0  0  0  0
    1.4627   -0.0439    0.2329 C   0  0  2  0  0  0  0  0  0  0  0  0
    2.5555    0.3400   -0.4901 O   0  0  0  0  0  0  0  0  0  0  0  0
    0.3144   -0.4829   -0.6467 C   0  0  0  0  0  0  0  0  0  0  0  0
    0.3426   -0.8353   -1.8023 O   0  0  0  0  0  0  0  0  0  0  0  0
   -2.3631   -0.8585   -1.2191 H   0  0  0  0  0  0  0  0  0  0  0  0
   -2.0847    0.9328   -0.8848 H   0  0  0  0  0  0  0  0  0  0  0  0
   -2.9538   -0.1290    0.2846 H   0  0  0  0  0  0  0  0  0  0  0  0
   -0.9475   -1.3206    0.7998 H   0  0  0  0  0  0  0  0  0  0  0  0
    1.6374   -0.8987    0.9217 H   0  0  0  0  0  0  0  0  0  0  0  0
    3.3636   -0.1449   -0.1265 H   0  0  0  0  0  0  0  0  0  0  0  0
  1  2  1  0
  2  3  1  0
  3  4  1  0
  4  5  2  0
  4  6  1  0
  6  7  1  0
  6  8  1  0
  8  9  2  0
  8  2  1  0
  1 10  1  0
  1 11  1  0
  1 12  1  0
  2 13  1  1
  6 14  1  1
  7 15  1  0
M  END
$$$$

     RDKit          3D

 15 15  0  0  0  0  0  0  0  0999 V2000
    1.9364   -0.2779    0.6237 C   0  0  0  0  0  0  0  0  0  0  0  0
    0.8973    0.2620   -0.3109 C   0  0  2  0  0  0  0  0  0  0  0  0
    0.2451    1.4191    0.1999 O   0  0  0  0  0  0  0  0  0  0  0  0
   -1.0833    1.4201   -0.1543 C   0  0  0  0  0  0  0  0  0  0  0  0
   -1.8338    2.3932   -0.3306 O   0  0  0  0  0  0  0  0  0  0  0  0
   -1.4797   -0.0147   -0.2950 C   0  0  2  0  0  0  0  0  0  0  0  0
   -2.1196   -0.3954    0.8597 O   0  0  0  0  0  0  0  0  0  0  0  0
   -0.2180   -0.7127   -0.5424 C   0  0  0  0  0  0  0  0  0  0  0  0
   -0.0064   -1.8626   -0.8761 O   0  0  0  0  0  0  0  0  0  0  0  0
    2.2100    0.4896    1.3721 H   0  0  0  0  0  0  0  0  0  0  0  0
    1.6145   -1.2282    1.0603 H   0  0  0  0  0  0  0  0  0  0  0  0
    2.8756   -0.4650    0.0348 H   0  0  0  0  0  0  0  0  0  0  0  0
    1.3257    0.4876   -1.3168 H   0  0  0  0  0  0  0  0  0  0  0  0
   -2.2110   -0.1480   -1.1376 H   0  0  0  0  0  0  0  0  0  0  0  0
   -2.1529   -1.3670    1.0167 H   0  0  0  0  0  0  0  0  0  0  0  0
  1  2  1  0
  2  3  1  0
  3  4  1  0
  4  5  2  0
  4  6  1  0
  6  7  1  0
  6  8  1  0
  8  9  2  0
  8  2  1  0
  1 10  1  0
  1 11  1  0
  1 12  1  0
  2 13  1  6
  6 14  1  6
  7 15  1  0
M  END
$$$$
