
     RDKit          3D

 22 21  0  0  0  0  0  0  0  0999 V2000
   -1.9304   -2.0087    0.2703 O   0  0  0  0  0  0  0  0  0  0  0  0
   -1.8045   -0.8245    0.0478 C   0  0  0  0  0  0  0  0  0  0  0  0
   -2.8681    0.1055    0.5477 C   0  0  0  0  0  0  0  0  0  0  0  0
   -3.8592   -0.5862    1.2101 O   0  0  0  0  0  0  0  0  0  0  0  0
   -0.6323   -0.2913   -0.6997 C   0  0  1  0  0  0  0  0  0  0  0  0
   -0.7420    1.0906   -0.8104 O   0  0  0  0  0  0  0  0  0  0  0  0
    0.6128   -0.7175    0.0276 C   0  0  2  0  0  0  0  0  0  0  0  0
    0.6638   -0.2236    1.3069 O   0  0  0  0  0  0  0  0  0  0  0  0
    1.8459   -0.3753   -0.7505 C   0  0  0  0  0  0  0  0  0  0  0  0
    1.9531   -0.7402   -1.8968 O   0  0  0  0  0  0  0  0  0  0  0  0
    2.9020    0.4120   -0.0660 C   0  0  0  0  0  0  0  0  0  0  0  0
    3.9425    0.6109   -0.9678 O   0  0  0  0  0  0  0  0  0  0  0  0
   -2.3736    0.8798    1.1469 H   0  0  0  0  0  0  0  0  0  0  0  0
   -3.2988    0.6268   -0.3451 H   0  0  0  0  0  0  0  0  0  0  0  0
   -3.7883   -0.4013    2.1832 H   0  0  0  0  0  0  0  0  0  0  0  0
   -0.6287   -0.7102   -1.7232 H   0  0  0  0  0  0  0  0  0  0  0  0
   -1.1932    1.3691   -1.6581 H   0  0  0  0  0  0  0  0  0  0  0  0
    0.5915   -1.8247    0.0904 H   0  0  0  0  0  0  0  0  0  0  0  0
   -0.0473    0.4140    1.5104 H   0  0  0  0  0  0  0  0  0  0  0  0
    2.5455    1.4143    0.2450 H   0  0  0  0  0  0  0  0  0  0  0  0
    3.3008   -0.1257    0.8353 H   0  0  0  0  0  0  0  0  0  0  0  0
    4.8086    0.5502   -0.5042 H   0  0  0  0  0  0  0  0  0  0  0  0
  1  2  2  0
  2  3  1  0
  3  4  1  0
  2  5  1  0
  5  6  1  0
  5  7  1  0
  7  8  1  0
  7  9  1  0
  9 10  2  0
  9 11  1  0
 11 12  1  0
  3 13  1  0
  3 14  1  0
  4 15  1  0
  5 16  1  6
  6 17  1  0
  7 18  1  1
  8 19  1  0
 11 20  1  0
 11 21  1  0
 12 22  1  0
M  END
$$$$

     RDKit          3D

 22 21  0  0  0  0  0  0  0  0999 V2000
    0.4404    2.2137   -0.0968 O   0  0  0  0  0  0  0  0  0  0  0  0
    0.9941    1.1222   -0.2297 C   0  0  0  0  0  0  0  0  0  0  0  0
    2.0008    0.6707    0.7570 C   0  0  0  0  0  0  0  0  0  0  0  0
    2.5177   -0.5699    0.4558 O   0  0  0  0  0  0  0  0  0  0  0  0
    0.6589    0.2508   -1.3767 C   0  0  1  0  0  0  0  0  0  0  0  0
    1.3945   -0.9151   -1.3294 O   0  0  0  0  0  0  0  0  0  0  0  0
   -0.8136   -0.0941   -1.2673 C   0  0  2  0  0  0  0  0  0  0  0  0
   -1.5944    1.0485   -1.3105 O   0  0  0  0  0  0  0  0  0  0  0  0
   -1.0311   -0.8720   -0.0244 C   0  0  0  0  0  0  0  0  0  0  0  0
   -0.4174   -1.9047    0.1590 O   0  0  0  0  0  0  0  0  0  0  0  0
   -1.9867   -0.4272    1.0199 C   0  0  0  0  0  0  0  0  0  0  0  0
   -2.0223   -1.3171    2.0827 O   0  0  0  0  0  0  0  0  0  0  0  0
    2.8097    1.4545    0.7633 H   0  0  0  0  0  0  0  0  0  0  0  0
    1.4991    0.6525    1.7455 H   0  0  0  0  0  0  0  0  0  0  0  0
    3.2124   -0.7678    1.1494 H   0  0  0  0  0  0  0  0  0  0  0  0
    0.8566    0.7928   -2.3257 H   0  0  0  0  0  0  0  0  0  0  0  0
    1.8632   -1.1160   -2.1826 H   0  0  0  0  0  0  0  0  0  0  0  0
   -1.0376   -0.7604   -2.1285 H   0  0  0  0  0  0  0  0  0  0  0  0
   -1.7383    1.4409   -0.4345 H   0  0  0  0  0  0  0  0  0  0  0  0
   -1.6808    0.5835    1.4113 H   0  0  0  0  0  0  0  0  0  0  0  0
   -3.0208   -0.3171    0.6116 H   0  0  0  0  0  0  0  0  0  0  0  0
   -2.9046   -1.1687    2.5504 H   0  0  0  0  0  0  0  0  0  0  0  0
  1  2  2  0
  2  3  1  0
  3  4  1  0
  2  5  1  0
  5  6  1  0
  5  7  1  0
  7  8  1  0
  7  9  1  0
  9 10  2  0
  9 11  1  0
 11 12  1  0
  3 13  1  0
  3 14  1  0
  4 15  1  0
  5 16  1  6
  6 17  1  0
  7 18  1  6
  8 19  1  0
 11 20  1  0
 11 21  1  0
 12 22  1  0
M  END
$$$$

     RDKit          3D

 22 21  0  0  0  0  0  0  0  0999 V2000
   -2.0817   -1.4178   -0.0842 O   0  0  0  0  0  0  0  0  0  0  0  0
   -1.5181   -0.3738   -0.3328 C   0  0  0  0  0  0  0  0  0  0  0  0
   -2.1315    0.8851    0.1585 C   0  0  0  0  0  0  0  0  0  0  0  0
   -3.3129    0.6435    0.8590 O   0  0  0  0  0  0  0  0  0  0  0  0
   -0.2535   -0.2584   -1.0958 C   0  0  1  0  0  0  0  0  0  0  0  0
    0.1715    1.0361   -1.2364 O   0  0  0  0  0  0  0  0  0  0  0  0
    0.8355   -1.1406   -0.5710 C   0  0  2  0  0  0  0  0  0  0  0  0
    0.4046   -2.4616   -0.4409 O   0  0  0  0  0  0  0  0  0  0  0  0
    1.4216   -0.7058    0.7126 C   0  0  0  0  0  0  0  0  0  0  0  0
    1.4599   -1.4727    1.6550 O   0  0  0  0  0  0  0  0  0  0  0  0
    1.9780    0.6577    0.9022 C   0  0  0  0  0  0  0  0  0  0  0  0
    2.5105    0.8045    2.1971 O   0  0  0  0  0  0  0  0  0  0  0  0
   -1.4296    1.4846    0.7729 H   0  0  0  0  0  0  0  0  0  0  0  0
   -2.4219    1.5081   -0.7360 H   0  0  0  0  0  0  0  0  0  0  0  0
   -3.8471    0.0250    0.2681 H   0  0  0  0  0  0  0  0  0  0  0  0
   -0.4880   -0.6462   -2.1274 H   0  0  0  0  0  0  0  0  0  0  0  0
   -0.5457    1.6345   -1.5278 H   0  0  0  0  0  0  0  0  0  0  0  0
    1.6383   -1.1649   -1.3658 H   0  0  0  0  0  0  0  0  0  0  0  0
    0.4467   -2.8983   -1.3350 H   0  0  0  0  0  0  0  0  0  0  0  0
    2.8015    0.8929    0.1993 H   0  0  0  0  0  0  0  0  0  0  0  0
    1.1840    1.4562    0.7938 H   0  0  0  0  0  0  0  0  0  0  0  0
    3.1780    1.5119    2.1778 H   0  0  0  0  0  0  0  0  0  0  0  0
  1  2  2  0
  2  3  1  0
  3  4  1  0
  2  5  1  0
  5  6  1  0
  5  7  1  0
  7  8  1  0
  7  9  1  0
  9 10  2  0
  9 11  1  0
 11 12  1  0
  3 13  1  0
  3 14  1  0
  4 15  1  0
  5 16  1  6
  6 17  1  0
  7 18  1  6
  8 19  1  0
 11 20  1  0
 11 21  1  0
 12 22  1  0
M  END
$$$$

     RDKit          3D

 22 21  0  0  0  0  0  0  0  0999 V2000
   -1.3024   -1.8263   -1.3355 O   0  0  0  0  0  0  0  0  0  0  0  0
   -1.4106   -0.8120   -0.6602 C   0  0  0  0  0  0  0  0  0  0  0  0
   -2.3190   -0.8012    0.4992 C   0  0  0  0  0  0  0  0  0  0  0  0
   -2.2849    0.4411    1.1146 O   0  0  0  0  0  0  0  0  0  0  0  0
   -0.6126    0.3816   -1.0409 C   0  0  1  0  0  0  0  0  0  0  0  0
   -0.8507    1.4191   -0.1876 O   0  0  0  0  0  0  0  0  0  0  0  0
    0.8376    0.0527   -1.2467 C   0  0  2  0  0  0  0  0  0  0  0  0
    0.8715   -1.0206   -2.1382 O   0  0  0  0  0  0  0  0  0  0  0  0
    1.5882   -0.2589   -0.0422 C   0  0  0  0  0  0  0  0  0  0  0  0
    2.1275   -1.3513    0.0480 O   0  0  0  0  0  0  0  0  0  0  0  0
    1.7776    0.6295    1.1247 C   0  0  0  0  0  0  0  0  0  0  0  0
    2.5474    0.0506    2.1282 O   0  0  0  0  0  0  0  0  0  0  0  0
   -3.3706   -1.0255    0.2543 H   0  0  0  0  0  0  0  0  0  0  0  0
   -1.9674   -1.5401    1.2503 H   0  0  0  0  0  0  0  0  0  0  0  0
   -2.9727    1.0149    0.7100 H   0  0  0  0  0  0  0  0  0  0  0  0
   -1.0056    0.6933   -2.0548 H   0  0  0  0  0  0  0  0  0  0  0  0
   -0.5809    2.2983   -0.5554 H   0  0  0  0  0  0  0  0  0  0  0  0
    1.3379    0.9008   -1.7929 H   0  0  0  0  0  0  0  0  0  0  0  0
    1.0965   -1.8787   -1.6977 H   0  0  0  0  0  0  0  0  0  0  0  0
    2.2332    1.5971    0.8790 H   0  0  0  0  0  0  0  0  0  0  0  0
    0.7562    0.7814    1.5782 H   0  0  0  0  0  0  0  0  0  0  0  0
    3.5038    0.2541    2.0202 H   0  0  0  0  0  0  0  0  0  0  0  0
  1  2  2  0
  2  3  1  0
  3  4  1  0
  2  5  1  0
  5  6  1  0
  5  7  1  0
  7  8  1  0
  7  9  1  0
  9 10  2  0
  9 11  1  0
 11 12  1  0
  3 13  1  0
  3 14  1  0
  4 15  1  0
  5 16  1  6
  6 17  1  0
  7 18  1  6
  8 19  1  0
 11 20  1  0
 11 21  1  0
 12 22  1  0
M  END
$$$$

     RDKit          3D

 22 21  0  0  0  0  0  0  0  0999 V2000
   -1.1375    1.6424    0.5444 O   0  0  0  0  0  0  0  0  0  0  0  0
   -1.5095    0.5550    0.1726 C   0  0  0  0  0  0  0  0  0  0  0  0
   -2.8165    0.4360   -0.5088 C   0  0  0  0  0  0  0  0  0  0  0  0
   -3.4632    1.6542   -0.6304 O   0  0  0  0  0  0  0  0  0  0  0  0
   -0.6692   -0.6258    0.3985 C   0  0  1  0  0  0  0  0  0  0  0  0
   -1.4031   -1.7503   -0.0666 O   0  0  0  0  0  0  0  0  0  0  0  0
    0.6105   -0.6536   -0.4147 C   0  0  2  0  0  0  0  0  0  0  0  0
    1.2072   -1.8910   -0.1270 O   0  0  0  0  0  0  0  0  0  0  0  0
    1.5432    0.4412   -0.1309 C   0  0  0  0  0  0  0  0  0  0  0  0
    1.2723    1.6035   -0.3545 O   0  0  0  0  0  0  0  0  0  0  0  0
    2.8921    0.1808    0.4553 C   0  0  0  0  0  0  0  0  0  0  0  0
    3.6215    1.3471    0.6476 O   0  0  0  0  0  0  0  0  0  0  0  0
   -3.5042   -0.2664    0.0304 H   0  0  0  0  0  0  0  0  0  0  0  0
   -2.6584    0.0214   -1.5261 H   0  0  0  0  0  0  0  0  0  0  0  0
   -3.4195    2.1756    0.2293 H   0  0  0  0  0  0  0  0  0  0  0  0
   -0.4900   -0.8326    1.4720 H   0  0  0  0  0  0  0  0  0  0  0  0
   -0.9357   -2.5879    0.1495 H   0  0  0  0  0  0  0  0  0  0  0  0
    0.3107   -0.6897   -1.4802 H   0  0  0  0  0  0  0  0  0  0  0  0
    1.1443   -2.1133    0.8283 H   0  0  0  0  0  0  0  0  0  0  0  0
    2.7310   -0.3292    1.4323 H   0  0  0  0  0  0  0  0  0  0  0  0
    3.5057   -0.4695   -0.2068 H   0  0  0  0  0  0  0  0  0  0  0  0
    3.1684    2.1523    0.2909 H   0  0  0  0  0  0  0  0  0  0  0  0
  1  2  2  0
  2  3  1  0
  3  4  1  0
  2  5  1  0
  5  6  1  0
  5  7  1  0
  7  8  1  0
  7  9  1  0
  9 10  2  0
  9 11  1  0
 11 12  1  0
  3 13  1  0
  3 14  1  0
  4 15  1  0
  5 16  1  1
  6 17  1  0
  7 18  1  6
  8 19  1  0
 11 20  1  0
 11 21  1  0
 12 22  1  0
M  END
$$$$

     RDKit          3D

 22 21  0  0  0  0  0  0  0  0999 V2000
   -1.1864    1.1818    1.4738 O   0  0  0  0  0  0  0  0  0  0  0  0
   -1.2414    0.4819    0.4668 C   0  0  0  0  0  0  0  0  0  0  0  0
   -1.5537   -0.9551    0.6466 C   0  0  0  0  0  0  0  0  0  0  0  0
   -1.7592   -1.2398    1.9985 O   0  0  0  0  0  0  0  0  0  0  0  0
   -0.9935    1.1227   -0.8489 C   0  0  1  0  0  0  0  0  0  0  0  0
   -0.7442    2.5050   -0.6696 O   0  0  0  0  0  0  0  0  0  0  0  0
    0.2114    0.5354   -1.5418 C   0  0  2  0  0  0  0  0  0  0  0  0
    0.0394   -0.8105   -1.7604 O   0  0  0  0  0  0  0  0  0  0  0  0
    1.4538    0.7931   -0.7663 C   0  0  0  0  0  0  0  0  0  0  0  0
    1.7816    1.9333   -0.4645 O   0  0  0  0  0  0  0  0  0  0  0  0
    2.3201   -0.3300   -0.3437 C   0  0  0  0  0  0  0  0  0  0  0  0
    1.8077   -1.5346   -0.7675 O   0  0  0  0  0  0  0  0  0  0  0  0
   -0.7390   -1.6232    0.2610 H   0  0  0  0  0  0  0  0  0  0  0  0
   -2.4627   -1.2046    0.0574 H   0  0  0  0  0  0  0  0  0  0  0  0
   -2.5822   -1.7505    2.1452 H   0  0  0  0  0  0  0  0  0  0  0  0
   -1.8826    0.9792   -1.4942 H   0  0  0  0  0  0  0  0  0  0  0  0
   -1.2534    2.7522    0.1416 H   0  0  0  0  0  0  0  0  0  0  0  0
    0.2804    1.0574   -2.5354 H   0  0  0  0  0  0  0  0  0  0  0  0
    0.4415   -1.0864   -2.6363 H   0  0  0  0  0  0  0  0  0  0  0  0
    2.3889   -0.3433    0.7670 H   0  0  0  0  0  0  0  0  0  0  0  0
    3.3654   -0.1967   -0.7044 H   0  0  0  0  0  0  0  0  0  0  0  0
    2.3082   -2.2674   -0.3252 H   0  0  0  0  0  0  0  0  0  0  0  0
  1  2  2  0
  2  3  1  0
  3  4  1  0
  2  5  1  0
  5  6  1  0
  5  7  1  0
  7  8  1  0
  7  9  1  0
  9 10  2  0
  9 11  1  0
 11 12  1  0
  3 13  1  0
  3 14  1  0
  4 15  1  0
  5 16  1  6
  6 17  1  0
  7 18  1  6
  8 19  1  0
 11 20  1  0
 11 21  1  0
 12 22  1  0
M  END
$$$$

     RDKit          3D

 22 21  0  0  0  0  0  0  0  0999 V2000
    2.1774    1.7526    0.9328 O   0  0  0  0  0  0  0  0  0  0  0  0
    1.8904    0.7256    0.3487 C   0  0  0  0  0  0  0  0  0  0  0  0
    2.7505    0.1656   -0.7292 C   0  0  0  0  0  0  0  0  0  0  0  0
    3.8704    0.9789   -0.9339 O   0  0  0  0  0  0  0  0  0  0  0  0
    0.6420    0.0282    0.7390 C   0  0  1  0  0  0  0  0  0  0  0  0
   -0.0052    0.7050    1.7491 O   0  0  0  0  0  0  0  0  0  0  0  0
   -0.2600   -0.2300   -0.4524 C   0  0  2  0  0  0  0  0  0  0  0  0
   -0.6953    0.9735   -0.9488 O   0  0  0  0  0  0  0  0  0  0  0  0
   -1.4000   -1.0349    0.0160 C   0  0  0  0  0  0  0  0  0  0  0  0
   -1.2502   -2.1470    0.4988 O   0  0  0  0  0  0  0  0  0  0  0  0
   -2.7713   -0.4898   -0.0969 C   0  0  0  0  0  0  0  0  0  0  0  0
   -3.7237   -1.3757    0.3897 O   0  0  0  0  0  0  0  0  0  0  0  0
    3.0720   -0.8677   -0.5059 H   0  0  0  0  0  0  0  0  0  0  0  0
    2.2007    0.1287   -1.7091 H   0  0  0  0  0  0  0  0  0  0  0  0
    3.5894    1.9176   -1.0554 H   0  0  0  0  0  0  0  0  0  0  0  0
    0.8933   -0.9920    1.1498 H   0  0  0  0  0  0  0  0  0  0  0  0
   -0.5378    0.0646    2.2675 H   0  0  0  0  0  0  0  0  0  0  0  0
    0.2859   -0.7472   -1.2640 H   0  0  0  0  0  0  0  0  0  0  0  0
   -0.9301    1.5742   -0.2061 H   0  0  0  0  0  0  0  0  0  0  0  0
   -2.8862    0.4978    0.3643 H   0  0  0  0  0  0  0  0  0  0  0  0
   -3.0084   -0.3536   -1.1875 H   0  0  0  0  0  0  0  0  0  0  0  0
   -3.9038   -1.2743    1.3518 H   0  0  0  0  0  0  0  0  0  0  0  0
  1  2  2  0
  2  3  1  0
  3  4  1  0
  2  5  1  0
  5  6  1  0
  5  7  1  0
  7  8  1  0
  7  9  1  0
  9 10  2  0
  9 11  1  0
 11 12  1  0
  3 13  1  0
  3 14  1  0
  4 15  1  0
  5 16  1  1
  6 17  1  0
  7 18  1  6
  8 19  1  0
 11 20  1  0
 11 21  1  0
 12 22  1  0
M  END
$$$$

     RDKit          3D

 22 21  0  0  0  0  0  0  0  0999 V2000
   -2.0096    1.7216    1.0491 O   0  0  0  0  0  0  0  0  0  0  0  0
   -1.9399    0.6129    0.5402 C   0  0  0  0  0  0  0  0  0  0  0  0
   -3.1124    0.1513   -0.2360 C   0  0  0  0  0  0  0  0  0  0  0  0
   -2.9536   -1.1028   -0.7741 O   0  0  0  0  0  0  0  0  0  0  0  0
   -0.7059   -0.1786    0.7332 C   0  0  1  0  0  0  0  0  0  0  0  0
   -0.8120   -1.3994    0.0870 O   0  0  0  0  0  0  0  0  0  0  0  0
    0.4839    0.6199    0.2226 C   0  0  2  0  0  0  0  0  0  0  0  0
    0.4011    0.8890   -1.1263 O   0  0  0  0  0  0  0  0  0  0  0  0
    1.7660    0.0102    0.6226 C   0  0  0  0  0  0  0  0  0  0  0  0
    1.9787   -0.2820    1.7740 O   0  0  0  0  0  0  0  0  0  0  0  0
    2.8343   -0.2628   -0.3793 C   0  0  0  0  0  0  0  0  0  0  0  0
    3.9487   -0.8433    0.2224 O   0  0  0  0  0  0  0  0  0  0  0  0
   -3.3108    0.8997   -1.0370 H   0  0  0  0  0  0  0  0  0  0  0  0
   -4.0130    0.1746    0.4376 H   0  0  0  0  0  0  0  0  0  0  0  0
   -3.7056   -1.2316   -1.4295 H   0  0  0  0  0  0  0  0  0  0  0  0
   -0.5443   -0.3394    1.8201 H   0  0  0  0  0  0  0  0  0  0  0  0
   -0.0838   -1.5000   -0.5897 H   0  0  0  0  0  0  0  0  0  0  0  0
    0.4213    1.6144    0.7548 H   0  0  0  0  0  0  0  0  0  0  0  0
    1.2408    0.9175   -1.6106 H   0  0  0  0  0  0  0  0  0  0  0  0
    3.1396    0.6736   -0.9166 H   0  0  0  0  0  0  0  0  0  0  0  0
    2.4282   -0.9963   -1.1329 H   0  0  0  0  0  0  0  0  0  0  0  0
    4.5485   -0.1485    0.5769 H   0  0  0  0  0  0  0  0  0  0  0  0
  1  2  2  0
  2  3  1  0
  3  4  1  0
  2  5  1  0
  5  6  1  0
  5  7  1  0
  7  8  1  0
  7  9  1  0
  9 10  2  0
  9 11  1  0
 11 12  1  0
  3 13  1  0
  3 14  1  0
  4 15  1  0
  5 16  1  1
  6 17  1  0
  7 18  1  1
  8 19  1  0
 11 20  1  0
 11 21  1  0
 12 22  1  0
M  END
$$$$
