
     RDKit          3D

 26 26  0  0  0  0  0  0  0  0999 V2000
   -3.8914   -0.8028   -0.2539 N   0  0  0  0  0  0  0  0  0  0  0  0
   -2.5471   -0.6936   -0.7898 C   0  0  0  0  0  0  0  0  0  0  0  0
   -1.6977    0.1387    0.1413 C   0  0  2  0  0  0  0  0  0  0  0  0
   -2.2761    1.5188    0.2906 C   0  0  0  0  0  0  0  0  0  0  0  0
   -1.5550    2.1658    1.3117 O   0  0  0  0  0  0  0  0  0  0  0  0
   -0.3157    0.1491   -0.2055 N   0  0  0  0  0  0  0  0  0  0  0  0
    0.6966   -0.3834    0.6381 C   0  0  0  0  0  0  0  0  0  0  0  0
    0.3568   -0.8760    1.7196 O   0  0  0  0  0  0  0  0  0  0  0  0
    2.1025   -0.3302    0.1985 C   0  0  0  0  0  0  0  0  0  0  0  0
    3.1082   -0.8348    0.9874 C   0  0  0  0  0  0  0  0  0  0  0  0
    4.3855   -0.7790    0.5728 N   0  0  0  0  0  0  0  0  0  0  0  0
    4.7020   -0.2311   -0.6155 C   0  0  0  0  0  0  0  0  0  0  0  0
    3.6943    0.2710   -1.3989 C   0  0  0  0  0  0  0  0  0  0  0  0
    2.4204    0.2101   -0.9748 N   0  0  0  0  0  0  0  0  0  0  0  0
   -4.2760   -1.7640   -0.3169 H   0  0  0  0  0  0  0  0  0  0  0  0
   -3.9053   -0.5545    0.7690 H   0  0  0  0  0  0  0  0  0  0  0  0
   -2.1608   -1.6976   -0.9509 H   0  0  0  0  0  0  0  0  0  0  0  0
   -2.6465   -0.0941   -1.7383 H   0  0  0  0  0  0  0  0  0  0  0  0
   -1.7881   -0.3490    1.1537 H   0  0  0  0  0  0  0  0  0  0  0  0
   -2.1955    2.1054   -0.6486 H   0  0  0  0  0  0  0  0  0  0  0  0
   -3.3170    1.4431    0.6528 H   0  0  0  0  0  0  0  0  0  0  0  0
   -1.2930    1.5190    2.0216 H   0  0  0  0  0  0  0  0  0  0  0  0
   -0.0572    0.5788   -1.1401 H   0  0  0  0  0  0  0  0  0  0  0  0
    2.8509   -1.2768    1.9466 H   0  0  0  0  0  0  0  0  0  0  0  0
    5.7130   -0.1639   -0.9906 H   0  0  0  0  0  0  0  0  0  0  0  0
    3.8920    0.7307   -2.3801 H   0  0  0  0  0  0  0  0  0  0  0  0
  1  2  1  0
  2  3  1  0
  3  4  1  0
  4  5  1  0
  3  6  1  0
  6  7  1  0
  7  8  2  0
  7  9  1  0
  9 10  2  0
 10 11  1  0
 11 12  2  0
 12 13  1  0
 13 14  2  0
 14  9  1  0
  1 15  1  0
  1 16  1  0
  2 17  1  0
  2 18  1  0
  3 19  1  1
  4 20  1  0
  4 21  1  0
  5 22  1  0
  6 23  1  0
 10 24  1  0
 12 25  1  0
 13 26  1  0
M  END
$$$$

     RDKit          3D

 26 26  0  0  0  0  0  0  0  0999 V2000
   -3.4499   -1.6760    0.0772 N   0  0  0  0  0  0  0  0  0  0  0  0
   -2.1099   -1.3627   -0.3721 C   0  0  0  0  0  0  0  0  0  0  0  0
   -1.6176   -0.1582    0.4266 C   0  0  2  0  0  0  0  0  0  0  0  0
   -2.5670    0.9899    0.1560 C   0  0  0  0  0  0  0  0  0  0  0  0
   -3.8195    0.6603    0.6305 O   0  0  0  0  0  0  0  0  0  0  0  0
   -0.2792    0.1296   -0.0512 N   0  0  0  0  0  0  0  0  0  0  0  0
    0.8466    0.0706    0.8064 C   0  0  0  0  0  0  0  0  0  0  0  0
    0.5949   -0.2505    2.0130 O   0  0  0  0  0  0  0  0  0  0  0  0
    2.2077    0.3493    0.3790 C   0  0  0  0  0  0  0  0  0  0  0  0
    2.5343    0.6997   -0.9095 C   0  0  0  0  0  0  0  0  0  0  0  0
    3.8047    0.9549   -1.2877 N   0  0  0  0  0  0  0  0  0  0  0  0
    4.7681    0.8582   -0.3606 C   0  0  0  0  0  0  0  0  0  0  0  0
    4.4904    0.5133    0.9315 C   0  0  0  0  0  0  0  0  0  0  0  0
    3.2021    0.2640    1.2756 N   0  0  0  0  0  0  0  0  0  0  0  0
   -4.0810   -1.7454   -0.7457 H   0  0  0  0  0  0  0  0  0  0  0  0
   -3.4296   -2.6182    0.5170 H   0  0  0  0  0  0  0  0  0  0  0  0
   -1.4127   -2.2131   -0.2666 H   0  0  0  0  0  0  0  0  0  0  0  0
   -2.1197   -1.0955   -1.4515 H   0  0  0  0  0  0  0  0  0  0  0  0
   -1.6140   -0.4125    1.4923 H   0  0  0  0  0  0  0  0  0  0  0  0
   -2.2158    1.9184    0.6306 H   0  0  0  0  0  0  0  0  0  0  0  0
   -2.6590    1.1808   -0.9319 H   0  0  0  0  0  0  0  0  0  0  0  0
   -3.8158    0.2672    1.5405 H   0  0  0  0  0  0  0  0  0  0  0  0
   -0.1283    0.3867   -1.0446 H   0  0  0  0  0  0  0  0  0  0  0  0
    1.7692    0.7810   -1.6646 H   0  0  0  0  0  0  0  0  0  0  0  0
    5.8037    1.0595   -0.6407 H   0  0  0  0  0  0  0  0  0  0  0  0
    5.2973    0.4486    1.6402 H   0  0  0  0  0  0  0  0  0  0  0  0
  1  2  1  0
  2  3  1  0
  3  4  1  0
  4  5  1  0
  3  6  1  0
  6  7  1  0
  7  8  2  0
  7  9  1  0
  9 10  2  0
 10 11  1  0
 11 12  2  0
 12 13  1  0
 13 14  2  0
 14  9  1  0
  1 15  1  0
  1 16  1  0
  2 17  1  0
  2 18  1  0
  3 19  1  1
  4 20  1  0
  4 21  1  0
  5 22  1  0
  6 23  1  0
 10 24  1  0
 12 25  1  0
 13 26  1  0
M  END
$$$$

     RDKit          3D

 26 26  0  0  0  0  0  0  0  0999 V2000
   -2.3617    1.2215    1.6693 N   0  0  0  0  0  0  0  0  0  0  0  0
   -2.7946    0.2679    0.6790 C   0  0  0  0  0  0  0  0  0  0  0  0
   -1.8678    0.2070   -0.5105 C   0  0  2  0  0  0  0  0  0  0  0  0
   -2.3474   -0.7993   -1.5287 C   0  0  0  0  0  0  0  0  0  0  0  0
   -2.3547   -2.0881   -1.0386 O   0  0  0  0  0  0  0  0  0  0  0  0
   -0.5215   -0.1637   -0.1406 N   0  0  0  0  0  0  0  0  0  0  0  0
    0.5667    0.6819   -0.3994 C   0  0  0  0  0  0  0  0  0  0  0  0
    0.2961    1.7904   -0.9773 O   0  0  0  0  0  0  0  0  0  0  0  0
    1.9487    0.3815   -0.0588 C   0  0  0  0  0  0  0  0  0  0  0  0
    2.9636    1.2645   -0.3462 C   0  0  0  0  0  0  0  0  0  0  0  0
    4.2576    0.9739   -0.0227 N   0  0  0  0  0  0  0  0  0  0  0  0
    4.5779   -0.1692    0.5793 C   0  0  0  0  0  0  0  0  0  0  0  0
    3.5662   -1.0628    0.8723 C   0  0  0  0  0  0  0  0  0  0  0  0
    2.2736   -0.7704    0.5481 N   0  0  0  0  0  0  0  0  0  0  0  0
   -3.2018    1.4828    2.2345 H   0  0  0  0  0  0  0  0  0  0  0  0
   -1.6689    0.8236    2.3520 H   0  0  0  0  0  0  0  0  0  0  0  0
   -2.8926   -0.7495    1.1477 H   0  0  0  0  0  0  0  0  0  0  0  0
   -3.8179    0.5574    0.3659 H   0  0  0  0  0  0  0  0  0  0  0  0
   -1.9121    1.2010   -1.0005 H   0  0  0  0  0  0  0  0  0  0  0  0
   -3.3466   -0.4756   -1.9200 H   0  0  0  0  0  0  0  0  0  0  0  0
   -1.6414   -0.7487   -2.3949 H   0  0  0  0  0  0  0  0  0  0  0  0
   -1.4766   -2.5086   -1.2627 H   0  0  0  0  0  0  0  0  0  0  0  0
   -0.3553   -1.0783    0.3281 H   0  0  0  0  0  0  0  0  0  0  0  0
    2.7031    2.1871   -0.8323 H   0  0  0  0  0  0  0  0  0  0  0  0
    5.5971   -0.4221    0.8458 H   0  0  0  0  0  0  0  0  0  0  0  0
    3.8103   -2.0044    1.3654 H   0  0  0  0  0  0  0  0  0  0  0  0
  1  2  1  0
  2  3  1  0
  3  4  1  0
  4  5  1  0
  3  6  1  0
  6  7  1  0
  7  8  2  0
  7  9  1  0
  9 10  2  0
 10 11  1  0
 11 12  2  0
 12 13  1  0
 13 14  2  0
 14  9  1  0
  1 15  1  0
  1 16  1  0
  2 17  1  0
  2 18  1  0
  3 19  1  6
  4 20  1  0
  4 21  1  0
  5 22  1  0
  6 23  1  0
 10 24  1  0
 12 25  1  0
 13 26  1  0
M  END
$$$$

     RDKit          3D

 26 26  0  0  0  0  0  0  0  0999 V2000
   -3.8719    0.4082   -0.6871 N   0  0  0  0  0  0  0  0  0  0  0  0
   -2.4944    0.8486   -0.5666 C   0  0  0  0  0  0  0  0  0  0  0  0
   -1.6791   -0.2134    0.0970 C   0  0  2  0  0  0  0  0  0  0  0  0
   -2.2475   -0.4822    1.4758 C   0  0  0  0  0  0  0  0  0  0  0  0
   -2.1156    0.6051    2.3103 O   0  0  0  0  0  0  0  0  0  0  0  0
   -0.2656    0.1082    0.1544 N   0  0  0  0  0  0  0  0  0  0  0  0
    0.7308   -0.7051   -0.4405 C   0  0  0  0  0  0  0  0  0  0  0  0
    0.3062   -1.7440   -1.0334 O   0  0  0  0  0  0  0  0  0  0  0  0
    2.1562   -0.4195   -0.4063 C   0  0  0  0  0  0  0  0  0  0  0  0
    2.6668    0.6818    0.2162 C   0  0  0  0  0  0  0  0  0  0  0  0
    4.0079    0.9479    0.2469 N   0  0  0  0  0  0  0  0  0  0  0  0
    4.8686    0.1143   -0.3469 C   0  0  0  0  0  0  0  0  0  0  0  0
    4.3749   -1.0046   -0.9818 C   0  0  0  0  0  0  0  0  0  0  0  0
    3.0541   -1.2511   -1.0025 N   0  0  0  0  0  0  0  0  0  0  0  0
   -3.9594   -0.6313   -0.6657 H   0  0  0  0  0  0  0  0  0  0  0  0
   -4.3700    0.8541   -1.4846 H   0  0  0  0  0  0  0  0  0  0  0  0
   -2.1026    1.1448   -1.5541 H   0  0  0  0  0  0  0  0  0  0  0  0
   -2.5256    1.7675    0.0874 H   0  0  0  0  0  0  0  0  0  0  0  0
   -1.7722   -1.1612   -0.4729 H   0  0  0  0  0  0  0  0  0  0  0  0
   -1.7612   -1.3869    1.9369 H   0  0  0  0  0  0  0  0  0  0  0  0
   -3.3207   -0.7474    1.3908 H   0  0  0  0  0  0  0  0  0  0  0  0
   -2.8069    1.2926    2.1167 H   0  0  0  0  0  0  0  0  0  0  0  0
    0.0665    0.9684    0.6473 H   0  0  0  0  0  0  0  0  0  0  0  0
    2.0237    1.4029    0.7199 H   0  0  0  0  0  0  0  0  0  0  0  0
    5.9420    0.2769   -0.3532 H   0  0  0  0  0  0  0  0  0  0  0  0
    5.0951   -1.6747   -1.4619 H   0  0  0  0  0  0  0  0  0  0  0  0
  1  2  1  0
  2  3  1  0
  3  4  1  0
  4  5  1  0
  3  6  1  0
  6  7  1  0
  7  8  2  0
  7  9  1  0
  9 10  2  0
 10 11  1  0
 11 12  2  0
 12 13  1  0
 13 14  2  0
 14  9  1  0
  1 15  1  0
  1 16  1  0
  2 17  1  0
  2 18  1  0
  3 19  1  6
  4 20  1  0
  4 21  1  0
  5 22  1  0
  6 23  1  0
 10 24  1  0
 12 25  1  0
 13 26  1  0
M  END
$$$$

     RDKit          3D

 26 26  0  0  0  0  0  0  0  0999 V2000
   -3.5729   -1.1925   -1.1271 N   0  0  0  0  0  0  0  0  0  0  0  0
   -2.3671   -0.4215   -1.2411 C   0  0  0  0  0  0  0  0  0  0  0  0
   -1.5766   -0.5340    0.0591 C   0  0  2  0  0  0  0  0  0  0  0  0
   -2.4468    0.0045    1.1760 C   0  0  0  0  0  0  0  0  0  0  0  0
   -2.7361    1.3415    1.0148 O   0  0  0  0  0  0  0  0  0  0  0  0
   -0.3151    0.1506   -0.0250 N   0  0  0  0  0  0  0  0  0  0  0  0
    0.8999   -0.5585    0.0903 C   0  0  0  0  0  0  0  0  0  0  0  0
    0.8004   -1.8225    0.2705 O   0  0  0  0  0  0  0  0  0  0  0  0
    2.2312    0.0361    0.0199 C   0  0  0  0  0  0  0  0  0  0  0  0
    2.3870    1.3765   -0.1706 C   0  0  0  0  0  0  0  0  0  0  0  0
    3.6227    1.9493   -0.2390 N   0  0  0  0  0  0  0  0  0  0  0  0
    4.6911    1.1462   -0.1119 C   0  0  0  0  0  0  0  0  0  0  0  0
    4.5424   -0.2166    0.0819 C   0  0  0  0  0  0  0  0  0  0  0  0
    3.3317   -0.7665    0.1473 N   0  0  0  0  0  0  0  0  0  0  0  0
   -3.7748   -1.7056   -2.0220 H   0  0  0  0  0  0  0  0  0  0  0  0
   -3.5451   -1.8527   -0.3076 H   0  0  0  0  0  0  0  0  0  0  0  0
   -2.6393    0.6332   -1.4318 H   0  0  0  0  0  0  0  0  0  0  0  0
   -1.7500   -0.8549   -2.0596 H   0  0  0  0  0  0  0  0  0  0  0  0
   -1.3865   -1.6108    0.2155 H   0  0  0  0  0  0  0  0  0  0  0  0
   -3.3835   -0.5759    1.2801 H   0  0  0  0  0  0  0  0  0  0  0  0
   -1.8940   -0.1038    2.1460 H   0  0  0  0  0  0  0  0  0  0  0  0
   -3.5198    1.5544    1.5860 H   0  0  0  0  0  0  0  0  0  0  0  0
   -0.2668    1.1875   -0.1732 H   0  0  0  0  0  0  0  0  0  0  0  0
    1.5300    2.0439   -0.2759 H   0  0  0  0  0  0  0  0  0  0  0  0
    5.6785    1.5932   -0.1650 H   0  0  0  0  0  0  0  0  0  0  0  0
    5.4594   -0.8012    0.1760 H   0  0  0  0  0  0  0  0  0  0  0  0
  1  2  1  0
  2  3  1  0
  3  4  1  0
  4  5  1  0
  3  6  1  0
  6  7  1  0
  7  8  2  0
  7  9  1  0
  9 10  2  0
 10 11  1  0
 11 12  2  0
 12 13  1  0
 13 14  2  0
 14  9  1  0
  1 15  1  0
  1 16  1  0
  2 17  1  0
  2 18  1  0
  3 19  1  1
  4 20  1  0
  4 21  1  0
  5 22  1  0
  6 23  1  0
 10 24  1  0
 12 25  1  0
 13 26  1  0
M  END
$$$$

     RDKit          3D

 26 26  0  0  0  0  0  0  0  0999 V2000
   -2.3638    1.3748   -1.1721 N   0  0  0  0  0  0  0  0  0  0  0  0
   -2.6520    0.7161    0.0926 C   0  0  0  0  0  0  0  0  0  0  0  0
   -1.7441   -0.5021    0.2361 C   0  0  2  0  0  0  0  0  0  0  0  0
   -2.0506   -1.1811    1.5542 C   0  0  0  0  0  0  0  0  0  0  0  0
   -3.3570   -1.6425    1.6061 O   0  0  0  0  0  0  0  0  0  0  0  0
   -0.3722   -0.0554    0.2681 N   0  0  0  0  0  0  0  0  0  0  0  0
    0.5358   -0.5508   -0.6924 C   0  0  0  0  0  0  0  0  0  0  0  0
    0.1414   -1.3922   -1.5863 O   0  0  0  0  0  0  0  0  0  0  0  0
    1.9395   -0.1755   -0.7611 C   0  0  0  0  0  0  0  0  0  0  0  0
    2.4368    0.7175    0.1574 C   0  0  0  0  0  0  0  0  0  0  0  0
    3.7481    1.0904    0.1209 N   0  0  0  0  0  0  0  0  0  0  0  0
    4.5562    0.5851   -0.8135 C   0  0  0  0  0  0  0  0  0  0  0  0
    4.0304   -0.3079   -1.7213 C   0  0  0  0  0  0  0  0  0  0  0  0
    2.7469   -0.6925   -1.7099 N   0  0  0  0  0  0  0  0  0  0  0  0
   -1.5744    2.0471   -1.0786 H   0  0  0  0  0  0  0  0  0  0  0  0
   -3.1989    1.9537   -1.4720 H   0  0  0  0  0  0  0  0  0  0  0  0
   -2.4451    1.4372    0.8905 H   0  0  0  0  0  0  0  0  0  0  0  0
   -3.6957    0.3738    0.1581 H   0  0  0  0  0  0  0  0  0  0  0  0
   -1.9221   -1.2193   -0.5859 H   0  0  0  0  0  0  0  0  0  0  0  0
   -1.9421   -0.4199    2.3758 H   0  0  0  0  0  0  0  0  0  0  0  0
   -1.3451   -2.0023    1.7518 H   0  0  0  0  0  0  0  0  0  0  0  0
   -3.5412   -2.0860    0.7393 H   0  0  0  0  0  0  0  0  0  0  0  0
   -0.0725    0.6151    0.9859 H   0  0  0  0  0  0  0  0  0  0  0  0
    1.8285    1.1511    0.9270 H   0  0  0  0  0  0  0  0  0  0  0  0
    5.6075    0.8688   -0.8618 H   0  0  0  0  0  0  0  0  0  0  0  0
    4.7056   -0.7029   -2.4684 H   0  0  0  0  0  0  0  0  0  0  0  0
  1  2  1  0
  2  3  1  0
  3  4  1  0
  4  5  1  0
  3  6  1  0
  6  7  1  0
  7  8  2  0
  7  9  1  0
  9 10  2  0
 10 11  1  0
 11 12  2  0
 12 13  1  0
 13 14  2  0
 14  9  1  0
  1 15  1  0
  1 16  1  0
  2 17  1  0
  2 18  1  0
  3 19  1  6
  4 20  1  0
  4 21  1  0
  5 22  1  0
  6 23  1  0
 10 24  1  0
 12 25  1  0
 13 26  1  0
M  END
$$$$

     RDKit          3D

 26 26  0  0  0  0  0  0  0  0999 V2000
   -3.7212    0.6780   -0.3857 N   0  0  0  0  0  0  0  0  0  0  0  0
   -2.3492    0.8949    0.0229 C   0  0  0  0  0  0  0  0  0  0  0  0
   -1.5493   -0.3863   -0.0627 C   0  0  2  0  0  0  0  0  0  0  0  0
   -2.1764   -1.4115    0.8449 C   0  0  0  0  0  0  0  0  0  0  0  0
   -3.5173   -1.5314    0.4691 O   0  0  0  0  0  0  0  0  0  0  0  0
   -0.1704   -0.1474    0.1945 N   0  0  0  0  0  0  0  0  0  0  0  0
    0.8303   -0.3890   -0.7726 C   0  0  0  0  0  0  0  0  0  0  0  0
    0.4939   -0.8237   -1.8819 O   0  0  0  0  0  0  0  0  0  0  0  0
    2.2365   -0.1429   -0.5033 C   0  0  0  0  0  0  0  0  0  0  0  0
    3.1994   -0.3758   -1.4354 C   0  0  0  0  0  0  0  0  0  0  0  0
    4.4875   -0.1375   -1.1528 N   0  0  0  0  0  0  0  0  0  0  0  0
    4.8193    0.3383    0.0726 C   0  0  0  0  0  0  0  0  0  0  0  0
    3.8596    0.5805    1.0296 C   0  0  0  0  0  0  0  0  0  0  0  0
    2.5841    0.3311    0.7126 N   0  0  0  0  0  0  0  0  0  0  0  0
   -4.3839    1.3452    0.1102 H   0  0  0  0  0  0  0  0  0  0  0  0
   -3.8050    0.9563   -1.4052 H   0  0  0  0  0  0  0  0  0  0  0  0
   -2.3545    1.2738    1.0675 H   0  0  0  0  0  0  0  0  0  0  0  0
   -1.9007    1.6890   -0.6161 H   0  0  0  0  0  0  0  0  0  0  0  0
   -1.6680   -0.7748   -1.1078 H   0  0  0  0  0  0  0  0  0  0  0  0
   -1.7024   -2.3879    0.6267 H   0  0  0  0  0  0  0  0  0  0  0  0
   -2.1568   -1.1300    1.9012 H   0  0  0  0  0  0  0  0  0  0  0  0
   -4.1073   -1.6478    1.2560 H   0  0  0  0  0  0  0  0  0  0  0  0
    0.1161    0.2170    1.1233 H   0  0  0  0  0  0  0  0  0  0  0  0
    2.9688   -0.7517   -2.4130 H   0  0  0  0  0  0  0  0  0  0  0  0
    5.8699    0.5305    0.2970 H   0  0  0  0  0  0  0  0  0  0  0  0
    4.0971    0.9575    2.0082 H   0  0  0  0  0  0  0  0  0  0  0  0
  1  2  1  0
  2  3  1  0
  3  4  1  0
  4  5  1  0
  3  6  1  0
  6  7  1  0
  7  8  2  0
  7  9  1  0
  9 10  2  0
 10 11  1  0
 11 12  2  0
 12 13  1  0
 13 14  2  0
 14  9  1  0
  1 15  1  0
  1 16  1  0
  2 17  1  0
  2 18  1  0
  3 19  1  6
  4 20  1  0
  4 21  1  0
  5 22  1  0
  6 23  1  0
 10 24  1  0
 12 25  1  0
 13 26  1  0
M  END
$$$$

     RDKit          3D

 26 26  0  0  0  0  0  0  0  0999 V2000
   -2.0315    1.7918   -1.4621 N   0  0  0  0  0  0  0  0  0  0  0  0
   -2.6760    0.9291   -0.5161 C   0  0  0  0  0  0  0  0  0  0  0  0
   -1.8968   -0.3784   -0.3228 C   0  0  2  0  0  0  0  0  0  0  0  0
   -2.6855   -1.1740    0.6869 C   0  0  0  0  0  0  0  0  0  0  0  0
   -2.0863   -2.3903    0.9886 O   0  0  0  0  0  0  0  0  0  0  0  0
   -0.5639   -0.0676    0.1294 N   0  0  0  0  0  0  0  0  0  0  0  0
    0.5917   -0.4343   -0.5863 C   0  0  0  0  0  0  0  0  0  0  0  0
    0.4493   -1.0711   -1.6857 O   0  0  0  0  0  0  0  0  0  0  0  0
    1.9602   -0.1496   -0.1819 C   0  0  0  0  0  0  0  0  0  0  0  0
    2.1997    0.5311    0.9876 C   0  0  0  0  0  0  0  0  0  0  0  0
    3.4522    0.7974    1.3678 N   0  0  0  0  0  0  0  0  0  0  0  0
    4.5026    0.4155    0.6327 C   0  0  0  0  0  0  0  0  0  0  0  0
    4.2627   -0.2654   -0.5371 C   0  0  0  0  0  0  0  0  0  0  0  0
    3.0149   -0.5351   -0.9235 N   0  0  0  0  0  0  0  0  0  0  0  0
   -2.6577    2.1342   -2.2039 H   0  0  0  0  0  0  0  0  0  0  0  0
   -1.1960    1.3397   -1.8927 H   0  0  0  0  0  0  0  0  0  0  0  0
   -2.6777    1.4126    0.4956 H   0  0  0  0  0  0  0  0  0  0  0  0
   -3.7255    0.7041   -0.7960 H   0  0  0  0  0  0  0  0  0  0  0  0
   -1.8895   -0.9301   -1.2841 H   0  0  0  0  0  0  0  0  0  0  0  0
   -2.7705   -0.5236    1.6022 H   0  0  0  0  0  0  0  0  0  0  0  0
   -3.7137   -1.2854    0.2834 H   0  0  0  0  0  0  0  0  0  0  0  0
   -1.4618   -2.2133    1.7428 H   0  0  0  0  0  0  0  0  0  0  0  0
   -0.4529    0.4483    1.0205 H   0  0  0  0  0  0  0  0  0  0  0  0
    1.3926    0.8688    1.6296 H   0  0  0  0  0  0  0  0  0  0  0  0
    5.5380    0.6288    0.9351 H   0  0  0  0  0  0  0  0  0  0  0  0
    5.1213   -0.5833   -1.1479 H   0  0  0  0  0  0  0  0  0  0  0  0
  1  2  1  0
  2  3  1  0
  3  4  1  0
  4  5  1  0
  3  6  1  0
  6  7  1  0
  7  8  2  0
  7  9  1  0
  9 10  2  0
 10 11  1  0
 11 12  2  0
 12 13  1  0
 13 14  2  0
 14  9  1  0
  1 15  1  0
  1 16  1  0
  2 17  1  0
  2 18  1  0
  3 19  1  6
  4 20  1  0
  4 21  1  0
  5 22  1  0
  6 23  1  0
 10 24  1  0
 12 25  1  0
 13 26  1  0
M  END
$$$$
