
     RDKit          3D

 28 30  0  0  0  0  0  0  0  0999 V2000
    3.0757   -0.8119    0.4795 C   0  0  0  0  0  0  0  0  0  0  0  0
    2.5696    0.4529   -0.0418 N   0  0  0  0  0  0  0  0  0  0  0  0
    3.3078    1.5198   -0.3272 N   0  0  0  0  0  0  0  0  0  0  0  0
    2.5741    2.4944   -0.7729 N   0  0  0  0  0  0  0  0  0  0  0  0
    1.3474    2.0632   -0.7795 N   0  0  0  0  0  0  0  0  0  0  0  0
    1.2993    0.7757   -0.3245 C   0  0  0  0  0  0  0  0  0  0  0  0
    0.1427   -0.0270   -0.1911 N   0  0  0  0  0  0  0  0  0  0  0  0
    0.0863   -1.3749    0.2671 C   0  0  0  0  0  0  0  0  0  0  0  0
   -1.3775   -1.7838    0.2084 C   0  0  2  0  0  0  0  0  0  0  0  0
   -1.8606   -1.9681   -1.2322 C   0  0  0  0  0  0  0  0  0  0  0  0
   -2.1093   -0.7337   -0.4904 C   0  0  2  0  0  0  0  0  0  0  0  0
   -1.2058    0.4573   -0.5237 C   0  0  1  0  0  0  0  0  0  0  0  0
   -1.6820    1.3906    0.5953 C   0  0  0  0  0  0  0  0  0  0  0  0
   -0.8337    2.5245    0.7723 N   0  0  0  0  0  0  0  0  0  0  0  0
    2.8988   -1.6679   -0.1700 H   0  0  0  0  0  0  0  0  0  0  0  0
    2.8000   -0.9627    1.5520 H   0  0  0  0  0  0  0  0  0  0  0  0
    4.2049   -0.7187    0.5233 H   0  0  0  0  0  0  0  0  0  0  0  0
    0.5060   -1.5081    1.2707 H   0  0  0  0  0  0  0  0  0  0  0  0
    0.5841   -2.0810   -0.4622 H   0  0  0  0  0  0  0  0  0  0  0  0
   -1.7851   -2.4482    0.9690 H   0  0  0  0  0  0  0  0  0  0  0  0
   -2.7054   -2.6692   -1.3374 H   0  0  0  0  0  0  0  0  0  0  0  0
   -1.1177   -2.0155   -2.0454 H   0  0  0  0  0  0  0  0  0  0  0  0
   -3.1760   -0.5115   -0.1991 H   0  0  0  0  0  0  0  0  0  0  0  0
   -1.1801    0.9794   -1.4955 H   0  0  0  0  0  0  0  0  0  0  0  0
   -1.7026    0.7882    1.5286 H   0  0  0  0  0  0  0  0  0  0  0  0
   -2.7226    1.6960    0.3796 H   0  0  0  0  0  0  0  0  0  0  0  0
   -1.0190    3.2870    0.0851 H   0  0  0  0  0  0  0  0  0  0  0  0
   -0.9194    2.8532    1.7621 H   0  0  0  0  0  0  0  0  0  0  0  0
  1  2  1  0
  2  3  1  0
  3  4  2  0
  4  5  1  0
  5  6  2  0
  6  7  1  0
  7  8  1  0
  8  9  1  0
  9 10  1  0
 10 11  1  0
 11 12  1  0
 12 13  1  0
 13 14  1  0
  6  2  1  0
 12  7  1  0
 11  9  1  0
  1 15  1  0
  1 16  1  0
  1 17  1  0
  8 18  1  0
  8 19  1  0
  9 20  1  1
 10 21  1  0
 10 22  1  0
 11 23  1  1
 12 24  1  6
 13 25  1  0
 13 26  1  0
 14 27  1  0
 14 28  1  0
M  END
$$$$

     RDKit          3D

 28 30  0  0  0  0  0  0  0  0999 V2000
    2.7666   -1.1800    0.6583 C   0  0  0  0  0  0  0  0  0  0  0  0
    2.6733    0.1201    0.0081 N   0  0  0  0  0  0  0  0  0  0  0  0
    3.6814    0.7472   -0.5455 N   0  0  0  0  0  0  0  0  0  0  0  0
    3.2142    1.8823   -1.0315 N   0  0  0  0  0  0  0  0  0  0  0  0
    1.9166    1.9566   -0.7780 N   0  0  0  0  0  0  0  0  0  0  0  0
    1.5328    0.8469   -0.1133 C   0  0  0  0  0  0  0  0  0  0  0  0
    0.2632    0.4826    0.3703 N   0  0  0  0  0  0  0  0  0  0  0  0
   -0.2935    0.8685    1.6422 C   0  0  0  0  0  0  0  0  0  0  0  0
   -1.6691    1.3693    1.2066 C   0  0  2  0  0  0  0  0  0  0  0  0
   -2.7627    0.3854    1.2015 C   0  0  0  0  0  0  0  0  0  0  0  0
   -1.9871    0.4985   -0.0466 C   0  0  2  0  0  0  0  0  0  0  0  0
   -0.7406   -0.3284   -0.2596 C   0  0  1  0  0  0  0  0  0  0  0  0
   -0.4806   -0.6636   -1.6918 C   0  0  0  0  0  0  0  0  0  0  0  0
   -1.6182   -1.4893   -2.1268 N   0  0  0  0  0  0  0  0  0  0  0  0
    1.9357   -1.2674    1.3796 H   0  0  0  0  0  0  0  0  0  0  0  0
    2.5822   -1.9616   -0.1362 H   0  0  0  0  0  0  0  0  0  0  0  0
    3.7631   -1.3054    1.1118 H   0  0  0  0  0  0  0  0  0  0  0  0
    0.2871    1.6556    2.1483 H   0  0  0  0  0  0  0  0  0  0  0  0
   -0.4217   -0.0622    2.2338 H   0  0  0  0  0  0  0  0  0  0  0  0
   -1.8369    2.4485    1.0747 H   0  0  0  0  0  0  0  0  0  0  0  0
   -3.7914    0.7856    1.1871 H   0  0  0  0  0  0  0  0  0  0  0  0
   -2.6127   -0.4957    1.8677 H   0  0  0  0  0  0  0  0  0  0  0  0
   -2.4643    0.9852   -0.8970 H   0  0  0  0  0  0  0  0  0  0  0  0
   -0.8287   -1.2554    0.3669 H   0  0  0  0  0  0  0  0  0  0  0  0
    0.4543   -1.2602   -1.7996 H   0  0  0  0  0  0  0  0  0  0  0  0
   -0.3803    0.2215   -2.3309 H   0  0  0  0  0  0  0  0  0  0  0  0
   -1.5450   -1.6246   -3.1399 H   0  0  0  0  0  0  0  0  0  0  0  0
   -1.6377   -2.3600   -1.5602 H   0  0  0  0  0  0  0  0  0  0  0  0
  1  2  1  0
  2  3  1  0
  3  4  2  0
  4  5  1  0
  5  6  2  0
  6  7  1  0
  7  8  1  0
  8  9  1  0
  9 10  1  0
 10 11  1  0
 11 12  1  0
 12 13  1  0
 13 14  1  0
  6  2  1  0
 12  7  1  0
 11  9  1  0
  1 15  1  0
  1 16  1  0
  1 17  1  0
  8 18  1  0
  8 19  1  0
  9 20  1  6
 10 21  1  0
 10 22  1  0
 11 23  1  6
 12 24  1  1
 13 25  1  0
 13 26  1  0
 14 27  1  0
 14 28  1  0
M  END
$$$$

     RDKit          3D

 28 30  0  0  0  0  0  0  0  0999 V2000
    3.3672   -0.4996   -0.7390 C   0  0  0  0  0  0  0  0  0  0  0  0
    2.7267    0.5723   -0.0460 N   0  0  0  0  0  0  0  0  0  0  0  0
    3.4196    1.5624    0.5272 N   0  0  0  0  0  0  0  0  0  0  0  0
    2.5645    2.3891    1.0706 N   0  0  0  0  0  0  0  0  0  0  0  0
    1.3554    1.9430    0.8528 N   0  0  0  0  0  0  0  0  0  0  0  0
    1.4107    0.7701    0.1344 C   0  0  0  0  0  0  0  0  0  0  0  0
    0.2981    0.0061   -0.2706 N   0  0  0  0  0  0  0  0  0  0  0  0
    0.2521   -1.2446   -0.9399 C   0  0  0  0  0  0  0  0  0  0  0  0
   -0.8063   -1.9995   -0.1442 C   0  0  2  0  0  0  0  0  0  0  0  0
   -2.2310   -1.9204   -0.4571 C   0  0  0  0  0  0  0  0  0  0  0  0
   -1.6863   -0.8856    0.4598 C   0  0  2  0  0  0  0  0  0  0  0  0
   -1.0857    0.3753   -0.0847 C   0  0  1  0  0  0  0  0  0  0  0  0
   -1.2984    1.5378    0.8405 C   0  0  0  0  0  0  0  0  0  0  0  0
   -2.7551    1.7464    0.8937 N   0  0  0  0  0  0  0  0  0  0  0  0
    3.0081   -0.6526   -1.7716 H   0  0  0  0  0  0  0  0  0  0  0  0
    4.4887   -0.3192   -0.7804 H   0  0  0  0  0  0  0  0  0  0  0  0
    3.2869   -1.4173   -0.1246 H   0  0  0  0  0  0  0  0  0  0  0  0
    1.1610   -1.8336   -0.9959 H   0  0  0  0  0  0  0  0  0  0  0  0
   -0.1771   -1.0315   -1.9672 H   0  0  0  0  0  0  0  0  0  0  0  0
   -0.4233   -2.7758    0.5377 H   0  0  0  0  0  0  0  0  0  0  0  0
   -2.8724   -2.6833    0.0291 H   0  0  0  0  0  0  0  0  0  0  0  0
   -2.5406   -1.5938   -1.4786 H   0  0  0  0  0  0  0  0  0  0  0  0
   -1.8920   -0.9287    1.5365 H   0  0  0  0  0  0  0  0  0  0  0  0
   -1.5456    0.6569   -1.0571 H   0  0  0  0  0  0  0  0  0  0  0  0
   -0.9022    2.4603    0.3578 H   0  0  0  0  0  0  0  0  0  0  0  0
   -0.9636    1.3779    1.8650 H   0  0  0  0  0  0  0  0  0  0  0  0
   -3.1297    2.1014    0.0117 H   0  0  0  0  0  0  0  0  0  0  0  0
   -3.0299    2.2863    1.7399 H   0  0  0  0  0  0  0  0  0  0  0  0
  1  2  1  0
  2  3  1  0
  3  4  2  0
  4  5  1  0
  5  6  2  0
  6  7  1  0
  7  8  1  0
  8  9  1  0
  9 10  1  0
 10 11  1  0
 11 12  1  0
 12 13  1  0
 13 14  1  0
  6  2  1  0
 12  7  1  0
 11  9  1  0
  1 15  1  0
  1 16  1  0
  1 17  1  0
  8 18  1  0
  8 19  1  0
  9 20  1  1
 10 21  1  0
 10 22  1  0
 11 23  1  1
 12 24  1  6
 13 25  1  0
 13 26  1  0
 14 27  1  0
 14 28  1  0
M  END
$$$$

     RDKit          3D

 28 30  0  0  0  0  0  0  0  0999 V2000
    2.5903   -0.9004    0.2829 C   0  0  0  0  0  0  0  0  0  0  0  0
    2.3218    0.5124    0.0488 N   0  0  0  0  0  0  0  0  0  0  0  0
    3.3064    1.4203    0.1658 N   0  0  0  0  0  0  0  0  0  0  0  0
    2.7644    2.6038   -0.0963 N   0  0  0  0  0  0  0  0  0  0  0  0
    1.4747    2.4419   -0.3698 N   0  0  0  0  0  0  0  0  0  0  0  0
    1.1943    1.1237   -0.2798 C   0  0  0  0  0  0  0  0  0  0  0  0
   -0.0767    0.5305   -0.5153 N   0  0  0  0  0  0  0  0  0  0  0  0
   -0.5800    0.2293   -1.8536 C   0  0  0  0  0  0  0  0  0  0  0  0
   -1.3751   -1.0242   -1.7449 C   0  0  2  0  0  0  0  0  0  0  0  0
   -2.7177   -1.0844   -1.1360 C   0  0  0  0  0  0  0  0  0  0  0  0
   -1.5585   -1.1947   -0.2226 C   0  0  2  0  0  0  0  0  0  0  0  0
   -1.1091    0.1105    0.3750 C   0  0  1  0  0  0  0  0  0  0  0  0
   -0.7125   -0.0556    1.8057 C   0  0  0  0  0  0  0  0  0  0  0  0
   -0.2207    1.1499    2.4035 N   0  0  0  0  0  0  0  0  0  0  0  0
    1.6414   -1.4628    0.2590 H   0  0  0  0  0  0  0  0  0  0  0  0
    2.9714   -0.9981    1.3440 H   0  0  0  0  0  0  0  0  0  0  0  0
    3.3394   -1.2936   -0.4161 H   0  0  0  0  0  0  0  0  0  0  0  0
    0.2520    0.1288   -2.5600 H   0  0  0  0  0  0  0  0  0  0  0  0
   -1.2378    1.1002   -2.1473 H   0  0  0  0  0  0  0  0  0  0  0  0
   -1.0233   -1.9040   -2.3193 H   0  0  0  0  0  0  0  0  0  0  0  0
   -3.2905   -2.0067   -1.3137 H   0  0  0  0  0  0  0  0  0  0  0  0
   -3.3456   -0.1689   -1.0811 H   0  0  0  0  0  0  0  0  0  0  0  0
   -1.1654   -2.1467    0.1516 H   0  0  0  0  0  0  0  0  0  0  0  0
   -1.9153    0.8780    0.3125 H   0  0  0  0  0  0  0  0  0  0  0  0
    0.0221   -0.8660    1.9452 H   0  0  0  0  0  0  0  0  0  0  0  0
   -1.6324   -0.3508    2.3666 H   0  0  0  0  0  0  0  0  0  0  0  0
    0.7984    1.2266    2.4749 H   0  0  0  0  0  0  0  0  0  0  0  0
   -0.7159    2.0009    2.1202 H   0  0  0  0  0  0  0  0  0  0  0  0
  1  2  1  0
  2  3  1  0
  3  4  2  0
  4  5  1  0
  5  6  2  0
  6  7  1  0
  7  8  1  0
  8  9  1  0
  9 10  1  0
 10 11  1  0
 11 12  1  0
 12 13  1  0
 13 14  1  0
  6  2  1  0
 12  7  1  0
 11  9  1  0
  1 15  1  0
  1 16  1  0
  1 17  1  0
  8 18  1  0
  8 19  1  0
  9 20  1  6
 10 21  1  0
 10 22  1  0
 11 23  1  1
 12 24  1  1
 13 25  1  0
 13 26  1  0
 14 27  1  0
 14 28  1  0
M  END
$$$$

     RDKit          3D

 28 30  0  0  0  0  0  0  0  0999 V2000
    2.6546   -1.3095    0.0156 C   0  0  0  0  0  0  0  0  0  0  0  0
    2.4902   -0.2284    0.9618 N   0  0  0  0  0  0  0  0  0  0  0  0
    3.3032    0.0787    1.9478 N   0  0  0  0  0  0  0  0  0  0  0  0
    2.8228    1.1261    2.5967 N   0  0  0  0  0  0  0  0  0  0  0  0
    1.6965    1.4645    1.9963 N   0  0  0  0  0  0  0  0  0  0  0  0
    1.4567    0.6204    0.9504 C   0  0  0  0  0  0  0  0  0  0  0  0
    0.3454    0.6967    0.0998 N   0  0  0  0  0  0  0  0  0  0  0  0
    0.2655    1.4486   -1.1164 C   0  0  0  0  0  0  0  0  0  0  0  0
   -1.0363    1.1576   -1.7696 C   0  0  2  0  0  0  0  0  0  0  0  0
   -2.3279    1.5074   -1.1761 C   0  0  0  0  0  0  0  0  0  0  0  0
   -1.7139    0.1527   -0.9522 C   0  0  2  0  0  0  0  0  0  0  0  0
   -0.9081    0.0343    0.2992 C   0  0  1  0  0  0  0  0  0  0  0  0
   -0.7603   -1.3892    0.7774 C   0  0  0  0  0  0  0  0  0  0  0  0
   -2.1281   -1.9115    0.9276 N   0  0  0  0  0  0  0  0  0  0  0  0
    2.3743   -1.0552   -1.0074 H   0  0  0  0  0  0  0  0  0  0  0  0
    3.7484   -1.5892   -0.0126 H   0  0  0  0  0  0  0  0  0  0  0  0
    2.1451   -2.2407    0.3769 H   0  0  0  0  0  0  0  0  0  0  0  0
    0.3986    2.5323   -0.9143 H   0  0  0  0  0  0  0  0  0  0  0  0
    1.1032    1.1558   -1.8032 H   0  0  0  0  0  0  0  0  0  0  0  0
   -1.0068    1.1128   -2.8853 H   0  0  0  0  0  0  0  0  0  0  0  0
   -2.3858    2.2089   -0.2948 H   0  0  0  0  0  0  0  0  0  0  0  0
   -3.2236    1.5237   -1.7960 H   0  0  0  0  0  0  0  0  0  0  0  0
   -2.1043   -0.7361   -1.4677 H   0  0  0  0  0  0  0  0  0  0  0  0
   -1.4213    0.5824    1.1455 H   0  0  0  0  0  0  0  0  0  0  0  0
   -0.3290   -1.4165    1.7966 H   0  0  0  0  0  0  0  0  0  0  0  0
   -0.2305   -2.0380    0.0823 H   0  0  0  0  0  0  0  0  0  0  0  0
   -2.4381   -2.3453    0.0284 H   0  0  0  0  0  0  0  0  0  0  0  0
   -2.7905   -1.1434    1.1931 H   0  0  0  0  0  0  0  0  0  0  0  0
  1  2  1  0
  2  3  1  0
  3  4  2  0
  4  5  1  0
  5  6  2  0
  6  7  1  0
  7  8  1  0
  8  9  1  0
  9 10  1  0
 10 11  1  0
 11 12  1  0
 12 13  1  0
 13 14  1  0
  6  2  1  0
 12  7  1  0
 11  9  1  0
  1 15  1  0
  1 16  1  0
  1 17  1  0
  8 18  1  0
  8 19  1  0
  9 20  1  6
 10 21  1  0
 10 22  1  0
 11 23  1  6
 12 24  1  1
 13 25  1  0
 13 26  1  0
 14 27  1  0
 14 28  1  0
M  END
$$$$

     RDKit          3D

 28 30  0  0  0  0  0  0  0  0999 V2000
    3.3702   -0.2963   -0.1535 C   0  0  0  0  0  0  0  0  0  0  0  0
    2.6262    0.9041   -0.1078 N   0  0  0  0  0  0  0  0  0  0  0  0
    3.1840    2.1113   -0.0258 N   0  0  0  0  0  0  0  0  0  0  0  0
    2.2575    3.0241    0.0009 N   0  0  0  0  0  0  0  0  0  0  0  0
    1.1169    2.4005   -0.0638 N   0  0  0  0  0  0  0  0  0  0  0  0
    1.2785    1.0553   -0.1347 C   0  0  0  0  0  0  0  0  0  0  0  0
    0.2847    0.0587   -0.2172 N   0  0  0  0  0  0  0  0  0  0  0  0
    0.4393   -1.3626   -0.3046 C   0  0  0  0  0  0  0  0  0  0  0  0
   -0.9503   -1.9432   -0.0808 C   0  0  2  0  0  0  0  0  0  0  0  0
   -1.8133   -1.8893   -1.3198 C   0  0  0  0  0  0  0  0  0  0  0  0
   -1.9241   -0.8629   -0.2809 C   0  0  2  0  0  0  0  0  0  0  0  0
   -1.1338    0.3761   -0.2216 C   0  0  1  0  0  0  0  0  0  0  0  0
   -1.4192    1.0523    1.1267 C   0  0  0  0  0  0  0  0  0  0  0  0
   -2.8247    1.4093    1.2175 N   0  0  0  0  0  0  0  0  0  0  0  0
    2.9733   -1.1051   -0.7781 H   0  0  0  0  0  0  0  0  0  0  0  0
    3.5694   -0.7100    0.8787 H   0  0  0  0  0  0  0  0  0  0  0  0
    4.3798   -0.0801   -0.5633 H   0  0  0  0  0  0  0  0  0  0  0  0
    0.7344   -1.7287   -1.3099 H   0  0  0  0  0  0  0  0  0  0  0  0
    1.0668   -1.7683    0.5136 H   0  0  0  0  0  0  0  0  0  0  0  0
   -1.0816   -2.7625    0.6424 H   0  0  0  0  0  0  0  0  0  0  0  0
   -1.3321   -1.6987   -2.3017 H   0  0  0  0  0  0  0  0  0  0  0  0
   -2.5960   -2.6574   -1.3675 H   0  0  0  0  0  0  0  0  0  0  0  0
   -2.8835   -0.8505    0.3108 H   0  0  0  0  0  0  0  0  0  0  0  0
   -1.3648    1.1063   -1.0341 H   0  0  0  0  0  0  0  0  0  0  0  0
   -0.7837    1.9304    1.2792 H   0  0  0  0  0  0  0  0  0  0  0  0
   -1.2001    0.3337    1.9407 H   0  0  0  0  0  0  0  0  0  0  0  0
   -3.0557    1.9103    0.3150 H   0  0  0  0  0  0  0  0  0  0  0  0
   -2.9179    2.0434    2.0396 H   0  0  0  0  0  0  0  0  0  0  0  0
  1  2  1  0
  2  3  1  0
  3  4  2  0
  4  5  1  0
  5  6  2  0
  6  7  1  0
  7  8  1  0
  8  9  1  0
  9 10  1  0
 10 11  1  0
 11 12  1  0
 12 13  1  0
 13 14  1  0
  6  2  1  0
 12  7  1  0
 11  9  1  0
  1 15  1  0
  1 16  1  0
  1 17  1  0
  8 18  1  0
  8 19  1  0
  9 20  1  1
 10 21  1  0
 10 22  1  0
 11 23  1  1
 12 24  1  6
 13 25  1  0
 13 26  1  0
 14 27  1  0
 14 28  1  0
M  END
$$$$

     RDKit          3D

 28 30  0  0  0  0  0  0  0  0999 V2000
    2.5221    0.0132    0.9192 C   0  0  0  0  0  0  0  0  0  0  0  0
    2.3175    0.3982   -0.4605 N   0  0  0  0  0  0  0  0  0  0  0  0
    3.2826    0.9817   -1.1847 N   0  0  0  0  0  0  0  0  0  0  0  0
    2.8059    1.2131   -2.3975 N   0  0  0  0  0  0  0  0  0  0  0  0
    1.5376    0.7693   -2.4218 N   0  0  0  0  0  0  0  0  0  0  0  0
    1.2230    0.2609   -1.2241 C   0  0  0  0  0  0  0  0  0  0  0  0
   -0.0135   -0.2968   -0.8647 N   0  0  0  0  0  0  0  0  0  0  0  0
   -0.3596   -1.7255   -0.9812 C   0  0  0  0  0  0  0  0  0  0  0  0
   -0.9443   -1.9810    0.3819 C   0  0  2  0  0  0  0  0  0  0  0  0
   -2.3545   -1.7443    0.6938 C   0  0  0  0  0  0  0  0  0  0  0  0
   -1.4541   -0.5901    0.8774 C   0  0  2  0  0  0  0  0  0  0  0  0
   -1.2178    0.2810   -0.3242 C   0  0  1  0  0  0  0  0  0  0  0  0
   -1.1632    1.7265   -0.0577 C   0  0  0  0  0  0  0  0  0  0  0  0
   -0.1803    2.1677    0.8663 N   0  0  0  0  0  0  0  0  0  0  0  0
    1.5321    0.0345    1.4457 H   0  0  0  0  0  0  0  0  0  0  0  0
    2.9484   -1.0075    1.0210 H   0  0  0  0  0  0  0  0  0  0  0  0
    3.1464    0.7874    1.4077 H   0  0  0  0  0  0  0  0  0  0  0  0
   -1.1069   -1.7872   -1.7876 H   0  0  0  0  0  0  0  0  0  0  0  0
    0.5492   -2.3081   -1.1576 H   0  0  0  0  0  0  0  0  0  0  0  0
   -0.3148   -2.5523    1.0613 H   0  0  0  0  0  0  0  0  0  0  0  0
   -3.0720   -1.6940   -0.1430 H   0  0  0  0  0  0  0  0  0  0  0  0
   -2.7442   -2.2778    1.6036 H   0  0  0  0  0  0  0  0  0  0  0  0
   -1.0258   -0.3025    1.8482 H   0  0  0  0  0  0  0  0  0  0  0  0
   -2.0214    0.1000   -1.0879 H   0  0  0  0  0  0  0  0  0  0  0  0
   -1.0817    2.2751   -1.0153 H   0  0  0  0  0  0  0  0  0  0  0  0
   -2.1688    2.0295    0.3579 H   0  0  0  0  0  0  0  0  0  0  0  0
   -0.0982    3.2210    0.7699 H   0  0  0  0  0  0  0  0  0  0  0  0
   -0.5435    2.0078    1.8539 H   0  0  0  0  0  0  0  0  0  0  0  0
  1  2  1  0
  2  3  1  0
  3  4  2  0
  4  5  1  0
  5  6  2  0
  6  7  1  0
  7  8  1  0
  8  9  1  0
  9 10  1  0
 10 11  1  0
 11 12  1  0
 12 13  1  0
 13 14  1  0
  6  2  1  0
 12  7  1  0
 11  9  1  0
  1 15  1  0
  1 16  1  0
  1 17  1  0
  8 18  1  0
  8 19  1  0
  9 20  1  1
 10 21  1  0
 10 22  1  0
 11 23  1  1
 12 24  1  6
 13 25  1  0
 13 26  1  0
 14 27  1  0
 14 28  1  0
M  END
$$$$

     RDKit          3D

 28 30  0  0  0  0  0  0  0  0999 V2000
    2.9972   -0.2441    1.1723 C   0  0  0  0  0  0  0  0  0  0  0  0
    2.6806    0.2956   -0.1256 N   0  0  0  0  0  0  0  0  0  0  0  0
    3.5427    0.8863   -0.9311 N   0  0  0  0  0  0  0  0  0  0  0  0
    2.9458    1.2651   -2.0300 N   0  0  0  0  0  0  0  0  0  0  0  0
    1.6989    0.9118   -1.9189 N   0  0  0  0  0  0  0  0  0  0  0  0
    1.4705    0.2886   -0.7241 C   0  0  0  0  0  0  0  0  0  0  0  0
    0.2457   -0.2355   -0.2460 N   0  0  0  0  0  0  0  0  0  0  0  0
    0.0459   -0.8961    1.0151 C   0  0  0  0  0  0  0  0  0  0  0  0
   -1.4700   -0.9025    1.2274 C   0  0  2  0  0  0  0  0  0  0  0  0
   -2.1670   -1.9887    0.4762 C   0  0  0  0  0  0  0  0  0  0  0  0
   -2.0897   -0.6154   -0.0595 C   0  0  2  0  0  0  0  0  0  0  0  0
   -0.9936   -0.1711   -0.9832 C   0  0  1  0  0  0  0  0  0  0  0  0
   -1.2950    1.2816   -1.3499 C   0  0  0  0  0  0  0  0  0  0  0  0
   -1.4005    2.0197   -0.1246 N   0  0  0  0  0  0  0  0  0  0  0  0
    4.1197   -0.3236    1.2713 H   0  0  0  0  0  0  0  0  0  0  0  0
    2.7069    0.4699    1.9774 H   0  0  0  0  0  0  0  0  0  0  0  0
    2.6345   -1.2701    1.3399 H   0  0  0  0  0  0  0  0  0  0  0  0
    0.3863   -1.9600    0.9079 H   0  0  0  0  0  0  0  0  0  0  0  0
    0.4701   -0.3843    1.8778 H   0  0  0  0  0  0  0  0  0  0  0  0
   -1.8885   -0.4451    2.1244 H   0  0  0  0  0  0  0  0  0  0  0  0
   -1.5577   -2.8146    0.0355 H   0  0  0  0  0  0  0  0  0  0  0  0
   -3.1099   -2.3334    0.8977 H   0  0  0  0  0  0  0  0  0  0  0  0
   -3.0701   -0.0825   -0.1540 H   0  0  0  0  0  0  0  0  0  0  0  0
   -0.9428   -0.7992   -1.9039 H   0  0  0  0  0  0  0  0  0  0  0  0
   -0.5335    1.7119   -2.0247 H   0  0  0  0  0  0  0  0  0  0  0  0
   -2.3068    1.2701   -1.8442 H   0  0  0  0  0  0  0  0  0  0  0  0
   -2.3813    2.2642    0.1378 H   0  0  0  0  0  0  0  0  0  0  0  0
   -0.7382    2.8014   -0.0411 H   0  0  0  0  0  0  0  0  0  0  0  0
  1  2  1  0
  2  3  1  0
  3  4  2  0
  4  5  1  0
  5  6  2  0
  6  7  1  0
  7  8  1  0
  8  9  1  0
  9 10  1  0
 10 11  1  0
 11 12  1  0
 12 13  1  0
 13 14  1  0
  6  2  1  0
 12  7  1  0
 11  9  1  0
  1 15  1  0
  1 16  1  0
  1 17  1  0
  8 18  1  0
  8 19  1  0
  9 20  1  1
 10 21  1  0
 10 22  1  0
 11 23  1  1
 12 24  1  6
 13 25  1  0
 13 26  1  0
 14 27  1  0
 14 28  1  0
M  END
$$$$
