
     RDKit          3D

 20 20  0  0  0  0  0  0  0  0999 V2000
   -2.3069    0.9059   -0.4761 N   0  0  0  0  0  0  0  0  0  0  0  0
   -1.3253    0.3098    0.3882 C   0  0  2  0  0  0  0  0  0  0  0  0
    0.0349    0.8913   -0.0066 C   0  0  0  0  0  0  0  0  0  0  0  0
    0.9828   -0.2213    0.1176 C   0  0  0  0  0  0  0  0  0  0  0  0
    2.4797   -0.0101    0.1324 C   0  0  0  0  0  0  0  0  0  0  0  0
    2.8290    0.6062   -1.0895 O   0  0  0  0  0  0  0  0  0  0  0  0
    0.3294   -1.3672    0.2082 C   0  0  0  0  0  0  0  0  0  0  0  0
   -1.1212   -1.1567    0.1557 C   0  0  2  0  0  0  0  0  0  0  0  0
   -1.7330   -1.6406   -0.9734 O   0  0  0  0  0  0  0  0  0  0  0  0
   -3.2807    0.7679   -0.1948 H   0  0  0  0  0  0  0  0  0  0  0  0
   -2.0373    1.9071   -0.6066 H   0  0  0  0  0  0  0  0  0  0  0  0
   -1.5255    0.5801    1.4249 H   0  0  0  0  0  0  0  0  0  0  0  0
    0.0307    1.2755   -1.0435 H   0  0  0  0  0  0  0  0  0  0  0  0
    0.2982    1.7632    0.6552 H   0  0  0  0  0  0  0  0  0  0  0  0
    2.7542    0.7198    0.9223 H   0  0  0  0  0  0  0  0  0  0  0  0
    3.0232   -0.9521    0.2335 H   0  0  0  0  0  0  0  0  0  0  0  0
    3.8252    0.7394   -1.0451 H   0  0  0  0  0  0  0  0  0  0  0  0
    0.8163   -2.3286    0.3079 H   0  0  0  0  0  0  0  0  0  0  0  0
   -1.5796   -1.6887    1.0376 H   0  0  0  0  0  0  0  0  0  0  0  0
   -2.4941   -1.1008   -1.2917 H   0  0  0  0  0  0  0  0  0  0  0  0
  1  2  1  0
  2  3  1  0
  3  4  1  0
  4  5  1  0
  5  6  1  0
  4  7  2  0
  7  8  1  0
  8  9  1  0
  8  2  1  0
  1 10  1  0
  1 11  1  0
  2 12  1  1
  3 13  1  0
  3 14  1  0
  5 15  1  0
  5 16  1  0
  6 17  1  0
  7 18  1  0
  8 19  1  1
  9 20  1  0
M  END
$$$$

     RDKit          3D

 20 20  0  0  0  0  0  0  0  0999 V2000
   -2.6060    0.4687    0.3866 N   0  0  0  0  0  0  0  0  0  0  0  0
   -1.3020    0.0155    0.7447 C   0  0  2  0  0  0  0  0  0  0  0  0
   -0.1879    0.8976    0.2411 C   0  0  0  0  0  0  0  0  0  0  0  0
    0.9818   -0.0192    0.3043 C   0  0  0  0  0  0  0  0  0  0  0  0
    2.4299    0.3857    0.4352 C   0  0  0  0  0  0  0  0  0  0  0  0
    2.7742    1.1791   -0.6550 O   0  0  0  0  0  0  0  0  0  0  0  0
    0.5556   -1.2647    0.2271 C   0  0  0  0  0  0  0  0  0  0  0  0
   -0.9302   -1.3106    0.1057 C   0  0  2  0  0  0  0  0  0  0  0  0
   -1.2810   -1.2880   -1.2278 O   0  0  0  0  0  0  0  0  0  0  0  0
   -2.6902    1.5040    0.2833 H   0  0  0  0  0  0  0  0  0  0  0  0
   -2.9549   -0.0253   -0.4613 H   0  0  0  0  0  0  0  0  0  0  0  0
   -1.1500   -0.1068    1.8347 H   0  0  0  0  0  0  0  0  0  0  0  0
   -0.0450    1.8125    0.8366 H   0  0  0  0  0  0  0  0  0  0  0  0
   -0.3692    1.1418   -0.8276 H   0  0  0  0  0  0  0  0  0  0  0  0
    3.0697   -0.5030    0.4341 H   0  0  0  0  0  0  0  0  0  0  0  0
    2.5112    0.9316    1.4046 H   0  0  0  0  0  0  0  0  0  0  0  0
    2.1209    1.1422   -1.3900 H   0  0  0  0  0  0  0  0  0  0  0  0
    1.1898   -2.1469    0.2481 H   0  0  0  0  0  0  0  0  0  0  0  0
   -1.3738   -2.1736    0.6076 H   0  0  0  0  0  0  0  0  0  0  0  0
   -0.7431   -0.6407   -1.7495 H   0  0  0  0  0  0  0  0  0  0  0  0
  1  2  1  0
  2  3  1  0
  3  4  1  0
  4  5  1  0
  5  6  1  0
  4  7  2  0
  7  8  1  0
  8  9  1  0
  8  2  1  0
  1 10  1  0
  1 11  1  0
  2 12  1  1
  3 13  1  0
  3 14  1  0
  5 15  1  0
  5 16  1  0
  6 17  1  0
  7 18  1  0
  8 19  1  1
  9 20  1  0
M  END
$$$$

     RDKit          3D

 20 20  0  0  0  0  0  0  0  0999 V2000
   -1.8853   -1.7396    0.5180 N   0  0  0  0  0  0  0  0  0  0  0  0
   -1.1216   -0.7704   -0.2135 C   0  0  2  0  0  0  0  0  0  0  0  0
    0.3633   -0.8498    0.0813 C   0  0  0  0  0  0  0  0  0  0  0  0
    0.8099    0.5045   -0.3724 C   0  0  0  0  0  0  0  0  0  0  0  0
    2.1837    0.7792   -0.8747 C   0  0  0  0  0  0  0  0  0  0  0  0
    3.0968    0.4775    0.1187 O   0  0  0  0  0  0  0  0  0  0  0  0
   -0.2020    1.3525   -0.2435 C   0  0  0  0  0  0  0  0  0  0  0  0
   -1.3951    0.6516    0.2988 C   0  0  2  0  0  0  0  0  0  0  0  0
   -1.2708    0.6332    1.6879 O   0  0  0  0  0  0  0  0  0  0  0  0
   -1.7217   -2.6635    0.1007 H   0  0  0  0  0  0  0  0  0  0  0  0
   -2.8828   -1.5064    0.4383 H   0  0  0  0  0  0  0  0  0  0  0  0
   -1.2981   -0.7797   -1.3022 H   0  0  0  0  0  0  0  0  0  0  0  0
    0.8617   -1.6617   -0.4581 H   0  0  0  0  0  0  0  0  0  0  0  0
    0.4494   -0.9479    1.1919 H   0  0  0  0  0  0  0  0  0  0  0  0
    2.3199    1.8035   -1.2182 H   0  0  0  0  0  0  0  0  0  0  0  0
    2.3916    0.0961   -1.7425 H   0  0  0  0  0  0  0  0  0  0  0  0
    2.8473   -0.3722    0.5600 H   0  0  0  0  0  0  0  0  0  0  0  0
   -0.1692    2.4002   -0.4945 H   0  0  0  0  0  0  0  0  0  0  0  0
   -2.3446    1.0444   -0.0506 H   0  0  0  0  0  0  0  0  0  0  0  0
   -1.0326    1.5486    1.9746 H   0  0  0  0  0  0  0  0  0  0  0  0
  1  2  1  0
  2  3  1  0
  3  4  1  0
  4  5  1  0
  5  6  1  0
  4  7  2  0
  7  8  1  0
  8  9  1  0
  8  2  1  0
  1 10  1  0
  1 11  1  0
  2 12  1  6
  3 13  1  0
  3 14  1  0
  5 15  1  0
  5 16  1  0
  6 17  1  0
  7 18  1  0
  8 19  1  1
  9 20  1  0
M  END
$$$$

     RDKit          3D

 20 20  0  0  0  0  0  0  0  0999 V2000
   -2.3780    0.8392   -0.7789 N   0  0  0  0  0  0  0  0  0  0  0  0
   -1.1541    0.8295    0.0114 C   0  0  2  0  0  0  0  0  0  0  0  0
    0.0441    0.6360   -0.8759 C   0  0  0  0  0  0  0  0  0  0  0  0
    0.9732   -0.2075   -0.0885 C   0  0  0  0  0  0  0  0  0  0  0  0
    2.4318   -0.4152   -0.3729 C   0  0  0  0  0  0  0  0  0  0  0  0
    3.1041    0.7964   -0.3301 O   0  0  0  0  0  0  0  0  0  0  0  0
    0.3350   -0.7671    0.9213 C   0  0  0  0  0  0  0  0  0  0  0  0
   -1.1040   -0.3713    0.9417 C   0  0  2  0  0  0  0  0  0  0  0  0
   -1.8519   -1.3985    0.4022 O   0  0  0  0  0  0  0  0  0  0  0  0
   -3.1653    1.0702   -0.1561 H   0  0  0  0  0  0  0  0  0  0  0  0
   -2.4953   -0.1072   -1.2083 H   0  0  0  0  0  0  0  0  0  0  0  0
   -1.0399    1.7718    0.5592 H   0  0  0  0  0  0  0  0  0  0  0  0
   -0.2130    0.1911   -1.8454 H   0  0  0  0  0  0  0  0  0  0  0  0
    0.5826    1.6109   -1.0582 H   0  0  0  0  0  0  0  0  0  0  0  0
    2.4698   -0.7515   -1.4471 H   0  0  0  0  0  0  0  0  0  0  0  0
    2.8596   -1.1867    0.2902 H   0  0  0  0  0  0  0  0  0  0  0  0
    2.9318    1.2323    0.5599 H   0  0  0  0  0  0  0  0  0  0  0  0
    0.7730   -1.4255    1.6476 H   0  0  0  0  0  0  0  0  0  0  0  0
   -1.4126   -0.0878    1.9704 H   0  0  0  0  0  0  0  0  0  0  0  0
   -1.6910   -2.2590    0.8573 H   0  0  0  0  0  0  0  0  0  0  0  0
  1  2  1  0
  2  3  1  0
  3  4  1  0
  4  5  1  0
  5  6  1  0
  4  7  2  0
  7  8  1  0
  8  9  1  0
  8  2  1  0
  1 10  1  0
  1 11  1  0
  2 12  1  1
  3 13  1  0
  3 14  1  0
  5 15  1  0
  5 16  1  0
  6 17  1  0
  7 18  1  0
  8 19  1  1
  9 20  1  0
M  END
$$$$

     RDKit          3D

 20 20  0  0  0  0  0  0  0  0999 V2000
   -1.9070    1.6172   -0.7834 N   0  0  0  0  0  0  0  0  0  0  0  0
   -0.7804    1.0493   -0.0822 C   0  0  2  0  0  0  0  0  0  0  0  0
    0.0574    0.1489   -0.9609 C   0  0  0  0  0  0  0  0  0  0  0  0
    0.7909   -0.6408    0.0641 C   0  0  0  0  0  0  0  0  0  0  0  0
    2.1473   -1.2128   -0.1784 C   0  0  0  0  0  0  0  0  0  0  0  0
    3.0871   -0.2206   -0.4698 O   0  0  0  0  0  0  0  0  0  0  0  0
    0.0339   -0.7162    1.1491 C   0  0  0  0  0  0  0  0  0  0  0  0
   -1.2464    0.0037    0.9470 C   0  0  2  0  0  0  0  0  0  0  0  0
   -2.1797   -0.7880    0.2536 O   0  0  0  0  0  0  0  0  0  0  0  0
   -2.4201    2.2151   -0.1095 H   0  0  0  0  0  0  0  0  0  0  0  0
   -1.5304    2.1690   -1.5752 H   0  0  0  0  0  0  0  0  0  0  0  0
   -0.1282    1.7708    0.3974 H   0  0  0  0  0  0  0  0  0  0  0  0
    0.7243    0.7091   -1.6381 H   0  0  0  0  0  0  0  0  0  0  0  0
   -0.6046   -0.5537   -1.4972 H   0  0  0  0  0  0  0  0  0  0  0  0
    2.4976   -1.8149    0.6723 H   0  0  0  0  0  0  0  0  0  0  0  0
    2.0887   -1.8838   -1.0573 H   0  0  0  0  0  0  0  0  0  0  0  0
    3.0508    0.5073    0.1866 H   0  0  0  0  0  0  0  0  0  0  0  0
    0.3143   -1.2300    2.0496 H   0  0  0  0  0  0  0  0  0  0  0  0
   -1.6525    0.4639    1.8431 H   0  0  0  0  0  0  0  0  0  0  0  0
   -2.3428   -1.5936    0.7893 H   0  0  0  0  0  0  0  0  0  0  0  0
  1  2  1  0
  2  3  1  0
  3  4  1  0
  4  5  1  0
  5  6  1  0
  4  7  2  0
  7  8  1  0
  8  9  1  0
  8  2  1  0
  1 10  1  0
  1 11  1  0
  2 12  1  1
  3 13  1  0
  3 14  1  0
  5 15  1  0
  5 16  1  0
  6 17  1  0
  7 18  1  0
  8 19  1  1
  9 20  1  0
M  END
$$$$

     RDKit          3D

 20 20  0  0  0  0  0  0  0  0999 V2000
   -2.0738   -1.2626    1.1558 N   0  0  0  0  0  0  0  0  0  0  0  0
   -0.9110   -0.9830    0.4019 C   0  0  2  0  0  0  0  0  0  0  0  0
    0.0985   -0.1108    1.1098 C   0  0  0  0  0  0  0  0  0  0  0  0
    0.9740    0.2805   -0.0250 C   0  0  0  0  0  0  0  0  0  0  0  0
    2.4290    0.5845    0.1505 C   0  0  0  0  0  0  0  0  0  0  0  0
    3.0541    0.9247   -1.0214 O   0  0  0  0  0  0  0  0  0  0  0  0
    0.2383    0.2970   -1.1259 C   0  0  0  0  0  0  0  0  0  0  0  0
   -1.1775   -0.0815   -0.8091 C   0  0  2  0  0  0  0  0  0  0  0  0
   -1.8309    1.0443   -0.3582 O   0  0  0  0  0  0  0  0  0  0  0  0
   -2.8203   -0.5619    1.1433 H   0  0  0  0  0  0  0  0  0  0  0  0
   -2.3830   -2.2404    1.0843 H   0  0  0  0  0  0  0  0  0  0  0  0
   -0.4722   -1.9084   -0.0079 H   0  0  0  0  0  0  0  0  0  0  0  0
   -0.4364    0.7855    1.4608 H   0  0  0  0  0  0  0  0  0  0  0  0
    0.6395   -0.6437    1.9078 H   0  0  0  0  0  0  0  0  0  0  0  0
    2.9764   -0.2910    0.5788 H   0  0  0  0  0  0  0  0  0  0  0  0
    2.5556    1.4034    0.8892 H   0  0  0  0  0  0  0  0  0  0  0  0
    2.4765    1.2447   -1.7378 H   0  0  0  0  0  0  0  0  0  0  0  0
    0.5968    0.5452   -2.1109 H   0  0  0  0  0  0  0  0  0  0  0  0
   -1.6743   -0.6053   -1.6212 H   0  0  0  0  0  0  0  0  0  0  0  0
   -2.2592    1.5789   -1.0648 H   0  0  0  0  0  0  0  0  0  0  0  0
  1  2  1  0
  2  3  1  0
  3  4  1  0
  4  5  1  0
  5  6  1  0
  4  7  2  0
  7  8  1  0
  8  9  1  0
  8  2  1  0
  1 10  1  0
  1 11  1  0
  2 12  1  6
  3 13  1  0
  3 14  1  0
  5 15  1  0
  5 16  1  0
  6 17  1  0
  7 18  1  0
  8 19  1  6
  9 20  1  0
M  END
$$$$

     RDKit          3D

 20 20  0  0  0  0  0  0  0  0999 V2000
   -2.2141    1.0973   -0.9043 N   0  0  0  0  0  0  0  0  0  0  0  0
   -1.1846    0.6267   -0.0139 C   0  0  2  0  0  0  0  0  0  0  0  0
    0.1840    0.6030   -0.7110 C   0  0  0  0  0  0  0  0  0  0  0  0
    0.9039   -0.2973    0.2401 C   0  0  0  0  0  0  0  0  0  0  0  0
    2.3655   -0.2459    0.4898 C   0  0  0  0  0  0  0  0  0  0  0  0
    2.7812    0.9922    0.9803 O   0  0  0  0  0  0  0  0  0  0  0  0
    0.0506   -1.1320    0.8143 C   0  0  0  0  0  0  0  0  0  0  0  0
   -1.3122   -0.8509    0.2867 C   0  0  2  0  0  0  0  0  0  0  0  0
   -1.4487   -1.5386   -0.9056 O   0  0  0  0  0  0  0  0  0  0  0  0
   -2.1860    2.1400   -0.8700 H   0  0  0  0  0  0  0  0  0  0  0  0
   -3.1315    0.7921   -0.4845 H   0  0  0  0  0  0  0  0  0  0  0  0
   -1.1360    1.1781    0.9376 H   0  0  0  0  0  0  0  0  0  0  0  0
    0.6247    1.5932   -0.7838 H   0  0  0  0  0  0  0  0  0  0  0  0
    0.0325    0.0899   -1.6691 H   0  0  0  0  0  0  0  0  0  0  0  0
    2.9230   -0.4893   -0.4278 H   0  0  0  0  0  0  0  0  0  0  0  0
    2.6548   -0.9950    1.2561 H   0  0  0  0  0  0  0  0  0  0  0  0
    2.6881    1.6366    0.2141 H   0  0  0  0  0  0  0  0  0  0  0  0
    0.2625   -1.8996    1.5442 H   0  0  0  0  0  0  0  0  0  0  0  0
   -2.1091   -1.0695    1.0118 H   0  0  0  0  0  0  0  0  0  0  0  0
   -0.7484   -2.2312   -1.0049 H   0  0  0  0  0  0  0  0  0  0  0  0
  1  2  1  0
  2  3  1  0
  3  4  1  0
  4  5  1  0
  5  6  1  0
  4  7  2  0
  7  8  1  0
  8  9  1  0
  8  2  1  0
  1 10  1  0
  1 11  1  0
  2 12  1  1
  3 13  1  0
  3 14  1  0
  5 15  1  0
  5 16  1  0
  6 17  1  0
  7 18  1  0
  8 19  1  1
  9 20  1  0
M  END
$$$$

     RDKit          3D

 20 20  0  0  0  0  0  0  0  0999 V2000
   -2.2647   -1.2433    0.2927 N   0  0  0  0  0  0  0  0  0  0  0  0
   -1.1452   -0.6258   -0.3450 C   0  0  2  0  0  0  0  0  0  0  0  0
    0.0934   -0.7676    0.5470 C   0  0  0  0  0  0  0  0  0  0  0  0
    0.9281    0.3506    0.0249 C   0  0  0  0  0  0  0  0  0  0  0  0
    2.4178    0.4110    0.1054 C   0  0  0  0  0  0  0  0  0  0  0  0
    2.9748   -0.6898   -0.5776 O   0  0  0  0  0  0  0  0  0  0  0  0
    0.1698    1.2859   -0.5214 C   0  0  0  0  0  0  0  0  0  0  0  0
   -1.2599    0.8801   -0.4166 C   0  0  2  0  0  0  0  0  0  0  0  0
   -1.8339    1.3781    0.7652 O   0  0  0  0  0  0  0  0  0  0  0  0
   -3.0134   -1.5217   -0.3802 H   0  0  0  0  0  0  0  0  0  0  0  0
   -1.9094   -2.1074    0.7830 H   0  0  0  0  0  0  0  0  0  0  0  0
   -0.9176   -1.0247   -1.3450 H   0  0  0  0  0  0  0  0  0  0  0  0
   -0.1648   -0.5518    1.5887 H   0  0  0  0  0  0  0  0  0  0  0  0
    0.5154   -1.7572    0.3582 H   0  0  0  0  0  0  0  0  0  0  0  0
    2.7448    0.3800    1.1734 H   0  0  0  0  0  0  0  0  0  0  0  0
    2.8050    1.3079   -0.4179 H   0  0  0  0  0  0  0  0  0  0  0  0
    3.0203   -1.4817    0.0259 H   0  0  0  0  0  0  0  0  0  0  0  0
    0.5391    2.2092   -0.9767 H   0  0  0  0  0  0  0  0  0  0  0  0
   -1.8542    1.2131   -1.3012 H   0  0  0  0  0  0  0  0  0  0  0  0
   -1.8456    2.3551    0.6857 H   0  0  0  0  0  0  0  0  0  0  0  0
  1  2  1  0
  2  3  1  0
  3  4  1  0
  4  5  1  0
  5  6  1  0
  4  7  2  0
  7  8  1  0
  8  9  1  0
  8  2  1  0
  1 10  1  0
  1 11  1  0
  2 12  1  6
  3 13  1  0
  3 14  1  0
  5 15  1  0
  5 16  1  0
  6 17  1  0
  7 18  1  0
  8 19  1  6
  9 20  1  0
M  END
$$$$
