
     RDKit          3D

 19 19  0  0  0  0  0  0  0  0999 V2000
    2.5993   -0.5189    0.1562 N   0  0  0  0  0  0  0  0  0  0  0  0
    1.4556   -0.0297   -0.4977 C   0  0  0  0  0  0  0  0  0  0  0  0
    1.5955    0.4977   -1.6311 O   0  0  0  0  0  0  0  0  0  0  0  0
    0.1128   -0.1035    0.0738 C   0  0  2  0  0  0  0  0  0  0  0  0
    0.0492   -0.7167    1.3606 N   0  0  0  0  0  0  0  0  0  0  0  0
   -0.7949   -0.9016   -0.8632 C   0  0  0  0  0  0  0  0  0  0  0  0
   -2.0394   -0.5931   -0.3558 O   0  0  0  0  0  0  0  0  0  0  0  0
   -2.0645    0.7302   -0.0113 C   0  0  0  0  0  0  0  0  0  0  0  0
   -0.6283    1.2225    0.0264 C   0  0  0  0  0  0  0  0  0  0  0  0
   -0.3807    1.8300   -1.1815 F   0  0  0  0  0  0  0  0  0  0  0  0
   -0.3638    2.0104    1.1060 F   0  0  0  0  0  0  0  0  0  0  0  0
    2.5256   -1.3059    0.8210 H   0  0  0  0  0  0  0  0  0  0  0  0
    3.5230   -0.0948   -0.0231 H   0  0  0  0  0  0  0  0  0  0  0  0
    0.4122   -0.1164    2.1229 H   0  0  0  0  0  0  0  0  0  0  0  0
    0.4645   -1.6530    1.3173 H   0  0  0  0  0  0  0  0  0  0  0  0
   -0.6860   -0.4326   -1.8643 H   0  0  0  0  0  0  0  0  0  0  0  0
   -0.5881   -1.9656   -0.8456 H   0  0  0  0  0  0  0  0  0  0  0  0
   -2.5014    0.8337    1.0100 H   0  0  0  0  0  0  0  0  0  0  0  0
   -2.6907    1.3074   -0.7209 H   0  0  0  0  0  0  0  0  0  0  0  0
  1  2  1  0
  2  3  2  0
  2  4  1  0
  4  5  1  1
  4  6  1  0
  6  7  1  0
  7  8  1  0
  8  9  1  0
  9 10  1  0
  9 11  1  0
  9  4  1  0
  1 12  1  0
  1 13  1  0
  5 14  1  0
  5 15  1  0
  6 16  1  0
  6 17  1  0
  8 18  1  0
  8 19  1  0
M  END
$$$$

     RDKit          3D

 19 19  0  0  0  0  0  0  0  0999 V2000
    2.2528   -0.9775    0.2457 N   0  0  0  0  0  0  0  0  0  0  0  0
    1.5180   -0.0528   -0.5205 C   0  0  0  0  0  0  0  0  0  0  0  0
    2.1123    0.4971   -1.4899 O   0  0  0  0  0  0  0  0  0  0  0  0
    0.1400    0.2917   -0.2556 C   0  0  2  0  0  0  0  0  0  0  0  0
   -0.3755    1.2564   -1.1801 N   0  0  0  0  0  0  0  0  0  0  0  0
   -0.1388    0.7794    1.1465 C   0  0  0  0  0  0  0  0  0  0  0  0
   -1.5014    0.6503    1.3230 O   0  0  0  0  0  0  0  0  0  0  0  0
   -1.9915   -0.2230    0.3906 C   0  0  0  0  0  0  0  0  0  0  0  0
   -0.7980   -0.9232   -0.2499 C   0  0  0  0  0  0  0  0  0  0  0  0
   -1.0551   -1.3884   -1.4901 F   0  0  0  0  0  0  0  0  0  0  0  0
   -0.3330   -1.8704    0.6348 F   0  0  0  0  0  0  0  0  0  0  0  0
    3.0258   -0.6547    0.8453 H   0  0  0  0  0  0  0  0  0  0  0  0
    2.0117   -1.9781    0.2021 H   0  0  0  0  0  0  0  0  0  0  0  0
   -0.2478    1.0077   -2.1803 H   0  0  0  0  0  0  0  0  0  0  0  0
    0.0237    2.1909   -0.9359 H   0  0  0  0  0  0  0  0  0  0  0  0
    0.2030    1.8281    1.2929 H   0  0  0  0  0  0  0  0  0  0  0  0
    0.3416    0.0989    1.9088 H   0  0  0  0  0  0  0  0  0  0  0  0
   -2.4464    0.3907   -0.4404 H   0  0  0  0  0  0  0  0  0  0  0  0
   -2.7414   -0.9230    0.7530 H   0  0  0  0  0  0  0  0  0  0  0  0
  1  2  1  0
  2  3  2  0
  2  4  1  0
  4  5  1  6
  4  6  1  0
  6  7  1  0
  7  8  1  0
  8  9  1  0
  9 10  1  0
  9 11  1  0
  9  4  1  0
  1 12  1  0
  1 13  1  0
  5 14  1  0
  5 15  1  0
  6 16  1  0
  6 17  1  0
  8 18  1  0
  8 19  1  0
M  END
$$$$

     RDKit          3D

 19 19  0  0  0  0  0  0  0  0999 V2000
    2.0833    0.5029   -0.7969 N   0  0  0  0  0  0  0  0  0  0  0  0
    1.2840    0.7965    0.3214 C   0  0  0  0  0  0  0  0  0  0  0  0
    1.7105    1.5994    1.1906 O   0  0  0  0  0  0  0  0  0  0  0  0
   -0.0420    0.2010    0.5229 C   0  0  2  0  0  0  0  0  0  0  0  0
   -0.6644    0.6491    1.7280 N   0  0  0  0  0  0  0  0  0  0  0  0
    0.1207   -1.3248    0.5035 C   0  0  0  0  0  0  0  0  0  0  0  0
   -0.0636   -1.5972   -0.8531 O   0  0  0  0  0  0  0  0  0  0  0  0
   -1.3087   -0.9620   -1.0576 C   0  0  0  0  0  0  0  0  0  0  0  0
   -0.9605    0.4580   -0.6791 C   0  0  0  0  0  0  0  0  0  0  0  0
   -0.2507    1.1076   -1.6567 F   0  0  0  0  0  0  0  0  0  0  0  0
   -2.0755    1.1499   -0.2883 F   0  0  0  0  0  0  0  0  0  0  0  0
    2.8978    1.0913   -1.0739 H   0  0  0  0  0  0  0  0  0  0  0  0
    1.8768   -0.3292   -1.3902 H   0  0  0  0  0  0  0  0  0  0  0  0
   -1.3842    1.3637    1.4695 H   0  0  0  0  0  0  0  0  0  0  0  0
    0.0217    1.0352    2.4184 H   0  0  0  0  0  0  0  0  0  0  0  0
   -0.7011   -1.7229    1.1187 H   0  0  0  0  0  0  0  0  0  0  0  0
    1.1153   -1.5847    0.8633 H   0  0  0  0  0  0  0  0  0  0  0  0
   -1.6815   -1.0732   -2.0692 H   0  0  0  0  0  0  0  0  0  0  0  0
   -1.9780   -1.3604   -0.2712 H   0  0  0  0  0  0  0  0  0  0  0  0
  1  2  1  0
  2  3  2  0
  2  4  1  0
  4  5  1  1
  4  6  1  0
  6  7  1  0
  7  8  1  0
  8  9  1  0
  9 10  1  0
  9 11  1  0
  9  4  1  0
  1 12  1  0
  1 13  1  0
  5 14  1  0
  5 15  1  0
  6 16  1  0
  6 17  1  0
  8 18  1  0
  8 19  1  0
M  END
$$$$

     RDKit          3D

 19 19  0  0  0  0  0  0  0  0999 V2000
   -2.5837    0.4671   -0.2438 N   0  0  0  0  0  0  0  0  0  0  0  0
   -1.2421    0.6640    0.1377 C   0  0  0  0  0  0  0  0  0  0  0  0
   -0.9549    1.7653    0.6785 O   0  0  0  0  0  0  0  0  0  0  0  0
   -0.1493   -0.2964   -0.0376 C   0  0  2  0  0  0  0  0  0  0  0  0
   -0.6399   -1.4887   -0.6627 N   0  0  0  0  0  0  0  0  0  0  0  0
    0.4718   -0.5460    1.3191 C   0  0  0  0  0  0  0  0  0  0  0  0
    1.3535    0.5038    1.4955 O   0  0  0  0  0  0  0  0  0  0  0  0
    1.8655    0.8621    0.2793 C   0  0  0  0  0  0  0  0  0  0  0  0
    1.0265    0.2458   -0.8000 C   0  0  0  0  0  0  0  0  0  0  0  0
    0.6952    1.0990   -1.8025 F   0  0  0  0  0  0  0  0  0  0  0  0
    1.7097   -0.8544   -1.3234 F   0  0  0  0  0  0  0  0  0  0  0  0
   -3.0167   -0.4612   -0.1431 H   0  0  0  0  0  0  0  0  0  0  0  0
   -3.1275    1.2536   -0.6225 H   0  0  0  0  0  0  0  0  0  0  0  0
   -0.1446   -2.3543   -0.3892 H   0  0  0  0  0  0  0  0  0  0  0  0
   -0.6952   -1.3491   -1.6844 H   0  0  0  0  0  0  0  0  0  0  0  0
    0.9557   -1.5389    1.3599 H   0  0  0  0  0  0  0  0  0  0  0  0
   -0.3198   -0.4757    2.0983 H   0  0  0  0  0  0  0  0  0  0  0  0
    2.9264    0.5348    0.2167 H   0  0  0  0  0  0  0  0  0  0  0  0
    1.8693    1.9693    0.1240 H   0  0  0  0  0  0  0  0  0  0  0  0
  1  2  1  0
  2  3  2  0
  2  4  1  0
  4  5  1  6
  4  6  1  0
  6  7  1  0
  7  8  1  0
  8  9  1  0
  9 10  1  0
  9 11  1  0
  9  4  1  0
  1 12  1  0
  1 13  1  0
  5 14  1  0
  5 15  1  0
  6 16  1  0
  6 17  1  0
  8 18  1  0
  8 19  1  0
M  END
$$$$

     RDKit          3D

 19 19  0  0  0  0  0  0  0  0999 V2000
    1.9348    0.9724   -0.7878 N   0  0  0  0  0  0  0  0  0  0  0  0
    1.5667   -0.1577   -0.0206 C   0  0  0  0  0  0  0  0  0  0  0  0
    2.4843   -0.9217    0.3772 O   0  0  0  0  0  0  0  0  0  0  0  0
    0.1867   -0.4983    0.3422 C   0  0  2  0  0  0  0  0  0  0  0  0
    0.1686   -1.6923    1.1144 N   0  0  0  0  0  0  0  0  0  0  0  0
   -0.5743   -0.6692   -0.9837 C   0  0  0  0  0  0  0  0  0  0  0  0
   -0.8820    0.6484   -1.2973 O   0  0  0  0  0  0  0  0  0  0  0  0
   -1.5254    1.0679   -0.1357 C   0  0  0  0  0  0  0  0  0  0  0  0
   -0.5740    0.6434    0.9566 C   0  0  0  0  0  0  0  0  0  0  0  0
   -1.2799    0.1589    2.0492 F   0  0  0  0  0  0  0  0  0  0  0  0
    0.2267    1.6610    1.4010 F   0  0  0  0  0  0  0  0  0  0  0  0
    2.7915    1.5159   -0.5721 H   0  0  0  0  0  0  0  0  0  0  0  0
    1.3493    1.2813   -1.5875 H   0  0  0  0  0  0  0  0  0  0  0  0
   -0.5571   -1.7235    1.8554 H   0  0  0  0  0  0  0  0  0  0  0  0
    0.2421   -2.5559    0.5568 H   0  0  0  0  0  0  0  0  0  0  0  0
    0.1100   -1.1058   -1.7623 H   0  0  0  0  0  0  0  0  0  0  0  0
   -1.4777   -1.2895   -0.8288 H   0  0  0  0  0  0  0  0  0  0  0  0
   -2.4931    0.4978   -0.0895 H   0  0  0  0  0  0  0  0  0  0  0  0
   -1.6972    2.1670   -0.1375 H   0  0  0  0  0  0  0  0  0  0  0  0
  1  2  1  0
  2  3  2  0
  2  4  1  0
  4  5  1  1
  4  6  1  0
  6  7  1  0
  7  8  1  0
  8  9  1  0
  9 10  1  0
  9 11  1  0
  9  4  1  0
  1 12  1  0
  1 13  1  0
  5 14  1  0
  5 15  1  0
  6 16  1  0
  6 17  1  0
  8 18  1  0
  8 19  1  0
M  END
$$$$

     RDKit          3D

 19 19  0  0  0  0  0  0  0  0999 V2000
    2.6912   -0.0878   -0.0338 N   0  0  0  0  0  0  0  0  0  0  0  0
    1.4298    0.5399    0.0461 C   0  0  0  0  0  0  0  0  0  0  0  0
    1.4348    1.7898    0.2432 O   0  0  0  0  0  0  0  0  0  0  0  0
    0.1339   -0.1632   -0.0842 C   0  0  2  0  0  0  0  0  0  0  0  0
    0.4095   -1.5590   -0.2999 N   0  0  0  0  0  0  0  0  0  0  0  0
   -0.7089    0.3741   -1.2092 C   0  0  0  0  0  0  0  0  0  0  0  0
   -2.0304    0.1893   -0.7809 O   0  0  0  0  0  0  0  0  0  0  0  0
   -2.0484    0.4629    0.5799 C   0  0  0  0  0  0  0  0  0  0  0  0
   -0.6953    0.1161    1.1235 C   0  0  0  0  0  0  0  0  0  0  0  0
   -0.1903    1.2433    1.7773 F   0  0  0  0  0  0  0  0  0  0  0  0
   -0.7007   -0.9796    1.9500 F   0  0  0  0  0  0  0  0  0  0  0  0
    2.8957   -0.9427    0.5043 H   0  0  0  0  0  0  0  0  0  0  0  0
    3.4216    0.3150   -0.6406 H   0  0  0  0  0  0  0  0  0  0  0  0
    0.5306   -1.6995   -1.3423 H   0  0  0  0  0  0  0  0  0  0  0  0
   -0.4019   -2.1393   -0.0193 H   0  0  0  0  0  0  0  0  0  0  0  0
   -0.5192    1.4213   -1.4546 H   0  0  0  0  0  0  0  0  0  0  0  0
   -0.5502   -0.2980   -2.0898 H   0  0  0  0  0  0  0  0  0  0  0  0
   -2.8398   -0.1397    1.0525 H   0  0  0  0  0  0  0  0  0  0  0  0
   -2.2621    1.5570    0.6778 H   0  0  0  0  0  0  0  0  0  0  0  0
  1  2  1  0
  2  3  2  0
  2  4  1  0
  4  5  1  6
  4  6  1  0
  6  7  1  0
  7  8  1  0
  8  9  1  0
  9 10  1  0
  9 11  1  0
  9  4  1  0
  1 12  1  0
  1 13  1  0
  5 14  1  0
  5 15  1  0
  6 16  1  0
  6 17  1  0
  8 18  1  0
  8 19  1  0
M  END
$$$$

     RDKit          3D

 19 19  0  0  0  0  0  0  0  0999 V2000
    2.3543   -0.0919   -0.5053 N   0  0  0  0  0  0  0  0  0  0  0  0
    1.4927    0.5367    0.4154 C   0  0  0  0  0  0  0  0  0  0  0  0
    1.9616    1.3438    1.2564 O   0  0  0  0  0  0  0  0  0  0  0  0
    0.0688    0.2528    0.3922 C   0  0  2  0  0  0  0  0  0  0  0  0
   -0.7102    0.9396    1.3635 N   0  0  0  0  0  0  0  0  0  0  0  0
   -0.2430   -1.2397    0.5426 C   0  0  0  0  0  0  0  0  0  0  0  0
   -1.5523   -1.3300    0.1474 O   0  0  0  0  0  0  0  0  0  0  0  0
   -1.8277   -0.3443   -0.7627 C   0  0  0  0  0  0  0  0  0  0  0  0
   -0.5517    0.4372   -1.0011 C   0  0  0  0  0  0  0  0  0  0  0  0
   -0.7572    1.7378   -1.3095 F   0  0  0  0  0  0  0  0  0  0  0  0
    0.2247   -0.2321   -1.9322 F   0  0  0  0  0  0  0  0  0  0  0  0
    2.5358    0.2404   -1.4760 H   0  0  0  0  0  0  0  0  0  0  0  0
    2.8509   -0.9557   -0.1973 H   0  0  0  0  0  0  0  0  0  0  0  0
   -0.5986    1.9541    1.4055 H   0  0  0  0  0  0  0  0  0  0  0  0
   -0.8061    0.4598    2.2706 H   0  0  0  0  0  0  0  0  0  0  0  0
    0.4473   -1.7693   -0.1735 H   0  0  0  0  0  0  0  0  0  0  0  0
   -0.0773   -1.5722    1.5795 H   0  0  0  0  0  0  0  0  0  0  0  0
   -2.2525   -0.7703   -1.6795 H   0  0  0  0  0  0  0  0  0  0  0  0
   -2.5593    0.4031   -0.3359 H   0  0  0  0  0  0  0  0  0  0  0  0
  1  2  1  0
  2  3  2  0
  2  4  1  0
  4  5  1  1
  4  6  1  0
  6  7  1  0
  7  8  1  0
  8  9  1  0
  9 10  1  0
  9 11  1  0
  9  4  1  0
  1 12  1  0
  1 13  1  0
  5 14  1  0
  5 15  1  0
  6 16  1  0
  6 17  1  0
  8 18  1  0
  8 19  1  0
M  END
$$$$

     RDKit          3D

 19 19  0  0  0  0  0  0  0  0999 V2000
    2.5611   -0.1342   -0.1582 N   0  0  0  0  0  0  0  0  0  0  0  0
    1.2968   -0.5256    0.3494 C   0  0  0  0  0  0  0  0  0  0  0  0
    1.2423   -1.4580    1.1768 O   0  0  0  0  0  0  0  0  0  0  0  0
    0.0890    0.1888   -0.1234 C   0  0  2  0  0  0  0  0  0  0  0  0
    0.4453    1.2191   -1.0759 N   0  0  0  0  0  0  0  0  0  0  0  0
   -0.6841    0.7921    1.0246 C   0  0  0  0  0  0  0  0  0  0  0  0
   -2.0223    0.6347    0.7613 O   0  0  0  0  0  0  0  0  0  0  0  0
   -2.1782   -0.5605    0.0696 C   0  0  0  0  0  0  0  0  0  0  0  0
   -0.9190   -0.7503   -0.7402 C   0  0  0  0  0  0  0  0  0  0  0  0
   -0.4800   -2.0569   -0.7210 F   0  0  0  0  0  0  0  0  0  0  0  0
   -1.1573   -0.4116   -2.0478 F   0  0  0  0  0  0  0  0  0  0  0  0
    3.3395    0.1125    0.4882 H   0  0  0  0  0  0  0  0  0  0  0  0
    2.6646   -0.1080   -1.2027 H   0  0  0  0  0  0  0  0  0  0  0  0
    1.1410    1.8711   -0.6363 H   0  0  0  0  0  0  0  0  0  0  0  0
    0.9297    0.7623   -1.8815 H   0  0  0  0  0  0  0  0  0  0  0  0
   -0.4841    1.8974    1.0580 H   0  0  0  0  0  0  0  0  0  0  0  0
   -0.3558    0.4034    2.0020 H   0  0  0  0  0  0  0  0  0  0  0  0
   -3.0889   -0.5182   -0.5707 H   0  0  0  0  0  0  0  0  0  0  0  0
   -2.3396   -1.3583    0.8008 H   0  0  0  0  0  0  0  0  0  0  0  0
  1  2  1  0
  2  3  2  0
  2  4  1  0
  4  5  1  6
  4  6  1  0
  6  7  1  0
  7  8  1  0
  8  9  1  0
  9 10  1  0
  9 11  1  0
  9  4  1  0
  1 12  1  0
  1 13  1  0
  5 14  1  0
  5 15  1  0
  6 16  1  0
  6 17  1  0
  8 18  1  0
  8 19  1  0
M  END
$$$$
