
     RDKit          3D

 24 24  0  0  0  0  0  0  0  0999 V2000
    3.3805    0.8452    0.7502 C   0  0  0  0  0  0  0  0  0  0  0  0
    2.5252   -0.3034    0.2778 C   0  0  0  0  0  0  0  0  0  0  0  0
    1.2630   -0.2216    0.0294 N   0  0  0  0  0  0  0  0  0  0  0  0
    0.5114   -1.0732   -0.3458 C   0  0  0  0  0  0  0  0  0  0  0  0
   -0.7278   -1.3067   -0.6690 N   0  0  0  0  0  0  0  0  0  0  0  0
   -1.7485   -0.3202   -0.6375 C   0  0  1  0  0  0  0  0  0  0  0  0
   -1.8468    0.3985    0.6913 C   0  0  0  0  0  0  0  0  0  0  0  0
   -2.1357   -0.5718    1.7343 N   0  0  0  0  0  0  0  0  0  0  0  0
   -1.5104    0.6807   -1.7481 C   0  0  0  0  0  0  0  0  0  0  0  0
   -2.5199    1.6416   -1.7038 O   0  0  0  0  0  0  0  0  0  0  0  0
    1.7157   -2.5169   -0.4535 S   0  0  0  0  0  0  0  0  0  0  0  0
    3.0942   -1.5268    0.0903 N   0  0  0  0  0  0  0  0  0  0  0  0
    3.5416    0.7645    1.8558 H   0  0  0  0  0  0  0  0  0  0  0  0
    4.3379    0.8074    0.2086 H   0  0  0  0  0  0  0  0  0  0  0  0
    2.9192    1.8144    0.5454 H   0  0  0  0  0  0  0  0  0  0  0  0
   -2.7241   -0.8235   -0.8290 H   0  0  0  0  0  0  0  0  0  0  0  0
   -0.9029    0.8980    0.9424 H   0  0  0  0  0  0  0  0  0  0  0  0
   -2.7052    1.1005    0.6757 H   0  0  0  0  0  0  0  0  0  0  0  0
   -1.9503   -0.1300    2.6625 H   0  0  0  0  0  0  0  0  0  0  0  0
   -3.1230   -0.8733    1.6529 H   0  0  0  0  0  0  0  0  0  0  0  0
   -0.5554    1.2065   -1.5686 H   0  0  0  0  0  0  0  0  0  0  0  0
   -1.4988    0.1780   -2.7225 H   0  0  0  0  0  0  0  0  0  0  0  0
   -3.4046    1.1809   -1.6548 H   0  0  0  0  0  0  0  0  0  0  0  0
    4.0648   -1.8487    0.2160 H   0  0  0  0  0  0  0  0  0  0  0  0
  1  2  1  0
  2  3  2  0
  3  4  1  0
  4  5  2  3
  5  6  1  0
  6  7  1  0
  7  8  1  0
  6  9  1  0
  9 10  1  0
  4 11  1  0
 11 12  1  0
 12  2  1  0
  1 13  1  0
  1 14  1  0
  1 15  1  0
  6 16  1  6
  7 17  1  0
  7 18  1  0
  8 19  1  0
  8 20  1  0
  9 21  1  0
  9 22  1  0
 10 23  1  0
 12 24  1  0
M  END
$$$$

     RDKit          3D

 24 24  0  0  0  0  0  0  0  0999 V2000
    4.1835   -0.1592    0.7542 C   0  0  0  0  0  0  0  0  0  0  0  0
    2.8389   -0.4510    0.1345 C   0  0  0  0  0  0  0  0  0  0  0  0
    1.7789    0.2831    0.3957 N   0  0  0  0  0  0  0  0  0  0  0  0
    0.7055    0.2041    0.0203 C   0  0  0  0  0  0  0  0  0  0  0  0
   -0.4571    0.7461    0.1020 N   0  0  0  0  0  0  0  0  0  0  0  0
   -1.6093    0.2573   -0.6153 C   0  0  1  0  0  0  0  0  0  0  0  0
   -2.1165   -0.9646    0.1300 C   0  0  0  0  0  0  0  0  0  0  0  0
   -2.4616   -0.5143    1.4791 N   0  0  0  0  0  0  0  0  0  0  0  0
   -2.6484    1.3688   -0.6018 C   0  0  0  0  0  0  0  0  0  0  0  0
   -2.0765    2.4698   -1.2326 O   0  0  0  0  0  0  0  0  0  0  0  0
    0.8929   -1.3340   -1.1217 S   0  0  0  0  0  0  0  0  0  0  0  0
    2.6346   -1.4384   -0.6936 N   0  0  0  0  0  0  0  0  0  0  0  0
    4.1138    0.0783    1.8191 H   0  0  0  0  0  0  0  0  0  0  0  0
    4.5838    0.7631    0.2433 H   0  0  0  0  0  0  0  0  0  0  0  0
    4.8703   -0.9948    0.6351 H   0  0  0  0  0  0  0  0  0  0  0  0
   -1.3851   -0.0010   -1.6659 H   0  0  0  0  0  0  0  0  0  0  0  0
   -1.2630   -1.6701    0.1993 H   0  0  0  0  0  0  0  0  0  0  0  0
   -2.9830   -1.4226   -0.3843 H   0  0  0  0  0  0  0  0  0  0  0  0
   -3.4206   -0.1234    1.4748 H   0  0  0  0  0  0  0  0  0  0  0  0
   -1.7291    0.1606    1.7580 H   0  0  0  0  0  0  0  0  0  0  0  0
   -3.5720    1.0674   -1.1285 H   0  0  0  0  0  0  0  0  0  0  0  0
   -2.8742    1.6634    0.4435 H   0  0  0  0  0  0  0  0  0  0  0  0
   -1.2911    2.2168   -1.7483 H   0  0  0  0  0  0  0  0  0  0  0  0
    3.2853   -2.2055   -1.1001 H   0  0  0  0  0  0  0  0  0  0  0  0
  1  2  1  0
  2  3  2  0
  3  4  1  0
  4  5  2  3
  5  6  1  0
  6  7  1  0
  7  8  1  0
  6  9  1  0
  9 10  1  0
  4 11  1  0
 11 12  1  0
 12  2  1  0
  1 13  1  0
  1 14  1  0
  1 15  1  0
  6 16  1  6
  7 17  1  0
  7 18  1  0
  8 19  1  0
  8 20  1  0
  9 21  1  0
  9 22  1  0
 10 23  1  0
 12 24  1  0
M  END
$$$$

     RDKit          3D

 24 24  0  0  0  0  0  0  0  0999 V2000
    4.2030   -0.4395   -0.2774 C   0  0  0  0  0  0  0  0  0  0  0  0
    2.7063   -0.4147    0.0330 C   0  0  0  0  0  0  0  0  0  0  0  0
    1.7566    0.0318   -0.7352 N   0  0  0  0  0  0  0  0  0  0  0  0
    0.5888    0.0737   -0.5437 C   0  0  0  0  0  0  0  0  0  0  0  0
   -0.5213    0.4508   -1.1140 N   0  0  0  0  0  0  0  0  0  0  0  0
   -1.8416    0.4134   -0.7091 C   0  0  1  0  0  0  0  0  0  0  0  0
   -2.2178   -0.4616    0.4604 C   0  0  0  0  0  0  0  0  0  0  0  0
   -1.9115   -1.8560    0.2456 N   0  0  0  0  0  0  0  0  0  0  0  0
   -2.2067    1.8484   -0.2589 C   0  0  0  0  0  0  0  0  0  0  0  0
   -1.3584    2.1858    0.7831 O   0  0  0  0  0  0  0  0  0  0  0  0
    0.5206   -0.6900    1.1844 S   0  0  0  0  0  0  0  0  0  0  0  0
    2.3017   -0.9023    1.2245 N   0  0  0  0  0  0  0  0  0  0  0  0
    4.6332   -1.3830    0.0569 H   0  0  0  0  0  0  0  0  0  0  0  0
    4.3654   -0.2244   -1.3377 H   0  0  0  0  0  0  0  0  0  0  0  0
    4.6464    0.3892    0.3125 H   0  0  0  0  0  0  0  0  0  0  0  0
   -2.5498    0.1985   -1.5814 H   0  0  0  0  0  0  0  0  0  0  0  0
   -3.3576   -0.4542    0.5844 H   0  0  0  0  0  0  0  0  0  0  0  0
   -1.8531   -0.1190    1.4222 H   0  0  0  0  0  0  0  0  0  0  0  0
   -2.5941   -2.4815    0.7253 H   0  0  0  0  0  0  0  0  0  0  0  0
   -1.8865   -2.1269   -0.7590 H   0  0  0  0  0  0  0  0  0  0  0  0
   -3.2314    1.7438    0.1717 H   0  0  0  0  0  0  0  0  0  0  0  0
   -2.1948    2.5456   -1.0953 H   0  0  0  0  0  0  0  0  0  0  0  0
   -0.8332    2.9913    0.4773 H   0  0  0  0  0  0  0  0  0  0  0  0
    2.8360   -1.3191    2.0279 H   0  0  0  0  0  0  0  0  0  0  0  0
  1  2  1  0
  2  3  2  0
  3  4  1  0
  4  5  2  3
  5  6  1  0
  6  7  1  0
  7  8  1  0
  6  9  1  0
  9 10  1  0
  4 11  1  0
 11 12  1  0
 12  2  1  0
  1 13  1  0
  1 14  1  0
  1 15  1  0
  6 16  1  6
  7 17  1  0
  7 18  1  0
  8 19  1  0
  8 20  1  0
  9 21  1  0
  9 22  1  0
 10 23  1  0
 12 24  1  0
M  END
$$$$

     RDKit          3D

 24 24  0  0  0  0  0  0  0  0999 V2000
    4.1443   -1.1932    0.1628 C   0  0  0  0  0  0  0  0  0  0  0  0
    2.7802   -0.6680   -0.2678 C   0  0  0  0  0  0  0  0  0  0  0  0
    1.7511   -0.6792    0.4849 N   0  0  0  0  0  0  0  0  0  0  0  0
    0.5675   -0.2160    0.0918 C   0  0  0  0  0  0  0  0  0  0  0  0
   -0.5620   -0.1267    0.6494 N   0  0  0  0  0  0  0  0  0  0  0  0
   -1.6985    0.4380   -0.0455 C   0  0  1  0  0  0  0  0  0  0  0  0
   -2.9739   -0.0396    0.6124 C   0  0  0  0  0  0  0  0  0  0  0  0
   -3.0803   -1.4772    0.5745 N   0  0  0  0  0  0  0  0  0  0  0  0
   -1.6680    1.9593    0.0180 C   0  0  0  0  0  0  0  0  0  0  0  0
   -1.7061    2.3511    1.3543 O   0  0  0  0  0  0  0  0  0  0  0  0
    0.9979    0.3035   -1.5846 S   0  0  0  0  0  0  0  0  0  0  0  0
    2.6865   -0.1683   -1.5235 N   0  0  0  0  0  0  0  0  0  0  0  0
    4.8507   -0.3405    0.2466 H   0  0  0  0  0  0  0  0  0  0  0  0
    4.0955   -1.7290    1.1050 H   0  0  0  0  0  0  0  0  0  0  0  0
    4.4517   -1.9211   -0.6205 H   0  0  0  0  0  0  0  0  0  0  0  0
   -1.7020    0.0858   -1.0929 H   0  0  0  0  0  0  0  0  0  0  0  0
   -2.9601    0.2749    1.6886 H   0  0  0  0  0  0  0  0  0  0  0  0
   -3.8691    0.4050    0.1640 H   0  0  0  0  0  0  0  0  0  0  0  0
   -2.8957   -1.8495   -0.3656 H   0  0  0  0  0  0  0  0  0  0  0  0
   -2.5560   -1.9642    1.3146 H   0  0  0  0  0  0  0  0  0  0  0  0
   -2.4727    2.3832   -0.5918 H   0  0  0  0  0  0  0  0  0  0  0  0
   -0.6684    2.2845   -0.3671 H   0  0  0  0  0  0  0  0  0  0  0  0
   -0.8993    1.9585    1.7825 H   0  0  0  0  0  0  0  0  0  0  0  0
    3.3867   -0.0711   -2.2726 H   0  0  0  0  0  0  0  0  0  0  0  0
  1  2  1  0
  2  3  2  0
  3  4  1  0
  4  5  2  3
  5  6  1  0
  6  7  1  0
  7  8  1  0
  6  9  1  0
  9 10  1  0
  4 11  1  0
 11 12  1  0
 12  2  1  0
  1 13  1  0
  1 14  1  0
  1 15  1  0
  6 16  1  6
  7 17  1  0
  7 18  1  0
  8 19  1  0
  8 20  1  0
  9 21  1  0
  9 22  1  0
 10 23  1  0
 12 24  1  0
M  END
$$$$

     RDKit          3D

 24 24  0  0  0  0  0  0  0  0999 V2000
    4.4089   -0.1633    0.1632 C   0  0  0  0  0  0  0  0  0  0  0  0
    2.9508   -0.2244   -0.2291 C   0  0  0  0  0  0  0  0  0  0  0  0
    2.0057    0.5219    0.2353 N   0  0  0  0  0  0  0  0  0  0  0  0
    0.8271    0.5189   -0.0394 C   0  0  0  0  0  0  0  0  0  0  0  0
   -0.2562    1.1261    0.2660 N   0  0  0  0  0  0  0  0  0  0  0  0
   -1.5764    1.0095   -0.1453 C   0  0  1  0  0  0  0  0  0  0  0  0
   -1.9480   -0.2122   -0.9113 C   0  0  0  0  0  0  0  0  0  0  0  0
   -1.7217   -1.4326   -0.2118 N   0  0  0  0  0  0  0  0  0  0  0  0
   -2.5511    1.2509    1.0192 C   0  0  0  0  0  0  0  0  0  0  0  0
   -3.8614    1.1389    0.6278 O   0  0  0  0  0  0  0  0  0  0  0  0
    0.8439   -0.8807   -1.3154 S   0  0  0  0  0  0  0  0  0  0  0  0
    2.5666   -1.1311   -1.1470 N   0  0  0  0  0  0  0  0  0  0  0  0
    4.7076   -1.2021    0.4133 H   0  0  0  0  0  0  0  0  0  0  0  0
    4.5609    0.5121    1.0222 H   0  0  0  0  0  0  0  0  0  0  0  0
    5.0098    0.1719   -0.6937 H   0  0  0  0  0  0  0  0  0  0  0  0
   -1.7866    1.9137   -0.8265 H   0  0  0  0  0  0  0  0  0  0  0  0
   -3.0424   -0.1215   -1.2246 H   0  0  0  0  0  0  0  0  0  0  0  0
   -1.4200   -0.2334   -1.8754 H   0  0  0  0  0  0  0  0  0  0  0  0
   -1.7710   -2.2597   -0.8084 H   0  0  0  0  0  0  0  0  0  0  0  0
   -2.1564   -1.5073    0.7085 H   0  0  0  0  0  0  0  0  0  0  0  0
   -2.2885    0.5563    1.8438 H   0  0  0  0  0  0  0  0  0  0  0  0
   -2.3992    2.2775    1.4153 H   0  0  0  0  0  0  0  0  0  0  0  0
   -4.2543    0.2467    0.7542 H   0  0  0  0  0  0  0  0  0  0  0  0
    3.1521   -1.8761   -1.6932 H   0  0  0  0  0  0  0  0  0  0  0  0
  1  2  1  0
  2  3  2  0
  3  4  1  0
  4  5  2  3
  5  6  1  0
  6  7  1  0
  7  8  1  0
  6  9  1  0
  9 10  1  0
  4 11  1  0
 11 12  1  0
 12  2  1  0
  1 13  1  0
  1 14  1  0
  1 15  1  0
  6 16  1  6
  7 17  1  0
  7 18  1  0
  8 19  1  0
  8 20  1  0
  9 21  1  0
  9 22  1  0
 10 23  1  0
 12 24  1  0
M  END
$$$$

     RDKit          3D

 24 24  0  0  0  0  0  0  0  0999 V2000
    4.2843   -0.5215    1.0102 C   0  0  0  0  0  0  0  0  0  0  0  0
    2.9746   -0.0542    0.4192 C   0  0  0  0  0  0  0  0  0  0  0  0
    1.8179   -0.5231    0.8099 N   0  0  0  0  0  0  0  0  0  0  0  0
    0.7444   -0.2690    0.4588 C   0  0  0  0  0  0  0  0  0  0  0  0
   -0.5155   -0.5527    0.6493 N   0  0  0  0  0  0  0  0  0  0  0  0
   -1.5690    0.0839   -0.0962 C   0  0  1  0  0  0  0  0  0  0  0  0
   -2.7736   -0.8210   -0.2439 C   0  0  0  0  0  0  0  0  0  0  0  0
   -2.4625   -2.0410   -0.9280 N   0  0  0  0  0  0  0  0  0  0  0  0
   -1.9810    1.3595    0.5969 C   0  0  0  0  0  0  0  0  0  0  0  0
   -3.0079    1.9511   -0.1574 O   0  0  0  0  0  0  0  0  0  0  0  0
    1.1686    1.0354   -0.8571 S   0  0  0  0  0  0  0  0  0  0  0  0
    2.9138    0.8817   -0.5549 N   0  0  0  0  0  0  0  0  0  0  0  0
    5.0636    0.2650    0.8576 H   0  0  0  0  0  0  0  0  0  0  0  0
    4.6270   -1.4165    0.4639 H   0  0  0  0  0  0  0  0  0  0  0  0
    4.2195   -0.6919    2.0849 H   0  0  0  0  0  0  0  0  0  0  0  0
   -1.1686    0.3296   -1.1061 H   0  0  0  0  0  0  0  0  0  0  0  0
   -3.5486   -0.2615   -0.8100 H   0  0  0  0  0  0  0  0  0  0  0  0
   -3.1608   -1.0713    0.7606 H   0  0  0  0  0  0  0  0  0  0  0  0
   -3.1913   -2.7482   -0.7874 H   0  0  0  0  0  0  0  0  0  0  0  0
   -1.5387   -2.4434   -0.6668 H   0  0  0  0  0  0  0  0  0  0  0  0
   -1.1519    2.0565    0.7145 H   0  0  0  0  0  0  0  0  0  0  0  0
   -2.4418    1.0572    1.5764 H   0  0  0  0  0  0  0  0  0  0  0  0
   -2.9704    2.9456   -0.0558 H   0  0  0  0  0  0  0  0  0  0  0  0
    3.6679    1.4499   -1.0814 H   0  0  0  0  0  0  0  0  0  0  0  0
  1  2  1  0
  2  3  2  0
  3  4  1  0
  4  5  2  3
  5  6  1  0
  6  7  1  0
  7  8  1  0
  6  9  1  0
  9 10  1  0
  4 11  1  0
 11 12  1  0
 12  2  1  0
  1 13  1  0
  1 14  1  0
  1 15  1  0
  6 16  1  6
  7 17  1  0
  7 18  1  0
  8 19  1  0
  8 20  1  0
  9 21  1  0
  9 22  1  0
 10 23  1  0
 12 24  1  0
M  END
$$$$

     RDKit          3D

 24 24  0  0  0  0  0  0  0  0999 V2000
    3.2700   -0.0535   -1.9480 C   0  0  0  0  0  0  0  0  0  0  0  0
    2.6703   -0.0386   -0.5340 C   0  0  0  0  0  0  0  0  0  0  0  0
    1.4557   -0.1672   -0.2562 N   0  0  0  0  0  0  0  0  0  0  0  0
    0.9154   -0.1565    0.9626 C   0  0  0  0  0  0  0  0  0  0  0  0
   -0.1967   -0.2558    1.5045 N   0  0  0  0  0  0  0  0  0  0  0  0
   -1.4660   -0.4476    0.8499 C   0  0  1  0  0  0  0  0  0  0  0  0
   -2.3389    0.7266    1.2332 C   0  0  0  0  0  0  0  0  0  0  0  0
   -3.6448    0.6795    0.6559 N   0  0  0  0  0  0  0  0  0  0  0  0
   -1.2330   -0.5336   -0.6251 C   0  0  0  0  0  0  0  0  0  0  0  0
   -2.4004   -0.7223   -1.3563 O   0  0  0  0  0  0  0  0  0  0  0  0
    2.4890    0.0917    1.9201 S   0  0  0  0  0  0  0  0  0  0  0  0
    3.5773    0.1330    0.4794 N   0  0  0  0  0  0  0  0  0  0  0  0
    3.6054    0.9604   -2.1763 H   0  0  0  0  0  0  0  0  0  0  0  0
    4.1141   -0.7654   -1.9505 H   0  0  0  0  0  0  0  0  0  0  0  0
    2.5383   -0.4100   -2.6669 H   0  0  0  0  0  0  0  0  0  0  0  0
   -1.9321   -1.3978    1.1898 H   0  0  0  0  0  0  0  0  0  0  0  0
   -2.4584    0.7042    2.3373 H   0  0  0  0  0  0  0  0  0  0  0  0
   -1.7908    1.6621    0.9880 H   0  0  0  0  0  0  0  0  0  0  0  0
   -4.2113    1.4380    1.1450 H   0  0  0  0  0  0  0  0  0  0  0  0
   -3.6883    0.9489   -0.3565 H   0  0  0  0  0  0  0  0  0  0  0  0
   -0.5723   -1.3983   -0.8290 H   0  0  0  0  0  0  0  0  0  0  0  0
   -0.7279    0.4042   -0.9942 H   0  0  0  0  0  0  0  0  0  0  0  0
   -2.5444   -1.6554   -1.6297 H   0  0  0  0  0  0  0  0  0  0  0  0
    4.5701    0.2535    0.5010 H   0  0  0  0  0  0  0  0  0  0  0  0
  1  2  1  0
  2  3  2  0
  3  4  1  0
  4  5  2  3
  5  6  1  0
  6  7  1  0
  7  8  1  0
  6  9  1  0
  9 10  1  0
  4 11  1  0
 11 12  1  0
 12  2  1  0
  1 13  1  0
  1 14  1  0
  1 15  1  0
  6 16  1  1
  7 17  1  0
  7 18  1  0
  8 19  1  0
  8 20  1  0
  9 21  1  0
  9 22  1  0
 10 23  1  0
 12 24  1  0
M  END
$$$$

     RDKit          3D

 24 24  0  0  0  0  0  0  0  0999 V2000
    4.5418    0.3220   -0.3693 C   0  0  0  0  0  0  0  0  0  0  0  0
    3.1041   -0.0959   -0.1982 C   0  0  0  0  0  0  0  0  0  0  0  0
    2.0983    0.6708   -0.4741 N   0  0  0  0  0  0  0  0  0  0  0  0
    0.9366    0.4490   -0.3790 C   0  0  0  0  0  0  0  0  0  0  0  0
   -0.2087    1.0041   -0.5743 N   0  0  0  0  0  0  0  0  0  0  0  0
   -1.5131    0.5417   -0.3878 C   0  0  1  0  0  0  0  0  0  0  0  0
   -1.7002   -0.8813    0.0405 C   0  0  0  0  0  0  0  0  0  0  0  0
   -3.1552   -1.1292    0.1663 N   0  0  0  0  0  0  0  0  0  0  0  0
   -2.3379    1.4405    0.5497 C   0  0  0  0  0  0  0  0  0  0  0  0
   -3.6198    0.9537    0.7100 O   0  0  0  0  0  0  0  0  0  0  0  0
    1.0159   -1.3271    0.2837 S   0  0  0  0  0  0  0  0  0  0  0  0
    2.7943   -1.3251    0.2642 N   0  0  0  0  0  0  0  0  0  0  0  0
    5.1778   -0.1433    0.4086 H   0  0  0  0  0  0  0  0  0  0  0  0
    4.8918   -0.0083   -1.3530 H   0  0  0  0  0  0  0  0  0  0  0  0
    4.6717    1.4129   -0.2933 H   0  0  0  0  0  0  0  0  0  0  0  0
   -2.0431    0.6150   -1.3935 H   0  0  0  0  0  0  0  0  0  0  0  0
   -1.3293   -0.9919    1.0789 H   0  0  0  0  0  0  0  0  0  0  0  0
   -1.2834   -1.5972   -0.6801 H   0  0  0  0  0  0  0  0  0  0  0  0
   -3.5385   -1.4938   -0.7330 H   0  0  0  0  0  0  0  0  0  0  0  0
   -3.3615   -1.7464    0.9717 H   0  0  0  0  0  0  0  0  0  0  0  0
   -2.4035    2.4664    0.0880 H   0  0  0  0  0  0  0  0  0  0  0  0
   -1.8463    1.4939    1.5422 H   0  0  0  0  0  0  0  0  0  0  0  0
   -4.3137    1.5096    0.2656 H   0  0  0  0  0  0  0  0  0  0  0  0
    3.4219   -2.1400    0.5621 H   0  0  0  0  0  0  0  0  0  0  0  0
  1  2  1  0
  2  3  2  0
  3  4  1  0
  4  5  2  3
  5  6  1  0
  6  7  1  0
  7  8  1  0
  6  9  1  0
  9 10  1  0
  4 11  1  0
 11 12  1  0
 12  2  1  0
  1 13  1  0
  1 14  1  0
  1 15  1  0
  6 16  1  6
  7 17  1  0
  7 18  1  0
  8 19  1  0
  8 20  1  0
  9 21  1  0
  9 22  1  0
 10 23  1  0
 12 24  1  0
M  END
$$$$
