
     RDKit          3D

 25 24  0  0  0  0  0  0  0  0999 V2000
   -2.1807    0.2714    1.4554 C   0  0  0  0  0  0  0  0  0  0  0  0
   -1.7830   -0.3961    0.1522 C   0  0  1  0  0  0  0  0  0  0  0  0
   -2.5263    0.3075   -0.9573 C   0  0  0  0  0  0  0  0  0  0  0  0
   -2.1988    1.7155   -0.9477 N   0  0  0  0  0  0  0  0  0  0  0  0
   -0.4140   -0.2829    0.0296 O   0  0  0  0  0  0  0  0  0  0  0  0
    0.1376   -1.5541   -0.0794 C   0  0  0  0  0  0  0  0  0  0  0  0
    1.6157   -1.4369   -0.2120 C   0  0  0  0  0  0  0  0  0  0  0  0
    2.3531   -2.4497   -0.3266 O   0  0  0  0  0  0  0  0  0  0  0  0
    2.2711   -0.1717   -0.2159 N   0  0  0  0  0  0  0  0  0  0  0  0
    3.6846   -0.0829   -0.3436 C   0  0  0  0  0  0  0  0  0  0  0  0
    4.3451    1.1694   -0.3485 N   0  0  0  0  0  0  0  0  0  0  0  0
    4.3371   -1.1349   -0.4520 O   0  0  0  0  0  0  0  0  0  0  0  0
   -3.2600    0.4762    1.4377 H   0  0  0  0  0  0  0  0  0  0  0  0
   -1.6517    1.2288    1.5791 H   0  0  0  0  0  0  0  0  0  0  0  0
   -1.9422   -0.3810    2.3219 H   0  0  0  0  0  0  0  0  0  0  0  0
   -2.0827   -1.4544    0.1323 H   0  0  0  0  0  0  0  0  0  0  0  0
   -3.6087    0.1922   -0.7580 H   0  0  0  0  0  0  0  0  0  0  0  0
   -2.3323   -0.1399   -1.9454 H   0  0  0  0  0  0  0  0  0  0  0  0
   -2.4686    2.1793   -1.8551 H   0  0  0  0  0  0  0  0  0  0  0  0
   -2.7651    2.2290   -0.2082 H   0  0  0  0  0  0  0  0  0  0  0  0
   -0.0552   -2.1738    0.8256 H   0  0  0  0  0  0  0  0  0  0  0  0
   -0.3220   -2.0770   -0.9355 H   0  0  0  0  0  0  0  0  0  0  0  0
    1.7010    0.6981   -0.1233 H   0  0  0  0  0  0  0  0  0  0  0  0
    5.1107    1.3932    0.3134 H   0  0  0  0  0  0  0  0  0  0  0  0
    4.0351    1.8748   -1.0493 H   0  0  0  0  0  0  0  0  0  0  0  0
  1  2  1  0
  2  3  1  0
  3  4  1  0
  2  5  1  0
  5  6  1  0
  6  7  1  0
  7  8  2  0
  7  9  1  0
  9 10  1  0
 10 11  1  0
 10 12  2  0
  1 13  1  0
  1 14  1  0
  1 15  1  0
  2 16  1  1
  3 17  1  0
  3 18  1  0
  4 19  1  0
  4 20  1  0
  6 21  1  0
  6 22  1  0
  9 23  1  0
 11 24  1  0
 11 25  1  0
M  END
$$$$

     RDKit          3D

 25 24  0  0  0  0  0  0  0  0999 V2000
   -2.0370    0.4523    1.8483 C   0  0  0  0  0  0  0  0  0  0  0  0
   -1.6946   -0.3041    0.5829 C   0  0  1  0  0  0  0  0  0  0  0  0
   -2.6560    0.1332   -0.4877 C   0  0  0  0  0  0  0  0  0  0  0  0
   -2.5377    1.4914   -0.8713 N   0  0  0  0  0  0  0  0  0  0  0  0
   -0.3703   -0.1639    0.2302 O   0  0  0  0  0  0  0  0  0  0  0  0
    0.2205   -1.4159    0.2291 C   0  0  0  0  0  0  0  0  0  0  0  0
    1.6542   -1.3723   -0.1397 C   0  0  0  0  0  0  0  0  0  0  0  0
    2.3459   -2.4180   -0.1910 O   0  0  0  0  0  0  0  0  0  0  0  0
    2.2872   -0.1375   -0.4470 N   0  0  0  0  0  0  0  0  0  0  0  0
    3.6779   -0.0738   -0.8072 C   0  0  0  0  0  0  0  0  0  0  0  0
    4.3111    1.1515   -1.1134 N   0  0  0  0  0  0  0  0  0  0  0  0
    4.3448   -1.1187   -0.8522 O   0  0  0  0  0  0  0  0  0  0  0  0
   -3.1351    0.5501    1.9440 H   0  0  0  0  0  0  0  0  0  0  0  0
   -1.6334    1.4776    1.7587 H   0  0  0  0  0  0  0  0  0  0  0  0
   -1.6316   -0.1111    2.7107 H   0  0  0  0  0  0  0  0  0  0  0  0
   -1.8891   -1.3787    0.7601 H   0  0  0  0  0  0  0  0  0  0  0  0
   -2.6070   -0.5018   -1.4008 H   0  0  0  0  0  0  0  0  0  0  0  0
   -3.6834   -0.0328   -0.0738 H   0  0  0  0  0  0  0  0  0  0  0  0
   -3.2901    2.1198   -0.5257 H   0  0  0  0  0  0  0  0  0  0  0  0
   -2.2793    1.6594   -1.8650 H   0  0  0  0  0  0  0  0  0  0  0  0
    0.0790   -1.9052    1.2095 H   0  0  0  0  0  0  0  0  0  0  0  0
   -0.2961   -2.0066   -0.5801 H   0  0  0  0  0  0  0  0  0  0  0  0
    1.7370    0.7383   -0.4114 H   0  0  0  0  0  0  0  0  0  0  0  0
    4.8879    1.5948   -0.3537 H   0  0  0  0  0  0  0  0  0  0  0  0
    4.1950    1.5719   -2.0529 H   0  0  0  0  0  0  0  0  0  0  0  0
  1  2  1  0
  2  3  1  0
  3  4  1  0
  2  5  1  0
  5  6  1  0
  6  7  1  0
  7  8  2  0
  7  9  1  0
  9 10  1  0
 10 11  1  0
 10 12  2  0
  1 13  1  0
  1 14  1  0
  1 15  1  0
  2 16  1  1
  3 17  1  0
  3 18  1  0
  4 19  1  0
  4 20  1  0
  6 21  1  0
  6 22  1  0
  9 23  1  0
 11 24  1  0
 11 25  1  0
M  END
$$$$

     RDKit          3D

 25 24  0  0  0  0  0  0  0  0999 V2000
   -1.8883    0.8820   -1.3140 C   0  0  0  0  0  0  0  0  0  0  0  0
   -1.5501    0.0370   -0.0849 C   0  0  1  0  0  0  0  0  0  0  0  0
   -2.8939   -0.2723    0.5825 C   0  0  0  0  0  0  0  0  0  0  0  0
   -3.4778    0.9849    1.0195 N   0  0  0  0  0  0  0  0  0  0  0  0
   -0.9297   -1.0926   -0.5273 O   0  0  0  0  0  0  0  0  0  0  0  0
    0.2954   -1.3650   -0.0007 C   0  0  0  0  0  0  0  0  0  0  0  0
    1.3308   -0.3603   -0.2152 C   0  0  0  0  0  0  0  0  0  0  0  0
    1.1848    0.7218   -0.8389 O   0  0  0  0  0  0  0  0  0  0  0  0
    2.6247   -0.6158    0.3241 N   0  0  0  0  0  0  0  0  0  0  0  0
    3.6834    0.3254    0.1508 C   0  0  0  0  0  0  0  0  0  0  0  0
    4.9814    0.1029    0.6738 N   0  0  0  0  0  0  0  0  0  0  0  0
    3.4422    1.4001   -0.4986 O   0  0  0  0  0  0  0  0  0  0  0  0
   -1.2917    0.5452   -2.1975 H   0  0  0  0  0  0  0  0  0  0  0  0
   -1.7291    1.9589   -1.1270 H   0  0  0  0  0  0  0  0  0  0  0  0
   -2.9517    0.7537   -1.6113 H   0  0  0  0  0  0  0  0  0  0  0  0
   -0.9833    0.6210    0.6666 H   0  0  0  0  0  0  0  0  0  0  0  0
   -2.7677   -0.9179    1.4703 H   0  0  0  0  0  0  0  0  0  0  0  0
   -3.5849   -0.7055   -0.1692 H   0  0  0  0  0  0  0  0  0  0  0  0
   -4.0647    0.8733    1.8811 H   0  0  0  0  0  0  0  0  0  0  0  0
   -4.0170    1.4411    0.2532 H   0  0  0  0  0  0  0  0  0  0  0  0
    0.1837   -1.5380    1.1014 H   0  0  0  0  0  0  0  0  0  0  0  0
    0.6492   -2.3306   -0.4181 H   0  0  0  0  0  0  0  0  0  0  0  0
    2.8265   -1.5096    0.8645 H   0  0  0  0  0  0  0  0  0  0  0  0
    5.6094    0.9084    0.8533 H   0  0  0  0  0  0  0  0  0  0  0  0
    5.3183   -0.8480    0.8815 H   0  0  0  0  0  0  0  0  0  0  0  0
  1  2  1  0
  2  3  1  0
  3  4  1  0
  2  5  1  0
  5  6  1  0
  6  7  1  0
  7  8  2  0
  7  9  1  0
  9 10  1  0
 10 11  1  0
 10 12  2  0
  1 13  1  0
  1 14  1  0
  1 15  1  0
  2 16  1  1
  3 17  1  0
  3 18  1  0
  4 19  1  0
  4 20  1  0
  6 21  1  0
  6 22  1  0
  9 23  1  0
 11 24  1  0
 11 25  1  0
M  END
$$$$

     RDKit          3D

 25 24  0  0  0  0  0  0  0  0999 V2000
   -2.8282   -0.4814   -0.5750 C   0  0  0  0  0  0  0  0  0  0  0  0
   -1.8326    0.3847    0.2060 C   0  0  1  0  0  0  0  0  0  0  0  0
   -2.4933    0.7033    1.5283 C   0  0  0  0  0  0  0  0  0  0  0  0
   -3.7055    1.4757    1.3343 N   0  0  0  0  0  0  0  0  0  0  0  0
   -0.6826   -0.3443    0.3379 O   0  0  0  0  0  0  0  0  0  0  0  0
    0.4169    0.2271   -0.2796 C   0  0  0  0  0  0  0  0  0  0  0  0
    1.6190   -0.6267   -0.0879 C   0  0  0  0  0  0  0  0  0  0  0  0
    1.5136   -1.6941    0.5649 O   0  0  0  0  0  0  0  0  0  0  0  0
    2.8914   -0.2929   -0.6105 N   0  0  0  0  0  0  0  0  0  0  0  0
    4.0457   -1.0836   -0.4436 C   0  0  0  0  0  0  0  0  0  0  0  0
    5.2972   -0.6917   -0.9949 N   0  0  0  0  0  0  0  0  0  0  0  0
    3.9615   -2.1669    0.2131 O   0  0  0  0  0  0  0  0  0  0  0  0
   -2.9256   -1.4276   -0.0017 H   0  0  0  0  0  0  0  0  0  0  0  0
   -2.4240   -0.6980   -1.5955 H   0  0  0  0  0  0  0  0  0  0  0  0
   -3.8276   -0.0166   -0.6133 H   0  0  0  0  0  0  0  0  0  0  0  0
   -1.7266    1.3118   -0.3647 H   0  0  0  0  0  0  0  0  0  0  0  0
   -1.8437    1.2628    2.2097 H   0  0  0  0  0  0  0  0  0  0  0  0
   -2.7973   -0.2310    2.0704 H   0  0  0  0  0  0  0  0  0  0  0  0
   -4.5210    0.9181    1.0621 H   0  0  0  0  0  0  0  0  0  0  0  0
   -3.5558    2.3534    0.8236 H   0  0  0  0  0  0  0  0  0  0  0  0
    0.6521    1.2040    0.2173 H   0  0  0  0  0  0  0  0  0  0  0  0
    0.2485    0.3334   -1.3663 H   0  0  0  0  0  0  0  0  0  0  0  0
    2.9532    0.6105   -1.1561 H   0  0  0  0  0  0  0  0  0  0  0  0
    5.5205    0.3298   -1.1500 H   0  0  0  0  0  0  0  0  0  0  0  0
    6.0444   -1.3597   -1.2703 H   0  0  0  0  0  0  0  0  0  0  0  0
  1  2  1  0
  2  3  1  0
  3  4  1  0
  2  5  1  0
  5  6  1  0
  6  7  1  0
  7  8  2  0
  7  9  1  0
  9 10  1  0
 10 11  1  0
 10 12  2  0
  1 13  1  0
  1 14  1  0
  1 15  1  0
  2 16  1  6
  3 17  1  0
  3 18  1  0
  4 19  1  0
  4 20  1  0
  6 21  1  0
  6 22  1  0
  9 23  1  0
 11 24  1  0
 11 25  1  0
M  END
$$$$

     RDKit          3D

 25 24  0  0  0  0  0  0  0  0999 V2000
   -2.7434   -0.8754    0.7836 C   0  0  0  0  0  0  0  0  0  0  0  0
   -1.6109    0.0018    0.1981 C   0  0  1  0  0  0  0  0  0  0  0  0
   -2.1975    1.0466   -0.6981 C   0  0  0  0  0  0  0  0  0  0  0  0
   -2.9601    0.4467   -1.7772 N   0  0  0  0  0  0  0  0  0  0  0  0
   -0.8866    0.5744    1.1951 O   0  0  0  0  0  0  0  0  0  0  0  0
    0.3693    0.1372    1.4446 C   0  0  0  0  0  0  0  0  0  0  0  0
    1.2692    0.2584    0.3100 C   0  0  0  0  0  0  0  0  0  0  0  0
    0.9179    0.7079   -0.7917 O   0  0  0  0  0  0  0  0  0  0  0  0
    2.6545   -0.1446    0.3969 N   0  0  0  0  0  0  0  0  0  0  0  0
    3.5303   -0.0240   -0.7151 C   0  0  0  0  0  0  0  0  0  0  0  0
    4.8814   -0.4476   -0.5352 N   0  0  0  0  0  0  0  0  0  0  0  0
    3.1334    0.4345   -1.8066 O   0  0  0  0  0  0  0  0  0  0  0  0
   -3.4340   -1.0765   -0.0570 H   0  0  0  0  0  0  0  0  0  0  0  0
   -2.2922   -1.8297    1.1077 H   0  0  0  0  0  0  0  0  0  0  0  0
   -3.2819   -0.3505    1.5704 H   0  0  0  0  0  0  0  0  0  0  0  0
   -1.0057   -0.7158   -0.3700 H   0  0  0  0  0  0  0  0  0  0  0  0
   -2.9895    1.6133   -0.1011 H   0  0  0  0  0  0  0  0  0  0  0  0
   -1.4770    1.7976   -1.0086 H   0  0  0  0  0  0  0  0  0  0  0  0
   -3.9204    0.7811   -1.8642 H   0  0  0  0  0  0  0  0  0  0  0  0
   -2.7873   -0.5496   -1.9176 H   0  0  0  0  0  0  0  0  0  0  0  0
    0.4071   -0.8752    1.9277 H   0  0  0  0  0  0  0  0  0  0  0  0
    0.7715    0.8095    2.2730 H   0  0  0  0  0  0  0  0  0  0  0  0
    2.9591   -0.5275    1.3307 H   0  0  0  0  0  0  0  0  0  0  0  0
    5.6384    0.2587   -0.5276 H   0  0  0  0  0  0  0  0  0  0  0  0
    5.0544   -1.4512   -0.4185 H   0  0  0  0  0  0  0  0  0  0  0  0
  1  2  1  0
  2  3  1  0
  3  4  1  0
  2  5  1  0
  5  6  1  0
  6  7  1  0
  7  8  2  0
  7  9  1  0
  9 10  1  0
 10 11  1  0
 10 12  2  0
  1 13  1  0
  1 14  1  0
  1 15  1  0
  2 16  1  6
  3 17  1  0
  3 18  1  0
  4 19  1  0
  4 20  1  0
  6 21  1  0
  6 22  1  0
  9 23  1  0
 11 24  1  0
 11 25  1  0
M  END
$$$$

     RDKit          3D

 25 24  0  0  0  0  0  0  0  0999 V2000
   -2.6383   -0.9906   -0.1222 C   0  0  0  0  0  0  0  0  0  0  0  0
   -1.2490   -0.4404    0.3464 C   0  0  1  0  0  0  0  0  0  0  0  0
   -1.5264    0.6210    1.3421 C   0  0  0  0  0  0  0  0  0  0  0  0
   -2.2744    1.7341    0.8170 N   0  0  0  0  0  0  0  0  0  0  0  0
   -0.5220   -1.5067    0.8215 O   0  0  0  0  0  0  0  0  0  0  0  0
    0.4841   -1.9864    0.0821 C   0  0  0  0  0  0  0  0  0  0  0  0
    1.6334   -1.1656   -0.2878 C   0  0  0  0  0  0  0  0  0  0  0  0
    2.5237   -1.7542   -1.0237 O   0  0  0  0  0  0  0  0  0  0  0  0
    1.9131    0.1619    0.0366 N   0  0  0  0  0  0  0  0  0  0  0  0
    3.1183    0.7738   -0.4459 C   0  0  0  0  0  0  0  0  0  0  0  0
    3.3713    2.1378   -0.0925 N   0  0  0  0  0  0  0  0  0  0  0  0
    3.9551    0.1673   -1.1605 O   0  0  0  0  0  0  0  0  0  0  0  0
   -3.3434   -0.1465   -0.2057 H   0  0  0  0  0  0  0  0  0  0  0  0
   -2.4871   -1.4056   -1.1333 H   0  0  0  0  0  0  0  0  0  0  0  0
   -3.0305   -1.7135    0.5938 H   0  0  0  0  0  0  0  0  0  0  0  0
   -0.7786   -0.0343   -0.5624 H   0  0  0  0  0  0  0  0  0  0  0  0
   -0.6474    1.0154    1.8650 H   0  0  0  0  0  0  0  0  0  0  0  0
   -2.1845    0.2238    2.1878 H   0  0  0  0  0  0  0  0  0  0  0  0
   -2.1573    1.8757   -0.2022 H   0  0  0  0  0  0  0  0  0  0  0  0
   -3.2203    1.8390    1.1749 H   0  0  0  0  0  0  0  0  0  0  0  0
    0.8832   -2.9108    0.6039 H   0  0  0  0  0  0  0  0  0  0  0  0
    0.0499   -2.3425   -0.9189 H   0  0  0  0  0  0  0  0  0  0  0  0
    1.2378    0.6731    0.6212 H   0  0  0  0  0  0  0  0  0  0  0  0
    4.2717    2.3558    0.3584 H   0  0  0  0  0  0  0  0  0  0  0  0
    2.6174    2.8186   -0.3197 H   0  0  0  0  0  0  0  0  0  0  0  0
  1  2  1  0
  2  3  1  0
  3  4  1  0
  2  5  1  0
  5  6  1  0
  6  7  1  0
  7  8  2  0
  7  9  1  0
  9 10  1  0
 10 11  1  0
 10 12  2  0
  1 13  1  0
  1 14  1  0
  1 15  1  0
  2 16  1  6
  3 17  1  0
  3 18  1  0
  4 19  1  0
  4 20  1  0
  6 21  1  0
  6 22  1  0
  9 23  1  0
 11 24  1  0
 11 25  1  0
M  END
$$$$

     RDKit          3D

 25 24  0  0  0  0  0  0  0  0999 V2000
   -1.0288    0.7519   -1.3958 C   0  0  0  0  0  0  0  0  0  0  0  0
   -1.1494   -0.3522   -0.4151 C   0  0  1  0  0  0  0  0  0  0  0  0
   -2.6627   -0.6405   -0.2424 C   0  0  0  0  0  0  0  0  0  0  0  0
   -3.2798    0.6431    0.0344 N   0  0  0  0  0  0  0  0  0  0  0  0
   -0.4777   -1.5080   -0.6808 O   0  0  0  0  0  0  0  0  0  0  0  0
    0.2909   -2.0723    0.2674 C   0  0  0  0  0  0  0  0  0  0  0  0
    1.4598   -1.3294    0.7546 C   0  0  0  0  0  0  0  0  0  0  0  0
    2.0965   -1.8505    1.7598 O   0  0  0  0  0  0  0  0  0  0  0  0
    1.9864   -0.1224    0.2731 N   0  0  0  0  0  0  0  0  0  0  0  0
    3.1345    0.4823    0.8770 C   0  0  0  0  0  0  0  0  0  0  0  0
    3.6253    1.7075    0.3464 N   0  0  0  0  0  0  0  0  0  0  0  0
    3.6722   -0.0875    1.8556 O   0  0  0  0  0  0  0  0  0  0  0  0
   -2.0114    1.0542   -1.7641 H   0  0  0  0  0  0  0  0  0  0  0  0
   -0.4622    1.5956   -0.9348 H   0  0  0  0  0  0  0  0  0  0  0  0
   -0.4723    0.3828   -2.2977 H   0  0  0  0  0  0  0  0  0  0  0  0
   -0.8609    0.0038    0.5968 H   0  0  0  0  0  0  0  0  0  0  0  0
   -2.7640   -1.2769    0.6346 H   0  0  0  0  0  0  0  0  0  0  0  0
   -3.0973   -1.0244   -1.1699 H   0  0  0  0  0  0  0  0  0  0  0  0
   -3.3763    0.7919    1.0624 H   0  0  0  0  0  0  0  0  0  0  0  0
   -4.2409    0.7223   -0.3676 H   0  0  0  0  0  0  0  0  0  0  0  0
    0.7220   -3.0550   -0.1306 H   0  0  0  0  0  0  0  0  0  0  0  0
   -0.2819   -2.3677    1.1922 H   0  0  0  0  0  0  0  0  0  0  0  0
    1.5416    0.3342   -0.5245 H   0  0  0  0  0  0  0  0  0  0  0  0
    3.3717    2.6215    0.7375 H   0  0  0  0  0  0  0  0  0  0  0  0
    4.2648    1.6689   -0.4684 H   0  0  0  0  0  0  0  0  0  0  0  0
  1  2  1  0
  2  3  1  0
  3  4  1  0
  2  5  1  0
  5  6  1  0
  6  7  1  0
  7  8  2  0
  7  9  1  0
  9 10  1  0
 10 11  1  0
 10 12  2  0
  1 13  1  0
  1 14  1  0
  1 15  1  0
  2 16  1  1
  3 17  1  0
  3 18  1  0
  4 19  1  0
  4 20  1  0
  6 21  1  0
  6 22  1  0
  9 23  1  0
 11 24  1  0
 11 25  1  0
M  END
$$$$

     RDKit          3D

 25 24  0  0  0  0  0  0  0  0999 V2000
   -2.2899    1.7693   -1.6508 C   0  0  0  0  0  0  0  0  0  0  0  0
   -1.8881    0.7643   -0.6036 C   0  0  1  0  0  0  0  0  0  0  0  0
   -3.0627   -0.0908   -0.1819 C   0  0  0  0  0  0  0  0  0  0  0  0
   -2.6467   -0.9897    0.8783 N   0  0  0  0  0  0  0  0  0  0  0  0
   -0.8288   -0.0023   -1.0732 O   0  0  0  0  0  0  0  0  0  0  0  0
    0.2628    0.2020   -0.2719 C   0  0  0  0  0  0  0  0  0  0  0  0
    1.4503   -0.5698   -0.6853 C   0  0  0  0  0  0  0  0  0  0  0  0
    1.4642   -1.3469   -1.6830 O   0  0  0  0  0  0  0  0  0  0  0  0
    2.6447   -0.4375    0.0734 N   0  0  0  0  0  0  0  0  0  0  0  0
    3.8414   -1.1436   -0.2508 C   0  0  0  0  0  0  0  0  0  0  0  0
    5.0357   -1.0113    0.5076 N   0  0  0  0  0  0  0  0  0  0  0  0
    3.7882   -1.9119   -1.2702 O   0  0  0  0  0  0  0  0  0  0  0  0
   -3.3728    2.0081   -1.6119 H   0  0  0  0  0  0  0  0  0  0  0  0
   -2.0291    1.4235   -2.6686 H   0  0  0  0  0  0  0  0  0  0  0  0
   -1.7406    2.7304   -1.4974 H   0  0  0  0  0  0  0  0  0  0  0  0
   -1.5604    1.3281    0.2865 H   0  0  0  0  0  0  0  0  0  0  0  0
   -3.8297    0.5913    0.2438 H   0  0  0  0  0  0  0  0  0  0  0  0
   -3.5057   -0.6386   -1.0421 H   0  0  0  0  0  0  0  0  0  0  0  0
   -3.2380   -1.8488    0.9267 H   0  0  0  0  0  0  0  0  0  0  0  0
   -2.7126   -0.4873    1.7821 H   0  0  0  0  0  0  0  0  0  0  0  0
    0.5291    1.2947   -0.3416 H   0  0  0  0  0  0  0  0  0  0  0  0
    0.0203    0.0500    0.8128 H   0  0  0  0  0  0  0  0  0  0  0  0
    2.6891    0.1919    0.9090 H   0  0  0  0  0  0  0  0  0  0  0  0
    5.4511   -1.7815    1.0680 H   0  0  0  0  0  0  0  0  0  0  0  0
    5.5282   -0.0935    0.5067 H   0  0  0  0  0  0  0  0  0  0  0  0
  1  2  1  0
  2  3  1  0
  3  4  1  0
  2  5  1  0
  5  6  1  0
  6  7  1  0
  7  8  2  0
  7  9  1  0
  9 10  1  0
 10 11  1  0
 10 12  2  0
  1 13  1  0
  1 14  1  0
  1 15  1  0
  2 16  1  1
  3 17  1  0
  3 18  1  0
  4 19  1  0
  4 20  1  0
  6 21  1  0
  6 22  1  0
  9 23  1  0
 11 24  1  0
 11 25  1  0
M  END
$$$$
