
     RDKit          3D

 30 30  0  0  0  0  0  0  0  0999 V2000
   -2.6504    1.7107    0.8494 C   0  0  0  0  0  0  0  0  0  0  0  0
   -2.7765    0.2124    0.6842 C   0  0  1  0  0  0  0  0  0  0  0  0
   -3.7682   -0.1821   -0.3311 N   0  0  0  0  0  0  0  0  0  0  0  0
   -2.9179   -1.3176   -0.6041 C   0  0  0  0  0  0  0  0  0  0  0  0
   -1.7521   -0.4230   -0.2241 C   0  0  2  0  0  0  0  0  0  0  0  0
   -0.6451   -1.0862    0.3950 N   0  0  0  0  0  0  0  0  0  0  0  0
    0.5549   -0.9700   -0.4114 C   0  0  0  0  0  0  0  0  0  0  0  0
    1.0823    0.4518   -0.3855 C   0  0  0  0  0  0  0  0  0  0  0  0
    2.1854    0.6805   -1.1155 O   0  0  0  0  0  0  0  0  0  0  0  0
    3.3404    0.0262   -0.9108 C   0  0  0  0  0  0  0  0  0  0  0  0
    4.0186    0.1595    0.4119 C   0  0  0  0  0  0  0  0  0  0  0  0
    4.3758    1.4551    0.7513 O   0  0  0  0  0  0  0  0  0  0  0  0
   -1.6180    1.9089    1.2021 H   0  0  0  0  0  0  0  0  0  0  0  0
   -2.8460    2.2338   -0.0795 H   0  0  0  0  0  0  0  0  0  0  0  0
   -3.3289    1.9682    1.6959 H   0  0  0  0  0  0  0  0  0  0  0  0
   -2.9295   -0.3731    1.5851 H   0  0  0  0  0  0  0  0  0  0  0  0
   -4.7159   -0.3849    0.0523 H   0  0  0  0  0  0  0  0  0  0  0  0
   -3.1400   -2.0975    0.1762 H   0  0  0  0  0  0  0  0  0  0  0  0
   -2.9012   -1.6766   -1.6409 H   0  0  0  0  0  0  0  0  0  0  0  0
   -1.4384    0.1511   -1.1172 H   0  0  0  0  0  0  0  0  0  0  0  0
   -0.8287   -2.0535    0.7398 H   0  0  0  0  0  0  0  0  0  0  0  0
    1.3158   -1.6400    0.0435 H   0  0  0  0  0  0  0  0  0  0  0  0
    0.4152   -1.3222   -1.4349 H   0  0  0  0  0  0  0  0  0  0  0  0
    0.2504    1.1474   -0.7329 H   0  0  0  0  0  0  0  0  0  0  0  0
    1.1946    0.7247    0.7114 H   0  0  0  0  0  0  0  0  0  0  0  0
    3.2259   -1.0809   -1.1289 H   0  0  0  0  0  0  0  0  0  0  0  0
    4.0476    0.3444   -1.7485 H   0  0  0  0  0  0  0  0  0  0  0  0
    3.4743   -0.2964    1.2613 H   0  0  0  0  0  0  0  0  0  0  0  0
    5.0146   -0.3978    0.2786 H   0  0  0  0  0  0  0  0  0  0  0  0
    3.7612    2.1270    0.3761 H   0  0  0  0  0  0  0  0  0  0  0  0
  1  2  1  0
  2  3  1  0
  3  4  1  0
  4  5  1  0
  5  6  1  0
  6  7  1  0
  7  8  1  0
  8  9  1  0
  9 10  1  0
 10 11  1  0
 11 12  1  0
  5  2  1  0
  1 13  1  0
  1 14  1  0
  1 15  1  0
  2 16  1  1
  3 17  1  0
  4 18  1  0
  4 19  1  0
  5 20  1  6
  6 21  1  0
  7 22  1  0
  7 23  1  0
  8 24  1  0
  8 25  1  0
 10 26  1  0
 10 27  1  0
 11 28  1  0
 11 29  1  0
 12 30  1  0
M  END
$$$$

     RDKit          3D

 30 30  0  0  0  0  0  0  0  0999 V2000
   -2.6503    0.0978    1.8291 C   0  0  0  0  0  0  0  0  0  0  0  0
   -1.7159   -0.1874    0.6292 C   0  0  1  0  0  0  0  0  0  0  0  0
   -2.1766   -1.3296   -0.0893 N   0  0  0  0  0  0  0  0  0  0  0  0
   -2.8281   -0.4436   -1.0190 C   0  0  0  0  0  0  0  0  0  0  0  0
   -2.0060    0.6948   -0.5540 C   0  0  2  0  0  0  0  0  0  0  0  0
   -0.9431    1.2054   -1.2495 N   0  0  0  0  0  0  0  0  0  0  0  0
    0.0221    0.5142   -1.9497 C   0  0  0  0  0  0  0  0  0  0  0  0
    1.0189   -0.3123   -1.1844 C   0  0  0  0  0  0  0  0  0  0  0  0
    1.7653    0.4691   -0.2889 O   0  0  0  0  0  0  0  0  0  0  0  0
    2.6796   -0.3100    0.4117 C   0  0  0  0  0  0  0  0  0  0  0  0
    3.4237    0.6372    1.3458 C   0  0  0  0  0  0  0  0  0  0  0  0
    4.3449   -0.1346    2.0550 O   0  0  0  0  0  0  0  0  0  0  0  0
   -3.7080    0.0809    1.5022 H   0  0  0  0  0  0  0  0  0  0  0  0
   -2.4242   -0.7081    2.5611 H   0  0  0  0  0  0  0  0  0  0  0  0
   -2.3368    1.0495    2.2836 H   0  0  0  0  0  0  0  0  0  0  0  0
   -0.7000   -0.1745    1.0335 H   0  0  0  0  0  0  0  0  0  0  0  0
   -1.5433   -2.0408   -0.4274 H   0  0  0  0  0  0  0  0  0  0  0  0
   -2.8416   -0.7147   -2.0650 H   0  0  0  0  0  0  0  0  0  0  0  0
   -3.9060   -0.3596   -0.6846 H   0  0  0  0  0  0  0  0  0  0  0  0
   -2.6998    1.5442   -0.2265 H   0  0  0  0  0  0  0  0  0  0  0  0
   -0.8391    2.2219   -1.2957 H   0  0  0  0  0  0  0  0  0  0  0  0
    0.6584    1.2804   -2.5035 H   0  0  0  0  0  0  0  0  0  0  0  0
   -0.3347   -0.1274   -2.7931 H   0  0  0  0  0  0  0  0  0  0  0  0
    0.6240   -1.1607   -0.6345 H   0  0  0  0  0  0  0  0  0  0  0  0
    1.7741   -0.7649   -1.9041 H   0  0  0  0  0  0  0  0  0  0  0  0
    2.1170   -1.0736    0.9772 H   0  0  0  0  0  0  0  0  0  0  0  0
    3.3745   -0.7516   -0.3284 H   0  0  0  0  0  0  0  0  0  0  0  0
    2.7298    1.0832    2.0830 H   0  0  0  0  0  0  0  0  0  0  0  0
    3.8820    1.4545    0.7766 H   0  0  0  0  0  0  0  0  0  0  0  0
    5.2390    0.1260    1.7096 H   0  0  0  0  0  0  0  0  0  0  0  0
  1  2  1  0
  2  3  1  0
  3  4  1  0
  4  5  1  0
  5  6  1  0
  6  7  1  0
  7  8  1  0
  8  9  1  0
  9 10  1  0
 10 11  1  0
 11 12  1  0
  5  2  1  0
  1 13  1  0
  1 14  1  0
  1 15  1  0
  2 16  1  1
  3 17  1  0
  4 18  1  0
  4 19  1  0
  5 20  1  1
  6 21  1  0
  7 22  1  0
  7 23  1  0
  8 24  1  0
  8 25  1  0
 10 26  1  0
 10 27  1  0
 11 28  1  0
 11 29  1  0
 12 30  1  0
M  END
$$$$

     RDKit          3D

 30 30  0  0  0  0  0  0  0  0999 V2000
    3.3519    1.7272   -0.0500 C   0  0  0  0  0  0  0  0  0  0  0  0
    2.6803    0.4235   -0.4426 C   0  0  1  0  0  0  0  0  0  0  0  0
    3.7105   -0.6242   -0.5155 N   0  0  0  0  0  0  0  0  0  0  0  0
    2.8245   -1.5201    0.2038 C   0  0  0  0  0  0  0  0  0  0  0  0
    2.0734   -0.2948    0.7234 C   0  0  2  0  0  0  0  0  0  0  0  0
    0.6835   -0.5235    0.7447 N   0  0  0  0  0  0  0  0  0  0  0  0
   -0.1585    0.6208    0.7640 C   0  0  0  0  0  0  0  0  0  0  0  0
   -1.6102    0.1239    0.7874 C   0  0  0  0  0  0  0  0  0  0  0  0
   -1.8831   -0.6416   -0.3313 O   0  0  0  0  0  0  0  0  0  0  0  0
   -3.1781   -1.1153   -0.3423 C   0  0  0  0  0  0  0  0  0  0  0  0
   -4.2359   -0.0574   -0.3342 C   0  0  0  0  0  0  0  0  0  0  0  0
   -4.0959    0.7520   -1.4596 O   0  0  0  0  0  0  0  0  0  0  0  0
    3.2150    2.4612   -0.8723 H   0  0  0  0  0  0  0  0  0  0  0  0
    2.9470    2.1073    0.9205 H   0  0  0  0  0  0  0  0  0  0  0  0
    4.4403    1.6263    0.0952 H   0  0  0  0  0  0  0  0  0  0  0  0
    2.1002    0.4510   -1.3729 H   0  0  0  0  0  0  0  0  0  0  0  0
    3.9276   -0.9482   -1.4714 H   0  0  0  0  0  0  0  0  0  0  0  0
    2.2505   -2.1605   -0.4780 H   0  0  0  0  0  0  0  0  0  0  0  0
    3.2869   -2.0349    1.0623 H   0  0  0  0  0  0  0  0  0  0  0  0
    2.4500    0.0704    1.6921 H   0  0  0  0  0  0  0  0  0  0  0  0
    0.3292   -1.3534    0.2740 H   0  0  0  0  0  0  0  0  0  0  0  0
   -0.0621    1.1974   -0.1823 H   0  0  0  0  0  0  0  0  0  0  0  0
    0.0542    1.2641    1.6174 H   0  0  0  0  0  0  0  0  0  0  0  0
   -2.3048    0.9801    0.8700 H   0  0  0  0  0  0  0  0  0  0  0  0
   -1.7905   -0.5209    1.6823 H   0  0  0  0  0  0  0  0  0  0  0  0
   -3.3577   -1.7828   -1.2050 H   0  0  0  0  0  0  0  0  0  0  0  0
   -3.3460   -1.7416    0.5766 H   0  0  0  0  0  0  0  0  0  0  0  0
   -5.2699   -0.5091   -0.3956 H   0  0  0  0  0  0  0  0  0  0  0  0
   -4.2563    0.5540    0.5808 H   0  0  0  0  0  0  0  0  0  0  0  0
   -4.7759    1.4690   -1.4566 H   0  0  0  0  0  0  0  0  0  0  0  0
  1  2  1  0
  2  3  1  0
  3  4  1  0
  4  5  1  0
  5  6  1  0
  6  7  1  0
  7  8  1  0
  8  9  1  0
  9 10  1  0
 10 11  1  0
 11 12  1  0
  5  2  1  0
  1 13  1  0
  1 14  1  0
  1 15  1  0
  2 16  1  6
  3 17  1  0
  4 18  1  0
  4 19  1  0
  5 20  1  1
  6 21  1  0
  7 22  1  0
  7 23  1  0
  8 24  1  0
  8 25  1  0
 10 26  1  0
 10 27  1  0
 11 28  1  0
 11 29  1  0
 12 30  1  0
M  END
$$$$

     RDKit          3D

 30 30  0  0  0  0  0  0  0  0999 V2000
   -3.8264   -1.0924    0.6051 C   0  0  0  0  0  0  0  0  0  0  0  0
   -2.7803   -0.8657   -0.4678 C   0  0  1  0  0  0  0  0  0  0  0  0
   -3.1253    0.2928   -1.2462 N   0  0  0  0  0  0  0  0  0  0  0  0
   -2.5272    1.0936   -0.1718 C   0  0  0  0  0  0  0  0  0  0  0  0
   -1.5899   -0.0857    0.0673 C   0  0  2  0  0  0  0  0  0  0  0  0
   -0.4841   -0.0454   -0.8704 N   0  0  0  0  0  0  0  0  0  0  0  0
    0.6284    0.6146   -0.1649 C   0  0  0  0  0  0  0  0  0  0  0  0
    1.8373    0.7001   -1.0853 C   0  0  0  0  0  0  0  0  0  0  0  0
    2.9199    1.2976   -0.5233 O   0  0  0  0  0  0  0  0  0  0  0  0
    3.3530    0.6633    0.6129 C   0  0  0  0  0  0  0  0  0  0  0  0
    3.7404   -0.7596    0.2910 C   0  0  0  0  0  0  0  0  0  0  0  0
    4.1802   -1.3483    1.4899 O   0  0  0  0  0  0  0  0  0  0  0  0
   -3.3506   -1.2960    1.5947 H   0  0  0  0  0  0  0  0  0  0  0  0
   -4.4117   -2.0187    0.3751 H   0  0  0  0  0  0  0  0  0  0  0  0
   -4.5711   -0.2761    0.6565 H   0  0  0  0  0  0  0  0  0  0  0  0
   -2.5096   -1.7786   -1.0257 H   0  0  0  0  0  0  0  0  0  0  0  0
   -2.6831    0.3931   -2.1704 H   0  0  0  0  0  0  0  0  0  0  0  0
   -2.0421    2.0145   -0.5290 H   0  0  0  0  0  0  0  0  0  0  0  0
   -3.2424    1.2732    0.6383 H   0  0  0  0  0  0  0  0  0  0  0  0
   -1.3361   -0.2720    1.1094 H   0  0  0  0  0  0  0  0  0  0  0  0
   -0.7104    0.5848   -1.6617 H   0  0  0  0  0  0  0  0  0  0  0  0
    0.8396   -0.0170    0.7022 H   0  0  0  0  0  0  0  0  0  0  0  0
    0.3543    1.6524    0.1078 H   0  0  0  0  0  0  0  0  0  0  0  0
    1.5674    1.3124   -1.9991 H   0  0  0  0  0  0  0  0  0  0  0  0
    2.0874   -0.2857   -1.4925 H   0  0  0  0  0  0  0  0  0  0  0  0
    2.5792    0.6627    1.4346 H   0  0  0  0  0  0  0  0  0  0  0  0
    4.2573    1.1796    1.0335 H   0  0  0  0  0  0  0  0  0  0  0  0
    2.8714   -1.3708   -0.0597 H   0  0  0  0  0  0  0  0  0  0  0  0
    4.5251   -0.7983   -0.4667 H   0  0  0  0  0  0  0  0  0  0  0  0
    3.4494   -1.4244    2.1355 H   0  0  0  0  0  0  0  0  0  0  0  0
  1  2  1  0
  2  3  1  0
  3  4  1  0
  4  5  1  0
  5  6  1  0
  6  7  1  0
  7  8  1  0
  8  9  1  0
  9 10  1  0
 10 11  1  0
 11 12  1  0
  5  2  1  0
  1 13  1  0
  1 14  1  0
  1 15  1  0
  2 16  1  6
  3 17  1  0
  4 18  1  0
  4 19  1  0
  5 20  1  1
  6 21  1  0
  7 22  1  0
  7 23  1  0
  8 24  1  0
  8 25  1  0
 10 26  1  0
 10 27  1  0
 11 28  1  0
 11 29  1  0
 12 30  1  0
M  END
$$$$

     RDKit          3D

 30 30  0  0  0  0  0  0  0  0999 V2000
   -4.0111   -0.2012    0.4738 C   0  0  0  0  0  0  0  0  0  0  0  0
   -2.8820   -0.0400   -0.5128 C   0  0  1  0  0  0  0  0  0  0  0  0
   -2.7420    1.3358   -1.0011 N   0  0  0  0  0  0  0  0  0  0  0  0
   -1.9077    1.5714    0.1896 C   0  0  0  0  0  0  0  0  0  0  0  0
   -1.4997    0.1262    0.0806 C   0  0  2  0  0  0  0  0  0  0  0  0
   -0.5205   -0.0492   -0.9480 N   0  0  0  0  0  0  0  0  0  0  0  0
    0.5377   -0.9288   -0.4766 C   0  0  0  0  0  0  0  0  0  0  0  0
    1.2961   -0.1406    0.6105 C   0  0  0  0  0  0  0  0  0  0  0  0
    2.2987   -0.9232    1.0760 O   0  0  0  0  0  0  0  0  0  0  0  0
    3.3011   -1.2345    0.2322 C   0  0  0  0  0  0  0  0  0  0  0  0
    4.1739   -0.0679   -0.1190 C   0  0  0  0  0  0  0  0  0  0  0  0
    3.4746    0.9432   -0.7329 O   0  0  0  0  0  0  0  0  0  0  0  0
   -4.1947    0.7244    1.0786 H   0  0  0  0  0  0  0  0  0  0  0  0
   -3.8808   -1.0474    1.1559 H   0  0  0  0  0  0  0  0  0  0  0  0
   -4.9401   -0.3106   -0.1613 H   0  0  0  0  0  0  0  0  0  0  0  0
   -2.8949   -0.8082   -1.2839 H   0  0  0  0  0  0  0  0  0  0  0  0
   -3.6257    1.8777   -1.0101 H   0  0  0  0  0  0  0  0  0  0  0  0
   -2.4810    1.8010    1.1158 H   0  0  0  0  0  0  0  0  0  0  0  0
   -1.1003    2.3183    0.0309 H   0  0  0  0  0  0  0  0  0  0  0  0
   -1.3538   -0.4215    1.0275 H   0  0  0  0  0  0  0  0  0  0  0  0
   -0.9276   -0.4185   -1.8462 H   0  0  0  0  0  0  0  0  0  0  0  0
    0.0874   -1.8028    0.0520 H   0  0  0  0  0  0  0  0  0  0  0  0
    1.1569   -1.1999   -1.3226 H   0  0  0  0  0  0  0  0  0  0  0  0
    0.5083    0.0231    1.4271 H   0  0  0  0  0  0  0  0  0  0  0  0
    1.5494    0.8755    0.2591 H   0  0  0  0  0  0  0  0  0  0  0  0
    2.9759   -1.7211   -0.7420 H   0  0  0  0  0  0  0  0  0  0  0  0
    3.9762   -2.0293    0.7107 H   0  0  0  0  0  0  0  0  0  0  0  0
    4.6528    0.3180    0.8270 H   0  0  0  0  0  0  0  0  0  0  0  0
    5.0419   -0.4068   -0.7548 H   0  0  0  0  0  0  0  0  0  0  0  0
    3.9311    1.8368   -0.6668 H   0  0  0  0  0  0  0  0  0  0  0  0
  1  2  1  0
  2  3  1  0
  3  4  1  0
  4  5  1  0
  5  6  1  0
  6  7  1  0
  7  8  1  0
  8  9  1  0
  9 10  1  0
 10 11  1  0
 11 12  1  0
  5  2  1  0
  1 13  1  0
  1 14  1  0
  1 15  1  0
  2 16  1  6
  3 17  1  0
  4 18  1  0
  4 19  1  0
  5 20  1  1
  6 21  1  0
  7 22  1  0
  7 23  1  0
  8 24  1  0
  8 25  1  0
 10 26  1  0
 10 27  1  0
 11 28  1  0
 11 29  1  0
 12 30  1  0
M  END
$$$$

     RDKit          3D

 30 30  0  0  0  0  0  0  0  0999 V2000
   -3.6100    0.8092   -0.5768 C   0  0  0  0  0  0  0  0  0  0  0  0
   -2.5988    0.2673    0.4102 C   0  0  1  0  0  0  0  0  0  0  0  0
   -3.0468   -0.9794    0.9663 N   0  0  0  0  0  0  0  0  0  0  0  0
   -2.3174   -1.6793   -0.0612 C   0  0  0  0  0  0  0  0  0  0  0  0
   -1.4363   -0.4612   -0.2113 C   0  0  2  0  0  0  0  0  0  0  0  0
   -0.3148   -0.5299    0.6285 N   0  0  0  0  0  0  0  0  0  0  0  0
    0.3135    0.6842    0.9979 C   0  0  0  0  0  0  0  0  0  0  0  0
    0.9967    1.3818   -0.1665 C   0  0  0  0  0  0  0  0  0  0  0  0
    1.9781    0.6025   -0.7471 O   0  0  0  0  0  0  0  0  0  0  0  0
    3.0122    0.2317    0.0694 C   0  0  0  0  0  0  0  0  0  0  0  0
    3.9689   -0.6237   -0.7629 C   0  0  0  0  0  0  0  0  0  0  0  0
    5.0267   -1.0150    0.0447 O   0  0  0  0  0  0  0  0  0  0  0  0
   -3.5773    0.3053   -1.5422 H   0  0  0  0  0  0  0  0  0  0  0  0
   -3.4664    1.8901   -0.7628 H   0  0  0  0  0  0  0  0  0  0  0  0
   -4.6378    0.6751   -0.1730 H   0  0  0  0  0  0  0  0  0  0  0  0
   -2.3574    1.0614    1.1448 H   0  0  0  0  0  0  0  0  0  0  0  0
   -4.0812   -1.1250    0.9456 H   0  0  0  0  0  0  0  0  0  0  0  0
   -2.9027   -1.9473   -0.9617 H   0  0  0  0  0  0  0  0  0  0  0  0
   -1.7885   -2.5764    0.3304 H   0  0  0  0  0  0  0  0  0  0  0  0
   -1.2571   -0.1982   -1.2846 H   0  0  0  0  0  0  0  0  0  0  0  0
    0.2983   -1.3540    0.5357 H   0  0  0  0  0  0  0  0  0  0  0  0
   -0.3972    1.3639    1.5046 H   0  0  0  0  0  0  0  0  0  0  0  0
    1.0994    0.4749    1.7498 H   0  0  0  0  0  0  0  0  0  0  0  0
    1.3799    2.3659    0.1741 H   0  0  0  0  0  0  0  0  0  0  0  0
    0.1986    1.5176   -0.9360 H   0  0  0  0  0  0  0  0  0  0  0  0
    3.5639    1.1157    0.4612 H   0  0  0  0  0  0  0  0  0  0  0  0
    2.7067   -0.4065    0.9205 H   0  0  0  0  0  0  0  0  0  0  0  0
    4.3612   -0.0716   -1.6168 H   0  0  0  0  0  0  0  0  0  0  0  0
    3.4371   -1.5322   -1.1445 H   0  0  0  0  0  0  0  0  0  0  0  0
    5.4484   -0.2469    0.5066 H   0  0  0  0  0  0  0  0  0  0  0  0
  1  2  1  0
  2  3  1  0
  3  4  1  0
  4  5  1  0
  5  6  1  0
  6  7  1  0
  7  8  1  0
  8  9  1  0
  9 10  1  0
 10 11  1  0
 11 12  1  0
  5  2  1  0
  1 13  1  0
  1 14  1  0
  1 15  1  0
  2 16  1  1
  3 17  1  0
  4 18  1  0
  4 19  1  0
  5 20  1  6
  6 21  1  0
  7 22  1  0
  7 23  1  0
  8 24  1  0
  8 25  1  0
 10 26  1  0
 10 27  1  0
 11 28  1  0
 11 29  1  0
 12 30  1  0
M  END
$$$$

     RDKit          3D

 30 30  0  0  0  0  0  0  0  0999 V2000
   -2.8784    2.1194    0.3838 C   0  0  0  0  0  0  0  0  0  0  0  0
   -2.9790    0.6202    0.2692 C   0  0  1  0  0  0  0  0  0  0  0  0
   -3.4287    0.1615   -1.0404 N   0  0  0  0  0  0  0  0  0  0  0  0
   -2.5440   -0.9719   -0.8259 C   0  0  0  0  0  0  0  0  0  0  0  0
   -1.6199    0.0266   -0.1177 C   0  0  2  0  0  0  0  0  0  0  0  0
   -0.9022   -0.5468    0.9874 N   0  0  0  0  0  0  0  0  0  0  0  0
   -0.1040   -1.6500    0.6109 C   0  0  0  0  0  0  0  0  0  0  0  0
    1.1173   -1.3646   -0.2083 C   0  0  0  0  0  0  0  0  0  0  0  0
    2.0135   -0.5269    0.4597 O   0  0  0  0  0  0  0  0  0  0  0  0
    3.1459   -0.3327   -0.3583 C   0  0  0  0  0  0  0  0  0  0  0  0
    4.1453    0.5350    0.3853 C   0  0  0  0  0  0  0  0  0  0  0  0
    3.5825    1.7667    0.7016 O   0  0  0  0  0  0  0  0  0  0  0  0
   -2.2251    2.4223    1.2289 H   0  0  0  0  0  0  0  0  0  0  0  0
   -2.3952    2.4823   -0.5449 H   0  0  0  0  0  0  0  0  0  0  0  0
   -3.8951    2.5875    0.4947 H   0  0  0  0  0  0  0  0  0  0  0  0
   -3.5037    0.0981    1.0974 H   0  0  0  0  0  0  0  0  0  0  0  0
   -2.9811    0.7744   -1.7684 H   0  0  0  0  0  0  0  0  0  0  0  0
   -2.1326   -1.4503   -1.7105 H   0  0  0  0  0  0  0  0  0  0  0  0
   -2.9689   -1.6397   -0.0355 H   0  0  0  0  0  0  0  0  0  0  0  0
   -1.1151    0.6627   -0.8227 H   0  0  0  0  0  0  0  0  0  0  0  0
   -0.4537    0.1697    1.5641 H   0  0  0  0  0  0  0  0  0  0  0  0
    0.2615   -2.1764    1.5404 H   0  0  0  0  0  0  0  0  0  0  0  0
   -0.7226   -2.3804    0.0271 H   0  0  0  0  0  0  0  0  0  0  0  0
    1.6350   -2.3324   -0.3863 H   0  0  0  0  0  0  0  0  0  0  0  0
    0.9131   -0.9292   -1.2049 H   0  0  0  0  0  0  0  0  0  0  0  0
    3.6004   -1.3539   -0.4795 H   0  0  0  0  0  0  0  0  0  0  0  0
    2.8979    0.0455   -1.3564 H   0  0  0  0  0  0  0  0  0  0  0  0
    4.5464    0.0112    1.2530 H   0  0  0  0  0  0  0  0  0  0  0  0
    4.9969    0.6942   -0.3283 H   0  0  0  0  0  0  0  0  0  0  0  0
    3.9935    2.4779    0.1844 H   0  0  0  0  0  0  0  0  0  0  0  0
  1  2  1  0
  2  3  1  0
  3  4  1  0
  4  5  1  0
  5  6  1  0
  6  7  1  0
  7  8  1  0
  8  9  1  0
  9 10  1  0
 10 11  1  0
 11 12  1  0
  5  2  1  0
  1 13  1  0
  1 14  1  0
  1 15  1  0
  2 16  1  1
  3 17  1  0
  4 18  1  0
  4 19  1  0
  5 20  1  6
  6 21  1  0
  7 22  1  0
  7 23  1  0
  8 24  1  0
  8 25  1  0
 10 26  1  0
 10 27  1  0
 11 28  1  0
 11 29  1  0
 12 30  1  0
M  END
$$$$

     RDKit          3D

 30 30  0  0  0  0  0  0  0  0999 V2000
   -3.9308   -0.8010    0.1163 C   0  0  0  0  0  0  0  0  0  0  0  0
   -2.7426    0.0554   -0.2091 C   0  0  1  0  0  0  0  0  0  0  0  0
   -2.9999    1.4648    0.0784 N   0  0  0  0  0  0  0  0  0  0  0  0
   -1.6756    1.5408    0.6939 C   0  0  0  0  0  0  0  0  0  0  0  0
   -1.6777    0.0683    0.8867 C   0  0  2  0  0  0  0  0  0  0  0  0
   -0.5324   -0.6903    0.5693 N   0  0  0  0  0  0  0  0  0  0  0  0
    0.2444   -0.2604   -0.5604 C   0  0  0  0  0  0  0  0  0  0  0  0
    1.3989   -1.2201   -0.8362 C   0  0  0  0  0  0  0  0  0  0  0  0
    2.2845   -1.3712    0.1749 O   0  0  0  0  0  0  0  0  0  0  0  0
    2.9792   -0.2867    0.6134 C   0  0  0  0  0  0  0  0  0  0  0  0
    3.8305    0.3600   -0.4653 C   0  0  0  0  0  0  0  0  0  0  0  0
    4.5251    1.4631    0.0648 O   0  0  0  0  0  0  0  0  0  0  0  0
   -4.0902   -1.5551   -0.6870 H   0  0  0  0  0  0  0  0  0  0  0  0
   -3.7652   -1.3617    1.0788 H   0  0  0  0  0  0  0  0  0  0  0  0
   -4.8657   -0.2375    0.2138 H   0  0  0  0  0  0  0  0  0  0  0  0
   -2.3766   -0.0605   -1.2285 H   0  0  0  0  0  0  0  0  0  0  0  0
   -3.1223    2.0534   -0.7559 H   0  0  0  0  0  0  0  0  0  0  0  0
   -0.9248    1.9970    0.0430 H   0  0  0  0  0  0  0  0  0  0  0  0
   -1.8011    2.1001    1.6696 H   0  0  0  0  0  0  0  0  0  0  0  0
   -2.0885   -0.2377    1.8799 H   0  0  0  0  0  0  0  0  0  0  0  0
   -0.6561   -1.6936    0.6723 H   0  0  0  0  0  0  0  0  0  0  0  0
    0.5905    0.7769   -0.4846 H   0  0  0  0  0  0  0  0  0  0  0  0
   -0.3991   -0.3316   -1.4597 H   0  0  0  0  0  0  0  0  0  0  0  0
    0.9117   -2.2299   -0.9899 H   0  0  0  0  0  0  0  0  0  0  0  0
    1.8385   -0.9768   -1.8251 H   0  0  0  0  0  0  0  0  0  0  0  0
    3.6812   -0.6374    1.4146 H   0  0  0  0  0  0  0  0  0  0  0  0
    2.3203    0.4665    1.1081 H   0  0  0  0  0  0  0  0  0  0  0  0
    3.0975    0.8102   -1.2040 H   0  0  0  0  0  0  0  0  0  0  0  0
    4.5433   -0.3146   -0.9396 H   0  0  0  0  0  0  0  0  0  0  0  0
    5.4029    1.1098    0.3677 H   0  0  0  0  0  0  0  0  0  0  0  0
  1  2  1  0
  2  3  1  0
  3  4  1  0
  4  5  1  0
  5  6  1  0
  6  7  1  0
  7  8  1  0
  8  9  1  0
  9 10  1  0
 10 11  1  0
 11 12  1  0
  5  2  1  0
  1 13  1  0
  1 14  1  0
  1 15  1  0
  2 16  1  6
  3 17  1  0
  4 18  1  0
  4 19  1  0
  5 20  1  1
  6 21  1  0
  7 22  1  0
  7 23  1  0
  8 24  1  0
  8 25  1  0
 10 26  1  0
 10 27  1  0
 11 28  1  0
 11 29  1  0
 12 30  1  0
M  END
$$$$
