
     RDKit          3D

 28 27  0  0  0  0  0  0  0  0999 V2000
    3.1083   -0.9196   -0.1328 C   0  0  0  0  0  0  0  0  0  0  0  0
    2.2048    0.6111    0.0274 S   0  0  0  0  0  4  0  0  0  0  0  0
    3.0830    1.8176    0.1472 O   0  0  0  0  0  0  0  0  0  0  0  0
    0.8188    0.5616    0.9626 N   0  0  0  0  0  0  0  0  0  0  0  0
   -0.4149    0.1651    0.3679 C   0  0  0  0  0  0  0  0  0  0  0  0
   -0.9017    0.9868   -0.7542 C   0  0  0  0  0  0  0  0  0  0  0  0
   -1.0933    2.4268   -0.2445 C   0  0  0  0  0  0  0  0  0  0  0  0
    0.1544    2.9732    0.2468 N   0  0  0  0  0  0  0  0  0  0  0  0
   -0.3206   -1.2939   -0.0183 C   0  0  0  0  0  0  0  0  0  0  0  0
   -1.6202   -1.7318   -0.6524 C   0  0  0  0  0  0  0  0  0  0  0  0
   -1.5578   -3.1519   -1.0224 N   0  0  0  0  0  0  0  0  0  0  0  0
    2.9968   -1.4064   -1.1069 H   0  0  0  0  0  0  0  0  0  0  0  0
    4.1867   -0.6844   -0.0023 H   0  0  0  0  0  0  0  0  0  0  0  0
    2.8291   -1.5659    0.7190 H   0  0  0  0  0  0  0  0  0  0  0  0
    0.9662   -0.0109    1.8205 H   0  0  0  0  0  0  0  0  0  0  0  0
   -1.1932    0.2071    1.1837 H   0  0  0  0  0  0  0  0  0  0  0  0
   -0.3700    0.9381   -1.6947 H   0  0  0  0  0  0  0  0  0  0  0  0
   -1.9667    0.6712   -0.9740 H   0  0  0  0  0  0  0  0  0  0  0  0
   -1.7982    2.4012    0.6121 H   0  0  0  0  0  0  0  0  0  0  0  0
   -1.5590    3.0478   -1.0279 H   0  0  0  0  0  0  0  0  0  0  0  0
   -0.0705    3.6497    1.0255 H   0  0  0  0  0  0  0  0  0  0  0  0
    0.5972    3.5130   -0.5133 H   0  0  0  0  0  0  0  0  0  0  0  0
    0.5477   -1.4809   -0.6651 H   0  0  0  0  0  0  0  0  0  0  0  0
   -0.2527   -1.8590    0.9475 H   0  0  0  0  0  0  0  0  0  0  0  0
   -1.8035   -1.2046   -1.6359 H   0  0  0  0  0  0  0  0  0  0  0  0
   -2.4822   -1.5753   -0.0066 H   0  0  0  0  0  0  0  0  0  0  0  0
   -2.0879   -3.3414   -1.9031 H   0  0  0  0  0  0  0  0  0  0  0  0
   -2.0008   -3.7443   -0.2860 H   0  0  0  0  0  0  0  0  0  0  0  0
  1  2  1  0
  2  3  2  0
  2  4  1  6
  4  5  1  0
  5  6  1  0
  6  7  1  0
  7  8  1  0
  5  9  1  0
  9 10  1  0
 10 11  1  0
  1 12  1  0
  1 13  1  0
  1 14  1  0
  4 15  1  0
  5 16  1  0
  6 17  1  0
  6 18  1  0
  7 19  1  0
  7 20  1  0
  8 21  1  0
  8 22  1  0
  9 23  1  0
  9 24  1  0
 10 25  1  0
 10 26  1  0
 11 27  1  0
 11 28  1  0
M  END
$$$$

     RDKit          3D

 28 27  0  0  0  0  0  0  0  0999 V2000
   -1.7130    3.2543    0.3409 C   0  0  0  0  0  0  0  0  0  0  0  0
   -1.5220    1.4568    0.4289 S   0  0  0  0  0  4  0  0  0  0  0  0
   -2.8745    0.8882    0.8062 O   0  0  0  0  0  0  0  0  0  0  0  0
   -0.9984    0.8905   -1.1506 N   0  0  0  0  0  0  0  0  0  0  0  0
    0.0189   -0.2102   -0.9299 C   0  0  0  0  0  0  0  0  0  0  0  0
    1.0843    0.4704   -0.1714 C   0  0  0  0  0  0  0  0  0  0  0  0
    2.2975   -0.2721    0.2273 C   0  0  0  0  0  0  0  0  0  0  0  0
    3.1655    0.7111    0.9178 N   0  0  0  0  0  0  0  0  0  0  0  0
   -0.7796   -1.2779   -0.3300 C   0  0  0  0  0  0  0  0  0  0  0  0
   -0.1906   -2.5769    0.0351 C   0  0  0  0  0  0  0  0  0  0  0  0
   -1.3230   -3.3953    0.5641 N   0  0  0  0  0  0  0  0  0  0  0  0
   -1.3303    3.6784    1.3047 H   0  0  0  0  0  0  0  0  0  0  0  0
   -2.7846    3.5456    0.2648 H   0  0  0  0  0  0  0  0  0  0  0  0
   -1.1756    3.6847   -0.5197 H   0  0  0  0  0  0  0  0  0  0  0  0
   -0.4975    1.6633   -1.6038 H   0  0  0  0  0  0  0  0  0  0  0  0
    0.3871   -0.4086   -1.9621 H   0  0  0  0  0  0  0  0  0  0  0  0
    1.4262    1.3676   -0.7871 H   0  0  0  0  0  0  0  0  0  0  0  0
    0.6562    0.9531    0.7519 H   0  0  0  0  0  0  0  0  0  0  0  0
    2.0803   -1.0167    1.0060 H   0  0  0  0  0  0  0  0  0  0  0  0
    2.8914   -0.6784   -0.5968 H   0  0  0  0  0  0  0  0  0  0  0  0
    4.1667    0.5018    0.7043 H   0  0  0  0  0  0  0  0  0  0  0  0
    2.9193    1.6769    0.6608 H   0  0  0  0  0  0  0  0  0  0  0  0
   -1.6064   -1.5174   -1.0843 H   0  0  0  0  0  0  0  0  0  0  0  0
   -1.2773   -0.8750    0.6041 H   0  0  0  0  0  0  0  0  0  0  0  0
    0.5002   -2.5545    0.8831 H   0  0  0  0  0  0  0  0  0  0  0  0
    0.2463   -3.1567   -0.7855 H   0  0  0  0  0  0  0  0  0  0  0  0
   -2.0779   -2.7855    0.9141 H   0  0  0  0  0  0  0  0  0  0  0  0
   -1.6891   -4.0174   -0.1771 H   0  0  0  0  0  0  0  0  0  0  0  0
  1  2  1  0
  2  3  2  0
  2  4  1  6
  4  5  1  0
  5  6  1  0
  6  7  1  0
  7  8  1  0
  5  9  1  0
  9 10  1  0
 10 11  1  0
  1 12  1  0
  1 13  1  0
  1 14  1  0
  4 15  1  0
  5 16  1  0
  6 17  1  0
  6 18  1  0
  7 19  1  0
  7 20  1  0
  8 21  1  0
  8 22  1  0
  9 23  1  0
  9 24  1  0
 10 25  1  0
 10 26  1  0
 11 27  1  0
 11 28  1  0
M  END
$$$$

     RDKit          3D

 28 27  0  0  0  0  0  0  0  0999 V2000
    3.8023   -0.5827    0.8436 C   0  0  0  0  0  0  0  0  0  0  0  0
    2.5365    0.4051    0.0319 S   0  0  0  0  0  4  0  0  0  0  0  0
    3.0231    0.8161   -1.3527 O   0  0  0  0  0  0  0  0  0  0  0  0
    1.1334   -0.6107   -0.1917 N   0  0  0  0  0  0  0  0  0  0  0  0
   -0.0334    0.1224   -0.5422 C   0  0  0  0  0  0  0  0  0  0  0  0
   -1.1831   -0.7589   -0.7843 C   0  0  0  0  0  0  0  0  0  0  0  0
   -1.6846   -1.6348    0.2907 C   0  0  0  0  0  0  0  0  0  0  0  0
   -0.8038   -2.6190    0.8208 N   0  0  0  0  0  0  0  0  0  0  0  0
   -0.2983    1.2645    0.4077 C   0  0  0  0  0  0  0  0  0  0  0  0
   -1.5348    2.0405    0.0351 C   0  0  0  0  0  0  0  0  0  0  0  0
   -1.4003    2.6097   -1.3144 N   0  0  0  0  0  0  0  0  0  0  0  0
    3.9488   -0.1898    1.8762 H   0  0  0  0  0  0  0  0  0  0  0  0
    4.7488   -0.5591    0.2517 H   0  0  0  0  0  0  0  0  0  0  0  0
    3.5137   -1.6652    0.8874 H   0  0  0  0  0  0  0  0  0  0  0  0
    1.0545   -1.3447    0.5075 H   0  0  0  0  0  0  0  0  0  0  0  0
    0.2244    0.6401   -1.5192 H   0  0  0  0  0  0  0  0  0  0  0  0
   -2.0794   -0.1502   -1.1356 H   0  0  0  0  0  0  0  0  0  0  0  0
   -1.0161   -1.4324   -1.6852 H   0  0  0  0  0  0  0  0  0  0  0  0
   -2.5379   -2.2260   -0.1713 H   0  0  0  0  0  0  0  0  0  0  0  0
   -2.2240   -1.0599    1.1018 H   0  0  0  0  0  0  0  0  0  0  0  0
   -0.7222   -3.4826    0.2615 H   0  0  0  0  0  0  0  0  0  0  0  0
   -0.8739   -2.7680    1.8365 H   0  0  0  0  0  0  0  0  0  0  0  0
   -0.3867    0.9568    1.4533 H   0  0  0  0  0  0  0  0  0  0  0  0
    0.5688    1.9532    0.3316 H   0  0  0  0  0  0  0  0  0  0  0  0
   -2.4532    1.4322    0.0952 H   0  0  0  0  0  0  0  0  0  0  0  0
   -1.6559    2.8596    0.7758 H   0  0  0  0  0  0  0  0  0  0  0  0
   -1.4244    3.6541   -1.2368 H   0  0  0  0  0  0  0  0  0  0  0  0
   -2.2423    2.3298   -1.8750 H   0  0  0  0  0  0  0  0  0  0  0  0
  1  2  1  0
  2  3  2  0
  2  4  1  6
  4  5  1  0
  5  6  1  0
  6  7  1  0
  7  8  1  0
  5  9  1  0
  9 10  1  0
 10 11  1  0
  1 12  1  0
  1 13  1  0
  1 14  1  0
  4 15  1  0
  5 16  1  0
  6 17  1  0
  6 18  1  0
  7 19  1  0
  7 20  1  0
  8 21  1  0
  8 22  1  0
  9 23  1  0
  9 24  1  0
 10 25  1  0
 10 26  1  0
 11 27  1  0
 11 28  1  0
M  END
$$$$

     RDKit          3D

 28 27  0  0  0  0  0  0  0  0999 V2000
   -2.8828   -1.7007    0.3277 C   0  0  0  0  0  0  0  0  0  0  0  0
   -1.9713   -1.7102   -1.2076 S   0  0  0  0  0  4  0  0  0  0  0  0
   -2.3762   -0.5762   -2.1096 O   0  0  0  0  0  0  0  0  0  0  0  0
   -0.2536   -1.6220   -0.8950 N   0  0  0  0  0  0  0  0  0  0  0  0
    0.1984   -0.2360   -0.9567 C   0  0  0  0  0  0  0  0  0  0  0  0
    1.6672   -0.1268   -0.6930 C   0  0  0  0  0  0  0  0  0  0  0  0
    2.0635   -0.6424    0.6651 C   0  0  0  0  0  0  0  0  0  0  0  0
    3.5217   -0.4739    0.7800 N   0  0  0  0  0  0  0  0  0  0  0  0
   -0.5805    0.5519    0.0640 C   0  0  0  0  0  0  0  0  0  0  0  0
   -0.1696    1.9931    0.0589 C   0  0  0  0  0  0  0  0  0  0  0  0
   -0.9404    2.7546    1.0497 N   0  0  0  0  0  0  0  0  0  0  0  0
   -3.6729   -0.9195    0.3237 H   0  0  0  0  0  0  0  0  0  0  0  0
   -2.2348   -1.5170    1.2048 H   0  0  0  0  0  0  0  0  0  0  0  0
   -3.3474   -2.7145    0.4814 H   0  0  0  0  0  0  0  0  0  0  0  0
   -0.0652   -1.9966    0.0495 H   0  0  0  0  0  0  0  0  0  0  0  0
   -0.0110    0.0982   -1.9949 H   0  0  0  0  0  0  0  0  0  0  0  0
    2.2148   -0.7441   -1.4655 H   0  0  0  0  0  0  0  0  0  0  0  0
    1.9922    0.9132   -0.8101 H   0  0  0  0  0  0  0  0  0  0  0  0
    1.5805   -0.0810    1.4747 H   0  0  0  0  0  0  0  0  0  0  0  0
    1.8695   -1.7065    0.8023 H   0  0  0  0  0  0  0  0  0  0  0  0
    3.8110    0.4417    0.3691 H   0  0  0  0  0  0  0  0  0  0  0  0
    3.9802   -1.2571    0.2593 H   0  0  0  0  0  0  0  0  0  0  0  0
   -1.6723    0.4250   -0.1176 H   0  0  0  0  0  0  0  0  0  0  0  0
   -0.4020    0.1011    1.0626 H   0  0  0  0  0  0  0  0  0  0  0  0
   -0.3466    2.4581   -0.9215 H   0  0  0  0  0  0  0  0  0  0  0  0
    0.8815    2.1327    0.3353 H   0  0  0  0  0  0  0  0  0  0  0  0
   -1.9028    2.4106    1.1447 H   0  0  0  0  0  0  0  0  0  0  0  0
   -0.9512    3.7442    0.7187 H   0  0  0  0  0  0  0  0  0  0  0  0
  1  2  1  0
  2  3  2  0
  2  4  1  1
  4  5  1  0
  5  6  1  0
  6  7  1  0
  7  8  1  0
  5  9  1  0
  9 10  1  0
 10 11  1  0
  1 12  1  0
  1 13  1  0
  1 14  1  0
  4 15  1  0
  5 16  1  0
  6 17  1  0
  6 18  1  0
  7 19  1  0
  7 20  1  0
  8 21  1  0
  8 22  1  0
  9 23  1  0
  9 24  1  0
 10 25  1  0
 10 26  1  0
 11 27  1  0
 11 28  1  0
M  END
$$$$

     RDKit          3D

 28 27  0  0  0  0  0  0  0  0999 V2000
    3.7954   -0.7627    0.5681 C   0  0  0  0  0  0  0  0  0  0  0  0
    2.4703   -0.0627   -0.3672 S   0  0  0  0  0  4  0  0  0  0  0  0
    2.6233   -0.1725   -1.8531 O   0  0  0  0  0  0  0  0  0  0  0  0
    0.9219   -0.5327    0.2253 N   0  0  0  0  0  0  0  0  0  0  0  0
   -0.1471   -0.1795   -0.6713 C   0  0  0  0  0  0  0  0  0  0  0  0
   -0.2741    1.2784   -0.9540 C   0  0  0  0  0  0  0  0  0  0  0  0
   -0.5236    2.0728    0.2892 C   0  0  0  0  0  0  0  0  0  0  0  0
   -0.6268    3.4882   -0.0795 N   0  0  0  0  0  0  0  0  0  0  0  0
   -1.4599   -0.7073   -0.1752 C   0  0  0  0  0  0  0  0  0  0  0  0
   -1.4577   -2.2224   -0.0539 C   0  0  0  0  0  0  0  0  0  0  0  0
   -2.7664   -2.6165    0.4300 N   0  0  0  0  0  0  0  0  0  0  0  0
    3.8474   -0.2262    1.5600 H   0  0  0  0  0  0  0  0  0  0  0  0
    4.7674   -0.6113    0.0856 H   0  0  0  0  0  0  0  0  0  0  0  0
    3.6254   -1.8503    0.7833 H   0  0  0  0  0  0  0  0  0  0  0  0
    0.7977   -0.2242    1.1941 H   0  0  0  0  0  0  0  0  0  0  0  0
    0.0830   -0.7104   -1.6306 H   0  0  0  0  0  0  0  0  0  0  0  0
    0.5623    1.6850   -1.5532 H   0  0  0  0  0  0  0  0  0  0  0  0
   -1.1877    1.4010   -1.6002 H   0  0  0  0  0  0  0  0  0  0  0  0
    0.2789    1.9700    1.0403 H   0  0  0  0  0  0  0  0  0  0  0  0
   -1.4702    1.7416    0.7709 H   0  0  0  0  0  0  0  0  0  0  0  0
   -1.6252    3.7429   -0.2178 H   0  0  0  0  0  0  0  0  0  0  0  0
   -0.2847    4.0766    0.7313 H   0  0  0  0  0  0  0  0  0  0  0  0
   -2.2558   -0.3572   -0.8373 H   0  0  0  0  0  0  0  0  0  0  0  0
   -1.6544   -0.2599    0.8398 H   0  0  0  0  0  0  0  0  0  0  0  0
   -0.6677   -2.5296    0.6520 H   0  0  0  0  0  0  0  0  0  0  0  0
   -1.2811   -2.6615   -1.0527 H   0  0  0  0  0  0  0  0  0  0  0  0
   -3.4330   -1.8140    0.4671 H   0  0  0  0  0  0  0  0  0  0  0  0
   -2.6575   -2.9559    1.4089 H   0  0  0  0  0  0  0  0  0  0  0  0
  1  2  1  0
  2  3  2  0
  2  4  1  1
  4  5  1  0
  5  6  1  0
  6  7  1  0
  7  8  1  0
  5  9  1  0
  9 10  1  0
 10 11  1  0
  1 12  1  0
  1 13  1  0
  1 14  1  0
  4 15  1  0
  5 16  1  0
  6 17  1  0
  6 18  1  0
  7 19  1  0
  7 20  1  0
  8 21  1  0
  8 22  1  0
  9 23  1  0
  9 24  1  0
 10 25  1  0
 10 26  1  0
 11 27  1  0
 11 28  1  0
M  END
$$$$

     RDKit          3D

 28 27  0  0  0  0  0  0  0  0999 V2000
    1.7605   -2.2182    0.3890 C   0  0  0  0  0  0  0  0  0  0  0  0
    1.7882   -1.1534   -1.0102 S   0  0  0  0  0  4  0  0  0  0  0  0
    2.2292   -1.9346   -2.2284 O   0  0  0  0  0  0  0  0  0  0  0  0
    0.5777   -0.0487   -1.2169 N   0  0  0  0  0  0  0  0  0  0  0  0
   -0.1873    0.4614   -0.1776 C   0  0  0  0  0  0  0  0  0  0  0  0
    0.5896    1.2130    0.8985 C   0  0  0  0  0  0  0  0  0  0  0  0
    1.3192    2.4008    0.3137 C   0  0  0  0  0  0  0  0  0  0  0  0
    0.4467    3.3552   -0.3032 N   0  0  0  0  0  0  0  0  0  0  0  0
   -1.0938   -0.5052    0.5350 C   0  0  0  0  0  0  0  0  0  0  0  0
   -2.0998   -1.1187   -0.4083 C   0  0  0  0  0  0  0  0  0  0  0  0
   -2.9435   -2.0351    0.3181 N   0  0  0  0  0  0  0  0  0  0  0  0
    0.9031   -2.9457    0.2761 H   0  0  0  0  0  0  0  0  0  0  0  0
    2.6723   -2.8862    0.3337 H   0  0  0  0  0  0  0  0  0  0  0  0
    1.7893   -1.7526    1.3685 H   0  0  0  0  0  0  0  0  0  0  0  0
    0.4714    0.2956   -2.1662 H   0  0  0  0  0  0  0  0  0  0  0  0
   -0.8809    1.2473   -0.6082 H   0  0  0  0  0  0  0  0  0  0  0  0
    1.3211    0.5970    1.4167 H   0  0  0  0  0  0  0  0  0  0  0  0
   -0.1585    1.5430    1.6562 H   0  0  0  0  0  0  0  0  0  0  0  0
    2.0375    2.0347   -0.4398 H   0  0  0  0  0  0  0  0  0  0  0  0
    1.8460    2.8956    1.1515 H   0  0  0  0  0  0  0  0  0  0  0  0
    0.9201    4.2880   -0.2757 H   0  0  0  0  0  0  0  0  0  0  0  0
    0.3082    3.1372   -1.3131 H   0  0  0  0  0  0  0  0  0  0  0  0
   -0.5882   -1.2654    1.1181 H   0  0  0  0  0  0  0  0  0  0  0  0
   -1.6969    0.1145    1.2623 H   0  0  0  0  0  0  0  0  0  0  0  0
   -2.7544   -0.3066   -0.8039 H   0  0  0  0  0  0  0  0  0  0  0  0
   -1.6279   -1.6148   -1.2790 H   0  0  0  0  0  0  0  0  0  0  0  0
   -3.8986   -2.0691   -0.1047 H   0  0  0  0  0  0  0  0  0  0  0  0
   -3.0503   -1.7290    1.2978 H   0  0  0  0  0  0  0  0  0  0  0  0
  1  2  1  0
  2  3  2  0
  2  4  1  6
  4  5  1  0
  5  6  1  0
  6  7  1  0
  7  8  1  0
  5  9  1  0
  9 10  1  0
 10 11  1  0
  1 12  1  0
  1 13  1  0
  1 14  1  0
  4 15  1  0
  5 16  1  0
  6 17  1  0
  6 18  1  0
  7 19  1  0
  7 20  1  0
  8 21  1  0
  8 22  1  0
  9 23  1  0
  9 24  1  0
 10 25  1  0
 10 26  1  0
 11 27  1  0
 11 28  1  0
M  END
$$$$

     RDKit          3D

 28 27  0  0  0  0  0  0  0  0999 V2000
    2.6692   -2.7957    0.0051 C   0  0  0  0  0  0  0  0  0  0  0  0
    1.2619   -1.9634    0.7531 S   0  0  0  0  0  4  0  0  0  0  0  0
    1.3290   -2.1924    2.2579 O   0  0  0  0  0  0  0  0  0  0  0  0
    1.2498   -0.2720    0.4655 N   0  0  0  0  0  0  0  0  0  0  0  0
   -0.0255    0.3489    0.3142 C   0  0  0  0  0  0  0  0  0  0  0  0
   -0.8521   -0.0651   -0.8436 C   0  0  0  0  0  0  0  0  0  0  0  0
   -1.2078   -1.5317   -0.8974 C   0  0  0  0  0  0  0  0  0  0  0  0
   -1.9483   -1.9509    0.2769 N   0  0  0  0  0  0  0  0  0  0  0  0
    0.2573    1.8424    0.1936 C   0  0  0  0  0  0  0  0  0  0  0  0
   -0.9831    2.6439    0.0262 C   0  0  0  0  0  0  0  0  0  0  0  0
   -0.5834    4.0446   -0.0550 N   0  0  0  0  0  0  0  0  0  0  0  0
    2.2974   -3.7211   -0.4999 H   0  0  0  0  0  0  0  0  0  0  0  0
    3.4078   -3.1414    0.7672 H   0  0  0  0  0  0  0  0  0  0  0  0
    3.2162   -2.1358   -0.6983 H   0  0  0  0  0  0  0  0  0  0  0  0
    1.7460    0.2141    1.2446 H   0  0  0  0  0  0  0  0  0  0  0  0
   -0.6735    0.2194    1.2319 H   0  0  0  0  0  0  0  0  0  0  0  0
   -1.8567    0.4479   -0.6945 H   0  0  0  0  0  0  0  0  0  0  0  0
   -0.4993    0.3027   -1.8183 H   0  0  0  0  0  0  0  0  0  0  0  0
   -1.9672   -1.6150   -1.7411 H   0  0  0  0  0  0  0  0  0  0  0  0
   -0.3862   -2.2081   -1.1061 H   0  0  0  0  0  0  0  0  0  0  0  0
   -2.6529   -2.6867    0.0506 H   0  0  0  0  0  0  0  0  0  0  0  0
   -2.4529   -1.1408    0.6823 H   0  0  0  0  0  0  0  0  0  0  0  0
    0.8647    2.1672    1.0735 H   0  0  0  0  0  0  0  0  0  0  0  0
    0.9567    1.9335   -0.6784 H   0  0  0  0  0  0  0  0  0  0  0  0
   -1.6833    2.4728    0.8388 H   0  0  0  0  0  0  0  0  0  0  0  0
   -1.4449    2.3667   -0.9627 H   0  0  0  0  0  0  0  0  0  0  0  0
    0.1293    4.2007    0.6881 H   0  0  0  0  0  0  0  0  0  0  0  0
   -0.1682    4.2153   -1.0021 H   0  0  0  0  0  0  0  0  0  0  0  0
  1  2  1  0
  2  3  2  0
  2  4  1  1
  4  5  1  0
  5  6  1  0
  6  7  1  0
  7  8  1  0
  5  9  1  0
  9 10  1  0
 10 11  1  0
  1 12  1  0
  1 13  1  0
  1 14  1  0
  4 15  1  0
  5 16  1  0
  6 17  1  0
  6 18  1  0
  7 19  1  0
  7 20  1  0
  8 21  1  0
  8 22  1  0
  9 23  1  0
  9 24  1  0
 10 25  1  0
 10 26  1  0
 11 27  1  0
 11 28  1  0
M  END
$$$$

     RDKit          3D

 28 27  0  0  0  0  0  0  0  0999 V2000
    2.8186   -1.2164    0.2010 C   0  0  0  0  0  0  0  0  0  0  0  0
    1.6435   -1.4256   -1.1186 S   0  0  0  0  0  4  0  0  0  0  0  0
    1.0089   -2.7819   -1.0106 O   0  0  0  0  0  0  0  0  0  0  0  0
    0.4919   -0.1218   -1.2013 N   0  0  0  0  0  0  0  0  0  0  0  0
    0.0685    0.2884    0.1078 C   0  0  0  0  0  0  0  0  0  0  0  0
   -0.5939   -0.8437    0.8603 C   0  0  0  0  0  0  0  0  0  0  0  0
   -1.8161   -1.3631    0.1474 C   0  0  0  0  0  0  0  0  0  0  0  0
   -2.3512   -2.4455    0.9796 N   0  0  0  0  0  0  0  0  0  0  0  0
   -0.8126    1.4940    0.0608 C   0  0  0  0  0  0  0  0  0  0  0  0
   -0.1738    2.6951   -0.5473 C   0  0  0  0  0  0  0  0  0  0  0  0
    1.0115    3.1346    0.1509 N   0  0  0  0  0  0  0  0  0  0  0  0
    2.4836   -1.6528    1.1649 H   0  0  0  0  0  0  0  0  0  0  0  0
    3.7351   -1.8130   -0.0789 H   0  0  0  0  0  0  0  0  0  0  0  0
    3.0938   -0.1481    0.3357 H   0  0  0  0  0  0  0  0  0  0  0  0
   -0.3015   -0.3528   -1.8141 H   0  0  0  0  0  0  0  0  0  0  0  0
    0.9849    0.5668    0.6761 H   0  0  0  0  0  0  0  0  0  0  0  0
    0.0908   -1.7056    0.9957 H   0  0  0  0  0  0  0  0  0  0  0  0
   -0.9307   -0.4780    1.8513 H   0  0  0  0  0  0  0  0  0  0  0  0
   -1.5543   -1.8069   -0.8215 H   0  0  0  0  0  0  0  0  0  0  0  0
   -2.6209   -0.6059    0.0807 H   0  0  0  0  0  0  0  0  0  0  0  0
   -3.3395   -2.5819    0.6739 H   0  0  0  0  0  0  0  0  0  0  0  0
   -1.8081   -3.3276    0.7418 H   0  0  0  0  0  0  0  0  0  0  0  0
   -1.7756    1.3170   -0.4539 H   0  0  0  0  0  0  0  0  0  0  0  0
   -1.0951    1.7490    1.1242 H   0  0  0  0  0  0  0  0  0  0  0  0
   -0.9037    3.5304   -0.5025 H   0  0  0  0  0  0  0  0  0  0  0  0
    0.0180    2.5194   -1.6284 H   0  0  0  0  0  0  0  0  0  0  0  0
    1.7557    3.2953   -0.5654 H   0  0  0  0  0  0  0  0  0  0  0  0
    0.8721    4.0807    0.6184 H   0  0  0  0  0  0  0  0  0  0  0  0
  1  2  1  0
  2  3  2  0
  2  4  1  1
  4  5  1  0
  5  6  1  0
  6  7  1  0
  7  8  1  0
  5  9  1  0
  9 10  1  0
 10 11  1  0
  1 12  1  0
  1 13  1  0
  1 14  1  0
  4 15  1  0
  5 16  1  0
  6 17  1  0
  6 18  1  0
  7 19  1  0
  7 20  1  0
  8 21  1  0
  8 22  1  0
  9 23  1  0
  9 24  1  0
 10 25  1  0
 10 26  1  0
 11 27  1  0
 11 28  1  0
M  END
$$$$
