
     RDKit          3D

 22 22  0  0  0  0  0  0  0  0999 V2000
   -3.4465    0.2882   -0.3283 C   0  0  0  0  0  0  0  0  0  0  0  0
   -2.2333   -0.0725    0.3314 N   0  0  0  0  0  0  0  0  0  0  0  0
   -0.9835    0.0742   -0.3272 C   0  0  0  0  0  0  0  0  0  0  0  0
   -0.9753    0.5233   -1.4888 O   0  0  0  0  0  0  0  0  0  0  0  0
    0.2344   -0.3202    0.4186 C   0  0  0  0  0  0  0  0  0  0  0  0
    0.0059   -0.7898    1.6819 O   0  0  0  0  0  0  0  0  0  0  0  0
    1.2719   -1.0471   -0.3974 C   0  0  0  0  0  0  0  0  0  0  0  0
    1.8181    0.3154   -0.8099 C   0  0  0  0  0  0  0  0  0  0  0  0
    3.2410    0.4107   -0.8738 N   0  0  0  0  0  0  0  0  0  0  0  0
    1.1956    0.8761    0.4435 C   0  0  0  0  0  0  0  0  0  0  0  0
   -3.4123    0.1399   -1.4279 H   0  0  0  0  0  0  0  0  0  0  0  0
   -4.2844   -0.3084    0.0793 H   0  0  0  0  0  0  0  0  0  0  0  0
   -3.6605    1.3575   -0.0735 H   0  0  0  0  0  0  0  0  0  0  0  0
   -2.2927   -0.4471    1.3120 H   0  0  0  0  0  0  0  0  0  0  0  0
   -0.5867   -1.5867    1.6168 H   0  0  0  0  0  0  0  0  0  0  0  0
    1.9825   -1.5770    0.2384 H   0  0  0  0  0  0  0  0  0  0  0  0
    0.8801   -1.6477   -1.2246 H   0  0  0  0  0  0  0  0  0  0  0  0
    1.3478    0.7174   -1.7318 H   0  0  0  0  0  0  0  0  0  0  0  0
    3.6248    0.7314    0.0256 H   0  0  0  0  0  0  0  0  0  0  0  0
    3.7226   -0.3826   -1.3108 H   0  0  0  0  0  0  0  0  0  0  0  0
    1.8402    0.8978    1.3389 H   0  0  0  0  0  0  0  0  0  0  0  0
    0.7101    1.8474    0.3080 H   0  0  0  0  0  0  0  0  0  0  0  0
  1  2  1  0
  2  3  1  0
  3  4  2  0
  3  5  1  0
  5  6  1  0
  5  7  1  0
  7  8  1  0
  8  9  1  0
  8 10  1  0
 10  5  1  0
  1 11  1  0
  1 12  1  0
  1 13  1  0
  2 14  1  0
  6 15  1  0
  7 16  1  0
  7 17  1  0
  8 18  1  0
  9 19  1  0
  9 20  1  0
 10 21  1  0
 10 22  1  0
M  END
$$$$

     RDKit          3D

 22 22  0  0  0  0  0  0  0  0999 V2000
    3.4846    0.5419    0.1362 C   0  0  0  0  0  0  0  0  0  0  0  0
    2.2872   -0.0725   -0.4356 N   0  0  0  0  0  0  0  0  0  0  0  0
    1.0155    0.2201    0.1190 C   0  0  0  0  0  0  0  0  0  0  0  0
    0.8941    1.0012    1.0978 O   0  0  0  0  0  0  0  0  0  0  0  0
   -0.1785   -0.4204   -0.4855 C   0  0  0  0  0  0  0  0  0  0  0  0
    0.1261   -1.2546   -1.5593 O   0  0  0  0  0  0  0  0  0  0  0  0
   -1.3394    0.5170   -0.7374 C   0  0  0  0  0  0  0  0  0  0  0  0
   -1.8438    0.1648    0.6416 C   0  0  0  0  0  0  0  0  0  0  0  0
   -3.2742   -0.0156    0.7408 N   0  0  0  0  0  0  0  0  0  0  0  0
   -1.0469   -1.1169    0.5396 C   0  0  0  0  0  0  0  0  0  0  0  0
    3.8403    1.3798   -0.5018 H   0  0  0  0  0  0  0  0  0  0  0  0
    4.2468   -0.2486    0.2379 H   0  0  0  0  0  0  0  0  0  0  0  0
    3.2457    0.9687    1.1267 H   0  0  0  0  0  0  0  0  0  0  0  0
    2.3336   -0.7210   -1.2400 H   0  0  0  0  0  0  0  0  0  0  0  0
    0.1139   -0.6884   -2.3765 H   0  0  0  0  0  0  0  0  0  0  0  0
   -1.0538    1.5860   -0.8784 H   0  0  0  0  0  0  0  0  0  0  0  0
   -2.0203    0.1250   -1.5258 H   0  0  0  0  0  0  0  0  0  0  0  0
   -1.4041    0.8173    1.4243 H   0  0  0  0  0  0  0  0  0  0  0  0
   -3.4975   -0.1927    1.7414 H   0  0  0  0  0  0  0  0  0  0  0  0
   -3.8186    0.7805    0.3960 H   0  0  0  0  0  0  0  0  0  0  0  0
   -0.5210   -1.4041    1.4763 H   0  0  0  0  0  0  0  0  0  0  0  0
   -1.5897   -1.9674    0.0627 H   0  0  0  0  0  0  0  0  0  0  0  0
  1  2  1  0
  2  3  1  0
  3  4  2  0
  3  5  1  0
  5  6  1  0
  5  7  1  0
  7  8  1  0
  8  9  1  0
  8 10  1  0
 10  5  1  0
  1 11  1  0
  1 12  1  0
  1 13  1  0
  2 14  1  0
  6 15  1  0
  7 16  1  0
  7 17  1  0
  8 18  1  0
  9 19  1  0
  9 20  1  0
 10 21  1  0
 10 22  1  0
M  END
$$$$

     RDKit          3D

 22 22  0  0  0  0  0  0  0  0999 V2000
    3.3791    0.3546    0.3266 C   0  0  0  0  0  0  0  0  0  0  0  0
    2.2757   -0.4886    0.0050 N   0  0  0  0  0  0  0  0  0  0  0  0
    0.9579    0.0485    0.0341 C   0  0  0  0  0  0  0  0  0  0  0  0
    0.8252    1.2606    0.3469 O   0  0  0  0  0  0  0  0  0  0  0  0
   -0.2472   -0.7566   -0.2862 C   0  0  0  0  0  0  0  0  0  0  0  0
   -0.0090   -2.0686   -0.6167 O   0  0  0  0  0  0  0  0  0  0  0  0
   -1.2599   -0.6347    0.8375 C   0  0  0  0  0  0  0  0  0  0  0  0
   -2.0985    0.3044   -0.0002 C   0  0  0  0  0  0  0  0  0  0  0  0
   -1.8992    1.7148    0.3216 N   0  0  0  0  0  0  0  0  0  0  0  0
   -1.2490   -0.0878   -1.1901 C   0  0  0  0  0  0  0  0  0  0  0  0
    4.3580   -0.0147    0.0168 H   0  0  0  0  0  0  0  0  0  0  0  0
    3.4235    0.4731    1.4411 H   0  0  0  0  0  0  0  0  0  0  0  0
    3.1839    1.3924   -0.0643 H   0  0  0  0  0  0  0  0  0  0  0  0
    2.3434   -1.5003   -0.2599 H   0  0  0  0  0  0  0  0  0  0  0  0
   -0.7499   -2.4436   -1.1562 H   0  0  0  0  0  0  0  0  0  0  0  0
   -0.9125   -0.1221    1.7400 H   0  0  0  0  0  0  0  0  0  0  0  0
   -1.7588   -1.5842    1.1164 H   0  0  0  0  0  0  0  0  0  0  0  0
   -3.1419   -0.0058   -0.0199 H   0  0  0  0  0  0  0  0  0  0  0  0
   -2.1932    1.8736    1.3160 H   0  0  0  0  0  0  0  0  0  0  0  0
   -2.5399    2.2615   -0.2774 H   0  0  0  0  0  0  0  0  0  0  0  0
   -0.8658    0.7758   -1.7705 H   0  0  0  0  0  0  0  0  0  0  0  0
   -1.8219   -0.7524   -1.8605 H   0  0  0  0  0  0  0  0  0  0  0  0
  1  2  1  0
  2  3  1  0
  3  4  2  0
  3  5  1  0
  5  6  1  0
  5  7  1  0
  7  8  1  0
  8  9  1  0
  8 10  1  0
 10  5  1  0
  1 11  1  0
  1 12  1  0
  1 13  1  0
  2 14  1  0
  6 15  1  0
  7 16  1  0
  7 17  1  0
  8 18  1  0
  9 19  1  0
  9 20  1  0
 10 21  1  0
 10 22  1  0
M  END
$$$$

     RDKit          3D

 22 22  0  0  0  0  0  0  0  0999 V2000
   -3.4798   -0.1087   -0.4446 C   0  0  0  0  0  0  0  0  0  0  0  0
   -2.3013    0.5014    0.1441 N   0  0  0  0  0  0  0  0  0  0  0  0
   -1.0274   -0.1076   -0.0922 C   0  0  0  0  0  0  0  0  0  0  0  0
   -0.9581   -1.1468   -0.7971 O   0  0  0  0  0  0  0  0  0  0  0  0
    0.2021    0.4989    0.5014 C   0  0  0  0  0  0  0  0  0  0  0  0
   -0.0083    1.6292    1.2487 O   0  0  0  0  0  0  0  0  0  0  0  0
    1.0401   -0.5778    1.1426 C   0  0  0  0  0  0  0  0  0  0  0  0
    1.8613   -0.6416   -0.1271 C   0  0  0  0  0  0  0  0  0  0  0  0
    3.2731   -0.5967    0.2060 N   0  0  0  0  0  0  0  0  0  0  0  0
    1.2681    0.6810   -0.5544 C   0  0  0  0  0  0  0  0  0  0  0  0
   -3.8866   -0.9124    0.2232 H   0  0  0  0  0  0  0  0  0  0  0  0
   -3.2610   -0.5414   -1.4247 H   0  0  0  0  0  0  0  0  0  0  0  0
   -4.2498    0.6990   -0.5355 H   0  0  0  0  0  0  0  0  0  0  0  0
   -2.3731    1.3626    0.7262 H   0  0  0  0  0  0  0  0  0  0  0  0
    0.2122    2.4623    0.7749 H   0  0  0  0  0  0  0  0  0  0  0  0
    0.5096   -1.5315    1.3023 H   0  0  0  0  0  0  0  0  0  0  0  0
    1.6035   -0.2230    2.0214 H   0  0  0  0  0  0  0  0  0  0  0  0
    1.5633   -1.4539   -0.8154 H   0  0  0  0  0  0  0  0  0  0  0  0
    3.8560   -1.1082   -0.5094 H   0  0  0  0  0  0  0  0  0  0  0  0
    3.3806   -1.1510    1.1014 H   0  0  0  0  0  0  0  0  0  0  0  0
    1.9142    1.5664   -0.3886 H   0  0  0  0  0  0  0  0  0  0  0  0
    0.8615    0.6998   -1.5951 H   0  0  0  0  0  0  0  0  0  0  0  0
  1  2  1  0
  2  3  1  0
  3  4  2  0
  3  5  1  0
  5  6  1  0
  5  7  1  0
  7  8  1  0
  8  9  1  0
  8 10  1  0
 10  5  1  0
  1 11  1  0
  1 12  1  0
  1 13  1  0
  2 14  1  0
  6 15  1  0
  7 16  1  0
  7 17  1  0
  8 18  1  0
  9 19  1  0
  9 20  1  0
 10 21  1  0
 10 22  1  0
M  END
$$$$

     RDKit          3D

 22 22  0  0  0  0  0  0  0  0999 V2000
    3.6056    0.2833    0.3186 C   0  0  0  0  0  0  0  0  0  0  0  0
    2.3621    0.1057   -0.4214 N   0  0  0  0  0  0  0  0  0  0  0  0
    1.0979    0.0628    0.2191 C   0  0  0  0  0  0  0  0  0  0  0  0
    1.0888    0.1859    1.4719 O   0  0  0  0  0  0  0  0  0  0  0  0
   -0.1878   -0.1147   -0.4836 C   0  0  0  0  0  0  0  0  0  0  0  0
   -0.1168   -0.2438   -1.8492 O   0  0  0  0  0  0  0  0  0  0  0  0
   -1.1912    0.9490   -0.0813 C   0  0  0  0  0  0  0  0  0  0  0  0
   -2.2614   -0.1472   -0.1475 C   0  0  0  0  0  0  0  0  0  0  0  0
   -3.1983   -0.0327    0.9402 N   0  0  0  0  0  0  0  0  0  0  0  0
   -1.1204   -1.1418    0.1071 C   0  0  0  0  0  0  0  0  0  0  0  0
    4.0758   -0.7069    0.4543 H   0  0  0  0  0  0  0  0  0  0  0  0
    3.4022    0.8208    1.2493 H   0  0  0  0  0  0  0  0  0  0  0  0
    4.3107    0.9052   -0.2723 H   0  0  0  0  0  0  0  0  0  0  0  0
    2.3702    0.0036   -1.4611 H   0  0  0  0  0  0  0  0  0  0  0  0
    0.2375   -1.1244   -2.1443 H   0  0  0  0  0  0  0  0  0  0  0  0
   -1.0182    1.3171    0.9560 H   0  0  0  0  0  0  0  0  0  0  0  0
   -1.2835    1.7253   -0.8398 H   0  0  0  0  0  0  0  0  0  0  0  0
   -2.6831   -0.1984   -1.1598 H   0  0  0  0  0  0  0  0  0  0  0  0
   -4.1659   -0.0982    0.5670 H   0  0  0  0  0  0  0  0  0  0  0  0
   -3.0779    0.8579    1.4767 H   0  0  0  0  0  0  0  0  0  0  0  0
   -0.9740   -1.3712    1.1657 H   0  0  0  0  0  0  0  0  0  0  0  0
   -1.2725   -2.0372   -0.5308 H   0  0  0  0  0  0  0  0  0  0  0  0
  1  2  1  0
  2  3  1  0
  3  4  2  0
  3  5  1  0
  5  6  1  0
  5  7  1  0
  7  8  1  0
  8  9  1  0
  8 10  1  0
 10  5  1  0
  1 11  1  0
  1 12  1  0
  1 13  1  0
  2 14  1  0
  6 15  1  0
  7 16  1  0
  7 17  1  0
  8 18  1  0
  9 19  1  0
  9 20  1  0
 10 21  1  0
 10 22  1  0
M  END
$$$$

     RDKit          3D

 22 22  0  0  0  0  0  0  0  0999 V2000
    3.3374   -0.0088    0.3528 C   0  0  0  0  0  0  0  0  0  0  0  0
    1.8755    0.0508    0.3040 N   0  0  0  0  0  0  0  0  0  0  0  0
    1.1288   -0.4041   -0.8072 C   0  0  0  0  0  0  0  0  0  0  0  0
    1.7632   -0.8759   -1.7843 O   0  0  0  0  0  0  0  0  0  0  0  0
   -0.3167   -0.3575   -0.8831 C   0  0  0  0  0  0  0  0  0  0  0  0
   -0.8760   -0.8417   -2.0365 O   0  0  0  0  0  0  0  0  0  0  0  0
   -1.0795   -0.8652    0.3263 C   0  0  0  0  0  0  0  0  0  0  0  0
   -2.1379    0.1388   -0.1001 C   0  0  0  0  0  0  0  0  0  0  0  0
   -2.9343    0.6899    0.9309 N   0  0  0  0  0  0  0  0  0  0  0  0
   -0.9494    1.0025   -0.5470 C   0  0  0  0  0  0  0  0  0  0  0  0
    3.7924    0.9835    0.4284 H   0  0  0  0  0  0  0  0  0  0  0  0
    3.6854   -0.4562   -0.6055 H   0  0  0  0  0  0  0  0  0  0  0  0
    3.6429   -0.7087    1.1560 H   0  0  0  0  0  0  0  0  0  0  0  0
    1.3591    0.4431    1.1178 H   0  0  0  0  0  0  0  0  0  0  0  0
   -0.1821   -1.2360   -2.6297 H   0  0  0  0  0  0  0  0  0  0  0  0
   -1.3747   -1.9146    0.2932 H   0  0  0  0  0  0  0  0  0  0  0  0
   -0.6122   -0.5094    1.2701 H   0  0  0  0  0  0  0  0  0  0  0  0
   -2.6550   -0.2145   -1.0174 H   0  0  0  0  0  0  0  0  0  0  0  0
   -2.7842    0.3411    1.8762 H   0  0  0  0  0  0  0  0  0  0  0  0
   -3.1592    1.6955    0.8526 H   0  0  0  0  0  0  0  0  0  0  0  0
   -0.3994    1.4731    0.2667 H   0  0  0  0  0  0  0  0  0  0  0  0
   -1.1240    1.5745   -1.4614 H   0  0  0  0  0  0  0  0  0  0  0  0
  1  2  1  0
  2  3  1  0
  3  4  2  0
  3  5  1  0
  5  6  1  0
  5  7  1  0
  7  8  1  0
  8  9  1  0
  8 10  1  0
 10  5  1  0
  1 11  1  0
  1 12  1  0
  1 13  1  0
  2 14  1  0
  6 15  1  0
  7 16  1  0
  7 17  1  0
  8 18  1  0
  9 19  1  0
  9 20  1  0
 10 21  1  0
 10 22  1  0
M  END
$$$$

     RDKit          3D

 22 22  0  0  0  0  0  0  0  0999 V2000
    3.0453    0.6786    0.3390 C   0  0  0  0  0  0  0  0  0  0  0  0
    1.6193    0.4492    0.2629 N   0  0  0  0  0  0  0  0  0  0  0  0
    1.1436   -0.6680   -0.4726 C   0  0  0  0  0  0  0  0  0  0  0  0
    1.9848   -1.4411   -1.0477 O   0  0  0  0  0  0  0  0  0  0  0  0
   -0.2948   -0.9157   -0.5604 C   0  0  0  0  0  0  0  0  0  0  0  0
   -0.5717   -2.0593   -1.3254 O   0  0  0  0  0  0  0  0  0  0  0  0
   -1.0395   -1.0036    0.7488 C   0  0  0  0  0  0  0  0  0  0  0  0
   -1.9334    0.1400    0.3126 C   0  0  0  0  0  0  0  0  0  0  0  0
   -1.8347    1.2915    1.1714 N   0  0  0  0  0  0  0  0  0  0  0  0
   -1.1664    0.2204   -0.9825 C   0  0  0  0  0  0  0  0  0  0  0  0
    3.2399    1.6468    0.8496 H   0  0  0  0  0  0  0  0  0  0  0  0
    3.4719    0.7417   -0.7025 H   0  0  0  0  0  0  0  0  0  0  0  0
    3.5650   -0.1498    0.8877 H   0  0  0  0  0  0  0  0  0  0  0  0
    0.9200    1.0647    0.7224 H   0  0  0  0  0  0  0  0  0  0  0  0
   -0.2358   -1.8334   -2.2473 H   0  0  0  0  0  0  0  0  0  0  0  0
   -1.6560   -1.9240    0.8850 H   0  0  0  0  0  0  0  0  0  0  0  0
   -0.4613   -0.7741    1.6520 H   0  0  0  0  0  0  0  0  0  0  0  0
   -3.0077   -0.1348    0.1874 H   0  0  0  0  0  0  0  0  0  0  0  0
   -2.6523    1.3924    1.7837 H   0  0  0  0  0  0  0  0  0  0  0  0
   -1.6199    2.1117    0.5784 H   0  0  0  0  0  0  0  0  0  0  0  0
   -0.6684    1.1814   -1.1952 H   0  0  0  0  0  0  0  0  0  0  0  0
   -1.8478   -0.0143   -1.8473 H   0  0  0  0  0  0  0  0  0  0  0  0
  1  2  1  0
  2  3  1  0
  3  4  2  0
  3  5  1  0
  5  6  1  0
  5  7  1  0
  7  8  1  0
  8  9  1  0
  8 10  1  0
 10  5  1  0
  1 11  1  0
  1 12  1  0
  1 13  1  0
  2 14  1  0
  6 15  1  0
  7 16  1  0
  7 17  1  0
  8 18  1  0
  9 19  1  0
  9 20  1  0
 10 21  1  0
 10 22  1  0
M  END
$$$$

     RDKit          3D

 22 22  0  0  0  0  0  0  0  0999 V2000
    3.5828    0.0195   -0.5198 C   0  0  0  0  0  0  0  0  0  0  0  0
    2.2085    0.4867   -0.4248 N   0  0  0  0  0  0  0  0  0  0  0  0
    1.1238   -0.3764   -0.1387 C   0  0  0  0  0  0  0  0  0  0  0  0
    1.3628   -1.6069    0.0416 O   0  0  0  0  0  0  0  0  0  0  0  0
   -0.2668    0.0830   -0.0402 C   0  0  0  0  0  0  0  0  0  0  0  0
   -0.4385    1.4399   -0.2507 O   0  0  0  0  0  0  0  0  0  0  0  0
   -1.0459   -0.4594    1.1489 C   0  0  0  0  0  0  0  0  0  0  0  0
   -2.2566   -0.5118    0.2136 C   0  0  0  0  0  0  0  0  0  0  0  0
   -2.8613    0.7890    0.1505 N   0  0  0  0  0  0  0  0  0  0  0  0
   -1.2504   -0.6843   -0.9282 C   0  0  0  0  0  0  0  0  0  0  0  0
    3.6144   -1.0775   -0.6827 H   0  0  0  0  0  0  0  0  0  0  0  0
    4.0202    0.5517   -1.4088 H   0  0  0  0  0  0  0  0  0  0  0  0
    4.1715    0.2400    0.3786 H   0  0  0  0  0  0  0  0  0  0  0  0
    1.9861    1.4964   -0.5693 H   0  0  0  0  0  0  0  0  0  0  0  0
    0.0482    1.9141    0.4874 H   0  0  0  0  0  0  0  0  0  0  0  0
   -1.2097    0.2696    1.9557 H   0  0  0  0  0  0  0  0  0  0  0  0
   -0.6873   -1.4521    1.4736 H   0  0  0  0  0  0  0  0  0  0  0  0
   -2.9218   -1.3642    0.3676 H   0  0  0  0  0  0  0  0  0  0  0  0
   -2.8233    1.3059    1.0572 H   0  0  0  0  0  0  0  0  0  0  0  0
   -3.7957    0.8064   -0.3023 H   0  0  0  0  0  0  0  0  0  0  0  0
   -0.9607   -1.7345   -1.1066 H   0  0  0  0  0  0  0  0  0  0  0  0
   -1.6003   -0.1351   -1.8036 H   0  0  0  0  0  0  0  0  0  0  0  0
  1  2  1  0
  2  3  1  0
  3  4  2  0
  3  5  1  0
  5  6  1  0
  5  7  1  0
  7  8  1  0
  8  9  1  0
  8 10  1  0
 10  5  1  0
  1 11  1  0
  1 12  1  0
  1 13  1  0
  2 14  1  0
  6 15  1  0
  7 16  1  0
  7 17  1  0
  8 18  1  0
  9 19  1  0
  9 20  1  0
 10 21  1  0
 10 22  1  0
M  END
$$$$
