
     RDKit          3D

 25 25  0  0  0  0  0  0  0  0999 V2000
    3.1809   -0.4201   -0.2257 C   0  0  0  0  0  0  0  0  0  0  0  0
    1.8987   -1.0338    0.1932 C   0  0  0  0  0  0  0  0  0  0  0  0
    1.8988   -2.2148    0.6141 O   0  0  0  0  0  0  0  0  0  0  0  0
    0.7027   -0.2783    0.1107 N   0  0  0  0  0  0  0  0  0  0  0  0
    0.5989    1.0872   -0.3597 C   0  0  0  0  0  0  0  0  0  0  0  0
   -0.4907    1.6966    0.5072 C   0  0  1  0  0  0  0  0  0  0  0  0
   -1.3972    2.4009   -0.3129 O   0  0  0  0  0  0  0  0  0  0  0  0
   -1.1912    0.5204    1.1470 C   0  0  0  0  0  0  0  0  0  0  0  0
   -0.6295   -0.6867    0.4641 C   0  0  1  0  0  0  0  0  0  0  0  0
   -1.3610   -1.0432   -0.8072 C   0  0  0  0  0  0  0  0  0  0  0  0
   -2.7118   -1.4688   -0.5770 N   0  0  0  0  0  0  0  0  0  0  0  0
    3.0474    0.5009   -0.8152 H   0  0  0  0  0  0  0  0  0  0  0  0
    3.8013   -0.1884    0.6890 H   0  0  0  0  0  0  0  0  0  0  0  0
    3.7832   -1.1336   -0.8458 H   0  0  0  0  0  0  0  0  0  0  0  0
    0.2934    1.0973   -1.4406 H   0  0  0  0  0  0  0  0  0  0  0  0
    1.5020    1.6818   -0.2006 H   0  0  0  0  0  0  0  0  0  0  0  0
   -0.0612    2.3886    1.2659 H   0  0  0  0  0  0  0  0  0  0  0  0
   -0.8772    3.0561   -0.8285 H   0  0  0  0  0  0  0  0  0  0  0  0
   -2.2833    0.6308    1.0518 H   0  0  0  0  0  0  0  0  0  0  0  0
   -0.9475    0.5056    2.2351 H   0  0  0  0  0  0  0  0  0  0  0  0
   -0.6561   -1.5382    1.1676 H   0  0  0  0  0  0  0  0  0  0  0  0
   -0.8098   -1.9274   -1.2387 H   0  0  0  0  0  0  0  0  0  0  0  0
   -1.2613   -0.2319   -1.5305 H   0  0  0  0  0  0  0  0  0  0  0  0
   -2.7935   -2.4919   -0.3720 H   0  0  0  0  0  0  0  0  0  0  0  0
   -3.2362   -0.9090    0.1090 H   0  0  0  0  0  0  0  0  0  0  0  0
  1  2  1  0
  2  3  2  0
  2  4  1  0
  4  5  1  0
  5  6  1  0
  6  7  1  0
  6  8  1  0
  8  9  1  0
  9 10  1  0
 10 11  1  0
  9  4  1  0
  1 12  1  0
  1 13  1  0
  1 14  1  0
  5 15  1  0
  5 16  1  0
  6 17  1  1
  7 18  1  0
  8 19  1  0
  8 20  1  0
  9 21  1  1
 10 22  1  0
 10 23  1  0
 11 24  1  0
 11 25  1  0
M  END
$$$$

     RDKit          3D

 25 25  0  0  0  0  0  0  0  0999 V2000
    2.4344   -1.6569   -0.0250 C   0  0  0  0  0  0  0  0  0  0  0  0
    1.0505   -1.4254    0.4672 C   0  0  0  0  0  0  0  0  0  0  0  0
    0.4903   -2.3023    1.1632 O   0  0  0  0  0  0  0  0  0  0  0  0
    0.3854   -0.2253    0.1463 N   0  0  0  0  0  0  0  0  0  0  0  0
    0.9048    0.8882   -0.6467 C   0  0  0  0  0  0  0  0  0  0  0  0
    0.3767    2.0378    0.2308 C   0  0  1  0  0  0  0  0  0  0  0  0
    0.5639    3.2549   -0.4045 O   0  0  0  0  0  0  0  0  0  0  0  0
   -1.0777    1.6376    0.3051 C   0  0  0  0  0  0  0  0  0  0  0  0
   -0.9555    0.1331    0.5529 C   0  0  1  0  0  0  0  0  0  0  0  0
   -1.9595   -0.6157   -0.3071 C   0  0  0  0  0  0  0  0  0  0  0  0
   -1.7973   -2.0384   -0.1653 N   0  0  0  0  0  0  0  0  0  0  0  0
    3.0233   -0.7215   -0.0484 H   0  0  0  0  0  0  0  0  0  0  0  0
    2.4091   -2.1795   -0.9917 H   0  0  0  0  0  0  0  0  0  0  0  0
    2.9327   -2.3361    0.7012 H   0  0  0  0  0  0  0  0  0  0  0  0
    0.3474    0.9187   -1.5870 H   0  0  0  0  0  0  0  0  0  0  0  0
    1.9847    0.8994   -0.7227 H   0  0  0  0  0  0  0  0  0  0  0  0
    0.8828    1.9853    1.2072 H   0  0  0  0  0  0  0  0  0  0  0  0
    1.5125    3.5066   -0.2643 H   0  0  0  0  0  0  0  0  0  0  0  0
   -1.6191    2.1401    1.1277 H   0  0  0  0  0  0  0  0  0  0  0  0
   -1.5260    1.8001   -0.6838 H   0  0  0  0  0  0  0  0  0  0  0  0
   -1.1543   -0.0595    1.6163 H   0  0  0  0  0  0  0  0  0  0  0  0
   -1.7473   -0.3642   -1.3767 H   0  0  0  0  0  0  0  0  0  0  0  0
   -2.9881   -0.3297   -0.0233 H   0  0  0  0  0  0  0  0  0  0  0  0
   -2.2098   -2.5340   -0.9734 H   0  0  0  0  0  0  0  0  0  0  0  0
   -2.2640   -2.4132    0.7020 H   0  0  0  0  0  0  0  0  0  0  0  0
  1  2  1  0
  2  3  2  0
  2  4  1  0
  4  5  1  0
  5  6  1  0
  6  7  1  0
  6  8  1  0
  8  9  1  0
  9 10  1  0
 10 11  1  0
  9  4  1  0
  1 12  1  0
  1 13  1  0
  1 14  1  0
  5 15  1  0
  5 16  1  0
  6 17  1  1
  7 18  1  0
  8 19  1  0
  8 20  1  0
  9 21  1  1
 10 22  1  0
 10 23  1  0
 11 24  1  0
 11 25  1  0
M  END
$$$$

     RDKit          3D

 25 25  0  0  0  0  0  0  0  0999 V2000
    2.7643    0.9580   -0.3893 C   0  0  0  0  0  0  0  0  0  0  0  0
    2.1291   -0.1230    0.4185 C   0  0  0  0  0  0  0  0  0  0  0  0
    2.9103   -0.7743    1.1601 O   0  0  0  0  0  0  0  0  0  0  0  0
    0.7347   -0.3954    0.3516 N   0  0  0  0  0  0  0  0  0  0  0  0
    0.0701   -1.4328    1.1146 C   0  0  0  0  0  0  0  0  0  0  0  0
   -0.9401   -1.9386    0.0916 C   0  0  1  0  0  0  0  0  0  0  0  0
   -1.9372   -2.7035    0.6970 O   0  0  0  0  0  0  0  0  0  0  0  0
   -1.4813   -0.6279   -0.4440 C   0  0  0  0  0  0  0  0  0  0  0  0
   -0.2734    0.2675   -0.4504 C   0  0  1  0  0  0  0  0  0  0  0  0
   -0.5596    1.6590    0.0349 C   0  0  0  0  0  0  0  0  0  0  0  0
   -1.5361    2.3608   -0.7067 N   0  0  0  0  0  0  0  0  0  0  0  0
    2.1734    1.2179   -1.2793 H   0  0  0  0  0  0  0  0  0  0  0  0
    3.7553    0.5977   -0.7317 H   0  0  0  0  0  0  0  0  0  0  0  0
    2.8819    1.8583    0.2248 H   0  0  0  0  0  0  0  0  0  0  0  0
   -0.4300   -1.0191    2.0120 H   0  0  0  0  0  0  0  0  0  0  0  0
    0.7415   -2.2473    1.4187 H   0  0  0  0  0  0  0  0  0  0  0  0
   -0.3807   -2.5047   -0.6784 H   0  0  0  0  0  0  0  0  0  0  0  0
   -2.2189   -3.3839    0.0335 H   0  0  0  0  0  0  0  0  0  0  0  0
   -1.8725   -0.8038   -1.4680 H   0  0  0  0  0  0  0  0  0  0  0  0
   -2.2652   -0.3070    0.2657 H   0  0  0  0  0  0  0  0  0  0  0  0
    0.1145    0.2948   -1.4895 H   0  0  0  0  0  0  0  0  0  0  0  0
    0.3914    2.2293   -0.0301 H   0  0  0  0  0  0  0  0  0  0  0  0
   -0.7807    1.5828    1.1374 H   0  0  0  0  0  0  0  0  0  0  0  0
   -2.4198    1.8944   -0.8887 H   0  0  0  0  0  0  0  0  0  0  0  0
   -1.5711    3.3408   -0.4043 H   0  0  0  0  0  0  0  0  0  0  0  0
  1  2  1  0
  2  3  2  0
  2  4  1  0
  4  5  1  0
  5  6  1  0
  6  7  1  0
  6  8  1  0
  8  9  1  0
  9 10  1  0
 10 11  1  0
  9  4  1  0
  1 12  1  0
  1 13  1  0
  1 14  1  0
  5 15  1  0
  5 16  1  0
  6 17  1  6
  7 18  1  0
  8 19  1  0
  8 20  1  0
  9 21  1  6
 10 22  1  0
 10 23  1  0
 11 24  1  0
 11 25  1  0
M  END
$$$$

     RDKit          3D

 25 25  0  0  0  0  0  0  0  0999 V2000
   -2.2874    1.4758    0.6385 C   0  0  0  0  0  0  0  0  0  0  0  0
   -0.9869    1.0197    1.2142 C   0  0  0  0  0  0  0  0  0  0  0  0
   -0.8088    1.3524    2.4290 O   0  0  0  0  0  0  0  0  0  0  0  0
   -0.0203    0.2925    0.5228 N   0  0  0  0  0  0  0  0  0  0  0  0
    1.2481   -0.1490    1.0492 C   0  0  0  0  0  0  0  0  0  0  0  0
    2.1294    0.4093   -0.0791 C   0  0  1  0  0  0  0  0  0  0  0  0
    3.4369   -0.0076    0.0490 O   0  0  0  0  0  0  0  0  0  0  0  0
    1.4310   -0.1789   -1.2785 C   0  0  0  0  0  0  0  0  0  0  0  0
   -0.0316   -0.1777   -0.8337 C   0  0  1  0  0  0  0  0  0  0  0  0
   -0.5885   -1.5855   -0.8591 C   0  0  0  0  0  0  0  0  0  0  0  0
   -1.9241   -1.5631   -0.3340 N   0  0  0  0  0  0  0  0  0  0  0  0
   -2.3086    1.4128   -0.4610 H   0  0  0  0  0  0  0  0  0  0  0  0
   -2.4983    2.5325    0.9034 H   0  0  0  0  0  0  0  0  0  0  0  0
   -3.0928    0.7844    0.9987 H   0  0  0  0  0  0  0  0  0  0  0  0
    1.2516   -1.2431    1.0652 H   0  0  0  0  0  0  0  0  0  0  0  0
    1.5043    0.3188    2.0159 H   0  0  0  0  0  0  0  0  0  0  0  0
    1.9869    1.4938   -0.0713 H   0  0  0  0  0  0  0  0  0  0  0  0
    4.0038    0.6853    0.4856 H   0  0  0  0  0  0  0  0  0  0  0  0
    1.7797   -1.2128   -1.4308 H   0  0  0  0  0  0  0  0  0  0  0  0
    1.5763    0.4786   -2.1566 H   0  0  0  0  0  0  0  0  0  0  0  0
   -0.6013    0.4292   -1.5336 H   0  0  0  0  0  0  0  0  0  0  0  0
    0.0514   -2.2480   -0.2468 H   0  0  0  0  0  0  0  0  0  0  0  0
   -0.6571   -1.9527   -1.9182 H   0  0  0  0  0  0  0  0  0  0  0  0
   -1.9947   -1.3904    0.6736 H   0  0  0  0  0  0  0  0  0  0  0  0
   -2.5989   -0.9763   -0.8422 H   0  0  0  0  0  0  0  0  0  0  0  0
  1  2  1  0
  2  3  2  0
  2  4  1  0
  4  5  1  0
  5  6  1  0
  6  7  1  0
  6  8  1  0
  8  9  1  0
  9 10  1  0
 10 11  1  0
  9  4  1  0
  1 12  1  0
  1 13  1  0
  1 14  1  0
  5 15  1  0
  5 16  1  0
  6 17  1  6
  7 18  1  0
  8 19  1  0
  8 20  1  0
  9 21  1  6
 10 22  1  0
 10 23  1  0
 11 24  1  0
 11 25  1  0
M  END
$$$$

     RDKit          3D

 25 25  0  0  0  0  0  0  0  0999 V2000
    2.9446   -1.2376    0.1823 C   0  0  0  0  0  0  0  0  0  0  0  0
    1.4534   -1.2813    0.2855 C   0  0  0  0  0  0  0  0  0  0  0  0
    0.9843   -2.4663    0.3246 O   0  0  0  0  0  0  0  0  0  0  0  0
    0.6513   -0.1347    0.3342 N   0  0  0  0  0  0  0  0  0  0  0  0
    1.0914    1.2336    0.2935 C   0  0  0  0  0  0  0  0  0  0  0  0
   -0.0185    1.9844   -0.3785 C   0  0  1  0  0  0  0  0  0  0  0  0
    0.3350    2.4217   -1.6591 O   0  0  0  0  0  0  0  0  0  0  0  0
   -1.2203    1.0316   -0.4589 C   0  0  0  0  0  0  0  0  0  0  0  0
   -0.7731   -0.0841    0.4329 C   0  0  1  0  0  0  0  0  0  0  0  0
   -1.4890   -1.3629    0.2570 C   0  0  0  0  0  0  0  0  0  0  0  0
   -2.9220   -1.2692    0.3578 N   0  0  0  0  0  0  0  0  0  0  0  0
    3.2431   -1.9836   -0.5930 H   0  0  0  0  0  0  0  0  0  0  0  0
    3.3862   -1.5846    1.1582 H   0  0  0  0  0  0  0  0  0  0  0  0
    3.3302   -0.2368   -0.0282 H   0  0  0  0  0  0  0  0  0  0  0  0
    1.1497    1.5758    1.3670 H   0  0  0  0  0  0  0  0  0  0  0  0
    2.0676    1.3548   -0.2122 H   0  0  0  0  0  0  0  0  0  0  0  0
   -0.2993    2.8706    0.2266 H   0  0  0  0  0  0  0  0  0  0  0  0
   -0.3898    3.0519   -1.9334 H   0  0  0  0  0  0  0  0  0  0  0  0
   -1.3309    0.7496   -1.5124 H   0  0  0  0  0  0  0  0  0  0  0  0
   -2.1168    1.5475   -0.0636 H   0  0  0  0  0  0  0  0  0  0  0  0
   -0.9831    0.2810    1.4855 H   0  0  0  0  0  0  0  0  0  0  0  0
   -1.1782   -2.0961    1.0500 H   0  0  0  0  0  0  0  0  0  0  0  0
   -1.2241   -1.8122   -0.7181 H   0  0  0  0  0  0  0  0  0  0  0  0
   -3.3725   -2.1130   -0.0734 H   0  0  0  0  0  0  0  0  0  0  0  0
   -3.3191   -0.4400   -0.1242 H   0  0  0  0  0  0  0  0  0  0  0  0
  1  2  1  0
  2  3  2  0
  2  4  1  0
  4  5  1  0
  5  6  1  0
  6  7  1  0
  6  8  1  0
  8  9  1  0
  9 10  1  0
 10 11  1  0
  9  4  1  0
  1 12  1  0
  1 13  1  0
  1 14  1  0
  5 15  1  0
  5 16  1  0
  6 17  1  1
  7 18  1  0
  8 19  1  0
  8 20  1  0
  9 21  1  1
 10 22  1  0
 10 23  1  0
 11 24  1  0
 11 25  1  0
M  END
$$$$

     RDKit          3D

 25 25  0  0  0  0  0  0  0  0999 V2000
    2.9782   -0.0253   -0.0799 C   0  0  0  0  0  0  0  0  0  0  0  0
    1.8983   -1.0342    0.0069 C   0  0  0  0  0  0  0  0  0  0  0  0
    2.2667   -2.2472    0.1789 O   0  0  0  0  0  0  0  0  0  0  0  0
    0.5274   -0.7821   -0.0822 N   0  0  0  0  0  0  0  0  0  0  0  0
   -0.5326   -1.7624   -0.0070 C   0  0  0  0  0  0  0  0  0  0  0  0
   -1.6857   -1.1435   -0.7758 C   0  0  1  0  0  0  0  0  0  0  0  0
   -2.9085   -1.6723   -0.4065 O   0  0  0  0  0  0  0  0  0  0  0  0
   -1.5439    0.3178   -0.4849 C   0  0  0  0  0  0  0  0  0  0  0  0
   -0.0762    0.5106   -0.2705 C   0  0  1  0  0  0  0  0  0  0  0  0
    0.1486    1.4128    0.9321 C   0  0  0  0  0  0  0  0  0  0  0  0
   -0.5007    2.6965    0.6447 N   0  0  0  0  0  0  0  0  0  0  0  0
    3.8777   -0.4630   -0.5833 H   0  0  0  0  0  0  0  0  0  0  0  0
    2.6397    0.7853   -0.7503 H   0  0  0  0  0  0  0  0  0  0  0  0
    3.2782    0.3384    0.9015 H   0  0  0  0  0  0  0  0  0  0  0  0
   -0.2884   -2.7132   -0.4888 H   0  0  0  0  0  0  0  0  0  0  0  0
   -0.8777   -1.9332    1.0264 H   0  0  0  0  0  0  0  0  0  0  0  0
   -1.5028   -1.3331   -1.8518 H   0  0  0  0  0  0  0  0  0  0  0  0
   -3.0473   -1.5249    0.5706 H   0  0  0  0  0  0  0  0  0  0  0  0
   -2.0938    0.6009    0.4410 H   0  0  0  0  0  0  0  0  0  0  0  0
   -1.8705    0.9385   -1.3556 H   0  0  0  0  0  0  0  0  0  0  0  0
    0.3734    0.9705   -1.1914 H   0  0  0  0  0  0  0  0  0  0  0  0
   -0.2799    0.9255    1.8134 H   0  0  0  0  0  0  0  0  0  0  0  0
    1.2413    1.5742    1.0153 H   0  0  0  0  0  0  0  0  0  0  0  0
   -0.6380    2.8030   -0.3806 H   0  0  0  0  0  0  0  0  0  0  0  0
   -1.3834    2.7605    1.1777 H   0  0  0  0  0  0  0  0  0  0  0  0
  1  2  1  0
  2  3  2  0
  2  4  1  0
  4  5  1  0
  5  6  1  0
  6  7  1  0
  6  8  1  0
  8  9  1  0
  9 10  1  0
 10 11  1  0
  9  4  1  0
  1 12  1  0
  1 13  1  0
  1 14  1  0
  5 15  1  0
  5 16  1  0
  6 17  1  6
  7 18  1  0
  8 19  1  0
  8 20  1  0
  9 21  1  6
 10 22  1  0
 10 23  1  0
 11 24  1  0
 11 25  1  0
M  END
$$$$

     RDKit          3D

 25 25  0  0  0  0  0  0  0  0999 V2000
   -1.3444   -2.4663    0.3811 C   0  0  0  0  0  0  0  0  0  0  0  0
   -1.6720   -1.0218    0.5100 C   0  0  0  0  0  0  0  0  0  0  0  0
   -2.6651   -0.7413    1.2313 O   0  0  0  0  0  0  0  0  0  0  0  0
   -0.9339    0.0011   -0.1256 N   0  0  0  0  0  0  0  0  0  0  0  0
   -1.2683    1.4066    0.0049 C   0  0  0  0  0  0  0  0  0  0  0  0
    0.0527    2.1029   -0.0278 C   0  0  1  0  0  0  0  0  0  0  0  0
    0.7138    2.0021    1.1912 O   0  0  0  0  0  0  0  0  0  0  0  0
    0.7483    1.3236   -1.1271 C   0  0  0  0  0  0  0  0  0  0  0  0
    0.2173   -0.0761   -0.9765 C   0  0  1  0  0  0  0  0  0  0  0  0
    1.3499   -0.9063   -0.4173 C   0  0  0  0  0  0  0  0  0  0  0  0
    1.8439   -0.4010    0.8427 N   0  0  0  0  0  0  0  0  0  0  0  0
   -2.2027   -3.0978    0.6906 H   0  0  0  0  0  0  0  0  0  0  0  0
   -0.5356   -2.6819    1.1087 H   0  0  0  0  0  0  0  0  0  0  0  0
   -1.0912   -2.7402   -0.6643 H   0  0  0  0  0  0  0  0  0  0  0  0
   -1.8980    1.7020   -0.8493 H   0  0  0  0  0  0  0  0  0  0  0  0
   -1.7483    1.6033    0.9839 H   0  0  0  0  0  0  0  0  0  0  0  0
   -0.0548    3.1764   -0.2809 H   0  0  0  0  0  0  0  0  0  0  0  0
    0.1109    1.9116    1.9526 H   0  0  0  0  0  0  0  0  0  0  0  0
    1.8437    1.3958   -1.0242 H   0  0  0  0  0  0  0  0  0  0  0  0
    0.3999    1.7685   -2.0872 H   0  0  0  0  0  0  0  0  0  0  0  0
   -0.0277   -0.4733   -1.9699 H   0  0  0  0  0  0  0  0  0  0  0  0
    2.2018   -0.7568   -1.1474 H   0  0  0  0  0  0  0  0  0  0  0  0
    1.1639   -1.9870   -0.4282 H   0  0  0  0  0  0  0  0  0  0  0  0
    2.7186    0.1625    0.7494 H   0  0  0  0  0  0  0  0  0  0  0  0
    2.0775   -1.2069    1.4792 H   0  0  0  0  0  0  0  0  0  0  0  0
  1  2  1  0
  2  3  2  0
  2  4  1  0
  4  5  1  0
  5  6  1  0
  6  7  1  0
  6  8  1  0
  8  9  1  0
  9 10  1  0
 10 11  1  0
  9  4  1  0
  1 12  1  0
  1 13  1  0
  1 14  1  0
  5 15  1  0
  5 16  1  0
  6 17  1  6
  7 18  1  0
  8 19  1  0
  8 20  1  0
  9 21  1  6
 10 22  1  0
 10 23  1  0
 11 24  1  0
 11 25  1  0
M  END
$$$$

     RDKit          3D

 25 25  0  0  0  0  0  0  0  0999 V2000
    3.2203    0.0360    0.3463 C   0  0  0  0  0  0  0  0  0  0  0  0
    2.0069    0.5835   -0.3109 C   0  0  0  0  0  0  0  0  0  0  0  0
    2.1113    1.6946   -0.8920 O   0  0  0  0  0  0  0  0  0  0  0  0
    0.7911   -0.1278   -0.2758 N   0  0  0  0  0  0  0  0  0  0  0  0
    0.5494   -1.3976    0.3525 C   0  0  0  0  0  0  0  0  0  0  0  0
   -0.9329   -1.6242    0.3085 C   0  0  1  0  0  0  0  0  0  0  0  0
   -1.5179   -1.1560    1.4876 O   0  0  0  0  0  0  0  0  0  0  0  0
   -1.3824   -0.8323   -0.8979 C   0  0  0  0  0  0  0  0  0  0  0  0
   -0.4540    0.3323   -0.8942 C   0  0  1  0  0  0  0  0  0  0  0  0
   -0.9686    1.4856   -0.0552 C   0  0  0  0  0  0  0  0  0  0  0  0
   -2.2052    1.9347   -0.6784 N   0  0  0  0  0  0  0  0  0  0  0  0
    4.0192    0.7873    0.4290 H   0  0  0  0  0  0  0  0  0  0  0  0
    3.0135   -0.3220    1.3843 H   0  0  0  0  0  0  0  0  0  0  0  0
    3.6074   -0.7760   -0.3066 H   0  0  0  0  0  0  0  0  0  0  0  0
    0.8622   -1.4062    1.4059 H   0  0  0  0  0  0  0  0  0  0  0  0
    1.0790   -2.2249   -0.1943 H   0  0  0  0  0  0  0  0  0  0  0  0
   -1.2058   -2.6820    0.1886 H   0  0  0  0  0  0  0  0  0  0  0  0
   -2.4598   -1.4516    1.5406 H   0  0  0  0  0  0  0  0  0  0  0  0
   -1.2794   -1.4446   -1.8178 H   0  0  0  0  0  0  0  0  0  0  0  0
   -2.4542   -0.5422   -0.8065 H   0  0  0  0  0  0  0  0  0  0  0  0
   -0.1846    0.6983   -1.9053 H   0  0  0  0  0  0  0  0  0  0  0  0
   -1.1686    1.1676    0.9742 H   0  0  0  0  0  0  0  0  0  0  0  0
   -0.2513    2.3248   -0.0724 H   0  0  0  0  0  0  0  0  0  0  0  0
   -2.0282    2.4552   -1.5473 H   0  0  0  0  0  0  0  0  0  0  0  0
   -2.7672    2.4874    0.0304 H   0  0  0  0  0  0  0  0  0  0  0  0
  1  2  1  0
  2  3  2  0
  2  4  1  0
  4  5  1  0
  5  6  1  0
  6  7  1  0
  6  8  1  0
  8  9  1  0
  9 10  1  0
 10 11  1  0
  9  4  1  0
  1 12  1  0
  1 13  1  0
  1 14  1  0
  5 15  1  0
  5 16  1  0
  6 17  1  6
  7 18  1  0
  8 19  1  0
  8 20  1  0
  9 21  1  6
 10 22  1  0
 10 23  1  0
 11 24  1  0
 11 25  1  0
M  END
$$$$
