
     RDKit          3D

 30 30  0  0  0  0  0  0  0  0999 V2000
    4.3398   -0.3034   -1.0905 N   0  0  0  0  0  0  0  0  0  0  0  0
    3.2504   -0.9247   -0.3157 C   0  0  0  0  0  0  0  0  0  0  0  0
    2.1374    0.0875   -0.2226 C   0  0  2  0  0  0  0  0  0  0  0  0
    2.6838    1.2126    0.4096 O   0  0  0  0  0  0  0  0  0  0  0  0
    1.0431   -0.4813    0.6887 C   0  0  0  0  0  0  0  0  0  0  0  0
    0.0443    0.5123    0.8819 N   0  0  0  0  0  0  0  0  0  0  0  0
   -0.7583    0.7872   -0.2552 C   0  0  0  0  0  0  0  0  0  0  0  0
   -1.6815   -0.3671   -0.5730 C   0  0  1  0  0  0  0  0  0  0  0  0
   -2.6076   -0.6537    0.6210 C   0  0  0  0  0  0  0  0  0  0  0  0
   -3.4460    0.6205    0.5601 C   0  0  0  0  0  0  0  0  0  0  0  0
   -3.6086    0.9194   -0.7698 O   0  0  0  0  0  0  0  0  0  0  0  0
   -2.7537    0.1304   -1.5332 C   0  0  0  0  0  0  0  0  0  0  0  0
    5.2214   -0.8709   -1.0309 H   0  0  0  0  0  0  0  0  0  0  0  0
    4.5013    0.6787   -0.7708 H   0  0  0  0  0  0  0  0  0  0  0  0
    3.5732   -1.2748    0.6731 H   0  0  0  0  0  0  0  0  0  0  0  0
    2.8894   -1.7831   -0.9219 H   0  0  0  0  0  0  0  0  0  0  0  0
    1.7797    0.3380   -1.2209 H   0  0  0  0  0  0  0  0  0  0  0  0
    2.5463    2.0065   -0.1517 H   0  0  0  0  0  0  0  0  0  0  0  0
    0.5901   -1.3711    0.1857 H   0  0  0  0  0  0  0  0  0  0  0  0
    1.4761   -0.7577    1.6722 H   0  0  0  0  0  0  0  0  0  0  0  0
   -0.4155    0.4948    1.7924 H   0  0  0  0  0  0  0  0  0  0  0  0
   -1.3094    1.7411   -0.1298 H   0  0  0  0  0  0  0  0  0  0  0  0
   -0.1268    0.9362   -1.1585 H   0  0  0  0  0  0  0  0  0  0  0  0
   -1.1167   -1.2179   -0.9180 H   0  0  0  0  0  0  0  0  0  0  0  0
   -3.2582   -1.4824    0.3200 H   0  0  0  0  0  0  0  0  0  0  0  0
   -2.0531   -0.7815    1.5415 H   0  0  0  0  0  0  0  0  0  0  0  0
   -4.3581    0.4900    1.1470 H   0  0  0  0  0  0  0  0  0  0  0  0
   -2.8885    1.4554    1.0761 H   0  0  0  0  0  0  0  0  0  0  0  0
   -3.3256   -0.7839   -1.8526 H   0  0  0  0  0  0  0  0  0  0  0  0
   -2.3689    0.6429   -2.4097 H   0  0  0  0  0  0  0  0  0  0  0  0
  1  2  1  0
  2  3  1  0
  3  4  1  0
  3  5  1  0
  5  6  1  0
  6  7  1  0
  7  8  1  0
  8  9  1  0
  9 10  1  0
 10 11  1  0
 11 12  1  0
 12  8  1  0
  1 13  1  0
  1 14  1  0
  2 15  1  0
  2 16  1  0
  3 17  1  6
  4 18  1  0
  5 19  1  0
  5 20  1  0
  6 21  1  0
  7 22  1  0
  7 23  1  0
  8 24  1  6
  9 25  1  0
  9 26  1  0
 10 27  1  0
 10 28  1  0
 12 29  1  0
 12 30  1  0
M  END
$$$$

     RDKit          3D

 30 30  0  0  0  0  0  0  0  0999 V2000
    3.6509   -1.5073   -0.0611 N   0  0  0  0  0  0  0  0  0  0  0  0
    3.8031   -0.2799    0.7128 C   0  0  0  0  0  0  0  0  0  0  0  0
    2.7122    0.7004    0.3028 C   0  0  2  0  0  0  0  0  0  0  0  0
    2.8042    1.8644    1.0237 O   0  0  0  0  0  0  0  0  0  0  0  0
    1.4062   -0.0233    0.4619 C   0  0  0  0  0  0  0  0  0  0  0  0
    0.2603    0.7606    0.0330 N   0  0  0  0  0  0  0  0  0  0  0  0
   -0.8164   -0.2158   -0.0936 C   0  0  0  0  0  0  0  0  0  0  0  0
   -2.0647    0.3381   -0.7060 C   0  0  1  0  0  0  0  0  0  0  0  0
   -3.0627   -0.7930   -0.8220 C   0  0  0  0  0  0  0  0  0  0  0  0
   -3.8783   -0.6721    0.4243 C   0  0  0  0  0  0  0  0  0  0  0  0
   -3.4817    0.4585    1.0770 O   0  0  0  0  0  0  0  0  0  0  0  0
   -2.8223    1.2993    0.1854 C   0  0  0  0  0  0  0  0  0  0  0  0
    3.5538   -1.2857   -1.0814 H   0  0  0  0  0  0  0  0  0  0  0  0
    4.5327   -2.0713    0.0259 H   0  0  0  0  0  0  0  0  0  0  0  0
    4.8116    0.1148    0.5029 H   0  0  0  0  0  0  0  0  0  0  0  0
    3.7385   -0.5147    1.7983 H   0  0  0  0  0  0  0  0  0  0  0  0
    2.8350    0.8769   -0.8015 H   0  0  0  0  0  0  0  0  0  0  0  0
    2.8300    2.6619    0.4369 H   0  0  0  0  0  0  0  0  0  0  0  0
    1.2502   -0.3229    1.5223 H   0  0  0  0  0  0  0  0  0  0  0  0
    1.4205   -0.9559   -0.1276 H   0  0  0  0  0  0  0  0  0  0  0  0
    0.4187    1.3333   -0.7992 H   0  0  0  0  0  0  0  0  0  0  0  0
   -0.4572   -1.0525   -0.7143 H   0  0  0  0  0  0  0  0  0  0  0  0
   -1.0252   -0.6172    0.9280 H   0  0  0  0  0  0  0  0  0  0  0  0
   -1.8556    0.8090   -1.6992 H   0  0  0  0  0  0  0  0  0  0  0  0
   -3.6343   -0.7009   -1.7654 H   0  0  0  0  0  0  0  0  0  0  0  0
   -2.4977   -1.7671   -0.8654 H   0  0  0  0  0  0  0  0  0  0  0  0
   -4.9493   -0.6514    0.1336 H   0  0  0  0  0  0  0  0  0  0  0  0
   -3.7513   -1.5807    1.0822 H   0  0  0  0  0  0  0  0  0  0  0  0
   -3.5559    1.8135   -0.4547 H   0  0  0  0  0  0  0  0  0  0  0  0
   -2.1754    1.9811    0.7263 H   0  0  0  0  0  0  0  0  0  0  0  0
  1  2  1  0
  2  3  1  0
  3  4  1  0
  3  5  1  0
  5  6  1  0
  6  7  1  0
  7  8  1  0
  8  9  1  0
  9 10  1  0
 10 11  1  0
 11 12  1  0
 12  8  1  0
  1 13  1  0
  1 14  1  0
  2 15  1  0
  2 16  1  0
  3 17  1  6
  4 18  1  0
  5 19  1  0
  5 20  1  0
  6 21  1  0
  7 22  1  0
  7 23  1  0
  8 24  1  6
  9 25  1  0
  9 26  1  0
 10 27  1  0
 10 28  1  0
 12 29  1  0
 12 30  1  0
M  END
$$$$

     RDKit          3D

 30 30  0  0  0  0  0  0  0  0999 V2000
    4.6532    0.2122    0.5082 N   0  0  0  0  0  0  0  0  0  0  0  0
    3.6582   -0.1828   -0.4769 C   0  0  0  0  0  0  0  0  0  0  0  0
    2.2976    0.3170   -0.0011 C   0  0  2  0  0  0  0  0  0  0  0  0
    2.0350   -0.2576    1.2093 O   0  0  0  0  0  0  0  0  0  0  0  0
    1.2850    0.0895   -1.0797 C   0  0  0  0  0  0  0  0  0  0  0  0
   -0.0132    0.5717   -0.7869 N   0  0  0  0  0  0  0  0  0  0  0  0
   -0.7656   -0.0977    0.2083 C   0  0  0  0  0  0  0  0  0  0  0  0
   -2.1223    0.5385    0.4323 C   0  0  1  0  0  0  0  0  0  0  0  0
   -3.0002    0.5659   -0.7735 C   0  0  0  0  0  0  0  0  0  0  0  0
   -3.7040   -0.7980   -0.6365 C   0  0  0  0  0  0  0  0  0  0  0  0
   -4.0907   -0.7108    0.7052 O   0  0  0  0  0  0  0  0  0  0  0  0
   -2.8917   -0.4092    1.3408 C   0  0  0  0  0  0  0  0  0  0  0  0
    5.2821   -0.6173    0.6392 H   0  0  0  0  0  0  0  0  0  0  0  0
    5.2045    0.9809    0.0814 H   0  0  0  0  0  0  0  0  0  0  0  0
    3.6386   -1.2960   -0.5981 H   0  0  0  0  0  0  0  0  0  0  0  0
    3.8860    0.2033   -1.4931 H   0  0  0  0  0  0  0  0  0  0  0  0
    2.3560    1.4404    0.1241 H   0  0  0  0  0  0  0  0  0  0  0  0
    2.0473    0.4115    1.9653 H   0  0  0  0  0  0  0  0  0  0  0  0
    1.2988   -0.9684   -1.4516 H   0  0  0  0  0  0  0  0  0  0  0  0
    1.6528    0.6748   -1.9741 H   0  0  0  0  0  0  0  0  0  0  0  0
   -0.5225    0.8207   -1.6561 H   0  0  0  0  0  0  0  0  0  0  0  0
   -0.2525   -0.0334    1.1858 H   0  0  0  0  0  0  0  0  0  0  0  0
   -0.8849   -1.1964    0.0046 H   0  0  0  0  0  0  0  0  0  0  0  0
   -1.9560    1.4954    0.9218 H   0  0  0  0  0  0  0  0  0  0  0  0
   -3.7473    1.3989   -0.6141 H   0  0  0  0  0  0  0  0  0  0  0  0
   -2.5171    0.6624   -1.7373 H   0  0  0  0  0  0  0  0  0  0  0  0
   -2.8867   -1.5594   -0.7239 H   0  0  0  0  0  0  0  0  0  0  0  0
   -4.5178   -0.9179   -1.3438 H   0  0  0  0  0  0  0  0  0  0  0  0
   -2.3528   -1.3602    1.5094 H   0  0  0  0  0  0  0  0  0  0  0  0
   -3.0701    0.0219    2.3471 H   0  0  0  0  0  0  0  0  0  0  0  0
  1  2  1  0
  2  3  1  0
  3  4  1  0
  3  5  1  0
  5  6  1  0
  6  7  1  0
  7  8  1  0
  8  9  1  0
  9 10  1  0
 10 11  1  0
 11 12  1  0
 12  8  1  0
  1 13  1  0
  1 14  1  0
  2 15  1  0
  2 16  1  0
  3 17  1  1
  4 18  1  0
  5 19  1  0
  5 20  1  0
  6 21  1  0
  7 22  1  0
  7 23  1  0
  8 24  1  1
  9 25  1  0
  9 26  1  0
 10 27  1  0
 10 28  1  0
 12 29  1  0
 12 30  1  0
M  END
$$$$

     RDKit          3D

 30 30  0  0  0  0  0  0  0  0999 V2000
    4.4038    0.4139   -0.7741 N   0  0  0  0  0  0  0  0  0  0  0  0
    3.7634   -0.8086   -0.4093 C   0  0  0  0  0  0  0  0  0  0  0  0
    2.3843   -0.6315    0.1818 C   0  0  2  0  0  0  0  0  0  0  0  0
    1.8063   -1.8363    0.5181 O   0  0  0  0  0  0  0  0  0  0  0  0
    1.4977    0.2298   -0.7147 C   0  0  0  0  0  0  0  0  0  0  0  0
    0.2768    0.6040   -0.1449 N   0  0  0  0  0  0  0  0  0  0  0  0
   -0.6743   -0.3962    0.0503 C   0  0  0  0  0  0  0  0  0  0  0  0
   -1.9540    0.1127    0.7035 C   0  0  1  0  0  0  0  0  0  0  0  0
   -2.6022    1.1953   -0.1754 C   0  0  0  0  0  0  0  0  0  0  0  0
   -3.9873    1.1552    0.4658 C   0  0  0  0  0  0  0  0  0  0  0  0
   -4.2615   -0.1833    0.6840 O   0  0  0  0  0  0  0  0  0  0  0  0
   -3.0671   -0.8919    0.7106 C   0  0  0  0  0  0  0  0  0  0  0  0
    4.5803    1.0467    0.0256 H   0  0  0  0  0  0  0  0  0  0  0  0
    4.0081    0.9221   -1.5691 H   0  0  0  0  0  0  0  0  0  0  0  0
    3.7864   -1.5381   -1.2296 H   0  0  0  0  0  0  0  0  0  0  0  0
    4.3785   -1.2594    0.4198 H   0  0  0  0  0  0  0  0  0  0  0  0
    2.5267   -0.0526    1.1509 H   0  0  0  0  0  0  0  0  0  0  0  0
    1.8556   -1.9728    1.4702 H   0  0  0  0  0  0  0  0  0  0  0  0
    2.0591    1.1443   -1.0308 H   0  0  0  0  0  0  0  0  0  0  0  0
    1.3995   -0.3511   -1.6798 H   0  0  0  0  0  0  0  0  0  0  0  0
    0.1024    1.5355    0.1895 H   0  0  0  0  0  0  0  0  0  0  0  0
   -0.3144   -1.1884    0.7561 H   0  0  0  0  0  0  0  0  0  0  0  0
   -0.9431   -0.9237   -0.8967 H   0  0  0  0  0  0  0  0  0  0  0  0
   -1.7361    0.5225    1.7080 H   0  0  0  0  0  0  0  0  0  0  0  0
   -2.0885    2.1638   -0.0434 H   0  0  0  0  0  0  0  0  0  0  0  0
   -2.6437    0.8070   -1.1920 H   0  0  0  0  0  0  0  0  0  0  0  0
   -4.7539    1.6434   -0.1430 H   0  0  0  0  0  0  0  0  0  0  0  0
   -3.8532    1.6526    1.4726 H   0  0  0  0  0  0  0  0  0  0  0  0
   -2.9467   -1.5314   -0.1923 H   0  0  0  0  0  0  0  0  0  0  0  0
   -3.0028   -1.5835    1.5916 H   0  0  0  0  0  0  0  0  0  0  0  0
  1  2  1  0
  2  3  1  0
  3  4  1  0
  3  5  1  0
  5  6  1  0
  6  7  1  0
  7  8  1  0
  8  9  1  0
  9 10  1  0
 10 11  1  0
 11 12  1  0
 12  8  1  0
  1 13  1  0
  1 14  1  0
  2 15  1  0
  2 16  1  0
  3 17  1  1
  4 18  1  0
  5 19  1  0
  5 20  1  0
  6 21  1  0
  7 22  1  0
  7 23  1  0
  8 24  1  1
  9 25  1  0
  9 26  1  0
 10 27  1  0
 10 28  1  0
 12 29  1  0
 12 30  1  0
M  END
$$$$

     RDKit          3D

 30 30  0  0  0  0  0  0  0  0999 V2000
    3.5220    1.1537   -1.2892 N   0  0  0  0  0  0  0  0  0  0  0  0
    3.2255    0.9718    0.0767 C   0  0  0  0  0  0  0  0  0  0  0  0
    2.8253   -0.3597    0.5232 C   0  0  2  0  0  0  0  0  0  0  0  0
    3.8493   -1.3052    0.2338 O   0  0  0  0  0  0  0  0  0  0  0  0
    1.5588   -0.9735    0.1088 C   0  0  0  0  0  0  0  0  0  0  0  0
    0.3767   -0.1554    0.3603 N   0  0  0  0  0  0  0  0  0  0  0  0
   -0.8023   -1.0030    0.1434 C   0  0  0  0  0  0  0  0  0  0  0  0
   -2.0118   -0.2250    0.4493 C   0  0  1  0  0  0  0  0  0  0  0  0
   -2.2505    1.0082   -0.3927 C   0  0  0  0  0  0  0  0  0  0  0  0
   -3.6855    1.2863    0.1109 C   0  0  0  0  0  0  0  0  0  0  0  0
   -4.2879    0.0385    0.2304 O   0  0  0  0  0  0  0  0  0  0  0  0
   -3.3310   -0.9445    0.1793 C   0  0  0  0  0  0  0  0  0  0  0  0
    3.2185    0.4336   -1.9520 H   0  0  0  0  0  0  0  0  0  0  0  0
    3.6144    2.1149   -1.6212 H   0  0  0  0  0  0  0  0  0  0  0  0
    2.4850    1.7693    0.3825 H   0  0  0  0  0  0  0  0  0  0  0  0
    4.1565    1.2607    0.6651 H   0  0  0  0  0  0  0  0  0  0  0  0
    2.8262   -0.3615    1.6686 H   0  0  0  0  0  0  0  0  0  0  0  0
    3.4763   -2.1956    0.4095 H   0  0  0  0  0  0  0  0  0  0  0  0
    1.5604   -1.3587   -0.9424 H   0  0  0  0  0  0  0  0  0  0  0  0
    1.4184   -1.8982    0.7182 H   0  0  0  0  0  0  0  0  0  0  0  0
    0.3369    0.6902   -0.2469 H   0  0  0  0  0  0  0  0  0  0  0  0
   -0.7378   -1.8421    0.8776 H   0  0  0  0  0  0  0  0  0  0  0  0
   -0.7858   -1.3898   -0.8746 H   0  0  0  0  0  0  0  0  0  0  0  0
   -2.0726    0.1027    1.5171 H   0  0  0  0  0  0  0  0  0  0  0  0
   -1.5652    1.8271   -0.1684 H   0  0  0  0  0  0  0  0  0  0  0  0
   -2.3798    0.7748   -1.4691 H   0  0  0  0  0  0  0  0  0  0  0  0
   -4.2135    1.9778   -0.5496 H   0  0  0  0  0  0  0  0  0  0  0  0
   -3.5461    1.6660    1.1471 H   0  0  0  0  0  0  0  0  0  0  0  0
   -3.2889   -1.2914   -0.8838 H   0  0  0  0  0  0  0  0  0  0  0  0
   -3.4914   -1.7721    0.8968 H   0  0  0  0  0  0  0  0  0  0  0  0
  1  2  1  0
  2  3  1  0
  3  4  1  0
  3  5  1  0
  5  6  1  0
  6  7  1  0
  7  8  1  0
  8  9  1  0
  9 10  1  0
 10 11  1  0
 11 12  1  0
 12  8  1  0
  1 13  1  0
  1 14  1  0
  2 15  1  0
  2 16  1  0
  3 17  1  1
  4 18  1  0
  5 19  1  0
  5 20  1  0
  6 21  1  0
  7 22  1  0
  7 23  1  0
  8 24  1  1
  9 25  1  0
  9 26  1  0
 10 27  1  0
 10 28  1  0
 12 29  1  0
 12 30  1  0
M  END
$$$$

     RDKit          3D

 30 30  0  0  0  0  0  0  0  0999 V2000
   -3.5959    1.3303   -0.2975 N   0  0  0  0  0  0  0  0  0  0  0  0
   -3.2568    0.2415    0.5987 C   0  0  0  0  0  0  0  0  0  0  0  0
   -2.6503   -0.9395   -0.1388 C   0  0  2  0  0  0  0  0  0  0  0  0
   -2.3613   -1.8768    0.8461 O   0  0  0  0  0  0  0  0  0  0  0  0
   -1.3405   -0.5395   -0.7823 C   0  0  0  0  0  0  0  0  0  0  0  0
   -0.5475    0.0468    0.2364 N   0  0  0  0  0  0  0  0  0  0  0  0
    0.6523    0.6439   -0.1011 C   0  0  0  0  0  0  0  0  0  0  0  0
    1.7800   -0.2192   -0.5752 C   0  0  1  0  0  0  0  0  0  0  0  0
    3.0030    0.6262   -0.8953 C   0  0  0  0  0  0  0  0  0  0  0  0
    3.6761    0.6467    0.4574 C   0  0  0  0  0  0  0  0  0  0  0  0
    3.3953   -0.5385    1.0791 O   0  0  0  0  0  0  0  0  0  0  0  0
    2.3311   -1.1527    0.4466 C   0  0  0  0  0  0  0  0  0  0  0  0
   -2.8005    1.5750   -0.9315 H   0  0  0  0  0  0  0  0  0  0  0  0
   -3.7463    2.1658    0.3353 H   0  0  0  0  0  0  0  0  0  0  0  0
   -4.2007   -0.1020    1.0571 H   0  0  0  0  0  0  0  0  0  0  0  0
   -2.5932    0.5864    1.4178 H   0  0  0  0  0  0  0  0  0  0  0  0
   -3.3834   -1.3762   -0.8338 H   0  0  0  0  0  0  0  0  0  0  0  0
   -3.0071   -1.8454    1.6047 H   0  0  0  0  0  0  0  0  0  0  0  0
   -0.8458   -1.5058   -1.0898 H   0  0  0  0  0  0  0  0  0  0  0  0
   -1.4226    0.0778   -1.6676 H   0  0  0  0  0  0  0  0  0  0  0  0
   -0.7265   -0.2582    1.1981 H   0  0  0  0  0  0  0  0  0  0  0  0
    0.4611    1.4221   -0.8904 H   0  0  0  0  0  0  0  0  0  0  0  0
    1.0223    1.2341    0.7837 H   0  0  0  0  0  0  0  0  0  0  0  0
    1.4483   -0.7448   -1.4912 H   0  0  0  0  0  0  0  0  0  0  0  0
    3.5966    0.1735   -1.6898 H   0  0  0  0  0  0  0  0  0  0  0  0
    2.6688    1.6580   -1.1406 H   0  0  0  0  0  0  0  0  0  0  0  0
    4.7639    0.7537    0.3162 H   0  0  0  0  0  0  0  0  0  0  0  0
    3.2961    1.5114    1.0611 H   0  0  0  0  0  0  0  0  0  0  0  0
    1.6208   -1.5433    1.1731 H   0  0  0  0  0  0  0  0  0  0  0  0
    2.7626   -2.0512   -0.0865 H   0  0  0  0  0  0  0  0  0  0  0  0
  1  2  1  0
  2  3  1  0
  3  4  1  0
  3  5  1  0
  5  6  1  0
  6  7  1  0
  7  8  1  0
  8  9  1  0
  9 10  1  0
 10 11  1  0
 11 12  1  0
 12  8  1  0
  1 13  1  0
  1 14  1  0
  2 15  1  0
  2 16  1  0
  3 17  1  6
  4 18  1  0
  5 19  1  0
  5 20  1  0
  6 21  1  0
  7 22  1  0
  7 23  1  0
  8 24  1  6
  9 25  1  0
  9 26  1  0
 10 27  1  0
 10 28  1  0
 12 29  1  0
 12 30  1  0
M  END
$$$$

     RDKit          3D

 30 30  0  0  0  0  0  0  0  0999 V2000
    4.4289   -0.9761   -1.1901 N   0  0  0  0  0  0  0  0  0  0  0  0
    3.2465   -0.8959   -0.3476 C   0  0  0  0  0  0  0  0  0  0  0  0
    2.3097    0.1583   -0.9047 C   0  0  2  0  0  0  0  0  0  0  0  0
    3.0114    1.3829   -0.9408 O   0  0  0  0  0  0  0  0  0  0  0  0
    1.1371    0.4068    0.0326 C   0  0  0  0  0  0  0  0  0  0  0  0
    0.3040   -0.7357    0.2021 N   0  0  0  0  0  0  0  0  0  0  0  0
   -0.7591   -0.4632    1.1213 C   0  0  0  0  0  0  0  0  0  0  0  0
   -1.7455    0.4950    0.5360 C   0  0  1  0  0  0  0  0  0  0  0  0
   -2.3908   -0.0369   -0.7193 C   0  0  0  0  0  0  0  0  0  0  0  0
   -3.8620   -0.1792   -0.3176 C   0  0  0  0  0  0  0  0  0  0  0  0
   -3.8242   -0.2722    1.0578 O   0  0  0  0  0  0  0  0  0  0  0  0
   -2.9375    0.7362    1.4319 C   0  0  0  0  0  0  0  0  0  0  0  0
    5.2407   -1.2148   -0.5946 H   0  0  0  0  0  0  0  0  0  0  0  0
    4.6241   -0.0733   -1.6654 H   0  0  0  0  0  0  0  0  0  0  0  0
    2.7099   -1.8771   -0.4257 H   0  0  0  0  0  0  0  0  0  0  0  0
    3.4743   -0.6327    0.6928 H   0  0  0  0  0  0  0  0  0  0  0  0
    1.9333   -0.0831   -1.9013 H   0  0  0  0  0  0  0  0  0  0  0  0
    3.0921    1.7279   -0.0453 H   0  0  0  0  0  0  0  0  0  0  0  0
    0.5198    1.2301   -0.4181 H   0  0  0  0  0  0  0  0  0  0  0  0
    1.4908    0.7372    1.0383 H   0  0  0  0  0  0  0  0  0  0  0  0
   -0.0139   -1.1345   -0.6911 H   0  0  0  0  0  0  0  0  0  0  0  0
   -0.2856   -0.0700    2.0526 H   0  0  0  0  0  0  0  0  0  0  0  0
   -1.2932   -1.4279    1.3299 H   0  0  0  0  0  0  0  0  0  0  0  0
   -1.2853    1.5150    0.3623 H   0  0  0  0  0  0  0  0  0  0  0  0
   -1.9980   -1.0411   -1.0066 H   0  0  0  0  0  0  0  0  0  0  0  0
   -2.3190    0.7124   -1.5356 H   0  0  0  0  0  0  0  0  0  0  0  0
   -4.2611   -1.1246   -0.7757 H   0  0  0  0  0  0  0  0  0  0  0  0
   -4.4390    0.7006   -0.6727 H   0  0  0  0  0  0  0  0  0  0  0  0
   -2.7233    0.7250    2.4959 H   0  0  0  0  0  0  0  0  0  0  0  0
   -3.3849    1.7110    1.1569 H   0  0  0  0  0  0  0  0  0  0  0  0
  1  2  1  0
  2  3  1  0
  3  4  1  0
  3  5  1  0
  5  6  1  0
  6  7  1  0
  7  8  1  0
  8  9  1  0
  9 10  1  0
 10 11  1  0
 11 12  1  0
 12  8  1  0
  1 13  1  0
  1 14  1  0
  2 15  1  0
  2 16  1  0
  3 17  1  6
  4 18  1  0
  5 19  1  0
  5 20  1  0
  6 21  1  0
  7 22  1  0
  7 23  1  0
  8 24  1  6
  9 25  1  0
  9 26  1  0
 10 27  1  0
 10 28  1  0
 12 29  1  0
 12 30  1  0
M  END
$$$$

     RDKit          3D

 30 30  0  0  0  0  0  0  0  0999 V2000
    2.4554   -1.6487   -0.6912 N   0  0  0  0  0  0  0  0  0  0  0  0
    3.3690   -0.7198   -0.1079 C   0  0  0  0  0  0  0  0  0  0  0  0
    2.8773    0.6960   -0.2326 C   0  0  2  0  0  0  0  0  0  0  0  0
    3.8860    1.5456    0.3269 O   0  0  0  0  0  0  0  0  0  0  0  0
    1.6044    0.9684    0.5118 C   0  0  0  0  0  0  0  0  0  0  0  0
    0.5240    0.1806    0.0280 N   0  0  0  0  0  0  0  0  0  0  0  0
   -0.7099    0.6438    0.7371 C   0  0  0  0  0  0  0  0  0  0  0  0
   -1.8049   -0.2066    0.2290 C   0  0  1  0  0  0  0  0  0  0  0  0
   -3.1615    0.0735    0.8010 C   0  0  0  0  0  0  0  0  0  0  0  0
   -4.0392   -0.5777   -0.2772 C   0  0  0  0  0  0  0  0  0  0  0  0
   -3.2484   -0.8222   -1.3651 O   0  0  0  0  0  0  0  0  0  0  0  0
   -2.0810   -0.0519   -1.2455 C   0  0  0  0  0  0  0  0  0  0  0  0
    2.6149   -1.7990   -1.7181 H   0  0  0  0  0  0  0  0  0  0  0  0
    2.3835   -2.5576   -0.1767 H   0  0  0  0  0  0  0  0  0  0  0  0
    3.5013   -0.9820    0.9694 H   0  0  0  0  0  0  0  0  0  0  0  0
    4.3779   -0.7606   -0.6095 H   0  0  0  0  0  0  0  0  0  0  0  0
    2.7948    0.9780   -1.2953 H   0  0  0  0  0  0  0  0  0  0  0  0
    3.4071    2.3536    0.6481 H   0  0  0  0  0  0  0  0  0  0  0  0
    1.7546    0.8300    1.6196 H   0  0  0  0  0  0  0  0  0  0  0  0
    1.3669    2.0531    0.3460 H   0  0  0  0  0  0  0  0  0  0  0  0
    0.6321   -0.8494    0.2796 H   0  0  0  0  0  0  0  0  0  0  0  0
   -0.8166    1.7139    0.5657 H   0  0  0  0  0  0  0  0  0  0  0  0
   -0.5436    0.4708    1.8129 H   0  0  0  0  0  0  0  0  0  0  0  0
   -1.5681   -1.2766    0.4072 H   0  0  0  0  0  0  0  0  0  0  0  0
   -3.3833    1.1489    0.7694 H   0  0  0  0  0  0  0  0  0  0  0  0
   -3.2844   -0.3870    1.7824 H   0  0  0  0  0  0  0  0  0  0  0  0
   -4.3670   -1.5629    0.1269 H   0  0  0  0  0  0  0  0  0  0  0  0
   -4.9100    0.0334   -0.5238 H   0  0  0  0  0  0  0  0  0  0  0  0
   -2.3703    0.9831   -1.5283 H   0  0  0  0  0  0  0  0  0  0  0  0
   -1.2612   -0.4707   -1.8488 H   0  0  0  0  0  0  0  0  0  0  0  0
  1  2  1  0
  2  3  1  0
  3  4  1  0
  3  5  1  0
  5  6  1  0
  6  7  1  0
  7  8  1  0
  8  9  1  0
  9 10  1  0
 10 11  1  0
 11 12  1  0
 12  8  1  0
  1 13  1  0
  1 14  1  0
  2 15  1  0
  2 16  1  0
  3 17  1  6
  4 18  1  0
  5 19  1  0
  5 20  1  0
  6 21  1  0
  7 22  1  0
  7 23  1  0
  8 24  1  6
  9 25  1  0
  9 26  1  0
 10 27  1  0
 10 28  1  0
 12 29  1  0
 12 30  1  0
M  END
$$$$
