
     RDKit          3D

 27 27  0  0  0  0  0  0  0  0999 V2000
    2.0817    1.5009   -1.3417 N   0  0  0  0  0  0  0  0  0  0  0  0
    1.6370    1.1048   -0.1993 C   0  0  0  0  0  0  0  0  0  0  0  0
    1.8988    1.8936    0.9412 N   0  0  0  0  0  0  0  0  0  0  0  0
    0.9053   -0.1111   -0.1610 N   0  0  0  0  0  0  0  0  0  0  0  0
    1.3524   -1.3429   -0.7773 C   0  0  0  0  0  0  0  0  0  0  0  0
    0.5986   -2.4581   -0.1252 C   0  0  0  0  0  0  0  0  0  0  0  0
   -0.5538   -1.8212    0.5739 C   0  0  0  0  0  0  0  0  0  0  0  0
   -0.3534   -0.3080    0.4741 C   0  0  2  0  0  0  0  0  0  0  0  0
   -1.5239    0.2437   -0.2662 C   0  0  1  0  0  0  0  0  0  0  0  0
   -2.6738   -0.0369    0.4967 O   0  0  0  0  0  0  0  0  0  0  0  0
   -1.4734    1.7240   -0.4886 C   0  0  0  0  0  0  0  0  0  0  0  0
   -1.4082    2.4533    0.6872 O   0  0  0  0  0  0  0  0  0  0  0  0
    1.9210    0.9622   -2.2191 H   0  0  0  0  0  0  0  0  0  0  0  0
    2.5675    1.5598    1.6529 H   0  0  0  0  0  0  0  0  0  0  0  0
    1.4272    2.8026    1.0708 H   0  0  0  0  0  0  0  0  0  0  0  0
    2.4343   -1.5293   -0.6180 H   0  0  0  0  0  0  0  0  0  0  0  0
    1.1649   -1.2858   -1.8754 H   0  0  0  0  0  0  0  0  0  0  0  0
    0.2633   -3.1795   -0.9150 H   0  0  0  0  0  0  0  0  0  0  0  0
    1.2167   -3.0409    0.5901 H   0  0  0  0  0  0  0  0  0  0  0  0
   -1.4839   -2.1499    0.0805 H   0  0  0  0  0  0  0  0  0  0  0  0
   -0.5892   -2.1643    1.6219 H   0  0  0  0  0  0  0  0  0  0  0  0
   -0.3330    0.0731    1.5165 H   0  0  0  0  0  0  0  0  0  0  0  0
   -1.6479   -0.2496   -1.2433 H   0  0  0  0  0  0  0  0  0  0  0  0
   -2.4685   -0.5209    1.3196 H   0  0  0  0  0  0  0  0  0  0  0  0
   -2.4368    2.0105   -0.9823 H   0  0  0  0  0  0  0  0  0  0  0  0
   -0.6796    1.9638   -1.2034 H   0  0  0  0  0  0  0  0  0  0  0  0
   -1.8434    1.9061    1.3905 H   0  0  0  0  0  0  0  0  0  0  0  0
  1  2  2  3
  2  3  1  0
  2  4  1  0
  4  5  1  0
  5  6  1  0
  6  7  1  0
  7  8  1  0
  8  9  1  0
  9 10  1  0
  9 11  1  0
 11 12  1  0
  8  4  1  0
  1 13  1  0
  3 14  1  0
  3 15  1  0
  5 16  1  0
  5 17  1  0
  6 18  1  0
  6 19  1  0
  7 20  1  0
  7 21  1  0
  8 22  1  1
  9 23  1  6
 10 24  1  0
 11 25  1  0
 11 26  1  0
 12 27  1  0
M  END
$$$$

     RDKit          3D

 27 27  0  0  0  0  0  0  0  0999 V2000
   -2.2584   -0.1631    2.2455 N   0  0  0  0  0  0  0  0  0  0  0  0
   -1.7453   -0.4987    1.1285 C   0  0  0  0  0  0  0  0  0  0  0  0
   -1.8838   -1.8324    0.6578 N   0  0  0  0  0  0  0  0  0  0  0  0
   -1.0464    0.5028    0.3977 N   0  0  0  0  0  0  0  0  0  0  0  0
   -1.5887    1.6965   -0.2505 C   0  0  0  0  0  0  0  0  0  0  0  0
   -0.8245    1.7384   -1.5547 C   0  0  0  0  0  0  0  0  0  0  0  0
    0.3605    0.7932   -1.3755 C   0  0  0  0  0  0  0  0  0  0  0  0
    0.3725    0.6022    0.1067 C   0  0  2  0  0  0  0  0  0  0  0  0
    1.1444   -0.5952    0.5640 C   0  0  1  0  0  0  0  0  0  0  0  0
    0.7043   -1.7457   -0.0372 O   0  0  0  0  0  0  0  0  0  0  0  0
    2.6113   -0.3330    0.2506 C   0  0  0  0  0  0  0  0  0  0  0  0
    3.3697   -1.3970    0.7142 O   0  0  0  0  0  0  0  0  0  0  0  0
   -2.7756   -0.8555    2.8125 H   0  0  0  0  0  0  0  0  0  0  0  0
   -1.6110   -2.6762    1.2254 H   0  0  0  0  0  0  0  0  0  0  0  0
   -2.2688   -2.0071   -0.2849 H   0  0  0  0  0  0  0  0  0  0  0  0
   -2.6736    1.6470   -0.3902 H   0  0  0  0  0  0  0  0  0  0  0  0
   -1.2642    2.5506    0.4016 H   0  0  0  0  0  0  0  0  0  0  0  0
   -1.4502    1.4533   -2.4232 H   0  0  0  0  0  0  0  0  0  0  0  0
   -0.3904    2.7601   -1.7225 H   0  0  0  0  0  0  0  0  0  0  0  0
    0.0838   -0.1384   -1.9166 H   0  0  0  0  0  0  0  0  0  0  0  0
    1.3021    1.2305   -1.7376 H   0  0  0  0  0  0  0  0  0  0  0  0
    0.7428    1.5246    0.5852 H   0  0  0  0  0  0  0  0  0  0  0  0
    1.0584   -0.6580    1.6629 H   0  0  0  0  0  0  0  0  0  0  0  0
    1.0242   -1.7801   -0.9810 H   0  0  0  0  0  0  0  0  0  0  0  0
    2.9560    0.6155    0.6672 H   0  0  0  0  0  0  0  0  0  0  0  0
    2.7397   -0.2537   -0.8624 H   0  0  0  0  0  0  0  0  0  0  0  0
    3.3113   -2.1803    0.1168 H   0  0  0  0  0  0  0  0  0  0  0  0
  1  2  2  3
  2  3  1  0
  2  4  1  0
  4  5  1  0
  5  6  1  0
  6  7  1  0
  7  8  1  0
  8  9  1  0
  9 10  1  0
  9 11  1  0
 11 12  1  0
  8  4  1  0
  1 13  1  0
  3 14  1  0
  3 15  1  0
  5 16  1  0
  5 17  1  0
  6 18  1  0
  6 19  1  0
  7 20  1  0
  7 21  1  0
  8 22  1  1
  9 23  1  1
 10 24  1  0
 11 25  1  0
 11 26  1  0
 12 27  1  0
M  END
$$$$

     RDKit          3D

 27 27  0  0  0  0  0  0  0  0999 V2000
   -1.2543    2.3375   -1.2639 N   0  0  0  0  0  0  0  0  0  0  0  0
   -1.5392    1.3375   -0.5025 C   0  0  0  0  0  0  0  0  0  0  0  0
   -2.5472    1.5585    0.4986 N   0  0  0  0  0  0  0  0  0  0  0  0
   -0.8940    0.0755   -0.6391 N   0  0  0  0  0  0  0  0  0  0  0  0
   -1.5556   -1.1881   -0.3770 C   0  0  0  0  0  0  0  0  0  0  0  0
   -0.5123   -2.2513   -0.4630 C   0  0  0  0  0  0  0  0  0  0  0  0
    0.4759   -1.6641   -1.4589 C   0  0  0  0  0  0  0  0  0  0  0  0
    0.4660   -0.1876   -1.0418 C   0  0  2  0  0  0  0  0  0  0  0  0
    1.4388   -0.0739    0.1118 C   0  0  1  0  0  0  0  0  0  0  0  0
    2.7181   -0.3435   -0.3726 O   0  0  0  0  0  0  0  0  0  0  0  0
    1.4742    1.3343    0.6719 C   0  0  0  0  0  0  0  0  0  0  0  0
    2.4294    1.3490    1.6881 O   0  0  0  0  0  0  0  0  0  0  0  0
   -1.7282    3.2561   -1.1600 H   0  0  0  0  0  0  0  0  0  0  0  0
   -2.4322    2.3082    1.1854 H   0  0  0  0  0  0  0  0  0  0  0  0
   -3.3882    0.9550    0.5195 H   0  0  0  0  0  0  0  0  0  0  0  0
   -2.3516   -1.3075   -1.1695 H   0  0  0  0  0  0  0  0  0  0  0  0
   -2.0379   -1.1055    0.6036 H   0  0  0  0  0  0  0  0  0  0  0  0
   -0.0234   -2.3706    0.5170 H   0  0  0  0  0  0  0  0  0  0  0  0
   -0.9387   -3.2040   -0.8335 H   0  0  0  0  0  0  0  0  0  0  0  0
    0.1325   -1.8043   -2.4821 H   0  0  0  0  0  0  0  0  0  0  0  0
    1.4466   -2.1310   -1.2512 H   0  0  0  0  0  0  0  0  0  0  0  0
    0.7974    0.4715   -1.8532 H   0  0  0  0  0  0  0  0  0  0  0  0
    1.2230   -0.8052    0.9129 H   0  0  0  0  0  0  0  0  0  0  0  0
    2.9951   -1.2728   -0.2242 H   0  0  0  0  0  0  0  0  0  0  0  0
    0.4916    1.6452    1.0826 H   0  0  0  0  0  0  0  0  0  0  0  0
    1.8164    2.0138   -0.1430 H   0  0  0  0  0  0  0  0  0  0  0  0
    3.2977    1.0672    1.2735 H   0  0  0  0  0  0  0  0  0  0  0  0
  1  2  2  3
  2  3  1  0
  2  4  1  0
  4  5  1  0
  5  6  1  0
  6  7  1  0
  7  8  1  0
  8  9  1  0
  9 10  1  0
  9 11  1  0
 11 12  1  0
  8  4  1  0
  1 13  1  0
  3 14  1  0
  3 15  1  0
  5 16  1  0
  5 17  1  0
  6 18  1  0
  6 19  1  0
  7 20  1  0
  7 21  1  0
  8 22  1  6
  9 23  1  1
 10 24  1  0
 11 25  1  0
 11 26  1  0
 12 27  1  0
M  END
$$$$

     RDKit          3D

 27 27  0  0  0  0  0  0  0  0999 V2000
   -2.6113    1.7807   -0.6076 N   0  0  0  0  0  0  0  0  0  0  0  0
   -1.8658    1.2043    0.3029 C   0  0  0  0  0  0  0  0  0  0  0  0
   -1.9142    1.7151    1.6143 N   0  0  0  0  0  0  0  0  0  0  0  0
   -1.0614    0.1053   -0.0960 N   0  0  0  0  0  0  0  0  0  0  0  0
   -1.5572   -1.2491   -0.2199 C   0  0  0  0  0  0  0  0  0  0  0  0
   -0.7972   -1.7789   -1.4041 C   0  0  0  0  0  0  0  0  0  0  0  0
    0.5891   -1.2234   -1.1544 C   0  0  0  0  0  0  0  0  0  0  0  0
    0.3367    0.0788   -0.4470 C   0  0  2  0  0  0  0  0  0  0  0  0
    1.2390    0.2692    0.7462 C   0  0  1  0  0  0  0  0  0  0  0  0
    1.0838   -0.6915    1.7110 O   0  0  0  0  0  0  0  0  0  0  0  0
    2.7011    0.2721    0.3493 C   0  0  0  0  0  0  0  0  0  0  0  0
    2.9662    1.2195   -0.6324 O   0  0  0  0  0  0  0  0  0  0  0  0
   -2.6226    1.4567   -1.5847 H   0  0  0  0  0  0  0  0  0  0  0  0
   -1.0731    1.7356    2.2097 H   0  0  0  0  0  0  0  0  0  0  0  0
   -2.8116    2.0784    1.9915 H   0  0  0  0  0  0  0  0  0  0  0  0
   -1.3473   -1.8653    0.6721 H   0  0  0  0  0  0  0  0  0  0  0  0
   -2.6278   -1.3096   -0.4244 H   0  0  0  0  0  0  0  0  0  0  0  0
   -0.8074   -2.8883   -1.4219 H   0  0  0  0  0  0  0  0  0  0  0  0
   -1.2060   -1.3546   -2.3571 H   0  0  0  0  0  0  0  0  0  0  0  0
    1.0499   -1.0653   -2.1609 H   0  0  0  0  0  0  0  0  0  0  0  0
    1.1548   -1.9451   -0.5550 H   0  0  0  0  0  0  0  0  0  0  0  0
    0.5154    0.8940   -1.1775 H   0  0  0  0  0  0  0  0  0  0  0  0
    1.0335    1.2996    1.1446 H   0  0  0  0  0  0  0  0  0  0  0  0
    0.3969   -0.5233    2.3710 H   0  0  0  0  0  0  0  0  0  0  0  0
    2.9518   -0.7570    0.0194 H   0  0  0  0  0  0  0  0  0  0  0  0
    3.2857    0.4433    1.2803 H   0  0  0  0  0  0  0  0  0  0  0  0
    2.9991    2.0985   -0.1695 H   0  0  0  0  0  0  0  0  0  0  0  0
  1  2  2  3
  2  3  1  0
  2  4  1  0
  4  5  1  0
  5  6  1  0
  6  7  1  0
  7  8  1  0
  8  9  1  0
  9 10  1  0
  9 11  1  0
 11 12  1  0
  8  4  1  0
  1 13  1  0
  3 14  1  0
  3 15  1  0
  5 16  1  0
  5 17  1  0
  6 18  1  0
  6 19  1  0
  7 20  1  0
  7 21  1  0
  8 22  1  6
  9 23  1  1
 10 24  1  0
 11 25  1  0
 11 26  1  0
 12 27  1  0
M  END
$$$$

     RDKit          3D

 27 27  0  0  0  0  0  0  0  0999 V2000
   -1.3450    1.9731    0.9516 N   0  0  0  0  0  0  0  0  0  0  0  0
   -1.5643    1.3066   -0.1495 C   0  0  0  0  0  0  0  0  0  0  0  0
   -2.3006    1.9662   -1.1639 N   0  0  0  0  0  0  0  0  0  0  0  0
   -1.0989   -0.0081   -0.3394 N   0  0  0  0  0  0  0  0  0  0  0  0
   -1.8979   -1.1949   -0.4181 C   0  0  0  0  0  0  0  0  0  0  0  0
   -1.0578   -2.2167    0.3208 C   0  0  0  0  0  0  0  0  0  0  0  0
    0.3083   -1.5904    0.5009 C   0  0  0  0  0  0  0  0  0  0  0  0
    0.2550   -0.4514   -0.4945 C   0  0  2  0  0  0  0  0  0  0  0  0
    1.2682    0.6164   -0.2013 C   0  0  1  0  0  0  0  0  0  0  0  0
    1.1828    1.0973    1.0839 O   0  0  0  0  0  0  0  0  0  0  0  0
    2.6725    0.1157   -0.4625 C   0  0  0  0  0  0  0  0  0  0  0  0
    3.5289    1.2047   -0.2833 O   0  0  0  0  0  0  0  0  0  0  0  0
   -1.6902    2.9273    1.0731 H   0  0  0  0  0  0  0  0  0  0  0  0
   -1.8253    2.6289   -1.7932 H   0  0  0  0  0  0  0  0  0  0  0  0
   -3.3090    1.7778   -1.2653 H   0  0  0  0  0  0  0  0  0  0  0  0
   -2.9046   -1.0818    0.0203 H   0  0  0  0  0  0  0  0  0  0  0  0
   -1.9645   -1.5575   -1.4765 H   0  0  0  0  0  0  0  0  0  0  0  0
   -0.9726   -3.1748   -0.2569 H   0  0  0  0  0  0  0  0  0  0  0  0
   -1.5543   -2.4299    1.2827 H   0  0  0  0  0  0  0  0  0  0  0  0
    1.1242   -2.3034    0.2997 H   0  0  0  0  0  0  0  0  0  0  0  0
    0.3651   -1.1464    1.5179 H   0  0  0  0  0  0  0  0  0  0  0  0
    0.4394   -0.8414   -1.5195 H   0  0  0  0  0  0  0  0  0  0  0  0
    1.0931    1.4654   -0.8900 H   0  0  0  0  0  0  0  0  0  0  0  0
    1.7687    0.5375    1.6528 H   0  0  0  0  0  0  0  0  0  0  0  0
    2.9622   -0.6678    0.2723 H   0  0  0  0  0  0  0  0  0  0  0  0
    2.8001   -0.2342   -1.5055 H   0  0  0  0  0  0  0  0  0  0  0  0
    3.7167    1.2818    0.6912 H   0  0  0  0  0  0  0  0  0  0  0  0
  1  2  2  3
  2  3  1  0
  2  4  1  0
  4  5  1  0
  5  6  1  0
  6  7  1  0
  7  8  1  0
  8  9  1  0
  9 10  1  0
  9 11  1  0
 11 12  1  0
  8  4  1  0
  1 13  1  0
  3 14  1  0
  3 15  1  0
  5 16  1  0
  5 17  1  0
  6 18  1  0
  6 19  1  0
  7 20  1  0
  7 21  1  0
  8 22  1  6
  9 23  1  6
 10 24  1  0
 11 25  1  0
 11 26  1  0
 12 27  1  0
M  END
$$$$

     RDKit          3D

 27 27  0  0  0  0  0  0  0  0999 V2000
    0.9826   -2.0810   -1.3918 N   0  0  0  0  0  0  0  0  0  0  0  0
    1.3121   -1.2535   -0.4711 C   0  0  0  0  0  0  0  0  0  0  0  0
    2.1248   -1.7735    0.5765 N   0  0  0  0  0  0  0  0  0  0  0  0
    0.8770    0.0908   -0.5228 N   0  0  0  0  0  0  0  0  0  0  0  0
    1.7933    1.2072   -0.3272 C   0  0  0  0  0  0  0  0  0  0  0  0
    0.9778    2.3591    0.2042 C   0  0  0  0  0  0  0  0  0  0  0  0
   -0.4279    1.7546    0.3495 C   0  0  0  0  0  0  0  0  0  0  0  0
   -0.3738    0.7108   -0.7429 C   0  0  2  0  0  0  0  0  0  0  0  0
   -1.5706   -0.1323   -0.8686 C   0  0  1  0  0  0  0  0  0  0  0  0
   -1.4047   -0.9957   -1.9476 O   0  0  0  0  0  0  0  0  0  0  0  0
   -1.9797   -0.9221    0.3107 C   0  0  0  0  0  0  0  0  0  0  0  0
   -2.1891   -0.2154    1.4691 O   0  0  0  0  0  0  0  0  0  0  0  0
    1.2501   -3.0644   -1.4348 H   0  0  0  0  0  0  0  0  0  0  0  0
    3.1507   -1.5861    0.5364 H   0  0  0  0  0  0  0  0  0  0  0  0
    1.7661   -2.3251    1.3753 H   0  0  0  0  0  0  0  0  0  0  0  0
    2.6590    0.9567    0.2844 H   0  0  0  0  0  0  0  0  0  0  0  0
    2.1592    1.4708   -1.3598 H   0  0  0  0  0  0  0  0  0  0  0  0
    1.3728    2.6744    1.1949 H   0  0  0  0  0  0  0  0  0  0  0  0
    0.9367    3.1744   -0.5277 H   0  0  0  0  0  0  0  0  0  0  0  0
   -1.2055    2.5071    0.1749 H   0  0  0  0  0  0  0  0  0  0  0  0
   -0.4370    1.3182    1.3683 H   0  0  0  0  0  0  0  0  0  0  0  0
   -0.2850    1.3020   -1.7042 H   0  0  0  0  0  0  0  0  0  0  0  0
   -2.4198    0.5289   -1.1484 H   0  0  0  0  0  0  0  0  0  0  0  0
   -2.0044   -1.7655   -1.8672 H   0  0  0  0  0  0  0  0  0  0  0  0
   -2.9727   -1.4041    0.0562 H   0  0  0  0  0  0  0  0  0  0  0  0
   -1.3163   -1.7766    0.5513 H   0  0  0  0  0  0  0  0  0  0  0  0
   -2.7758   -0.7598    2.0570 H   0  0  0  0  0  0  0  0  0  0  0  0
  1  2  2  3
  2  3  1  0
  2  4  1  0
  4  5  1  0
  5  6  1  0
  6  7  1  0
  7  8  1  0
  8  9  1  0
  9 10  1  0
  9 11  1  0
 11 12  1  0
  8  4  1  0
  1 13  1  0
  3 14  1  0
  3 15  1  0
  5 16  1  0
  5 17  1  0
  6 18  1  0
  6 19  1  0
  7 20  1  0
  7 21  1  0
  8 22  1  6
  9 23  1  6
 10 24  1  0
 11 25  1  0
 11 26  1  0
 12 27  1  0
M  END
$$$$

     RDKit          3D

 27 27  0  0  0  0  0  0  0  0999 V2000
   -1.6872   -0.1368   -2.4486 N   0  0  0  0  0  0  0  0  0  0  0  0
   -1.7355    0.4337   -1.3078 C   0  0  0  0  0  0  0  0  0  0  0  0
   -2.4069    1.6661   -1.1807 N   0  0  0  0  0  0  0  0  0  0  0  0
   -1.1252   -0.1614   -0.1896 N   0  0  0  0  0  0  0  0  0  0  0  0
   -1.8590   -0.3838    1.0677 C   0  0  0  0  0  0  0  0  0  0  0  0
   -0.8738   -1.0880    1.9799 C   0  0  0  0  0  0  0  0  0  0  0  0
    0.4252   -0.4460    1.4731 C   0  0  0  0  0  0  0  0  0  0  0  0
    0.2311   -0.6512   -0.0141 C   0  0  2  0  0  0  0  0  0  0  0  0
    1.2354    0.1631   -0.7910 C   0  0  1  0  0  0  0  0  0  0  0  0
    1.1549    1.4755   -0.3225 O   0  0  0  0  0  0  0  0  0  0  0  0
    2.6104   -0.3675   -0.4391 C   0  0  0  0  0  0  0  0  0  0  0  0
    3.5953    0.4328   -1.0522 O   0  0  0  0  0  0  0  0  0  0  0  0
   -1.1991   -1.0452   -2.5698 H   0  0  0  0  0  0  0  0  0  0  0  0
   -3.3303    1.6923   -0.6829 H   0  0  0  0  0  0  0  0  0  0  0  0
   -2.0233    2.5530   -1.5613 H   0  0  0  0  0  0  0  0  0  0  0  0
   -2.7837   -0.9436    0.9115 H   0  0  0  0  0  0  0  0  0  0  0  0
   -2.0256    0.6251    1.5164 H   0  0  0  0  0  0  0  0  0  0  0  0
   -0.8174   -2.1619    1.7097 H   0  0  0  0  0  0  0  0  0  0  0  0
   -1.0406   -0.8926    3.0371 H   0  0  0  0  0  0  0  0  0  0  0  0
    1.3089   -0.9640    1.8728 H   0  0  0  0  0  0  0  0  0  0  0  0
    0.3639    0.6166    1.6911 H   0  0  0  0  0  0  0  0  0  0  0  0
    0.2425   -1.7251   -0.2885 H   0  0  0  0  0  0  0  0  0  0  0  0
    1.0947    0.1136   -1.8686 H   0  0  0  0  0  0  0  0  0  0  0  0
    1.7417    1.5500    0.4826 H   0  0  0  0  0  0  0  0  0  0  0  0
    2.7070   -1.4197   -0.8053 H   0  0  0  0  0  0  0  0  0  0  0  0
    2.8081   -0.3149    0.6498 H   0  0  0  0  0  0  0  0  0  0  0  0
    3.3884    1.3799   -0.8696 H   0  0  0  0  0  0  0  0  0  0  0  0
  1  2  2  3
  2  3  1  0
  2  4  1  0
  4  5  1  0
  5  6  1  0
  6  7  1  0
  7  8  1  0
  8  9  1  0
  9 10  1  0
  9 11  1  0
 11 12  1  0
  8  4  1  0
  1 13  1  0
  3 14  1  0
  3 15  1  0
  5 16  1  0
  5 17  1  0
  6 18  1  0
  6 19  1  0
  7 20  1  0
  7 21  1  0
  8 22  1  1
  9 23  1  6
 10 24  1  0
 11 25  1  0
 11 26  1  0
 12 27  1  0
M  END
$$$$

     RDKit          3D

 27 27  0  0  0  0  0  0  0  0999 V2000
   -0.7287   -2.1975    1.2915 N   0  0  0  0  0  0  0  0  0  0  0  0
   -0.8761   -1.6966    0.1120 C   0  0  0  0  0  0  0  0  0  0  0  0
   -1.1754   -2.4814   -1.0334 N   0  0  0  0  0  0  0  0  0  0  0  0
   -0.7327   -0.2984   -0.0473 N   0  0  0  0  0  0  0  0  0  0  0  0
   -1.3409    0.4772   -1.1008 C   0  0  0  0  0  0  0  0  0  0  0  0
   -1.4215    1.8902   -0.5751 C   0  0  0  0  0  0  0  0  0  0  0  0
   -0.8429    1.8300    0.8058 C   0  0  0  0  0  0  0  0  0  0  0  0
    0.0291    0.5826    0.8067 C   0  0  2  0  0  0  0  0  0  0  0  0
    1.4021    0.8824    0.2598 C   0  0  1  0  0  0  0  0  0  0  0  0
    2.0505    1.7482    1.1702 O   0  0  0  0  0  0  0  0  0  0  0  0
    2.2602   -0.3360    0.1603 C   0  0  0  0  0  0  0  0  0  0  0  0
    1.6990   -1.2411   -0.7266 O   0  0  0  0  0  0  0  0  0  0  0  0
   -0.8408   -3.2409    1.3820 H   0  0  0  0  0  0  0  0  0  0  0  0
   -0.7332   -3.4132   -1.1964 H   0  0  0  0  0  0  0  0  0  0  0  0
   -1.8576   -2.1256   -1.7418 H   0  0  0  0  0  0  0  0  0  0  0  0
   -0.6667    0.4018   -1.9839 H   0  0  0  0  0  0  0  0  0  0  0  0
   -2.3254    0.0917   -1.4017 H   0  0  0  0  0  0  0  0  0  0  0  0
   -0.9271    2.6208   -1.2404 H   0  0  0  0  0  0  0  0  0  0  0  0
   -2.4958    2.1747   -0.5469 H   0  0  0  0  0  0  0  0  0  0  0  0
   -0.1769    2.7047    0.9964 H   0  0  0  0  0  0  0  0  0  0  0  0
   -1.5855    1.7233    1.6073 H   0  0  0  0  0  0  0  0  0  0  0  0
    0.0913    0.2223    1.8432 H   0  0  0  0  0  0  0  0  0  0  0  0
    1.3233    1.4049   -0.7115 H   0  0  0  0  0  0  0  0  0  0  0  0
    1.9589    1.3040    2.0594 H   0  0  0  0  0  0  0  0  0  0  0  0
    2.3542   -0.8700    1.1352 H   0  0  0  0  0  0  0  0  0  0  0  0
    3.2857   -0.0986   -0.1702 H   0  0  0  0  0  0  0  0  0  0  0  0
    2.2729   -2.0596   -0.7205 H   0  0  0  0  0  0  0  0  0  0  0  0
  1  2  2  3
  2  3  1  0
  2  4  1  0
  4  5  1  0
  5  6  1  0
  6  7  1  0
  7  8  1  0
  8  9  1  0
  9 10  1  0
  9 11  1  0
 11 12  1  0
  8  4  1  0
  1 13  1  0
  3 14  1  0
  3 15  1  0
  5 16  1  0
  5 17  1  0
  6 18  1  0
  6 19  1  0
  7 20  1  0
  7 21  1  0
  8 22  1  1
  9 23  1  6
 10 24  1  0
 11 25  1  0
 11 26  1  0
 12 27  1  0
M  END
$$$$
