
     RDKit          3D

 26 26  0  0  0  0  0  0  0  0999 V2000
   -0.7775    0.9031    2.0033 C   0  0  0  0  0  0  0  0  0  0  0  0
   -0.8347   -0.3890    1.4294 O   0  0  0  0  0  0  0  0  0  0  0  0
   -1.3375   -0.2545    0.1714 C   0  0  2  0  0  0  0  0  0  0  0  0
   -2.6244   -1.0724   -0.0300 C   0  0  0  0  0  0  0  0  0  0  0  0
   -2.7972   -1.1450   -1.3905 O   0  0  0  0  0  0  0  0  0  0  0  0
   -1.5746   -0.9512   -2.0035 C   0  0  0  0  0  0  0  0  0  0  0  0
   -0.5282   -0.9425   -0.9085 C   0  0  1  0  0  0  0  0  0  0  0  0
    0.6635   -0.2441   -1.2714 N   0  0  0  0  0  0  0  0  0  0  0  0
    1.6417   -0.0231   -0.2510 C   0  0  0  0  0  0  0  0  0  0  0  0
    1.7386   -0.8243    0.7525 N   0  0  0  0  0  0  0  0  0  0  0  0
    2.5314    1.0908   -0.3248 N   0  0  0  0  0  0  0  0  0  0  0  0
    3.3235    1.4663    0.7912 N   0  0  0  0  0  0  0  0  0  0  0  0
   -0.1237    1.5714    1.4055 H   0  0  0  0  0  0  0  0  0  0  0  0
   -0.4573    0.8633    3.0496 H   0  0  0  0  0  0  0  0  0  0  0  0
   -1.8122    1.3411    1.9029 H   0  0  0  0  0  0  0  0  0  0  0  0
   -1.5761    0.8015   -0.1047 H   0  0  0  0  0  0  0  0  0  0  0  0
   -2.3421   -2.1098    0.3181 H   0  0  0  0  0  0  0  0  0  0  0  0
   -3.4661   -0.6553    0.5207 H   0  0  0  0  0  0  0  0  0  0  0  0
   -1.5945    0.0968   -2.4247 H   0  0  0  0  0  0  0  0  0  0  0  0
   -1.3515   -1.6902   -2.7918 H   0  0  0  0  0  0  0  0  0  0  0  0
   -0.3348   -1.9710   -0.6116 H   0  0  0  0  0  0  0  0  0  0  0  0
    0.8363    0.0976   -2.2241 H   0  0  0  0  0  0  0  0  0  0  0  0
    2.4435   -0.6639    1.4866 H   0  0  0  0  0  0  0  0  0  0  0  0
    2.5828    1.6139   -1.2094 H   0  0  0  0  0  0  0  0  0  0  0  0
    4.0081    0.7149    1.0360 H   0  0  0  0  0  0  0  0  0  0  0  0
    3.7630    2.3756    0.5875 H   0  0  0  0  0  0  0  0  0  0  0  0
  1  2  1  0
  2  3  1  0
  3  4  1  0
  4  5  1  0
  5  6  1  0
  6  7  1  0
  7  8  1  0
  8  9  1  0
  9 10  2  3
  9 11  1  0
 11 12  1  0
  7  3  1  0
  1 13  1  0
  1 14  1  0
  1 15  1  0
  3 16  1  6
  4 17  1  0
  4 18  1  0
  6 19  1  0
  6 20  1  0
  7 21  1  1
  8 22  1  0
 10 23  1  0
 11 24  1  0
 12 25  1  0
 12 26  1  0
M  END
$$$$

     RDKit          3D

 26 26  0  0  0  0  0  0  0  0999 V2000
    2.6434    1.6880    1.1484 C   0  0  0  0  0  0  0  0  0  0  0  0
    2.4817    0.7990    0.1217 O   0  0  0  0  0  0  0  0  0  0  0  0
    1.7028   -0.2837    0.3776 C   0  0  2  0  0  0  0  0  0  0  0  0
    2.3818   -1.6152    0.2113 C   0  0  0  0  0  0  0  0  0  0  0  0
    1.3631   -2.5306    0.1410 O   0  0  0  0  0  0  0  0  0  0  0  0
    0.2056   -1.9121   -0.2360 C   0  0  0  0  0  0  0  0  0  0  0  0
    0.5146   -0.4542   -0.5155 C   0  0  1  0  0  0  0  0  0  0  0  0
   -0.5394    0.4179   -0.0450 N   0  0  0  0  0  0  0  0  0  0  0  0
   -1.7824    0.4311   -0.7429 C   0  0  0  0  0  0  0  0  0  0  0  0
   -1.7863    0.1350   -1.9984 N   0  0  0  0  0  0  0  0  0  0  0  0
   -2.9764    0.7680   -0.0417 N   0  0  0  0  0  0  0  0  0  0  0  0
   -4.1987    0.7728   -0.7362 N   0  0  0  0  0  0  0  0  0  0  0  0
    3.3015    2.5118    0.7850 H   0  0  0  0  0  0  0  0  0  0  0  0
    1.6991    2.1016    1.5500 H   0  0  0  0  0  0  0  0  0  0  0  0
    3.2194    1.1749    1.9545 H   0  0  0  0  0  0  0  0  0  0  0  0
    1.3373   -0.2231    1.4220 H   0  0  0  0  0  0  0  0  0  0  0  0
    3.0079   -1.8196    1.0881 H   0  0  0  0  0  0  0  0  0  0  0  0
    2.9596   -1.6803   -0.7389 H   0  0  0  0  0  0  0  0  0  0  0  0
   -0.3196   -2.3929   -1.0836 H   0  0  0  0  0  0  0  0  0  0  0  0
   -0.4875   -1.9117    0.6528 H   0  0  0  0  0  0  0  0  0  0  0  0
    0.7315   -0.3268   -1.5853 H   0  0  0  0  0  0  0  0  0  0  0  0
   -0.4177    1.0378    0.7899 H   0  0  0  0  0  0  0  0  0  0  0  0
   -2.6873    0.1464   -2.4965 H   0  0  0  0  0  0  0  0  0  0  0  0
   -2.9488    1.0085    0.9737 H   0  0  0  0  0  0  0  0  0  0  0  0
   -4.4571    1.7810   -0.8780 H   0  0  0  0  0  0  0  0  0  0  0  0
   -4.9482    0.3763   -0.1179 H   0  0  0  0  0  0  0  0  0  0  0  0
  1  2  1  0
  2  3  1  0
  3  4  1  0
  4  5  1  0
  5  6  1  0
  6  7  1  0
  7  8  1  0
  8  9  1  0
  9 10  2  3
  9 11  1  0
 11 12  1  0
  7  3  1  0
  1 13  1  0
  1 14  1  0
  1 15  1  0
  3 16  1  1
  4 17  1  0
  4 18  1  0
  6 19  1  0
  6 20  1  0
  7 21  1  6
  8 22  1  0
 10 23  1  0
 11 24  1  0
 12 25  1  0
 12 26  1  0
M  END
$$$$

     RDKit          3D

 26 26  0  0  0  0  0  0  0  0999 V2000
   -2.3984    2.2460    0.3855 C   0  0  0  0  0  0  0  0  0  0  0  0
   -2.0148    1.0721    1.0197 O   0  0  0  0  0  0  0  0  0  0  0  0
   -1.7512    0.0389    0.1649 C   0  0  2  0  0  0  0  0  0  0  0  0
   -2.5982   -1.1807    0.3792 C   0  0  0  0  0  0  0  0  0  0  0  0
   -1.7919   -2.2905    0.2865 O   0  0  0  0  0  0  0  0  0  0  0  0
   -0.5814   -1.9087   -0.2566 C   0  0  0  0  0  0  0  0  0  0  0  0
   -0.3664   -0.5480    0.3472 C   0  0  1  0  0  0  0  0  0  0  0  0
    0.6467    0.2235   -0.3175 N   0  0  0  0  0  0  0  0  0  0  0  0
    2.0106   -0.1561   -0.2699 C   0  0  0  0  0  0  0  0  0  0  0  0
    2.3120   -1.3195    0.1752 N   0  0  0  0  0  0  0  0  0  0  0  0
    2.9691    0.7860   -0.7231 N   0  0  0  0  0  0  0  0  0  0  0  0
    4.2623    0.3117   -1.0134 N   0  0  0  0  0  0  0  0  0  0  0  0
   -1.6369    2.6352   -0.3051 H   0  0  0  0  0  0  0  0  0  0  0  0
   -3.3805    2.0695   -0.0974 H   0  0  0  0  0  0  0  0  0  0  0  0
   -2.5438    3.0214    1.1727 H   0  0  0  0  0  0  0  0  0  0  0  0
   -1.8975    0.3398   -0.9128 H   0  0  0  0  0  0  0  0  0  0  0  0
   -3.4122   -1.2862   -0.3772 H   0  0  0  0  0  0  0  0  0  0  0  0
   -3.0411   -1.1930    1.4184 H   0  0  0  0  0  0  0  0  0  0  0  0
   -0.7521   -1.7796   -1.3570 H   0  0  0  0  0  0  0  0  0  0  0  0
    0.1992   -2.6309   -0.0252 H   0  0  0  0  0  0  0  0  0  0  0  0
   -0.1527   -0.6234    1.4141 H   0  0  0  0  0  0  0  0  0  0  0  0
    0.3306    1.0738   -0.8351 H   0  0  0  0  0  0  0  0  0  0  0  0
    3.2766   -1.6956    0.2521 H   0  0  0  0  0  0  0  0  0  0  0  0
    2.7689    1.7969   -0.8506 H   0  0  0  0  0  0  0  0  0  0  0  0
    4.9196    1.1200   -1.1960 H   0  0  0  0  0  0  0  0  0  0  0  0
    4.6234   -0.1223   -0.1231 H   0  0  0  0  0  0  0  0  0  0  0  0
  1  2  1  0
  2  3  1  0
  3  4  1  0
  4  5  1  0
  5  6  1  0
  6  7  1  0
  7  8  1  0
  8  9  1  0
  9 10  2  3
  9 11  1  0
 11 12  1  0
  7  3  1  0
  1 13  1  0
  1 14  1  0
  1 15  1  0
  3 16  1  6
  4 17  1  0
  4 18  1  0
  6 19  1  0
  6 20  1  0
  7 21  1  1
  8 22  1  0
 10 23  1  0
 11 24  1  0
 12 25  1  0
 12 26  1  0
M  END
$$$$

     RDKit          3D

 26 26  0  0  0  0  0  0  0  0999 V2000
   -2.5428   -0.9214    1.6781 C   0  0  0  0  0  0  0  0  0  0  0  0
   -2.3213   -0.3626    0.4389 O   0  0  0  0  0  0  0  0  0  0  0  0
   -1.0833    0.1978    0.2664 C   0  0  2  0  0  0  0  0  0  0  0  0
   -1.1166    1.5688   -0.3644 C   0  0  0  0  0  0  0  0  0  0  0  0
   -1.5126    1.3904   -1.6613 O   0  0  0  0  0  0  0  0  0  0  0  0
   -1.3204    0.0798   -2.0238 C   0  0  0  0  0  0  0  0  0  0  0  0
   -0.4549   -0.5538   -0.9237 C   0  0  1  0  0  0  0  0  0  0  0  0
    0.8883   -0.1239   -1.1578 N   0  0  0  0  0  0  0  0  0  0  0  0
    1.8662   -0.2713   -0.1372 C   0  0  0  0  0  0  0  0  0  0  0  0
    1.7406   -1.2242    0.7274 N   0  0  0  0  0  0  0  0  0  0  0  0
    2.9901    0.5930   -0.0231 N   0  0  0  0  0  0  0  0  0  0  0  0
    3.8662    0.5198    1.0657 N   0  0  0  0  0  0  0  0  0  0  0  0
   -3.5746   -1.3331    1.6761 H   0  0  0  0  0  0  0  0  0  0  0  0
   -1.8709   -1.8131    1.7568 H   0  0  0  0  0  0  0  0  0  0  0  0
   -2.4545   -0.2386    2.5206 H   0  0  0  0  0  0  0  0  0  0  0  0
   -0.4401    0.1228    1.1418 H   0  0  0  0  0  0  0  0  0  0  0  0
   -0.0421    1.9164   -0.3935 H   0  0  0  0  0  0  0  0  0  0  0  0
   -1.6660    2.3101    0.2048 H   0  0  0  0  0  0  0  0  0  0  0  0
   -2.3197   -0.4365   -1.9474 H   0  0  0  0  0  0  0  0  0  0  0  0
   -0.8779   -0.0685   -3.0161 H   0  0  0  0  0  0  0  0  0  0  0  0
   -0.6002   -1.6285   -0.8485 H   0  0  0  0  0  0  0  0  0  0  0  0
    1.2277    0.3114   -2.0622 H   0  0  0  0  0  0  0  0  0  0  0  0
    0.9337   -1.8932    0.6953 H   0  0  0  0  0  0  0  0  0  0  0  0
    3.1757    1.2996   -0.7593 H   0  0  0  0  0  0  0  0  0  0  0  0
    3.4777    1.0296    1.8709 H   0  0  0  0  0  0  0  0  0  0  0  0
    4.0316   -0.4707    1.2755 H   0  0  0  0  0  0  0  0  0  0  0  0
  1  2  1  0
  2  3  1  0
  3  4  1  0
  4  5  1  0
  5  6  1  0
  6  7  1  0
  7  8  1  0
  8  9  1  0
  9 10  2  3
  9 11  1  0
 11 12  1  0
  7  3  1  0
  1 13  1  0
  1 14  1  0
  1 15  1  0
  3 16  1  1
  4 17  1  0
  4 18  1  0
  6 19  1  0
  6 20  1  0
  7 21  1  1
  8 22  1  0
 10 23  1  0
 11 24  1  0
 12 25  1  0
 12 26  1  0
M  END
$$$$

     RDKit          3D

 26 26  0  0  0  0  0  0  0  0999 V2000
   -2.0436    2.1433   -0.5791 C   0  0  0  0  0  0  0  0  0  0  0  0
   -2.2570    1.0462    0.2491 O   0  0  0  0  0  0  0  0  0  0  0  0
   -1.4569   -0.0299   -0.0777 C   0  0  2  0  0  0  0  0  0  0  0  0
   -2.3199   -1.2434   -0.3432 C   0  0  0  0  0  0  0  0  0  0  0  0
   -2.0585   -2.1545    0.6739 O   0  0  0  0  0  0  0  0  0  0  0  0
   -0.7055   -1.9486    1.0340 C   0  0  0  0  0  0  0  0  0  0  0  0
   -0.6857   -0.4532    1.1474 C   0  0  1  0  0  0  0  0  0  0  0  0
    0.5945    0.1287    1.2682 N   0  0  0  0  0  0  0  0  0  0  0  0
    1.6255   -0.0317    0.3089 C   0  0  0  0  0  0  0  0  0  0  0  0
    1.3992   -0.7702   -0.7030 N   0  0  0  0  0  0  0  0  0  0  0  0
    2.8828    0.6137    0.4674 N   0  0  0  0  0  0  0  0  0  0  0  0
    3.8892    0.5525   -0.5013 N   0  0  0  0  0  0  0  0  0  0  0  0
   -0.9586    2.4226   -0.4514 H   0  0  0  0  0  0  0  0  0  0  0  0
   -2.6090    3.0296   -0.2485 H   0  0  0  0  0  0  0  0  0  0  0  0
   -2.2086    1.9272   -1.6466 H   0  0  0  0  0  0  0  0  0  0  0  0
   -0.7886    0.1763   -0.9423 H   0  0  0  0  0  0  0  0  0  0  0  0
   -3.3958   -1.0094   -0.3473 H   0  0  0  0  0  0  0  0  0  0  0  0
   -2.0188   -1.7335   -1.3002 H   0  0  0  0  0  0  0  0  0  0  0  0
   -0.5574   -2.4388    1.9970 H   0  0  0  0  0  0  0  0  0  0  0  0
   -0.1090   -2.3601    0.2253 H   0  0  0  0  0  0  0  0  0  0  0  0
   -1.3088   -0.1877    2.0299 H   0  0  0  0  0  0  0  0  0  0  0  0
    0.8491    0.7300    2.1082 H   0  0  0  0  0  0  0  0  0  0  0  0
    2.1369   -0.9066   -1.4239 H   0  0  0  0  0  0  0  0  0  0  0  0
    3.1066    1.1704    1.3335 H   0  0  0  0  0  0  0  0  0  0  0  0
    4.3843    1.4836   -0.5294 H   0  0  0  0  0  0  0  0  0  0  0  0
    4.6136   -0.1564   -0.2332 H   0  0  0  0  0  0  0  0  0  0  0  0
  1  2  1  0
  2  3  1  0
  3  4  1  0
  4  5  1  0
  5  6  1  0
  6  7  1  0
  7  8  1  0
  8  9  1  0
  9 10  2  3
  9 11  1  0
 11 12  1  0
  7  3  1  0
  1 13  1  0
  1 14  1  0
  1 15  1  0
  3 16  1  6
  4 17  1  0
  4 18  1  0
  6 19  1  0
  6 20  1  0
  7 21  1  1
  8 22  1  0
 10 23  1  0
 11 24  1  0
 12 25  1  0
 12 26  1  0
M  END
$$$$

     RDKit          3D

 26 26  0  0  0  0  0  0  0  0999 V2000
   -0.9549    2.2813    0.1438 C   0  0  0  0  0  0  0  0  0  0  0  0
   -0.6440    1.4564    1.1833 O   0  0  0  0  0  0  0  0  0  0  0  0
   -0.9192    0.1446    1.0621 C   0  0  2  0  0  0  0  0  0  0  0  0
   -1.9193   -0.4137    2.0405 C   0  0  0  0  0  0  0  0  0  0  0  0
   -1.8439   -1.7815    1.7119 O   0  0  0  0  0  0  0  0  0  0  0  0
   -0.4822   -2.0468    1.7608 C   0  0  0  0  0  0  0  0  0  0  0  0
    0.2138   -0.8162    1.1846 C   0  0  1  0  0  0  0  0  0  0  0  0
    0.7891   -1.1672   -0.0793 N   0  0  0  0  0  0  0  0  0  0  0  0
    1.3759   -0.1839   -0.9194 C   0  0  0  0  0  0  0  0  0  0  0  0
    1.9515    0.8243   -0.3933 N   0  0  0  0  0  0  0  0  0  0  0  0
    1.3115   -0.3432   -2.3296 N   0  0  0  0  0  0  0  0  0  0  0  0
    1.7298    0.6782   -3.1755 N   0  0  0  0  0  0  0  0  0  0  0  0
   -0.6580    3.3169    0.4222 H   0  0  0  0  0  0  0  0  0  0  0  0
   -2.0790    2.3297    0.0465 H   0  0  0  0  0  0  0  0  0  0  0  0
   -0.5247    2.0539   -0.8202 H   0  0  0  0  0  0  0  0  0  0  0  0
   -1.3829   -0.0209    0.0433 H   0  0  0  0  0  0  0  0  0  0  0  0
   -2.9463   -0.0996    1.8511 H   0  0  0  0  0  0  0  0  0  0  0  0
   -1.6038   -0.3433    3.0891 H   0  0  0  0  0  0  0  0  0  0  0  0
   -0.2172   -2.2081    2.8259 H   0  0  0  0  0  0  0  0  0  0  0  0
   -0.2107   -2.9565    1.1875 H   0  0  0  0  0  0  0  0  0  0  0  0
    0.9730   -0.5113    1.9346 H   0  0  0  0  0  0  0  0  0  0  0  0
    0.7844   -2.1743   -0.4072 H   0  0  0  0  0  0  0  0  0  0  0  0
    2.0306    0.9933    0.6174 H   0  0  0  0  0  0  0  0  0  0  0  0
    0.9473   -1.2342   -2.7668 H   0  0  0  0  0  0  0  0  0  0  0  0
    2.7853    0.5968   -3.2574 H   0  0  0  0  0  0  0  0  0  0  0  0
    1.4941    1.6253   -2.8373 H   0  0  0  0  0  0  0  0  0  0  0  0
  1  2  1  0
  2  3  1  0
  3  4  1  0
  4  5  1  0
  5  6  1  0
  6  7  1  0
  7  8  1  0
  8  9  1  0
  9 10  2  3
  9 11  1  0
 11 12  1  0
  7  3  1  0
  1 13  1  0
  1 14  1  0
  1 15  1  0
  3 16  1  6
  4 17  1  0
  4 18  1  0
  6 19  1  0
  6 20  1  0
  7 21  1  1
  8 22  1  0
 10 23  1  0
 11 24  1  0
 12 25  1  0
 12 26  1  0
M  END
$$$$

     RDKit          3D

 26 26  0  0  0  0  0  0  0  0999 V2000
   -2.5187    2.0064    0.6362 C   0  0  0  0  0  0  0  0  0  0  0  0
   -2.2495    0.7153    1.0930 O   0  0  0  0  0  0  0  0  0  0  0  0
   -1.7775   -0.0203    0.0158 C   0  0  2  0  0  0  0  0  0  0  0  0
   -2.6085   -1.2591   -0.2533 C   0  0  0  0  0  0  0  0  0  0  0  0
   -1.7486   -1.9578   -1.1180 O   0  0  0  0  0  0  0  0  0  0  0  0
   -0.5096   -1.9191   -0.5325 C   0  0  0  0  0  0  0  0  0  0  0  0
   -0.4302   -0.6493    0.2927 C   0  0  1  0  0  0  0  0  0  0  0  0
    0.5989    0.2333   -0.1359 N   0  0  0  0  0  0  0  0  0  0  0  0
    1.9926   -0.0607   -0.0169 C   0  0  0  0  0  0  0  0  0  0  0  0
    2.3431   -1.1445    0.5506 N   0  0  0  0  0  0  0  0  0  0  0  0
    2.9608    0.8309   -0.5177 N   0  0  0  0  0  0  0  0  0  0  0  0
    4.3227    0.6024   -0.2919 N   0  0  0  0  0  0  0  0  0  0  0  0
   -1.5697    2.4566    0.2335 H   0  0  0  0  0  0  0  0  0  0  0  0
   -2.8754    2.6744    1.4441 H   0  0  0  0  0  0  0  0  0  0  0  0
   -3.2283    1.9624   -0.2142 H   0  0  0  0  0  0  0  0  0  0  0  0
   -1.7241    0.5584   -0.9202 H   0  0  0  0  0  0  0  0  0  0  0  0
   -3.5589   -1.0236   -0.7554 H   0  0  0  0  0  0  0  0  0  0  0  0
   -2.7072   -1.8572    0.6589 H   0  0  0  0  0  0  0  0  0  0  0  0
    0.2867   -1.9235   -1.3010 H   0  0  0  0  0  0  0  0  0  0  0  0
   -0.4105   -2.8236    0.1135 H   0  0  0  0  0  0  0  0  0  0  0  0
   -0.3579   -0.9335    1.3680 H   0  0  0  0  0  0  0  0  0  0  0  0
    0.3527    1.1487   -0.5624 H   0  0  0  0  0  0  0  0  0  0  0  0
    3.3085   -1.4670    0.6963 H   0  0  0  0  0  0  0  0  0  0  0  0
    2.6322    1.6683   -1.0630 H   0  0  0  0  0  0  0  0  0  0  0  0
    4.9054    0.9904   -1.0796 H   0  0  0  0  0  0  0  0  0  0  0  0
    4.5709    1.1919    0.5561 H   0  0  0  0  0  0  0  0  0  0  0  0
  1  2  1  0
  2  3  1  0
  3  4  1  0
  4  5  1  0
  5  6  1  0
  6  7  1  0
  7  8  1  0
  8  9  1  0
  9 10  2  3
  9 11  1  0
 11 12  1  0
  7  3  1  0
  1 13  1  0
  1 14  1  0
  1 15  1  0
  3 16  1  6
  4 17  1  0
  4 18  1  0
  6 19  1  0
  6 20  1  0
  7 21  1  1
  8 22  1  0
 10 23  1  0
 11 24  1  0
 12 25  1  0
 12 26  1  0
M  END
$$$$

     RDKit          3D

 26 26  0  0  0  0  0  0  0  0999 V2000
   -3.5082    0.5009   -0.9834 C   0  0  0  0  0  0  0  0  0  0  0  0
   -2.6830    0.4009    0.1143 O   0  0  0  0  0  0  0  0  0  0  0  0
   -1.6243   -0.4485   -0.0239 C   0  0  2  0  0  0  0  0  0  0  0  0
   -1.4291   -1.4204    1.0908 C   0  0  0  0  0  0  0  0  0  0  0  0
   -0.6487   -0.8459    2.0573 O   0  0  0  0  0  0  0  0  0  0  0  0
   -0.1274    0.3295    1.5918 C   0  0  0  0  0  0  0  0  0  0  0  0
   -0.3324    0.3745    0.0935 C   0  0  1  0  0  0  0  0  0  0  0  0
    0.7381   -0.3349   -0.5274 N   0  0  0  0  0  0  0  0  0  0  0  0
    2.0366    0.2361   -0.5399 C   0  0  0  0  0  0  0  0  0  0  0  0
    2.1466    1.4743   -0.2308 N   0  0  0  0  0  0  0  0  0  0  0  0
    3.1958   -0.5127   -0.8792 N   0  0  0  0  0  0  0  0  0  0  0  0
    4.4693    0.0508   -0.7259 N   0  0  0  0  0  0  0  0  0  0  0  0
   -4.3183    1.2282   -0.7119 H   0  0  0  0  0  0  0  0  0  0  0  0
   -3.0107    0.9497   -1.8770 H   0  0  0  0  0  0  0  0  0  0  0  0
   -4.0153   -0.4468   -1.2118 H   0  0  0  0  0  0  0  0  0  0  0  0
   -1.6312   -0.9056   -1.0153 H   0  0  0  0  0  0  0  0  0  0  0  0
   -0.8955   -2.3157    0.6566 H   0  0  0  0  0  0  0  0  0  0  0  0
   -2.3526   -1.8137    1.5331 H   0  0  0  0  0  0  0  0  0  0  0  0
   -0.6312    1.1976    2.0955 H   0  0  0  0  0  0  0  0  0  0  0  0
    0.9635    0.4431    1.8291 H   0  0  0  0  0  0  0  0  0  0  0  0
   -0.4897    1.4003   -0.2891 H   0  0  0  0  0  0  0  0  0  0  0  0
    0.5773   -1.2637   -0.9697 H   0  0  0  0  0  0  0  0  0  0  0  0
    1.3934    2.1121    0.0291 H   0  0  0  0  0  0  0  0  0  0  0  0
    3.0957   -1.5026   -1.2502 H   0  0  0  0  0  0  0  0  0  0  0  0
    4.6925    0.0517    0.3101 H   0  0  0  0  0  0  0  0  0  0  0  0
    4.3889    1.0609   -1.0060 H   0  0  0  0  0  0  0  0  0  0  0  0
  1  2  1  0
  2  3  1  0
  3  4  1  0
  4  5  1  0
  5  6  1  0
  6  7  1  0
  7  8  1  0
  8  9  1  0
  9 10  2  3
  9 11  1  0
 11 12  1  0
  7  3  1  0
  1 13  1  0
  1 14  1  0
  1 15  1  0
  3 16  1  6
  4 17  1  0
  4 18  1  0
  6 19  1  0
  6 20  1  0
  7 21  1  6
  8 22  1  0
 10 23  1  0
 11 24  1  0
 12 25  1  0
 12 26  1  0
M  END
$$$$
