
     RDKit          3D

 26 26  0  0  0  0  0  0  0  0999 V2000
    3.3623    1.0919   -0.3834 C   0  0  0  0  0  0  0  0  0  0  0  0
    2.3929    0.0244    0.0126 C   0  0  0  0  0  0  0  0  0  0  0  0
    2.8410   -0.8740    0.9761 O   0  0  0  0  0  0  0  0  0  0  0  0
    1.0481    0.6230    0.3481 C   0  0  0  0  0  0  0  0  0  0  0  0
    0.4126   -0.4332   -0.3924 N   0  0  0  0  0  0  0  0  0  0  0  0
   -0.8672   -1.0245   -0.4497 C   0  0  0  0  0  0  0  0  0  0  0  0
   -1.0888   -1.9847   -1.2520 O   0  0  0  0  0  0  0  0  0  0  0  0
   -1.9419   -0.5319    0.4153 C   0  0  1  0  0  0  0  0  0  0  0  0
   -1.4646    0.5218    1.1818 O   0  0  0  0  0  0  0  0  0  0  0  0
   -3.1945   -0.1629   -0.3404 C   0  0  0  0  0  0  0  0  0  0  0  0
   -4.1904    0.2069    0.6527 N   0  0  0  0  0  0  0  0  0  0  0  0
    1.6582   -0.6564   -1.0907 C   0  0  0  0  0  0  0  0  0  0  0  0
    3.7900    1.5158    0.5655 H   0  0  0  0  0  0  0  0  0  0  0  0
    4.1730    0.7370   -1.0426 H   0  0  0  0  0  0  0  0  0  0  0  0
    2.7845    1.9336   -0.8411 H   0  0  0  0  0  0  0  0  0  0  0  0
    3.8052   -1.0699    0.8429 H   0  0  0  0  0  0  0  0  0  0  0  0
    0.8949    1.5905   -0.1948 H   0  0  0  0  0  0  0  0  0  0  0  0
    0.8272    0.6916    1.4300 H   0  0  0  0  0  0  0  0  0  0  0  0
   -2.2269   -1.3861    1.0941 H   0  0  0  0  0  0  0  0  0  0  0  0
   -1.9151    0.5746    2.0561 H   0  0  0  0  0  0  0  0  0  0  0  0
   -2.9998    0.6656   -1.0491 H   0  0  0  0  0  0  0  0  0  0  0  0
   -3.5518   -1.0608   -0.8748 H   0  0  0  0  0  0  0  0  0  0  0  0
   -4.0249   -0.3569    1.5171 H   0  0  0  0  0  0  0  0  0  0  0  0
   -4.1728    1.2231    0.8202 H   0  0  0  0  0  0  0  0  0  0  0  0
    1.9071   -1.7389   -1.2443 H   0  0  0  0  0  0  0  0  0  0  0  0
    1.7419   -0.1197   -2.0566 H   0  0  0  0  0  0  0  0  0  0  0  0
  1  2  1  0
  2  3  1  0
  2  4  1  0
  4  5  1  0
  5  6  1  0
  6  7  2  0
  6  8  1  0
  8  9  1  0
  8 10  1  0
 10 11  1  0
  5 12  1  0
 12  2  1  0
  1 13  1  0
  1 14  1  0
  1 15  1  0
  3 16  1  0
  4 17  1  0
  4 18  1  0
  8 19  1  1
  9 20  1  0
 10 21  1  0
 10 22  1  0
 11 23  1  0
 11 24  1  0
 12 25  1  0
 12 26  1  0
M  END
$$$$

     RDKit          3D

 26 26  0  0  0  0  0  0  0  0999 V2000
    3.6333   -0.1496    0.3809 C   0  0  0  0  0  0  0  0  0  0  0  0
    2.2036    0.3475    0.3060 C   0  0  0  0  0  0  0  0  0  0  0  0
    1.9607    1.4871    1.0390 O   0  0  0  0  0  0  0  0  0  0  0  0
    1.6147    0.3520   -1.0780 C   0  0  0  0  0  0  0  0  0  0  0  0
    0.3944   -0.1859   -0.5134 N   0  0  0  0  0  0  0  0  0  0  0  0
   -0.9876   -0.1711   -0.8338 C   0  0  0  0  0  0  0  0  0  0  0  0
   -1.3556    0.4451   -1.8606 O   0  0  0  0  0  0  0  0  0  0  0  0
   -2.0094   -0.8560   -0.0003 C   0  0  1  0  0  0  0  0  0  0  0  0
   -1.4452   -1.4896    1.0959 O   0  0  0  0  0  0  0  0  0  0  0  0
   -2.9900    0.2100    0.4672 C   0  0  0  0  0  0  0  0  0  0  0  0
   -3.5558    0.8457   -0.6634 N   0  0  0  0  0  0  0  0  0  0  0  0
    1.1891   -0.7610    0.5420 C   0  0  0  0  0  0  0  0  0  0  0  0
    3.7824   -0.6595    1.3558 H   0  0  0  0  0  0  0  0  0  0  0  0
    4.3029    0.7521    0.3866 H   0  0  0  0  0  0  0  0  0  0  0  0
    3.8862   -0.8092   -0.4706 H   0  0  0  0  0  0  0  0  0  0  0  0
    2.2740    2.2842    0.5561 H   0  0  0  0  0  0  0  0  0  0  0  0
    1.4499    1.3923   -1.4437 H   0  0  0  0  0  0  0  0  0  0  0  0
    2.1161   -0.2772   -1.8260 H   0  0  0  0  0  0  0  0  0  0  0  0
   -2.5921   -1.5870   -0.5932 H   0  0  0  0  0  0  0  0  0  0  0  0
   -2.1115   -1.5718    1.8384 H   0  0  0  0  0  0  0  0  0  0  0  0
   -3.8020   -0.2356    1.0949 H   0  0  0  0  0  0  0  0  0  0  0  0
   -2.4317    0.9592    1.0596 H   0  0  0  0  0  0  0  0  0  0  0  0
   -4.1785    0.2925   -1.2492 H   0  0  0  0  0  0  0  0  0  0  0  0
   -3.7249    1.8489   -0.6025 H   0  0  0  0  0  0  0  0  0  0  0  0
    0.7539   -0.7116    1.5599 H   0  0  0  0  0  0  0  0  0  0  0  0
    1.6228   -1.7515    0.2918 H   0  0  0  0  0  0  0  0  0  0  0  0
  1  2  1  0
  2  3  1  0
  2  4  1  0
  4  5  1  0
  5  6  1  0
  6  7  2  0
  6  8  1  0
  8  9  1  0
  8 10  1  0
 10 11  1  0
  5 12  1  0
 12  2  1  0
  1 13  1  0
  1 14  1  0
  1 15  1  0
  3 16  1  0
  4 17  1  0
  4 18  1  0
  8 19  1  6
  9 20  1  0
 10 21  1  0
 10 22  1  0
 11 23  1  0
 11 24  1  0
 12 25  1  0
 12 26  1  0
M  END
$$$$

     RDKit          3D

 26 26  0  0  0  0  0  0  0  0999 V2000
   -3.3671   -0.5081   -1.0539 C   0  0  0  0  0  0  0  0  0  0  0  0
   -2.3954    0.2161   -0.1605 C   0  0  0  0  0  0  0  0  0  0  0  0
   -3.0153    0.7210    0.9616 O   0  0  0  0  0  0  0  0  0  0  0  0
   -1.1984   -0.6868    0.1153 C   0  0  0  0  0  0  0  0  0  0  0  0
   -0.3136    0.4200   -0.1138 N   0  0  0  0  0  0  0  0  0  0  0  0
    1.0195    0.7559    0.1976 C   0  0  0  0  0  0  0  0  0  0  0  0
    1.5233    1.8538   -0.1635 O   0  0  0  0  0  0  0  0  0  0  0  0
    1.8487   -0.1862    0.9587 C   0  0  1  0  0  0  0  0  0  0  0  0
    1.1313   -1.3379    1.2698 O   0  0  0  0  0  0  0  0  0  0  0  0
    3.0718   -0.6282    0.1810 C   0  0  0  0  0  0  0  0  0  0  0  0
    3.8902    0.5002   -0.1929 N   0  0  0  0  0  0  0  0  0  0  0  0
   -1.3905    1.0871   -0.8280 C   0  0  0  0  0  0  0  0  0  0  0  0
   -3.8145   -1.3319   -0.4255 H   0  0  0  0  0  0  0  0  0  0  0  0
   -2.8957   -1.0132   -1.9066 H   0  0  0  0  0  0  0  0  0  0  0  0
   -4.1852    0.1231   -1.4239 H   0  0  0  0  0  0  0  0  0  0  0  0
   -2.4137    1.3988    1.3770 H   0  0  0  0  0  0  0  0  0  0  0  0
   -1.2166   -1.1179    1.1174 H   0  0  0  0  0  0  0  0  0  0  0  0
   -1.0524   -1.4650   -0.6726 H   0  0  0  0  0  0  0  0  0  0  0  0
    2.1671    0.2543    1.9460 H   0  0  0  0  0  0  0  0  0  0  0  0
    1.5176   -1.8230    2.0303 H   0  0  0  0  0  0  0  0  0  0  0  0
    3.6789   -1.2720    0.8538 H   0  0  0  0  0  0  0  0  0  0  0  0
    2.7174   -1.1851   -0.7155 H   0  0  0  0  0  0  0  0  0  0  0  0
    3.7338    1.3269    0.3920 H   0  0  0  0  0  0  0  0  0  0  0  0
    3.7581    0.7107   -1.2049 H   0  0  0  0  0  0  0  0  0  0  0  0
   -1.4674    2.1404   -0.4369 H   0  0  0  0  0  0  0  0  0  0  0  0
   -1.3320    1.0471   -1.9225 H   0  0  0  0  0  0  0  0  0  0  0  0
  1  2  1  0
  2  3  1  0
  2  4  1  0
  4  5  1  0
  5  6  1  0
  6  7  2  0
  6  8  1  0
  8  9  1  0
  8 10  1  0
 10 11  1  0
  5 12  1  0
 12  2  1  0
  1 13  1  0
  1 14  1  0
  1 15  1  0
  3 16  1  0
  4 17  1  0
  4 18  1  0
  8 19  1  1
  9 20  1  0
 10 21  1  0
 10 22  1  0
 11 23  1  0
 11 24  1  0
 12 25  1  0
 12 26  1  0
M  END
$$$$

     RDKit          3D

 26 26  0  0  0  0  0  0  0  0999 V2000
    3.6018   -0.1270    0.6743 C   0  0  0  0  0  0  0  0  0  0  0  0
    2.2440    0.2889    0.1745 C   0  0  0  0  0  0  0  0  0  0  0  0
    1.8986    1.6023    0.3717 O   0  0  0  0  0  0  0  0  0  0  0  0
    1.0994   -0.6167    0.6541 C   0  0  0  0  0  0  0  0  0  0  0  0
    0.5117   -0.4041   -0.6370 N   0  0  0  0  0  0  0  0  0  0  0  0
   -0.7843   -0.3229   -1.1654 C   0  0  0  0  0  0  0  0  0  0  0  0
   -0.9886   -0.1144   -2.4107 O   0  0  0  0  0  0  0  0  0  0  0  0
   -1.9839   -0.4755   -0.3023 C   0  0  1  0  0  0  0  0  0  0  0  0
   -1.6540   -0.6997    1.0201 O   0  0  0  0  0  0  0  0  0  0  0  0
   -2.8616    0.7398   -0.4253 C   0  0  0  0  0  0  0  0  0  0  0  0
   -4.0812    0.6014    0.3064 N   0  0  0  0  0  0  0  0  0  0  0  0
    1.8479   -0.3107   -1.1597 C   0  0  0  0  0  0  0  0  0  0  0  0
    3.5762   -0.6775    1.6270 H   0  0  0  0  0  0  0  0  0  0  0  0
    4.0744   -0.7327   -0.1527 H   0  0  0  0  0  0  0  0  0  0  0  0
    4.2313    0.7823    0.7549 H   0  0  0  0  0  0  0  0  0  0  0  0
    1.4842    1.7281    1.2834 H   0  0  0  0  0  0  0  0  0  0  0  0
    1.5067   -1.6511    0.7441 H   0  0  0  0  0  0  0  0  0  0  0  0
    0.5714   -0.2383    1.5336 H   0  0  0  0  0  0  0  0  0  0  0  0
   -2.5225   -1.3761   -0.6701 H   0  0  0  0  0  0  0  0  0  0  0  0
   -1.9028    0.0988    1.5734 H   0  0  0  0  0  0  0  0  0  0  0  0
   -3.1080    0.8538   -1.5046 H   0  0  0  0  0  0  0  0  0  0  0  0
   -2.2717    1.6456   -0.1574 H   0  0  0  0  0  0  0  0  0  0  0  0
   -3.9724    0.2102    1.2502 H   0  0  0  0  0  0  0  0  0  0  0  0
   -4.8133    0.1519   -0.2773 H   0  0  0  0  0  0  0  0  0  0  0  0
    2.3092   -1.3147   -1.2521 H   0  0  0  0  0  0  0  0  0  0  0  0
    1.9875    0.3583   -2.0284 H   0  0  0  0  0  0  0  0  0  0  0  0
  1  2  1  0
  2  3  1  0
  2  4  1  0
  4  5  1  0
  5  6  1  0
  6  7  2  0
  6  8  1  0
  8  9  1  0
  8 10  1  0
 10 11  1  0
  5 12  1  0
 12  2  1  0
  1 13  1  0
  1 14  1  0
  1 15  1  0
  3 16  1  0
  4 17  1  0
  4 18  1  0
  8 19  1  6
  9 20  1  0
 10 21  1  0
 10 22  1  0
 11 23  1  0
 11 24  1  0
 12 25  1  0
 12 26  1  0
M  END
$$$$

     RDKit          3D

 26 26  0  0  0  0  0  0  0  0999 V2000
   -3.1895    1.0589    0.2197 C   0  0  0  0  0  0  0  0  0  0  0  0
   -2.4955   -0.2694    0.2143 C   0  0  0  0  0  0  0  0  0  0  0  0
   -3.3009   -1.3196    0.6341 O   0  0  0  0  0  0  0  0  0  0  0  0
   -1.1072   -0.2750    0.8185 C   0  0  0  0  0  0  0  0  0  0  0  0
   -0.5212   -0.1313   -0.4993 N   0  0  0  0  0  0  0  0  0  0  0  0
    0.7700    0.2280   -0.9411 C   0  0  0  0  0  0  0  0  0  0  0  0
    0.9861    0.2679   -2.1898 O   0  0  0  0  0  0  0  0  0  0  0  0
    1.8673    0.5560   -0.0011 C   0  0  1  0  0  0  0  0  0  0  0  0
    1.3871    0.4419    1.2956 O   0  0  0  0  0  0  0  0  0  0  0  0
    3.0255   -0.3849   -0.2506 C   0  0  0  0  0  0  0  0  0  0  0  0
    4.1340   -0.1220    0.6377 N   0  0  0  0  0  0  0  0  0  0  0  0
   -1.7746   -0.4980   -1.0999 C   0  0  0  0  0  0  0  0  0  0  0  0
   -3.2298    1.4867   -0.8165 H   0  0  0  0  0  0  0  0  0  0  0  0
   -4.2727    0.9658    0.5196 H   0  0  0  0  0  0  0  0  0  0  0  0
   -2.6326    1.7449    0.8691 H   0  0  0  0  0  0  0  0  0  0  0  0
   -2.7720   -2.1612    0.6311 H   0  0  0  0  0  0  0  0  0  0  0  0
   -0.8602   -1.2367    1.3092 H   0  0  0  0  0  0  0  0  0  0  0  0
   -0.9445    0.6032    1.4787 H   0  0  0  0  0  0  0  0  0  0  0  0
    2.1737    1.6029   -0.1710 H   0  0  0  0  0  0  0  0  0  0  0  0
    1.8940   -0.1573    1.8679 H   0  0  0  0  0  0  0  0  0  0  0  0
    3.3494   -0.2733   -1.3063 H   0  0  0  0  0  0  0  0  0  0  0  0
    2.6802   -1.4315   -0.1151 H   0  0  0  0  0  0  0  0  0  0  0  0
    3.8664    0.2664    1.5499 H   0  0  0  0  0  0  0  0  0  0  0  0
    4.8279    0.4489    0.1101 H   0  0  0  0  0  0  0  0  0  0  0  0
   -1.7624   -1.5682   -1.3864 H   0  0  0  0  0  0  0  0  0  0  0  0
   -2.0985    0.1567   -1.9256 H   0  0  0  0  0  0  0  0  0  0  0  0
  1  2  1  0
  2  3  1  0
  2  4  1  0
  4  5  1  0
  5  6  1  0
  6  7  2  0
  6  8  1  0
  8  9  1  0
  8 10  1  0
 10 11  1  0
  5 12  1  0
 12  2  1  0
  1 13  1  0
  1 14  1  0
  1 15  1  0
  3 16  1  0
  4 17  1  0
  4 18  1  0
  8 19  1  6
  9 20  1  0
 10 21  1  0
 10 22  1  0
 11 23  1  0
 11 24  1  0
 12 25  1  0
 12 26  1  0
M  END
$$$$

     RDKit          3D

 26 26  0  0  0  0  0  0  0  0999 V2000
   -3.1288   -1.1887    0.7782 C   0  0  0  0  0  0  0  0  0  0  0  0
   -2.2603   -0.2352    0.0271 C   0  0  0  0  0  0  0  0  0  0  0  0
   -2.8108    0.1952   -1.1666 O   0  0  0  0  0  0  0  0  0  0  0  0
   -0.8435   -0.7426   -0.1299 C   0  0  0  0  0  0  0  0  0  0  0  0
   -0.3384    0.5747    0.1816 N   0  0  0  0  0  0  0  0  0  0  0  0
    0.8687    1.2707   -0.0857 C   0  0  0  0  0  0  0  0  0  0  0  0
    1.0139    2.4556    0.3384 O   0  0  0  0  0  0  0  0  0  0  0  0
    1.9874    0.6741   -0.8484 C   0  0  1  0  0  0  0  0  0  0  0  0
    3.0068    1.5956   -0.9481 O   0  0  0  0  0  0  0  0  0  0  0  0
    2.4598   -0.6303   -0.2513 C   0  0  0  0  0  0  0  0  0  0  0  0
    2.9884   -0.4307    1.0765 N   0  0  0  0  0  0  0  0  0  0  0  0
   -1.5885    0.8346    0.8600 C   0  0  0  0  0  0  0  0  0  0  0  0
   -3.7076   -1.7808    0.0374 H   0  0  0  0  0  0  0  0  0  0  0  0
   -3.8846   -0.6645    1.4090 H   0  0  0  0  0  0  0  0  0  0  0  0
   -2.5379   -1.8584    1.4350 H   0  0  0  0  0  0  0  0  0  0  0  0
   -3.5034    0.8580   -0.9475 H   0  0  0  0  0  0  0  0  0  0  0  0
   -0.5657   -1.0171   -1.1676 H   0  0  0  0  0  0  0  0  0  0  0  0
   -0.5746   -1.5219    0.6389 H   0  0  0  0  0  0  0  0  0  0  0  0
    1.5883    0.4515   -1.8767 H   0  0  0  0  0  0  0  0  0  0  0  0
    3.3965    1.5717   -1.8600 H   0  0  0  0  0  0  0  0  0  0  0  0
    1.6356   -1.3448   -0.2524 H   0  0  0  0  0  0  0  0  0  0  0  0
    3.2611   -1.0369   -0.9291 H   0  0  0  0  0  0  0  0  0  0  0  0
    3.7540   -1.0958    1.2987 H   0  0  0  0  0  0  0  0  0  0  0  0
    3.3598    0.5501    1.2009 H   0  0  0  0  0  0  0  0  0  0  0  0
   -1.9750    1.8299    0.5454 H   0  0  0  0  0  0  0  0  0  0  0  0
   -1.6012    0.6862    1.9410 H   0  0  0  0  0  0  0  0  0  0  0  0
  1  2  1  0
  2  3  1  0
  2  4  1  0
  4  5  1  0
  5  6  1  0
  6  7  2  0
  6  8  1  0
  8  9  1  0
  8 10  1  0
 10 11  1  0
  5 12  1  0
 12  2  1  0
  1 13  1  0
  1 14  1  0
  1 15  1  0
  3 16  1  0
  4 17  1  0
  4 18  1  0
  8 19  1  6
  9 20  1  0
 10 21  1  0
 10 22  1  0
 11 23  1  0
 11 24  1  0
 12 25  1  0
 12 26  1  0
M  END
$$$$

     RDKit          3D

 26 26  0  0  0  0  0  0  0  0999 V2000
   -2.4570    1.4042   -0.7215 C   0  0  0  0  0  0  0  0  0  0  0  0
   -2.4433    0.0384   -0.0800 C   0  0  0  0  0  0  0  0  0  0  0  0
   -3.6855   -0.5916   -0.0155 O   0  0  0  0  0  0  0  0  0  0  0  0
   -1.7255    0.0042    1.2438 C   0  0  0  0  0  0  0  0  0  0  0  0
   -0.5198   -0.3931    0.5535 N   0  0  0  0  0  0  0  0  0  0  0  0
    0.8571   -0.3431    0.8325 C   0  0  0  0  0  0  0  0  0  0  0  0
    1.2274    0.1597    1.9356 O   0  0  0  0  0  0  0  0  0  0  0  0
    1.8788   -0.8558   -0.1155 C   0  0  1  0  0  0  0  0  0  0  0  0
    1.2499   -1.3666   -1.2456 O   0  0  0  0  0  0  0  0  0  0  0  0
    2.8513    0.2581   -0.4793 C   0  0  0  0  0  0  0  0  0  0  0  0
    3.4401    0.7058    0.7771 N   0  0  0  0  0  0  0  0  0  0  0  0
   -1.3221   -0.8662   -0.5521 C   0  0  0  0  0  0  0  0  0  0  0  0
   -2.2897    1.3250   -1.8194 H   0  0  0  0  0  0  0  0  0  0  0  0
   -1.6614    2.0551   -0.3325 H   0  0  0  0  0  0  0  0  0  0  0  0
   -3.4675    1.8565   -0.5886 H   0  0  0  0  0  0  0  0  0  0  0  0
   -3.7711   -1.1159    0.8259 H   0  0  0  0  0  0  0  0  0  0  0  0
   -2.0826   -0.7527    1.9648 H   0  0  0  0  0  0  0  0  0  0  0  0
   -1.6634    1.0018    1.7338 H   0  0  0  0  0  0  0  0  0  0  0  0
    2.4728   -1.6434    0.4115 H   0  0  0  0  0  0  0  0  0  0  0  0
    1.8681   -1.3131   -2.0255 H   0  0  0  0  0  0  0  0  0  0  0  0
    3.6227   -0.1714   -1.1392 H   0  0  0  0  0  0  0  0  0  0  0  0
    2.2987    1.0972   -0.9526 H   0  0  0  0  0  0  0  0  0  0  0  0
    4.3756    0.3076    0.9407 H   0  0  0  0  0  0  0  0  0  0  0  0
    3.4502    1.7469    0.8574 H   0  0  0  0  0  0  0  0  0  0  0  0
   -0.9218   -0.6046   -1.5580 H   0  0  0  0  0  0  0  0  0  0  0  0
   -1.5820   -1.9432   -0.4514 H   0  0  0  0  0  0  0  0  0  0  0  0
  1  2  1  0
  2  3  1  0
  2  4  1  0
  4  5  1  0
  5  6  1  0
  6  7  2  0
  6  8  1  0
  8  9  1  0
  8 10  1  0
 10 11  1  0
  5 12  1  0
 12  2  1  0
  1 13  1  0
  1 14  1  0
  1 15  1  0
  3 16  1  0
  4 17  1  0
  4 18  1  0
  8 19  1  1
  9 20  1  0
 10 21  1  0
 10 22  1  0
 11 23  1  0
 11 24  1  0
 12 25  1  0
 12 26  1  0
M  END
$$$$

     RDKit          3D

 26 26  0  0  0  0  0  0  0  0999 V2000
   -2.7564   -0.4503    0.8837 C   0  0  0  0  0  0  0  0  0  0  0  0
   -2.2211    0.6859    0.0602 C   0  0  0  0  0  0  0  0  0  0  0  0
   -3.0328    1.7987    0.0618 O   0  0  0  0  0  0  0  0  0  0  0  0
   -1.7383    0.2891   -1.3197 C   0  0  0  0  0  0  0  0  0  0  0  0
   -0.4749   -0.0785   -0.6900 N   0  0  0  0  0  0  0  0  0  0  0  0
    0.5122   -1.0423   -0.9885 C   0  0  0  0  0  0  0  0  0  0  0  0
    0.4057   -1.8086   -1.9739 O   0  0  0  0  0  0  0  0  0  0  0  0
    1.7053   -1.1459   -0.1081 C   0  0  1  0  0  0  0  0  0  0  0  0
    2.5623   -2.1529   -0.5560 O   0  0  0  0  0  0  0  0  0  0  0  0
    2.4242    0.1984   -0.1828 C   0  0  0  0  0  0  0  0  0  0  0  0
    3.6141    0.1863    0.6463 N   0  0  0  0  0  0  0  0  0  0  0  0
   -0.7440    0.9496    0.2867 C   0  0  0  0  0  0  0  0  0  0  0  0
   -3.0914   -0.0138    1.8563 H   0  0  0  0  0  0  0  0  0  0  0  0
   -3.6372   -0.8904    0.3645 H   0  0  0  0  0  0  0  0  0  0  0  0
   -2.0122   -1.2441    1.0402 H   0  0  0  0  0  0  0  0  0  0  0  0
   -3.0726    2.2045    0.9530 H   0  0  0  0  0  0  0  0  0  0  0  0
   -1.6376    1.1740   -1.9566 H   0  0  0  0  0  0  0  0  0  0  0  0
   -2.2563   -0.5659   -1.7691 H   0  0  0  0  0  0  0  0  0  0  0  0
    1.3983   -1.3799    0.9201 H   0  0  0  0  0  0  0  0  0  0  0  0
    2.9810   -1.8688   -1.4205 H   0  0  0  0  0  0  0  0  0  0  0  0
    2.7262    0.3866   -1.2185 H   0  0  0  0  0  0  0  0  0  0  0  0
    1.7602    0.9730    0.2291 H   0  0  0  0  0  0  0  0  0  0  0  0
    3.4036   -0.0607    1.6256 H   0  0  0  0  0  0  0  0  0  0  0  0
    4.0186    1.1534    0.5861 H   0  0  0  0  0  0  0  0  0  0  0  0
   -0.4275    0.7552    1.3134 H   0  0  0  0  0  0  0  0  0  0  0  0
   -0.4095    1.9476   -0.0607 H   0  0  0  0  0  0  0  0  0  0  0  0
  1  2  1  0
  2  3  1  0
  2  4  1  0
  4  5  1  0
  5  6  1  0
  6  7  2  0
  6  8  1  0
  8  9  1  0
  8 10  1  0
 10 11  1  0
  5 12  1  0
 12  2  1  0
  1 13  1  0
  1 14  1  0
  1 15  1  0
  3 16  1  0
  4 17  1  0
  4 18  1  0
  8 19  1  1
  9 20  1  0
 10 21  1  0
 10 22  1  0
 11 23  1  0
 11 24  1  0
 12 25  1  0
 12 26  1  0
M  END
$$$$
