
     RDKit          3D

 25 25  0  0  0  0  0  0  0  0999 V2000
   -0.0311    1.1926    1.5968 O   0  0  0  0  0  0  0  0  0  0  0  0
    0.4308   -0.0546    0.9417 S   0  0  0  0  0  6  0  0  0  0  0  0
    1.3076   -0.7939    1.9139 O   0  0  0  0  0  0  0  0  0  0  0  0
   -0.8778   -1.1317    0.4682 C   0  0  0  0  0  0  0  0  0  0  0  0
   -1.8195   -0.5388   -0.5342 C   0  0  1  0  0  0  0  0  0  0  0  0
   -2.7914   -1.5121   -0.8019 O   0  0  0  0  0  0  0  0  0  0  0  0
   -2.5356    0.6799   -0.0447 C   0  0  0  0  0  0  0  0  0  0  0  0
   -3.4083    1.0892   -1.0634 O   0  0  0  0  0  0  0  0  0  0  0  0
    1.3924    0.3807   -0.4759 C   0  0  0  0  0  0  0  0  0  0  0  0
    2.3405   -0.6774   -0.9657 C   0  0  0  0  0  0  0  0  0  0  0  0
    3.3278    0.3736   -1.1751 N   0  0  0  0  0  0  0  0  0  0  0  0
    2.6801    1.1259   -0.1233 C   0  0  0  0  0  0  0  0  0  0  0  0
   -0.4231   -2.0328    0.0070 H   0  0  0  0  0  0  0  0  0  0  0  0
   -1.4623   -1.4796    1.3381 H   0  0  0  0  0  0  0  0  0  0  0  0
   -1.3422   -0.3010   -1.4990 H   0  0  0  0  0  0  0  0  0  0  0  0
   -3.2553   -1.6918    0.0728 H   0  0  0  0  0  0  0  0  0  0  0  0
   -1.8574    1.5423    0.1350 H   0  0  0  0  0  0  0  0  0  0  0  0
   -3.1500    0.4690    0.8411 H   0  0  0  0  0  0  0  0  0  0  0  0
   -3.9954    1.8403   -0.7394 H   0  0  0  0  0  0  0  0  0  0  0  0
    0.8439    0.8951   -1.2728 H   0  0  0  0  0  0  0  0  0  0  0  0
    2.6546   -1.3988   -0.1953 H   0  0  0  0  0  0  0  0  0  0  0  0
    2.0256   -1.1824   -1.9142 H   0  0  0  0  0  0  0  0  0  0  0  0
    4.3050    0.0969   -1.0078 H   0  0  0  0  0  0  0  0  0  0  0  0
    2.5725    2.2159   -0.3353 H   0  0  0  0  0  0  0  0  0  0  0  0
    3.0686    0.8934    0.8968 H   0  0  0  0  0  0  0  0  0  0  0  0
  1  2  2  0
  2  3  2  0
  2  4  1  0
  4  5  1  0
  5  6  1  0
  5  7  1  0
  7  8  1  0
  2  9  1  0
  9 10  1  0
 10 11  1  0
 11 12  1  0
 12  9  1  0
  4 13  1  0
  4 14  1  0
  5 15  1  6
  6 16  1  0
  7 17  1  0
  7 18  1  0
  8 19  1  0
  9 20  1  0
 10 21  1  0
 10 22  1  0
 11 23  1  0
 12 24  1  0
 12 25  1  0
M  END
$$$$

     RDKit          3D

 25 25  0  0  0  0  0  0  0  0999 V2000
   -0.0704    2.4400   -0.4560 O   0  0  0  0  0  0  0  0  0  0  0  0
   -0.4557    1.2659    0.3970 S   0  0  0  0  0  6  0  0  0  0  0  0
   -1.1865    1.7072    1.6239 O   0  0  0  0  0  0  0  0  0  0  0  0
    0.9933    0.3166    0.8496 C   0  0  0  0  0  0  0  0  0  0  0  0
    1.6613   -0.0951   -0.4423 C   0  0  1  0  0  0  0  0  0  0  0  0
    2.0023    1.0614   -1.1330 O   0  0  0  0  0  0  0  0  0  0  0  0
    2.9193   -0.9104   -0.1705 C   0  0  0  0  0  0  0  0  0  0  0  0
    3.5187   -1.2483   -1.3777 O   0  0  0  0  0  0  0  0  0  0  0  0
   -1.5336    0.2342   -0.5884 C   0  0  0  0  0  0  0  0  0  0  0  0
   -2.1826   -0.8537    0.2433 C   0  0  0  0  0  0  0  0  0  0  0  0
   -3.4839   -0.3531   -0.0906 N   0  0  0  0  0  0  0  0  0  0  0  0
   -2.9190    0.7990   -0.7241 C   0  0  0  0  0  0  0  0  0  0  0  0
    1.7010    0.9342    1.4050 H   0  0  0  0  0  0  0  0  0  0  0  0
    0.7084   -0.5834    1.3928 H   0  0  0  0  0  0  0  0  0  0  0  0
    0.9322   -0.6803   -1.0298 H   0  0  0  0  0  0  0  0  0  0  0  0
    2.9174    1.3541   -0.9922 H   0  0  0  0  0  0  0  0  0  0  0  0
    2.6666   -1.8044    0.4272 H   0  0  0  0  0  0  0  0  0  0  0  0
    3.6137   -0.3027    0.4287 H   0  0  0  0  0  0  0  0  0  0  0  0
    3.6032   -2.2476   -1.4657 H   0  0  0  0  0  0  0  0  0  0  0  0
   -1.0648   -0.1308   -1.5191 H   0  0  0  0  0  0  0  0  0  0  0  0
   -1.9626   -1.8700   -0.1365 H   0  0  0  0  0  0  0  0  0  0  0  0
   -1.9828   -0.7747    1.3272 H   0  0  0  0  0  0  0  0  0  0  0  0
   -4.0787   -0.9670   -0.6886 H   0  0  0  0  0  0  0  0  0  0  0  0
   -3.0664    1.6989   -0.0932 H   0  0  0  0  0  0  0  0  0  0  0  0
   -3.2503    1.0101   -1.7559 H   0  0  0  0  0  0  0  0  0  0  0  0
  1  2  2  0
  2  3  2  0
  2  4  1  0
  4  5  1  0
  5  6  1  0
  5  7  1  0
  7  8  1  0
  2  9  1  0
  9 10  1  0
 10 11  1  0
 11 12  1  0
 12  9  1  0
  4 13  1  0
  4 14  1  0
  5 15  1  6
  6 16  1  0
  7 17  1  0
  7 18  1  0
  8 19  1  0
  9 20  1  0
 10 21  1  0
 10 22  1  0
 11 23  1  0
 12 24  1  0
 12 25  1  0
M  END
$$$$

     RDKit          3D

 25 25  0  0  0  0  0  0  0  0999 V2000
   -0.1079    2.3760    0.1152 O   0  0  0  0  0  0  0  0  0  0  0  0
   -0.3148    1.0170   -0.4909 S   0  0  0  0  0  6  0  0  0  0  0  0
    0.0434    1.0167   -1.9694 O   0  0  0  0  0  0  0  0  0  0  0  0
    0.5971   -0.2020    0.3666 C   0  0  0  0  0  0  0  0  0  0  0  0
    2.0692    0.0075    0.3691 C   0  0  1  0  0  0  0  0  0  0  0  0
    2.7175   -1.0269    1.0866 O   0  0  0  0  0  0  0  0  0  0  0  0
    2.6886    0.0189   -0.9993 C   0  0  0  0  0  0  0  0  0  0  0  0
    4.0753    0.2660   -0.8574 O   0  0  0  0  0  0  0  0  0  0  0  0
   -2.0507    0.6675   -0.4222 C   0  0  0  0  0  0  0  0  0  0  0  0
   -2.4314   -0.7546   -0.7011 C   0  0  0  0  0  0  0  0  0  0  0  0
   -3.4798   -0.6083    0.3206 N   0  0  0  0  0  0  0  0  0  0  0  0
   -2.5863    0.3695    0.9594 C   0  0  0  0  0  0  0  0  0  0  0  0
    0.2200   -0.2926    1.4036 H   0  0  0  0  0  0  0  0  0  0  0  0
    0.4004   -1.1888   -0.1489 H   0  0  0  0  0  0  0  0  0  0  0  0
    2.3482    0.9431    0.8963 H   0  0  0  0  0  0  0  0  0  0  0  0
    2.8715   -1.8106    0.5021 H   0  0  0  0  0  0  0  0  0  0  0  0
    2.5470   -0.9681   -1.4842 H   0  0  0  0  0  0  0  0  0  0  0  0
    2.3362    0.8283   -1.6536 H   0  0  0  0  0  0  0  0  0  0  0  0
    4.5808   -0.5580   -0.7307 H   0  0  0  0  0  0  0  0  0  0  0  0
   -2.6776    1.3921   -0.9394 H   0  0  0  0  0  0  0  0  0  0  0  0
   -2.8438   -0.9697   -1.6953 H   0  0  0  0  0  0  0  0  0  0  0  0
   -1.6862   -1.4960   -0.3232 H   0  0  0  0  0  0  0  0  0  0  0  0
   -4.2842   -0.0554   -0.1021 H   0  0  0  0  0  0  0  0  0  0  0  0
   -1.8976   -0.1828    1.6275 H   0  0  0  0  0  0  0  0  0  0  0  0
   -3.1350    1.2111    1.4405 H   0  0  0  0  0  0  0  0  0  0  0  0
  1  2  2  0
  2  3  2  0
  2  4  1  0
  4  5  1  0
  5  6  1  0
  5  7  1  0
  7  8  1  0
  2  9  1  0
  9 10  1  0
 10 11  1  0
 11 12  1  0
 12  9  1  0
  4 13  1  0
  4 14  1  0
  5 15  1  1
  6 16  1  0
  7 17  1  0
  7 18  1  0
  8 19  1  0
  9 20  1  0
 10 21  1  0
 10 22  1  0
 11 23  1  0
 12 24  1  0
 12 25  1  0
M  END
$$$$

     RDKit          3D

 25 25  0  0  0  0  0  0  0  0999 V2000
   -0.6069   -1.9062   -0.1238 O   0  0  0  0  0  0  0  0  0  0  0  0
   -0.4406   -0.6074    0.5881 S   0  0  0  0  0  6  0  0  0  0  0  0
   -0.1678   -0.8467    2.0369 O   0  0  0  0  0  0  0  0  0  0  0  0
    0.8978    0.3366   -0.0861 C   0  0  0  0  0  0  0  0  0  0  0  0
    2.2172   -0.4149   -0.0007 C   0  0  1  0  0  0  0  0  0  0  0  0
    2.1490   -1.6033   -0.7008 O   0  0  0  0  0  0  0  0  0  0  0  0
    3.2607    0.4809   -0.6466 C   0  0  0  0  0  0  0  0  0  0  0  0
    3.3204    1.6629    0.0593 O   0  0  0  0  0  0  0  0  0  0  0  0
   -1.9150    0.3390    0.4451 C   0  0  0  0  0  0  0  0  0  0  0  0
   -2.4784    0.4299   -0.9750 C   0  0  0  0  0  0  0  0  0  0  0  0
   -3.8047    0.4439   -0.3368 N   0  0  0  0  0  0  0  0  0  0  0  0
   -3.2060   -0.4404    0.6768 C   0  0  0  0  0  0  0  0  0  0  0  0
    0.7114    0.5495   -1.1396 H   0  0  0  0  0  0  0  0  0  0  0  0
    1.0179    1.2611    0.5002 H   0  0  0  0  0  0  0  0  0  0  0  0
    2.5092   -0.6244    1.0498 H   0  0  0  0  0  0  0  0  0  0  0  0
    2.9987   -1.8331   -1.1527 H   0  0  0  0  0  0  0  0  0  0  0  0
    4.2380   -0.0221   -0.7630 H   0  0  0  0  0  0  0  0  0  0  0  0
    2.8928    0.7022   -1.6711 H   0  0  0  0  0  0  0  0  0  0  0  0
    4.2092    1.7866    0.4862 H   0  0  0  0  0  0  0  0  0  0  0  0
   -1.9386    1.3034    0.9528 H   0  0  0  0  0  0  0  0  0  0  0  0
   -2.2145    1.3393   -1.5124 H   0  0  0  0  0  0  0  0  0  0  0  0
   -2.3624   -0.5321   -1.5039 H   0  0  0  0  0  0  0  0  0  0  0  0
   -4.5565    0.0219   -0.8920 H   0  0  0  0  0  0  0  0  0  0  0  0
   -3.6200   -0.3397    1.6781 H   0  0  0  0  0  0  0  0  0  0  0  0
   -3.1109   -1.4869    0.2797 H   0  0  0  0  0  0  0  0  0  0  0  0
  1  2  2  0
  2  3  2  0
  2  4  1  0
  4  5  1  0
  5  6  1  0
  5  7  1  0
  7  8  1  0
  2  9  1  0
  9 10  1  0
 10 11  1  0
 11 12  1  0
 12  9  1  0
  4 13  1  0
  4 14  1  0
  5 15  1  1
  6 16  1  0
  7 17  1  0
  7 18  1  0
  8 19  1  0
  9 20  1  0
 10 21  1  0
 10 22  1  0
 11 23  1  0
 12 24  1  0
 12 25  1  0
M  END
$$$$

     RDKit          3D

 25 25  0  0  0  0  0  0  0  0999 V2000
   -1.2526   -2.6656   -0.2845 O   0  0  0  0  0  0  0  0  0  0  0  0
   -0.7227   -1.2880   -0.7501 S   0  0  0  0  0  6  0  0  0  0  0  0
   -0.5539   -1.4984   -2.2615 O   0  0  0  0  0  0  0  0  0  0  0  0
    0.8552   -1.0870   -0.0887 C   0  0  0  0  0  0  0  0  0  0  0  0
    1.6855    0.0500   -0.5646 C   0  0  1  0  0  0  0  0  0  0  0  0
    1.1089    1.2662   -0.3277 O   0  0  0  0  0  0  0  0  0  0  0  0
    3.0544    0.0663    0.1447 C   0  0  0  0  0  0  0  0  0  0  0  0
    3.7737    1.1149   -0.4254 O   0  0  0  0  0  0  0  0  0  0  0  0
   -1.9633   -0.1549   -0.5097 C   0  0  0  0  0  0  0  0  0  0  0  0
   -1.8414    1.2708   -0.2227 C   0  0  0  0  0  0  0  0  0  0  0  0
   -3.1920    1.1092    0.4499 N   0  0  0  0  0  0  0  0  0  0  0  0
   -2.5539   -0.1347    0.9592 C   0  0  0  0  0  0  0  0  0  0  0  0
    0.8190   -1.1469    1.0321 H   0  0  0  0  0  0  0  0  0  0  0  0
    1.4487   -2.0258   -0.3531 H   0  0  0  0  0  0  0  0  0  0  0  0
    1.9001   -0.0907   -1.6724 H   0  0  0  0  0  0  0  0  0  0  0  0
    1.2527    1.5229    0.6025 H   0  0  0  0  0  0  0  0  0  0  0  0
    3.5582   -0.9045    0.0647 H   0  0  0  0  0  0  0  0  0  0  0  0
    2.8769    0.2879    1.2110 H   0  0  0  0  0  0  0  0  0  0  0  0
    4.7008    1.1416   -0.0835 H   0  0  0  0  0  0  0  0  0  0  0  0
   -2.8894   -0.3826   -1.1305 H   0  0  0  0  0  0  0  0  0  0  0  0
   -2.0001    1.9865   -1.0366 H   0  0  0  0  0  0  0  0  0  0  0  0
   -1.2042    1.6279    0.6214 H   0  0  0  0  0  0  0  0  0  0  0  0
   -3.8610    0.7969   -0.3121 H   0  0  0  0  0  0  0  0  0  0  0  0
   -1.7778    0.1094    1.6832 H   0  0  0  0  0  0  0  0  0  0  0  0
   -3.2218   -0.9714    1.1103 H   0  0  0  0  0  0  0  0  0  0  0  0
  1  2  2  0
  2  3  2  0
  2  4  1  0
  4  5  1  0
  5  6  1  0
  5  7  1  0
  7  8  1  0
  2  9  1  0
  9 10  1  0
 10 11  1  0
 11 12  1  0
 12  9  1  0
  4 13  1  0
  4 14  1  0
  5 15  1  6
  6 16  1  0
  7 17  1  0
  7 18  1  0
  8 19  1  0
  9 20  1  0
 10 21  1  0
 10 22  1  0
 11 23  1  0
 12 24  1  0
 12 25  1  0
M  END
$$$$

     RDKit          3D

 25 25  0  0  0  0  0  0  0  0999 V2000
    0.5113   -2.3123   -0.6389 O   0  0  0  0  0  0  0  0  0  0  0  0
    0.5787   -0.9332   -0.0665 S   0  0  0  0  0  6  0  0  0  0  0  0
    0.9133   -1.0003    1.3962 O   0  0  0  0  0  0  0  0  0  0  0  0
   -0.9710   -0.0917   -0.3050 C   0  0  0  0  0  0  0  0  0  0  0  0
   -2.1016   -0.8255    0.3699 C   0  0  1  0  0  0  0  0  0  0  0  0
   -1.8818   -0.9261    1.7224 O   0  0  0  0  0  0  0  0  0  0  0  0
   -3.3736   -0.0369    0.0755 C   0  0  0  0  0  0  0  0  0  0  0  0
   -3.2846    1.2513    0.5921 O   0  0  0  0  0  0  0  0  0  0  0  0
    1.8435    0.0142   -0.9013 C   0  0  0  0  0  0  0  0  0  0  0  0
    2.2279    1.2580   -0.1663 C   0  0  0  0  0  0  0  0  0  0  0  0
    3.6078    0.8347   -0.0831 N   0  0  0  0  0  0  0  0  0  0  0  0
    3.2208   -0.4714   -0.5181 C   0  0  0  0  0  0  0  0  0  0  0  0
   -1.2017   -0.0266   -1.3867 H   0  0  0  0  0  0  0  0  0  0  0  0
   -0.8998    0.9365    0.0885 H   0  0  0  0  0  0  0  0  0  0  0  0
   -2.1494   -1.8382   -0.0573 H   0  0  0  0  0  0  0  0  0  0  0  0
   -2.2368   -0.1009    2.1634 H   0  0  0  0  0  0  0  0  0  0  0  0
   -3.5482    0.0240   -1.0178 H   0  0  0  0  0  0  0  0  0  0  0  0
   -4.2316   -0.5850    0.5275 H   0  0  0  0  0  0  0  0  0  0  0  0
   -3.8626    1.8929    0.1449 H   0  0  0  0  0  0  0  0  0  0  0  0
    1.6512    0.1099   -1.9767 H   0  0  0  0  0  0  0  0  0  0  0  0
    1.8132    1.3364    0.8728 H   0  0  0  0  0  0  0  0  0  0  0  0
    2.0623    2.2200   -0.6903 H   0  0  0  0  0  0  0  0  0  0  0  0
    4.2792    1.3615   -0.6565 H   0  0  0  0  0  0  0  0  0  0  0  0
    3.8080   -0.9101   -1.3501 H   0  0  0  0  0  0  0  0  0  0  0  0
    3.2255   -1.1812    0.3381 H   0  0  0  0  0  0  0  0  0  0  0  0
  1  2  2  0
  2  3  2  0
  2  4  1  0
  4  5  1  0
  5  6  1  0
  5  7  1  0
  7  8  1  0
  2  9  1  0
  9 10  1  0
 10 11  1  0
 11 12  1  0
 12  9  1  0
  4 13  1  0
  4 14  1  0
  5 15  1  6
  6 16  1  0
  7 17  1  0
  7 18  1  0
  8 19  1  0
  9 20  1  0
 10 21  1  0
 10 22  1  0
 11 23  1  0
 12 24  1  0
 12 25  1  0
M  END
$$$$

     RDKit          3D

 25 25  0  0  0  0  0  0  0  0999 V2000
    0.6628    1.1073   -1.2657 O   0  0  0  0  0  0  0  0  0  0  0  0
    0.5476    0.8067    0.2006 S   0  0  0  0  0  6  0  0  0  0  0  0
    0.6869    2.0691    0.9971 O   0  0  0  0  0  0  0  0  0  0  0  0
   -1.0024    0.0156    0.5638 C   0  0  0  0  0  0  0  0  0  0  0  0
   -2.1192    0.9452    0.1819 C   0  0  1  0  0  0  0  0  0  0  0  0
   -1.9900    1.1956   -1.1935 O   0  0  0  0  0  0  0  0  0  0  0  0
   -3.4535    0.2600    0.3680 C   0  0  0  0  0  0  0  0  0  0  0  0
   -3.4423   -0.9105   -0.3609 O   0  0  0  0  0  0  0  0  0  0  0  0
    1.9184   -0.2382    0.6286 C   0  0  0  0  0  0  0  0  0  0  0  0
    3.2085    0.3842    0.0868 C   0  0  0  0  0  0  0  0  0  0  0  0
    3.6533   -0.9481   -0.2939 N   0  0  0  0  0  0  0  0  0  0  0  0
    2.2321   -1.3205   -0.3628 C   0  0  0  0  0  0  0  0  0  0  0  0
   -1.0514   -0.3651    1.5867 H   0  0  0  0  0  0  0  0  0  0  0  0
   -1.0900   -0.8809   -0.1095 H   0  0  0  0  0  0  0  0  0  0  0  0
   -2.0858    1.8968    0.7561 H   0  0  0  0  0  0  0  0  0  0  0  0
   -2.2162    0.3342   -1.6496 H   0  0  0  0  0  0  0  0  0  0  0  0
   -4.2468    0.9115   -0.0843 H   0  0  0  0  0  0  0  0  0  0  0  0
   -3.6419    0.0999    1.4486 H   0  0  0  0  0  0  0  0  0  0  0  0
   -3.5444   -1.7190    0.2029 H   0  0  0  0  0  0  0  0  0  0  0  0
    1.9903   -0.5321    1.6767 H   0  0  0  0  0  0  0  0  0  0  0  0
    3.8329    0.8599    0.8512 H   0  0  0  0  0  0  0  0  0  0  0  0
    3.0516    1.0283   -0.8053 H   0  0  0  0  0  0  0  0  0  0  0  0
    4.1480   -1.4569    0.4872 H   0  0  0  0  0  0  0  0  0  0  0  0
    2.1209   -2.3695    0.0276 H   0  0  0  0  0  0  0  0  0  0  0  0
    1.8308   -1.1736   -1.3717 H   0  0  0  0  0  0  0  0  0  0  0  0
  1  2  2  0
  2  3  2  0
  2  4  1  0
  4  5  1  0
  5  6  1  0
  5  7  1  0
  7  8  1  0
  2  9  1  0
  9 10  1  0
 10 11  1  0
 11 12  1  0
 12  9  1  0
  4 13  1  0
  4 14  1  0
  5 15  1  1
  6 16  1  0
  7 17  1  0
  7 18  1  0
  8 19  1  0
  9 20  1  0
 10 21  1  0
 10 22  1  0
 11 23  1  0
 12 24  1  0
 12 25  1  0
M  END
$$$$

     RDKit          3D

 25 25  0  0  0  0  0  0  0  0999 V2000
   -1.2381    1.7943    1.6625 O   0  0  0  0  0  0  0  0  0  0  0  0
   -0.5026    1.2767    0.4622 S   0  0  0  0  0  6  0  0  0  0  0  0
   -0.0304    2.4728   -0.3122 O   0  0  0  0  0  0  0  0  0  0  0  0
    0.8985    0.3670    1.0546 C   0  0  0  0  0  0  0  0  0  0  0  0
    1.7284   -0.1700   -0.1159 C   0  0  1  0  0  0  0  0  0  0  0  0
    2.1868    0.8581   -0.9019 O   0  0  0  0  0  0  0  0  0  0  0  0
    2.8168   -1.0410    0.4456 C   0  0  0  0  0  0  0  0  0  0  0  0
    3.5603   -1.6293   -0.5625 O   0  0  0  0  0  0  0  0  0  0  0  0
   -1.5468    0.2462   -0.5294 C   0  0  0  0  0  0  0  0  0  0  0  0
   -2.2951   -0.7866    0.2766 C   0  0  0  0  0  0  0  0  0  0  0  0
   -3.3572    0.1734    0.4420 N   0  0  0  0  0  0  0  0  0  0  0  0
   -2.9294    0.7870   -0.7938 C   0  0  0  0  0  0  0  0  0  0  0  0
    0.5387   -0.4641    1.6868 H   0  0  0  0  0  0  0  0  0  0  0  0
    1.5191    1.0431    1.6781 H   0  0  0  0  0  0  0  0  0  0  0  0
    1.0577   -0.8315   -0.7112 H   0  0  0  0  0  0  0  0  0  0  0  0
    3.1253    0.7493   -1.2144 H   0  0  0  0  0  0  0  0  0  0  0  0
    3.5282   -0.4651    1.0797 H   0  0  0  0  0  0  0  0  0  0  0  0
    2.3117   -1.8477    1.0347 H   0  0  0  0  0  0  0  0  0  0  0  0
    3.7499   -2.5685   -0.3167 H   0  0  0  0  0  0  0  0  0  0  0  0
   -1.0333   -0.1709   -1.4245 H   0  0  0  0  0  0  0  0  0  0  0  0
   -1.7963   -1.1168    1.2065 H   0  0  0  0  0  0  0  0  0  0  0  0
   -2.6156   -1.6115   -0.4013 H   0  0  0  0  0  0  0  0  0  0  0  0
   -3.2964    0.7994    1.2715 H   0  0  0  0  0  0  0  0  0  0  0  0
   -3.0027    1.8881   -0.8386 H   0  0  0  0  0  0  0  0  0  0  0  0
   -3.3772    0.2477   -1.6560 H   0  0  0  0  0  0  0  0  0  0  0  0
  1  2  2  0
  2  3  2  0
  2  4  1  0
  4  5  1  0
  5  6  1  0
  5  7  1  0
  7  8  1  0
  2  9  1  0
  9 10  1  0
 10 11  1  0
 11 12  1  0
 12  9  1  0
  4 13  1  0
  4 14  1  0
  5 15  1  6
  6 16  1  0
  7 17  1  0
  7 18  1  0
  8 19  1  0
  9 20  1  0
 10 21  1  0
 10 22  1  0
 11 23  1  0
 12 24  1  0
 12 25  1  0
M  END
$$$$
