
     RDKit          3D

 25 25  0  0  0  0  0  0  0  0999 V2000
   -3.4011   -0.7608    0.0757 C   0  0  0  0  0  0  0  0  0  0  0  0
   -2.1715   -0.6197   -0.5454 O   0  0  0  0  0  0  0  0  0  0  0  0
   -1.2418    0.0542    0.2261 C   0  0  2  0  0  0  0  0  0  0  0  0
   -0.6509    1.2476   -0.5075 C   0  0  0  0  0  0  0  0  0  0  0  0
    0.7372    1.3260   -0.1193 N   0  0  0  0  0  0  0  0  0  0  0  0
    1.7771    1.0700   -1.4935 S   0  0  0  0  0  4  0  0  0  0  0  0
    3.4422    0.6401   -1.0250 C   0  0  0  0  0  0  0  0  0  0  0  0
    1.8418    2.3048   -2.3942 O   0  0  0  0  0  0  0  0  0  0  0  0
    0.9777    0.2400    0.8140 C   0  0  0  0  0  0  0  0  0  0  0  0
    0.0041   -0.8064    0.3167 C   0  0  1  0  0  0  0  0  0  0  0  0
   -0.1284   -1.9288    1.1673 N   0  0  0  0  0  0  0  0  0  0  0  0
   -3.8566    0.2386    0.3204 H   0  0  0  0  0  0  0  0  0  0  0  0
   -4.0739   -1.2619   -0.6609 H   0  0  0  0  0  0  0  0  0  0  0  0
   -3.3382   -1.4141    0.9725 H   0  0  0  0  0  0  0  0  0  0  0  0
   -1.6178    0.3716    1.2049 H   0  0  0  0  0  0  0  0  0  0  0  0
   -1.2032    2.1824   -0.2787 H   0  0  0  0  0  0  0  0  0  0  0  0
   -0.7185    1.0027   -1.5943 H   0  0  0  0  0  0  0  0  0  0  0  0
    3.8237    1.3615   -0.2827 H   0  0  0  0  0  0  0  0  0  0  0  0
    4.0678    0.6607   -1.9350 H   0  0  0  0  0  0  0  0  0  0  0  0
    3.5262   -0.3948   -0.6166 H   0  0  0  0  0  0  0  0  0  0  0  0
    2.0164   -0.1062    0.8228 H   0  0  0  0  0  0  0  0  0  0  0  0
    0.6067    0.5793    1.8048 H   0  0  0  0  0  0  0  0  0  0  0  0
    0.2929   -1.0509   -0.7375 H   0  0  0  0  0  0  0  0  0  0  0  0
   -1.1004   -2.1489    1.4335 H   0  0  0  0  0  0  0  0  0  0  0  0
    0.3884   -2.7868    0.8406 H   0  0  0  0  0  0  0  0  0  0  0  0
  1  2  1  0
  2  3  1  0
  3  4  1  0
  4  5  1  0
  5  6  1  0
  6  7  1  1
  6  8  2  0
  5  9  1  0
  9 10  1  0
 10 11  1  0
 10  3  1  0
  1 12  1  0
  1 13  1  0
  1 14  1  0
  3 15  1  1
  4 16  1  0
  4 17  1  0
  7 18  1  0
  7 19  1  0
  7 20  1  0
  9 21  1  0
  9 22  1  0
 10 23  1  6
 11 24  1  0
 11 25  1  0
M  END
$$$$

     RDKit          3D

 25 25  0  0  0  0  0  0  0  0999 V2000
   -2.8917    0.2831   -1.5931 C   0  0  0  0  0  0  0  0  0  0  0  0
   -2.1486   -0.6625   -0.9055 O   0  0  0  0  0  0  0  0  0  0  0  0
   -1.0401   -0.0635   -0.3125 C   0  0  2  0  0  0  0  0  0  0  0  0
    0.2192   -0.6625   -0.9166 C   0  0  0  0  0  0  0  0  0  0  0  0
    1.1593   -0.7962    0.1612 N   0  0  0  0  0  0  0  0  0  0  0  0
    2.1226    0.6152    0.4098 S   0  0  0  0  0  4  0  0  0  0  0  0
    3.4971    0.7139   -0.7618 C   0  0  0  0  0  0  0  0  0  0  0  0
    2.7496    0.5477    1.8070 O   0  0  0  0  0  0  0  0  0  0  0  0
    0.3644   -1.0981    1.3097 C   0  0  0  0  0  0  0  0  0  0  0  0
   -0.9677   -0.4059    1.1393 C   0  0  1  0  0  0  0  0  0  0  0  0
   -1.0165    0.7715    1.9978 N   0  0  0  0  0  0  0  0  0  0  0  0
   -2.2821    0.7684   -2.3981 H   0  0  0  0  0  0  0  0  0  0  0  0
   -3.3488    1.0473   -0.9492 H   0  0  0  0  0  0  0  0  0  0  0  0
   -3.7184   -0.2394   -2.1349 H   0  0  0  0  0  0  0  0  0  0  0  0
   -1.0123    1.0192   -0.5275 H   0  0  0  0  0  0  0  0  0  0  0  0
   -0.0480   -1.6653   -1.3251 H   0  0  0  0  0  0  0  0  0  0  0  0
    0.5924   -0.0113   -1.7363 H   0  0  0  0  0  0  0  0  0  0  0  0
    3.8644   -0.3261   -0.9496 H   0  0  0  0  0  0  0  0  0  0  0  0
    4.3497    1.2828   -0.3495 H   0  0  0  0  0  0  0  0  0  0  0  0
    3.1584    1.1543   -1.7306 H   0  0  0  0  0  0  0  0  0  0  0  0
    0.8581   -0.7416    2.2178 H   0  0  0  0  0  0  0  0  0  0  0  0
    0.2127   -2.2035    1.3344 H   0  0  0  0  0  0  0  0  0  0  0  0
   -1.7920   -1.0723    1.4314 H   0  0  0  0  0  0  0  0  0  0  0  0
   -1.0282    0.4019    2.9830 H   0  0  0  0  0  0  0  0  0  0  0  0
   -1.8533    1.3430    1.7990 H   0  0  0  0  0  0  0  0  0  0  0  0
  1  2  1  0
  2  3  1  0
  3  4  1  0
  4  5  1  0
  5  6  1  0
  6  7  1  6
  6  8  2  0
  5  9  1  0
  9 10  1  0
 10 11  1  0
 10  3  1  0
  1 12  1  0
  1 13  1  0
  1 14  1  0
  3 15  1  1
  4 16  1  0
  4 17  1  0
  7 18  1  0
  7 19  1  0
  7 20  1  0
  9 21  1  0
  9 22  1  0
 10 23  1  1
 11 24  1  0
 11 25  1  0
M  END
$$$$

     RDKit          3D

 25 25  0  0  0  0  0  0  0  0999 V2000
   -3.4933   -0.5764    0.0336 C   0  0  0  0  0  0  0  0  0  0  0  0
   -2.3202   -0.4585    0.7737 O   0  0  0  0  0  0  0  0  0  0  0  0
   -1.2885   -0.2314   -0.1287 C   0  0  2  0  0  0  0  0  0  0  0  0
   -0.1726   -1.2507    0.0189 C   0  0  0  0  0  0  0  0  0  0  0  0
    0.9788   -0.4150    0.0488 N   0  0  0  0  0  0  0  0  0  0  0  0
    2.4704   -1.1717    0.3714 S   0  0  0  0  0  4  0  0  0  0  0  0
    3.7174    0.1477    0.5255 C   0  0  0  0  0  0  0  0  0  0  0  0
    2.8825   -1.9924   -0.8528 O   0  0  0  0  0  0  0  0  0  0  0  0
    0.5945    0.6031    0.9918 C   0  0  0  0  0  0  0  0  0  0  0  0
   -0.6658    1.1120    0.2743 C   0  0  1  0  0  0  0  0  0  0  0  0
   -0.2175    1.7904   -0.9066 N   0  0  0  0  0  0  0  0  0  0  0  0
   -4.3767   -0.7621    0.6967 H   0  0  0  0  0  0  0  0  0  0  0  0
   -3.7143    0.3098   -0.5698 H   0  0  0  0  0  0  0  0  0  0  0  0
   -3.3965   -1.4434   -0.6240 H   0  0  0  0  0  0  0  0  0  0  0  0
   -1.6311   -0.2009   -1.1625 H   0  0  0  0  0  0  0  0  0  0  0  0
   -0.3097   -1.7841    0.9983 H   0  0  0  0  0  0  0  0  0  0  0  0
   -0.1676   -1.9907   -0.8076 H   0  0  0  0  0  0  0  0  0  0  0  0
    3.5505    0.8515   -0.3238 H   0  0  0  0  0  0  0  0  0  0  0  0
    4.7335   -0.2565    0.5011 H   0  0  0  0  0  0  0  0  0  0  0  0
    3.5140    0.6916    1.4459 H   0  0  0  0  0  0  0  0  0  0  0  0
    0.2081    0.1492    1.9493 H   0  0  0  0  0  0  0  0  0  0  0  0
    1.3278    1.3860    1.1512 H   0  0  0  0  0  0  0  0  0  0  0  0
   -1.3121    1.6892    0.9279 H   0  0  0  0  0  0  0  0  0  0  0  0
   -0.1295    1.1757   -1.7461 H   0  0  0  0  0  0  0  0  0  0  0  0
   -0.7820    2.6278   -1.1618 H   0  0  0  0  0  0  0  0  0  0  0  0
  1  2  1  0
  2  3  1  0
  3  4  1  0
  4  5  1  0
  5  6  1  0
  6  7  1  6
  6  8  2  0
  5  9  1  0
  9 10  1  0
 10 11  1  0
 10  3  1  0
  1 12  1  0
  1 13  1  0
  1 14  1  0
  3 15  1  6
  4 16  1  0
  4 17  1  0
  7 18  1  0
  7 19  1  0
  7 20  1  0
  9 21  1  0
  9 22  1  0
 10 23  1  1
 11 24  1  0
 11 25  1  0
M  END
$$$$

     RDKit          3D

 25 25  0  0  0  0  0  0  0  0999 V2000
   -2.8988    1.7145    0.1748 C   0  0  0  0  0  0  0  0  0  0  0  0
   -2.1245    0.8918   -0.6414 O   0  0  0  0  0  0  0  0  0  0  0  0
   -1.1219    0.2513    0.0433 C   0  0  2  0  0  0  0  0  0  0  0  0
    0.2526    0.6606   -0.4904 C   0  0  0  0  0  0  0  0  0  0  0  0
    1.0113   -0.5573   -0.1629 N   0  0  0  0  0  0  0  0  0  0  0  0
    2.6376   -0.4902   -0.6986 S   0  0  0  0  0  4  0  0  0  0  0  0
    3.5886    0.3651    0.5983 C   0  0  0  0  0  0  0  0  0  0  0  0
    2.7203    0.3912   -1.9430 O   0  0  0  0  0  0  0  0  0  0  0  0
    0.2021   -1.5516   -0.8075 C   0  0  0  0  0  0  0  0  0  0  0  0
   -1.1612   -1.2439   -0.1992 C   0  0  1  0  0  0  0  0  0  0  0  0
   -1.2015   -1.9588    1.0778 N   0  0  0  0  0  0  0  0  0  0  0  0
   -3.6690    2.1789   -0.4643 H   0  0  0  0  0  0  0  0  0  0  0  0
   -2.2974    2.5436    0.6014 H   0  0  0  0  0  0  0  0  0  0  0  0
   -3.3957    1.1769    0.9833 H   0  0  0  0  0  0  0  0  0  0  0  0
   -1.0998    0.4980    1.1277 H   0  0  0  0  0  0  0  0  0  0  0  0
    0.2068    0.6999   -1.5875 H   0  0  0  0  0  0  0  0  0  0  0  0
    0.6463    1.5443   -0.0001 H   0  0  0  0  0  0  0  0  0  0  0  0
    4.5567    0.7267    0.2119 H   0  0  0  0  0  0  0  0  0  0  0  0
    2.9340    1.2365    0.8948 H   0  0  0  0  0  0  0  0  0  0  0  0
    3.6871   -0.2878    1.4936 H   0  0  0  0  0  0  0  0  0  0  0  0
    0.1581   -1.3014   -1.8981 H   0  0  0  0  0  0  0  0  0  0  0  0
    0.5170   -2.5856   -0.6196 H   0  0  0  0  0  0  0  0  0  0  0  0
   -1.9922   -1.5455   -0.8477 H   0  0  0  0  0  0  0  0  0  0  0  0
   -1.9161   -1.4648    1.6713 H   0  0  0  0  0  0  0  0  0  0  0  0
   -0.2402   -1.8924    1.4821 H   0  0  0  0  0  0  0  0  0  0  0  0
  1  2  1  0
  2  3  1  0
  3  4  1  0
  4  5  1  0
  5  6  1  0
  6  7  1  1
  6  8  2  0
  5  9  1  0
  9 10  1  0
 10 11  1  0
 10  3  1  0
  1 12  1  0
  1 13  1  0
  1 14  1  0
  3 15  1  1
  4 16  1  0
  4 17  1  0
  7 18  1  0
  7 19  1  0
  7 20  1  0
  9 21  1  0
  9 22  1  0
 10 23  1  6
 11 24  1  0
 11 25  1  0
M  END
$$$$

     RDKit          3D

 25 25  0  0  0  0  0  0  0  0999 V2000
   -3.3369    1.1216   -0.1383 C   0  0  0  0  0  0  0  0  0  0  0  0
   -2.1179    0.7950   -0.7146 O   0  0  0  0  0  0  0  0  0  0  0  0
   -1.1954    0.3132    0.1877 C   0  0  2  0  0  0  0  0  0  0  0  0
    0.0916    1.1008    0.2135 C   0  0  0  0  0  0  0  0  0  0  0  0
    1.1160    0.1923    0.6296 N   0  0  0  0  0  0  0  0  0  0  0  0
    2.4387    0.1077   -0.5093 S   0  0  0  0  0  4  0  0  0  0  0  0
    3.9626    0.4235    0.4028 C   0  0  0  0  0  0  0  0  0  0  0  0
    2.2657    1.0689   -1.6586 O   0  0  0  0  0  0  0  0  0  0  0  0
    0.5351   -1.1281    0.7157 C   0  0  0  0  0  0  0  0  0  0  0  0
   -0.6476   -1.0351   -0.2436 C   0  0  1  0  0  0  0  0  0  0  0  0
   -1.5793   -2.1031   -0.0696 N   0  0  0  0  0  0  0  0  0  0  0  0
   -3.9974    1.4945   -0.9446 H   0  0  0  0  0  0  0  0  0  0  0  0
   -3.2660    1.7977    0.7127 H   0  0  0  0  0  0  0  0  0  0  0  0
   -3.7696    0.1550    0.2533 H   0  0  0  0  0  0  0  0  0  0  0  0
   -1.5778    0.2649    1.2276 H   0  0  0  0  0  0  0  0  0  0  0  0
    0.0454    1.9765    0.8864 H   0  0  0  0  0  0  0  0  0  0  0  0
    0.3038    1.3903   -0.8471 H   0  0  0  0  0  0  0  0  0  0  0  0
    3.8958    0.0074    1.4290 H   0  0  0  0  0  0  0  0  0  0  0  0
    4.0909    1.5324    0.4173 H   0  0  0  0  0  0  0  0  0  0  0  0
    4.7900   -0.0651   -0.1172 H   0  0  0  0  0  0  0  0  0  0  0  0
    1.2127   -1.9350    0.4145 H   0  0  0  0  0  0  0  0  0  0  0  0
    0.0813   -1.3135    1.7247 H   0  0  0  0  0  0  0  0  0  0  0  0
   -0.2446   -0.9355   -1.2596 H   0  0  0  0  0  0  0  0  0  0  0  0
   -2.0661   -2.2474   -0.9946 H   0  0  0  0  0  0  0  0  0  0  0  0
   -1.0310   -2.9789    0.1109 H   0  0  0  0  0  0  0  0  0  0  0  0
  1  2  1  0
  2  3  1  0
  3  4  1  0
  4  5  1  0
  5  6  1  0
  6  7  1  1
  6  8  2  0
  5  9  1  0
  9 10  1  0
 10 11  1  0
 10  3  1  0
  1 12  1  0
  1 13  1  0
  1 14  1  0
  3 15  1  1
  4 16  1  0
  4 17  1  0
  7 18  1  0
  7 19  1  0
  7 20  1  0
  9 21  1  0
  9 22  1  0
 10 23  1  6
 11 24  1  0
 11 25  1  0
M  END
$$$$

     RDKit          3D

 25 25  0  0  0  0  0  0  0  0999 V2000
   -3.1964   -1.3407    0.0794 C   0  0  0  0  0  0  0  0  0  0  0  0
   -1.9831   -0.8864    0.5838 O   0  0  0  0  0  0  0  0  0  0  0  0
   -1.2972   -0.1128   -0.3524 C   0  0  2  0  0  0  0  0  0  0  0  0
    0.0342   -0.7825   -0.5968 C   0  0  0  0  0  0  0  0  0  0  0  0
    1.0576    0.1747   -0.2403 N   0  0  0  0  0  0  0  0  0  0  0  0
    2.3797   -0.6701    0.5621 S   0  0  0  0  0  4  0  0  0  0  0  0
    3.8859   -0.3463   -0.3819 C   0  0  0  0  0  0  0  0  0  0  0  0
    2.1370   -2.1886    0.4640 O   0  0  0  0  0  0  0  0  0  0  0  0
    0.4551    1.0615    0.7157 C   0  0  0  0  0  0  0  0  0  0  0  0
   -0.9704    1.2213    0.2315 C   0  0  1  0  0  0  0  0  0  0  0  0
   -1.0581    2.2586   -0.7983 N   0  0  0  0  0  0  0  0  0  0  0  0
   -3.6691   -1.9409    0.8833 H   0  0  0  0  0  0  0  0  0  0  0  0
   -3.8405   -0.4560   -0.0944 H   0  0  0  0  0  0  0  0  0  0  0  0
   -3.0236   -1.9268   -0.8526 H   0  0  0  0  0  0  0  0  0  0  0  0
   -1.8739   -0.0280   -1.3027 H   0  0  0  0  0  0  0  0  0  0  0  0
    0.1769   -1.6901    0.0469 H   0  0  0  0  0  0  0  0  0  0  0  0
    0.1434   -1.1376   -1.6382 H   0  0  0  0  0  0  0  0  0  0  0  0
    4.6708   -1.0857   -0.1224 H   0  0  0  0  0  0  0  0  0  0  0  0
    3.6065   -0.4181   -1.4506 H   0  0  0  0  0  0  0  0  0  0  0  0
    4.2242    0.6669   -0.0848 H   0  0  0  0  0  0  0  0  0  0  0  0
    0.9383    2.0418    0.7795 H   0  0  0  0  0  0  0  0  0  0  0  0
    0.4532    0.6213    1.7243 H   0  0  0  0  0  0  0  0  0  0  0  0
   -1.6663    1.4689    1.0348 H   0  0  0  0  0  0  0  0  0  0  0  0
   -0.1768    2.3424   -1.3213 H   0  0  0  0  0  0  0  0  0  0  0  0
   -1.4075    3.1531   -0.4142 H   0  0  0  0  0  0  0  0  0  0  0  0
  1  2  1  0
  2  3  1  0
  3  4  1  0
  4  5  1  0
  5  6  1  0
  6  7  1  6
  6  8  2  0
  5  9  1  0
  9 10  1  0
 10 11  1  0
 10  3  1  0
  1 12  1  0
  1 13  1  0
  1 14  1  0
  3 15  1  6
  4 16  1  0
  4 17  1  0
  7 18  1  0
  7 19  1  0
  7 20  1  0
  9 21  1  0
  9 22  1  0
 10 23  1  1
 11 24  1  0
 11 25  1  0
M  END
$$$$

     RDKit          3D

 25 25  0  0  0  0  0  0  0  0999 V2000
    3.3972   -0.5430    0.9084 C   0  0  0  0  0  0  0  0  0  0  0  0
    2.1982   -1.1643    0.4916 O   0  0  0  0  0  0  0  0  0  0  0  0
    1.2509   -0.1874    0.3854 C   0  0  2  0  0  0  0  0  0  0  0  0
   -0.0260   -0.4845    1.1450 C   0  0  0  0  0  0  0  0  0  0  0  0
   -1.0450    0.3393    0.5521 N   0  0  0  0  0  0  0  0  0  0  0  0
   -2.5244   -0.5120    0.2358 S   0  0  0  0  0  4  0  0  0  0  0  0
   -3.9725    0.4958    0.4796 C   0  0  0  0  0  0  0  0  0  0  0  0
   -2.6002   -1.8576    0.8996 O   0  0  0  0  0  0  0  0  0  0  0  0
   -0.5210    0.8376   -0.7052 C   0  0  0  0  0  0  0  0  0  0  0  0
    0.6679   -0.0781   -1.0305 C   0  0  1  0  0  0  0  0  0  0  0  0
    1.5789    0.5172   -1.9499 N   0  0  0  0  0  0  0  0  0  0  0  0
    3.6658    0.2136    0.1200 H   0  0  0  0  0  0  0  0  0  0  0  0
    3.2159    0.0271    1.8505 H   0  0  0  0  0  0  0  0  0  0  0  0
    4.2083   -1.2632    1.0580 H   0  0  0  0  0  0  0  0  0  0  0  0
    1.6117    0.8306    0.6372 H   0  0  0  0  0  0  0  0  0  0  0  0
   -0.2615   -1.5679    0.9318 H   0  0  0  0  0  0  0  0  0  0  0  0
    0.0803   -0.3298    2.2340 H   0  0  0  0  0  0  0  0  0  0  0  0
   -3.7371    1.5385    0.1964 H   0  0  0  0  0  0  0  0  0  0  0  0
   -4.4036    0.4164    1.4904 H   0  0  0  0  0  0  0  0  0  0  0  0
   -4.7705    0.1048   -0.2162 H   0  0  0  0  0  0  0  0  0  0  0  0
   -0.0543    1.8466   -0.5180 H   0  0  0  0  0  0  0  0  0  0  0  0
   -1.2517    0.8640   -1.5102 H   0  0  0  0  0  0  0  0  0  0  0  0
    0.2281   -1.0334   -1.3568 H   0  0  0  0  0  0  0  0  0  0  0  0
    1.0554    1.2227   -2.5223 H   0  0  0  0  0  0  0  0  0  0  0  0
    2.0092   -0.2330   -2.5481 H   0  0  0  0  0  0  0  0  0  0  0  0
  1  2  1  0
  2  3  1  0
  3  4  1  0
  4  5  1  0
  5  6  1  0
  6  7  1  1
  6  8  2  0
  5  9  1  0
  9 10  1  0
 10 11  1  0
 10  3  1  0
  1 12  1  0
  1 13  1  0
  1 14  1  0
  3 15  1  1
  4 16  1  0
  4 17  1  0
  7 18  1  0
  7 19  1  0
  7 20  1  0
  9 21  1  0
  9 22  1  0
 10 23  1  6
 11 24  1  0
 11 25  1  0
M  END
$$$$

     RDKit          3D

 25 25  0  0  0  0  0  0  0  0999 V2000
    3.3973    1.0245   -0.2584 C   0  0  0  0  0  0  0  0  0  0  0  0
    2.2924    0.8196    0.5802 O   0  0  0  0  0  0  0  0  0  0  0  0
    1.2204    0.2792   -0.1015 C   0  0  2  0  0  0  0  0  0  0  0  0
   -0.0358    1.1046    0.0022 C   0  0  0  0  0  0  0  0  0  0  0  0
   -1.1372    0.2062    0.1307 N   0  0  0  0  0  0  0  0  0  0  0  0
   -2.3327    0.3922   -1.1293 S   0  0  0  0  0  4  0  0  0  0  0  0
   -3.8553    1.0028   -0.3704 C   0  0  0  0  0  0  0  0  0  0  0  0
   -2.6714   -0.9632   -1.7730 O   0  0  0  0  0  0  0  0  0  0  0  0
   -0.6457   -1.1303    0.2284 C   0  0  0  0  0  0  0  0  0  0  0  0
    0.8146   -1.0192    0.5413 C   0  0  1  0  0  0  0  0  0  0  0  0
    1.5049   -2.1587    0.0250 N   0  0  0  0  0  0  0  0  0  0  0  0
    3.7169    0.0428   -0.6969 H   0  0  0  0  0  0  0  0  0  0  0  0
    4.2146    1.4103    0.4084 H   0  0  0  0  0  0  0  0  0  0  0  0
    3.1851    1.7724   -1.0486 H   0  0  0  0  0  0  0  0  0  0  0  0
    1.5279    0.1482   -1.1578 H   0  0  0  0  0  0  0  0  0  0  0  0
   -0.1578    1.6763   -0.9340 H   0  0  0  0  0  0  0  0  0  0  0  0
    0.0227    1.7205    0.9072 H   0  0  0  0  0  0  0  0  0  0  0  0
   -4.2234    0.2992    0.4047 H   0  0  0  0  0  0  0  0  0  0  0  0
   -3.7285    1.9970    0.0661 H   0  0  0  0  0  0  0  0  0  0  0  0
   -4.6530    1.0443   -1.1563 H   0  0  0  0  0  0  0  0  0  0  0  0
   -1.1475   -1.6383    1.0826 H   0  0  0  0  0  0  0  0  0  0  0  0
   -0.7685   -1.7220   -0.7035 H   0  0  0  0  0  0  0  0  0  0  0  0
    0.9387   -0.9850    1.6384 H   0  0  0  0  0  0  0  0  0  0  0  0
    1.2231   -2.3565   -0.9497 H   0  0  0  0  0  0  0  0  0  0  0  0
    1.2981   -2.9669    0.6671 H   0  0  0  0  0  0  0  0  0  0  0  0
  1  2  1  0
  2  3  1  0
  3  4  1  0
  4  5  1  0
  5  6  1  0
  6  7  1  1
  6  8  2  0
  5  9  1  0
  9 10  1  0
 10 11  1  0
 10  3  1  0
  1 12  1  0
  1 13  1  0
  1 14  1  0
  3 15  1  6
  4 16  1  0
  4 17  1  0
  7 18  1  0
  7 19  1  0
  7 20  1  0
  9 21  1  0
  9 22  1  0
 10 23  1  1
 11 24  1  0
 11 25  1  0
M  END
$$$$
