
     RDKit          3D

 25 25  0  0  0  0  0  0  0  0999 V2000
    3.7398    0.5365   -0.0914 C   0  0  0  0  0  0  0  0  0  0  0  0
    2.5793   -0.2634    0.4183 C   0  0  2  0  0  0  0  0  0  0  0  0
    2.2342   -1.5751   -0.2531 C   0  0  0  0  0  0  0  0  0  0  0  0
    1.3892   -0.4149   -0.5408 C   0  0  1  0  0  0  0  0  0  0  0  0
    0.1199   -0.1691    0.0873 N   0  0  0  0  0  0  0  0  0  0  0  0
   -0.9074    0.6040   -0.5182 C   0  0  0  0  0  0  0  0  0  0  0  0
   -0.6753    1.0823   -1.6482 O   0  0  0  0  0  0  0  0  0  0  0  0
   -2.1684    0.7922    0.2145 C   0  0  1  0  0  0  0  0  0  0  0  0
   -3.0386    1.6123   -0.6189 N   0  0  0  0  0  0  0  0  0  0  0  0
   -2.8226   -0.5276    0.5574 C   0  0  0  0  0  0  0  0  0  0  0  0
   -3.1228   -1.2667   -0.5770 O   0  0  0  0  0  0  0  0  0  0  0  0
    4.5513   -0.1558   -0.4189 H   0  0  0  0  0  0  0  0  0  0  0  0
    3.3899    1.1573   -0.9565 H   0  0  0  0  0  0  0  0  0  0  0  0
    4.1006    1.2468    0.6667 H   0  0  0  0  0  0  0  0  0  0  0  0
    2.3703   -0.1467    1.4934 H   0  0  0  0  0  0  0  0  0  0  0  0
    2.9632   -1.8713   -1.0362 H   0  0  0  0  0  0  0  0  0  0  0  0
    1.9163   -2.4315    0.3650 H   0  0  0  0  0  0  0  0  0  0  0  0
    1.4827    0.0603   -1.5439 H   0  0  0  0  0  0  0  0  0  0  0  0
   -0.0229   -0.5983    1.0442 H   0  0  0  0  0  0  0  0  0  0  0  0
   -1.9770    1.3593    1.1393 H   0  0  0  0  0  0  0  0  0  0  0  0
   -2.7138    1.6475   -1.6039 H   0  0  0  0  0  0  0  0  0  0  0  0
   -4.0352    1.3622   -0.5068 H   0  0  0  0  0  0  0  0  0  0  0  0
   -3.7413   -0.3141    1.1473 H   0  0  0  0  0  0  0  0  0  0  0  0
   -2.1398   -1.0671    1.2370 H   0  0  0  0  0  0  0  0  0  0  0  0
   -3.4716   -0.6591   -1.2601 H   0  0  0  0  0  0  0  0  0  0  0  0
  1  2  1  0
  2  3  1  0
  3  4  1  0
  4  5  1  0
  5  6  1  0
  6  7  2  0
  6  8  1  0
  8  9  1  0
  8 10  1  0
 10 11  1  0
  4  2  1  0
  1 12  1  0
  1 13  1  0
  1 14  1  0
  2 15  1  1
  3 16  1  0
  3 17  1  0
  4 18  1  6
  5 19  1  0
  8 20  1  1
  9 21  1  0
  9 22  1  0
 10 23  1  0
 10 24  1  0
 11 25  1  0
M  END
$$$$

     RDKit          3D

 25 25  0  0  0  0  0  0  0  0999 V2000
    3.5223    0.9827    0.8420 C   0  0  0  0  0  0  0  0  0  0  0  0
    2.5848   -0.1368    0.4651 C   0  0  2  0  0  0  0  0  0  0  0  0
    2.4327   -0.5866   -0.9314 C   0  0  0  0  0  0  0  0  0  0  0  0
    1.3889    0.2970   -0.3680 C   0  0  1  0  0  0  0  0  0  0  0  0
    0.1239   -0.2394    0.0887 N   0  0  0  0  0  0  0  0  0  0  0  0
   -1.0926    0.4667    0.0312 C   0  0  0  0  0  0  0  0  0  0  0  0
   -1.0639    1.6395   -0.4510 O   0  0  0  0  0  0  0  0  0  0  0  0
   -2.3587   -0.1446    0.5187 C   0  0  1  0  0  0  0  0  0  0  0  0
   -3.4384    0.7943    0.3410 N   0  0  0  0  0  0  0  0  0  0  0  0
   -2.6121   -1.4046   -0.2940 C   0  0  0  0  0  0  0  0  0  0  0  0
   -2.7071   -1.0663   -1.6408 O   0  0  0  0  0  0  0  0  0  0  0  0
    2.9359    1.8351    1.2727 H   0  0  0  0  0  0  0  0  0  0  0  0
    4.0939    1.2796   -0.0480 H   0  0  0  0  0  0  0  0  0  0  0  0
    4.2406    0.6525    1.6387 H   0  0  0  0  0  0  0  0  0  0  0  0
    2.4099   -0.8575    1.2962 H   0  0  0  0  0  0  0  0  0  0  0  0
    3.0846   -0.1937   -1.7385 H   0  0  0  0  0  0  0  0  0  0  0  0
    2.1275   -1.6398   -1.1161 H   0  0  0  0  0  0  0  0  0  0  0  0
    1.3503    1.3169   -0.7755 H   0  0  0  0  0  0  0  0  0  0  0  0
    0.1249   -1.2115    0.4838 H   0  0  0  0  0  0  0  0  0  0  0  0
   -2.2368   -0.4269    1.5761 H   0  0  0  0  0  0  0  0  0  0  0  0
   -3.1666    1.4431   -0.4203 H   0  0  0  0  0  0  0  0  0  0  0  0
   -3.6727    1.3175    1.1908 H   0  0  0  0  0  0  0  0  0  0  0  0
   -1.8461   -2.1664   -0.1165 H   0  0  0  0  0  0  0  0  0  0  0  0
   -3.5882   -1.8570    0.0114 H   0  0  0  0  0  0  0  0  0  0  0  0
   -2.6372   -0.0937   -1.7762 H   0  0  0  0  0  0  0  0  0  0  0  0
  1  2  1  0
  2  3  1  0
  3  4  1  0
  4  5  1  0
  5  6  1  0
  6  7  2  0
  6  8  1  0
  8  9  1  0
  8 10  1  0
 10 11  1  0
  4  2  1  0
  1 12  1  0
  1 13  1  0
  1 14  1  0
  2 15  1  1
  3 16  1  0
  3 17  1  0
  4 18  1  6
  5 19  1  0
  8 20  1  1
  9 21  1  0
  9 22  1  0
 10 23  1  0
 10 24  1  0
 11 25  1  0
M  END
$$$$

     RDKit          3D

 25 25  0  0  0  0  0  0  0  0999 V2000
    3.7755   -0.3292    0.2290 C   0  0  0  0  0  0  0  0  0  0  0  0
    2.4478   -0.8448    0.7005 C   0  0  2  0  0  0  0  0  0  0  0  0
    1.8465   -2.0789    0.1816 C   0  0  0  0  0  0  0  0  0  0  0  0
    1.3463   -0.7844   -0.3773 C   0  0  1  0  0  0  0  0  0  0  0  0
    0.1077   -0.2156    0.1048 N   0  0  0  0  0  0  0  0  0  0  0  0
   -0.7347    0.6048   -0.6916 C   0  0  0  0  0  0  0  0  0  0  0  0
   -0.3355    0.8202   -1.8815 O   0  0  0  0  0  0  0  0  0  0  0  0
   -2.0046    1.1816   -0.1806 C   0  0  1  0  0  0  0  0  0  0  0  0
   -2.5957    1.9554   -1.2542 N   0  0  0  0  0  0  0  0  0  0  0  0
   -2.9314    0.0879    0.3017 C   0  0  0  0  0  0  0  0  0  0  0  0
   -4.1133    0.7038    0.7685 O   0  0  0  0  0  0  0  0  0  0  0  0
    3.8571    0.7371    0.5808 H   0  0  0  0  0  0  0  0  0  0  0  0
    3.8193   -0.2480   -0.8917 H   0  0  0  0  0  0  0  0  0  0  0  0
    4.6389   -0.8571    0.6475 H   0  0  0  0  0  0  0  0  0  0  0  0
    2.1825   -0.5486    1.7258 H   0  0  0  0  0  0  0  0  0  0  0  0
    1.1770   -2.6669    0.8685 H   0  0  0  0  0  0  0  0  0  0  0  0
    2.4578   -2.7411   -0.4772 H   0  0  0  0  0  0  0  0  0  0  0  0
    1.6647   -0.5774   -1.4176 H   0  0  0  0  0  0  0  0  0  0  0  0
   -0.2042   -0.4023    1.0818 H   0  0  0  0  0  0  0  0  0  0  0  0
   -1.7652    1.8494    0.6857 H   0  0  0  0  0  0  0  0  0  0  0  0
   -1.9679    2.8061   -1.3662 H   0  0  0  0  0  0  0  0  0  0  0  0
   -2.4728    1.4065   -2.1343 H   0  0  0  0  0  0  0  0  0  0  0  0
   -2.4150   -0.4409    1.1260 H   0  0  0  0  0  0  0  0  0  0  0  0
   -3.1988   -0.5743   -0.5466 H   0  0  0  0  0  0  0  0  0  0  0  0
   -4.5820    1.1566    0.0472 H   0  0  0  0  0  0  0  0  0  0  0  0
  1  2  1  0
  2  3  1  0
  3  4  1  0
  4  5  1  0
  5  6  1  0
  6  7  2  0
  6  8  1  0
  8  9  1  0
  8 10  1  0
 10 11  1  0
  4  2  1  0
  1 12  1  0
  1 13  1  0
  1 14  1  0
  2 15  1  1
  3 16  1  0
  3 17  1  0
  4 18  1  6
  5 19  1  0
  8 20  1  1
  9 21  1  0
  9 22  1  0
 10 23  1  0
 10 24  1  0
 11 25  1  0
M  END
$$$$

     RDKit          3D

 25 25  0  0  0  0  0  0  0  0999 V2000
   -3.7017   -0.2859    0.7832 C   0  0  0  0  0  0  0  0  0  0  0  0
   -2.4676    0.5343    0.4827 C   0  0  2  0  0  0  0  0  0  0  0  0
   -2.4295    1.1215   -0.8961 C   0  0  0  0  0  0  0  0  0  0  0  0
   -1.4650    0.0608   -0.5127 C   0  0  1  0  0  0  0  0  0  0  0  0
   -0.0631    0.3831   -0.3313 N   0  0  0  0  0  0  0  0  0  0  0  0
    0.9426   -0.5239   -0.7002 C   0  0  0  0  0  0  0  0  0  0  0  0
    0.6078   -1.6211   -1.1908 O   0  0  0  0  0  0  0  0  0  0  0  0
    2.3681   -0.2014   -0.5180 C   0  0  1  0  0  0  0  0  0  0  0  0
    2.5809    1.0918    0.0554 N   0  0  0  0  0  0  0  0  0  0  0  0
    3.0856   -1.2957    0.2728 C   0  0  0  0  0  0  0  0  0  0  0  0
    2.6188   -1.3291    1.5939 O   0  0  0  0  0  0  0  0  0  0  0  0
   -4.2205   -0.6118   -0.1375 H   0  0  0  0  0  0  0  0  0  0  0  0
   -3.5261   -1.1021    1.4912 H   0  0  0  0  0  0  0  0  0  0  0  0
   -4.4190    0.4236    1.2905 H   0  0  0  0  0  0  0  0  0  0  0  0
   -2.0891    1.1612    1.3150 H   0  0  0  0  0  0  0  0  0  0  0  0
   -2.1383    2.1888   -0.9545 H   0  0  0  0  0  0  0  0  0  0  0  0
   -3.2471    0.8665   -1.6277 H   0  0  0  0  0  0  0  0  0  0  0  0
   -1.6694   -0.9362   -0.9553 H   0  0  0  0  0  0  0  0  0  0  0  0
    0.1760    1.3150    0.0841 H   0  0  0  0  0  0  0  0  0  0  0  0
    2.8365   -0.2030   -1.5267 H   0  0  0  0  0  0  0  0  0  0  0  0
    3.4848    1.1608    0.5797 H   0  0  0  0  0  0  0  0  0  0  0  0
    2.5885    1.8534   -0.6793 H   0  0  0  0  0  0  0  0  0  0  0  0
    2.8564   -2.2927   -0.1542 H   0  0  0  0  0  0  0  0  0  0  0  0
    4.1782   -1.1445    0.2123 H   0  0  0  0  0  0  0  0  0  0  0  0
    3.1121   -0.6136    2.0732 H   0  0  0  0  0  0  0  0  0  0  0  0
  1  2  1  0
  2  3  1  0
  3  4  1  0
  4  5  1  0
  5  6  1  0
  6  7  2  0
  6  8  1  0
  8  9  1  0
  8 10  1  0
 10 11  1  0
  4  2  1  0
  1 12  1  0
  1 13  1  0
  1 14  1  0
  2 15  1  1
  3 16  1  0
  3 17  1  0
  4 18  1  6
  5 19  1  0
  8 20  1  6
  9 21  1  0
  9 22  1  0
 10 23  1  0
 10 24  1  0
 11 25  1  0
M  END
$$$$

     RDKit          3D

 25 25  0  0  0  0  0  0  0  0999 V2000
    3.8373    0.7505   -1.0528 C   0  0  0  0  0  0  0  0  0  0  0  0
    2.5540    1.0307   -0.2971 C   0  0  2  0  0  0  0  0  0  0  0  0
    2.4466    0.2769    1.0087 C   0  0  0  0  0  0  0  0  0  0  0  0
    1.5452   -0.0710   -0.1833 C   0  0  1  0  0  0  0  0  0  0  0  0
    0.1556    0.2369    0.0201 N   0  0  0  0  0  0  0  0  0  0  0  0
   -0.9154   -0.6037   -0.4233 C   0  0  0  0  0  0  0  0  0  0  0  0
   -0.5662   -1.6571   -1.0180 O   0  0  0  0  0  0  0  0  0  0  0  0
   -2.3303   -0.2852   -0.2134 C   0  0  1  0  0  0  0  0  0  0  0  0
   -3.1398   -1.3369   -0.7809 N   0  0  0  0  0  0  0  0  0  0  0  0
   -2.6744   -0.0354    1.2348 C   0  0  0  0  0  0  0  0  0  0  0  0
   -4.0291    0.3367    1.2809 O   0  0  0  0  0  0  0  0  0  0  0  0
    3.6653    0.7517   -2.1657 H   0  0  0  0  0  0  0  0  0  0  0  0
    4.2242   -0.2751   -0.8255 H   0  0  0  0  0  0  0  0  0  0  0  0
    4.6341    1.4550   -0.7570 H   0  0  0  0  0  0  0  0  0  0  0  0
    2.2276    2.0840   -0.3433 H   0  0  0  0  0  0  0  0  0  0  0  0
    3.2269   -0.4467    1.2965 H   0  0  0  0  0  0  0  0  0  0  0  0
    2.0170    0.8638    1.8320 H   0  0  0  0  0  0  0  0  0  0  0  0
    1.8187   -0.9954   -0.7030 H   0  0  0  0  0  0  0  0  0  0  0  0
   -0.1270    1.1110    0.5134 H   0  0  0  0  0  0  0  0  0  0  0  0
   -2.6015    0.6582   -0.7624 H   0  0  0  0  0  0  0  0  0  0  0  0
   -4.1234   -1.3176   -0.4405 H   0  0  0  0  0  0  0  0  0  0  0  0
   -2.6806   -2.2516   -0.5198 H   0  0  0  0  0  0  0  0  0  0  0  0
   -2.0924    0.8579    1.5568 H   0  0  0  0  0  0  0  0  0  0  0  0
   -2.5385   -0.8995    1.8829 H   0  0  0  0  0  0  0  0  0  0  0  0
   -4.5339   -0.2383    1.9202 H   0  0  0  0  0  0  0  0  0  0  0  0
  1  2  1  0
  2  3  1  0
  3  4  1  0
  4  5  1  0
  5  6  1  0
  6  7  2  0
  6  8  1  0
  8  9  1  0
  8 10  1  0
 10 11  1  0
  4  2  1  0
  1 12  1  0
  1 13  1  0
  1 14  1  0
  2 15  1  1
  3 16  1  0
  3 17  1  0
  4 18  1  6
  5 19  1  0
  8 20  1  6
  9 21  1  0
  9 22  1  0
 10 23  1  0
 10 24  1  0
 11 25  1  0
M  END
$$$$

     RDKit          3D

 25 25  0  0  0  0  0  0  0  0999 V2000
    3.7124   -0.1307    0.5967 C   0  0  0  0  0  0  0  0  0  0  0  0
    2.6458   -0.5580   -0.3514 C   0  0  2  0  0  0  0  0  0  0  0  0
    2.3206    0.1434   -1.5880 C   0  0  0  0  0  0  0  0  0  0  0  0
    1.4342    0.4163   -0.4306 C   0  0  1  0  0  0  0  0  0  0  0  0
    0.1617   -0.2238   -0.2862 N   0  0  0  0  0  0  0  0  0  0  0  0
   -0.8713    0.4256    0.4510 C   0  0  0  0  0  0  0  0  0  0  0  0
   -0.6151    1.5619    0.9561 O   0  0  0  0  0  0  0  0  0  0  0  0
   -2.2101   -0.1914    0.6328 C   0  0  1  0  0  0  0  0  0  0  0  0
   -3.0133    0.7203    1.4217 N   0  0  0  0  0  0  0  0  0  0  0  0
   -2.8513   -0.3417   -0.7382 C   0  0  0  0  0  0  0  0  0  0  0  0
   -4.1408   -0.8474   -0.6138 O   0  0  0  0  0  0  0  0  0  0  0  0
    3.5625   -0.7125    1.5518 H   0  0  0  0  0  0  0  0  0  0  0  0
    4.7371   -0.2920    0.2595 H   0  0  0  0  0  0  0  0  0  0  0  0
    3.5769    0.9440    0.9094 H   0  0  0  0  0  0  0  0  0  0  0  0
    2.4032   -1.6412   -0.3136 H   0  0  0  0  0  0  0  0  0  0  0  0
    1.8678   -0.4432   -2.4262 H   0  0  0  0  0  0  0  0  0  0  0  0
    2.9730    0.9684   -1.9736 H   0  0  0  0  0  0  0  0  0  0  0  0
    1.5824    1.4102    0.0401 H   0  0  0  0  0  0  0  0  0  0  0  0
   -0.0718   -1.1526   -0.6900 H   0  0  0  0  0  0  0  0  0  0  0  0
   -2.0809   -1.1732    1.1297 H   0  0  0  0  0  0  0  0  0  0  0  0
   -2.7704    1.7079    1.1831 H   0  0  0  0  0  0  0  0  0  0  0  0
   -2.8250    0.6050    2.4526 H   0  0  0  0  0  0  0  0  0  0  0  0
   -2.9311    0.6962   -1.1530 H   0  0  0  0  0  0  0  0  0  0  0  0
   -2.1959   -0.9883   -1.3555 H   0  0  0  0  0  0  0  0  0  0  0  0
   -4.4007   -0.9031    0.3355 H   0  0  0  0  0  0  0  0  0  0  0  0
  1  2  1  0
  2  3  1  0
  3  4  1  0
  4  5  1  0
  5  6  1  0
  6  7  2  0
  6  8  1  0
  8  9  1  0
  8 10  1  0
 10 11  1  0
  4  2  1  0
  1 12  1  0
  1 13  1  0
  1 14  1  0
  2 15  1  6
  3 16  1  0
  3 17  1  0
  4 18  1  1
  5 19  1  0
  8 20  1  1
  9 21  1  0
  9 22  1  0
 10 23  1  0
 10 24  1  0
 11 25  1  0
M  END
$$$$

     RDKit          3D

 25 25  0  0  0  0  0  0  0  0999 V2000
    3.6457    0.6019   -0.7806 C   0  0  0  0  0  0  0  0  0  0  0  0
    2.4891    0.7549    0.1459 C   0  0  2  0  0  0  0  0  0  0  0  0
    2.2686   -0.1525    1.2949 C   0  0  0  0  0  0  0  0  0  0  0  0
    1.4726   -0.3735    0.0811 C   0  0  1  0  0  0  0  0  0  0  0  0
    0.1146    0.0818   -0.0500 N   0  0  0  0  0  0  0  0  0  0  0  0
   -0.8522   -0.5385   -0.8885 C   0  0  0  0  0  0  0  0  0  0  0  0
   -0.4333   -1.5547   -1.5389 O   0  0  0  0  0  0  0  0  0  0  0  0
   -2.2399   -0.0676   -1.0181 C   0  0  1  0  0  0  0  0  0  0  0  0
   -2.9510   -0.9120   -1.9412 N   0  0  0  0  0  0  0  0  0  0  0  0
   -2.9875   -0.1121    0.3038 C   0  0  0  0  0  0  0  0  0  0  0  0
   -2.3758    0.6796    1.2751 O   0  0  0  0  0  0  0  0  0  0  0  0
    4.6326    0.6907   -0.2798 H   0  0  0  0  0  0  0  0  0  0  0  0
    3.6051    1.4334   -1.5254 H   0  0  0  0  0  0  0  0  0  0  0  0
    3.5779   -0.3331   -1.3887 H   0  0  0  0  0  0  0  0  0  0  0  0
    2.1167    1.7911    0.2853 H   0  0  0  0  0  0  0  0  0  0  0  0
    3.0551   -0.9160    1.5280 H   0  0  0  0  0  0  0  0  0  0  0  0
    1.8228    0.2684    2.2288 H   0  0  0  0  0  0  0  0  0  0  0  0
    1.7078   -1.2609   -0.5339 H   0  0  0  0  0  0  0  0  0  0  0  0
   -0.1728    0.9171    0.5052 H   0  0  0  0  0  0  0  0  0  0  0  0
   -2.3222    0.9771   -1.3912 H   0  0  0  0  0  0  0  0  0  0  0  0
   -3.9822   -0.8553   -1.8607 H   0  0  0  0  0  0  0  0  0  0  0  0
   -2.5769   -1.8700   -1.9561 H   0  0  0  0  0  0  0  0  0  0  0  0
   -4.0159    0.2850    0.0781 H   0  0  0  0  0  0  0  0  0  0  0  0
   -3.1357   -1.1520    0.6618 H   0  0  0  0  0  0  0  0  0  0  0  0
   -2.4633    1.6173    0.9842 H   0  0  0  0  0  0  0  0  0  0  0  0
  1  2  1  0
  2  3  1  0
  3  4  1  0
  4  5  1  0
  5  6  1  0
  6  7  2  0
  6  8  1  0
  8  9  1  0
  8 10  1  0
 10 11  1  0
  4  2  1  0
  1 12  1  0
  1 13  1  0
  1 14  1  0
  2 15  1  1
  3 16  1  0
  3 17  1  0
  4 18  1  6
  5 19  1  0
  8 20  1  6
  9 21  1  0
  9 22  1  0
 10 23  1  0
 10 24  1  0
 11 25  1  0
M  END
$$$$

     RDKit          3D

 25 25  0  0  0  0  0  0  0  0999 V2000
    3.5904    0.7006   -1.0269 C   0  0  0  0  0  0  0  0  0  0  0  0
    2.4660    0.8380   -0.0214 C   0  0  2  0  0  0  0  0  0  0  0  0
    2.4905   -0.0215    1.1661 C   0  0  0  0  0  0  0  0  0  0  0  0
    1.5053   -0.3401    0.1165 C   0  0  1  0  0  0  0  0  0  0  0  0
    0.1247    0.0385    0.2217 N   0  0  0  0  0  0  0  0  0  0  0  0
   -0.9258   -0.5764   -0.4921 C   0  0  0  0  0  0  0  0  0  0  0  0
   -0.6256   -1.5168   -1.2701 O   0  0  0  0  0  0  0  0  0  0  0  0
   -2.3514   -0.1915   -0.3883 C   0  0  1  0  0  0  0  0  0  0  0  0
   -3.1324   -1.0187   -1.2870 N   0  0  0  0  0  0  0  0  0  0  0  0
   -2.8843   -0.3716    1.0187 C   0  0  0  0  0  0  0  0  0  0  0  0
   -2.1562    0.4077    1.8884 O   0  0  0  0  0  0  0  0  0  0  0  0
    3.9521    1.6750   -1.3793 H   0  0  0  0  0  0  0  0  0  0  0  0
    3.1735    0.1807   -1.9386 H   0  0  0  0  0  0  0  0  0  0  0  0
    4.3778    0.0727   -0.5718 H   0  0  0  0  0  0  0  0  0  0  0  0
    2.0445    1.8681    0.1258 H   0  0  0  0  0  0  0  0  0  0  0  0
    3.3297   -0.7462    1.2939 H   0  0  0  0  0  0  0  0  0  0  0  0
    2.0872    0.3202    2.1504 H   0  0  0  0  0  0  0  0  0  0  0  0
    1.6946   -1.1696   -0.5826 H   0  0  0  0  0  0  0  0  0  0  0  0
   -0.1048    0.8213    0.8704 H   0  0  0  0  0  0  0  0  0  0  0  0
   -2.4407    0.8764   -0.7027 H   0  0  0  0  0  0  0  0  0  0  0  0
   -2.9478   -0.7665   -2.2677 H   0  0  0  0  0  0  0  0  0  0  0  0
   -4.1357   -1.0008   -1.0342 H   0  0  0  0  0  0  0  0  0  0  0  0
   -3.9433   -0.0362    1.0336 H   0  0  0  0  0  0  0  0  0  0  0  0
   -2.8733   -1.4151    1.3281 H   0  0  0  0  0  0  0  0  0  0  0  0
   -2.3152    1.3720    1.7491 H   0  0  0  0  0  0  0  0  0  0  0  0
  1  2  1  0
  2  3  1  0
  3  4  1  0
  4  5  1  0
  5  6  1  0
  6  7  2  0
  6  8  1  0
  8  9  1  0
  8 10  1  0
 10 11  1  0
  4  2  1  0
  1 12  1  0
  1 13  1  0
  1 14  1  0
  2 15  1  1
  3 16  1  0
  3 17  1  0
  4 18  1  6
  5 19  1  0
  8 20  1  6
  9 21  1  0
  9 22  1  0
 10 23  1  0
 10 24  1  0
 11 25  1  0
M  END
$$$$
