
     RDKit          3D

 26 26  0  0  0  0  0  0  0  0999 V2000
    3.6741    1.0822   -0.7179 N   0  0  0  0  0  0  0  0  0  0  0  0
    3.2680   -0.2072   -0.2943 C   0  0  0  0  0  0  0  0  0  0  0  0
    1.8284   -0.3736    0.0091 C   0  0  1  0  0  0  0  0  0  0  0  0
    1.2507    0.4877    1.0931 C   0  0  0  0  0  0  0  0  0  0  0  0
   -0.0641    0.4246    0.2998 C   0  0  2  0  0  0  0  0  0  0  0  0
   -0.9181   -1.0893    0.6903 S   0  0  0  0  0  4  0  0  0  0  0  0
   -1.1433   -1.2613    2.1742 O   0  0  0  0  0  0  0  0  0  0  0  0
   -2.4473   -1.1649   -0.2310 C   0  0  0  0  0  0  0  0  0  0  0  0
   -3.3319   -0.0142    0.1099 C   0  0  0  0  0  0  0  0  0  0  0  0
   -4.5905    0.0593   -0.5490 N   0  0  0  0  0  0  0  0  0  0  0  0
   -2.9939    0.8711    0.9490 O   0  0  0  0  0  0  0  0  0  0  0  0
    0.8297    0.2043   -0.9307 C   0  0  0  0  0  0  0  0  0  0  0  0
    2.9399    1.7519   -0.9501 H   0  0  0  0  0  0  0  0  0  0  0  0
    4.4014    1.5201   -0.0774 H   0  0  0  0  0  0  0  0  0  0  0  0
    3.8455   -0.4534    0.6445 H   0  0  0  0  0  0  0  0  0  0  0  0
    3.5755   -0.9515   -1.0349 H   0  0  0  0  0  0  0  0  0  0  0  0
    1.5910   -1.4436    0.2141 H   0  0  0  0  0  0  0  0  0  0  0  0
    1.2085    0.0226    2.0785 H   0  0  0  0  0  0  0  0  0  0  0  0
    1.6009    1.5460    1.0725 H   0  0  0  0  0  0  0  0  0  0  0  0
   -0.6402    1.3438    0.2919 H   0  0  0  0  0  0  0  0  0  0  0  0
   -2.1728   -1.0407   -1.3173 H   0  0  0  0  0  0  0  0  0  0  0  0
   -2.9596   -2.1283   -0.1542 H   0  0  0  0  0  0  0  0  0  0  0  0
   -5.0750   -0.8243   -0.8700 H   0  0  0  0  0  0  0  0  0  0  0  0
   -5.0749    0.9745   -0.7372 H   0  0  0  0  0  0  0  0  0  0  0  0
    0.3563   -0.4943   -1.6481 H   0  0  0  0  0  0  0  0  0  0  0  0
    1.0418    1.1586   -1.4031 H   0  0  0  0  0  0  0  0  0  0  0  0
  1  2  1  0
  2  3  1  0
  3  4  1  0
  4  5  1  0
  5  6  1  0
  6  7  2  0
  6  8  1  6
  8  9  1  0
  9 10  1  0
  9 11  2  0
  5 12  1  0
 12  3  1  0
  1 13  1  0
  1 14  1  0
  2 15  1  0
  2 16  1  0
  3 17  1  1
  4 18  1  0
  4 19  1  0
  5 20  1  6
  8 21  1  0
  8 22  1  0
 10 23  1  0
 10 24  1  0
 12 25  1  0
 12 26  1  0
M  END
$$$$

     RDKit          3D

 26 26  0  0  0  0  0  0  0  0999 V2000
    2.5812    1.9063   -0.9192 N   0  0  0  0  0  0  0  0  0  0  0  0
    2.6925    0.4850   -0.6721 C   0  0  0  0  0  0  0  0  0  0  0  0
    1.8804    0.1006    0.5180 C   0  0  1  0  0  0  0  0  0  0  0  0
    0.3939    0.4359    0.3022 C   0  0  0  0  0  0  0  0  0  0  0  0
    0.2077   -0.9383   -0.3002 C   0  0  2  0  0  0  0  0  0  0  0  0
   -1.3109   -1.7018    0.0034 S   0  0  0  0  0  4  0  0  0  0  0  0
   -1.3612   -2.7528    1.0634 O   0  0  0  0  0  0  0  0  0  0  0  0
   -2.7986   -1.0172   -0.5321 C   0  0  0  0  0  0  0  0  0  0  0  0
   -3.2357    0.2979   -0.0793 C   0  0  0  0  0  0  0  0  0  0  0  0
   -2.5937    1.1478    0.8372 N   0  0  0  0  0  0  0  0  0  0  0  0
   -4.3407    0.7814   -0.5481 O   0  0  0  0  0  0  0  0  0  0  0  0
    1.4106   -1.3595    0.5620 C   0  0  0  0  0  0  0  0  0  0  0  0
    3.4935    2.3633   -0.7637 H   0  0  0  0  0  0  0  0  0  0  0  0
    1.8569    2.3590   -0.3428 H   0  0  0  0  0  0  0  0  0  0  0  0
    2.3584   -0.0770   -1.5734 H   0  0  0  0  0  0  0  0  0  0  0  0
    3.7756    0.2554   -0.5465 H   0  0  0  0  0  0  0  0  0  0  0  0
    2.2924    0.4467    1.4643 H   0  0  0  0  0  0  0  0  0  0  0  0
   -0.0683    0.5742    1.3047 H   0  0  0  0  0  0  0  0  0  0  0  0
    0.1780    1.2169   -0.4132 H   0  0  0  0  0  0  0  0  0  0  0  0
    0.5680   -0.9846   -1.3742 H   0  0  0  0  0  0  0  0  0  0  0  0
   -2.8749   -1.0456   -1.6741 H   0  0  0  0  0  0  0  0  0  0  0  0
   -3.6408   -1.7424   -0.2419 H   0  0  0  0  0  0  0  0  0  0  0  0
   -2.5062    0.8554    1.8340 H   0  0  0  0  0  0  0  0  0  0  0  0
   -2.1996    2.0681    0.5459 H   0  0  0  0  0  0  0  0  0  0  0  0
    2.1080   -2.0343    0.0682 H   0  0  0  0  0  0  0  0  0  0  0  0
    1.1333   -1.6402    1.5942 H   0  0  0  0  0  0  0  0  0  0  0  0
  1  2  1  0
  2  3  1  0
  3  4  1  0
  4  5  1  0
  5  6  1  0
  6  7  2  0
  6  8  1  1
  8  9  1  0
  9 10  1  0
  9 11  2  0
  5 12  1  0
 12  3  1  0
  1 13  1  0
  1 14  1  0
  2 15  1  0
  2 16  1  0
  3 17  1  1
  4 18  1  0
  4 19  1  0
  5 20  1  6
  8 21  1  0
  8 22  1  0
 10 23  1  0
 10 24  1  0
 12 25  1  0
 12 26  1  0
M  END
$$$$

     RDKit          3D

 26 26  0  0  0  0  0  0  0  0999 V2000
   -3.6586    1.0314    0.3537 N   0  0  0  0  0  0  0  0  0  0  0  0
   -3.1904   -0.3362    0.5626 C   0  0  0  0  0  0  0  0  0  0  0  0
   -2.0836   -0.6661   -0.4170 C   0  0  1  0  0  0  0  0  0  0  0  0
   -0.9272    0.2954   -0.2076 C   0  0  0  0  0  0  0  0  0  0  0  0
   -0.2193   -0.8085    0.5539 C   0  0  2  0  0  0  0  0  0  0  0  0
    1.4567   -1.0354   -0.0347 S   0  0  0  0  0  4  0  0  0  0  0  0
    1.5190   -1.5561   -1.4412 O   0  0  0  0  0  0  0  0  0  0  0  0
    2.3449    0.4940    0.1947 C   0  0  0  0  0  0  0  0  0  0  0  0
    3.7363    0.4320   -0.2524 C   0  0  0  0  0  0  0  0  0  0  0  0
    4.5638    1.5640   -0.1351 N   0  0  0  0  0  0  0  0  0  0  0  0
    4.2120   -0.6189   -0.7428 O   0  0  0  0  0  0  0  0  0  0  0  0
   -1.2221   -1.8072    0.0824 C   0  0  0  0  0  0  0  0  0  0  0  0
   -3.5392    1.2788   -0.6680 H   0  0  0  0  0  0  0  0  0  0  0  0
   -3.0721    1.7013    0.9084 H   0  0  0  0  0  0  0  0  0  0  0  0
   -4.0295   -1.0455    0.4093 H   0  0  0  0  0  0  0  0  0  0  0  0
   -2.8028   -0.3952    1.6016 H   0  0  0  0  0  0  0  0  0  0  0  0
   -2.4400   -0.7533   -1.4443 H   0  0  0  0  0  0  0  0  0  0  0  0
   -0.4288    0.5642   -1.1549 H   0  0  0  0  0  0  0  0  0  0  0  0
   -1.1429    1.1455    0.4623 H   0  0  0  0  0  0  0  0  0  0  0  0
   -0.2170   -0.6702    1.6554 H   0  0  0  0  0  0  0  0  0  0  0  0
    2.2822    0.7457    1.2878 H   0  0  0  0  0  0  0  0  0  0  0  0
    1.7919    1.3364   -0.3135 H   0  0  0  0  0  0  0  0  0  0  0  0
    5.4639    1.4959    0.3618 H   0  0  0  0  0  0  0  0  0  0  0  0
    4.2689    2.4612   -0.5464 H   0  0  0  0  0  0  0  0  0  0  0  0
   -1.7332   -2.3878    0.8813 H   0  0  0  0  0  0  0  0  0  0  0  0
   -0.9330   -2.4656   -0.7483 H   0  0  0  0  0  0  0  0  0  0  0  0
  1  2  1  0
  2  3  1  0
  3  4  1  0
  4  5  1  0
  5  6  1  0
  6  7  2  0
  6  8  1  6
  8  9  1  0
  9 10  1  0
  9 11  2  0
  5 12  1  0
 12  3  1  0
  1 13  1  0
  1 14  1  0
  2 15  1  0
  2 16  1  0
  3 17  1  6
  4 18  1  0
  4 19  1  0
  5 20  1  1
  8 21  1  0
  8 22  1  0
 10 23  1  0
 10 24  1  0
 12 25  1  0
 12 26  1  0
M  END
$$$$

     RDKit          3D

 26 26  0  0  0  0  0  0  0  0999 V2000
   -4.1309    0.0323   -0.3372 N   0  0  0  0  0  0  0  0  0  0  0  0
   -3.0327   -0.9403   -0.2666 C   0  0  0  0  0  0  0  0  0  0  0  0
   -1.8750   -0.3425    0.4610 C   0  0  1  0  0  0  0  0  0  0  0  0
   -0.7220   -1.3026    0.5547 C   0  0  0  0  0  0  0  0  0  0  0  0
    0.2035   -0.2784   -0.0845 C   0  0  2  0  0  0  0  0  0  0  0  0
    1.3344    0.3602    1.1413 S   0  0  0  0  0  4  0  0  0  0  0  0
    2.0518   -0.8077    1.7743 O   0  0  0  0  0  0  0  0  0  0  0  0
    2.4597    1.5772    0.4744 C   0  0  0  0  0  0  0  0  0  0  0  0
    3.2930    0.9806   -0.6240 C   0  0  0  0  0  0  0  0  0  0  0  0
    3.9604   -0.2486   -0.3723 N   0  0  0  0  0  0  0  0  0  0  0  0
    3.3820    1.5668   -1.7182 O   0  0  0  0  0  0  0  0  0  0  0  0
   -1.0001    0.5828   -0.3534 C   0  0  0  0  0  0  0  0  0  0  0  0
   -4.5729    0.0742    0.5987 H   0  0  0  0  0  0  0  0  0  0  0  0
   -3.6785    0.9370   -0.6246 H   0  0  0  0  0  0  0  0  0  0  0  0
   -2.8040   -1.2866   -1.2915 H   0  0  0  0  0  0  0  0  0  0  0  0
   -3.4099   -1.7919    0.3664 H   0  0  0  0  0  0  0  0  0  0  0  0
   -2.1889    0.1284    1.4047 H   0  0  0  0  0  0  0  0  0  0  0  0
   -0.5174   -1.5211    1.6199 H   0  0  0  0  0  0  0  0  0  0  0  0
   -0.8414   -2.2098   -0.0690 H   0  0  0  0  0  0  0  0  0  0  0  0
    0.7129   -0.6529   -0.9908 H   0  0  0  0  0  0  0  0  0  0  0  0
    1.9604    2.4883    0.1464 H   0  0  0  0  0  0  0  0  0  0  0  0
    3.1717    1.8257    1.2873 H   0  0  0  0  0  0  0  0  0  0  0  0
    4.4709   -0.3619    0.5217 H   0  0  0  0  0  0  0  0  0  0  0  0
    3.9696   -1.0475   -1.0364 H   0  0  0  0  0  0  0  0  0  0  0  0
   -1.3339    0.6546   -1.3983 H   0  0  0  0  0  0  0  0  0  0  0  0
   -0.8626    1.5836    0.1060 H   0  0  0  0  0  0  0  0  0  0  0  0
  1  2  1  0
  2  3  1  0
  3  4  1  0
  4  5  1  0
  5  6  1  0
  6  7  2  0
  6  8  1  6
  8  9  1  0
  9 10  1  0
  9 11  2  0
  5 12  1  0
 12  3  1  0
  1 13  1  0
  1 14  1  0
  2 15  1  0
  2 16  1  0
  3 17  1  1
  4 18  1  0
  4 19  1  0
  5 20  1  6
  8 21  1  0
  8 22  1  0
 10 23  1  0
 10 24  1  0
 12 25  1  0
 12 26  1  0
M  END
$$$$

     RDKit          3D

 26 26  0  0  0  0  0  0  0  0999 V2000
   -2.8393    1.7926    0.8784 N   0  0  0  0  0  0  0  0  0  0  0  0
   -2.7415    0.6417    0.0005 C   0  0  0  0  0  0  0  0  0  0  0  0
   -1.3908    0.0391   -0.0757 C   0  0  1  0  0  0  0  0  0  0  0  0
   -0.7767   -0.4934    1.2115 C   0  0  0  0  0  0  0  0  0  0  0  0
   -0.1630   -1.5602    0.3327 C   0  0  2  0  0  0  0  0  0  0  0  0
    1.1114   -1.1943   -0.7674 S   0  0  0  0  0  4  0  0  0  0  0  0
    0.8203   -1.2947   -2.2374 O   0  0  0  0  0  0  0  0  0  0  0  0
    2.6311   -0.5540   -0.2874 C   0  0  0  0  0  0  0  0  0  0  0  0
    2.6802    0.7637    0.3809 C   0  0  0  0  0  0  0  0  0  0  0  0
    3.9368    1.2823    0.8787 N   0  0  0  0  0  0  0  0  0  0  0  0
    1.7034    1.5196    0.5712 O   0  0  0  0  0  0  0  0  0  0  0  0
   -1.5285   -1.4636   -0.4390 C   0  0  0  0  0  0  0  0  0  0  0  0
   -3.8051    2.2050    0.7051 H   0  0  0  0  0  0  0  0  0  0  0  0
   -2.1885    2.5558    0.5881 H   0  0  0  0  0  0  0  0  0  0  0  0
   -3.5287   -0.0767    0.2858 H   0  0  0  0  0  0  0  0  0  0  0  0
   -2.9545    1.0590   -1.0312 H   0  0  0  0  0  0  0  0  0  0  0  0
   -0.6567    0.5603   -0.6987 H   0  0  0  0  0  0  0  0  0  0  0  0
   -0.1177    0.1350    1.7765 H   0  0  0  0  0  0  0  0  0  0  0  0
   -1.6111   -0.9688    1.8242 H   0  0  0  0  0  0  0  0  0  0  0  0
   -0.1083   -2.5316    0.8783 H   0  0  0  0  0  0  0  0  0  0  0  0
    3.2115   -1.3191    0.3093 H   0  0  0  0  0  0  0  0  0  0  0  0
    3.2941   -0.4326   -1.2143 H   0  0  0  0  0  0  0  0  0  0  0  0
    4.1503    2.2810    0.7468 H   0  0  0  0  0  0  0  0  0  0  0  0
    4.6322    0.6534    1.3668 H   0  0  0  0  0  0  0  0  0  0  0  0
   -1.4436   -1.6817   -1.4970 H   0  0  0  0  0  0  0  0  0  0  0  0
   -2.3173   -1.9178    0.1546 H   0  0  0  0  0  0  0  0  0  0  0  0
  1  2  1  0
  2  3  1  0
  3  4  1  0
  4  5  1  0
  5  6  1  0
  6  7  2  0
  6  8  1  6
  8  9  1  0
  9 10  1  0
  9 11  2  0
  5 12  1  0
 12  3  1  0
  1 13  1  0
  1 14  1  0
  2 15  1  0
  2 16  1  0
  3 17  1  6
  4 18  1  0
  4 19  1  0
  5 20  1  1
  8 21  1  0
  8 22  1  0
 10 23  1  0
 10 24  1  0
 12 25  1  0
 12 26  1  0
M  END
$$$$

     RDKit          3D

 26 26  0  0  0  0  0  0  0  0999 V2000
   -2.7496    2.0832    0.2228 N   0  0  0  0  0  0  0  0  0  0  0  0
   -2.8997    0.6530    0.2537 C   0  0  0  0  0  0  0  0  0  0  0  0
   -1.6771    0.0283   -0.3764 C   0  0  1  0  0  0  0  0  0  0  0  0
   -0.3801    0.3557    0.3098 C   0  0  0  0  0  0  0  0  0  0  0  0
   -0.1920   -1.0884    0.6274 C   0  0  2  0  0  0  0  0  0  0  0  0
    1.2390   -1.8538   -0.0973 S   0  0  0  0  0  4  0  0  0  0  0  0
    1.1691   -2.0018   -1.5880 O   0  0  0  0  0  0  0  0  0  0  0  0
    2.7110   -1.0355    0.4916 C   0  0  0  0  0  0  0  0  0  0  0  0
    2.7979    0.3946    0.1893 C   0  0  0  0  0  0  0  0  0  0  0  0
    3.1271    0.9433   -1.0687 N   0  0  0  0  0  0  0  0  0  0  0  0
    2.5599    1.2276    1.1322 O   0  0  0  0  0  0  0  0  0  0  0  0
   -1.4721   -1.4192   -0.0671 C   0  0  0  0  0  0  0  0  0  0  0  0
   -3.1245    2.4613   -0.6978 H   0  0  0  0  0  0  0  0  0  0  0  0
   -1.7359    2.3021    0.2938 H   0  0  0  0  0  0  0  0  0  0  0  0
   -2.9818    0.3013    1.2894 H   0  0  0  0  0  0  0  0  0  0  0  0
   -3.7945    0.3669   -0.3383 H   0  0  0  0  0  0  0  0  0  0  0  0
   -1.5976    0.2292   -1.4834 H   0  0  0  0  0  0  0  0  0  0  0  0
    0.4033    0.7439   -0.3883 H   0  0  0  0  0  0  0  0  0  0  0  0
   -0.5064    0.9793    1.2316 H   0  0  0  0  0  0  0  0  0  0  0  0
   -0.2593   -1.2784    1.7313 H   0  0  0  0  0  0  0  0  0  0  0  0
    3.6139   -1.5983    0.1441 H   0  0  0  0  0  0  0  0  0  0  0  0
    2.7179   -1.1901    1.6159 H   0  0  0  0  0  0  0  0  0  0  0  0
    4.0864    1.3233   -1.2121 H   0  0  0  0  0  0  0  0  0  0  0  0
    2.4659    0.9895   -1.8644 H   0  0  0  0  0  0  0  0  0  0  0  0
   -2.2319   -1.8578    0.6186 H   0  0  0  0  0  0  0  0  0  0  0  0
   -1.2889   -2.0590   -0.9697 H   0  0  0  0  0  0  0  0  0  0  0  0
  1  2  1  0
  2  3  1  0
  3  4  1  0
  4  5  1  0
  5  6  1  0
  6  7  2  0
  6  8  1  6
  8  9  1  0
  9 10  1  0
  9 11  2  0
  5 12  1  0
 12  3  1  0
  1 13  1  0
  1 14  1  0
  2 15  1  0
  2 16  1  0
  3 17  1  6
  4 18  1  0
  4 19  1  0
  5 20  1  1
  8 21  1  0
  8 22  1  0
 10 23  1  0
 10 24  1  0
 12 25  1  0
 12 26  1  0
M  END
$$$$

     RDKit          3D

 26 26  0  0  0  0  0  0  0  0999 V2000
   -3.1902    0.0726   -1.2320 N   0  0  0  0  0  0  0  0  0  0  0  0
   -3.3060   -0.5708    0.0662 C   0  0  0  0  0  0  0  0  0  0  0  0
   -2.0671   -0.3421    0.9086 C   0  0  1  0  0  0  0  0  0  0  0  0
   -0.7964   -0.8743    0.2904 C   0  0  0  0  0  0  0  0  0  0  0  0
   -0.3968    0.5213   -0.0776 C   0  0  2  0  0  0  0  0  0  0  0  0
    1.2458    1.0220    0.4398 S   0  0  0  0  0  4  0  0  0  0  0  0
    1.3700    0.9070    1.9515 O   0  0  0  0  0  0  0  0  0  0  0  0
    2.4838   -0.0510   -0.2951 C   0  0  0  0  0  0  0  0  0  0  0  0
    3.8334    0.3697    0.1372 C   0  0  0  0  0  0  0  0  0  0  0  0
    4.9862   -0.3273   -0.3129 N   0  0  0  0  0  0  0  0  0  0  0  0
    3.9936    1.3645    0.9214 O   0  0  0  0  0  0  0  0  0  0  0  0
   -1.4888    1.0326    0.8330 C   0  0  0  0  0  0  0  0  0  0  0  0
   -3.4438    1.0868   -1.0923 H   0  0  0  0  0  0  0  0  0  0  0  0
   -3.8731   -0.4141   -1.8611 H   0  0  0  0  0  0  0  0  0  0  0  0
   -3.5048   -1.6548   -0.0533 H   0  0  0  0  0  0  0  0  0  0  0  0
   -4.1958   -0.1285    0.5572 H   0  0  0  0  0  0  0  0  0  0  0  0
   -2.1859   -0.7059    1.9283 H   0  0  0  0  0  0  0  0  0  0  0  0
   -1.0270   -1.4907   -0.6046 H   0  0  0  0  0  0  0  0  0  0  0  0
   -0.1179   -1.3987    0.9698 H   0  0  0  0  0  0  0  0  0  0  0  0
   -0.5956    0.7888   -1.1207 H   0  0  0  0  0  0  0  0  0  0  0  0
    2.4119   -0.0975   -1.3976 H   0  0  0  0  0  0  0  0  0  0  0  0
    2.3129   -1.1065    0.0599 H   0  0  0  0  0  0  0  0  0  0  0  0
    5.9111    0.1301   -0.4347 H   0  0  0  0  0  0  0  0  0  0  0  0
    4.9300   -1.3477   -0.5391 H   0  0  0  0  0  0  0  0  0  0  0  0
   -2.1661    1.7684    0.3453 H   0  0  0  0  0  0  0  0  0  0  0  0
   -1.1234    1.4461    1.7961 H   0  0  0  0  0  0  0  0  0  0  0  0
  1  2  1  0
  2  3  1  0
  3  4  1  0
  4  5  1  0
  5  6  1  0
  6  7  2  0
  6  8  1  6
  8  9  1  0
  9 10  1  0
  9 11  2  0
  5 12  1  0
 12  3  1  0
  1 13  1  0
  1 14  1  0
  2 15  1  0
  2 16  1  0
  3 17  1  1
  4 18  1  0
  4 19  1  0
  5 20  1  6
  8 21  1  0
  8 22  1  0
 10 23  1  0
 10 24  1  0
 12 25  1  0
 12 26  1  0
M  END
$$$$

     RDKit          3D

 26 26  0  0  0  0  0  0  0  0999 V2000
   -4.0655    1.1358    0.3949 N   0  0  0  0  0  0  0  0  0  0  0  0
   -3.2036    0.4017   -0.5071 C   0  0  0  0  0  0  0  0  0  0  0  0
   -2.1712   -0.4126    0.2331 C   0  0  1  0  0  0  0  0  0  0  0  0
   -1.3007   -1.1560   -0.7336 C   0  0  0  0  0  0  0  0  0  0  0  0
   -0.1895   -0.1537   -0.5037 C   0  0  2  0  0  0  0  0  0  0  0  0
    1.3352   -1.0225   -0.0973 S   0  0  0  0  0  4  0  0  0  0  0  0
    1.7732   -1.8933   -1.2670 O   0  0  0  0  0  0  0  0  0  0  0  0
    2.6164    0.2123    0.1645 C   0  0  0  0  0  0  0  0  0  0  0  0
    3.9197   -0.4354    0.5081 C   0  0  0  0  0  0  0  0  0  0  0  0
    5.0397    0.3919    0.7473 N   0  0  0  0  0  0  0  0  0  0  0  0
    4.0018   -1.6713    0.5782 O   0  0  0  0  0  0  0  0  0  0  0  0
   -0.9529    0.3598    0.6801 C   0  0  0  0  0  0  0  0  0  0  0  0
   -4.9615    0.6079    0.5531 H   0  0  0  0  0  0  0  0  0  0  0  0
   -4.3386    2.0190   -0.0918 H   0  0  0  0  0  0  0  0  0  0  0  0
   -2.7154    1.0589   -1.2452 H   0  0  0  0  0  0  0  0  0  0  0  0
   -3.8434   -0.3120   -1.0671 H   0  0  0  0  0  0  0  0  0  0  0  0
   -2.6034   -0.9839    1.0606 H   0  0  0  0  0  0  0  0  0  0  0  0
   -1.0687   -2.1849   -0.4376 H   0  0  0  0  0  0  0  0  0  0  0  0
   -1.6204   -1.1170   -1.7967 H   0  0  0  0  0  0  0  0  0  0  0  0
   -0.0639    0.6138   -1.2688 H   0  0  0  0  0  0  0  0  0  0  0  0
    2.2964    0.9096    0.9396 H   0  0  0  0  0  0  0  0  0  0  0  0
    2.7910    0.7705   -0.7788 H   0  0  0  0  0  0  0  0  0  0  0  0
    5.9886   -0.0097    0.8552 H   0  0  0  0  0  0  0  0  0  0  0  0
    4.9504    1.4314    0.8232 H   0  0  0  0  0  0  0  0  0  0  0  0
   -0.5403   -0.0143    1.6588 H   0  0  0  0  0  0  0  0  0  0  0  0
   -1.0735    1.4542    0.7361 H   0  0  0  0  0  0  0  0  0  0  0  0
  1  2  1  0
  2  3  1  0
  3  4  1  0
  4  5  1  0
  5  6  1  0
  6  7  2  0
  6  8  1  6
  8  9  1  0
  9 10  1  0
  9 11  2  0
  5 12  1  0
 12  3  1  0
  1 13  1  0
  1 14  1  0
  2 15  1  0
  2 16  1  0
  3 17  1  1
  4 18  1  0
  4 19  1  0
  5 20  1  6
  8 21  1  0
  8 22  1  0
 10 23  1  0
 10 24  1  0
 12 25  1  0
 12 26  1  0
M  END
$$$$
