
     RDKit          3D

 20 20  0  0  0  0  0  0  0  0999 V2000
   -3.0851    0.0461    0.6153 N   0  0  0  0  0  0  0  0  0  0  0  0
   -1.6544    0.7117   -0.0966 S   0  0  0  0  0  6  0  0  0  0  0  0
   -1.5938    0.4628   -1.5691 O   0  0  0  0  0  0  0  0  0  0  0  0
   -1.7330    2.2080    0.1071 O   0  0  0  0  0  0  0  0  0  0  0  0
   -0.2265    0.1267    0.7008 N   0  0  0  0  0  0  0  0  0  0  0  0
   -0.2035   -1.3413    0.5238 C   0  0  0  0  0  0  0  0  0  0  0  0
    0.2783   -1.4747   -0.8758 C   0  0  0  0  0  0  0  0  0  0  0  0
    0.9007   -0.3676   -1.2406 C   0  0  0  0  0  0  0  0  0  0  0  0
    0.8739    0.5782   -0.1005 C   0  0  2  0  0  0  0  0  0  0  0  0
    2.1729    0.5282    0.5572 C   0  0  0  0  0  0  0  0  0  0  0  0
    2.2849    0.1193    1.7276 O   0  0  0  0  0  0  0  0  0  0  0  0
    3.2866    0.9425   -0.1370 O   0  0  0  0  0  0  0  0  0  0  0  0
   -3.8840    0.6383    0.2401 H   0  0  0  0  0  0  0  0  0  0  0  0
   -3.0175    0.2607    1.6460 H   0  0  0  0  0  0  0  0  0  0  0  0
   -1.2509   -1.7432    0.5640 H   0  0  0  0  0  0  0  0  0  0  0  0
    0.4535   -1.8201    1.2625 H   0  0  0  0  0  0  0  0  0  0  0  0
    0.1465   -2.3372   -1.5068 H   0  0  0  0  0  0  0  0  0  0  0  0
    1.3686   -0.1594   -2.2209 H   0  0  0  0  0  0  0  0  0  0  0  0
    0.6640    1.6264   -0.4414 H   0  0  0  0  0  0  0  0  0  0  0  0
    4.2189    0.9947    0.2443 H   0  0  0  0  0  0  0  0  0  0  0  0
  1  2  1  0
  2  3  2  0
  2  4  2  0
  2  5  1  0
  5  6  1  0
  6  7  1  0
  7  8  2  0
  8  9  1  0
  9 10  1  0
 10 11  2  0
 10 12  1  0
  9  5  1  0
  1 13  1  0
  1 14  1  0
  6 15  1  0
  6 16  1  0
  7 17  1  0
  8 18  1  0
  9 19  1  6
 12 20  1  0
M  END
$$$$

     RDKit          3D

 20 20  0  0  0  0  0  0  0  0999 V2000
    2.8198   -0.2436   -1.2519 N   0  0  0  0  0  0  0  0  0  0  0  0
    1.8398    0.1669    0.0776 S   0  0  0  0  0  6  0  0  0  0  0  0
    2.1951   -0.7229    1.2263 O   0  0  0  0  0  0  0  0  0  0  0  0
    2.1209    1.5859    0.4844 O   0  0  0  0  0  0  0  0  0  0  0  0
    0.1640    0.0414   -0.2619 N   0  0  0  0  0  0  0  0  0  0  0  0
   -0.2662   -1.2727   -0.6106 C   0  0  0  0  0  0  0  0  0  0  0  0
   -1.0650   -1.7328    0.5494 C   0  0  0  0  0  0  0  0  0  0  0  0
   -1.2984   -0.7167    1.3713 C   0  0  0  0  0  0  0  0  0  0  0  0
   -0.6658    0.4983    0.8093 C   0  0  2  0  0  0  0  0  0  0  0  0
   -1.6778    1.4404    0.2422 C   0  0  0  0  0  0  0  0  0  0  0  0
   -2.5251    1.9737    1.0121 O   0  0  0  0  0  0  0  0  0  0  0  0
   -1.7418    1.7657   -1.0893 O   0  0  0  0  0  0  0  0  0  0  0  0
    2.4038    0.0924   -2.1498 H   0  0  0  0  0  0  0  0  0  0  0  0
    3.7506    0.2239   -1.1461 H   0  0  0  0  0  0  0  0  0  0  0  0
   -0.9907   -1.1718   -1.4710 H   0  0  0  0  0  0  0  0  0  0  0  0
    0.5441   -1.9668   -0.8899 H   0  0  0  0  0  0  0  0  0  0  0  0
   -1.4085   -2.7670    0.6975 H   0  0  0  0  0  0  0  0  0  0  0  0
   -1.8608   -0.7832    2.2958 H   0  0  0  0  0  0  0  0  0  0  0  0
   -0.0751    1.0410    1.5703 H   0  0  0  0  0  0  0  0  0  0  0  0
   -2.2629    2.5476   -1.4657 H   0  0  0  0  0  0  0  0  0  0  0  0
  1  2  1  0
  2  3  2  0
  2  4  2  0
  2  5  1  0
  5  6  1  0
  6  7  1  0
  7  8  2  0
  8  9  1  0
  9 10  1  0
 10 11  2  0
 10 12  1  0
  9  5  1  0
  1 13  1  0
  1 14  1  0
  6 15  1  0
  6 16  1  0
  7 17  1  0
  8 18  1  0
  9 19  1  1
 12 20  1  0
M  END
$$$$

     RDKit          3D

 20 20  0  0  0  0  0  0  0  0999 V2000
    3.0585   -0.1376    0.6973 N   0  0  0  0  0  0  0  0  0  0  0  0
    1.6697   -0.6790   -0.1651 S   0  0  0  0  0  6  0  0  0  0  0  0
    1.8959   -0.6057   -1.6327 O   0  0  0  0  0  0  0  0  0  0  0  0
    1.4493   -2.1248    0.2010 O   0  0  0  0  0  0  0  0  0  0  0  0
    0.2658    0.2022    0.3073 N   0  0  0  0  0  0  0  0  0  0  0  0
    0.3573    1.5980    0.0394 C   0  0  0  0  0  0  0  0  0  0  0  0
   -1.0369    2.0070   -0.2452 C   0  0  0  0  0  0  0  0  0  0  0  0
   -1.7339    0.9226   -0.5335 C   0  0  0  0  0  0  0  0  0  0  0  0
   -0.8679   -0.2785   -0.4633 C   0  0  2  0  0  0  0  0  0  0  0  0
   -1.5820   -1.3136    0.3467 C   0  0  0  0  0  0  0  0  0  0  0  0
   -1.1686   -1.6292    1.4962 O   0  0  0  0  0  0  0  0  0  0  0  0
   -2.7140   -1.9534   -0.1402 O   0  0  0  0  0  0  0  0  0  0  0  0
    3.9178   -0.5177    0.2715 H   0  0  0  0  0  0  0  0  0  0  0  0
    2.9601   -0.2723    1.7110 H   0  0  0  0  0  0  0  0  0  0  0  0
    0.6900    2.1516    0.9401 H   0  0  0  0  0  0  0  0  0  0  0  0
    0.9589    1.8495   -0.8571 H   0  0  0  0  0  0  0  0  0  0  0  0
   -1.4402    3.0475   -0.2230 H   0  0  0  0  0  0  0  0  0  0  0  0
   -2.8070    0.9198   -0.7890 H   0  0  0  0  0  0  0  0  0  0  0  0
   -0.5679   -0.6655   -1.4437 H   0  0  0  0  0  0  0  0  0  0  0  0
   -3.3049   -2.5208    0.4821 H   0  0  0  0  0  0  0  0  0  0  0  0
  1  2  1  0
  2  3  2  0
  2  4  2  0
  2  5  1  0
  5  6  1  0
  6  7  1  0
  7  8  2  0
  8  9  1  0
  9 10  1  0
 10 11  2  0
 10 12  1  0
  9  5  1  0
  1 13  1  0
  1 14  1  0
  6 15  1  0
  6 16  1  0
  7 17  1  0
  8 18  1  0
  9 19  1  6
 12 20  1  0
M  END
$$$$

     RDKit          3D

 20 20  0  0  0  0  0  0  0  0999 V2000
    2.9233   -0.2889    0.1324 N   0  0  0  0  0  0  0  0  0  0  0  0
    1.6175    0.3455   -0.8406 S   0  0  0  0  0  6  0  0  0  0  0  0
    1.6074    1.8460   -0.8086 O   0  0  0  0  0  0  0  0  0  0  0  0
    1.8401   -0.0410   -2.2948 O   0  0  0  0  0  0  0  0  0  0  0  0
    0.2040   -0.2764   -0.2880 N   0  0  0  0  0  0  0  0  0  0  0  0
   -0.0501   -1.6463   -0.2998 C   0  0  0  0  0  0  0  0  0  0  0  0
   -1.1774   -1.7833    0.6673 C   0  0  0  0  0  0  0  0  0  0  0  0
   -1.5339   -0.5901    1.1317 C   0  0  0  0  0  0  0  0  0  0  0  0
   -0.6645    0.4687    0.5080 C   0  0  2  0  0  0  0  0  0  0  0  0
   -1.4764    1.4067   -0.2923 C   0  0  0  0  0  0  0  0  0  0  0  0
   -1.3133    1.4369   -1.5296 O   0  0  0  0  0  0  0  0  0  0  0  0
   -2.4006    2.2352    0.3268 O   0  0  0  0  0  0  0  0  0  0  0  0
    3.8441    0.0368   -0.2307 H   0  0  0  0  0  0  0  0  0  0  0  0
    2.7368    0.0413    1.1078 H   0  0  0  0  0  0  0  0  0  0  0  0
    0.8414   -2.2435    0.0351 H   0  0  0  0  0  0  0  0  0  0  0  0
   -0.3670   -1.9988   -1.2974 H   0  0  0  0  0  0  0  0  0  0  0  0
   -1.6261   -2.7363    0.9370 H   0  0  0  0  0  0  0  0  0  0  0  0
   -2.3054   -0.3551    1.8357 H   0  0  0  0  0  0  0  0  0  0  0  0
   -0.0825    1.0067    1.2912 H   0  0  0  0  0  0  0  0  0  0  0  0
   -2.6176    3.1359   -0.0912 H   0  0  0  0  0  0  0  0  0  0  0  0
  1  2  1  0
  2  3  2  0
  2  4  2  0
  2  5  1  0
  5  6  1  0
  6  7  1  0
  7  8  2  0
  8  9  1  0
  9 10  1  0
 10 11  2  0
 10 12  1  0
  9  5  1  0
  1 13  1  0
  1 14  1  0
  6 15  1  0
  6 16  1  0
  7 17  1  0
  8 18  1  0
  9 19  1  1
 12 20  1  0
M  END
$$$$

     RDKit          3D

 20 20  0  0  0  0  0  0  0  0999 V2000
    2.6747    0.3122    0.6626 N   0  0  0  0  0  0  0  0  0  0  0  0
    1.6136    0.8044   -0.5754 S   0  0  0  0  0  6  0  0  0  0  0  0
    1.3436    2.2738   -0.4231 O   0  0  0  0  0  0  0  0  0  0  0  0
    2.2988    0.6025   -1.8967 O   0  0  0  0  0  0  0  0  0  0  0  0
    0.1295   -0.0178   -0.5953 N   0  0  0  0  0  0  0  0  0  0  0  0
    0.2384   -1.4349   -0.8086 C   0  0  0  0  0  0  0  0  0  0  0  0
   -1.0038   -1.9763   -0.1905 C   0  0  0  0  0  0  0  0  0  0  0  0
   -1.5523   -1.0393    0.5613 C   0  0  0  0  0  0  0  0  0  0  0  0
   -0.7193    0.2169    0.5105 C   0  0  2  0  0  0  0  0  0  0  0  0
   -1.6454    1.3294    0.2138 C   0  0  0  0  0  0  0  0  0  0  0  0
   -1.5910    1.9029   -0.8899 O   0  0  0  0  0  0  0  0  0  0  0  0
   -2.5697    1.7344    1.1556 O   0  0  0  0  0  0  0  0  0  0  0  0
    2.7205   -0.7096    0.8173 H   0  0  0  0  0  0  0  0  0  0  0  0
    3.6415    0.6217    0.4155 H   0  0  0  0  0  0  0  0  0  0  0  0
    0.1872   -1.6081   -1.9129 H   0  0  0  0  0  0  0  0  0  0  0  0
    1.1529   -1.8892   -0.4334 H   0  0  0  0  0  0  0  0  0  0  0  0
   -1.3646   -2.9869   -0.3584 H   0  0  0  0  0  0  0  0  0  0  0  0
   -2.4688   -1.1769    1.1241 H   0  0  0  0  0  0  0  0  0  0  0  0
   -0.2010    0.3367    1.4812 H   0  0  0  0  0  0  0  0  0  0  0  0
   -2.8849    2.7042    1.1422 H   0  0  0  0  0  0  0  0  0  0  0  0
  1  2  1  0
  2  3  2  0
  2  4  2  0
  2  5  1  0
  5  6  1  0
  6  7  1  0
  7  8  2  0
  8  9  1  0
  9 10  1  0
 10 11  2  0
 10 12  1  0
  9  5  1  0
  1 13  1  0
  1 14  1  0
  6 15  1  0
  6 16  1  0
  7 17  1  0
  8 18  1  0
  9 19  1  1
 12 20  1  0
M  END
$$$$

     RDKit          3D

 20 20  0  0  0  0  0  0  0  0999 V2000
    2.1804    1.2676    0.5585 N   0  0  0  0  0  0  0  0  0  0  0  0
    1.8392    0.2054   -0.7614 S   0  0  0  0  0  6  0  0  0  0  0  0
    2.9979   -0.7437   -0.8691 O   0  0  0  0  0  0  0  0  0  0  0  0
    1.7785    1.0089   -2.0296 O   0  0  0  0  0  0  0  0  0  0  0  0
    0.3571   -0.6487   -0.5005 N   0  0  0  0  0  0  0  0  0  0  0  0
    0.5588   -1.4454    0.7262 C   0  0  0  0  0  0  0  0  0  0  0  0
   -0.8473   -1.6087    1.2484 C   0  0  0  0  0  0  0  0  0  0  0  0
   -1.5753   -0.6304    0.7300 C   0  0  0  0  0  0  0  0  0  0  0  0
   -0.7140    0.2092   -0.1377 C   0  0  2  0  0  0  0  0  0  0  0  0
   -1.5240    0.6936   -1.2643 C   0  0  0  0  0  0  0  0  0  0  0  0
   -1.3159    0.3946   -2.4625 O   0  0  0  0  0  0  0  0  0  0  0  0
   -2.5870    1.5363   -0.9784 O   0  0  0  0  0  0  0  0  0  0  0  0
    2.4186    0.7170    1.4097 H   0  0  0  0  0  0  0  0  0  0  0  0
    1.4676    1.9927    0.6948 H   0  0  0  0  0  0  0  0  0  0  0  0
    1.1591   -0.8868    1.4624 H   0  0  0  0  0  0  0  0  0  0  0  0
    0.9959   -2.4195    0.4719 H   0  0  0  0  0  0  0  0  0  0  0  0
   -1.1485   -2.3874    1.9123 H   0  0  0  0  0  0  0  0  0  0  0  0
   -2.6390   -0.5167    0.9482 H   0  0  0  0  0  0  0  0  0  0  0  0
   -0.4050    1.0800    0.4789 H   0  0  0  0  0  0  0  0  0  0  0  0
   -2.9972    2.1821   -1.6376 H   0  0  0  0  0  0  0  0  0  0  0  0
  1  2  1  0
  2  3  2  0
  2  4  2  0
  2  5  1  0
  5  6  1  0
  6  7  1  0
  7  8  2  0
  8  9  1  0
  9 10  1  0
 10 11  2  0
 10 12  1  0
  9  5  1  0
  1 13  1  0
  1 14  1  0
  6 15  1  0
  6 16  1  0
  7 17  1  0
  8 18  1  0
  9 19  1  1
 12 20  1  0
M  END
$$$$

     RDKit          3D

 20 20  0  0  0  0  0  0  0  0999 V2000
    1.9271    1.8641   -1.5454 N   0  0  0  0  0  0  0  0  0  0  0  0
    1.0928    1.3449   -0.1511 S   0  0  0  0  0  6  0  0  0  0  0  0
    2.1130    0.7185    0.7885 O   0  0  0  0  0  0  0  0  0  0  0  0
    0.4248    2.4438    0.5951 O   0  0  0  0  0  0  0  0  0  0  0  0
   -0.0423    0.0734   -0.5251 N   0  0  0  0  0  0  0  0  0  0  0  0
    0.7515   -1.0270   -1.0415 C   0  0  0  0  0  0  0  0  0  0  0  0
   -0.1147   -2.1937   -0.8179 C   0  0  0  0  0  0  0  0  0  0  0  0
   -0.9227   -1.8899    0.1914 C   0  0  0  0  0  0  0  0  0  0  0  0
   -0.6047   -0.4938    0.6660 C   0  0  2  0  0  0  0  0  0  0  0  0
   -1.8670    0.1240    1.0786 C   0  0  0  0  0  0  0  0  0  0  0  0
   -2.4666   -0.2753    2.1022 O   0  0  0  0  0  0  0  0  0  0  0  0
   -2.4303    1.1587    0.3561 O   0  0  0  0  0  0  0  0  0  0  0  0
    1.4669    2.6668   -2.0208 H   0  0  0  0  0  0  0  0  0  0  0  0
    2.9186    2.1081   -1.3018 H   0  0  0  0  0  0  0  0  0  0  0  0
    1.6707   -1.0671   -0.4064 H   0  0  0  0  0  0  0  0  0  0  0  0
    1.0263   -0.8768   -2.1031 H   0  0  0  0  0  0  0  0  0  0  0  0
   -0.0681   -3.1092   -1.3927 H   0  0  0  0  0  0  0  0  0  0  0  0
   -1.6706   -2.5748    0.5700 H   0  0  0  0  0  0  0  0  0  0  0  0
    0.1361   -0.5493    1.4936 H   0  0  0  0  0  0  0  0  0  0  0  0
   -3.3409    1.5547    0.5429 H   0  0  0  0  0  0  0  0  0  0  0  0
  1  2  1  0
  2  3  2  0
  2  4  2  0
  2  5  1  0
  5  6  1  0
  6  7  1  0
  7  8  2  0
  8  9  1  0
  9 10  1  0
 10 11  2  0
 10 12  1  0
  9  5  1  0
  1 13  1  0
  1 14  1  0
  6 15  1  0
  6 16  1  0
  7 17  1  0
  8 18  1  0
  9 19  1  1
 12 20  1  0
M  END
$$$$

     RDKit          3D

 20 20  0  0  0  0  0  0  0  0999 V2000
    2.8119   -0.7004    1.0415 N   0  0  0  0  0  0  0  0  0  0  0  0
    1.8550   -0.3639   -0.3497 S   0  0  0  0  0  6  0  0  0  0  0  0
    2.3356    0.9678   -0.9023 O   0  0  0  0  0  0  0  0  0  0  0  0
    2.0380   -1.4010   -1.3929 O   0  0  0  0  0  0  0  0  0  0  0  0
    0.2108   -0.1925    0.1331 N   0  0  0  0  0  0  0  0  0  0  0  0
    0.0555    0.8962    1.0416 C   0  0  0  0  0  0  0  0  0  0  0  0
   -0.9959    1.7707    0.4413 C   0  0  0  0  0  0  0  0  0  0  0  0
   -1.4216    1.2509   -0.6888 C   0  0  0  0  0  0  0  0  0  0  0  0
   -0.6929   -0.0304   -0.9579 C   0  0  2  0  0  0  0  0  0  0  0  0
   -1.7157   -1.1307   -0.9242 C   0  0  0  0  0  0  0  0  0  0  0  0
   -2.6219   -1.1865   -1.8018 O   0  0  0  0  0  0  0  0  0  0  0  0
   -1.7103   -2.1144    0.0524 O   0  0  0  0  0  0  0  0  0  0  0  0
    2.7469   -1.7011    1.3000 H   0  0  0  0  0  0  0  0  0  0  0  0
    2.6230   -0.0374    1.8014 H   0  0  0  0  0  0  0  0  0  0  0  0
    1.0112    1.4759    1.0642 H   0  0  0  0  0  0  0  0  0  0  0  0
   -0.2144    0.5451    2.0519 H   0  0  0  0  0  0  0  0  0  0  0  0
   -1.3207    2.6908    0.9153 H   0  0  0  0  0  0  0  0  0  0  0  0
   -2.1743    1.6480   -1.3509 H   0  0  0  0  0  0  0  0  0  0  0  0
   -0.2299    0.0474   -1.9411 H   0  0  0  0  0  0  0  0  0  0  0  0
   -2.5906   -2.4343    0.4670 H   0  0  0  0  0  0  0  0  0  0  0  0
  1  2  1  0
  2  3  2  0
  2  4  2  0
  2  5  1  0
  5  6  1  0
  6  7  1  0
  7  8  2  0
  8  9  1  0
  9 10  1  0
 10 11  2  0
 10 12  1  0
  9  5  1  0
  1 13  1  0
  1 14  1  0
  6 15  1  0
  6 16  1  0
  7 17  1  0
  8 18  1  0
  9 19  1  6
 12 20  1  0
M  END
$$$$
