
     RDKit          3D

 24 24  0  0  0  0  0  0  0  0999 V2000
   -2.5319   -1.9205    0.0349 C   0  0  0  0  0  0  0  0  0  0  0  0
   -2.7172   -0.5539   -0.3574 N   0  0  0  0  0  0  0  0  0  0  0  0
   -3.7232   -0.1206   -1.0999 N   0  0  0  0  0  0  0  0  0  0  0  0
   -3.6208    1.1656   -1.2885 N   0  0  0  0  0  0  0  0  0  0  0  0
   -2.5241    1.5776   -0.6549 C   0  0  0  0  0  0  0  0  0  0  0  0
   -1.9213    0.4980   -0.0471 C   0  0  0  0  0  0  0  0  0  0  0  0
   -0.6972    0.5359    0.7440 C   0  0  0  0  0  0  0  0  0  0  0  0
    0.5548    0.3236   -0.0775 C   0  0  0  0  0  0  0  0  0  0  0  0
    1.7279    0.3744    0.7741 N   0  0  0  0  0  0  0  0  0  0  0  0
    3.0331    0.2034    0.2433 C   0  0  0  0  0  0  0  0  0  0  0  0
    3.1565    0.3326   -1.0408 N   0  0  0  0  0  0  0  0  0  0  0  0
    4.1647   -0.0950    1.0561 N   0  0  0  0  0  0  0  0  0  0  0  0
   -2.9729   -2.5821   -0.7422 H   0  0  0  0  0  0  0  0  0  0  0  0
   -3.0897   -2.1612    0.9835 H   0  0  0  0  0  0  0  0  0  0  0  0
   -1.4608   -2.2113    0.1042 H   0  0  0  0  0  0  0  0  0  0  0  0
   -2.1994    2.6209   -0.6503 H   0  0  0  0  0  0  0  0  0  0  0  0
   -0.5859    1.5425    1.2209 H   0  0  0  0  0  0  0  0  0  0  0  0
   -0.6886   -0.1920    1.5944 H   0  0  0  0  0  0  0  0  0  0  0  0
    0.5299   -0.7174   -0.4959 H   0  0  0  0  0  0  0  0  0  0  0  0
    0.6627    1.0959   -0.8496 H   0  0  0  0  0  0  0  0  0  0  0  0
    1.6325    0.5391    1.8022 H   0  0  0  0  0  0  0  0  0  0  0  0
    4.0934    0.2153   -1.4682 H   0  0  0  0  0  0  0  0  0  0  0  0
    4.3504   -1.0853    1.3245 H   0  0  0  0  0  0  0  0  0  0  0  0
    4.8271    0.6145    1.4052 H   0  0  0  0  0  0  0  0  0  0  0  0
  1  2  1  0
  2  3  1  0
  3  4  2  0
  4  5  1  0
  5  6  2  0
  6  7  1  0
  7  8  1  0
  8  9  1  0
  9 10  1  0
 10 11  2  3
 10 12  1  0
  6  2  1  0
  1 13  1  0
  1 14  1  0
  1 15  1  0
  5 16  1  0
  7 17  1  0
  7 18  1  0
  8 19  1  0
  8 20  1  0
  9 21  1  0
 11 22  1  0
 12 23  1  0
 12 24  1  0
M  END
$$$$

     RDKit          3D

 24 24  0  0  0  0  0  0  0  0999 V2000
    2.9379   -1.1718    0.4094 C   0  0  0  0  0  0  0  0  0  0  0  0
    2.4209    0.1524    0.6961 N   0  0  0  0  0  0  0  0  0  0  0  0
    2.8179    0.9140    1.7258 N   0  0  0  0  0  0  0  0  0  0  0  0
    2.1573    2.0673    1.7135 N   0  0  0  0  0  0  0  0  0  0  0  0
    1.3180    2.0215    0.6360 C   0  0  0  0  0  0  0  0  0  0  0  0
    1.4841    0.8118   -0.0073 C   0  0  0  0  0  0  0  0  0  0  0  0
    0.8166    0.2947   -1.2020 C   0  0  0  0  0  0  0  0  0  0  0  0
   -0.4360   -0.4713   -0.9270 C   0  0  0  0  0  0  0  0  0  0  0  0
   -1.4479    0.2932   -0.2542 N   0  0  0  0  0  0  0  0  0  0  0  0
   -2.6815   -0.4044    0.0351 C   0  0  0  0  0  0  0  0  0  0  0  0
   -2.7500   -1.6789   -0.1144 N   0  0  0  0  0  0  0  0  0  0  0  0
   -3.8285    0.2916    0.4842 N   0  0  0  0  0  0  0  0  0  0  0  0
    2.1030   -1.8329    0.0369 H   0  0  0  0  0  0  0  0  0  0  0  0
    3.2798   -1.6813    1.3529 H   0  0  0  0  0  0  0  0  0  0  0  0
    3.7977   -1.1641   -0.2621 H   0  0  0  0  0  0  0  0  0  0  0  0
    0.6233    2.7856    0.3078 H   0  0  0  0  0  0  0  0  0  0  0  0
    0.5412    1.1325   -1.8987 H   0  0  0  0  0  0  0  0  0  0  0  0
    1.4768   -0.3699   -1.8198 H   0  0  0  0  0  0  0  0  0  0  0  0
   -0.8643   -0.7651   -1.9215 H   0  0  0  0  0  0  0  0  0  0  0  0
   -0.2751   -1.4166   -0.3828 H   0  0  0  0  0  0  0  0  0  0  0  0
   -1.3904    1.2715    0.0404 H   0  0  0  0  0  0  0  0  0  0  0  0
   -3.6446   -2.1575    0.0991 H   0  0  0  0  0  0  0  0  0  0  0  0
   -4.3286    0.8887   -0.2181 H   0  0  0  0  0  0  0  0  0  0  0  0
   -4.1274    0.1889    1.4706 H   0  0  0  0  0  0  0  0  0  0  0  0
  1  2  1  0
  2  3  1  0
  3  4  2  0
  4  5  1  0
  5  6  2  0
  6  7  1  0
  7  8  1  0
  8  9  1  0
  9 10  1  0
 10 11  2  3
 10 12  1  0
  6  2  1  0
  1 13  1  0
  1 14  1  0
  1 15  1  0
  5 16  1  0
  7 17  1  0
  7 18  1  0
  8 19  1  0
  8 20  1  0
  9 21  1  0
 11 22  1  0
 12 23  1  0
 12 24  1  0
M  END
$$$$

     RDKit          3D

 24 24  0  0  0  0  0  0  0  0999 V2000
   -2.0465    1.6518    0.3334 C   0  0  0  0  0  0  0  0  0  0  0  0
   -2.4688    0.2692    0.3613 N   0  0  0  0  0  0  0  0  0  0  0  0
   -3.7157   -0.1937    0.3637 N   0  0  0  0  0  0  0  0  0  0  0  0
   -3.7470   -1.5072    0.3928 N   0  0  0  0  0  0  0  0  0  0  0  0
   -2.4376   -1.8992    0.4098 C   0  0  0  0  0  0  0  0  0  0  0  0
   -1.6392   -0.7796    0.3900 C   0  0  0  0  0  0  0  0  0  0  0  0
   -0.1809   -0.7349    0.3981 C   0  0  0  0  0  0  0  0  0  0  0  0
    0.4252   -0.7487   -0.9879 C   0  0  0  0  0  0  0  0  0  0  0  0
    1.8657   -0.7038   -0.8672 N   0  0  0  0  0  0  0  0  0  0  0  0
    2.4715    0.4791   -0.3765 C   0  0  0  0  0  0  0  0  0  0  0  0
    1.8913    1.6428   -0.5277 N   0  0  0  0  0  0  0  0  0  0  0  0
    3.7147    0.4414    0.2876 N   0  0  0  0  0  0  0  0  0  0  0  0
   -2.8793    2.2548    0.7671 H   0  0  0  0  0  0  0  0  0  0  0  0
   -1.8791    1.9264   -0.7413 H   0  0  0  0  0  0  0  0  0  0  0  0
   -1.1117    1.8481    0.8670 H   0  0  0  0  0  0  0  0  0  0  0  0
   -2.0958   -2.9253    0.4341 H   0  0  0  0  0  0  0  0  0  0  0  0
    0.2696   -1.6308    0.9248 H   0  0  0  0  0  0  0  0  0  0  0  0
    0.2404    0.1439    0.9287 H   0  0  0  0  0  0  0  0  0  0  0  0
    0.0627   -1.5860   -1.6050 H   0  0  0  0  0  0  0  0  0  0  0  0
    0.1381    0.2137   -1.5016 H   0  0  0  0  0  0  0  0  0  0  0  0
    2.4751   -1.5308   -1.1351 H   0  0  0  0  0  0  0  0  0  0  0  0
    2.3221    2.5127   -0.1748 H   0  0  0  0  0  0  0  0  0  0  0  0
    4.5772    0.3046   -0.2523 H   0  0  0  0  0  0  0  0  0  0  0  0
    3.7479    0.5514    1.3111 H   0  0  0  0  0  0  0  0  0  0  0  0
  1  2  1  0
  2  3  1  0
  3  4  2  0
  4  5  1  0
  5  6  2  0
  6  7  1  0
  7  8  1  0
  8  9  1  0
  9 10  1  0
 10 11  2  3
 10 12  1  0
  6  2  1  0
  1 13  1  0
  1 14  1  0
  1 15  1  0
  5 16  1  0
  7 17  1  0
  7 18  1  0
  8 19  1  0
  8 20  1  0
  9 21  1  0
 11 22  1  0
 12 23  1  0
 12 24  1  0
M  END
$$$$

     RDKit          3D

 24 24  0  0  0  0  0  0  0  0999 V2000
   -3.5085   -1.0354   -0.1750 C   0  0  0  0  0  0  0  0  0  0  0  0
   -2.9638    0.2324    0.3063 N   0  0  0  0  0  0  0  0  0  0  0  0
   -3.6517    1.2826    0.7412 N   0  0  0  0  0  0  0  0  0  0  0  0
   -2.7680    2.2300    1.0856 N   0  0  0  0  0  0  0  0  0  0  0  0
   -1.5236    1.7758    0.8674 C   0  0  0  0  0  0  0  0  0  0  0  0
   -1.6513    0.4996    0.3695 C   0  0  0  0  0  0  0  0  0  0  0  0
   -0.5482   -0.3907   -0.0157 C   0  0  0  0  0  0  0  0  0  0  0  0
    0.8106    0.2507    0.1932 C   0  0  0  0  0  0  0  0  0  0  0  0
    1.8834   -0.6157   -0.1816 N   0  0  0  0  0  0  0  0  0  0  0  0
    3.2221   -0.1711   -0.0494 C   0  0  0  0  0  0  0  0  0  0  0  0
    3.5528    0.7120    0.8439 N   0  0  0  0  0  0  0  0  0  0  0  0
    4.2718   -0.6584   -0.8760 N   0  0  0  0  0  0  0  0  0  0  0  0
   -4.5433   -1.1491    0.2416 H   0  0  0  0  0  0  0  0  0  0  0  0
   -2.8905   -1.8953    0.0962 H   0  0  0  0  0  0  0  0  0  0  0  0
   -3.6201   -0.9967   -1.2844 H   0  0  0  0  0  0  0  0  0  0  0  0
   -0.6014    2.3043    1.0459 H   0  0  0  0  0  0  0  0  0  0  0  0
   -0.5518   -1.3511    0.5735 H   0  0  0  0  0  0  0  0  0  0  0  0
   -0.6009   -0.7059   -1.0777 H   0  0  0  0  0  0  0  0  0  0  0  0
    0.9042    0.6701    1.2165 H   0  0  0  0  0  0  0  0  0  0  0  0
    0.8354    1.1392   -0.5024 H   0  0  0  0  0  0  0  0  0  0  0  0
    1.7253   -1.5702   -0.5520 H   0  0  0  0  0  0  0  0  0  0  0  0
    2.8713    1.1409    1.5058 H   0  0  0  0  0  0  0  0  0  0  0  0
    4.3456   -0.4199   -1.8890 H   0  0  0  0  0  0  0  0  0  0  0  0
    5.0004   -1.2780   -0.4651 H   0  0  0  0  0  0  0  0  0  0  0  0
  1  2  1  0
  2  3  1  0
  3  4  2  0
  4  5  1  0
  5  6  2  0
  6  7  1  0
  7  8  1  0
  8  9  1  0
  9 10  1  0
 10 11  2  3
 10 12  1  0
  6  2  1  0
  1 13  1  0
  1 14  1  0
  1 15  1  0
  5 16  1  0
  7 17  1  0
  7 18  1  0
  8 19  1  0
  8 20  1  0
  9 21  1  0
 11 22  1  0
 12 23  1  0
 12 24  1  0
M  END
$$$$

     RDKit          3D

 24 24  0  0  0  0  0  0  0  0999 V2000
   -2.6800    1.3846    0.2663 C   0  0  0  0  0  0  0  0  0  0  0  0
   -2.6998   -0.0144   -0.1460 N   0  0  0  0  0  0  0  0  0  0  0  0
   -3.6458   -0.6745   -0.7981 N   0  0  0  0  0  0  0  0  0  0  0  0
   -3.3017   -1.9306   -0.9915 N   0  0  0  0  0  0  0  0  0  0  0  0
   -2.0830   -2.1278   -0.4528 C   0  0  0  0  0  0  0  0  0  0  0  0
   -1.7174   -0.9115    0.0758 C   0  0  0  0  0  0  0  0  0  0  0  0
   -0.4310   -0.6550    0.7781 C   0  0  0  0  0  0  0  0  0  0  0  0
    0.6088   -0.2073   -0.2538 C   0  0  0  0  0  0  0  0  0  0  0  0
    1.8652    0.0404    0.4505 N   0  0  0  0  0  0  0  0  0  0  0  0
    3.0274    0.4741   -0.2466 C   0  0  0  0  0  0  0  0  0  0  0  0
    3.1783    0.0536   -1.4798 N   0  0  0  0  0  0  0  0  0  0  0  0
    3.9913    1.3256    0.3545 N   0  0  0  0  0  0  0  0  0  0  0  0
   -2.2447    1.4831    1.2915 H   0  0  0  0  0  0  0  0  0  0  0  0
   -3.7289    1.7857    0.2987 H   0  0  0  0  0  0  0  0  0  0  0  0
   -2.1169    2.0191   -0.4587 H   0  0  0  0  0  0  0  0  0  0  0  0
   -1.4917   -3.0445   -0.4278 H   0  0  0  0  0  0  0  0  0  0  0  0
   -0.5764    0.1379    1.5315 H   0  0  0  0  0  0  0  0  0  0  0  0
   -0.0194   -1.5715    1.2444 H   0  0  0  0  0  0  0  0  0  0  0  0
    0.6981   -0.9508   -1.0470 H   0  0  0  0  0  0  0  0  0  0  0  0
    0.2052    0.7336   -0.6894 H   0  0  0  0  0  0  0  0  0  0  0  0
    1.9510   -0.0942    1.4975 H   0  0  0  0  0  0  0  0  0  0  0  0
    2.4896   -0.5658   -1.9355 H   0  0  0  0  0  0  0  0  0  0  0  0
    4.1869    1.3246    1.3761 H   0  0  0  0  0  0  0  0  0  0  0  0
    4.5348    1.9857   -0.2378 H   0  0  0  0  0  0  0  0  0  0  0  0
  1  2  1  0
  2  3  1  0
  3  4  2  0
  4  5  1  0
  5  6  2  0
  6  7  1  0
  7  8  1  0
  8  9  1  0
  9 10  1  0
 10 11  2  3
 10 12  1  0
  6  2  1  0
  1 13  1  0
  1 14  1  0
  1 15  1  0
  5 16  1  0
  7 17  1  0
  7 18  1  0
  8 19  1  0
  8 20  1  0
  9 21  1  0
 11 22  1  0
 12 23  1  0
 12 24  1  0
M  END
$$$$

     RDKit          3D

 24 24  0  0  0  0  0  0  0  0999 V2000
   -2.5612   -1.3962    0.6814 C   0  0  0  0  0  0  0  0  0  0  0  0
   -2.7298   -0.0132    0.2317 N   0  0  0  0  0  0  0  0  0  0  0  0
   -3.6867    0.8327    0.5105 N   0  0  0  0  0  0  0  0  0  0  0  0
   -3.5022    2.0009   -0.0812 N   0  0  0  0  0  0  0  0  0  0  0  0
   -2.3506    1.9053   -0.7896 C   0  0  0  0  0  0  0  0  0  0  0  0
   -1.8756    0.6289   -0.5818 C   0  0  0  0  0  0  0  0  0  0  0  0
   -0.6234    0.0366   -1.1546 C   0  0  0  0  0  0  0  0  0  0  0  0
    0.4831    0.3318   -0.1675 C   0  0  0  0  0  0  0  0  0  0  0  0
    1.7480   -0.2234   -0.6680 N   0  0  0  0  0  0  0  0  0  0  0  0
    2.9504   -0.0855    0.0711 C   0  0  0  0  0  0  0  0  0  0  0  0
    3.0095    0.6374    1.1296 N   0  0  0  0  0  0  0  0  0  0  0  0
    4.0996   -0.7625   -0.3767 N   0  0  0  0  0  0  0  0  0  0  0  0
   -2.1751   -2.0475   -0.1302 H   0  0  0  0  0  0  0  0  0  0  0  0
   -1.7627   -1.4008    1.4723 H   0  0  0  0  0  0  0  0  0  0  0  0
   -3.5137   -1.8081    1.0579 H   0  0  0  0  0  0  0  0  0  0  0  0
   -1.9087    2.6748   -1.3873 H   0  0  0  0  0  0  0  0  0  0  0  0
   -0.3885    0.4852   -2.1327 H   0  0  0  0  0  0  0  0  0  0  0  0
   -0.7749   -1.0387   -1.2963 H   0  0  0  0  0  0  0  0  0  0  0  0
    0.5720    1.4128    0.0139 H   0  0  0  0  0  0  0  0  0  0  0  0
    0.3118   -0.1600    0.8081 H   0  0  0  0  0  0  0  0  0  0  0  0
    1.7440   -0.7261   -1.5873 H   0  0  0  0  0  0  0  0  0  0  0  0
    3.8977    0.7334    1.6673 H   0  0  0  0  0  0  0  0  0  0  0  0
    4.3344   -0.7593   -1.3783 H   0  0  0  0  0  0  0  0  0  0  0  0
    4.7027   -1.2585    0.2930 H   0  0  0  0  0  0  0  0  0  0  0  0
  1  2  1  0
  2  3  1  0
  3  4  2  0
  4  5  1  0
  5  6  2  0
  6  7  1  0
  7  8  1  0
  8  9  1  0
  9 10  1  0
 10 11  2  3
 10 12  1  0
  6  2  1  0
  1 13  1  0
  1 14  1  0
  1 15  1  0
  5 16  1  0
  7 17  1  0
  7 18  1  0
  8 19  1  0
  8 20  1  0
  9 21  1  0
 11 22  1  0
 12 23  1  0
 12 24  1  0
M  END
$$$$

     RDKit          3D

 24 24  0  0  0  0  0  0  0  0999 V2000
   -1.9555    1.9000    0.0555 C   0  0  0  0  0  0  0  0  0  0  0  0
   -2.4167    0.5321    0.0291 N   0  0  0  0  0  0  0  0  0  0  0  0
   -3.6493    0.1449    0.2193 N   0  0  0  0  0  0  0  0  0  0  0  0
   -3.7364   -1.1849    0.1308 N   0  0  0  0  0  0  0  0  0  0  0  0
   -2.5023   -1.6502   -0.1259 C   0  0  0  0  0  0  0  0  0  0  0  0
   -1.6637   -0.5568   -0.1904 C   0  0  0  0  0  0  0  0  0  0  0  0
   -0.1862   -0.6434   -0.4601 C   0  0  0  0  0  0  0  0  0  0  0  0
    0.4887   -0.7758    0.8891 C   0  0  0  0  0  0  0  0  0  0  0  0
    1.9125   -0.8677    0.6490 N   0  0  0  0  0  0  0  0  0  0  0  0
    2.6171    0.2459    0.1570 C   0  0  0  0  0  0  0  0  0  0  0  0
    2.2372    1.4221    0.4402 N   0  0  0  0  0  0  0  0  0  0  0  0
    3.7576    0.0600   -0.6541 N   0  0  0  0  0  0  0  0  0  0  0  0
   -0.8525    1.9452    0.2217 H   0  0  0  0  0  0  0  0  0  0  0  0
   -2.4441    2.4767    0.8868 H   0  0  0  0  0  0  0  0  0  0  0  0
   -2.1561    2.4361   -0.9174 H   0  0  0  0  0  0  0  0  0  0  0  0
   -2.1870   -2.6730   -0.2623 H   0  0  0  0  0  0  0  0  0  0  0  0
    0.0738   -1.5029   -1.0945 H   0  0  0  0  0  0  0  0  0  0  0  0
    0.1539    0.2995   -0.9333 H   0  0  0  0  0  0  0  0  0  0  0  0
    0.0936   -1.6519    1.4443 H   0  0  0  0  0  0  0  0  0  0  0  0
    0.2394    0.1427    1.4583 H   0  0  0  0  0  0  0  0  0  0  0  0
    2.3848   -1.7959    0.8567 H   0  0  0  0  0  0  0  0  0  0  0  0
    1.4395    1.7167    1.0122 H   0  0  0  0  0  0  0  0  0  0  0  0
    3.6885    0.1479   -1.6844 H   0  0  0  0  0  0  0  0  0  0  0  0
    4.6630   -0.1673   -0.2014 H   0  0  0  0  0  0  0  0  0  0  0  0
  1  2  1  0
  2  3  1  0
  3  4  2  0
  4  5  1  0
  5  6  2  0
  6  7  1  0
  7  8  1  0
  8  9  1  0
  9 10  1  0
 10 11  2  3
 10 12  1  0
  6  2  1  0
  1 13  1  0
  1 14  1  0
  1 15  1  0
  5 16  1  0
  7 17  1  0
  7 18  1  0
  8 19  1  0
  8 20  1  0
  9 21  1  0
 11 22  1  0
 12 23  1  0
 12 24  1  0
M  END
$$$$

     RDKit          3D

 24 24  0  0  0  0  0  0  0  0999 V2000
   -2.7899    1.2603    1.1721 C   0  0  0  0  0  0  0  0  0  0  0  0
   -2.3922   -0.1234    0.9902 N   0  0  0  0  0  0  0  0  0  0  0  0
   -2.7925   -1.1768    1.6885 N   0  0  0  0  0  0  0  0  0  0  0  0
   -2.2231   -2.2816    1.2436 N   0  0  0  0  0  0  0  0  0  0  0  0
   -1.4310   -1.9035    0.2211 C   0  0  0  0  0  0  0  0  0  0  0  0
   -1.5191   -0.5408    0.0390 C   0  0  0  0  0  0  0  0  0  0  0  0
   -0.8269    0.2888   -0.9627 C   0  0  0  0  0  0  0  0  0  0  0  0
    0.5007    0.8272   -0.5033 C   0  0  0  0  0  0  0  0  0  0  0  0
    1.4328   -0.2108   -0.1648 N   0  0  0  0  0  0  0  0  0  0  0  0
    2.7476    0.0231    0.2953 C   0  0  0  0  0  0  0  0  0  0  0  0
    3.2604    1.1834    0.0687 N   0  0  0  0  0  0  0  0  0  0  0  0
    3.5086   -0.9712    0.9909 N   0  0  0  0  0  0  0  0  0  0  0  0
   -2.1373    1.7428    1.9271 H   0  0  0  0  0  0  0  0  0  0  0  0
   -3.8276    1.3270    1.5466 H   0  0  0  0  0  0  0  0  0  0  0  0
   -2.7569    1.8191    0.2145 H   0  0  0  0  0  0  0  0  0  0  0  0
   -0.8212   -2.5768   -0.3642 H   0  0  0  0  0  0  0  0  0  0  0  0
   -0.6104   -0.3062   -1.8947 H   0  0  0  0  0  0  0  0  0  0  0  0
   -1.5168    1.0861   -1.2912 H   0  0  0  0  0  0  0  0  0  0  0  0
    0.8594    1.5298   -1.2611 H   0  0  0  0  0  0  0  0  0  0  0  0
    0.3404    1.4392    0.4311 H   0  0  0  0  0  0  0  0  0  0  0  0
    1.1522   -1.2279   -0.2534 H   0  0  0  0  0  0  0  0  0  0  0  0
    4.2233    1.3909    0.3920 H   0  0  0  0  0  0  0  0  0  0  0  0
    3.4177   -1.9807    0.8527 H   0  0  0  0  0  0  0  0  0  0  0  0
    4.2020   -0.6180    1.6863 H   0  0  0  0  0  0  0  0  0  0  0  0
  1  2  1  0
  2  3  1  0
  3  4  2  0
  4  5  1  0
  5  6  2  0
  6  7  1  0
  7  8  1  0
  8  9  1  0
  9 10  1  0
 10 11  2  3
 10 12  1  0
  6  2  1  0
  1 13  1  0
  1 14  1  0
  1 15  1  0
  5 16  1  0
  7 17  1  0
  7 18  1  0
  8 19  1  0
  8 20  1  0
  9 21  1  0
 11 22  1  0
 12 23  1  0
 12 24  1  0
M  END
$$$$
