
     RDKit          3D

 27 27  0  0  0  0  0  0  0  0999 V2000
   -1.8955    1.4613    0.2790 C   0  0  0  0  0  0  0  0  0  0  0  0
   -1.5785    0.0781   -0.2016 C   0  0  2  0  0  0  0  0  0  0  0  0
   -2.6400   -0.8938    0.3355 C   0  0  1  0  0  0  0  0  0  0  0  0
   -3.6259   -1.1500   -0.5817 O   0  0  0  0  0  0  0  0  0  0  0  0
   -1.4489   -1.8420    0.2954 C   0  0  0  0  0  0  0  0  0  0  0  0
   -0.6326   -0.6729    0.5789 N   0  0  0  0  0  0  0  0  0  0  0  0
    0.6901   -0.8042    0.0188 C   0  0  0  0  0  0  0  0  0  0  0  0
    1.5544    0.3792    0.2915 C   0  0  1  0  0  0  0  0  0  0  0  0
    1.7591    0.6419    1.6286 O   0  0  0  0  0  0  0  0  0  0  0  0
    2.9225    0.1171   -0.3319 C   0  0  0  0  0  0  0  0  0  0  0  0
    3.8008    1.2512   -0.1944 N   0  0  0  0  0  0  0  0  0  0  0  0
   -1.9186    1.5006    1.3879 H   0  0  0  0  0  0  0  0  0  0  0  0
   -1.2609    2.2458   -0.1647 H   0  0  0  0  0  0  0  0  0  0  0  0
   -2.9437    1.6882   -0.0513 H   0  0  0  0  0  0  0  0  0  0  0  0
   -1.5128   -0.0044   -1.2883 H   0  0  0  0  0  0  0  0  0  0  0  0
   -2.9428   -0.7067    1.3734 H   0  0  0  0  0  0  0  0  0  0  0  0
   -4.4284   -0.6319   -0.3112 H   0  0  0  0  0  0  0  0  0  0  0  0
   -1.3464   -2.2149   -0.7657 H   0  0  0  0  0  0  0  0  0  0  0  0
   -1.4440   -2.6292    1.0537 H   0  0  0  0  0  0  0  0  0  0  0  0
    0.6938   -1.0030   -1.0616 H   0  0  0  0  0  0  0  0  0  0  0  0
    1.1584   -1.6990    0.5113 H   0  0  0  0  0  0  0  0  0  0  0  0
    1.1106    1.2692   -0.2230 H   0  0  0  0  0  0  0  0  0  0  0  0
    1.4916    1.5851    1.8372 H   0  0  0  0  0  0  0  0  0  0  0  0
    2.8520   -0.1421   -1.3992 H   0  0  0  0  0  0  0  0  0  0  0  0
    3.3952   -0.7485    0.1851 H   0  0  0  0  0  0  0  0  0  0  0  0
    3.4428    1.9761    0.4497 H   0  0  0  0  0  0  0  0  0  0  0  0
    4.7479    0.9486    0.1116 H   0  0  0  0  0  0  0  0  0  0  0  0
  1  2  1  0
  2  3  1  0
  3  4  1  0
  3  5  1  0
  5  6  1  0
  6  7  1  0
  7  8  1  0
  8  9  1  0
  8 10  1  0
 10 11  1  0
  6  2  1  0
  1 12  1  0
  1 13  1  0
  1 14  1  0
  2 15  1  6
  3 16  1  1
  4 17  1  0
  5 18  1  0
  5 19  1  0
  7 20  1  0
  7 21  1  0
  8 22  1  6
  9 23  1  0
 10 24  1  0
 10 25  1  0
 11 26  1  0
 11 27  1  0
M  END
$$$$

     RDKit          3D

 27 27  0  0  0  0  0  0  0  0999 V2000
    1.9288    1.4502   -0.6249 C   0  0  0  0  0  0  0  0  0  0  0  0
    1.6374    0.1795    0.1135 C   0  0  2  0  0  0  0  0  0  0  0  0
    2.5039   -1.0044   -0.3021 C   0  0  1  0  0  0  0  0  0  0  0  0
    3.5589   -1.2675    0.5435 O   0  0  0  0  0  0  0  0  0  0  0  0
    1.2282   -1.7819   -0.0177 C   0  0  0  0  0  0  0  0  0  0  0  0
    0.5036   -0.5564   -0.3902 N   0  0  0  0  0  0  0  0  0  0  0  0
   -0.7223   -0.4220    0.3438 C   0  0  0  0  0  0  0  0  0  0  0  0
   -1.4066    0.8620   -0.0970 C   0  0  1  0  0  0  0  0  0  0  0  0
   -1.6811    0.8160   -1.4676 O   0  0  0  0  0  0  0  0  0  0  0  0
   -2.7675    0.8799    0.6099 C   0  0  0  0  0  0  0  0  0  0  0  0
   -3.4862   -0.3221    0.2527 N   0  0  0  0  0  0  0  0  0  0  0  0
    1.4931    2.2900   -0.0468 H   0  0  0  0  0  0  0  0  0  0  0  0
    3.0375    1.6196   -0.6683 H   0  0  0  0  0  0  0  0  0  0  0  0
    1.5133    1.4428   -1.6619 H   0  0  0  0  0  0  0  0  0  0  0  0
    1.6809    0.3252    1.2015 H   0  0  0  0  0  0  0  0  0  0  0  0
    2.7277   -0.9458   -1.3815 H   0  0  0  0  0  0  0  0  0  0  0  0
    3.9518   -2.1306    0.2666 H   0  0  0  0  0  0  0  0  0  0  0  0
    1.0413   -2.6365   -0.6914 H   0  0  0  0  0  0  0  0  0  0  0  0
    1.1123   -1.9896    1.0717 H   0  0  0  0  0  0  0  0  0  0  0  0
   -0.5801   -0.3600    1.4328 H   0  0  0  0  0  0  0  0  0  0  0  0
   -1.3874   -1.2716    0.0886 H   0  0  0  0  0  0  0  0  0  0  0  0
   -0.8342    1.7523    0.1853 H   0  0  0  0  0  0  0  0  0  0  0  0
   -1.0659    1.3914   -1.9912 H   0  0  0  0  0  0  0  0  0  0  0  0
   -2.6120    0.8744    1.7083 H   0  0  0  0  0  0  0  0  0  0  0  0
   -3.3037    1.8036    0.2639 H   0  0  0  0  0  0  0  0  0  0  0  0
   -4.2251   -0.1564   -0.4535 H   0  0  0  0  0  0  0  0  0  0  0  0
   -3.8466   -0.8421    1.0831 H   0  0  0  0  0  0  0  0  0  0  0  0
  1  2  1  0
  2  3  1  0
  3  4  1  0
  3  5  1  0
  5  6  1  0
  6  7  1  0
  7  8  1  0
  8  9  1  0
  8 10  1  0
 10 11  1  0
  6  2  1  0
  1 12  1  0
  1 13  1  0
  1 14  1  0
  2 15  1  1
  3 16  1  6
  4 17  1  0
  5 18  1  0
  5 19  1  0
  7 20  1  0
  7 21  1  0
  8 22  1  6
  9 23  1  0
 10 24  1  0
 10 25  1  0
 11 26  1  0
 11 27  1  0
M  END
$$$$

     RDKit          3D

 27 27  0  0  0  0  0  0  0  0999 V2000
   -2.8251   -1.4547    0.2153 C   0  0  0  0  0  0  0  0  0  0  0  0
   -1.8882   -0.3076    0.5322 C   0  0  2  0  0  0  0  0  0  0  0  0
   -2.2329    1.0065   -0.1167 C   0  0  1  0  0  0  0  0  0  0  0  0
   -2.0089    2.0871    0.7274 O   0  0  0  0  0  0  0  0  0  0  0  0
   -1.0557    0.7376   -1.0335 C   0  0  0  0  0  0  0  0  0  0  0  0
   -0.7031   -0.4110   -0.2781 N   0  0  0  0  0  0  0  0  0  0  0  0
    0.4846   -0.4507    0.4870 C   0  0  0  0  0  0  0  0  0  0  0  0
    1.7531   -0.4974   -0.3241 C   0  0  1  0  0  0  0  0  0  0  0  0
    1.9417    0.5837   -1.1595 O   0  0  0  0  0  0  0  0  0  0  0  0
    2.9195   -0.5678    0.6391 C   0  0  0  0  0  0  0  0  0  0  0  0
    2.9532    0.6732    1.3916 N   0  0  0  0  0  0  0  0  0  0  0  0
   -3.8682   -1.1373    0.2874 H   0  0  0  0  0  0  0  0  0  0  0  0
   -2.5821   -1.8747   -0.8022 H   0  0  0  0  0  0  0  0  0  0  0  0
   -2.6337   -2.2780    0.9345 H   0  0  0  0  0  0  0  0  0  0  0  0
   -1.7699   -0.2073    1.6149 H   0  0  0  0  0  0  0  0  0  0  0  0
   -3.2146    1.0829   -0.5701 H   0  0  0  0  0  0  0  0  0  0  0  0
   -2.3536    2.9319    0.3588 H   0  0  0  0  0  0  0  0  0  0  0  0
   -0.3368    1.5559   -1.0848 H   0  0  0  0  0  0  0  0  0  0  0  0
   -1.4418    0.4862   -2.0643 H   0  0  0  0  0  0  0  0  0  0  0  0
    0.4692   -1.4010    1.0891 H   0  0  0  0  0  0  0  0  0  0  0  0
    0.6046    0.3711    1.2261 H   0  0  0  0  0  0  0  0  0  0  0  0
    1.8008   -1.4556   -0.9098 H   0  0  0  0  0  0  0  0  0  0  0  0
    2.8119    0.4551   -1.6175 H   0  0  0  0  0  0  0  0  0  0  0  0
    2.7684   -1.4652    1.3108 H   0  0  0  0  0  0  0  0  0  0  0  0
    3.8863   -0.7762    0.1067 H   0  0  0  0  0  0  0  0  0  0  0  0
    2.5863    1.4258    0.7547 H   0  0  0  0  0  0  0  0  0  0  0  0
    3.9348    0.8875    1.7178 H   0  0  0  0  0  0  0  0  0  0  0  0
  1  2  1  0
  2  3  1  0
  3  4  1  0
  3  5  1  0
  5  6  1  0
  6  7  1  0
  7  8  1  0
  8  9  1  0
  8 10  1  0
 10 11  1  0
  6  2  1  0
  1 12  1  0
  1 13  1  0
  1 14  1  0
  2 15  1  1
  3 16  1  6
  4 17  1  0
  5 18  1  0
  5 19  1  0
  7 20  1  0
  7 21  1  0
  8 22  1  6
  9 23  1  0
 10 24  1  0
 10 25  1  0
 11 26  1  0
 11 27  1  0
M  END
$$$$

     RDKit          3D

 27 27  0  0  0  0  0  0  0  0999 V2000
   -1.6628   -1.5058    1.0959 C   0  0  0  0  0  0  0  0  0  0  0  0
   -1.2810   -0.0831    0.6783 C   0  0  2  0  0  0  0  0  0  0  0  0
   -2.5157    0.5554    0.0238 C   0  0  1  0  0  0  0  0  0  0  0  0
   -2.4891    1.9286    0.1289 O   0  0  0  0  0  0  0  0  0  0  0  0
   -1.8512    0.1027   -1.2586 C   0  0  0  0  0  0  0  0  0  0  0  0
   -0.6314   -0.0402   -0.5225 N   0  0  0  0  0  0  0  0  0  0  0  0
    0.4187    0.7464   -0.9510 C   0  0  0  0  0  0  0  0  0  0  0  0
    1.7318    0.6763   -0.2564 C   0  0  1  0  0  0  0  0  0  0  0  0
    1.7236    1.0006    1.0702 O   0  0  0  0  0  0  0  0  0  0  0  0
    2.3008   -0.7477   -0.3487 C   0  0  0  0  0  0  0  0  0  0  0  0
    3.6356   -0.8134    0.1872 N   0  0  0  0  0  0  0  0  0  0  0  0
   -2.1150   -1.4643    2.1176 H   0  0  0  0  0  0  0  0  0  0  0  0
   -0.7642   -2.1460    1.1794 H   0  0  0  0  0  0  0  0  0  0  0  0
   -2.4397   -1.9309    0.4317 H   0  0  0  0  0  0  0  0  0  0  0  0
   -1.0219    0.4821    1.5579 H   0  0  0  0  0  0  0  0  0  0  0  0
   -3.4534    0.0417    0.2147 H   0  0  0  0  0  0  0  0  0  0  0  0
   -2.1978    2.2403    1.0187 H   0  0  0  0  0  0  0  0  0  0  0  0
   -2.2601   -0.8358   -1.6831 H   0  0  0  0  0  0  0  0  0  0  0  0
   -1.7899    0.8824   -2.0284 H   0  0  0  0  0  0  0  0  0  0  0  0
    0.5949    0.5410   -2.0321 H   0  0  0  0  0  0  0  0  0  0  0  0
    0.0962    1.8245   -0.9340 H   0  0  0  0  0  0  0  0  0  0  0  0
    2.4874    1.3218   -0.7522 H   0  0  0  0  0  0  0  0  0  0  0  0
    1.6573    0.2460    1.6933 H   0  0  0  0  0  0  0  0  0  0  0  0
    2.2582   -1.0802   -1.4103 H   0  0  0  0  0  0  0  0  0  0  0  0
    1.6667   -1.4562    0.2230 H   0  0  0  0  0  0  0  0  0  0  0  0
    4.2560   -0.2849   -0.4961 H   0  0  0  0  0  0  0  0  0  0  0  0
    3.6461   -0.2013    1.0527 H   0  0  0  0  0  0  0  0  0  0  0  0
  1  2  1  0
  2  3  1  0
  3  4  1  0
  3  5  1  0
  5  6  1  0
  6  7  1  0
  7  8  1  0
  8  9  1  0
  8 10  1  0
 10 11  1  0
  6  2  1  0
  1 12  1  0
  1 13  1  0
  1 14  1  0
  2 15  1  1
  3 16  1  1
  4 17  1  0
  5 18  1  0
  5 19  1  0
  7 20  1  0
  7 21  1  0
  8 22  1  6
  9 23  1  0
 10 24  1  0
 10 25  1  0
 11 26  1  0
 11 27  1  0
M  END
$$$$

     RDKit          3D

 27 27  0  0  0  0  0  0  0  0999 V2000
   -2.7389    0.8197   -0.6708 C   0  0  0  0  0  0  0  0  0  0  0  0
   -1.8824   -0.3325   -0.2398 C   0  0  2  0  0  0  0  0  0  0  0  0
   -1.7947   -0.5599    1.2465 C   0  0  1  0  0  0  0  0  0  0  0  0
   -2.6836   -1.4928    1.6868 O   0  0  0  0  0  0  0  0  0  0  0  0
   -0.3912   -1.0984    0.8724 C   0  0  0  0  0  0  0  0  0  0  0  0
   -0.4910   -0.2537   -0.2758 N   0  0  0  0  0  0  0  0  0  0  0  0
    0.2786    0.8995   -0.2887 C   0  0  0  0  0  0  0  0  0  0  0  0
    1.7235    0.6668   -0.5778 C   0  0  1  0  0  0  0  0  0  0  0  0
    2.4531    1.8715   -0.5157 O   0  0  0  0  0  0  0  0  0  0  0  0
    2.3866   -0.3680    0.2298 C   0  0  0  0  0  0  0  0  0  0  0  0
    3.7721   -0.5666   -0.2925 N   0  0  0  0  0  0  0  0  0  0  0  0
   -2.4853    1.2202   -1.6552 H   0  0  0  0  0  0  0  0  0  0  0  0
   -3.7777    0.4036   -0.8069 H   0  0  0  0  0  0  0  0  0  0  0  0
   -2.8641    1.6005    0.1070 H   0  0  0  0  0  0  0  0  0  0  0  0
   -2.2234   -1.2835   -0.7590 H   0  0  0  0  0  0  0  0  0  0  0  0
   -1.7031    0.3694    1.8377 H   0  0  0  0  0  0  0  0  0  0  0  0
   -3.5930   -1.0803    1.6032 H   0  0  0  0  0  0  0  0  0  0  0  0
    0.3333   -0.8710    1.6465 H   0  0  0  0  0  0  0  0  0  0  0  0
   -0.4621   -2.1773    0.6272 H   0  0  0  0  0  0  0  0  0  0  0  0
   -0.0989    1.6785   -1.0360 H   0  0  0  0  0  0  0  0  0  0  0  0
    0.1948    1.5081    0.6853 H   0  0  0  0  0  0  0  0  0  0  0  0
    1.7574    0.2856   -1.6548 H   0  0  0  0  0  0  0  0  0  0  0  0
    1.9814    2.5795   -0.0162 H   0  0  0  0  0  0  0  0  0  0  0  0
    2.4977   -0.2219    1.2977 H   0  0  0  0  0  0  0  0  0  0  0  0
    1.8768   -1.3682    0.0409 H   0  0  0  0  0  0  0  0  0  0  0  0
    3.6493   -1.0963   -1.1878 H   0  0  0  0  0  0  0  0  0  0  0  0
    4.2847   -1.1324    0.4255 H   0  0  0  0  0  0  0  0  0  0  0  0
  1  2  1  0
  2  3  1  0
  3  4  1  0
  3  5  1  0
  5  6  1  0
  6  7  1  0
  7  8  1  0
  8  9  1  0
  8 10  1  0
 10 11  1  0
  6  2  1  0
  1 12  1  0
  1 13  1  0
  1 14  1  0
  2 15  1  6
  3 16  1  1
  4 17  1  0
  5 18  1  0
  5 19  1  0
  7 20  1  0
  7 21  1  0
  8 22  1  6
  9 23  1  0
 10 24  1  0
 10 25  1  0
 11 26  1  0
 11 27  1  0
M  END
$$$$

     RDKit          3D

 27 27  0  0  0  0  0  0  0  0999 V2000
   -1.7003   -1.7220   -0.7204 C   0  0  0  0  0  0  0  0  0  0  0  0
   -1.5285   -0.4994    0.0992 C   0  0  2  0  0  0  0  0  0  0  0  0
   -2.3691    0.6378   -0.4716 C   0  0  1  0  0  0  0  0  0  0  0  0
   -3.6156    0.6632    0.0844 O   0  0  0  0  0  0  0  0  0  0  0  0
   -1.3027    1.4455    0.2342 C   0  0  0  0  0  0  0  0  0  0  0  0
   -0.3766    0.3574   -0.1709 N   0  0  0  0  0  0  0  0  0  0  0  0
    0.6322    0.3075    0.8757 C   0  0  0  0  0  0  0  0  0  0  0  0
    1.7543   -0.6267    0.6354 C   0  0  1  0  0  0  0  0  0  0  0  0
    1.4548   -1.9477    0.4695 O   0  0  0  0  0  0  0  0  0  0  0  0
    2.5570   -0.1284   -0.5728 C   0  0  0  0  0  0  0  0  0  0  0  0
    2.8084    1.2749   -0.2996 N   0  0  0  0  0  0  0  0  0  0  0  0
   -2.7108   -2.1458   -0.4164 H   0  0  0  0  0  0  0  0  0  0  0  0
   -1.0076   -2.5435   -0.5424 H   0  0  0  0  0  0  0  0  0  0  0  0
   -1.8312   -1.4903   -1.7941 H   0  0  0  0  0  0  0  0  0  0  0  0
   -1.6911   -0.6023    1.1921 H   0  0  0  0  0  0  0  0  0  0  0  0
   -2.2957    0.7688   -1.5601 H   0  0  0  0  0  0  0  0  0  0  0  0
   -3.8852    1.5577    0.4030 H   0  0  0  0  0  0  0  0  0  0  0  0
   -1.0433    2.4181   -0.2054 H   0  0  0  0  0  0  0  0  0  0  0  0
   -1.4655    1.4231    1.3199 H   0  0  0  0  0  0  0  0  0  0  0  0
    0.0589    0.0096    1.8063 H   0  0  0  0  0  0  0  0  0  0  0  0
    0.9842    1.3388    1.0398 H   0  0  0  0  0  0  0  0  0  0  0  0
    2.4779   -0.5090    1.4960 H   0  0  0  0  0  0  0  0  0  0  0  0
    2.0734   -2.3230   -0.2365 H   0  0  0  0  0  0  0  0  0  0  0  0
    1.9765   -0.2239   -1.5113 H   0  0  0  0  0  0  0  0  0  0  0  0
    3.5262   -0.6574   -0.5869 H   0  0  0  0  0  0  0  0  0  0  0  0
    3.0642    1.8113   -1.1483 H   0  0  0  0  0  0  0  0  0  0  0  0
    3.4551    1.4058    0.5052 H   0  0  0  0  0  0  0  0  0  0  0  0
  1  2  1  0
  2  3  1  0
  3  4  1  0
  3  5  1  0
  5  6  1  0
  6  7  1  0
  7  8  1  0
  8  9  1  0
  8 10  1  0
 10 11  1  0
  6  2  1  0
  1 12  1  0
  1 13  1  0
  1 14  1  0
  2 15  1  1
  3 16  1  6
  4 17  1  0
  5 18  1  0
  5 19  1  0
  7 20  1  0
  7 21  1  0
  8 22  1  1
  9 23  1  0
 10 24  1  0
 10 25  1  0
 11 26  1  0
 11 27  1  0
M  END
$$$$

     RDKit          3D

 27 27  0  0  0  0  0  0  0  0999 V2000
   -1.9877    1.8644   -0.0977 C   0  0  0  0  0  0  0  0  0  0  0  0
   -1.8733    0.4436   -0.4966 C   0  0  2  0  0  0  0  0  0  0  0  0
   -2.5428   -0.4563    0.5578 C   0  0  1  0  0  0  0  0  0  0  0  0
   -3.2783   -1.5032    0.0133 O   0  0  0  0  0  0  0  0  0  0  0  0
   -1.1261   -0.8919    0.9363 C   0  0  0  0  0  0  0  0  0  0  0  0
   -0.6982   -0.2781   -0.2929 N   0  0  0  0  0  0  0  0  0  0  0  0
    0.5761    0.3317   -0.3284 C   0  0  0  0  0  0  0  0  0  0  0  0
    1.5940   -0.7887   -0.2349 C   0  0  1  0  0  0  0  0  0  0  0  0
    1.4078   -1.6333   -1.3171 O   0  0  0  0  0  0  0  0  0  0  0  0
    3.0222   -0.3437   -0.2116 C   0  0  0  0  0  0  0  0  0  0  0  0
    3.3337    0.5572    0.8602 N   0  0  0  0  0  0  0  0  0  0  0  0
   -2.9450    2.0057    0.4441 H   0  0  0  0  0  0  0  0  0  0  0  0
   -2.0741    2.4881   -1.0270 H   0  0  0  0  0  0  0  0  0  0  0  0
   -1.1789    2.2320    0.5647 H   0  0  0  0  0  0  0  0  0  0  0  0
   -2.3431    0.2533   -1.4884 H   0  0  0  0  0  0  0  0  0  0  0  0
   -3.0023    0.0883    1.3944 H   0  0  0  0  0  0  0  0  0  0  0  0
   -2.6186   -2.0773   -0.4629 H   0  0  0  0  0  0  0  0  0  0  0  0
   -0.7590   -0.4519    1.8755 H   0  0  0  0  0  0  0  0  0  0  0  0
   -0.9544   -1.9878    0.8956 H   0  0  0  0  0  0  0  0  0  0  0  0
    0.7101    0.7822   -1.3351 H   0  0  0  0  0  0  0  0  0  0  0  0
    0.7362    1.1043    0.4526 H   0  0  0  0  0  0  0  0  0  0  0  0
    1.3437   -1.3712    0.6808 H   0  0  0  0  0  0  0  0  0  0  0  0
    1.6031   -1.1697   -2.1767 H   0  0  0  0  0  0  0  0  0  0  0  0
    3.3788   -0.0115   -1.1939 H   0  0  0  0  0  0  0  0  0  0  0  0
    3.6061   -1.2871    0.0012 H   0  0  0  0  0  0  0  0  0  0  0  0
    3.5050    1.4985    0.4192 H   0  0  0  0  0  0  0  0  0  0  0  0
    2.5652    0.6023    1.5674 H   0  0  0  0  0  0  0  0  0  0  0  0
  1  2  1  0
  2  3  1  0
  3  4  1  0
  3  5  1  0
  5  6  1  0
  6  7  1  0
  7  8  1  0
  8  9  1  0
  8 10  1  0
 10 11  1  0
  6  2  1  0
  1 12  1  0
  1 13  1  0
  1 14  1  0
  2 15  1  6
  3 16  1  1
  4 17  1  0
  5 18  1  0
  5 19  1  0
  7 20  1  0
  7 21  1  0
  8 22  1  1
  9 23  1  0
 10 24  1  0
 10 25  1  0
 11 26  1  0
 11 27  1  0
M  END
$$$$

     RDKit          3D

 27 27  0  0  0  0  0  0  0  0999 V2000
    1.8507    1.7438    0.3711 C   0  0  0  0  0  0  0  0  0  0  0  0
    1.5530    0.3467    0.7771 C   0  0  2  0  0  0  0  0  0  0  0  0
    2.1827   -0.6583   -0.1625 C   0  0  1  0  0  0  0  0  0  0  0  0
    3.3734   -1.1663    0.3302 O   0  0  0  0  0  0  0  0  0  0  0  0
    0.9362   -1.4749    0.2409 C   0  0  0  0  0  0  0  0  0  0  0  0
    0.2782   -0.2175    0.5202 N   0  0  0  0  0  0  0  0  0  0  0  0
   -0.4939    0.3408   -0.5348 C   0  0  0  0  0  0  0  0  0  0  0  0
   -1.7414   -0.4266   -0.8580 C   0  0  1  0  0  0  0  0  0  0  0  0
   -1.5753   -1.7205   -1.2485 O   0  0  0  0  0  0  0  0  0  0  0  0
   -2.7132   -0.3261    0.3246 C   0  0  0  0  0  0  0  0  0  0  0  0
   -2.7878    1.0926    0.6212 N   0  0  0  0  0  0  0  0  0  0  0  0
    1.6611    1.9890   -0.6855 H   0  0  0  0  0  0  0  0  0  0  0  0
    1.4006    2.5097    1.0440 H   0  0  0  0  0  0  0  0  0  0  0  0
    2.9630    1.8902    0.5212 H   0  0  0  0  0  0  0  0  0  0  0  0
    1.9389    0.1782    1.8209 H   0  0  0  0  0  0  0  0  0  0  0  0
    2.2019   -0.3466   -1.2083 H   0  0  0  0  0  0  0  0  0  0  0  0
    4.0895   -0.5803   -0.0363 H   0  0  0  0  0  0  0  0  0  0  0  0
    0.6224   -2.0460   -0.6280 H   0  0  0  0  0  0  0  0  0  0  0  0
    1.1650   -2.0164    1.1674 H   0  0  0  0  0  0  0  0  0  0  0  0
    0.1128    0.4462   -1.4574 H   0  0  0  0  0  0  0  0  0  0  0  0
   -0.7968    1.3668   -0.2585 H   0  0  0  0  0  0  0  0  0  0  0  0
   -2.2637    0.1134   -1.6980 H   0  0  0  0  0  0  0  0  0  0  0  0
   -1.7442   -2.4088   -0.5606 H   0  0  0  0  0  0  0  0  0  0  0  0
   -3.6744   -0.7806    0.0737 H   0  0  0  0  0  0  0  0  0  0  0  0
   -2.2537   -0.8318    1.1928 H   0  0  0  0  0  0  0  0  0  0  0  0
   -3.1229    1.3257    1.5570 H   0  0  0  0  0  0  0  0  0  0  0  0
   -3.1621    1.6576   -0.1634 H   0  0  0  0  0  0  0  0  0  0  0  0
  1  2  1  0
  2  3  1  0
  3  4  1  0
  3  5  1  0
  5  6  1  0
  6  7  1  0
  7  8  1  0
  8  9  1  0
  8 10  1  0
 10 11  1  0
  6  2  1  0
  1 12  1  0
  1 13  1  0
  1 14  1  0
  2 15  1  1
  3 16  1  6
  4 17  1  0
  5 18  1  0
  5 19  1  0
  7 20  1  0
  7 21  1  0
  8 22  1  6
  9 23  1  0
 10 24  1  0
 10 25  1  0
 11 26  1  0
 11 27  1  0
M  END
$$$$
