
     RDKit          3D

 22 22  0  0  0  0  0  0  0  0999 V2000
    4.0154    0.6546    0.5961 N   0  0  0  0  0  0  0  0  0  0  0  0
    2.6827    0.2587    0.9798 C   0  0  0  0  0  0  0  0  0  0  0  0
    1.8849   -0.0878   -0.2489 C   0  0  0  0  0  0  0  0  0  0  0  0
    2.3922   -0.0119   -1.3925 O   0  0  0  0  0  0  0  0  0  0  0  0
    0.5658   -0.5007   -0.1476 O   0  0  0  0  0  0  0  0  0  0  0  0
   -0.1778   -0.8252   -1.3145 C   0  0  0  0  0  0  0  0  0  0  0  0
   -1.6004   -1.2499   -0.9304 C   0  0  0  0  0  0  0  0  0  0  0  0
   -2.2820   -0.1806   -0.2326 N   0  0  0  0  0  0  0  0  0  0  0  0
   -2.2743    0.0057    1.0896 C   0  0  0  0  0  0  0  0  0  0  0  0
   -3.0285    1.1134    1.3560 N   0  0  0  0  0  0  0  0  0  0  0  0
   -3.4913    1.5962    0.1997 C   0  0  0  0  0  0  0  0  0  0  0  0
   -3.0090    0.7712   -0.7527 N   0  0  0  0  0  0  0  0  0  0  0  0
    4.3844    1.2859    1.3424 H   0  0  0  0  0  0  0  0  0  0  0  0
    4.6663   -0.1718    0.5620 H   0  0  0  0  0  0  0  0  0  0  0  0
    2.6773   -0.5700    1.7111 H   0  0  0  0  0  0  0  0  0  0  0  0
    2.2080    1.1564    1.4561 H   0  0  0  0  0  0  0  0  0  0  0  0
    0.3068   -1.6110   -1.9246 H   0  0  0  0  0  0  0  0  0  0  0  0
   -0.3034    0.0584   -1.9750 H   0  0  0  0  0  0  0  0  0  0  0  0
   -1.6018   -2.1510   -0.3066 H   0  0  0  0  0  0  0  0  0  0  0  0
   -2.1299   -1.3930   -1.8996 H   0  0  0  0  0  0  0  0  0  0  0  0
   -1.7671   -0.6033    1.8214 H   0  0  0  0  0  0  0  0  0  0  0  0
   -4.1182    2.4557    0.0111 H   0  0  0  0  0  0  0  0  0  0  0  0
  1  2  1  0
  2  3  1  0
  3  4  2  0
  3  5  1  0
  5  6  1  0
  6  7  1  0
  7  8  1  0
  8  9  1  0
  9 10  2  0
 10 11  1  0
 11 12  2  0
 12  8  1  0
  1 13  1  0
  1 14  1  0
  2 15  1  0
  2 16  1  0
  6 17  1  0
  6 18  1  0
  7 19  1  0
  7 20  1  0
  9 21  1  0
 11 22  1  0
M  END
$$$$

     RDKit          3D

 22 22  0  0  0  0  0  0  0  0999 V2000
    4.0639    0.2097   -0.3789 N   0  0  0  0  0  0  0  0  0  0  0  0
    3.4504   -0.0996    0.8938 C   0  0  0  0  0  0  0  0  0  0  0  0
    2.0011   -0.3582    0.7408 C   0  0  0  0  0  0  0  0  0  0  0  0
    1.3486   -0.6399    1.7787 O   0  0  0  0  0  0  0  0  0  0  0  0
    1.3212   -0.3115   -0.4553 O   0  0  0  0  0  0  0  0  0  0  0  0
   -0.0459   -0.5479   -0.6454 C   0  0  0  0  0  0  0  0  0  0  0  0
   -0.9314    0.3994    0.1146 C   0  0  0  0  0  0  0  0  0  0  0  0
   -2.3236    0.1440   -0.0917 N   0  0  0  0  0  0  0  0  0  0  0  0
   -3.0661    0.6974   -1.0608 C   0  0  0  0  0  0  0  0  0  0  0  0
   -4.3327    0.2217   -0.9453 N   0  0  0  0  0  0  0  0  0  0  0  0
   -4.3451   -0.6273    0.1075 C   0  0  0  0  0  0  0  0  0  0  0  0
   -3.1020   -0.6617    0.6186 N   0  0  0  0  0  0  0  0  0  0  0  0
    4.8807    0.8281   -0.1751 H   0  0  0  0  0  0  0  0  0  0  0  0
    3.3852    0.7803   -0.9295 H   0  0  0  0  0  0  0  0  0  0  0  0
    3.5436    0.8092    1.5358 H   0  0  0  0  0  0  0  0  0  0  0  0
    3.9747   -0.9109    1.4330 H   0  0  0  0  0  0  0  0  0  0  0  0
   -0.3019   -1.5924   -0.3855 H   0  0  0  0  0  0  0  0  0  0  0  0
   -0.2562   -0.3843   -1.7298 H   0  0  0  0  0  0  0  0  0  0  0  0
   -0.6494    0.3901    1.1772 H   0  0  0  0  0  0  0  0  0  0  0  0
   -0.6726    1.4333   -0.2618 H   0  0  0  0  0  0  0  0  0  0  0  0
   -2.7155    1.4019   -1.8063 H   0  0  0  0  0  0  0  0  0  0  0  0
   -5.2270   -1.1814    0.4656 H   0  0  0  0  0  0  0  0  0  0  0  0
  1  2  1  0
  2  3  1  0
  3  4  2  0
  3  5  1  0
  5  6  1  0
  6  7  1  0
  7  8  1  0
  8  9  1  0
  9 10  2  0
 10 11  1  0
 11 12  2  0
 12  8  1  0
  1 13  1  0
  1 14  1  0
  2 15  1  0
  2 16  1  0
  6 17  1  0
  6 18  1  0
  7 19  1  0
  7 20  1  0
  9 21  1  0
 11 22  1  0
M  END
$$$$

     RDKit          3D

 22 22  0  0  0  0  0  0  0  0999 V2000
   -4.1496    0.2966    0.7611 N   0  0  0  0  0  0  0  0  0  0  0  0
   -3.4022   -0.4573   -0.2119 C   0  0  0  0  0  0  0  0  0  0  0  0
   -1.9461   -0.4059    0.2005 C   0  0  0  0  0  0  0  0  0  0  0  0
   -1.6265    0.2285    1.2370 O   0  0  0  0  0  0  0  0  0  0  0  0
   -0.9862   -1.0459   -0.5508 O   0  0  0  0  0  0  0  0  0  0  0  0
    0.3637   -1.0118   -0.2034 C   0  0  0  0  0  0  0  0  0  0  0  0
    0.8742    0.3945   -0.2689 C   0  0  0  0  0  0  0  0  0  0  0  0
    2.2947    0.4735    0.0846 N   0  0  0  0  0  0  0  0  0  0  0  0
    3.3467    0.3756   -0.7334 C   0  0  0  0  0  0  0  0  0  0  0  0
    4.4517    0.5046    0.0088 N   0  0  0  0  0  0  0  0  0  0  0  0
    4.1091    0.6846    1.2988 C   0  0  0  0  0  0  0  0  0  0  0  0
    2.7543    0.6596    1.3090 N   0  0  0  0  0  0  0  0  0  0  0  0
   -5.0253   -0.1656    1.0625 H   0  0  0  0  0  0  0  0  0  0  0  0
   -4.3273    1.2697    0.4546 H   0  0  0  0  0  0  0  0  0  0  0  0
   -3.7377   -1.5106   -0.2694 H   0  0  0  0  0  0  0  0  0  0  0  0
   -3.4756    0.0138   -1.2331 H   0  0  0  0  0  0  0  0  0  0  0  0
    0.4463   -1.4405    0.8266 H   0  0  0  0  0  0  0  0  0  0  0  0
    0.9461   -1.6740   -0.8839 H   0  0  0  0  0  0  0  0  0  0  0  0
    0.2679    1.0495    0.3706 H   0  0  0  0  0  0  0  0  0  0  0  0
    0.7405    0.7196   -1.3415 H   0  0  0  0  0  0  0  0  0  0  0  0
    3.3112    0.2218   -1.7915 H   0  0  0  0  0  0  0  0  0  0  0  0
    4.7701    0.8196    2.1421 H   0  0  0  0  0  0  0  0  0  0  0  0
  1  2  1  0
  2  3  1  0
  3  4  2  0
  3  5  1  0
  5  6  1  0
  6  7  1  0
  7  8  1  0
  8  9  1  0
  9 10  2  0
 10 11  1  0
 11 12  2  0
 12  8  1  0
  1 13  1  0
  1 14  1  0
  2 15  1  0
  2 16  1  0
  6 17  1  0
  6 18  1  0
  7 19  1  0
  7 20  1  0
  9 21  1  0
 11 22  1  0
M  END
$$$$

     RDKit          3D

 22 22  0  0  0  0  0  0  0  0999 V2000
    3.9457    0.8677    1.0280 N   0  0  0  0  0  0  0  0  0  0  0  0
    2.5814    0.5501    1.3930 C   0  0  0  0  0  0  0  0  0  0  0  0
    1.9174   -0.0736    0.2338 C   0  0  0  0  0  0  0  0  0  0  0  0
    2.5548   -0.2390   -0.8301 O   0  0  0  0  0  0  0  0  0  0  0  0
    0.5977   -0.5023    0.2402 O   0  0  0  0  0  0  0  0  0  0  0  0
    0.0230   -1.1013   -0.9318 C   0  0  0  0  0  0  0  0  0  0  0  0
   -1.4032   -1.4872   -0.7044 C   0  0  0  0  0  0  0  0  0  0  0  0
   -2.2150   -0.3361   -0.3623 N   0  0  0  0  0  0  0  0  0  0  0  0
   -2.8721    0.4601   -1.2146 C   0  0  0  0  0  0  0  0  0  0  0  0
   -3.5022    1.4112   -0.4697 N   0  0  0  0  0  0  0  0  0  0  0  0
   -3.2116    1.1691    0.8213 C   0  0  0  0  0  0  0  0  0  0  0  0
   -2.4145    0.0870    0.8871 N   0  0  0  0  0  0  0  0  0  0  0  0
    4.2693    0.3461    0.1762 H   0  0  0  0  0  0  0  0  0  0  0  0
    4.0653    1.8745    0.8577 H   0  0  0  0  0  0  0  0  0  0  0  0
    2.5574   -0.1200    2.2767 H   0  0  0  0  0  0  0  0  0  0  0  0
    2.0914    1.4923    1.7084 H   0  0  0  0  0  0  0  0  0  0  0  0
    0.6075   -1.9487   -1.2955 H   0  0  0  0  0  0  0  0  0  0  0  0
    0.0461   -0.3043   -1.7124 H   0  0  0  0  0  0  0  0  0  0  0  0
   -1.4109   -2.2255    0.1414 H   0  0  0  0  0  0  0  0  0  0  0  0
   -1.7718   -2.0270   -1.5921 H   0  0  0  0  0  0  0  0  0  0  0  0
   -2.8720    0.3315   -2.2830 H   0  0  0  0  0  0  0  0  0  0  0  0
   -3.5837    1.7754    1.6320 H   0  0  0  0  0  0  0  0  0  0  0  0
  1  2  1  0
  2  3  1  0
  3  4  2  0
  3  5  1  0
  5  6  1  0
  6  7  1  0
  7  8  1  0
  8  9  1  0
  9 10  2  0
 10 11  1  0
 11 12  2  0
 12  8  1  0
  1 13  1  0
  1 14  1  0
  2 15  1  0
  2 16  1  0
  6 17  1  0
  6 18  1  0
  7 19  1  0
  7 20  1  0
  9 21  1  0
 11 22  1  0
M  END
$$$$

     RDKit          3D

 22 22  0  0  0  0  0  0  0  0999 V2000
   -3.8835   -0.3114   -0.9751 N   0  0  0  0  0  0  0  0  0  0  0  0
   -3.7092    0.6938    0.0577 C   0  0  0  0  0  0  0  0  0  0  0  0
   -2.2914    0.8407    0.4513 C   0  0  0  0  0  0  0  0  0  0  0  0
   -1.9959    1.6793    1.3394 O   0  0  0  0  0  0  0  0  0  0  0  0
   -1.2491    0.1085   -0.0977 O   0  0  0  0  0  0  0  0  0  0  0  0
    0.0965    0.2974    0.3252 C   0  0  0  0  0  0  0  0  0  0  0  0
    0.9745   -0.6641   -0.4812 C   0  0  0  0  0  0  0  0  0  0  0  0
    2.3616   -0.5223   -0.0978 N   0  0  0  0  0  0  0  0  0  0  0  0
    3.0153   -1.1846    0.8626 C   0  0  0  0  0  0  0  0  0  0  0  0
    4.3001   -0.7480    0.8913 N   0  0  0  0  0  0  0  0  0  0  0  0
    4.4323    0.1829   -0.0531 C   0  0  0  0  0  0  0  0  0  0  0  0
    3.2160    0.2994   -0.6469 N   0  0  0  0  0  0  0  0  0  0  0  0
   -3.6386    0.1414   -1.9007 H   0  0  0  0  0  0  0  0  0  0  0  0
   -3.1117   -1.0281   -0.8321 H   0  0  0  0  0  0  0  0  0  0  0  0
   -4.1451    1.6424   -0.3383 H   0  0  0  0  0  0  0  0  0  0  0  0
   -4.3660    0.4005    0.9107 H   0  0  0  0  0  0  0  0  0  0  0  0
    0.2032    0.0586    1.4055 H   0  0  0  0  0  0  0  0  0  0  0  0
    0.4276    1.3405    0.1797 H   0  0  0  0  0  0  0  0  0  0  0  0
    0.6198   -1.6968   -0.3963 H   0  0  0  0  0  0  0  0  0  0  0  0
    0.8176   -0.3682   -1.5547 H   0  0  0  0  0  0  0  0  0  0  0  0
    2.6442   -1.9373    1.5243 H   0  0  0  0  0  0  0  0  0  0  0  0
    5.2816    0.7757   -0.3595 H   0  0  0  0  0  0  0  0  0  0  0  0
  1  2  1  0
  2  3  1  0
  3  4  2  0
  3  5  1  0
  5  6  1  0
  6  7  1  0
  7  8  1  0
  8  9  1  0
  9 10  2  0
 10 11  1  0
 11 12  2  0
 12  8  1  0
  1 13  1  0
  1 14  1  0
  2 15  1  0
  2 16  1  0
  6 17  1  0
  6 18  1  0
  7 19  1  0
  7 20  1  0
  9 21  1  0
 11 22  1  0
M  END
$$$$

     RDKit          3D

 22 22  0  0  0  0  0  0  0  0999 V2000
    3.6401    0.6959   -0.6730 N   0  0  0  0  0  0  0  0  0  0  0  0
    2.8003    0.0264    0.2782 C   0  0  0  0  0  0  0  0  0  0  0  0
    1.5879   -0.5146   -0.4238 C   0  0  0  0  0  0  0  0  0  0  0  0
    1.4034   -0.3689   -1.6432 O   0  0  0  0  0  0  0  0  0  0  0  0
    0.6366   -1.2003    0.2992 O   0  0  0  0  0  0  0  0  0  0  0  0
   -0.5095   -1.7242   -0.2876 C   0  0  0  0  0  0  0  0  0  0  0  0
   -1.4179   -0.6964   -0.9281 C   0  0  0  0  0  0  0  0  0  0  0  0
   -1.8730    0.2779    0.0701 N   0  0  0  0  0  0  0  0  0  0  0  0
   -2.9786    0.1781    0.8256 C   0  0  0  0  0  0  0  0  0  0  0  0
   -3.0725    1.2539    1.6235 N   0  0  0  0  0  0  0  0  0  0  0  0
   -2.0103    2.0160    1.3485 C   0  0  0  0  0  0  0  0  0  0  0  0
   -1.2918    1.4094    0.4031 N   0  0  0  0  0  0  0  0  0  0  0  0
    3.0767    0.9903   -1.5148 H   0  0  0  0  0  0  0  0  0  0  0  0
    4.1370    1.5266   -0.2852 H   0  0  0  0  0  0  0  0  0  0  0  0
    2.4890    0.7356    1.0791 H   0  0  0  0  0  0  0  0  0  0  0  0
    3.3471   -0.7935    0.8080 H   0  0  0  0  0  0  0  0  0  0  0  0
   -0.2634   -2.5441   -1.0089 H   0  0  0  0  0  0  0  0  0  0  0  0
   -1.0641   -2.2650    0.5366 H   0  0  0  0  0  0  0  0  0  0  0  0
   -0.8835   -0.1674   -1.7302 H   0  0  0  0  0  0  0  0  0  0  0  0
   -2.2917   -1.1854   -1.4085 H   0  0  0  0  0  0  0  0  0  0  0  0
   -3.7041   -0.6337    0.8164 H   0  0  0  0  0  0  0  0  0  0  0  0
   -1.7577    2.9834    1.8151 H   0  0  0  0  0  0  0  0  0  0  0  0
  1  2  1  0
  2  3  1  0
  3  4  2  0
  3  5  1  0
  5  6  1  0
  6  7  1  0
  7  8  1  0
  8  9  1  0
  9 10  2  0
 10 11  1  0
 11 12  2  0
 12  8  1  0
  1 13  1  0
  1 14  1  0
  2 15  1  0
  2 16  1  0
  6 17  1  0
  6 18  1  0
  7 19  1  0
  7 20  1  0
  9 21  1  0
 11 22  1  0
M  END
$$$$

     RDKit          3D

 22 22  0  0  0  0  0  0  0  0999 V2000
    4.1002    0.0343    1.5038 N   0  0  0  0  0  0  0  0  0  0  0  0
    3.3949   -0.6120    0.4428 C   0  0  0  0  0  0  0  0  0  0  0  0
    1.9933   -0.0982    0.2945 C   0  0  0  0  0  0  0  0  0  0  0  0
    1.5221    0.7984    1.0338 O   0  0  0  0  0  0  0  0  0  0  0  0
    1.1757   -0.6088   -0.6755 O   0  0  0  0  0  0  0  0  0  0  0  0
   -0.1463   -0.2285   -0.9291 C   0  0  0  0  0  0  0  0  0  0  0  0
   -1.0583   -0.4539    0.2721 C   0  0  0  0  0  0  0  0  0  0  0  0
   -2.3923   -0.0195   -0.1268 N   0  0  0  0  0  0  0  0  0  0  0  0
   -3.3137   -0.7852   -0.6895 C   0  0  0  0  0  0  0  0  0  0  0  0
   -4.4167   -0.0157   -0.9088 N   0  0  0  0  0  0  0  0  0  0  0  0
   -4.1336    1.2164   -0.4673 C   0  0  0  0  0  0  0  0  0  0  0  0
   -2.8800    1.1868    0.0096 N   0  0  0  0  0  0  0  0  0  0  0  0
    4.5414    0.9368    1.2091 H   0  0  0  0  0  0  0  0  0  0  0  0
    4.9229   -0.5918    1.7510 H   0  0  0  0  0  0  0  0  0  0  0  0
    3.3788   -1.7155    0.6347 H   0  0  0  0  0  0  0  0  0  0  0  0
    3.8937   -0.4112   -0.5261 H   0  0  0  0  0  0  0  0  0  0  0  0
   -0.2669    0.7775   -1.3205 H   0  0  0  0  0  0  0  0  0  0  0  0
   -0.5275   -0.9373   -1.7233 H   0  0  0  0  0  0  0  0  0  0  0  0
   -0.7019    0.0740    1.1620 H   0  0  0  0  0  0  0  0  0  0  0  0
   -1.0702   -1.5243    0.4774 H   0  0  0  0  0  0  0  0  0  0  0  0
   -3.2395   -1.8222   -0.9403 H   0  0  0  0  0  0  0  0  0  0  0  0
   -4.7762    2.0793   -0.4834 H   0  0  0  0  0  0  0  0  0  0  0  0
  1  2  1  0
  2  3  1  0
  3  4  2  0
  3  5  1  0
  5  6  1  0
  6  7  1  0
  7  8  1  0
  8  9  1  0
  9 10  2  0
 10 11  1  0
 11 12  2  0
 12  8  1  0
  1 13  1  0
  1 14  1  0
  2 15  1  0
  2 16  1  0
  6 17  1  0
  6 18  1  0
  7 19  1  0
  7 20  1  0
  9 21  1  0
 11 22  1  0
M  END
$$$$

     RDKit          3D

 22 22  0  0  0  0  0  0  0  0999 V2000
   -3.8343   -0.0770    0.8678 N   0  0  0  0  0  0  0  0  0  0  0  0
   -3.7253    0.3575   -0.5137 C   0  0  0  0  0  0  0  0  0  0  0  0
   -2.2646    0.3846   -0.8846 C   0  0  0  0  0  0  0  0  0  0  0  0
   -1.8921    0.7279   -2.0324 O   0  0  0  0  0  0  0  0  0  0  0  0
   -1.2813    0.0331    0.0234 O   0  0  0  0  0  0  0  0  0  0  0  0
    0.0697    0.0730   -0.3658 C   0  0  0  0  0  0  0  0  0  0  0  0
    0.9866   -0.3511    0.7825 C   0  0  0  0  0  0  0  0  0  0  0  0
    2.3371   -0.2707    0.2663 N   0  0  0  0  0  0  0  0  0  0  0  0
    3.0483   -1.2313   -0.3498 C   0  0  0  0  0  0  0  0  0  0  0  0
    4.2405   -0.6801   -0.6417 N   0  0  0  0  0  0  0  0  0  0  0  0
    4.2805    0.5983   -0.2196 C   0  0  0  0  0  0  0  0  0  0  0  0
    3.0800    0.8196    0.3405 N   0  0  0  0  0  0  0  0  0  0  0  0
   -3.1737   -0.8800    0.9732 H   0  0  0  0  0  0  0  0  0  0  0  0
   -3.4909    0.7203    1.4654 H   0  0  0  0  0  0  0  0  0  0  0  0
   -4.1148    1.4000   -0.5477 H   0  0  0  0  0  0  0  0  0  0  0  0
   -4.2885   -0.3237   -1.1783 H   0  0  0  0  0  0  0  0  0  0  0  0
    0.2779   -0.5190   -1.2811 H   0  0  0  0  0  0  0  0  0  0  0  0
    0.3546    1.1265   -0.5958 H   0  0  0  0  0  0  0  0  0  0  0  0
    0.7461   -1.3792    1.1183 H   0  0  0  0  0  0  0  0  0  0  0  0
    0.8606    0.3987    1.5892 H   0  0  0  0  0  0  0  0  0  0  0  0
    2.7128   -2.2583   -0.5665 H   0  0  0  0  0  0  0  0  0  0  0  0
    5.0707    1.3310   -0.2872 H   0  0  0  0  0  0  0  0  0  0  0  0
  1  2  1  0
  2  3  1  0
  3  4  2  0
  3  5  1  0
  5  6  1  0
  6  7  1  0
  7  8  1  0
  8  9  1  0
  9 10  2  0
 10 11  1  0
 11 12  2  0
 12  8  1  0
  1 13  1  0
  1 14  1  0
  2 15  1  0
  2 16  1  0
  6 17  1  0
  6 18  1  0
  7 19  1  0
  7 20  1  0
  9 21  1  0
 11 22  1  0
M  END
$$$$
