
     RDKit          3D

 24 25  0  0  0  0  0  0  0  0999 V2000
    0.9070    1.2145    0.8577 N   0  0  0  0  0  0  0  0  0  0  0  0
    0.9075   -0.0350    0.1525 C   0  0  0  0  0  0  0  0  0  0  0  0
   -0.0786   -0.2330   -0.9290 C   0  0  2  0  0  0  0  0  0  0  0  0
    0.1543    0.7652   -1.9057 O   0  0  0  0  0  0  0  0  0  0  0  0
   -1.5063   -0.1944   -0.5822 C   0  0  0  0  0  0  0  0  0  0  0  0
   -2.1162    1.0044    0.0169 C   0  0  0  0  0  0  0  0  0  0  0  0
   -2.9595    0.1280    0.7490 O   0  0  0  0  0  0  0  0  0  0  0  0
   -1.8159   -0.7025    0.8354 C   0  0  0  0  0  0  0  0  0  0  0  0
    1.3052   -1.2468    0.9410 C   0  0  0  0  0  0  0  0  0  0  0  0
    2.1388   -1.6345   -0.1259 O   0  0  0  0  0  0  0  0  0  0  0  0
    2.3248   -0.2867   -0.3883 C   0  0  0  0  0  0  0  0  0  0  0  0
    0.8974    2.0129    0.2173 H   0  0  0  0  0  0  0  0  0  0  0  0
    1.7528    1.2158    1.4854 H   0  0  0  0  0  0  0  0  0  0  0  0
    0.1463   -1.1924   -1.4391 H   0  0  0  0  0  0  0  0  0  0  0  0
   -0.4387    1.5229   -1.6648 H   0  0  0  0  0  0  0  0  0  0  0  0
   -2.1699   -0.7051   -1.2814 H   0  0  0  0  0  0  0  0  0  0  0  0
   -2.7444    1.6200   -0.6842 H   0  0  0  0  0  0  0  0  0  0  0  0
   -1.5464    1.5818    0.7474 H   0  0  0  0  0  0  0  0  0  0  0  0
   -1.1283   -0.2741    1.5852 H   0  0  0  0  0  0  0  0  0  0  0  0
   -2.0146   -1.7692    0.8659 H   0  0  0  0  0  0  0  0  0  0  0  0
    1.9278   -0.9899    1.8198 H   0  0  0  0  0  0  0  0  0  0  0  0
    0.4984   -1.9808    1.1529 H   0  0  0  0  0  0  0  0  0  0  0  0
    2.4489   -0.0070   -1.4465 H   0  0  0  0  0  0  0  0  0  0  0  0
    3.1096    0.1859    0.2224 H   0  0  0  0  0  0  0  0  0  0  0  0
  1  2  1  0
  2  3  1  0
  3  4  1  0
  3  5  1  0
  5  6  1  0
  6  7  1  0
  7  8  1  0
  2  9  1  0
  9 10  1  0
 10 11  1  0
 11  2  1  0
  8  5  1  0
  1 12  1  0
  1 13  1  0
  3 14  1  6
  4 15  1  0
  5 16  1  0
  6 17  1  0
  6 18  1  0
  8 19  1  0
  8 20  1  0
  9 21  1  0
  9 22  1  0
 11 23  1  0
 11 24  1  0
M  END
$$$$

     RDKit          3D

 24 25  0  0  0  0  0  0  0  0999 V2000
    1.4740    1.5105   -0.3453 N   0  0  0  0  0  0  0  0  0  0  0  0
    1.1899    0.1654    0.0454 C   0  0  0  0  0  0  0  0  0  0  0  0
   -0.0719   -0.4142   -0.5021 C   0  0  2  0  0  0  0  0  0  0  0  0
    0.0581   -0.3799   -1.8986 O   0  0  0  0  0  0  0  0  0  0  0  0
   -1.3079    0.3330   -0.1635 C   0  0  0  0  0  0  0  0  0  0  0  0
   -2.5490   -0.3092   -0.7500 C   0  0  0  0  0  0  0  0  0  0  0  0
   -3.2340    0.1592    0.3881 O   0  0  0  0  0  0  0  0  0  0  0  0
   -2.0407   -0.0351    1.0883 C   0  0  0  0  0  0  0  0  0  0  0  0
    1.5260   -0.1011    1.4706 C   0  0  0  0  0  0  0  0  0  0  0  0
    2.8787   -0.0977    1.0825 O   0  0  0  0  0  0  0  0  0  0  0  0
    2.4175   -0.7081   -0.1072 C   0  0  0  0  0  0  0  0  0  0  0  0
    1.9521    1.5277   -1.2548 H   0  0  0  0  0  0  0  0  0  0  0  0
    0.7034    2.1806   -0.2273 H   0  0  0  0  0  0  0  0  0  0  0  0
   -0.1933   -1.4857   -0.2410 H   0  0  0  0  0  0  0  0  0  0  0  0
   -0.0026    0.5729   -2.1949 H   0  0  0  0  0  0  0  0  0  0  0  0
   -1.3269    1.4057   -0.3317 H   0  0  0  0  0  0  0  0  0  0  0  0
   -2.9070    0.1529   -1.6982 H   0  0  0  0  0  0  0  0  0  0  0  0
   -2.5037   -1.4135   -0.8163 H   0  0  0  0  0  0  0  0  0  0  0  0
   -1.9909   -1.0754    1.4141 H   0  0  0  0  0  0  0  0  0  0  0  0
   -1.9022    0.7160    1.9078 H   0  0  0  0  0  0  0  0  0  0  0  0
    1.3091   -1.1277    1.8380 H   0  0  0  0  0  0  0  0  0  0  0  0
    1.2512    0.7182    2.1639 H   0  0  0  0  0  0  0  0  0  0  0  0
    2.2297   -1.7862    0.1233 H   0  0  0  0  0  0  0  0  0  0  0  0
    3.0404   -0.5084   -0.9912 H   0  0  0  0  0  0  0  0  0  0  0  0
  1  2  1  0
  2  3  1  0
  3  4  1  0
  3  5  1  0
  5  6  1  0
  6  7  1  0
  7  8  1  0
  2  9  1  0
  9 10  1  0
 10 11  1  0
 11  2  1  0
  8  5  1  0
  1 12  1  0
  1 13  1  0
  3 14  1  1
  4 15  1  0
  5 16  1  0
  6 17  1  0
  6 18  1  0
  8 19  1  0
  8 20  1  0
  9 21  1  0
  9 22  1  0
 11 23  1  0
 11 24  1  0
M  END
$$$$

     RDKit          3D

 24 25  0  0  0  0  0  0  0  0999 V2000
   -1.1107    1.2269   -1.1528 N   0  0  0  0  0  0  0  0  0  0  0  0
   -1.1635    0.1355   -0.2283 C   0  0  0  0  0  0  0  0  0  0  0  0
    0.0906   -0.6330   -0.0133 C   0  0  2  0  0  0  0  0  0  0  0  0
   -0.1004   -1.6510    0.8967 O   0  0  0  0  0  0  0  0  0  0  0  0
    1.2702    0.2355    0.3574 C   0  0  0  0  0  0  0  0  0  0  0  0
    2.5542   -0.5157    0.5826 C   0  0  0  0  0  0  0  0  0  0  0  0
    3.2489    0.3348   -0.3028 O   0  0  0  0  0  0  0  0  0  0  0  0
    2.0374    0.7654   -0.8582 C   0  0  0  0  0  0  0  0  0  0  0  0
   -2.3213   -0.8327   -0.4833 C   0  0  0  0  0  0  0  0  0  0  0  0
   -2.4397   -0.9266    0.9210 O   0  0  0  0  0  0  0  0  0  0  0  0
   -2.0198    0.3800    0.9882 C   0  0  0  0  0  0  0  0  0  0  0  0
   -0.2813    1.2701   -1.7508 H   0  0  0  0  0  0  0  0  0  0  0  0
   -1.2545    2.1525   -0.6931 H   0  0  0  0  0  0  0  0  0  0  0  0
    0.3621   -1.1161   -0.9930 H   0  0  0  0  0  0  0  0  0  0  0  0
    0.2734   -1.4590    1.7905 H   0  0  0  0  0  0  0  0  0  0  0  0
    1.0799    1.0184    1.1045 H   0  0  0  0  0  0  0  0  0  0  0  0
    3.0044   -0.4072    1.5894 H   0  0  0  0  0  0  0  0  0  0  0  0
    2.5452   -1.5611    0.2457 H   0  0  0  0  0  0  0  0  0  0  0  0
    1.8235    0.1234   -1.7439 H   0  0  0  0  0  0  0  0  0  0  0  0
    1.9421    1.8383   -1.0369 H   0  0  0  0  0  0  0  0  0  0  0  0
   -3.2246   -0.3574   -0.9079 H   0  0  0  0  0  0  0  0  0  0  0  0
   -1.9947   -1.7769   -0.9530 H   0  0  0  0  0  0  0  0  0  0  0  0
   -1.4774    0.6845    1.8992 H   0  0  0  0  0  0  0  0  0  0  0  0
   -2.8440    1.0715    0.7421 H   0  0  0  0  0  0  0  0  0  0  0  0
  1  2  1  0
  2  3  1  0
  3  4  1  0
  3  5  1  0
  5  6  1  0
  6  7  1  0
  7  8  1  0
  2  9  1  0
  9 10  1  0
 10 11  1  0
 11  2  1  0
  8  5  1  0
  1 12  1  0
  1 13  1  0
  3 14  1  6
  4 15  1  0
  5 16  1  0
  6 17  1  0
  6 18  1  0
  8 19  1  0
  8 20  1  0
  9 21  1  0
  9 22  1  0
 11 23  1  0
 11 24  1  0
M  END
$$$$

     RDKit          3D

 24 25  0  0  0  0  0  0  0  0999 V2000
   -1.3313   -0.3084    1.5349 N   0  0  0  0  0  0  0  0  0  0  0  0
   -1.0772    0.0693    0.1885 C   0  0  0  0  0  0  0  0  0  0  0  0
    0.2042    0.7652   -0.1180 C   0  0  2  0  0  0  0  0  0  0  0  0
    0.2466    1.0412   -1.4849 O   0  0  0  0  0  0  0  0  0  0  0  0
    1.4363    0.0716    0.3357 C   0  0  0  0  0  0  0  0  0  0  0  0
    1.7349   -1.2886   -0.1837 C   0  0  0  0  0  0  0  0  0  0  0  0
    3.0931   -0.8893   -0.2653 O   0  0  0  0  0  0  0  0  0  0  0  0
    2.5886    0.3766   -0.6213 C   0  0  0  0  0  0  0  0  0  0  0  0
   -1.5879   -0.9068   -0.8280 C   0  0  0  0  0  0  0  0  0  0  0  0
   -2.8689   -0.3875   -0.6211 O   0  0  0  0  0  0  0  0  0  0  0  0
   -2.2506    0.8495   -0.3737 C   0  0  0  0  0  0  0  0  0  0  0  0
   -2.3282   -0.2883    1.8075 H   0  0  0  0  0  0  0  0  0  0  0  0
   -0.7904   -1.0980    1.8974 H   0  0  0  0  0  0  0  0  0  0  0  0
    0.1755    1.7521    0.3944 H   0  0  0  0  0  0  0  0  0  0  0  0
    0.0971    1.9828   -1.6988 H   0  0  0  0  0  0  0  0  0  0  0  0
    1.7291    0.1717    1.3895 H   0  0  0  0  0  0  0  0  0  0  0  0
    1.6735   -2.1319    0.5346 H   0  0  0  0  0  0  0  0  0  0  0  0
    1.4070   -1.5314   -1.2035 H   0  0  0  0  0  0  0  0  0  0  0  0
    3.2081    1.2262   -0.3517 H   0  0  0  0  0  0  0  0  0  0  0  0
    2.2006    0.3563   -1.6756 H   0  0  0  0  0  0  0  0  0  0  0  0
   -1.5513   -1.9754   -0.5152 H   0  0  0  0  0  0  0  0  0  0  0  0
   -1.2855   -0.7091   -1.8690 H   0  0  0  0  0  0  0  0  0  0  0  0
   -2.7565    1.4545    0.4115 H   0  0  0  0  0  0  0  0  0  0  0  0
   -1.9667    1.3979   -1.2922 H   0  0  0  0  0  0  0  0  0  0  0  0
  1  2  1  0
  2  3  1  0
  3  4  1  0
  3  5  1  0
  5  6  1  0
  6  7  1  0
  7  8  1  0
  2  9  1  0
  9 10  1  0
 10 11  1  0
 11  2  1  0
  8  5  1  0
  1 12  1  0
  1 13  1  0
  3 14  1  1
  4 15  1  0
  5 16  1  0
  6 17  1  0
  6 18  1  0
  8 19  1  0
  8 20  1  0
  9 21  1  0
  9 22  1  0
 11 23  1  0
 11 24  1  0
M  END
$$$$

     RDKit          3D

 24 25  0  0  0  0  0  0  0  0999 V2000
   -1.0643    1.1140    1.0951 N   0  0  0  0  0  0  0  0  0  0  0  0
   -1.0384    0.0971    0.0692 C   0  0  0  0  0  0  0  0  0  0  0  0
    0.1797   -0.7645    0.1017 C   0  0  2  0  0  0  0  0  0  0  0  0
    0.1543   -1.4216    1.3706 O   0  0  0  0  0  0  0  0  0  0  0  0
    1.4425    0.0495    0.1374 C   0  0  0  0  0  0  0  0  0  0  0  0
    1.7119    0.9907   -0.9902 C   0  0  0  0  0  0  0  0  0  0  0  0
    1.9732   -0.1185   -1.7939 O   0  0  0  0  0  0  0  0  0  0  0  0
    2.5191   -0.7110   -0.6358 C   0  0  0  0  0  0  0  0  0  0  0  0
   -2.3175   -0.7670    0.1248 C   0  0  0  0  0  0  0  0  0  0  0  0
   -2.1946   -0.9144   -1.2519 O   0  0  0  0  0  0  0  0  0  0  0  0
   -1.6408    0.3909   -1.2475 C   0  0  0  0  0  0  0  0  0  0  0  0
   -1.0013    2.0781    0.7239 H   0  0  0  0  0  0  0  0  0  0  0  0
   -1.8250    0.9794    1.7949 H   0  0  0  0  0  0  0  0  0  0  0  0
    0.1846   -1.5146   -0.6891 H   0  0  0  0  0  0  0  0  0  0  0  0
    0.3468   -0.7225    2.0400 H   0  0  0  0  0  0  0  0  0  0  0  0
    1.7622    0.4124    1.1262 H   0  0  0  0  0  0  0  0  0  0  0  0
    0.9401    1.6830   -1.3050 H   0  0  0  0  0  0  0  0  0  0  0  0
    2.7144    1.4853   -0.7912 H   0  0  0  0  0  0  0  0  0  0  0  0
    2.3835   -1.8095   -0.6434 H   0  0  0  0  0  0  0  0  0  0  0  0
    3.5201   -0.3398   -0.3594 H   0  0  0  0  0  0  0  0  0  0  0  0
   -3.1803   -0.1792    0.4762 H   0  0  0  0  0  0  0  0  0  0  0  0
   -2.1234   -1.7071    0.7086 H   0  0  0  0  0  0  0  0  0  0  0  0
   -2.4765    1.1195   -1.2039 H   0  0  0  0  0  0  0  0  0  0  0  0
   -0.9705    0.5698   -2.0862 H   0  0  0  0  0  0  0  0  0  0  0  0
  1  2  1  0
  2  3  1  0
  3  4  1  0
  3  5  1  0
  5  6  1  0
  6  7  1  0
  7  8  1  0
  2  9  1  0
  9 10  1  0
 10 11  1  0
 11  2  1  0
  8  5  1  0
  1 12  1  0
  1 13  1  0
  3 14  1  6
  4 15  1  0
  5 16  1  0
  6 17  1  0
  6 18  1  0
  8 19  1  0
  8 20  1  0
  9 21  1  0
  9 22  1  0
 11 23  1  0
 11 24  1  0
M  END
$$$$

     RDKit          3D

 24 25  0  0  0  0  0  0  0  0999 V2000
   -2.0840    1.4985    0.0435 N   0  0  0  0  0  0  0  0  0  0  0  0
   -1.2190    0.3600   -0.0116 C   0  0  0  0  0  0  0  0  0  0  0  0
    0.2148    0.6352    0.2626 C   0  0  2  0  0  0  0  0  0  0  0  0
    0.6846    1.5545   -0.6879 O   0  0  0  0  0  0  0  0  0  0  0  0
    1.0967   -0.5610    0.2855 C   0  0  0  0  0  0  0  0  0  0  0  0
    2.5364   -0.1078    0.5844 C   0  0  0  0  0  0  0  0  0  0  0  0
    2.6149    0.2372   -0.7651 O   0  0  0  0  0  0  0  0  0  0  0  0
    1.8051   -0.9011   -0.9979 C   0  0  0  0  0  0  0  0  0  0  0  0
   -1.5736   -0.5560   -1.1388 C   0  0  0  0  0  0  0  0  0  0  0  0
   -2.7073   -0.9288   -0.3727 O   0  0  0  0  0  0  0  0  0  0  0  0
   -1.8401   -0.7972    0.7417 C   0  0  0  0  0  0  0  0  0  0  0  0
   -2.4164    1.7263    1.0031 H   0  0  0  0  0  0  0  0  0  0  0  0
   -1.7225    2.3313   -0.4615 H   0  0  0  0  0  0  0  0  0  0  0  0
    0.2875    1.1428    1.2466 H   0  0  0  0  0  0  0  0  0  0  0  0
    0.3276    2.4346   -0.4056 H   0  0  0  0  0  0  0  0  0  0  0  0
    0.7844   -1.3823    0.9223 H   0  0  0  0  0  0  0  0  0  0  0  0
    2.5952    0.7421    1.2894 H   0  0  0  0  0  0  0  0  0  0  0  0
    3.2204   -0.9460    0.7889 H   0  0  0  0  0  0  0  0  0  0  0  0
    1.2533   -0.8514   -1.9295 H   0  0  0  0  0  0  0  0  0  0  0  0
    2.4503   -1.8006   -0.8347 H   0  0  0  0  0  0  0  0  0  0  0  0
   -1.8012   -0.1069   -2.1059 H   0  0  0  0  0  0  0  0  0  0  0  0
   -0.9268   -1.4742   -1.1742 H   0  0  0  0  0  0  0  0  0  0  0  0
   -1.2227   -1.7190    0.7840 H   0  0  0  0  0  0  0  0  0  0  0  0
   -2.3575   -0.5303    1.6768 H   0  0  0  0  0  0  0  0  0  0  0  0
  1  2  1  0
  2  3  1  0
  3  4  1  0
  3  5  1  0
  5  6  1  0
  6  7  1  0
  7  8  1  0
  2  9  1  0
  9 10  1  0
 10 11  1  0
 11  2  1  0
  8  5  1  0
  1 12  1  0
  1 13  1  0
  3 14  1  1
  4 15  1  0
  5 16  1  0
  6 17  1  0
  6 18  1  0
  8 19  1  0
  8 20  1  0
  9 21  1  0
  9 22  1  0
 11 23  1  0
 11 24  1  0
M  END
$$$$

     RDKit          3D

 24 25  0  0  0  0  0  0  0  0999 V2000
   -1.0028    1.4139    0.6612 N   0  0  0  0  0  0  0  0  0  0  0  0
   -0.9359    0.1249    0.0118 C   0  0  0  0  0  0  0  0  0  0  0  0
    0.1731   -0.1115   -0.9256 C   0  0  2  0  0  0  0  0  0  0  0  0
    0.0498   -1.4104   -1.4372 O   0  0  0  0  0  0  0  0  0  0  0  0
    1.5475    0.0819   -0.4423 C   0  0  0  0  0  0  0  0  0  0  0  0
    2.0256   -0.7416    0.7001 C   0  0  0  0  0  0  0  0  0  0  0  0
    1.6585    0.2969    1.5780 O   0  0  0  0  0  0  0  0  0  0  0  0
    1.8564    1.1713    0.5111 C   0  0  0  0  0  0  0  0  0  0  0  0
   -2.2730   -0.0866   -0.7213 C   0  0  0  0  0  0  0  0  0  0  0  0
   -2.1218   -1.4501   -0.4184 O   0  0  0  0  0  0  0  0  0  0  0  0
   -1.4968   -1.0253    0.7741 C   0  0  0  0  0  0  0  0  0  0  0  0
   -1.5481    2.1100    0.1022 H   0  0  0  0  0  0  0  0  0  0  0  0
   -1.3062    1.3513    1.6497 H   0  0  0  0  0  0  0  0  0  0  0  0
    0.0243    0.5616   -1.8192 H   0  0  0  0  0  0  0  0  0  0  0  0
    0.5956   -1.4656   -2.2544 H   0  0  0  0  0  0  0  0  0  0  0  0
    2.2781    0.0456   -1.2801 H   0  0  0  0  0  0  0  0  0  0  0  0
    1.5606   -1.7087    0.8850 H   0  0  0  0  0  0  0  0  0  0  0  0
    3.1475   -0.8260    0.7412 H   0  0  0  0  0  0  0  0  0  0  0  0
    2.9535    1.4416    0.4848 H   0  0  0  0  0  0  0  0  0  0  0  0
    1.2728    2.0847    0.4976 H   0  0  0  0  0  0  0  0  0  0  0  0
   -3.1274    0.3817   -0.1900 H   0  0  0  0  0  0  0  0  0  0  0  0
   -2.2031    0.1627   -1.7883 H   0  0  0  0  0  0  0  0  0  0  0  0
   -0.8129   -1.7410    1.2254 H   0  0  0  0  0  0  0  0  0  0  0  0
   -2.3155   -0.6613    1.4545 H   0  0  0  0  0  0  0  0  0  0  0  0
  1  2  1  0
  2  3  1  0
  3  4  1  0
  3  5  1  0
  5  6  1  0
  6  7  1  0
  7  8  1  0
  2  9  1  0
  9 10  1  0
 10 11  1  0
 11  2  1  0
  8  5  1  0
  1 12  1  0
  1 13  1  0
  3 14  1  6
  4 15  1  0
  5 16  1  0
  6 17  1  0
  6 18  1  0
  8 19  1  0
  8 20  1  0
  9 21  1  0
  9 22  1  0
 11 23  1  0
 11 24  1  0
M  END
$$$$

     RDKit          3D

 24 25  0  0  0  0  0  0  0  0999 V2000
   -1.7176   -0.7754    0.9641 N   0  0  0  0  0  0  0  0  0  0  0  0
   -1.1998   -0.1433   -0.2111 C   0  0  0  0  0  0  0  0  0  0  0  0
    0.2203   -0.5237   -0.5660 C   0  0  2  0  0  0  0  0  0  0  0  0
    0.2695   -1.8995   -0.7817 O   0  0  0  0  0  0  0  0  0  0  0  0
    1.0842   -0.1810    0.6235 C   0  0  0  0  0  0  0  0  0  0  0  0
    2.5496   -0.4837    0.4780 C   0  0  0  0  0  0  0  0  0  0  0  0
    2.8080    0.7449    1.1162 O   0  0  0  0  0  0  0  0  0  0  0  0
    1.6150    1.2376    0.5635 C   0  0  0  0  0  0  0  0  0  0  0  0
   -1.5017    1.3340   -0.2715 C   0  0  0  0  0  0  0  0  0  0  0  0
   -2.7720    0.9880   -0.7845 O   0  0  0  0  0  0  0  0  0  0  0  0
   -2.1768   -0.1603   -1.3571 C   0  0  0  0  0  0  0  0  0  0  0  0
   -1.1778   -1.6392    1.2118 H   0  0  0  0  0  0  0  0  0  0  0  0
   -1.7034   -0.1036    1.7779 H   0  0  0  0  0  0  0  0  0  0  0  0
    0.5186    0.0320   -1.4708 H   0  0  0  0  0  0  0  0  0  0  0  0
    0.9242   -2.3275   -0.1507 H   0  0  0  0  0  0  0  0  0  0  0  0
    0.7105   -0.4903    1.5954 H   0  0  0  0  0  0  0  0  0  0  0  0
    2.8814   -1.3643    1.0784 H   0  0  0  0  0  0  0  0  0  0  0  0
    2.9497   -0.4669   -0.5501 H   0  0  0  0  0  0  0  0  0  0  0  0
    1.0758    1.9540    1.1909 H   0  0  0  0  0  0  0  0  0  0  0  0
    1.7871    1.5527   -0.4847 H   0  0  0  0  0  0  0  0  0  0  0  0
   -0.9593    1.8914   -1.0529 H   0  0  0  0  0  0  0  0  0  0  0  0
   -1.5311    1.7982    0.7334 H   0  0  0  0  0  0  0  0  0  0  0  0
   -2.9072   -0.9923   -1.2888 H   0  0  0  0  0  0  0  0  0  0  0  0
   -1.7471    0.0182   -2.3632 H   0  0  0  0  0  0  0  0  0  0  0  0
  1  2  1  0
  2  3  1  0
  3  4  1  0
  3  5  1  0
  5  6  1  0
  6  7  1  0
  7  8  1  0
  2  9  1  0
  9 10  1  0
 10 11  1  0
 11  2  1  0
  8  5  1  0
  1 12  1  0
  1 13  1  0
  3 14  1  6
  4 15  1  0
  5 16  1  0
  6 17  1  0
  6 18  1  0
  8 19  1  0
  8 20  1  0
  9 21  1  0
  9 22  1  0
 11 23  1  0
 11 24  1  0
M  END
$$$$
