
     RDKit          3D

 32 31  0  0  0  0  0  0  0  0999 V2000
   -3.7703    1.6119   -0.3092 C   0  0  0  0  0  0  0  0  0  0  0  0
   -3.8590    0.2547   -0.4693 O   0  0  0  0  0  0  0  0  0  0  0  0
   -3.1707   -0.5025    0.4442 C   0  0  0  0  0  0  0  0  0  0  0  0
   -1.6769   -0.2451    0.4539 C   0  0  1  0  0  0  0  0  0  0  0  0
   -1.0185   -1.0771    1.4305 N   0  0  0  0  0  0  0  0  0  0  0  0
   -1.1420   -0.5377   -0.8910 C   0  0  0  0  0  0  0  0  0  0  0  0
    0.1659   -0.3503   -1.1437 O   0  0  0  0  0  0  0  0  0  0  0  0
    1.0988   -1.0338   -0.4342 C   0  0  0  0  0  0  0  0  0  0  0  0
    2.4669   -0.5894   -0.9920 C   0  0  2  0  0  0  0  0  0  0  0  0
    3.4945   -1.2168   -0.3491 O   0  0  0  0  0  0  0  0  0  0  0  0
    2.5359    0.9090   -0.9837 C   0  0  0  0  0  0  0  0  0  0  0  0
    2.4783    1.4480    0.2616 O   0  0  0  0  0  0  0  0  0  0  0  0
    3.4466    1.1136    1.1582 C   0  0  0  0  0  0  0  0  0  0  0  0
   -2.7256    1.9427   -0.3886 H   0  0  0  0  0  0  0  0  0  0  0  0
   -4.2359    1.9625    0.6390 H   0  0  0  0  0  0  0  0  0  0  0  0
   -4.3498    2.1153   -1.1193 H   0  0  0  0  0  0  0  0  0  0  0  0
   -3.3316   -1.5803    0.2065 H   0  0  0  0  0  0  0  0  0  0  0  0
   -3.6099   -0.3684    1.4655 H   0  0  0  0  0  0  0  0  0  0  0  0
   -1.5412    0.8049    0.7864 H   0  0  0  0  0  0  0  0  0  0  0  0
   -1.3402   -0.9395    2.3943 H   0  0  0  0  0  0  0  0  0  0  0  0
   -0.8415   -2.0368    1.1359 H   0  0  0  0  0  0  0  0  0  0  0  0
   -1.4314   -1.5993   -1.1363 H   0  0  0  0  0  0  0  0  0  0  0  0
   -1.7314    0.0714   -1.6376 H   0  0  0  0  0  0  0  0  0  0  0  0
    1.1757   -0.7554    0.6492 H   0  0  0  0  0  0  0  0  0  0  0  0
    1.0833   -2.1332   -0.5666 H   0  0  0  0  0  0  0  0  0  0  0  0
    2.5161   -0.9045   -2.0786 H   0  0  0  0  0  0  0  0  0  0  0  0
    3.1783   -2.0108    0.1635 H   0  0  0  0  0  0  0  0  0  0  0  0
    1.6577    1.3233   -1.5568 H   0  0  0  0  0  0  0  0  0  0  0  0
    3.4421    1.2776   -1.5321 H   0  0  0  0  0  0  0  0  0  0  0  0
    3.2630    1.6963    2.1224 H   0  0  0  0  0  0  0  0  0  0  0  0
    3.3184    0.0339    1.4749 H   0  0  0  0  0  0  0  0  0  0  0  0
    4.4545    1.3158    0.8023 H   0  0  0  0  0  0  0  0  0  0  0  0
  1  2  1  0
  2  3  1  0
  3  4  1  0
  4  5  1  0
  4  6  1  0
  6  7  1  0
  7  8  1  0
  8  9  1  0
  9 10  1  0
  9 11  1  0
 11 12  1  0
 12 13  1  0
  1 14  1  0
  1 15  1  0
  1 16  1  0
  3 17  1  0
  3 18  1  0
  4 19  1  1
  5 20  1  0
  5 21  1  0
  6 22  1  0
  6 23  1  0
  8 24  1  0
  8 25  1  0
  9 26  1  6
 10 27  1  0
 11 28  1  0
 11 29  1  0
 13 30  1  0
 13 31  1  0
 13 32  1  0
M  END
$$$$

     RDKit          3D

 32 31  0  0  0  0  0  0  0  0999 V2000
    4.0782    1.2208   -0.9910 C   0  0  0  0  0  0  0  0  0  0  0  0
    4.1670   -0.1374   -0.7959 O   0  0  0  0  0  0  0  0  0  0  0  0
    3.3540   -0.6410    0.1900 C   0  0  0  0  0  0  0  0  0  0  0  0
    1.8696   -0.3960   -0.0628 C   0  0  1  0  0  0  0  0  0  0  0  0
    1.5636   -1.0527   -1.3223 N   0  0  0  0  0  0  0  0  0  0  0  0
    1.1340   -1.0496    1.0789 C   0  0  0  0  0  0  0  0  0  0  0  0
   -0.2334   -1.0332    0.9685 O   0  0  0  0  0  0  0  0  0  0  0  0
   -0.7399    0.2425    0.9047 C   0  0  0  0  0  0  0  0  0  0  0  0
   -2.2479    0.2662    0.7860 C   0  0  2  0  0  0  0  0  0  0  0  0
   -2.8345   -0.3525    1.8771 O   0  0  0  0  0  0  0  0  0  0  0  0
   -2.7266   -0.3604   -0.4872 C   0  0  0  0  0  0  0  0  0  0  0  0
   -4.0858   -0.2506   -0.6108 O   0  0  0  0  0  0  0  0  0  0  0  0
   -4.5950    1.0210   -0.6319 C   0  0  0  0  0  0  0  0  0  0  0  0
    4.3454    1.8123   -0.0711 H   0  0  0  0  0  0  0  0  0  0  0  0
    3.0879    1.5204   -1.3736 H   0  0  0  0  0  0  0  0  0  0  0  0
    4.8576    1.4840   -1.7526 H   0  0  0  0  0  0  0  0  0  0  0  0
    3.5733   -0.1876    1.1789 H   0  0  0  0  0  0  0  0  0  0  0  0
    3.5059   -1.7287    0.2589 H   0  0  0  0  0  0  0  0  0  0  0  0
    1.6914    0.6801   -0.1562 H   0  0  0  0  0  0  0  0  0  0  0  0
    1.6906   -2.0709   -1.2665 H   0  0  0  0  0  0  0  0  0  0  0  0
    0.6374   -0.7541   -1.7063 H   0  0  0  0  0  0  0  0  0  0  0  0
    1.4151   -0.4651    1.9995 H   0  0  0  0  0  0  0  0  0  0  0  0
    1.5519   -2.0660    1.1935 H   0  0  0  0  0  0  0  0  0  0  0  0
   -0.4856    0.7653    1.8522 H   0  0  0  0  0  0  0  0  0  0  0  0
   -0.3337    0.7607    0.0099 H   0  0  0  0  0  0  0  0  0  0  0  0
   -2.5433    1.3348    0.8065 H   0  0  0  0  0  0  0  0  0  0  0  0
   -2.6725   -1.3269    1.8950 H   0  0  0  0  0  0  0  0  0  0  0  0
   -2.4862   -1.4485   -0.4448 H   0  0  0  0  0  0  0  0  0  0  0  0
   -2.1658    0.0400   -1.3542 H   0  0  0  0  0  0  0  0  0  0  0  0
   -4.1964    1.6461   -1.4836 H   0  0  0  0  0  0  0  0  0  0  0  0
   -4.4875    1.6064    0.2811 H   0  0  0  0  0  0  0  0  0  0  0  0
   -5.6887    0.9205   -0.8798 H   0  0  0  0  0  0  0  0  0  0  0  0
  1  2  1  0
  2  3  1  0
  3  4  1  0
  4  5  1  0
  4  6  1  0
  6  7  1  0
  7  8  1  0
  8  9  1  0
  9 10  1  0
  9 11  1  0
 11 12  1  0
 12 13  1  0
  1 14  1  0
  1 15  1  0
  1 16  1  0
  3 17  1  0
  3 18  1  0
  4 19  1  6
  5 20  1  0
  5 21  1  0
  6 22  1  0
  6 23  1  0
  8 24  1  0
  8 25  1  0
  9 26  1  6
 10 27  1  0
 11 28  1  0
 11 29  1  0
 13 30  1  0
 13 31  1  0
 13 32  1  0
M  END
$$$$

     RDKit          3D

 32 31  0  0  0  0  0  0  0  0999 V2000
   -4.0752   -0.4891    2.3473 C   0  0  0  0  0  0  0  0  0  0  0  0
   -2.9411   -0.6652    1.5787 O   0  0  0  0  0  0  0  0  0  0  0  0
   -3.0886   -0.2428    0.2742 C   0  0  0  0  0  0  0  0  0  0  0  0
   -1.7419   -0.5140   -0.4203 C   0  0  1  0  0  0  0  0  0  0  0  0
   -1.7686   -0.1161   -1.7867 N   0  0  0  0  0  0  0  0  0  0  0  0
   -0.6989    0.0919    0.4421 C   0  0  0  0  0  0  0  0  0  0  0  0
    0.6115   -0.1334    0.1365 O   0  0  0  0  0  0  0  0  0  0  0  0
    0.9542    0.3175   -1.0967 C   0  0  0  0  0  0  0  0  0  0  0  0
    2.4468    0.1164   -1.3805 C   0  0  2  0  0  0  0  0  0  0  0  0
    2.7144   -1.2212   -1.3036 O   0  0  0  0  0  0  0  0  0  0  0  0
    3.2992    0.9946   -0.5447 C   0  0  0  0  0  0  0  0  0  0  0  0
    3.2801    0.8323    0.8004 O   0  0  0  0  0  0  0  0  0  0  0  0
    3.6853   -0.4033    1.2359 C   0  0  0  0  0  0  0  0  0  0  0  0
   -4.3753    0.5787    2.4018 H   0  0  0  0  0  0  0  0  0  0  0  0
   -3.8157   -0.7952    3.3873 H   0  0  0  0  0  0  0  0  0  0  0  0
   -4.9241   -1.1114    2.0220 H   0  0  0  0  0  0  0  0  0  0  0  0
   -3.8780   -0.7539   -0.2801 H   0  0  0  0  0  0  0  0  0  0  0  0
   -3.2583    0.8601    0.1923 H   0  0  0  0  0  0  0  0  0  0  0  0
   -1.6300   -1.6337   -0.3983 H   0  0  0  0  0  0  0  0  0  0  0  0
   -1.9750    0.8721   -1.9492 H   0  0  0  0  0  0  0  0  0  0  0  0
   -2.4211   -0.7139   -2.3013 H   0  0  0  0  0  0  0  0  0  0  0  0
   -0.8918    1.1927    0.5621 H   0  0  0  0  0  0  0  0  0  0  0  0
   -0.8993   -0.3115    1.4904 H   0  0  0  0  0  0  0  0  0  0  0  0
    0.6274    1.3344   -1.3453 H   0  0  0  0  0  0  0  0  0  0  0  0
    0.4720   -0.3771   -1.8513 H   0  0  0  0  0  0  0  0  0  0  0  0
    2.5649    0.4657   -2.4426 H   0  0  0  0  0  0  0  0  0  0  0  0
    2.8518   -1.6389   -2.1902 H   0  0  0  0  0  0  0  0  0  0  0  0
    3.0447    2.0614   -0.8251 H   0  0  0  0  0  0  0  0  0  0  0  0
    4.3518    0.8763   -0.9375 H   0  0  0  0  0  0  0  0  0  0  0  0
    4.7206   -0.6298    0.8927 H   0  0  0  0  0  0  0  0  0  0  0  0
    3.7521   -0.4001    2.3640 H   0  0  0  0  0  0  0  0  0  0  0  0
    3.0062   -1.2114    0.9256 H   0  0  0  0  0  0  0  0  0  0  0  0
  1  2  1  0
  2  3  1  0
  3  4  1  0
  4  5  1  0
  4  6  1  0
  6  7  1  0
  7  8  1  0
  8  9  1  0
  9 10  1  0
  9 11  1  0
 11 12  1  0
 12 13  1  0
  1 14  1  0
  1 15  1  0
  1 16  1  0
  3 17  1  0
  3 18  1  0
  4 19  1  6
  5 20  1  0
  5 21  1  0
  6 22  1  0
  6 23  1  0
  8 24  1  0
  8 25  1  0
  9 26  1  6
 10 27  1  0
 11 28  1  0
 11 29  1  0
 13 30  1  0
 13 31  1  0
 13 32  1  0
M  END
$$$$

     RDKit          3D

 32 31  0  0  0  0  0  0  0  0999 V2000
   -4.0975    1.8877   -0.6587 C   0  0  0  0  0  0  0  0  0  0  0  0
   -3.2920    0.7496   -0.6199 O   0  0  0  0  0  0  0  0  0  0  0  0
   -2.2768    0.8897    0.3180 C   0  0  0  0  0  0  0  0  0  0  0  0
   -1.4104   -0.3340    0.3600 C   0  0  1  0  0  0  0  0  0  0  0  0
   -2.2616   -1.4662    0.7220 N   0  0  0  0  0  0  0  0  0  0  0  0
   -0.8333   -0.6217   -1.0063 C   0  0  0  0  0  0  0  0  0  0  0  0
   -0.0836   -1.7703   -1.0307 O   0  0  0  0  0  0  0  0  0  0  0  0
    0.9948   -1.7673   -0.1818 C   0  0  0  0  0  0  0  0  0  0  0  0
    1.9860   -0.6520   -0.4780 C   0  0  2  0  0  0  0  0  0  0  0  0
    2.4639   -0.8062   -1.7772 O   0  0  0  0  0  0  0  0  0  0  0  0
    3.1237   -0.7683    0.5198 C   0  0  0  0  0  0  0  0  0  0  0  0
    4.1137    0.1646    0.3506 O   0  0  0  0  0  0  0  0  0  0  0  0
    3.6960    1.4655    0.4668 C   0  0  0  0  0  0  0  0  0  0  0  0
   -4.9071    1.7780   -1.4054 H   0  0  0  0  0  0  0  0  0  0  0  0
   -3.5256    2.7984   -0.9122 H   0  0  0  0  0  0  0  0  0  0  0  0
   -4.5625    2.0033    0.3569 H   0  0  0  0  0  0  0  0  0  0  0  0
   -1.7078    1.8188    0.1315 H   0  0  0  0  0  0  0  0  0  0  0  0
   -2.7770    0.9783    1.3135 H   0  0  0  0  0  0  0  0  0  0  0  0
   -0.6270   -0.2543    1.1229 H   0  0  0  0  0  0  0  0  0  0  0  0
   -2.8302   -1.2061    1.5797 H   0  0  0  0  0  0  0  0  0  0  0  0
   -1.6605   -2.2639    1.0347 H   0  0  0  0  0  0  0  0  0  0  0  0
   -0.2996    0.2656   -1.3913 H   0  0  0  0  0  0  0  0  0  0  0  0
   -1.7233   -0.8017   -1.6781 H   0  0  0  0  0  0  0  0  0  0  0  0
    0.7390   -1.7508    0.8927 H   0  0  0  0  0  0  0  0  0  0  0  0
    1.5441   -2.7366   -0.3522 H   0  0  0  0  0  0  0  0  0  0  0  0
    1.4648    0.3190   -0.3700 H   0  0  0  0  0  0  0  0  0  0  0  0
    1.7297   -1.0134   -2.3957 H   0  0  0  0  0  0  0  0  0  0  0  0
    3.5771   -1.7750    0.4798 H   0  0  0  0  0  0  0  0  0  0  0  0
    2.6489   -0.6935    1.5306 H   0  0  0  0  0  0  0  0  0  0  0  0
    3.2552    1.7137    1.4443 H   0  0  0  0  0  0  0  0  0  0  0  0
    2.9621    1.6949   -0.3218 H   0  0  0  0  0  0  0  0  0  0  0  0
    4.5769    2.1542    0.3123 H   0  0  0  0  0  0  0  0  0  0  0  0
  1  2  1  0
  2  3  1  0
  3  4  1  0
  4  5  1  0
  4  6  1  0
  6  7  1  0
  7  8  1  0
  8  9  1  0
  9 10  1  0
  9 11  1  0
 11 12  1  0
 12 13  1  0
  1 14  1  0
  1 15  1  0
  1 16  1  0
  3 17  1  0
  3 18  1  0
  4 19  1  1
  5 20  1  0
  5 21  1  0
  6 22  1  0
  6 23  1  0
  8 24  1  0
  8 25  1  0
  9 26  1  6
 10 27  1  0
 11 28  1  0
 11 29  1  0
 13 30  1  0
 13 31  1  0
 13 32  1  0
M  END
$$$$

     RDKit          3D

 32 31  0  0  0  0  0  0  0  0999 V2000
   -3.9127   -0.3792    1.6811 C   0  0  0  0  0  0  0  0  0  0  0  0
   -2.6790   -0.6176    2.1679 O   0  0  0  0  0  0  0  0  0  0  0  0
   -1.8002   -1.2413    1.3762 C   0  0  0  0  0  0  0  0  0  0  0  0
   -1.4477   -0.5395    0.0975 C   0  0  1  0  0  0  0  0  0  0  0  0
   -2.5760   -0.3782   -0.7571 N   0  0  0  0  0  0  0  0  0  0  0  0
   -0.8632    0.8385    0.3929 C   0  0  0  0  0  0  0  0  0  0  0  0
   -0.4738    1.4954   -0.7284 O   0  0  0  0  0  0  0  0  0  0  0  0
    0.4785    0.8330   -1.4390 C   0  0  0  0  0  0  0  0  0  0  0  0
    1.7617    0.5665   -0.6379 C   0  0  2  0  0  0  0  0  0  0  0  0
    2.2407    1.8045   -0.2552 O   0  0  0  0  0  0  0  0  0  0  0  0
    2.7373   -0.1226   -1.5750 C   0  0  0  0  0  0  0  0  0  0  0  0
    3.9361   -0.2818   -0.9525 O   0  0  0  0  0  0  0  0  0  0  0  0
    3.9671   -1.0258    0.1904 C   0  0  0  0  0  0  0  0  0  0  0  0
   -3.9848    0.2790    0.8199 H   0  0  0  0  0  0  0  0  0  0  0  0
   -4.4372   -1.3486    1.3885 H   0  0  0  0  0  0  0  0  0  0  0  0
   -4.6130    0.0260    2.4773 H   0  0  0  0  0  0  0  0  0  0  0  0
   -0.8037   -1.4228    1.9068 H   0  0  0  0  0  0  0  0  0  0  0  0
   -2.1492   -2.2806    1.0947 H   0  0  0  0  0  0  0  0  0  0  0  0
   -0.6919   -1.1489   -0.4533 H   0  0  0  0  0  0  0  0  0  0  0  0
   -2.6099   -1.1315   -1.4815 H   0  0  0  0  0  0  0  0  0  0  0  0
   -2.4986    0.5201   -1.2658 H   0  0  0  0  0  0  0  0  0  0  0  0
   -1.6806    1.4402    0.8741 H   0  0  0  0  0  0  0  0  0  0  0  0
   -0.0214    0.7859    1.1138 H   0  0  0  0  0  0  0  0  0  0  0  0
    0.1592   -0.1061   -1.9034 H   0  0  0  0  0  0  0  0  0  0  0  0
    0.8391    1.5190   -2.2787 H   0  0  0  0  0  0  0  0  0  0  0  0
    1.5668   -0.0611    0.2400 H   0  0  0  0  0  0  0  0  0  0  0  0
    2.2987    1.8521    0.7165 H   0  0  0  0  0  0  0  0  0  0  0  0
    2.8947    0.5207   -2.4648 H   0  0  0  0  0  0  0  0  0  0  0  0
    2.2875   -1.0631   -1.9555 H   0  0  0  0  0  0  0  0  0  0  0  0
    3.3419   -0.6212    0.9901 H   0  0  0  0  0  0  0  0  0  0  0  0
    3.7067   -2.0945    0.0435 H   0  0  0  0  0  0  0  0  0  0  0  0
    5.0267   -0.9759    0.5769 H   0  0  0  0  0  0  0  0  0  0  0  0
  1  2  1  0
  2  3  1  0
  3  4  1  0
  4  5  1  0
  4  6  1  0
  6  7  1  0
  7  8  1  0
  8  9  1  0
  9 10  1  0
  9 11  1  0
 11 12  1  0
 12 13  1  0
  1 14  1  0
  1 15  1  0
  1 16  1  0
  3 17  1  0
  3 18  1  0
  4 19  1  6
  5 20  1  0
  5 21  1  0
  6 22  1  0
  6 23  1  0
  8 24  1  0
  8 25  1  0
  9 26  1  1
 10 27  1  0
 11 28  1  0
 11 29  1  0
 13 30  1  0
 13 31  1  0
 13 32  1  0
M  END
$$$$

     RDKit          3D

 32 31  0  0  0  0  0  0  0  0999 V2000
   -4.5376    1.4108   -0.5150 C   0  0  0  0  0  0  0  0  0  0  0  0
   -3.6543    1.7579    0.4888 O   0  0  0  0  0  0  0  0  0  0  0  0
   -2.7477    0.7644    0.7933 C   0  0  0  0  0  0  0  0  0  0  0  0
   -1.8932    0.3890   -0.4060 C   0  0  1  0  0  0  0  0  0  0  0  0
   -1.1810    1.5707   -0.8204 N   0  0  0  0  0  0  0  0  0  0  0  0
   -0.8562   -0.6747    0.0115 C   0  0  0  0  0  0  0  0  0  0  0  0
   -0.0757   -0.9176   -1.0969 O   0  0  0  0  0  0  0  0  0  0  0  0
    0.8822   -1.8679   -0.9636 C   0  0  0  0  0  0  0  0  0  0  0  0
    1.9267   -1.6509    0.0674 C   0  0  2  0  0  0  0  0  0  0  0  0
    1.4073   -1.5926    1.3314 O   0  0  0  0  0  0  0  0  0  0  0  0
    2.6665   -0.3451   -0.2514 C   0  0  0  0  0  0  0  0  0  0  0  0
    3.6754   -0.2379    0.6999 O   0  0  0  0  0  0  0  0  0  0  0  0
    4.4199    0.9353    0.4956 C   0  0  0  0  0  0  0  0  0  0  0  0
   -5.1560    0.5290   -0.2888 H   0  0  0  0  0  0  0  0  0  0  0  0
   -5.2353    2.2828   -0.6371 H   0  0  0  0  0  0  0  0  0  0  0  0
   -4.0450    1.2636   -1.5004 H   0  0  0  0  0  0  0  0  0  0  0  0
   -2.0936    1.1465    1.6034 H   0  0  0  0  0  0  0  0  0  0  0  0
   -3.2596   -0.1883    1.1032 H   0  0  0  0  0  0  0  0  0  0  0  0
   -2.5105   -0.0493   -1.2135 H   0  0  0  0  0  0  0  0  0  0  0  0
   -0.3229    1.6978   -0.2180 H   0  0  0  0  0  0  0  0  0  0  0  0
   -0.7988    1.4566   -1.7974 H   0  0  0  0  0  0  0  0  0  0  0  0
   -1.4200   -1.5616    0.3626 H   0  0  0  0  0  0  0  0  0  0  0  0
   -0.2768   -0.2125    0.8486 H   0  0  0  0  0  0  0  0  0  0  0  0
    0.4178   -2.8875   -0.7694 H   0  0  0  0  0  0  0  0  0  0  0  0
    1.4095   -1.9559   -1.9541 H   0  0  0  0  0  0  0  0  0  0  0  0
    2.6433   -2.5028   -0.0028 H   0  0  0  0  0  0  0  0  0  0  0  0
    1.8118   -2.2604    1.9097 H   0  0  0  0  0  0  0  0  0  0  0  0
    3.1074   -0.4577   -1.2438 H   0  0  0  0  0  0  0  0  0  0  0  0
    1.9306    0.4806   -0.1849 H   0  0  0  0  0  0  0  0  0  0  0  0
    3.7158    1.7834    0.5866 H   0  0  0  0  0  0  0  0  0  0  0  0
    5.1876    0.9891    1.2985 H   0  0  0  0  0  0  0  0  0  0  0  0
    4.8623    0.9051   -0.5211 H   0  0  0  0  0  0  0  0  0  0  0  0
  1  2  1  0
  2  3  1  0
  3  4  1  0
  4  5  1  0
  4  6  1  0
  6  7  1  0
  7  8  1  0
  8  9  1  0
  9 10  1  0
  9 11  1  0
 11 12  1  0
 12 13  1  0
  1 14  1  0
  1 15  1  0
  1 16  1  0
  3 17  1  0
  3 18  1  0
  4 19  1  6
  5 20  1  0
  5 21  1  0
  6 22  1  0
  6 23  1  0
  8 24  1  0
  8 25  1  0
  9 26  1  1
 10 27  1  0
 11 28  1  0
 11 29  1  0
 13 30  1  0
 13 31  1  0
 13 32  1  0
M  END
$$$$

     RDKit          3D

 32 31  0  0  0  0  0  0  0  0999 V2000
   -5.1749    0.5161    0.0244 C   0  0  0  0  0  0  0  0  0  0  0  0
   -4.6637   -0.5109   -0.7052 O   0  0  0  0  0  0  0  0  0  0  0  0
   -3.4556   -1.0322   -0.3370 C   0  0  0  0  0  0  0  0  0  0  0  0
   -2.3137   -0.0830   -0.3588 C   0  0  1  0  0  0  0  0  0  0  0  0
   -2.4785    1.0253    0.5398 N   0  0  0  0  0  0  0  0  0  0  0  0
   -0.9792   -0.7816   -0.0933 C   0  0  0  0  0  0  0  0  0  0  0  0
    0.0083    0.1625   -0.2997 O   0  0  0  0  0  0  0  0  0  0  0  0
    1.2890   -0.3097   -0.0996 C   0  0  0  0  0  0  0  0  0  0  0  0
    2.2438    0.8360   -0.3634 C   0  0  2  0  0  0  0  0  0  0  0  0
    2.0683    1.2662   -1.6951 O   0  0  0  0  0  0  0  0  0  0  0  0
    3.6875    0.4275   -0.2338 C   0  0  0  0  0  0  0  0  0  0  0  0
    3.9957   -0.0215    1.0447 O   0  0  0  0  0  0  0  0  0  0  0  0
    5.3636   -0.3653    1.0186 C   0  0  0  0  0  0  0  0  0  0  0  0
   -5.3157    0.2610    1.1129 H   0  0  0  0  0  0  0  0  0  0  0  0
   -4.6580    1.4851   -0.0265 H   0  0  0  0  0  0  0  0  0  0  0  0
   -6.2218    0.7621   -0.3623 H   0  0  0  0  0  0  0  0  0  0  0  0
   -3.5108   -1.5569    0.6543 H   0  0  0  0  0  0  0  0  0  0  0  0
   -3.2252   -1.8505   -1.0803 H   0  0  0  0  0  0  0  0  0  0  0  0
   -2.2448    0.3368   -1.4064 H   0  0  0  0  0  0  0  0  0  0  0  0
   -1.5738    1.5226    0.6524 H   0  0  0  0  0  0  0  0  0  0  0  0
   -2.9042    0.7675    1.4557 H   0  0  0  0  0  0  0  0  0  0  0  0
   -0.9059   -1.6414   -0.7764 H   0  0  0  0  0  0  0  0  0  0  0  0
   -1.0306   -1.1455    0.9540 H   0  0  0  0  0  0  0  0  0  0  0  0
    1.4058   -0.6294    0.9594 H   0  0  0  0  0  0  0  0  0  0  0  0
    1.5448   -1.1443   -0.7900 H   0  0  0  0  0  0  0  0  0  0  0  0
    2.0074    1.6562    0.3352 H   0  0  0  0  0  0  0  0  0  0  0  0
    1.7857    0.5023   -2.2637 H   0  0  0  0  0  0  0  0  0  0  0  0
    4.3031    1.2851   -0.5411 H   0  0  0  0  0  0  0  0  0  0  0  0
    3.8789   -0.3774   -0.9872 H   0  0  0  0  0  0  0  0  0  0  0  0
    5.9519    0.5395    0.7510 H   0  0  0  0  0  0  0  0  0  0  0  0
    5.4682   -1.0866    0.1827 H   0  0  0  0  0  0  0  0  0  0  0  0
    5.6541   -0.8157    1.9749 H   0  0  0  0  0  0  0  0  0  0  0  0
  1  2  1  0
  2  3  1  0
  3  4  1  0
  4  5  1  0
  4  6  1  0
  6  7  1  0
  7  8  1  0
  8  9  1  0
  9 10  1  0
  9 11  1  0
 11 12  1  0
 12 13  1  0
  1 14  1  0
  1 15  1  0
  1 16  1  0
  3 17  1  0
  3 18  1  0
  4 19  1  6
  5 20  1  0
  5 21  1  0
  6 22  1  0
  6 23  1  0
  8 24  1  0
  8 25  1  0
  9 26  1  1
 10 27  1  0
 11 28  1  0
 11 29  1  0
 13 30  1  0
 13 31  1  0
 13 32  1  0
M  END
$$$$

     RDKit          3D

 32 31  0  0  0  0  0  0  0  0999 V2000
   -4.2968   -0.3416   -1.1835 C   0  0  0  0  0  0  0  0  0  0  0  0
   -3.1557    0.2328   -0.6313 O   0  0  0  0  0  0  0  0  0  0  0  0
   -3.0689   -0.2010    0.6938 C   0  0  0  0  0  0  0  0  0  0  0  0
   -1.8264    0.3977    1.3667 C   0  0  1  0  0  0  0  0  0  0  0  0
   -1.7964   -0.0839    2.7147 N   0  0  0  0  0  0  0  0  0  0  0  0
   -0.5726   -0.0874    0.6611 C   0  0  0  0  0  0  0  0  0  0  0  0
   -0.5345    0.3448   -0.6580 O   0  0  0  0  0  0  0  0  0  0  0  0
    0.6034   -0.1277   -1.2761 C   0  0  0  0  0  0  0  0  0  0  0  0
    1.8925    0.3169   -0.6552 C   0  0  2  0  0  0  0  0  0  0  0  0
    1.9172    1.7173   -0.6976 O   0  0  0  0  0  0  0  0  0  0  0  0
    3.0624   -0.2181   -1.4947 C   0  0  0  0  0  0  0  0  0  0  0  0
    4.2849    0.2123   -1.0374 O   0  0  0  0  0  0  0  0  0  0  0  0
    4.5641   -0.1703    0.2570 C   0  0  0  0  0  0  0  0  0  0  0  0
   -4.2584   -1.4511   -1.1640 H   0  0  0  0  0  0  0  0  0  0  0  0
   -4.4204   -0.0001   -2.2321 H   0  0  0  0  0  0  0  0  0  0  0  0
   -5.2187   -0.0171   -0.6186 H   0  0  0  0  0  0  0  0  0  0  0  0
   -3.0549   -1.3064    0.7696 H   0  0  0  0  0  0  0  0  0  0  0  0
   -3.9587    0.1567    1.2442 H   0  0  0  0  0  0  0  0  0  0  0  0
   -1.8940    1.5040    1.3519 H   0  0  0  0  0  0  0  0  0  0  0  0
   -2.7663   -0.1858    3.0500 H   0  0  0  0  0  0  0  0  0  0  0  0
   -1.1623    0.4229    3.3496 H   0  0  0  0  0  0  0  0  0  0  0  0
    0.2731    0.4150    1.2187 H   0  0  0  0  0  0  0  0  0  0  0  0
   -0.5042   -1.1724    0.7437 H   0  0  0  0  0  0  0  0  0  0  0  0
    0.5640    0.2321   -2.3450 H   0  0  0  0  0  0  0  0  0  0  0  0
    0.5805   -1.2521   -1.3865 H   0  0  0  0  0  0  0  0  0  0  0  0
    2.0370   -0.0163    0.3829 H   0  0  0  0  0  0  0  0  0  0  0  0
    2.6926    2.0377   -0.1844 H   0  0  0  0  0  0  0  0  0  0  0  0
    2.9744   -1.3187   -1.5967 H   0  0  0  0  0  0  0  0  0  0  0  0
    2.9239    0.2454   -2.5152 H   0  0  0  0  0  0  0  0  0  0  0  0
    4.5613   -1.2895    0.3690 H   0  0  0  0  0  0  0  0  0  0  0  0
    5.6336    0.1127    0.4834 H   0  0  0  0  0  0  0  0  0  0  0  0
    3.9243    0.3054    1.0202 H   0  0  0  0  0  0  0  0  0  0  0  0
  1  2  1  0
  2  3  1  0
  3  4  1  0
  4  5  1  0
  4  6  1  0
  6  7  1  0
  7  8  1  0
  8  9  1  0
  9 10  1  0
  9 11  1  0
 11 12  1  0
 12 13  1  0
  1 14  1  0
  1 15  1  0
  1 16  1  0
  3 17  1  0
  3 18  1  0
  4 19  1  1
  5 20  1  0
  5 21  1  0
  6 22  1  0
  6 23  1  0
  8 24  1  0
  8 25  1  0
  9 26  1  1
 10 27  1  0
 11 28  1  0
 11 29  1  0
 13 30  1  0
 13 31  1  0
 13 32  1  0
M  END
$$$$
