
     RDKit          3D

 23 23  0  0  0  0  0  0  0  0999 V2000
   -4.2598    0.0275   -0.0637 N   0  0  0  0  0  0  0  0  0  0  0  0
   -2.9444   -0.4618   -0.4198 C   0  0  0  0  0  0  0  0  0  0  0  0
   -1.9913    0.0080    0.6720 C   0  0  2  0  0  0  0  0  0  0  0  0
   -1.9983    1.3906    0.7354 O   0  0  0  0  0  0  0  0  0  0  0  0
   -0.5974   -0.4289    0.3943 C   0  0  0  0  0  0  0  0  0  0  0  0
   -0.2890   -1.6581    0.2819 O   0  0  0  0  0  0  0  0  0  0  0  0
    0.4813    0.5027    0.2366 N   0  0  0  0  0  0  0  0  0  0  0  0
    1.8057    0.0742   -0.0279 C   0  0  0  0  0  0  0  0  0  0  0  0
    2.7945    1.0237   -0.1681 C   0  0  0  0  0  0  0  0  0  0  0  0
    4.1051    0.6811   -0.4262 C   0  0  0  0  0  0  0  0  0  0  0  0
    4.4039   -0.6234   -0.5402 N   0  0  0  0  0  0  0  0  0  0  0  0
    3.4489   -1.5768   -0.4063 C   0  0  0  0  0  0  0  0  0  0  0  0
    2.1660   -1.2099   -0.1524 N   0  0  0  0  0  0  0  0  0  0  0  0
   -4.1828    0.9185    0.5104 H   0  0  0  0  0  0  0  0  0  0  0  0
   -4.7324   -0.7076    0.5279 H   0  0  0  0  0  0  0  0  0  0  0  0
   -2.9859   -1.5546   -0.4590 H   0  0  0  0  0  0  0  0  0  0  0  0
   -2.5743   -0.0238   -1.3689 H   0  0  0  0  0  0  0  0  0  0  0  0
   -2.2932   -0.4561    1.6425 H   0  0  0  0  0  0  0  0  0  0  0  0
   -1.7705    1.7182   -0.1742 H   0  0  0  0  0  0  0  0  0  0  0  0
    0.2170    1.5070    0.3307 H   0  0  0  0  0  0  0  0  0  0  0  0
    2.5567    2.0709   -0.0770 H   0  0  0  0  0  0  0  0  0  0  0  0
    4.9051    1.3931   -0.5422 H   0  0  0  0  0  0  0  0  0  0  0  0
    3.7352   -2.6145   -0.5060 H   0  0  0  0  0  0  0  0  0  0  0  0
  1  2  1  0
  2  3  1  0
  3  4  1  0
  3  5  1  0
  5  6  2  0
  5  7  1  0
  7  8  1  0
  8  9  2  0
  9 10  1  0
 10 11  2  0
 11 12  1  0
 12 13  2  0
 13  8  1  0
  1 14  1  0
  1 15  1  0
  2 16  1  0
  2 17  1  0
  3 18  1  1
  4 19  1  0
  7 20  1  0
  9 21  1  0
 10 22  1  0
 12 23  1  0
M  END
$$$$

     RDKit          3D

 23 23  0  0  0  0  0  0  0  0999 V2000
   -4.1011   -0.1265    0.4242 N   0  0  0  0  0  0  0  0  0  0  0  0
   -2.6856   -0.4766    0.4565 C   0  0  0  0  0  0  0  0  0  0  0  0
   -1.9859    0.4490   -0.5115 C   0  0  2  0  0  0  0  0  0  0  0  0
   -2.5420    0.2345   -1.7712 O   0  0  0  0  0  0  0  0  0  0  0  0
   -0.5413    0.2064   -0.5999 C   0  0  0  0  0  0  0  0  0  0  0  0
    0.0114   -0.1363   -1.6834 O   0  0  0  0  0  0  0  0  0  0  0  0
    0.3433    0.3373    0.5199 N   0  0  0  0  0  0  0  0  0  0  0  0
    1.7388    0.0958    0.4041 C   0  0  0  0  0  0  0  0  0  0  0  0
    2.5413    0.2377    1.5173 C   0  0  0  0  0  0  0  0  0  0  0  0
    3.9018    0.0173    1.4680 C   0  0  0  0  0  0  0  0  0  0  0  0
    4.4692   -0.3463    0.3062 N   0  0  0  0  0  0  0  0  0  0  0  0
    3.6809   -0.4855   -0.7865 C   0  0  0  0  0  0  0  0  0  0  0  0
    2.3363   -0.2668   -0.7339 N   0  0  0  0  0  0  0  0  0  0  0  0
   -4.1716    0.9226    0.4300 H   0  0  0  0  0  0  0  0  0  0  0  0
   -4.4637   -0.4101   -0.5269 H   0  0  0  0  0  0  0  0  0  0  0  0
   -2.3327   -0.1756    1.4858 H   0  0  0  0  0  0  0  0  0  0  0  0
   -2.5125   -1.5358    0.2419 H   0  0  0  0  0  0  0  0  0  0  0  0
   -2.2417    1.4846   -0.2198 H   0  0  0  0  0  0  0  0  0  0  0  0
   -2.1064   -0.5271   -2.2504 H   0  0  0  0  0  0  0  0  0  0  0  0
   -0.1032    0.6196    1.4179 H   0  0  0  0  0  0  0  0  0  0  0  0
    2.0541    0.5354    2.4545 H   0  0  0  0  0  0  0  0  0  0  0  0
    4.5363    0.1257    2.3323 H   0  0  0  0  0  0  0  0  0  0  0  0
    4.1744   -0.7795   -1.7038 H   0  0  0  0  0  0  0  0  0  0  0  0
  1  2  1  0
  2  3  1  0
  3  4  1  0
  3  5  1  0
  5  6  2  0
  5  7  1  0
  7  8  1  0
  8  9  2  0
  9 10  1  0
 10 11  2  0
 11 12  1  0
 12 13  2  0
 13  8  1  0
  1 14  1  0
  1 15  1  0
  2 16  1  0
  2 17  1  0
  3 18  1  1
  4 19  1  0
  7 20  1  0
  9 21  1  0
 10 22  1  0
 12 23  1  0
M  END
$$$$

     RDKit          3D

 23 23  0  0  0  0  0  0  0  0999 V2000
   -2.7047   -1.4031    0.3468 N   0  0  0  0  0  0  0  0  0  0  0  0
   -2.6801   -0.0505    0.7666 C   0  0  0  0  0  0  0  0  0  0  0  0
   -2.1166    0.8837   -0.2995 C   0  0  2  0  0  0  0  0  0  0  0  0
   -2.9320    0.7660   -1.4111 O   0  0  0  0  0  0  0  0  0  0  0  0
   -0.7273    0.4623   -0.6604 C   0  0  0  0  0  0  0  0  0  0  0  0
   -0.4847    0.0873   -1.8160 O   0  0  0  0  0  0  0  0  0  0  0  0
    0.2398    0.5201    0.3612 N   0  0  0  0  0  0  0  0  0  0  0  0
    1.6034    0.1613    0.2060 C   0  0  0  0  0  0  0  0  0  0  0  0
    2.1512   -0.2859   -0.9552 C   0  0  0  0  0  0  0  0  0  0  0  0
    3.5126   -0.6135   -0.9996 C   0  0  0  0  0  0  0  0  0  0  0  0
    4.2812   -0.4924    0.0851 N   0  0  0  0  0  0  0  0  0  0  0  0
    3.7289   -0.0511    1.2210 C   0  0  0  0  0  0  0  0  0  0  0  0
    2.4468    0.2584    1.2664 N   0  0  0  0  0  0  0  0  0  0  0  0
   -3.1752   -1.6256   -0.5174 H   0  0  0  0  0  0  0  0  0  0  0  0
   -1.9613   -2.0125    0.6751 H   0  0  0  0  0  0  0  0  0  0  0  0
   -3.7087    0.2790    0.9917 H   0  0  0  0  0  0  0  0  0  0  0  0
   -2.0778    0.0394    1.6841 H   0  0  0  0  0  0  0  0  0  0  0  0
   -2.1337    1.9036    0.0830 H   0  0  0  0  0  0  0  0  0  0  0  0
   -3.1190    1.6540   -1.7776 H   0  0  0  0  0  0  0  0  0  0  0  0
   -0.0348    0.8521    1.3342 H   0  0  0  0  0  0  0  0  0  0  0  0
    1.5869   -0.4064   -1.8661 H   0  0  0  0  0  0  0  0  0  0  0  0
    3.9510   -0.9706   -1.9257 H   0  0  0  0  0  0  0  0  0  0  0  0
    4.3541    0.0445    2.0928 H   0  0  0  0  0  0  0  0  0  0  0  0
  1  2  1  0
  2  3  1  0
  3  4  1  0
  3  5  1  0
  5  6  2  0
  5  7  1  0
  7  8  1  0
  8  9  2  0
  9 10  1  0
 10 11  2  0
 11 12  1  0
 12 13  2  0
 13  8  1  0
  1 14  1  0
  1 15  1  0
  2 16  1  0
  2 17  1  0
  3 18  1  1
  4 19  1  0
  7 20  1  0
  9 21  1  0
 10 22  1  0
 12 23  1  0
M  END
$$$$

     RDKit          3D

 23 23  0  0  0  0  0  0  0  0999 V2000
    3.8641    0.6498    0.4952 N   0  0  0  0  0  0  0  0  0  0  0  0
    2.4685    0.6164    0.1009 C   0  0  0  0  0  0  0  0  0  0  0  0
    1.9298   -0.8099    0.1717 C   0  0  2  0  0  0  0  0  0  0  0  0
    2.6416   -1.6291   -0.6683 O   0  0  0  0  0  0  0  0  0  0  0  0
    0.4959   -0.8231   -0.2173 C   0  0  0  0  0  0  0  0  0  0  0  0
    0.0936   -1.5128   -1.1847 O   0  0  0  0  0  0  0  0  0  0  0  0
   -0.3939   -0.0252    0.5501 N   0  0  0  0  0  0  0  0  0  0  0  0
   -1.7585   -0.0063    0.2193 C   0  0  0  0  0  0  0  0  0  0  0  0
   -2.6270    0.7600    0.9526 C   0  0  0  0  0  0  0  0  0  0  0  0
   -3.9871    0.7805    0.6251 C   0  0  0  0  0  0  0  0  0  0  0  0
   -4.3653    0.0220   -0.4222 N   0  0  0  0  0  0  0  0  0  0  0  0
   -3.5269   -0.7225   -1.1361 C   0  0  0  0  0  0  0  0  0  0  0  0
   -2.2154   -0.7279   -0.8023 N   0  0  0  0  0  0  0  0  0  0  0  0
    4.4392    0.5197   -0.3688 H   0  0  0  0  0  0  0  0  0  0  0  0
    4.0345    1.5793    0.9392 H   0  0  0  0  0  0  0  0  0  0  0  0
    2.3495    0.9771   -0.9351 H   0  0  0  0  0  0  0  0  0  0  0  0
    1.8513    1.2458    0.7638 H   0  0  0  0  0  0  0  0  0  0  0  0
    1.9976   -1.1901    1.2129 H   0  0  0  0  0  0  0  0  0  0  0  0
    3.5931   -1.6604   -0.4707 H   0  0  0  0  0  0  0  0  0  0  0  0
   -0.0250    0.5406    1.3539 H   0  0  0  0  0  0  0  0  0  0  0  0
   -2.3066    1.3701    1.7993 H   0  0  0  0  0  0  0  0  0  0  0  0
   -4.6972    1.3803    1.1912 H   0  0  0  0  0  0  0  0  0  0  0  0
   -3.8559   -1.3342   -1.9871 H   0  0  0  0  0  0  0  0  0  0  0  0
  1  2  1  0
  2  3  1  0
  3  4  1  0
  3  5  1  0
  5  6  2  0
  5  7  1  0
  7  8  1  0
  8  9  2  0
  9 10  1  0
 10 11  2  0
 11 12  1  0
 12 13  2  0
 13  8  1  0
  1 14  1  0
  1 15  1  0
  2 16  1  0
  2 17  1  0
  3 18  1  1
  4 19  1  0
  7 20  1  0
  9 21  1  0
 10 22  1  0
 12 23  1  0
M  END
$$$$

     RDKit          3D

 23 23  0  0  0  0  0  0  0  0999 V2000
   -2.9064   -1.0550    1.7874 N   0  0  0  0  0  0  0  0  0  0  0  0
   -2.9940   -0.7127    0.4085 C   0  0  0  0  0  0  0  0  0  0  0  0
   -2.1419    0.4657    0.0186 C   0  0  2  0  0  0  0  0  0  0  0  0
   -2.3033    0.7102   -1.3404 O   0  0  0  0  0  0  0  0  0  0  0  0
   -0.7361    0.3221    0.3851 C   0  0  0  0  0  0  0  0  0  0  0  0
   -0.3040    0.0994    1.5299 O   0  0  0  0  0  0  0  0  0  0  0  0
    0.2417    0.4478   -0.6638 N   0  0  0  0  0  0  0  0  0  0  0  0
    1.6185    0.3163   -0.3574 C   0  0  0  0  0  0  0  0  0  0  0  0
    2.5472    0.4380   -1.3665 C   0  0  0  0  0  0  0  0  0  0  0  0
    3.8911    0.3096   -1.0675 C   0  0  0  0  0  0  0  0  0  0  0  0
    4.3046    0.0683    0.1911 N   0  0  0  0  0  0  0  0  0  0  0  0
    3.3724   -0.0470    1.1642 C   0  0  0  0  0  0  0  0  0  0  0  0
    2.0482    0.0789    0.8730 N   0  0  0  0  0  0  0  0  0  0  0  0
   -2.5324   -0.2933    2.3940 H   0  0  0  0  0  0  0  0  0  0  0  0
   -2.3577   -1.9368    1.8829 H   0  0  0  0  0  0  0  0  0  0  0  0
   -4.0571   -0.4574    0.1856 H   0  0  0  0  0  0  0  0  0  0  0  0
   -2.7621   -1.5957   -0.2220 H   0  0  0  0  0  0  0  0  0  0  0  0
   -2.5535    1.3595    0.5494 H   0  0  0  0  0  0  0  0  0  0  0  0
   -2.8854    0.0480   -1.7458 H   0  0  0  0  0  0  0  0  0  0  0  0
   -0.0593    0.6360   -1.6526 H   0  0  0  0  0  0  0  0  0  0  0  0
    2.2380    0.6306   -2.3781 H   0  0  0  0  0  0  0  0  0  0  0  0
    4.6171    0.4070   -1.8694 H   0  0  0  0  0  0  0  0  0  0  0  0
    3.7145   -0.2395    2.1638 H   0  0  0  0  0  0  0  0  0  0  0  0
  1  2  1  0
  2  3  1  0
  3  4  1  0
  3  5  1  0
  5  6  2  0
  5  7  1  0
  7  8  1  0
  8  9  2  0
  9 10  1  0
 10 11  2  0
 11 12  1  0
 12 13  2  0
 13  8  1  0
  1 14  1  0
  1 15  1  0
  2 16  1  0
  2 17  1  0
  3 18  1  1
  4 19  1  0
  7 20  1  0
  9 21  1  0
 10 22  1  0
 12 23  1  0
M  END
$$$$

     RDKit          3D

 23 23  0  0  0  0  0  0  0  0999 V2000
   -2.5655    0.2011    1.4999 N   0  0  0  0  0  0  0  0  0  0  0  0
   -2.9846    0.7438    0.2280 C   0  0  0  0  0  0  0  0  0  0  0  0
   -2.1278    0.1277   -0.8721 C   0  0  2  0  0  0  0  0  0  0  0  0
   -2.3313   -1.2592   -0.8257 O   0  0  0  0  0  0  0  0  0  0  0  0
   -0.6902    0.4359   -0.6644 C   0  0  0  0  0  0  0  0  0  0  0  0
   -0.3463    1.6300   -0.6780 O   0  0  0  0  0  0  0  0  0  0  0  0
    0.2492   -0.5959   -0.4592 N   0  0  0  0  0  0  0  0  0  0  0  0
    1.6305   -0.4336   -0.2522 C   0  0  0  0  0  0  0  0  0  0  0  0
    2.3156    0.7408   -0.2112 C   0  0  0  0  0  0  0  0  0  0  0  0
    3.6913    0.7720    0.0023 C   0  0  0  0  0  0  0  0  0  0  0  0
    4.3817   -0.3521    0.1738 N   0  0  0  0  0  0  0  0  0  0  0  0
    3.6978   -1.5127    0.1322 C   0  0  0  0  0  0  0  0  0  0  0  0
    2.3785   -1.5513   -0.0721 N   0  0  0  0  0  0  0  0  0  0  0  0
   -3.2019   -0.5101    1.8849 H   0  0  0  0  0  0  0  0  0  0  0  0
   -2.2886    0.9412    2.1852 H   0  0  0  0  0  0  0  0  0  0  0  0
   -2.9033    1.8471    0.1844 H   0  0  0  0  0  0  0  0  0  0  0  0
   -4.0316    0.4859   -0.0179 H   0  0  0  0  0  0  0  0  0  0  0  0
   -2.5113    0.5226   -1.8357 H   0  0  0  0  0  0  0  0  0  0  0  0
   -2.4170   -1.5882    0.1150 H   0  0  0  0  0  0  0  0  0  0  0  0
   -0.1717   -1.5930   -0.4689 H   0  0  0  0  0  0  0  0  0  0  0  0
    1.8165    1.6582   -0.3410 H   0  0  0  0  0  0  0  0  0  0  0  0
    4.1780    1.7317    0.0244 H   0  0  0  0  0  0  0  0  0  0  0  0
    4.2322   -2.4416    0.2682 H   0  0  0  0  0  0  0  0  0  0  0  0
  1  2  1  0
  2  3  1  0
  3  4  1  0
  3  5  1  0
  5  6  2  0
  5  7  1  0
  7  8  1  0
  8  9  2  0
  9 10  1  0
 10 11  2  0
 11 12  1  0
 12 13  2  0
 13  8  1  0
  1 14  1  0
  1 15  1  0
  2 16  1  0
  2 17  1  0
  3 18  1  6
  4 19  1  0
  7 20  1  0
  9 21  1  0
 10 22  1  0
 12 23  1  0
M  END
$$$$

     RDKit          3D

 23 23  0  0  0  0  0  0  0  0999 V2000
   -4.2160   -0.0125   -0.1652 N   0  0  0  0  0  0  0  0  0  0  0  0
   -2.9169   -0.5818    0.1633 C   0  0  0  0  0  0  0  0  0  0  0  0
   -1.9411    0.5681    0.2626 C   0  0  2  0  0  0  0  0  0  0  0  0
   -1.9188    1.2062   -0.9615 O   0  0  0  0  0  0  0  0  0  0  0  0
   -0.5715    0.1089    0.6000 C   0  0  0  0  0  0  0  0  0  0  0  0
   -0.3152   -0.5015    1.6622 O   0  0  0  0  0  0  0  0  0  0  0  0
    0.4641    0.3796   -0.3220 N   0  0  0  0  0  0  0  0  0  0  0  0
    1.8254    0.0332   -0.1963 C   0  0  0  0  0  0  0  0  0  0  0  0
    2.3751   -0.6358    0.8623 C   0  0  0  0  0  0  0  0  0  0  0  0
    3.7420   -0.9590    0.9417 C   0  0  0  0  0  0  0  0  0  0  0  0
    4.5090   -0.5834   -0.0749 N   0  0  0  0  0  0  0  0  0  0  0  0
    4.0140    0.0785   -1.1414 C   0  0  0  0  0  0  0  0  0  0  0  0
    2.7133    0.3691   -1.1845 N   0  0  0  0  0  0  0  0  0  0  0  0
   -4.1691    1.0218   -0.3197 H   0  0  0  0  0  0  0  0  0  0  0  0
   -4.6056   -0.4114   -1.0551 H   0  0  0  0  0  0  0  0  0  0  0  0
   -2.6252   -1.2382   -0.6823 H   0  0  0  0  0  0  0  0  0  0  0  0
   -3.0399   -1.1278    1.1177 H   0  0  0  0  0  0  0  0  0  0  0  0
   -2.2838    1.2860    1.0317 H   0  0  0  0  0  0  0  0  0  0  0  0
   -1.8968    2.1921   -0.8820 H   0  0  0  0  0  0  0  0  0  0  0  0
    0.2233    0.9074   -1.2328 H   0  0  0  0  0  0  0  0  0  0  0  0
    1.7761   -0.9508    1.6974 H   0  0  0  0  0  0  0  0  0  0  0  0
    4.1444   -1.4894    1.7942 H   0  0  0  0  0  0  0  0  0  0  0  0
    4.7133    0.3408   -1.9155 H   0  0  0  0  0  0  0  0  0  0  0  0
  1  2  1  0
  2  3  1  0
  3  4  1  0
  3  5  1  0
  5  6  2  0
  5  7  1  0
  7  8  1  0
  8  9  2  0
  9 10  1  0
 10 11  2  0
 11 12  1  0
 12 13  2  0
 13  8  1  0
  1 14  1  0
  1 15  1  0
  2 16  1  0
  2 17  1  0
  3 18  1  1
  4 19  1  0
  7 20  1  0
  9 21  1  0
 10 22  1  0
 12 23  1  0
M  END
$$$$

     RDKit          3D

 23 23  0  0  0  0  0  0  0  0999 V2000
    3.9632    0.0816   -0.4686 N   0  0  0  0  0  0  0  0  0  0  0  0
    2.5281    0.0849   -0.5778 C   0  0  0  0  0  0  0  0  0  0  0  0
    1.8949   -1.0662    0.2006 C   0  0  2  0  0  0  0  0  0  0  0  0
    2.3711   -2.2736   -0.3016 O   0  0  0  0  0  0  0  0  0  0  0  0
    0.4394   -0.9276    0.0466 C   0  0  0  0  0  0  0  0  0  0  0  0
   -0.2220   -1.8332   -0.4840 O   0  0  0  0  0  0  0  0  0  0  0  0
   -0.1993    0.2391    0.5049 N   0  0  0  0  0  0  0  0  0  0  0  0
   -1.5990    0.3651    0.3534 C   0  0  0  0  0  0  0  0  0  0  0  0
   -2.2961    1.4773    0.7769 C   0  0  0  0  0  0  0  0  0  0  0  0
   -3.6556    1.5848    0.6227 C   0  0  0  0  0  0  0  0  0  0  0  0
   -4.3090    0.5701    0.0415 N   0  0  0  0  0  0  0  0  0  0  0  0
   -3.6595   -0.5122   -0.3751 C   0  0  0  0  0  0  0  0  0  0  0  0
   -2.3297   -0.6117   -0.2215 N   0  0  0  0  0  0  0  0  0  0  0  0
    4.4188    0.5516   -1.2625 H   0  0  0  0  0  0  0  0  0  0  0  0
    4.3141    0.5231    0.4039 H   0  0  0  0  0  0  0  0  0  0  0  0
    2.0655    1.0282   -0.2206 H   0  0  0  0  0  0  0  0  0  0  0  0
    2.2715   -0.0971   -1.6416 H   0  0  0  0  0  0  0  0  0  0  0  0
    2.1724   -0.9835    1.2715 H   0  0  0  0  0  0  0  0  0  0  0  0
    1.6736   -2.6152   -0.9167 H   0  0  0  0  0  0  0  0  0  0  0  0
    0.3015    1.0353    0.9592 H   0  0  0  0  0  0  0  0  0  0  0  0
   -1.7479    2.2878    1.2452 H   0  0  0  0  0  0  0  0  0  0  0  0
   -4.2176    2.4445    0.9466 H   0  0  0  0  0  0  0  0  0  0  0  0
   -4.1784   -1.3533   -0.8534 H   0  0  0  0  0  0  0  0  0  0  0  0
  1  2  1  0
  2  3  1  0
  3  4  1  0
  3  5  1  0
  5  6  2  0
  5  7  1  0
  7  8  1  0
  8  9  2  0
  9 10  1  0
 10 11  2  0
 11 12  1  0
 12 13  2  0
 13  8  1  0
  1 14  1  0
  1 15  1  0
  2 16  1  0
  2 17  1  0
  3 18  1  1
  4 19  1  0
  7 20  1  0
  9 21  1  0
 10 22  1  0
 12 23  1  0
M  END
$$$$
