
     RDKit          3D

 30 30  0  0  0  0  0  0  0  0999 V2000
   -2.0662    2.2212    0.4865 C   0  0  0  0  0  0  0  0  0  0  0  0
   -2.3786    0.8413   -0.0359 C   0  0  0  0  0  0  0  0  0  0  0  0
   -1.2116   -0.0080    0.0323 N   0  0  0  0  0  0  0  0  0  0  0  0
   -0.1738    0.4376   -0.9115 C   0  0  0  0  0  0  0  0  0  0  0  0
    0.7772   -0.7161   -0.7825 C   0  0  1  0  0  0  0  0  0  0  0  0
    1.5021   -0.6612    0.5215 C   0  0  1  0  0  0  0  0  0  0  0  0
    2.4183   -1.8079    0.6459 N   0  0  0  0  0  0  0  0  0  0  0  0
    2.3684    0.5313    0.6400 C   0  0  0  0  0  0  0  0  0  0  0  0
    1.9225    1.8656    0.7973 N   0  0  0  0  0  0  0  0  0  0  0  0
    3.6433    0.3992    0.6061 O   0  0  0  0  0  0  0  0  0  0  0  0
   -0.1869   -1.8838   -0.8594 C   0  0  1  0  0  0  0  0  0  0  0  0
    0.0660   -2.8411    0.1069 O   0  0  0  0  0  0  0  0  0  0  0  0
   -1.5480   -1.2866   -0.6217 C   0  0  0  0  0  0  0  0  0  0  0  0
   -2.8153    2.6034    1.1933 H   0  0  0  0  0  0  0  0  0  0  0  0
   -1.0797    2.2376    1.0295 H   0  0  0  0  0  0  0  0  0  0  0  0
   -1.9688    2.9399   -0.3610 H   0  0  0  0  0  0  0  0  0  0  0  0
   -2.8369    0.8832   -1.0456 H   0  0  0  0  0  0  0  0  0  0  0  0
   -3.1317    0.3893    0.6416 H   0  0  0  0  0  0  0  0  0  0  0  0
   -0.6228    0.4626   -1.9440 H   0  0  0  0  0  0  0  0  0  0  0  0
    0.2314    1.4098   -0.6778 H   0  0  0  0  0  0  0  0  0  0  0  0
    1.4711   -0.7598   -1.6439 H   0  0  0  0  0  0  0  0  0  0  0  0
    0.8213   -0.7308    1.3920 H   0  0  0  0  0  0  0  0  0  0  0  0
    2.8307   -1.7430    1.5934 H   0  0  0  0  0  0  0  0  0  0  0  0
    3.1882   -1.6692   -0.0736 H   0  0  0  0  0  0  0  0  0  0  0  0
    1.3550    2.1358    1.6222 H   0  0  0  0  0  0  0  0  0  0  0  0
    2.1757    2.5622    0.0759 H   0  0  0  0  0  0  0  0  0  0  0  0
   -0.1422   -2.3434   -1.8742 H   0  0  0  0  0  0  0  0  0  0  0  0
   -0.3797   -2.6313    0.9751 H   0  0  0  0  0  0  0  0  0  0  0  0
   -2.0390   -0.9928   -1.5864 H   0  0  0  0  0  0  0  0  0  0  0  0
   -2.1899   -1.8447    0.0582 H   0  0  0  0  0  0  0  0  0  0  0  0
  1  2  1  0
  2  3  1  0
  3  4  1  0
  4  5  1  0
  5  6  1  0
  6  7  1  0
  6  8  1  0
  8  9  1  0
  8 10  2  0
  5 11  1  0
 11 12  1  0
 11 13  1  0
 13  3  1  0
  1 14  1  0
  1 15  1  0
  1 16  1  0
  2 17  1  0
  2 18  1  0
  4 19  1  0
  4 20  1  0
  5 21  1  6
  6 22  1  1
  7 23  1  0
  7 24  1  0
  9 25  1  0
  9 26  1  0
 11 27  1  6
 12 28  1  0
 13 29  1  0
 13 30  1  0
M  END
$$$$

     RDKit          3D

 30 30  0  0  0  0  0  0  0  0999 V2000
    3.6036    0.6579    0.6859 C   0  0  0  0  0  0  0  0  0  0  0  0
    2.6762    0.5654   -0.5194 C   0  0  0  0  0  0  0  0  0  0  0  0
    1.7573   -0.5365   -0.2368 N   0  0  0  0  0  0  0  0  0  0  0  0
    0.8979   -0.1420    0.8568 C   0  0  0  0  0  0  0  0  0  0  0  0
   -0.4572   -0.7946    0.5771 C   0  0  1  0  0  0  0  0  0  0  0  0
   -1.5025    0.2288    0.8796 C   0  0  1  0  0  0  0  0  0  0  0  0
   -1.3065    1.3789    0.0396 N   0  0  0  0  0  0  0  0  0  0  0  0
   -2.8762   -0.2731    0.8648 C   0  0  0  0  0  0  0  0  0  0  0  0
   -3.8414    0.4086    0.0809 N   0  0  0  0  0  0  0  0  0  0  0  0
   -3.2530   -1.2794    1.5109 O   0  0  0  0  0  0  0  0  0  0  0  0
   -0.4189   -1.2775   -0.8315 C   0  0  1  0  0  0  0  0  0  0  0  0
   -1.4530   -0.8634   -1.6308 O   0  0  0  0  0  0  0  0  0  0  0  0
    0.9246   -0.8212   -1.3668 C   0  0  0  0  0  0  0  0  0  0  0  0
    4.0018   -0.3181    0.9846 H   0  0  0  0  0  0  0  0  0  0  0  0
    4.3986    1.4098    0.4885 H   0  0  0  0  0  0  0  0  0  0  0  0
    3.0172    1.0426    1.5483 H   0  0  0  0  0  0  0  0  0  0  0  0
    2.0642    1.4923   -0.5519 H   0  0  0  0  0  0  0  0  0  0  0  0
    3.2454    0.3809   -1.4473 H   0  0  0  0  0  0  0  0  0  0  0  0
    0.8226    0.9644    0.8718 H   0  0  0  0  0  0  0  0  0  0  0  0
    1.2813   -0.4644    1.8285 H   0  0  0  0  0  0  0  0  0  0  0  0
   -0.5422   -1.6652    1.2727 H   0  0  0  0  0  0  0  0  0  0  0  0
   -1.3070    0.5505    1.9478 H   0  0  0  0  0  0  0  0  0  0  0  0
   -1.5361    2.2755    0.5343 H   0  0  0  0  0  0  0  0  0  0  0  0
   -1.8249    1.3069   -0.8506 H   0  0  0  0  0  0  0  0  0  0  0  0
   -4.7095    0.8037    0.5090 H   0  0  0  0  0  0  0  0  0  0  0  0
   -3.7120    0.5348   -0.9450 H   0  0  0  0  0  0  0  0  0  0  0  0
   -0.3809   -2.4062   -0.8514 H   0  0  0  0  0  0  0  0  0  0  0  0
   -1.7932   -1.5743   -2.2121 H   0  0  0  0  0  0  0  0  0  0  0  0
    0.8129    0.0405   -2.0451 H   0  0  0  0  0  0  0  0  0  0  0  0
    1.4108   -1.6256   -1.9922 H   0  0  0  0  0  0  0  0  0  0  0  0
  1  2  1  0
  2  3  1  0
  3  4  1  0
  4  5  1  0
  5  6  1  0
  6  7  1  0
  6  8  1  0
  8  9  1  0
  8 10  2  0
  5 11  1  0
 11 12  1  0
 11 13  1  0
 13  3  1  0
  1 14  1  0
  1 15  1  0
  1 16  1  0
  2 17  1  0
  2 18  1  0
  4 19  1  0
  4 20  1  0
  5 21  1  1
  6 22  1  1
  7 23  1  0
  7 24  1  0
  9 25  1  0
  9 26  1  0
 11 27  1  1
 12 28  1  0
 13 29  1  0
 13 30  1  0
M  END
$$$$

     RDKit          3D

 30 30  0  0  0  0  0  0  0  0999 V2000
    3.7833   -0.3608   -0.3671 C   0  0  0  0  0  0  0  0  0  0  0  0
    2.6649    0.6541   -0.4646 C   0  0  0  0  0  0  0  0  0  0  0  0
    1.7073    0.3698    0.5434 N   0  0  0  0  0  0  0  0  0  0  0  0
    0.5790    1.2386    0.5919 C   0  0  0  0  0  0  0  0  0  0  0  0
   -0.6039    0.3929    1.0031 C   0  0  1  0  0  0  0  0  0  0  0  0
   -1.8635    0.8785    0.3340 C   0  0  1  0  0  0  0  0  0  0  0  0
   -1.8126    0.8398   -1.0951 N   0  0  0  0  0  0  0  0  0  0  0  0
   -3.0183    0.0757    0.8004 C   0  0  0  0  0  0  0  0  0  0  0  0
   -3.9055   -0.6063   -0.0816 N   0  0  0  0  0  0  0  0  0  0  0  0
   -3.2079    0.0058    2.0545 O   0  0  0  0  0  0  0  0  0  0  0  0
   -0.2348   -1.0002    0.6305 C   0  0  1  0  0  0  0  0  0  0  0  0
   -0.6313   -1.3018   -0.6683 O   0  0  0  0  0  0  0  0  0  0  0  0
    1.2784   -0.9808    0.6371 C   0  0  0  0  0  0  0  0  0  0  0  0
    3.5915   -1.1195    0.4337 H   0  0  0  0  0  0  0  0  0  0  0  0
    4.7585    0.1096   -0.1091 H   0  0  0  0  0  0  0  0  0  0  0  0
    3.8279   -0.9256   -1.3125 H   0  0  0  0  0  0  0  0  0  0  0  0
    3.1225    1.6570   -0.2231 H   0  0  0  0  0  0  0  0  0  0  0  0
    2.2596    0.7532   -1.4855 H   0  0  0  0  0  0  0  0  0  0  0  0
    0.3823    1.7642   -0.3723 H   0  0  0  0  0  0  0  0  0  0  0  0
    0.7725    2.0153    1.3690 H   0  0  0  0  0  0  0  0  0  0  0  0
   -0.7598    0.4751    2.0973 H   0  0  0  0  0  0  0  0  0  0  0  0
   -2.0492    1.9225    0.6612 H   0  0  0  0  0  0  0  0  0  0  0  0
   -2.2165    1.7037   -1.5345 H   0  0  0  0  0  0  0  0  0  0  0  0
   -2.3816    0.0398   -1.4422 H   0  0  0  0  0  0  0  0  0  0  0  0
   -3.8324   -1.6375   -0.2694 H   0  0  0  0  0  0  0  0  0  0  0  0
   -4.6579   -0.0726   -0.5632 H   0  0  0  0  0  0  0  0  0  0  0  0
   -0.6411   -1.7309    1.3676 H   0  0  0  0  0  0  0  0  0  0  0  0
   -0.2265   -2.1193   -1.0180 H   0  0  0  0  0  0  0  0  0  0  0  0
    1.6270   -1.3888    1.6290 H   0  0  0  0  0  0  0  0  0  0  0  0
    1.6883   -1.6514   -0.1469 H   0  0  0  0  0  0  0  0  0  0  0  0
  1  2  1  0
  2  3  1  0
  3  4  1  0
  4  5  1  0
  5  6  1  0
  6  7  1  0
  6  8  1  0
  8  9  1  0
  8 10  2  0
  5 11  1  0
 11 12  1  0
 11 13  1  0
 13  3  1  0
  1 14  1  0
  1 15  1  0
  1 16  1  0
  2 17  1  0
  2 18  1  0
  4 19  1  0
  4 20  1  0
  5 21  1  1
  6 22  1  6
  7 23  1  0
  7 24  1  0
  9 25  1  0
  9 26  1  0
 11 27  1  1
 12 28  1  0
 13 29  1  0
 13 30  1  0
M  END
$$$$

     RDKit          3D

 30 30  0  0  0  0  0  0  0  0999 V2000
    3.4328    1.2264    0.7160 C   0  0  0  0  0  0  0  0  0  0  0  0
    1.9486    1.3884    0.5191 C   0  0  0  0  0  0  0  0  0  0  0  0
    1.4336    0.4555   -0.4698 N   0  0  0  0  0  0  0  0  0  0  0  0
    0.0160    0.6041   -0.6639 C   0  0  0  0  0  0  0  0  0  0  0  0
   -0.5935   -0.3605    0.3174 C   0  0  1  0  0  0  0  0  0  0  0  0
   -1.9962   -0.7708   -0.0493 C   0  0  1  0  0  0  0  0  0  0  0  0
   -2.4722   -1.6819    0.9459 N   0  0  0  0  0  0  0  0  0  0  0  0
   -2.8783    0.4202   -0.0665 C   0  0  0  0  0  0  0  0  0  0  0  0
   -2.6648    1.5142   -0.9561 N   0  0  0  0  0  0  0  0  0  0  0  0
   -3.8631    0.5180    0.7108 O   0  0  0  0  0  0  0  0  0  0  0  0
    0.3459   -1.5383    0.2328 C   0  0  1  0  0  0  0  0  0  0  0  0
    0.0431   -2.3605   -0.8711 O   0  0  0  0  0  0  0  0  0  0  0  0
    1.6747   -0.8891   -0.0067 C   0  0  0  0  0  0  0  0  0  0  0  0
    3.9727    2.0564    0.2171 H   0  0  0  0  0  0  0  0  0  0  0  0
    3.7089    1.2056    1.7920 H   0  0  0  0  0  0  0  0  0  0  0  0
    3.8256    0.2823    0.2707 H   0  0  0  0  0  0  0  0  0  0  0  0
    1.7003    2.4332    0.2367 H   0  0  0  0  0  0  0  0  0  0  0  0
    1.4724    1.1754    1.5087 H   0  0  0  0  0  0  0  0  0  0  0  0
   -0.3274    1.6456   -0.5290 H   0  0  0  0  0  0  0  0  0  0  0  0
   -0.2274    0.2537   -1.6997 H   0  0  0  0  0  0  0  0  0  0  0  0
   -0.5564    0.0758    1.3156 H   0  0  0  0  0  0  0  0  0  0  0  0
   -1.9903   -1.2806   -1.0383 H   0  0  0  0  0  0  0  0  0  0  0  0
   -3.1467   -1.2843    1.6051 H   0  0  0  0  0  0  0  0  0  0  0  0
   -2.6557   -2.6334    0.6146 H   0  0  0  0  0  0  0  0  0  0  0  0
   -2.3482    1.3518   -1.9359 H   0  0  0  0  0  0  0  0  0  0  0  0
   -2.8156    2.5002   -0.6626 H   0  0  0  0  0  0  0  0  0  0  0  0
    0.3342   -2.1689    1.1269 H   0  0  0  0  0  0  0  0  0  0  0  0
    0.0520   -1.8163   -1.7076 H   0  0  0  0  0  0  0  0  0  0  0  0
    2.2806   -1.4127   -0.7817 H   0  0  0  0  0  0  0  0  0  0  0  0
    2.2945   -0.9095    0.9233 H   0  0  0  0  0  0  0  0  0  0  0  0
  1  2  1  0
  2  3  1  0
  3  4  1  0
  4  5  1  0
  5  6  1  0
  6  7  1  0
  6  8  1  0
  8  9  1  0
  8 10  2  0
  5 11  1  0
 11 12  1  0
 11 13  1  0
 13  3  1  0
  1 14  1  0
  1 15  1  0
  1 16  1  0
  2 17  1  0
  2 18  1  0
  4 19  1  0
  4 20  1  0
  5 21  1  1
  6 22  1  6
  7 23  1  0
  7 24  1  0
  9 25  1  0
  9 26  1  0
 11 27  1  1
 12 28  1  0
 13 29  1  0
 13 30  1  0
M  END
$$$$

     RDKit          3D

 30 30  0  0  0  0  0  0  0  0999 V2000
    3.3948    0.9981    0.8761 C   0  0  0  0  0  0  0  0  0  0  0  0
    2.9261   -0.2376    0.1283 C   0  0  0  0  0  0  0  0  0  0  0  0
    1.5553   -0.0348   -0.2295 N   0  0  0  0  0  0  0  0  0  0  0  0
    0.6675   -0.0205    0.9103 C   0  0  0  0  0  0  0  0  0  0  0  0
   -0.6259   -0.6078    0.4715 C   0  0  1  0  0  0  0  0  0  0  0  0
   -1.5939    0.3792   -0.1005 C   0  0  1  0  0  0  0  0  0  0  0  0
   -2.7820   -0.4089   -0.4719 N   0  0  0  0  0  0  0  0  0  0  0  0
   -2.0316    1.4222    0.8340 C   0  0  0  0  0  0  0  0  0  0  0  0
   -3.3938    1.4791    1.2244 N   0  0  0  0  0  0  0  0  0  0  0  0
   -1.2788    2.3037    1.3395 O   0  0  0  0  0  0  0  0  0  0  0  0
   -0.2171   -1.5542   -0.6549 C   0  0  1  0  0  0  0  0  0  0  0  0
   -1.2332   -1.6503   -1.6024 O   0  0  0  0  0  0  0  0  0  0  0  0
    1.0290   -0.8990   -1.2165 C   0  0  0  0  0  0  0  0  0  0  0  0
    3.6277    0.7993    1.9322 H   0  0  0  0  0  0  0  0  0  0  0  0
    4.2460    1.4048    0.3078 H   0  0  0  0  0  0  0  0  0  0  0  0
    2.6218    1.8056    0.8785 H   0  0  0  0  0  0  0  0  0  0  0  0
    3.5765   -0.5291   -0.6920 H   0  0  0  0  0  0  0  0  0  0  0  0
    2.9418   -1.0875    0.8702 H   0  0  0  0  0  0  0  0  0  0  0  0
    0.6316    1.0181    1.2815 H   0  0  0  0  0  0  0  0  0  0  0  0
    1.0527   -0.6330    1.7525 H   0  0  0  0  0  0  0  0  0  0  0  0
   -1.0928   -1.2582    1.2545 H   0  0  0  0  0  0  0  0  0  0  0  0
   -1.1416    0.8177   -1.0121 H   0  0  0  0  0  0  0  0  0  0  0  0
   -3.6160    0.2186   -0.3800 H   0  0  0  0  0  0  0  0  0  0  0  0
   -2.8949   -1.1674    0.2467 H   0  0  0  0  0  0  0  0  0  0  0  0
   -3.7684    0.7529    1.8482 H   0  0  0  0  0  0  0  0  0  0  0  0
   -3.9886    2.2485    0.8760 H   0  0  0  0  0  0  0  0  0  0  0  0
    0.0435   -2.5607   -0.2764 H   0  0  0  0  0  0  0  0  0  0  0  0
   -1.0591   -1.0545   -2.3865 H   0  0  0  0  0  0  0  0  0  0  0  0
    0.6665   -0.2886   -2.0956 H   0  0  0  0  0  0  0  0  0  0  0  0
    1.7367   -1.6561   -1.6100 H   0  0  0  0  0  0  0  0  0  0  0  0
  1  2  1  0
  2  3  1  0
  3  4  1  0
  4  5  1  0
  5  6  1  0
  6  7  1  0
  6  8  1  0
  8  9  1  0
  8 10  2  0
  5 11  1  0
 11 12  1  0
 11 13  1  0
 13  3  1  0
  1 14  1  0
  1 15  1  0
  1 16  1  0
  2 17  1  0
  2 18  1  0
  4 19  1  0
  4 20  1  0
  5 21  1  1
  6 22  1  6
  7 23  1  0
  7 24  1  0
  9 25  1  0
  9 26  1  0
 11 27  1  1
 12 28  1  0
 13 29  1  0
 13 30  1  0
M  END
$$$$

     RDKit          3D

 30 30  0  0  0  0  0  0  0  0999 V2000
   -3.5595    1.0039   -0.0698 C   0  0  0  0  0  0  0  0  0  0  0  0
   -2.2039    1.0922   -0.6398 C   0  0  0  0  0  0  0  0  0  0  0  0
   -1.3611   -0.0405   -0.4447 N   0  0  0  0  0  0  0  0  0  0  0  0
   -0.0608    0.0689   -1.0029 C   0  0  0  0  0  0  0  0  0  0  0  0
    0.6867   -1.0950   -0.3673 C   0  0  1  0  0  0  0  0  0  0  0  0
    2.0754   -0.6747    0.0324 C   0  0  1  0  0  0  0  0  0  0  0  0
    2.7950   -0.2500   -1.1926 N   0  0  0  0  0  0  0  0  0  0  0  0
    2.1115    0.5023    0.9326 C   0  0  0  0  0  0  0  0  0  0  0  0
    2.6723    1.7552    0.5617 N   0  0  0  0  0  0  0  0  0  0  0  0
    1.6330    0.4208    2.0814 O   0  0  0  0  0  0  0  0  0  0  0  0
   -0.1803   -1.6047    0.7230 C   0  0  1  0  0  0  0  0  0  0  0  0
    0.4334   -1.8482    1.9272 O   0  0  0  0  0  0  0  0  0  0  0  0
   -1.3220   -0.5811    0.8578 C   0  0  0  0  0  0  0  0  0  0  0  0
   -3.6897    1.5936    0.8844 H   0  0  0  0  0  0  0  0  0  0  0  0
   -4.2998    1.4681   -0.7761 H   0  0  0  0  0  0  0  0  0  0  0  0
   -3.9333   -0.0015    0.1467 H   0  0  0  0  0  0  0  0  0  0  0  0
   -2.2601    1.2795   -1.7492 H   0  0  0  0  0  0  0  0  0  0  0  0
   -1.6840    1.9829   -0.2254 H   0  0  0  0  0  0  0  0  0  0  0  0
    0.3995    1.0450   -0.7169 H   0  0  0  0  0  0  0  0  0  0  0  0
   -0.0208    0.0029   -2.1011 H   0  0  0  0  0  0  0  0  0  0  0  0
    0.8279   -1.8733   -1.1779 H   0  0  0  0  0  0  0  0  0  0  0  0
    2.6377   -1.5478    0.4154 H   0  0  0  0  0  0  0  0  0  0  0  0
    3.3664   -1.0257   -1.5728 H   0  0  0  0  0  0  0  0  0  0  0  0
    2.0715    0.1127   -1.8294 H   0  0  0  0  0  0  0  0  0  0  0  0
    3.1170    2.4030    1.2421 H   0  0  0  0  0  0  0  0  0  0  0  0
    2.6626    2.0907   -0.4373 H   0  0  0  0  0  0  0  0  0  0  0  0
   -0.6035   -2.5845    0.3801 H   0  0  0  0  0  0  0  0  0  0  0  0
    0.9342   -2.6848    1.8710 H   0  0  0  0  0  0  0  0  0  0  0  0
   -1.0401    0.1729    1.5932 H   0  0  0  0  0  0  0  0  0  0  0  0
   -2.2052   -1.1829    1.1453 H   0  0  0  0  0  0  0  0  0  0  0  0
  1  2  1  0
  2  3  1  0
  3  4  1  0
  4  5  1  0
  5  6  1  0
  6  7  1  0
  6  8  1  0
  8  9  1  0
  8 10  2  0
  5 11  1  0
 11 12  1  0
 11 13  1  0
 13  3  1  0
  1 14  1  0
  1 15  1  0
  1 16  1  0
  2 17  1  0
  2 18  1  0
  4 19  1  0
  4 20  1  0
  5 21  1  6
  6 22  1  1
  7 23  1  0
  7 24  1  0
  9 25  1  0
  9 26  1  0
 11 27  1  6
 12 28  1  0
 13 29  1  0
 13 30  1  0
M  END
$$$$

     RDKit          3D

 30 30  0  0  0  0  0  0  0  0999 V2000
   -3.4277   -1.2744   -0.2410 C   0  0  0  0  0  0  0  0  0  0  0  0
   -2.7901    0.0354   -0.5900 C   0  0  0  0  0  0  0  0  0  0  0  0
   -1.7194    0.3110    0.3743 N   0  0  0  0  0  0  0  0  0  0  0  0
   -0.7009   -0.6558    0.1302 C   0  0  0  0  0  0  0  0  0  0  0  0
    0.5773    0.0539    0.5153 C   0  0  1  0  0  0  0  0  0  0  0  0
    1.6989   -0.7005   -0.1524 C   0  0  1  0  0  0  0  0  0  0  0  0
    1.5354   -0.7033   -1.5915 N   0  0  0  0  0  0  0  0  0  0  0  0
    3.0395   -0.2576    0.2276 C   0  0  0  0  0  0  0  0  0  0  0  0
    3.5151   -0.1367    1.5495 N   0  0  0  0  0  0  0  0  0  0  0  0
    3.8475    0.0446   -0.6923 O   0  0  0  0  0  0  0  0  0  0  0  0
    0.3489    1.4309   -0.0110 C   0  0  1  0  0  0  0  0  0  0  0  0
    0.8360    1.6678   -1.2800 O   0  0  0  0  0  0  0  0  0  0  0  0
   -1.1456    1.6098    0.1085 C   0  0  0  0  0  0  0  0  0  0  0  0
   -4.2033   -1.5332   -0.9978 H   0  0  0  0  0  0  0  0  0  0  0  0
   -3.9087   -1.1970    0.7457 H   0  0  0  0  0  0  0  0  0  0  0  0
   -2.6327   -2.0586   -0.2626 H   0  0  0  0  0  0  0  0  0  0  0  0
   -2.3661   -0.0136   -1.6277 H   0  0  0  0  0  0  0  0  0  0  0  0
   -3.5236    0.8485   -0.5155 H   0  0  0  0  0  0  0  0  0  0  0  0
   -0.6454   -0.9262   -0.9474 H   0  0  0  0  0  0  0  0  0  0  0  0
   -0.7736   -1.5520    0.7806 H   0  0  0  0  0  0  0  0  0  0  0  0
    0.6632    0.0685    1.6029 H   0  0  0  0  0  0  0  0  0  0  0  0
    1.6050   -1.7680    0.1977 H   0  0  0  0  0  0  0  0  0  0  0  0
    2.4603   -0.5406   -2.0392 H   0  0  0  0  0  0  0  0  0  0  0  0
    1.0670   -1.5813   -1.8896 H   0  0  0  0  0  0  0  0  0  0  0  0
    3.3841   -0.8229    2.3119 H   0  0  0  0  0  0  0  0  0  0  0  0
    4.0564    0.7379    1.7845 H   0  0  0  0  0  0  0  0  0  0  0  0
    0.8201    2.1432    0.7278 H   0  0  0  0  0  0  0  0  0  0  0  0
    1.4099    2.4832   -1.2569 H   0  0  0  0  0  0  0  0  0  0  0  0
   -1.4098    2.2391    1.0069 H   0  0  0  0  0  0  0  0  0  0  0  0
   -1.6175    2.0479   -0.7717 H   0  0  0  0  0  0  0  0  0  0  0  0
  1  2  1  0
  2  3  1  0
  3  4  1  0
  4  5  1  0
  5  6  1  0
  6  7  1  0
  6  8  1  0
  8  9  1  0
  8 10  2  0
  5 11  1  0
 11 12  1  0
 11 13  1  0
 13  3  1  0
  1 14  1  0
  1 15  1  0
  1 16  1  0
  2 17  1  0
  2 18  1  0
  4 19  1  0
  4 20  1  0
  5 21  1  1
  6 22  1  1
  7 23  1  0
  7 24  1  0
  9 25  1  0
  9 26  1  0
 11 27  1  1
 12 28  1  0
 13 29  1  0
 13 30  1  0
M  END
$$$$

     RDKit          3D

 30 30  0  0  0  0  0  0  0  0999 V2000
   -3.7580   -0.7783   -0.1896 C   0  0  0  0  0  0  0  0  0  0  0  0
   -2.7915    0.0611    0.6554 C   0  0  0  0  0  0  0  0  0  0  0  0
   -1.6387    0.3274   -0.1326 N   0  0  0  0  0  0  0  0  0  0  0  0
   -0.7971   -0.7722   -0.4362 C   0  0  0  0  0  0  0  0  0  0  0  0
    0.4955   -0.4994    0.3108 C   0  0  1  0  0  0  0  0  0  0  0  0
    1.6608   -0.7789   -0.5685 C   0  0  1  0  0  0  0  0  0  0  0  0
    1.7458   -0.0182   -1.7741 N   0  0  0  0  0  0  0  0  0  0  0  0
    2.9151   -0.7185    0.1839 C   0  0  0  0  0  0  0  0  0  0  0  0
    4.0431   -0.0757   -0.3834 N   0  0  0  0  0  0  0  0  0  0  0  0
    2.9851   -1.2359    1.3231 O   0  0  0  0  0  0  0  0  0  0  0  0
    0.4118    0.8624    0.8902 C   0  0  1  0  0  0  0  0  0  0  0  0
    1.5178    1.6713    0.6580 O   0  0  0  0  0  0  0  0  0  0  0  0
   -0.8401    1.4421    0.2339 C   0  0  0  0  0  0  0  0  0  0  0  0
   -3.2073   -1.2085   -1.0499 H   0  0  0  0  0  0  0  0  0  0  0  0
   -4.4938   -0.0554   -0.6045 H   0  0  0  0  0  0  0  0  0  0  0  0
   -4.2148   -1.5978    0.3925 H   0  0  0  0  0  0  0  0  0  0  0  0
   -3.2847    0.9758    1.0316 H   0  0  0  0  0  0  0  0  0  0  0  0
   -2.5702   -0.5743    1.5582 H   0  0  0  0  0  0  0  0  0  0  0  0
   -0.6244   -0.7725   -1.5411 H   0  0  0  0  0  0  0  0  0  0  0  0
   -1.1775   -1.7671   -0.1688 H   0  0  0  0  0  0  0  0  0  0  0  0
    0.5464   -1.2212    1.1605 H   0  0  0  0  0  0  0  0  0  0  0  0
    1.5481   -1.8544   -0.8984 H   0  0  0  0  0  0  0  0  0  0  0  0
    1.0933   -0.2692   -2.5161 H   0  0  0  0  0  0  0  0  0  0  0  0
    1.9488    0.9933   -1.6537 H   0  0  0  0  0  0  0  0  0  0  0  0
    4.5172    0.6533    0.1788 H   0  0  0  0  0  0  0  0  0  0  0  0
    4.3487   -0.3544   -1.3339 H   0  0  0  0  0  0  0  0  0  0  0  0
    0.2340    0.8729    1.9806 H   0  0  0  0  0  0  0  0  0  0  0  0
    1.1804    2.5764    0.3969 H   0  0  0  0  0  0  0  0  0  0  0  0
   -1.3231    2.2008    0.8664 H   0  0  0  0  0  0  0  0  0  0  0  0
   -0.4708    1.9150   -0.7276 H   0  0  0  0  0  0  0  0  0  0  0  0
  1  2  1  0
  2  3  1  0
  3  4  1  0
  4  5  1  0
  5  6  1  0
  6  7  1  0
  6  8  1  0
  8  9  1  0
  8 10  2  0
  5 11  1  0
 11 12  1  0
 11 13  1  0
 13  3  1  0
  1 14  1  0
  1 15  1  0
  1 16  1  0
  2 17  1  0
  2 18  1  0
  4 19  1  0
  4 20  1  0
  5 21  1  1
  6 22  1  6
  7 23  1  0
  7 24  1  0
  9 25  1  0
  9 26  1  0
 11 27  1  1
 12 28  1  0
 13 29  1  0
 13 30  1  0
M  END
$$$$
