
     RDKit          3D

 26 26  0  0  0  0  0  0  0  0999 V2000
   -1.8409    0.8645   -1.2918 C   0  0  0  0  0  0  0  0  0  0  0  0
   -1.6595   -0.1788   -0.2350 C   0  0  0  0  0  0  0  0  0  0  0  0
   -0.3073   -0.5596    0.0547 N   0  0  0  0  0  0  0  0  0  0  0  0
    0.6389    0.3941    0.5189 C   0  0  0  0  0  0  0  0  0  0  0  0
    0.2264    1.5785    0.6593 O   0  0  0  0  0  0  0  0  0  0  0  0
    2.0204    0.0066    0.8152 C   0  0  1  0  0  0  0  0  0  0  0  0
    2.1939   -1.3824    0.5655 N   0  0  0  0  0  0  0  0  0  0  0  0
    3.0091    0.8764    0.0705 C   0  0  0  0  0  0  0  0  0  0  0  0
    2.9010    0.7090   -1.3021 O   0  0  0  0  0  0  0  0  0  0  0  0
   -2.5276    0.0891    0.9750 C   0  0  0  0  0  0  0  0  0  0  0  0
   -3.5677   -0.5743    0.3159 O   0  0  0  0  0  0  0  0  0  0  0  0
   -2.5742   -1.3663   -0.3015 C   0  0  0  0  0  0  0  0  0  0  0  0
   -2.3604    0.4652   -2.1890 H   0  0  0  0  0  0  0  0  0  0  0  0
   -2.4411    1.7158   -0.8976 H   0  0  0  0  0  0  0  0  0  0  0  0
   -0.8521    1.2837   -1.6348 H   0  0  0  0  0  0  0  0  0  0  0  0
    0.0033   -1.5480   -0.0717 H   0  0  0  0  0  0  0  0  0  0  0  0
    2.1868    0.1803    1.9074 H   0  0  0  0  0  0  0  0  0  0  0  0
    2.5913   -1.6287   -0.3518 H   0  0  0  0  0  0  0  0  0  0  0  0
    2.4929   -1.9480    1.3617 H   0  0  0  0  0  0  0  0  0  0  0  0
    4.0339    0.6416    0.4036 H   0  0  0  0  0  0  0  0  0  0  0  0
    2.8474    1.9527    0.2770 H   0  0  0  0  0  0  0  0  0  0  0  0
    3.0641    1.5523   -1.8036 H   0  0  0  0  0  0  0  0  0  0  0  0
   -2.7669    1.1636    1.0589 H   0  0  0  0  0  0  0  0  0  0  0  0
   -2.2154   -0.4190    1.8932 H   0  0  0  0  0  0  0  0  0  0  0  0
   -2.2525   -2.1838    0.3467 H   0  0  0  0  0  0  0  0  0  0  0  0
   -2.8435   -1.6846   -1.3311 H   0  0  0  0  0  0  0  0  0  0  0  0
  1  2  1  0
  2  3  1  0
  3  4  1  0
  4  5  2  0
  4  6  1  0
  6  7  1  0
  6  8  1  0
  8  9  1  0
  2 10  1  0
 10 11  1  0
 11 12  1  0
 12  2  1  0
  1 13  1  0
  1 14  1  0
  1 15  1  0
  3 16  1  0
  6 17  1  1
  7 18  1  0
  7 19  1  0
  8 20  1  0
  8 21  1  0
  9 22  1  0
 10 23  1  0
 10 24  1  0
 12 25  1  0
 12 26  1  0
M  END
$$$$

     RDKit          3D

 26 26  0  0  0  0  0  0  0  0999 V2000
   -2.1312   -0.9794    1.1498 C   0  0  0  0  0  0  0  0  0  0  0  0
   -1.7657    0.0859    0.1338 C   0  0  0  0  0  0  0  0  0  0  0  0
   -0.3756    0.4523    0.2780 N   0  0  0  0  0  0  0  0  0  0  0  0
    0.7031   -0.4551    0.1301 C   0  0  0  0  0  0  0  0  0  0  0  0
    0.4018   -1.6462   -0.1436 O   0  0  0  0  0  0  0  0  0  0  0  0
    2.1113   -0.1226    0.2678 C   0  0  1  0  0  0  0  0  0  0  0  0
    2.9457   -1.2877    0.0526 N   0  0  0  0  0  0  0  0  0  0  0  0
    2.6071    0.9722   -0.6174 C   0  0  0  0  0  0  0  0  0  0  0  0
    3.9382    1.2370   -0.2665 O   0  0  0  0  0  0  0  0  0  0  0  0
   -2.2192   -0.2378   -1.2564 C   0  0  0  0  0  0  0  0  0  0  0  0
   -2.9136    0.9617   -1.3448 O   0  0  0  0  0  0  0  0  0  0  0  0
   -2.7201    1.2255    0.0098 C   0  0  0  0  0  0  0  0  0  0  0  0
   -2.8110   -1.7273    0.6889 H   0  0  0  0  0  0  0  0  0  0  0  0
   -1.2137   -1.4685    1.5354 H   0  0  0  0  0  0  0  0  0  0  0  0
   -2.6465   -0.4699    2.0054 H   0  0  0  0  0  0  0  0  0  0  0  0
   -0.1885    1.4508    0.5043 H   0  0  0  0  0  0  0  0  0  0  0  0
    2.2889    0.1885    1.3301 H   0  0  0  0  0  0  0  0  0  0  0  0
    2.9923   -1.5756   -0.9457 H   0  0  0  0  0  0  0  0  0  0  0  0
    2.6053   -2.1151    0.5997 H   0  0  0  0  0  0  0  0  0  0  0  0
    2.5891    0.6436   -1.6833 H   0  0  0  0  0  0  0  0  0  0  0  0
    2.0606    1.9192   -0.5312 H   0  0  0  0  0  0  0  0  0  0  0  0
    4.0383    1.0328    0.6905 H   0  0  0  0  0  0  0  0  0  0  0  0
   -1.4512   -0.2865   -2.0372 H   0  0  0  0  0  0  0  0  0  0  0  0
   -2.8927   -1.1403   -1.2641 H   0  0  0  0  0  0  0  0  0  0  0  0
   -3.6676    1.0999    0.5969 H   0  0  0  0  0  0  0  0  0  0  0  0
   -2.2853    2.2427    0.1171 H   0  0  0  0  0  0  0  0  0  0  0  0
  1  2  1  0
  2  3  1  0
  3  4  1  0
  4  5  2  0
  4  6  1  0
  6  7  1  0
  6  8  1  0
  8  9  1  0
  2 10  1  0
 10 11  1  0
 11 12  1  0
 12  2  1  0
  1 13  1  0
  1 14  1  0
  1 15  1  0
  3 16  1  0
  6 17  1  1
  7 18  1  0
  7 19  1  0
  8 20  1  0
  8 21  1  0
  9 22  1  0
 10 23  1  0
 10 24  1  0
 12 25  1  0
 12 26  1  0
M  END
$$$$

     RDKit          3D

 26 26  0  0  0  0  0  0  0  0999 V2000
   -2.4757   -1.3330   -0.8172 C   0  0  0  0  0  0  0  0  0  0  0  0
   -1.6962   -0.1912   -0.1586 C   0  0  0  0  0  0  0  0  0  0  0  0
   -0.3141   -0.4897   -0.0036 N   0  0  0  0  0  0  0  0  0  0  0  0
    0.6411    0.3561    0.5735 C   0  0  0  0  0  0  0  0  0  0  0  0
    0.2791    1.4844    1.0033 O   0  0  0  0  0  0  0  0  0  0  0  0
    2.0619   -0.0961    0.6665 C   0  0  1  0  0  0  0  0  0  0  0  0
    2.1972   -1.4190    0.1028 N   0  0  0  0  0  0  0  0  0  0  0  0
    2.9481    0.8855   -0.0388 C   0  0  0  0  0  0  0  0  0  0  0  0
    2.6841    1.0123   -1.3865 O   0  0  0  0  0  0  0  0  0  0  0  0
   -2.4421    0.3542    0.9952 C   0  0  0  0  0  0  0  0  0  0  0  0
   -3.1157    1.2280    0.1443 O   0  0  0  0  0  0  0  0  0  0  0  0
   -2.0650    1.1456   -0.7481 C   0  0  0  0  0  0  0  0  0  0  0  0
   -3.5658   -1.1729   -0.7236 H   0  0  0  0  0  0  0  0  0  0  0  0
   -2.1876   -2.2556   -0.2650 H   0  0  0  0  0  0  0  0  0  0  0  0
   -2.1934   -1.4739   -1.8668 H   0  0  0  0  0  0  0  0  0  0  0  0
    0.0357   -1.4334   -0.3523 H   0  0  0  0  0  0  0  0  0  0  0  0
    2.3230   -0.0660    1.7434 H   0  0  0  0  0  0  0  0  0  0  0  0
    2.9819   -1.5173   -0.5583 H   0  0  0  0  0  0  0  0  0  0  0  0
    2.2385   -2.1686    0.8182 H   0  0  0  0  0  0  0  0  0  0  0  0
    2.7905    1.8780    0.4534 H   0  0  0  0  0  0  0  0  0  0  0  0
    4.0091    0.6084    0.1198 H   0  0  0  0  0  0  0  0  0  0  0  0
    3.5490    1.1196   -1.8941 H   0  0  0  0  0  0  0  0  0  0  0  0
   -1.8718    0.9098    1.7619 H   0  0  0  0  0  0  0  0  0  0  0  0
   -3.1292   -0.3554    1.4881 H   0  0  0  0  0  0  0  0  0  0  0  0
   -2.3655    1.0673   -1.8197 H   0  0  0  0  0  0  0  0  0  0  0  0
   -1.3172    1.9228   -0.6256 H   0  0  0  0  0  0  0  0  0  0  0  0
  1  2  1  0
  2  3  1  0
  3  4  1  0
  4  5  2  0
  4  6  1  0
  6  7  1  0
  6  8  1  0
  8  9  1  0
  2 10  1  0
 10 11  1  0
 11 12  1  0
 12  2  1  0
  1 13  1  0
  1 14  1  0
  1 15  1  0
  3 16  1  0
  6 17  1  1
  7 18  1  0
  7 19  1  0
  8 20  1  0
  8 21  1  0
  9 22  1  0
 10 23  1  0
 10 24  1  0
 12 25  1  0
 12 26  1  0
M  END
$$$$

     RDKit          3D

 26 26  0  0  0  0  0  0  0  0999 V2000
   -2.1102    1.4909   -0.6485 C   0  0  0  0  0  0  0  0  0  0  0  0
   -1.7279    0.1536   -0.0419 C   0  0  0  0  0  0  0  0  0  0  0  0
   -0.4198    0.1180    0.5707 N   0  0  0  0  0  0  0  0  0  0  0  0
    0.7335    0.3915   -0.2096 C   0  0  0  0  0  0  0  0  0  0  0  0
    0.5637    0.6586   -1.4258 O   0  0  0  0  0  0  0  0  0  0  0  0
    2.0864    0.3615    0.3941 C   0  0  1  0  0  0  0  0  0  0  0  0
    1.9771    0.0293    1.7941 N   0  0  0  0  0  0  0  0  0  0  0  0
    2.9297   -0.6796   -0.3486 C   0  0  0  0  0  0  0  0  0  0  0  0
    4.2106   -0.7215    0.2052 O   0  0  0  0  0  0  0  0  0  0  0  0
   -2.8246   -0.3343    0.8880 C   0  0  0  0  0  0  0  0  0  0  0  0
   -2.8029   -1.5836    0.2770 O   0  0  0  0  0  0  0  0  0  0  0  0
   -2.1250   -1.0491   -0.8304 C   0  0  0  0  0  0  0  0  0  0  0  0
   -2.1147    1.3641   -1.7427 H   0  0  0  0  0  0  0  0  0  0  0  0
   -3.1292    1.7987   -0.3453 H   0  0  0  0  0  0  0  0  0  0  0  0
   -1.4126    2.2871   -0.3195 H   0  0  0  0  0  0  0  0  0  0  0  0
   -0.3405   -0.1128    1.5979 H   0  0  0  0  0  0  0  0  0  0  0  0
    2.5433    1.3554    0.2269 H   0  0  0  0  0  0  0  0  0  0  0  0
    1.5822   -0.9335    1.8543 H   0  0  0  0  0  0  0  0  0  0  0  0
    2.9242    0.1004    2.2349 H   0  0  0  0  0  0  0  0  0  0  0  0
    3.0466   -0.3616   -1.4020 H   0  0  0  0  0  0  0  0  0  0  0  0
    2.4273   -1.6664   -0.3367 H   0  0  0  0  0  0  0  0  0  0  0  0
    4.3397    0.0662    0.7590 H   0  0  0  0  0  0  0  0  0  0  0  0
   -3.7774    0.2082    0.7597 H   0  0  0  0  0  0  0  0  0  0  0  0
   -2.4793   -0.3610    1.9503 H   0  0  0  0  0  0  0  0  0  0  0  0
   -2.8011   -0.8261   -1.6832 H   0  0  0  0  0  0  0  0  0  0  0  0
   -1.2991   -1.7542   -1.0962 H   0  0  0  0  0  0  0  0  0  0  0  0
  1  2  1  0
  2  3  1  0
  3  4  1  0
  4  5  2  0
  4  6  1  0
  6  7  1  0
  6  8  1  0
  8  9  1  0
  2 10  1  0
 10 11  1  0
 11 12  1  0
 12  2  1  0
  1 13  1  0
  1 14  1  0
  1 15  1  0
  3 16  1  0
  6 17  1  1
  7 18  1  0
  7 19  1  0
  8 20  1  0
  8 21  1  0
  9 22  1  0
 10 23  1  0
 10 24  1  0
 12 25  1  0
 12 26  1  0
M  END
$$$$

     RDKit          3D

 26 26  0  0  0  0  0  0  0  0999 V2000
   -1.9557    0.7880    1.1564 C   0  0  0  0  0  0  0  0  0  0  0  0
   -1.6491    0.1153   -0.1526 C   0  0  0  0  0  0  0  0  0  0  0  0
   -0.2881    0.1466   -0.5827 N   0  0  0  0  0  0  0  0  0  0  0  0
    0.7967   -0.4086    0.1458 C   0  0  0  0  0  0  0  0  0  0  0  0
    0.5427   -0.9671    1.2465 O   0  0  0  0  0  0  0  0  0  0  0  0
    2.1545   -0.3067   -0.4139 C   0  0  1  0  0  0  0  0  0  0  0  0
    2.1150    0.3857   -1.6818 N   0  0  0  0  0  0  0  0  0  0  0  0
    3.1265    0.3717    0.5173 C   0  0  0  0  0  0  0  0  0  0  0  0
    3.1392   -0.3253    1.7352 O   0  0  0  0  0  0  0  0  0  0  0  0
   -2.2451   -1.2677   -0.2857 C   0  0  0  0  0  0  0  0  0  0  0  0
   -2.5426   -0.9898   -1.6184 O   0  0  0  0  0  0  0  0  0  0  0  0
   -2.6468    0.3572   -1.2620 C   0  0  0  0  0  0  0  0  0  0  0  0
   -1.3949    1.7370    1.2036 H   0  0  0  0  0  0  0  0  0  0  0  0
   -1.7805    0.1657    2.0351 H   0  0  0  0  0  0  0  0  0  0  0  0
   -3.0343    1.0665    1.1353 H   0  0  0  0  0  0  0  0  0  0  0  0
   -0.0894    0.6215   -1.5137 H   0  0  0  0  0  0  0  0  0  0  0  0
    2.5360   -1.3419   -0.6242 H   0  0  0  0  0  0  0  0  0  0  0  0
    1.6175   -0.1377   -2.4122 H   0  0  0  0  0  0  0  0  0  0  0  0
    1.8074    1.3698   -1.5767 H   0  0  0  0  0  0  0  0  0  0  0  0
    2.8671    1.4122    0.7039 H   0  0  0  0  0  0  0  0  0  0  0  0
    4.1389    0.2347    0.0783 H   0  0  0  0  0  0  0  0  0  0  0  0
    3.2820   -1.2817    1.5130 H   0  0  0  0  0  0  0  0  0  0  0  0
   -3.1106   -1.4115    0.3606 H   0  0  0  0  0  0  0  0  0  0  0  0
   -1.4667   -2.0536   -0.1880 H   0  0  0  0  0  0  0  0  0  0  0  0
   -3.6277    0.6524   -0.8511 H   0  0  0  0  0  0  0  0  0  0  0  0
   -2.2919    1.0673   -2.0280 H   0  0  0  0  0  0  0  0  0  0  0  0
  1  2  1  0
  2  3  1  0
  3  4  1  0
  4  5  2  0
  4  6  1  0
  6  7  1  0
  6  8  1  0
  8  9  1  0
  2 10  1  0
 10 11  1  0
 11 12  1  0
 12  2  1  0
  1 13  1  0
  1 14  1  0
  1 15  1  0
  3 16  1  0
  6 17  1  6
  7 18  1  0
  7 19  1  0
  8 20  1  0
  8 21  1  0
  9 22  1  0
 10 23  1  0
 10 24  1  0
 12 25  1  0
 12 26  1  0
M  END
$$$$

     RDKit          3D

 26 26  0  0  0  0  0  0  0  0999 V2000
   -1.9881    0.9391   -1.1146 C   0  0  0  0  0  0  0  0  0  0  0  0
   -1.7028    0.2153    0.1733 C   0  0  0  0  0  0  0  0  0  0  0  0
   -0.3459    0.1650    0.5918 N   0  0  0  0  0  0  0  0  0  0  0  0
    0.6549   -0.4373   -0.2064 C   0  0  0  0  0  0  0  0  0  0  0  0
    0.3948   -0.9604   -1.3299 O   0  0  0  0  0  0  0  0  0  0  0  0
    2.0616   -0.4687    0.2681 C   0  0  1  0  0  0  0  0  0  0  0  0
    2.9042   -1.1283   -0.7020 N   0  0  0  0  0  0  0  0  0  0  0  0
    2.5700    0.9480    0.4465 C   0  0  0  0  0  0  0  0  0  0  0  0
    3.8808    0.9327    0.8959 O   0  0  0  0  0  0  0  0  0  0  0  0
   -2.4711   -1.0963    0.2613 C   0  0  0  0  0  0  0  0  0  0  0  0
   -3.6074   -0.3087    0.5637 O   0  0  0  0  0  0  0  0  0  0  0  0
   -2.7067    0.5309    1.2617 C   0  0  0  0  0  0  0  0  0  0  0  0
   -2.8999    1.5649   -1.0100 H   0  0  0  0  0  0  0  0  0  0  0  0
   -1.1731    1.6272   -1.4140 H   0  0  0  0  0  0  0  0  0  0  0  0
   -2.1839    0.1708   -1.8889 H   0  0  0  0  0  0  0  0  0  0  0  0
   -0.0687    0.5741    1.4986 H   0  0  0  0  0  0  0  0  0  0  0  0
    2.0767   -1.0265    1.2364 H   0  0  0  0  0  0  0  0  0  0  0  0
    3.7619   -1.5521   -0.2844 H   0  0  0  0  0  0  0  0  0  0  0  0
    2.3971   -1.8750   -1.2301 H   0  0  0  0  0  0  0  0  0  0  0  0
    2.5637    1.4323   -0.5419 H   0  0  0  0  0  0  0  0  0  0  0  0
    1.9361    1.4673    1.1755 H   0  0  0  0  0  0  0  0  0  0  0  0
    4.1987    0.0022    1.0888 H   0  0  0  0  0  0  0  0  0  0  0  0
   -2.5410   -1.6603   -0.6672 H   0  0  0  0  0  0  0  0  0  0  0  0
   -2.2159   -1.6700    1.1779 H   0  0  0  0  0  0  0  0  0  0  0  0
   -3.0334    1.5789    1.3141 H   0  0  0  0  0  0  0  0  0  0  0  0
   -2.4621    0.0347    2.2184 H   0  0  0  0  0  0  0  0  0  0  0  0
  1  2  1  0
  2  3  1  0
  3  4  1  0
  4  5  2  0
  4  6  1  0
  6  7  1  0
  6  8  1  0
  8  9  1  0
  2 10  1  0
 10 11  1  0
 11 12  1  0
 12  2  1  0
  1 13  1  0
  1 14  1  0
  1 15  1  0
  3 16  1  0
  6 17  1  1
  7 18  1  0
  7 19  1  0
  8 20  1  0
  8 21  1  0
  9 22  1  0
 10 23  1  0
 10 24  1  0
 12 25  1  0
 12 26  1  0
M  END
$$$$

     RDKit          3D

 26 26  0  0  0  0  0  0  0  0999 V2000
   -2.0456    1.3435    0.6385 C   0  0  0  0  0  0  0  0  0  0  0  0
   -1.7602    0.1755   -0.2617 C   0  0  0  0  0  0  0  0  0  0  0  0
   -0.3879   -0.0813   -0.5487 N   0  0  0  0  0  0  0  0  0  0  0  0
    0.5932   -0.3818    0.4352 C   0  0  0  0  0  0  0  0  0  0  0  0
    0.2417   -0.4271    1.6389 O   0  0  0  0  0  0  0  0  0  0  0  0
    1.9803   -0.6271   -0.0001 C   0  0  1  0  0  0  0  0  0  0  0  0
    2.1113   -0.5128   -1.4402 N   0  0  0  0  0  0  0  0  0  0  0  0
    2.9546    0.3595    0.6081 C   0  0  0  0  0  0  0  0  0  0  0  0
    4.2383   -0.0036    0.1696 O   0  0  0  0  0  0  0  0  0  0  0  0
   -2.6094   -1.0207    0.0735 C   0  0  0  0  0  0  0  0  0  0  0  0
   -3.6376   -0.4372   -0.6898 O   0  0  0  0  0  0  0  0  0  0  0  0
   -2.6235    0.1103   -1.4898 C   0  0  0  0  0  0  0  0  0  0  0  0
   -1.1203    1.5307    1.2397 H   0  0  0  0  0  0  0  0  0  0  0  0
   -2.2380    2.2557    0.0171 H   0  0  0  0  0  0  0  0  0  0  0  0
   -2.9019    1.1182    1.2898 H   0  0  0  0  0  0  0  0  0  0  0  0
   -0.0697   -0.0492   -1.5403 H   0  0  0  0  0  0  0  0  0  0  0  0
    2.2702   -1.6544    0.2658 H   0  0  0  0  0  0  0  0  0  0  0  0
    2.9855   -0.9293   -1.7775 H   0  0  0  0  0  0  0  0  0  0  0  0
    2.0696    0.5072   -1.6611 H   0  0  0  0  0  0  0  0  0  0  0  0
    2.9225    0.3947    1.6971 H   0  0  0  0  0  0  0  0  0  0  0  0
    2.7843    1.3840    0.2201 H   0  0  0  0  0  0  0  0  0  0  0  0
    4.6545   -0.5027    0.9253 H   0  0  0  0  0  0  0  0  0  0  0  0
   -2.3129   -1.9720   -0.3691 H   0  0  0  0  0  0  0  0  0  0  0  0
   -2.9469   -1.0497    1.1318 H   0  0  0  0  0  0  0  0  0  0  0  0
   -2.8898    1.0848   -1.9477 H   0  0  0  0  0  0  0  0  0  0  0  0
   -2.2622   -0.6155   -2.2365 H   0  0  0  0  0  0  0  0  0  0  0  0
  1  2  1  0
  2  3  1  0
  3  4  1  0
  4  5  2  0
  4  6  1  0
  6  7  1  0
  6  8  1  0
  8  9  1  0
  2 10  1  0
 10 11  1  0
 11 12  1  0
 12  2  1  0
  1 13  1  0
  1 14  1  0
  1 15  1  0
  3 16  1  0
  6 17  1  1
  7 18  1  0
  7 19  1  0
  8 20  1  0
  8 21  1  0
  9 22  1  0
 10 23  1  0
 10 24  1  0
 12 25  1  0
 12 26  1  0
M  END
$$$$

     RDKit          3D

 26 26  0  0  0  0  0  0  0  0999 V2000
   -2.1124   -1.1052    0.8787 C   0  0  0  0  0  0  0  0  0  0  0  0
   -1.7242    0.2258    0.3049 C   0  0  0  0  0  0  0  0  0  0  0  0
   -0.3397    0.4784    0.1229 N   0  0  0  0  0  0  0  0  0  0  0  0
    0.5316   -0.2838   -0.6977 C   0  0  0  0  0  0  0  0  0  0  0  0
    0.0805   -1.2522   -1.3176 O   0  0  0  0  0  0  0  0  0  0  0  0
    1.9733    0.0441   -0.8374 C   0  0  1  0  0  0  0  0  0  0  0  0
    2.3288    1.2025   -0.0460 N   0  0  0  0  0  0  0  0  0  0  0  0
    2.7529   -1.1834   -0.4188 C   0  0  0  0  0  0  0  0  0  0  0  0
    4.1253   -1.0031   -0.5589 O   0  0  0  0  0  0  0  0  0  0  0  0
   -2.4286    1.3492    1.0302 C   0  0  0  0  0  0  0  0  0  0  0  0
   -3.2451    1.5460   -0.0722 O   0  0  0  0  0  0  0  0  0  0  0  0
   -2.5862    0.6207   -0.8774 C   0  0  0  0  0  0  0  0  0  0  0  0
   -2.0286   -1.9403    0.1784 H   0  0  0  0  0  0  0  0  0  0  0  0
   -3.2088   -1.0301    1.1433 H   0  0  0  0  0  0  0  0  0  0  0  0
   -1.5960   -1.2850    1.8447 H   0  0  0  0  0  0  0  0  0  0  0  0
    0.0979    1.2824    0.6212 H   0  0  0  0  0  0  0  0  0  0  0  0
    2.2532    0.2619   -1.8904 H   0  0  0  0  0  0  0  0  0  0  0  0
    3.0594    1.7906   -0.4786 H   0  0  0  0  0  0  0  0  0  0  0  0
    2.5198    0.9661    0.9505 H   0  0  0  0  0  0  0  0  0  0  0  0
    2.4614   -2.0000   -1.1135 H   0  0  0  0  0  0  0  0  0  0  0  0
    2.4636   -1.5122    0.5913 H   0  0  0  0  0  0  0  0  0  0  0  0
    4.5734   -1.2787    0.2998 H   0  0  0  0  0  0  0  0  0  0  0  0
   -2.9846    1.0319    1.9425 H   0  0  0  0  0  0  0  0  0  0  0  0
   -1.7779    2.2113    1.3040 H   0  0  0  0  0  0  0  0  0  0  0  0
   -3.2016   -0.2183   -1.2190 H   0  0  0  0  0  0  0  0  0  0  0  0
   -1.9875    1.0816   -1.6852 H   0  0  0  0  0  0  0  0  0  0  0  0
  1  2  1  0
  2  3  1  0
  3  4  1  0
  4  5  2  0
  4  6  1  0
  6  7  1  0
  6  8  1  0
  8  9  1  0
  2 10  1  0
 10 11  1  0
 11 12  1  0
 12  2  1  0
  1 13  1  0
  1 14  1  0
  1 15  1  0
  3 16  1  0
  6 17  1  6
  7 18  1  0
  7 19  1  0
  8 20  1  0
  8 21  1  0
  9 22  1  0
 10 23  1  0
 10 24  1  0
 12 25  1  0
 12 26  1  0
M  END
$$$$
