
     RDKit          3D

 30 30  0  0  0  0  0  0  0  0999 V2000
    2.0966   -1.6703   -0.6279 C   0  0  0  0  0  0  0  0  0  0  0  0
    1.9369   -0.5872    0.4402 C   0  0  2  0  0  0  0  0  0  0  0  0
    0.6157   -0.3441    0.8048 N   0  0  0  0  0  0  0  0  0  0  0  0
   -0.4091   -0.0898   -0.1211 C   0  0  1  0  0  0  0  0  0  0  0  0
   -0.9738   -1.3568   -0.7741 C   0  0  0  0  0  0  0  0  0  0  0  0
   -2.3840   -0.9864   -1.2595 C   0  0  0  0  0  0  0  0  0  0  0  0
   -2.4231    0.3653   -1.6198 O   0  0  0  0  0  0  0  0  0  0  0  0
   -2.5065    1.1979   -0.4940 C   0  0  0  0  0  0  0  0  0  0  0  0
   -1.5593    0.6047    0.5432 C   0  0  2  0  0  0  0  0  0  0  0  0
   -1.1130    1.6077    1.4903 N   0  0  0  0  0  0  0  0  0  0  0  0
    2.7552    0.5730   -0.0632 C   0  0  0  0  0  0  0  0  0  0  0  0
    3.0362    1.5171    1.0346 N   0  0  0  0  0  0  0  0  0  0  0  0
    3.1729    0.7834   -1.1085 O   0  0  0  0  0  0  0  0  0  0  0  0
    1.5367   -2.5429   -0.4447 H   0  0  0  0  0  0  0  0  0  0  0  0
    3.1706   -1.8694   -0.7329 H   0  0  0  0  0  0  0  0  0  0  0  0
    1.8464   -1.1906   -1.6361 H   0  0  0  0  0  0  0  0  0  0  0  0
    2.5080   -0.9769    1.2905 H   0  0  0  0  0  0  0  0  0  0  0  0
    0.6295    0.4264    1.5417 H   0  0  0  0  0  0  0  0  0  0  0  0
   -0.0873    0.5802   -0.9717 H   0  0  0  0  0  0  0  0  0  0  0  0
   -1.1677   -2.0821    0.0696 H   0  0  0  0  0  0  0  0  0  0  0  0
   -0.4339   -1.7522   -1.6098 H   0  0  0  0  0  0  0  0  0  0  0  0
   -3.1586   -1.2459   -0.5422 H   0  0  0  0  0  0  0  0  0  0  0  0
   -2.6223   -1.5559   -2.1911 H   0  0  0  0  0  0  0  0  0  0  0  0
   -3.5201    1.2946   -0.1113 H   0  0  0  0  0  0  0  0  0  0  0  0
   -2.1000    2.1859   -0.7778 H   0  0  0  0  0  0  0  0  0  0  0  0
   -2.1144   -0.1646    1.1187 H   0  0  0  0  0  0  0  0  0  0  0  0
   -1.8801    2.3099    1.5552 H   0  0  0  0  0  0  0  0  0  0  0  0
   -1.0015    1.2178    2.4566 H   0  0  0  0  0  0  0  0  0  0  0  0
    2.2140    2.0927    1.2663 H   0  0  0  0  0  0  0  0  0  0  0  0
    3.9361    1.6585    1.4741 H   0  0  0  0  0  0  0  0  0  0  0  0
  1  2  1  0
  2  3  1  0
  3  4  1  0
  4  5  1  0
  5  6  1  0
  6  7  1  0
  7  8  1  0
  8  9  1  0
  9 10  1  0
  2 11  1  0
 11 12  1  0
 11 13  2  0
  9  4  1  0
  1 14  1  0
  1 15  1  0
  1 16  1  0
  2 17  1  1
  3 18  1  0
  4 19  1  6
  5 20  1  0
  5 21  1  0
  6 22  1  0
  6 23  1  0
  8 24  1  0
  8 25  1  0
  9 26  1  1
 10 27  1  0
 10 28  1  0
 12 29  1  0
 12 30  1  0
M  END
$$$$

     RDKit          3D

 30 30  0  0  0  0  0  0  0  0999 V2000
   -2.2723    0.8127   -0.8722 C   0  0  0  0  0  0  0  0  0  0  0  0
   -1.7050   -0.1001    0.2132 C   0  0  2  0  0  0  0  0  0  0  0  0
   -0.4536   -0.5875   -0.1813 N   0  0  0  0  0  0  0  0  0  0  0  0
    0.6032    0.3029   -0.3910 C   0  0  1  0  0  0  0  0  0  0  0  0
    1.0649    1.0776    0.7986 C   0  0  0  0  0  0  0  0  0  0  0  0
    2.0332    0.3293    1.6855 C   0  0  0  0  0  0  0  0  0  0  0  0
    3.0958   -0.2238    0.9949 O   0  0  0  0  0  0  0  0  0  0  0  0
    2.7157   -1.0264   -0.0625 C   0  0  0  0  0  0  0  0  0  0  0  0
    1.8136   -0.3329   -1.0486 C   0  0  2  0  0  0  0  0  0  0  0  0
    2.5201    0.6969   -1.7855 N   0  0  0  0  0  0  0  0  0  0  0  0
   -2.7001   -1.1609    0.5283 C   0  0  0  0  0  0  0  0  0  0  0  0
   -4.0035   -0.8583    0.9442 N   0  0  0  0  0  0  0  0  0  0  0  0
   -2.3620   -2.3716    0.4183 O   0  0  0  0  0  0  0  0  0  0  0  0
   -1.6560    1.7265   -0.9467 H   0  0  0  0  0  0  0  0  0  0  0  0
   -3.3053    1.0786   -0.5606 H   0  0  0  0  0  0  0  0  0  0  0  0
   -2.3582    0.2544   -1.8295 H   0  0  0  0  0  0  0  0  0  0  0  0
   -1.6216    0.5612    1.1125 H   0  0  0  0  0  0  0  0  0  0  0  0
   -0.3189   -1.5844   -0.2824 H   0  0  0  0  0  0  0  0  0  0  0  0
    0.2606    1.0857   -1.1397 H   0  0  0  0  0  0  0  0  0  0  0  0
    1.5894    2.0070    0.4402 H   0  0  0  0  0  0  0  0  0  0  0  0
    0.1900    1.3468    1.4167 H   0  0  0  0  0  0  0  0  0  0  0  0
    1.4873   -0.3986    2.3015 H   0  0  0  0  0  0  0  0  0  0  0  0
    2.4598    1.0838    2.3830 H   0  0  0  0  0  0  0  0  0  0  0  0
    2.2475   -1.9822    0.2424 H   0  0  0  0  0  0  0  0  0  0  0  0
    3.6411   -1.2992   -0.6141 H   0  0  0  0  0  0  0  0  0  0  0  0
    1.4397   -1.1322   -1.7445 H   0  0  0  0  0  0  0  0  0  0  0  0
    2.3395    0.5573   -2.7956 H   0  0  0  0  0  0  0  0  0  0  0  0
    2.2704    1.6400   -1.4596 H   0  0  0  0  0  0  0  0  0  0  0  0
   -4.6043   -0.1583    0.4643 H   0  0  0  0  0  0  0  0  0  0  0  0
   -4.4110   -1.3446    1.7702 H   0  0  0  0  0  0  0  0  0  0  0  0
  1  2  1  0
  2  3  1  0
  3  4  1  0
  4  5  1  0
  5  6  1  0
  6  7  1  0
  7  8  1  0
  8  9  1  0
  9 10  1  0
  2 11  1  0
 11 12  1  0
 11 13  2  0
  9  4  1  0
  1 14  1  0
  1 15  1  0
  1 16  1  0
  2 17  1  1
  3 18  1  0
  4 19  1  6
  5 20  1  0
  5 21  1  0
  6 22  1  0
  6 23  1  0
  8 24  1  0
  8 25  1  0
  9 26  1  6
 10 27  1  0
 10 28  1  0
 12 29  1  0
 12 30  1  0
M  END
$$$$

     RDKit          3D

 30 30  0  0  0  0  0  0  0  0999 V2000
    2.0306   -1.3937   -0.4570 C   0  0  0  0  0  0  0  0  0  0  0  0
    1.7740   -0.0840    0.2574 C   0  0  2  0  0  0  0  0  0  0  0  0
    0.5719    0.5570   -0.1414 N   0  0  0  0  0  0  0  0  0  0  0  0
   -0.6520   -0.0882    0.0851 C   0  0  1  0  0  0  0  0  0  0  0  0
   -1.0083   -0.3504    1.5221 C   0  0  0  0  0  0  0  0  0  0  0  0
   -2.3043   -1.1363    1.4892 C   0  0  0  0  0  0  0  0  0  0  0  0
   -3.2806   -0.2866    0.9502 O   0  0  0  0  0  0  0  0  0  0  0  0
   -3.0293    0.0346   -0.3709 C   0  0  0  0  0  0  0  0  0  0  0  0
   -1.7628    0.8507   -0.4164 C   0  0  2  0  0  0  0  0  0  0  0  0
   -1.4629    1.4323   -1.6822 N   0  0  0  0  0  0  0  0  0  0  0  0
    2.9101    0.8140   -0.1308 C   0  0  0  0  0  0  0  0  0  0  0  0
    4.2501    0.5052    0.1336 N   0  0  0  0  0  0  0  0  0  0  0  0
    2.6731    1.9067   -0.7256 O   0  0  0  0  0  0  0  0  0  0  0  0
    2.0479   -1.2749   -1.5558 H   0  0  0  0  0  0  0  0  0  0  0  0
    1.3368   -2.1987   -0.1589 H   0  0  0  0  0  0  0  0  0  0  0  0
    3.0459   -1.7275   -0.1654 H   0  0  0  0  0  0  0  0  0  0  0  0
    1.7792   -0.2824    1.3357 H   0  0  0  0  0  0  0  0  0  0  0  0
    0.5831    1.0097   -1.0579 H   0  0  0  0  0  0  0  0  0  0  0  0
   -0.7803   -1.0286   -0.4960 H   0  0  0  0  0  0  0  0  0  0  0  0
   -1.2479    0.6280    1.9905 H   0  0  0  0  0  0  0  0  0  0  0  0
   -0.2191   -0.8297    2.0991 H   0  0  0  0  0  0  0  0  0  0  0  0
   -2.1758   -1.9847    0.7889 H   0  0  0  0  0  0  0  0  0  0  0  0
   -2.6233   -1.4605    2.4975 H   0  0  0  0  0  0  0  0  0  0  0  0
   -2.9136   -0.8169   -1.0417 H   0  0  0  0  0  0  0  0  0  0  0  0
   -3.8534    0.7000   -0.7023 H   0  0  0  0  0  0  0  0  0  0  0  0
   -1.8589    1.6829    0.3357 H   0  0  0  0  0  0  0  0  0  0  0  0
   -2.3788    1.7201   -2.1228 H   0  0  0  0  0  0  0  0  0  0  0  0
   -0.9553    2.3438   -1.5321 H   0  0  0  0  0  0  0  0  0  0  0  0
    4.5117   -0.4634    0.3868 H   0  0  0  0  0  0  0  0  0  0  0  0
    4.9922    1.2219    0.0852 H   0  0  0  0  0  0  0  0  0  0  0  0
  1  2  1  0
  2  3  1  0
  3  4  1  0
  4  5  1  0
  5  6  1  0
  6  7  1  0
  7  8  1  0
  8  9  1  0
  9 10  1  0
  2 11  1  0
 11 12  1  0
 11 13  2  0
  9  4  1  0
  1 14  1  0
  1 15  1  0
  1 16  1  0
  2 17  1  1
  3 18  1  0
  4 19  1  6
  5 20  1  0
  5 21  1  0
  6 22  1  0
  6 23  1  0
  8 24  1  0
  8 25  1  0
  9 26  1  1
 10 27  1  0
 10 28  1  0
 12 29  1  0
 12 30  1  0
M  END
$$$$

     RDKit          3D

 30 30  0  0  0  0  0  0  0  0999 V2000
    2.1800   -1.0931    0.8301 C   0  0  0  0  0  0  0  0  0  0  0  0
    1.6399    0.2754    0.4446 C   0  0  2  0  0  0  0  0  0  0  0  0
    0.5980    0.1560   -0.5114 N   0  0  0  0  0  0  0  0  0  0  0  0
   -0.5759   -0.5411   -0.1120 C   0  0  1  0  0  0  0  0  0  0  0  0
   -1.3225    0.0948    1.0020 C   0  0  0  0  0  0  0  0  0  0  0  0
   -2.3486    1.1015    0.5567 C   0  0  0  0  0  0  0  0  0  0  0  0
   -3.1460    0.5031   -0.4184 O   0  0  0  0  0  0  0  0  0  0  0  0
   -2.3700    0.3681   -1.5547 C   0  0  0  0  0  0  0  0  0  0  0  0
   -1.4226   -0.8038   -1.3375 C   0  0  2  0  0  0  0  0  0  0  0  0
   -2.0948   -2.0637   -1.2563 N   0  0  0  0  0  0  0  0  0  0  0  0
    2.7821    1.0305   -0.1578 C   0  0  0  0  0  0  0  0  0  0  0  0
    3.9692    1.3020    0.5643 N   0  0  0  0  0  0  0  0  0  0  0  0
    2.6992    1.4485   -1.3560 O   0  0  0  0  0  0  0  0  0  0  0  0
    1.4889   -1.5770    1.5484 H   0  0  0  0  0  0  0  0  0  0  0  0
    2.2876   -1.7120   -0.0853 H   0  0  0  0  0  0  0  0  0  0  0  0
    3.1906   -0.9512    1.2982 H   0  0  0  0  0  0  0  0  0  0  0  0
    1.3390    0.7855    1.3601 H   0  0  0  0  0  0  0  0  0  0  0  0
    0.4515    0.9758   -1.1143 H   0  0  0  0  0  0  0  0  0  0  0  0
   -0.2571   -1.5648    0.2409 H   0  0  0  0  0  0  0  0  0  0  0  0
   -0.6311    0.6051    1.6957 H   0  0  0  0  0  0  0  0  0  0  0  0
   -1.8789   -0.6496    1.6441 H   0  0  0  0  0  0  0  0  0  0  0  0
   -1.8558    1.9891    0.1116 H   0  0  0  0  0  0  0  0  0  0  0  0
   -2.9216    1.4036    1.4589 H   0  0  0  0  0  0  0  0  0  0  0  0
   -1.7173    1.2561   -1.7170 H   0  0  0  0  0  0  0  0  0  0  0  0
   -2.9815    0.1986   -2.4533 H   0  0  0  0  0  0  0  0  0  0  0  0
   -0.7607   -0.8285   -2.2273 H   0  0  0  0  0  0  0  0  0  0  0  0
   -2.4037   -2.3501   -0.3248 H   0  0  0  0  0  0  0  0  0  0  0  0
   -2.7977   -2.1650   -2.0092 H   0  0  0  0  0  0  0  0  0  0  0  0
    3.9910    1.4489    1.5893 H   0  0  0  0  0  0  0  0  0  0  0  0
    4.8688    1.3574    0.0573 H   0  0  0  0  0  0  0  0  0  0  0  0
  1  2  1  0
  2  3  1  0
  3  4  1  0
  4  5  1  0
  5  6  1  0
  6  7  1  0
  7  8  1  0
  8  9  1  0
  9 10  1  0
  2 11  1  0
 11 12  1  0
 11 13  2  0
  9  4  1  0
  1 14  1  0
  1 15  1  0
  1 16  1  0
  2 17  1  1
  3 18  1  0
  4 19  1  1
  5 20  1  0
  5 21  1  0
  6 22  1  0
  6 23  1  0
  8 24  1  0
  8 25  1  0
  9 26  1  6
 10 27  1  0
 10 28  1  0
 12 29  1  0
 12 30  1  0
M  END
$$$$

     RDKit          3D

 30 30  0  0  0  0  0  0  0  0999 V2000
    2.6893   -0.1464   -1.3785 C   0  0  0  0  0  0  0  0  0  0  0  0
    1.7010   -0.2025   -0.2164 C   0  0  2  0  0  0  0  0  0  0  0  0
    0.5024    0.5284   -0.5146 N   0  0  0  0  0  0  0  0  0  0  0  0
   -0.5669    0.1150    0.3309 C   0  0  1  0  0  0  0  0  0  0  0  0
   -1.2383    1.1856    1.1295 C   0  0  0  0  0  0  0  0  0  0  0  0
   -2.6583    1.3667    0.6325 C   0  0  0  0  0  0  0  0  0  0  0  0
   -3.4117    0.2357    0.8172 O   0  0  0  0  0  0  0  0  0  0  0  0
   -2.7319   -0.9522    0.5910 C   0  0  0  0  0  0  0  0  0  0  0  0
   -1.6477   -0.6321   -0.4529 C   0  0  2  0  0  0  0  0  0  0  0  0
   -1.0908   -1.8535   -1.0219 N   0  0  0  0  0  0  0  0  0  0  0  0
    2.3010    0.2968    1.0264 C   0  0  0  0  0  0  0  0  0  0  0  0
    3.7365    0.4477    1.1003 N   0  0  0  0  0  0  0  0  0  0  0  0
    1.6482    0.6077    2.0225 O   0  0  0  0  0  0  0  0  0  0  0  0
    2.9439    0.9017   -1.5875 H   0  0  0  0  0  0  0  0  0  0  0  0
    2.1981   -0.6628   -2.2053 H   0  0  0  0  0  0  0  0  0  0  0  0
    3.5753   -0.7527   -1.0220 H   0  0  0  0  0  0  0  0  0  0  0  0
    1.4456   -1.2932   -0.1003 H   0  0  0  0  0  0  0  0  0  0  0  0
    0.2761    0.4045   -1.4932 H   0  0  0  0  0  0  0  0  0  0  0  0
   -0.2103   -0.6485    1.0959 H   0  0  0  0  0  0  0  0  0  0  0  0
   -0.7142    2.1495    0.9301 H   0  0  0  0  0  0  0  0  0  0  0  0
   -1.2682    1.0159    2.2092 H   0  0  0  0  0  0  0  0  0  0  0  0
   -2.6591    1.7199   -0.4251 H   0  0  0  0  0  0  0  0  0  0  0  0
   -3.1134    2.2068    1.2314 H   0  0  0  0  0  0  0  0  0  0  0  0
   -2.1659   -1.2832    1.5126 H   0  0  0  0  0  0  0  0  0  0  0  0
   -3.4033   -1.7383    0.2375 H   0  0  0  0  0  0  0  0  0  0  0  0
   -2.0609   -0.0456   -1.2822 H   0  0  0  0  0  0  0  0  0  0  0  0
   -0.6387   -1.5679   -1.9370 H   0  0  0  0  0  0  0  0  0  0  0  0
   -1.8663   -2.5072   -1.2398 H   0  0  0  0  0  0  0  0  0  0  0  0
    4.0464    1.4519    0.9397 H   0  0  0  0  0  0  0  0  0  0  0  0
    4.3819   -0.3480    1.2644 H   0  0  0  0  0  0  0  0  0  0  0  0
  1  2  1  0
  2  3  1  0
  3  4  1  0
  4  5  1  0
  5  6  1  0
  6  7  1  0
  7  8  1  0
  8  9  1  0
  9 10  1  0
  2 11  1  0
 11 12  1  0
 11 13  2  0
  9  4  1  0
  1 14  1  0
  1 15  1  0
  1 16  1  0
  2 17  1  1
  3 18  1  0
  4 19  1  1
  5 20  1  0
  5 21  1  0
  6 22  1  0
  6 23  1  0
  8 24  1  0
  8 25  1  0
  9 26  1  6
 10 27  1  0
 10 28  1  0
 12 29  1  0
 12 30  1  0
M  END
$$$$

     RDKit          3D

 30 30  0  0  0  0  0  0  0  0999 V2000
    1.9178   -0.7651   -1.7126 C   0  0  0  0  0  0  0  0  0  0  0  0
    1.8380   -0.7356   -0.1996 C   0  0  2  0  0  0  0  0  0  0  0  0
    0.8139    0.1790    0.2213 N   0  0  0  0  0  0  0  0  0  0  0  0
   -0.5061   -0.1304   -0.1322 C   0  0  1  0  0  0  0  0  0  0  0  0
   -1.1095   -1.3912    0.4118 C   0  0  0  0  0  0  0  0  0  0  0  0
   -2.6313   -1.3936    0.3572 C   0  0  0  0  0  0  0  0  0  0  0  0
   -3.2233   -0.2184    0.7538 O   0  0  0  0  0  0  0  0  0  0  0  0
   -2.7355    0.8220   -0.0144 C   0  0  0  0  0  0  0  0  0  0  0  0
   -1.3216    1.0692    0.4407 C   0  0  2  0  0  0  0  0  0  0  0  0
   -0.7350    2.2719   -0.0494 N   0  0  0  0  0  0  0  0  0  0  0  0
    3.1581   -0.0180    0.2057 C   0  0  0  0  0  0  0  0  0  0  0  0
    3.1660    0.9366    1.2447 N   0  0  0  0  0  0  0  0  0  0  0  0
    4.1871   -0.3393   -0.4106 O   0  0  0  0  0  0  0  0  0  0  0  0
    1.2974    0.0821   -2.1485 H   0  0  0  0  0  0  0  0  0  0  0  0
    2.9303   -0.5228   -2.0584 H   0  0  0  0  0  0  0  0  0  0  0  0
    1.5990   -1.7293   -2.0782 H   0  0  0  0  0  0  0  0  0  0  0  0
    1.8554   -1.6521    0.3084 H   0  0  0  0  0  0  0  0  0  0  0  0
    0.8404    0.1225    1.2910 H   0  0  0  0  0  0  0  0  0  0  0  0
   -0.7476   -0.0632   -1.2077 H   0  0  0  0  0  0  0  0  0  0  0  0
   -0.7943   -2.2378   -0.2868 H   0  0  0  0  0  0  0  0  0  0  0  0
   -0.7959   -1.7076    1.4082 H   0  0  0  0  0  0  0  0  0  0  0  0
   -2.9885   -1.6451   -0.6380 H   0  0  0  0  0  0  0  0  0  0  0  0
   -2.9614   -2.2067    1.0290 H   0  0  0  0  0  0  0  0  0  0  0  0
   -3.2920    1.7393    0.0746 H   0  0  0  0  0  0  0  0  0  0  0  0
   -2.6198    0.4589   -1.0804 H   0  0  0  0  0  0  0  0  0  0  0  0
   -1.2555    0.9215    1.5351 H   0  0  0  0  0  0  0  0  0  0  0  0
   -1.0385    3.0471    0.5671 H   0  0  0  0  0  0  0  0  0  0  0  0
   -1.1189    2.4836   -1.0202 H   0  0  0  0  0  0  0  0  0  0  0  0
    3.0031    1.9406    0.9627 H   0  0  0  0  0  0  0  0  0  0  0  0
    3.2684    0.6820    2.2256 H   0  0  0  0  0  0  0  0  0  0  0  0
  1  2  1  0
  2  3  1  0
  3  4  1  0
  4  5  1  0
  5  6  1  0
  6  7  1  0
  7  8  1  0
  8  9  1  0
  9 10  1  0
  2 11  1  0
 11 12  1  0
 11 13  2  0
  9  4  1  0
  1 14  1  0
  1 15  1  0
  1 16  1  0
  2 17  1  1
  3 18  1  0
  4 19  1  6
  5 20  1  0
  5 21  1  0
  6 22  1  0
  6 23  1  0
  8 24  1  0
  8 25  1  0
  9 26  1  1
 10 27  1  0
 10 28  1  0
 12 29  1  0
 12 30  1  0
M  END
$$$$

     RDKit          3D

 30 30  0  0  0  0  0  0  0  0999 V2000
    2.7747    1.0657    0.2446 C   0  0  0  0  0  0  0  0  0  0  0  0
    1.6591    0.1396   -0.2520 C   0  0  2  0  0  0  0  0  0  0  0  0
    0.6280    0.1182    0.7053 N   0  0  0  0  0  0  0  0  0  0  0  0
   -0.7183    0.2467    0.3406 C   0  0  1  0  0  0  0  0  0  0  0  0
   -1.1530    1.4632   -0.3922 C   0  0  0  0  0  0  0  0  0  0  0  0
   -2.6307    1.6878   -0.0870 C   0  0  0  0  0  0  0  0  0  0  0  0
   -3.2429    0.4683    0.1670 O   0  0  0  0  0  0  0  0  0  0  0  0
   -2.7890   -0.5408   -0.6749 C   0  0  0  0  0  0  0  0  0  0  0  0
   -1.3800   -0.9815   -0.2516 C   0  0  2  0  0  0  0  0  0  0  0  0
   -1.5909   -1.9197    0.8461 N   0  0  0  0  0  0  0  0  0  0  0  0
    2.2985   -1.1686   -0.5175 C   0  0  0  0  0  0  0  0  0  0  0  0
    3.5581   -1.2021   -1.1753 N   0  0  0  0  0  0  0  0  0  0  0  0
    1.7447   -2.2623   -0.1683 O   0  0  0  0  0  0  0  0  0  0  0  0
    3.2854    1.5547   -0.5888 H   0  0  0  0  0  0  0  0  0  0  0  0
    3.5031    0.4078    0.8074 H   0  0  0  0  0  0  0  0  0  0  0  0
    2.3307    1.7665    0.9796 H   0  0  0  0  0  0  0  0  0  0  0  0
    1.3164    0.5605   -1.2538 H   0  0  0  0  0  0  0  0  0  0  0  0
    0.7635   -0.5380    1.4945 H   0  0  0  0  0  0  0  0  0  0  0  0
   -1.2740    0.3498    1.3674 H   0  0  0  0  0  0  0  0  0  0  0  0
   -0.6210    2.3939   -0.1060 H   0  0  0  0  0  0  0  0  0  0  0  0
   -1.1152    1.3180   -1.5155 H   0  0  0  0  0  0  0  0  0  0  0  0
   -3.1228    2.2829   -0.8858 H   0  0  0  0  0  0  0  0  0  0  0  0
   -2.6596    2.2802    0.8663 H   0  0  0  0  0  0  0  0  0  0  0  0
   -2.8286   -0.2395   -1.7113 H   0  0  0  0  0  0  0  0  0  0  0  0
   -3.4662   -1.4117   -0.5507 H   0  0  0  0  0  0  0  0  0  0  0  0
   -0.8324   -1.3878   -1.0979 H   0  0  0  0  0  0  0  0  0  0  0  0
   -0.8923   -2.6625    0.7838 H   0  0  0  0  0  0  0  0  0  0  0  0
   -1.6601   -1.4232    1.7656 H   0  0  0  0  0  0  0  0  0  0  0  0
    4.2245   -0.3663   -1.1000 H   0  0  0  0  0  0  0  0  0  0  0  0
    3.8901   -1.9998   -1.7193 H   0  0  0  0  0  0  0  0  0  0  0  0
  1  2  1  0
  2  3  1  0
  3  4  1  0
  4  5  1  0
  5  6  1  0
  6  7  1  0
  7  8  1  0
  8  9  1  0
  9 10  1  0
  2 11  1  0
 11 12  1  0
 11 13  2  0
  9  4  1  0
  1 14  1  0
  1 15  1  0
  1 16  1  0
  2 17  1  6
  3 18  1  0
  4 19  1  1
  5 20  1  0
  5 21  1  0
  6 22  1  0
  6 23  1  0
  8 24  1  0
  8 25  1  0
  9 26  1  6
 10 27  1  0
 10 28  1  0
 12 29  1  0
 12 30  1  0
M  END
$$$$

     RDKit          3D

 30 30  0  0  0  0  0  0  0  0999 V2000
    1.6655   -1.3433   -0.7068 C   0  0  0  0  0  0  0  0  0  0  0  0
    1.7536   -0.4077    0.4303 C   0  0  2  0  0  0  0  0  0  0  0  0
    0.7867    0.6584    0.4503 N   0  0  0  0  0  0  0  0  0  0  0  0
   -0.5217    0.0769    0.2562 C   0  0  1  0  0  0  0  0  0  0  0  0
   -0.9686   -0.8908    1.2976 C   0  0  0  0  0  0  0  0  0  0  0  0
   -2.1515   -1.6572    0.6792 C   0  0  0  0  0  0  0  0  0  0  0  0
   -3.1773   -0.7523    0.4856 O   0  0  0  0  0  0  0  0  0  0  0  0
   -2.8563    0.2853   -0.3646 C   0  0  0  0  0  0  0  0  0  0  0  0
   -1.6295    1.0745    0.1043 C   0  0  2  0  0  0  0  0  0  0  0  0
   -1.4116    2.1111   -0.8372 N   0  0  0  0  0  0  0  0  0  0  0  0
    3.1337    0.1281    0.4486 C   0  0  0  0  0  0  0  0  0  0  0  0
    3.5906    1.3851    0.0521 N   0  0  0  0  0  0  0  0  0  0  0  0
    4.0368   -0.6485    0.9331 O   0  0  0  0  0  0  0  0  0  0  0  0
    2.5994   -1.8877   -0.8711 H   0  0  0  0  0  0  0  0  0  0  0  0
    0.9113   -2.1747   -0.4862 H   0  0  0  0  0  0  0  0  0  0  0  0
    1.3021   -0.8653   -1.6019 H   0  0  0  0  0  0  0  0  0  0  0  0
    1.6673   -0.8940    1.4567 H   0  0  0  0  0  0  0  0  0  0  0  0
    0.9893    1.1962   -0.4444 H   0  0  0  0  0  0  0  0  0  0  0  0
   -0.5377   -0.5034   -0.7246 H   0  0  0  0  0  0  0  0  0  0  0  0
   -1.4178   -0.3272    2.1591 H   0  0  0  0  0  0  0  0  0  0  0  0
   -0.2036   -1.6118    1.6224 H   0  0  0  0  0  0  0  0  0  0  0  0
   -2.5207   -2.4462    1.3485 H   0  0  0  0  0  0  0  0  0  0  0  0
   -1.7590   -2.0757   -0.2758 H   0  0  0  0  0  0  0  0  0  0  0  0
   -2.6072   -0.0577   -1.4015 H   0  0  0  0  0  0  0  0  0  0  0  0
   -3.7608    0.9442   -0.4169 H   0  0  0  0  0  0  0  0  0  0  0  0
   -1.9006    1.4420    1.1243 H   0  0  0  0  0  0  0  0  0  0  0  0
   -0.4727    2.5299   -0.8471 H   0  0  0  0  0  0  0  0  0  0  0  0
   -2.0640    2.9158   -0.5669 H   0  0  0  0  0  0  0  0  0  0  0  0
    3.7027    2.1221    0.8308 H   0  0  0  0  0  0  0  0  0  0  0  0
    3.8217    1.6740   -0.8879 H   0  0  0  0  0  0  0  0  0  0  0  0
  1  2  1  0
  2  3  1  0
  3  4  1  0
  4  5  1  0
  5  6  1  0
  6  7  1  0
  7  8  1  0
  8  9  1  0
  9 10  1  0
  2 11  1  0
 11 12  1  0
 11 13  2  0
  9  4  1  0
  1 14  1  0
  1 15  1  0
  1 16  1  0
  2 17  1  1
  3 18  1  0
  4 19  1  6
  5 20  1  0
  5 21  1  0
  6 22  1  0
  6 23  1  0
  8 24  1  0
  8 25  1  0
  9 26  1  1
 10 27  1  0
 10 28  1  0
 12 29  1  0
 12 30  1  0
M  END
$$$$
