
     RDKit          3D

 31 30  0  0  0  0  0  0  0  0999 V2000
    1.0883   -0.9084   -0.7966 C   0  0  0  0  0  0  0  0  0  0  0  0
    0.9607   -0.1331    0.5195 C   0  0  1  0  0  0  0  0  0  0  0  0
    2.2342    0.7661    0.5966 C   0  0  0  0  0  0  0  0  0  0  0  0
    3.4912   -0.0104    0.5534 C   0  0  0  0  0  0  0  0  0  0  0  0
    4.3398    0.0456   -0.6099 N   0  0  0  0  0  0  0  0  0  0  0  0
    3.8862   -0.7497    1.5002 O   0  0  0  0  0  0  0  0  0  0  0  0
   -0.1331    0.7033    0.4682 N   0  0  0  0  0  0  0  0  0  0  0  0
   -1.4762    0.4954    0.4991 C   0  0  1  0  0  0  0  0  0  0  0  0
   -2.0768    1.4208   -0.6187 C   0  0  0  0  0  0  0  0  0  0  0  0
   -1.7322    2.7339   -0.3058 O   0  0  0  0  0  0  0  0  0  0  0  0
   -2.1948   -0.7669    0.3323 C   0  0  1  0  0  0  0  0  0  0  0  0
   -2.4980   -1.3260   -0.9997 C   0  0  0  0  0  0  0  0  0  0  0  0
   -1.8668   -1.8009    1.2323 O   0  0  0  0  0  0  0  0  0  0  0  0
    1.0786   -0.1545   -1.6080 H   0  0  0  0  0  0  0  0  0  0  0  0
    0.2421   -1.5646   -0.9221 H   0  0  0  0  0  0  0  0  0  0  0  0
    2.0529   -1.4872   -0.7971 H   0  0  0  0  0  0  0  0  0  0  0  0
    1.0451   -0.8003    1.4110 H   0  0  0  0  0  0  0  0  0  0  0  0
    2.2238    1.2411    1.6371 H   0  0  0  0  0  0  0  0  0  0  0  0
    2.1952    1.5975   -0.0973 H   0  0  0  0  0  0  0  0  0  0  0  0
    4.7243    0.9655   -0.8872 H   0  0  0  0  0  0  0  0  0  0  0  0
    4.5154   -0.8202   -1.1267 H   0  0  0  0  0  0  0  0  0  0  0  0
    0.0817    1.5305   -0.2071 H   0  0  0  0  0  0  0  0  0  0  0  0
   -1.9768    0.9970    1.4194 H   0  0  0  0  0  0  0  0  0  0  0  0
   -3.1790    1.2568   -0.6564 H   0  0  0  0  0  0  0  0  0  0  0  0
   -1.6349    1.1600   -1.5871 H   0  0  0  0  0  0  0  0  0  0  0  0
   -2.5046    3.3149   -0.4297 H   0  0  0  0  0  0  0  0  0  0  0  0
   -3.2790   -0.5037    0.7443 H   0  0  0  0  0  0  0  0  0  0  0  0
   -1.9257   -2.2530   -1.2743 H   0  0  0  0  0  0  0  0  0  0  0  0
   -3.5745   -1.7346   -1.0008 H   0  0  0  0  0  0  0  0  0  0  0  0
   -2.5409   -0.5852   -1.8304 H   0  0  0  0  0  0  0  0  0  0  0  0
   -1.5661   -2.6297    0.7593 H   0  0  0  0  0  0  0  0  0  0  0  0
  1  2  1  0
  2  3  1  0
  3  4  1  0
  4  5  1  0
  4  6  2  0
  2  7  1  0
  7  8  1  0
  8  9  1  0
  9 10  1  0
  8 11  1  0
 11 12  1  0
 11 13  1  0
  1 14  1  0
  1 15  1  0
  1 16  1  0
  2 17  1  1
  3 18  1  0
  3 19  1  0
  5 20  1  0
  5 21  1  0
  7 22  1  0
  8 23  1  1
  9 24  1  0
  9 25  1  0
 10 26  1  0
 11 27  1  1
 12 28  1  0
 12 29  1  0
 12 30  1  0
 13 31  1  0
M  END
$$$$

     RDKit          3D

 31 30  0  0  0  0  0  0  0  0999 V2000
    1.3264   -1.7354   -0.5088 C   0  0  0  0  0  0  0  0  0  0  0  0
    0.9546   -0.4242    0.1175 C   0  0  1  0  0  0  0  0  0  0  0  0
    2.0055    0.5952   -0.3168 C   0  0  0  0  0  0  0  0  0  0  0  0
    3.3562    0.2358    0.0947 C   0  0  0  0  0  0  0  0  0  0  0  0
    4.4379    1.1156   -0.1733 N   0  0  0  0  0  0  0  0  0  0  0  0
    3.5833   -0.8332    0.6819 O   0  0  0  0  0  0  0  0  0  0  0  0
   -0.2888    0.1124   -0.2924 N   0  0  0  0  0  0  0  0  0  0  0  0
   -1.4818   -0.5633   -0.0083 C   0  0  1  0  0  0  0  0  0  0  0  0
   -1.8317   -0.7287    1.4424 C   0  0  0  0  0  0  0  0  0  0  0  0
   -0.9279   -1.4210    2.1922 O   0  0  0  0  0  0  0  0  0  0  0  0
   -2.6210    0.2774   -0.6126 C   0  0  1  0  0  0  0  0  0  0  0  0
   -2.5816    1.6850    0.0047 C   0  0  0  0  0  0  0  0  0  0  0  0
   -2.4451    0.3833   -1.9897 O   0  0  0  0  0  0  0  0  0  0  0  0
    2.0713   -1.6236   -1.3341 H   0  0  0  0  0  0  0  0  0  0  0  0
    1.8007   -2.3671    0.2777 H   0  0  0  0  0  0  0  0  0  0  0  0
    0.4611   -2.2778   -0.9348 H   0  0  0  0  0  0  0  0  0  0  0  0
    1.0323   -0.4677    1.2329 H   0  0  0  0  0  0  0  0  0  0  0  0
    1.9330    0.8244   -1.4094 H   0  0  0  0  0  0  0  0  0  0  0  0
    1.7110    1.5706    0.1759 H   0  0  0  0  0  0  0  0  0  0  0  0
    4.6910    1.8315    0.5395 H   0  0  0  0  0  0  0  0  0  0  0  0
    4.9920    1.0840   -1.0459 H   0  0  0  0  0  0  0  0  0  0  0  0
   -0.2467    0.3127   -1.3146 H   0  0  0  0  0  0  0  0  0  0  0  0
   -1.5445   -1.5622   -0.4749 H   0  0  0  0  0  0  0  0  0  0  0  0
   -2.0653    0.2777    1.8988 H   0  0  0  0  0  0  0  0  0  0  0  0
   -2.8062   -1.2621    1.4768 H   0  0  0  0  0  0  0  0  0  0  0  0
   -1.3455   -2.2559    2.5234 H   0  0  0  0  0  0  0  0  0  0  0  0
   -3.6102   -0.1392   -0.4069 H   0  0  0  0  0  0  0  0  0  0  0  0
   -1.6254    1.8698    0.5100 H   0  0  0  0  0  0  0  0  0  0  0  0
   -2.6927    2.4619   -0.7635 H   0  0  0  0  0  0  0  0  0  0  0  0
   -3.3816    1.8193    0.7695 H   0  0  0  0  0  0  0  0  0  0  0  0
   -2.8604    1.2045   -2.3520 H   0  0  0  0  0  0  0  0  0  0  0  0
  1  2  1  0
  2  3  1  0
  3  4  1  0
  4  5  1  0
  4  6  2  0
  2  7  1  0
  7  8  1  0
  8  9  1  0
  9 10  1  0
  8 11  1  0
 11 12  1  0
 11 13  1  0
  1 14  1  0
  1 15  1  0
  1 16  1  0
  2 17  1  1
  3 18  1  0
  3 19  1  0
  5 20  1  0
  5 21  1  0
  7 22  1  0
  8 23  1  6
  9 24  1  0
  9 25  1  0
 10 26  1  0
 11 27  1  6
 12 28  1  0
 12 29  1  0
 12 30  1  0
 13 31  1  0
M  END
$$$$

     RDKit          3D

 31 30  0  0  0  0  0  0  0  0999 V2000
   -1.3370   -1.8432    0.3162 C   0  0  0  0  0  0  0  0  0  0  0  0
   -1.1425   -0.6276   -0.5290 C   0  0  1  0  0  0  0  0  0  0  0  0
   -2.3844    0.2142   -0.7109 C   0  0  0  0  0  0  0  0  0  0  0  0
   -2.9599    0.7332    0.5281 C   0  0  0  0  0  0  0  0  0  0  0  0
   -4.0955    1.5735    0.4299 N   0  0  0  0  0  0  0  0  0  0  0  0
   -2.4829    0.4580    1.6350 O   0  0  0  0  0  0  0  0  0  0  0  0
   -0.0711    0.2282   -0.0822 N   0  0  0  0  0  0  0  0  0  0  0  0
    1.2325   -0.3460   -0.1125 C   0  0  1  0  0  0  0  0  0  0  0  0
    1.6743   -0.7042   -1.4954 C   0  0  0  0  0  0  0  0  0  0  0  0
    1.6858    0.4549   -2.2671 O   0  0  0  0  0  0  0  0  0  0  0  0
    2.2002    0.5491    0.5973 C   0  0  1  0  0  0  0  0  0  0  0  0
    3.6185    0.0380    0.5637 C   0  0  0  0  0  0  0  0  0  0  0  0
    2.2538    1.8219   -0.0061 O   0  0  0  0  0  0  0  0  0  0  0  0
   -1.0791   -2.7960   -0.2005 H   0  0  0  0  0  0  0  0  0  0  0  0
   -0.6459   -1.8207    1.2083 H   0  0  0  0  0  0  0  0  0  0  0  0
   -2.3874   -1.9821    0.6784 H   0  0  0  0  0  0  0  0  0  0  0  0
   -0.9388   -1.0191   -1.5741 H   0  0  0  0  0  0  0  0  0  0  0  0
   -3.1548   -0.4053   -1.2603 H   0  0  0  0  0  0  0  0  0  0  0  0
   -2.0998    1.0163   -1.4316 H   0  0  0  0  0  0  0  0  0  0  0  0
   -5.0365    1.1546    0.4986 H   0  0  0  0  0  0  0  0  0  0  0  0
   -3.9721    2.5904    0.2906 H   0  0  0  0  0  0  0  0  0  0  0  0
   -0.2900    0.5123    0.8947 H   0  0  0  0  0  0  0  0  0  0  0  0
    1.1750   -1.3012    0.4856 H   0  0  0  0  0  0  0  0  0  0  0  0
    2.6737   -1.1913   -1.4594 H   0  0  0  0  0  0  0  0  0  0  0  0
    1.0059   -1.4176   -1.9734 H   0  0  0  0  0  0  0  0  0  0  0  0
    1.0020    1.0723   -1.8907 H   0  0  0  0  0  0  0  0  0  0  0  0
    1.9277    0.7243    1.6536 H   0  0  0  0  0  0  0  0  0  0  0  0
    4.1818    0.4587   -0.3220 H   0  0  0  0  0  0  0  0  0  0  0  0
    3.7203   -1.0443    0.5972 H   0  0  0  0  0  0  0  0  0  0  0  0
    4.1463    0.4573    1.4470 H   0  0  0  0  0  0  0  0  0  0  0  0
    1.5797    2.4410    0.3577 H   0  0  0  0  0  0  0  0  0  0  0  0
  1  2  1  0
  2  3  1  0
  3  4  1  0
  4  5  1  0
  4  6  2  0
  2  7  1  0
  7  8  1  0
  8  9  1  0
  9 10  1  0
  8 11  1  0
 11 12  1  0
 11 13  1  0
  1 14  1  0
  1 15  1  0
  1 16  1  0
  2 17  1  6
  3 18  1  0
  3 19  1  0
  5 20  1  0
  5 21  1  0
  7 22  1  0
  8 23  1  1
  9 24  1  0
  9 25  1  0
 10 26  1  0
 11 27  1  1
 12 28  1  0
 12 29  1  0
 12 30  1  0
 13 31  1  0
M  END
$$$$

     RDKit          3D

 31 30  0  0  0  0  0  0  0  0999 V2000
   -2.0871   -1.5531    0.4080 C   0  0  0  0  0  0  0  0  0  0  0  0
   -1.2163   -0.4184   -0.2449 C   0  0  1  0  0  0  0  0  0  0  0  0
   -1.8737    0.9070    0.1871 C   0  0  0  0  0  0  0  0  0  0  0  0
   -3.2892    0.8825   -0.3110 C   0  0  0  0  0  0  0  0  0  0  0  0
   -4.3815    0.8952    0.6509 N   0  0  0  0  0  0  0  0  0  0  0  0
   -3.6061    0.8516   -1.5105 O   0  0  0  0  0  0  0  0  0  0  0  0
    0.0403   -0.5427    0.3976 N   0  0  0  0  0  0  0  0  0  0  0  0
    1.2424   -0.2858   -0.3211 C   0  0  1  0  0  0  0  0  0  0  0  0
    1.3118    1.1516   -0.7268 C   0  0  0  0  0  0  0  0  0  0  0  0
    2.5031    1.4749   -1.3920 O   0  0  0  0  0  0  0  0  0  0  0  0
    2.3868   -0.7633    0.5425 C   0  0  1  0  0  0  0  0  0  0  0  0
    3.7315   -0.6502   -0.0829 C   0  0  0  0  0  0  0  0  0  0  0  0
    2.3174   -0.0349    1.7543 O   0  0  0  0  0  0  0  0  0  0  0  0
   -2.3832   -1.1684    1.4172 H   0  0  0  0  0  0  0  0  0  0  0  0
   -1.4312   -2.4292    0.4528 H   0  0  0  0  0  0  0  0  0  0  0  0
   -2.9732   -1.7633   -0.1916 H   0  0  0  0  0  0  0  0  0  0  0  0
   -1.2470   -0.5899   -1.3178 H   0  0  0  0  0  0  0  0  0  0  0  0
   -1.3641    1.7509   -0.3158 H   0  0  0  0  0  0  0  0  0  0  0  0
   -1.8651    0.9660    1.2905 H   0  0  0  0  0  0  0  0  0  0  0  0
   -5.0644    0.1359    0.7195 H   0  0  0  0  0  0  0  0  0  0  0  0
   -4.4174    1.7326    1.2687 H   0  0  0  0  0  0  0  0  0  0  0  0
    0.0970   -1.1182    1.2366 H   0  0  0  0  0  0  0  0  0  0  0  0
    1.2693   -0.9496   -1.2573 H   0  0  0  0  0  0  0  0  0  0  0  0
    1.1374    1.8100    0.1032 H   0  0  0  0  0  0  0  0  0  0  0  0
    0.5269    1.2626   -1.5497 H   0  0  0  0  0  0  0  0  0  0  0  0
    2.9957    2.1496   -0.8369 H   0  0  0  0  0  0  0  0  0  0  0  0
    2.1954   -1.8538    0.7564 H   0  0  0  0  0  0  0  0  0  0  0  0
    4.3778   -1.5301    0.1190 H   0  0  0  0  0  0  0  0  0  0  0  0
    3.6346   -0.5409   -1.1831 H   0  0  0  0  0  0  0  0  0  0  0  0
    4.2270    0.2782    0.2863 H   0  0  0  0  0  0  0  0  0  0  0  0
    3.2048   -0.0568    2.2042 H   0  0  0  0  0  0  0  0  0  0  0  0
  1  2  1  0
  2  3  1  0
  3  4  1  0
  4  5  1  0
  4  6  2  0
  2  7  1  0
  7  8  1  0
  8  9  1  0
  9 10  1  0
  8 11  1  0
 11 12  1  0
 11 13  1  0
  1 14  1  0
  1 15  1  0
  1 16  1  0
  2 17  1  6
  3 18  1  0
  3 19  1  0
  5 20  1  0
  5 21  1  0
  7 22  1  0
  8 23  1  6
  9 24  1  0
  9 25  1  0
 10 26  1  0
 11 27  1  1
 12 28  1  0
 12 29  1  0
 12 30  1  0
 13 31  1  0
M  END
$$$$

     RDKit          3D

 31 30  0  0  0  0  0  0  0  0999 V2000
    1.6094   -0.1273   -1.7019 C   0  0  0  0  0  0  0  0  0  0  0  0
    1.1129   -0.7793   -0.4615 C   0  0  1  0  0  0  0  0  0  0  0  0
    1.7656   -0.0639    0.7124 C   0  0  0  0  0  0  0  0  0  0  0  0
    3.2435   -0.1532    0.6767 C   0  0  0  0  0  0  0  0  0  0  0  0
    4.0066    0.4807    1.7012 N   0  0  0  0  0  0  0  0  0  0  0  0
    3.8938   -0.7589   -0.2082 O   0  0  0  0  0  0  0  0  0  0  0  0
   -0.2728   -0.9467   -0.3161 N   0  0  0  0  0  0  0  0  0  0  0  0
   -1.1407    0.1400   -0.2250 C   0  0  1  0  0  0  0  0  0  0  0  0
   -1.2227    1.0616   -1.4152 C   0  0  0  0  0  0  0  0  0  0  0  0
   -2.1564    2.0948   -1.1810 O   0  0  0  0  0  0  0  0  0  0  0  0
   -2.5789   -0.2543    0.0984 C   0  0  1  0  0  0  0  0  0  0  0  0
   -2.6685   -0.9692    1.4264 C   0  0  0  0  0  0  0  0  0  0  0  0
   -3.3893    0.8754    0.1737 O   0  0  0  0  0  0  0  0  0  0  0  0
    0.9010   -0.2103   -2.5614 H   0  0  0  0  0  0  0  0  0  0  0  0
    1.9844    0.8997   -1.5318 H   0  0  0  0  0  0  0  0  0  0  0  0
    2.5085   -0.7157   -2.0661 H   0  0  0  0  0  0  0  0  0  0  0  0
    1.5695   -1.8180   -0.4137 H   0  0  0  0  0  0  0  0  0  0  0  0
    1.4931    1.0010    0.7599 H   0  0  0  0  0  0  0  0  0  0  0  0
    1.4405   -0.5942    1.6388 H   0  0  0  0  0  0  0  0  0  0  0  0
    3.6214    1.3097    2.2175 H   0  0  0  0  0  0  0  0  0  0  0  0
    4.9483    0.1546    1.9683 H   0  0  0  0  0  0  0  0  0  0  0  0
   -0.5330   -1.8382    0.0975 H   0  0  0  0  0  0  0  0  0  0  0  0
   -0.8165    0.8066    0.6343 H   0  0  0  0  0  0  0  0  0  0  0  0
   -0.2677    1.6038   -1.6152 H   0  0  0  0  0  0  0  0  0  0  0  0
   -1.6058    0.4969   -2.2865 H   0  0  0  0  0  0  0  0  0  0  0  0
   -2.9219    2.0530   -1.7969 H   0  0  0  0  0  0  0  0  0  0  0  0
   -3.0034   -0.9308   -0.6688 H   0  0  0  0  0  0  0  0  0  0  0  0
   -1.9652   -0.5369    2.1734 H   0  0  0  0  0  0  0  0  0  0  0  0
   -3.6971   -0.8076    1.8099 H   0  0  0  0  0  0  0  0  0  0  0  0
   -2.5076   -2.0628    1.2970 H   0  0  0  0  0  0  0  0  0  0  0  0
   -3.3510    1.3126    1.0640 H   0  0  0  0  0  0  0  0  0  0  0  0
  1  2  1  0
  2  3  1  0
  3  4  1  0
  4  5  1  0
  4  6  2  0
  2  7  1  0
  7  8  1  0
  8  9  1  0
  9 10  1  0
  8 11  1  0
 11 12  1  0
 11 13  1  0
  1 14  1  0
  1 15  1  0
  1 16  1  0
  2 17  1  6
  3 18  1  0
  3 19  1  0
  5 20  1  0
  5 21  1  0
  7 22  1  0
  8 23  1  1
  9 24  1  0
  9 25  1  0
 10 26  1  0
 11 27  1  6
 12 28  1  0
 12 29  1  0
 12 30  1  0
 13 31  1  0
M  END
$$$$

     RDKit          3D

 31 30  0  0  0  0  0  0  0  0999 V2000
   -1.3784    0.1292    1.7610 C   0  0  0  0  0  0  0  0  0  0  0  0
   -1.1161   -0.1225    0.2987 C   0  0  1  0  0  0  0  0  0  0  0  0
   -2.2154    0.4675   -0.5959 C   0  0  0  0  0  0  0  0  0  0  0  0
   -3.5070   -0.1418   -0.2784 C   0  0  0  0  0  0  0  0  0  0  0  0
   -4.7047    0.2733   -0.9483 N   0  0  0  0  0  0  0  0  0  0  0  0
   -3.5752   -1.0385    0.5897 O   0  0  0  0  0  0  0  0  0  0  0  0
    0.1066    0.4472   -0.1045 N   0  0  0  0  0  0  0  0  0  0  0  0
    1.3117   -0.0083    0.4746 C   0  0  1  0  0  0  0  0  0  0  0  0
    1.5009   -1.4695    0.1298 C   0  0  0  0  0  0  0  0  0  0  0  0
    1.5587   -1.6423   -1.2512 O   0  0  0  0  0  0  0  0  0  0  0  0
    2.4332    0.8320   -0.1462 C   0  0  1  0  0  0  0  0  0  0  0  0
    3.7641    0.5143    0.4428 C   0  0  0  0  0  0  0  0  0  0  0  0
    2.3797    0.5996   -1.5206 O   0  0  0  0  0  0  0  0  0  0  0  0
   -2.4178    0.3404    2.0166 H   0  0  0  0  0  0  0  0  0  0  0  0
   -0.9524   -0.7568    2.3182 H   0  0  0  0  0  0  0  0  0  0  0  0
   -0.7047    0.9866    2.0537 H   0  0  0  0  0  0  0  0  0  0  0  0
   -1.1255   -1.2206    0.1423 H   0  0  0  0  0  0  0  0  0  0  0  0
   -2.3122    1.5724   -0.3964 H   0  0  0  0  0  0  0  0  0  0  0  0
   -1.9193    0.3721   -1.6445 H   0  0  0  0  0  0  0  0  0  0  0  0
   -5.2962    1.0363   -0.5911 H   0  0  0  0  0  0  0  0  0  0  0  0
   -4.9363   -0.2411   -1.8105 H   0  0  0  0  0  0  0  0  0  0  0  0
    0.0584    1.4374   -0.3849 H   0  0  0  0  0  0  0  0  0  0  0  0
    1.3415    0.0821    1.5917 H   0  0  0  0  0  0  0  0  0  0  0  0
    0.6669   -2.0665    0.5231 H   0  0  0  0  0  0  0  0  0  0  0  0
    2.4567   -1.8667    0.5594 H   0  0  0  0  0  0  0  0  0  0  0  0
    0.7086   -1.9485   -1.6512 H   0  0  0  0  0  0  0  0  0  0  0  0
    2.2375    1.9114    0.0063 H   0  0  0  0  0  0  0  0  0  0  0  0
    4.1316    1.3245    1.1374 H   0  0  0  0  0  0  0  0  0  0  0  0
    3.8217   -0.4226    1.0090 H   0  0  0  0  0  0  0  0  0  0  0  0
    4.5136    0.5326   -0.4007 H   0  0  0  0  0  0  0  0  0  0  0  0
    3.1697    0.0867   -1.8062 H   0  0  0  0  0  0  0  0  0  0  0  0
  1  2  1  0
  2  3  1  0
  3  4  1  0
  4  5  1  0
  4  6  2  0
  2  7  1  0
  7  8  1  0
  8  9  1  0
  9 10  1  0
  8 11  1  0
 11 12  1  0
 11 13  1  0
  1 14  1  0
  1 15  1  0
  1 16  1  0
  2 17  1  1
  3 18  1  0
  3 19  1  0
  5 20  1  0
  5 21  1  0
  7 22  1  0
  8 23  1  1
  9 24  1  0
  9 25  1  0
 10 26  1  0
 11 27  1  6
 12 28  1  0
 12 29  1  0
 12 30  1  0
 13 31  1  0
M  END
$$$$

     RDKit          3D

 31 30  0  0  0  0  0  0  0  0999 V2000
    1.2569    1.5986   -0.2000 C   0  0  0  0  0  0  0  0  0  0  0  0
    1.0031    0.1166   -0.2221 C   0  0  1  0  0  0  0  0  0  0  0  0
    2.1621   -0.6411    0.3942 C   0  0  0  0  0  0  0  0  0  0  0  0
    3.4389   -0.4323   -0.3255 C   0  0  0  0  0  0  0  0  0  0  0  0
    4.6538   -1.0479    0.1538 N   0  0  0  0  0  0  0  0  0  0  0  0
    3.5219    0.2720   -1.3590 O   0  0  0  0  0  0  0  0  0  0  0  0
   -0.2236   -0.1482    0.4774 N   0  0  0  0  0  0  0  0  0  0  0  0
   -1.3599    0.4636   -0.1327 C   0  0  1  0  0  0  0  0  0  0  0  0
   -1.5900   -0.0903   -1.5007 C   0  0  0  0  0  0  0  0  0  0  0  0
   -2.7307    0.5180   -2.0688 O   0  0  0  0  0  0  0  0  0  0  0  0
   -2.6000    0.3805    0.7302 C   0  0  1  0  0  0  0  0  0  0  0  0
   -3.0452   -1.0436    0.9463 C   0  0  0  0  0  0  0  0  0  0  0  0
   -2.3910    1.0174    1.9413 O   0  0  0  0  0  0  0  0  0  0  0  0
    0.8015    2.0008    0.7418 H   0  0  0  0  0  0  0  0  0  0  0  0
    0.6811    2.0799   -1.0422 H   0  0  0  0  0  0  0  0  0  0  0  0
    2.3054    1.8926   -0.2946 H   0  0  0  0  0  0  0  0  0  0  0  0
    0.9338   -0.1757   -1.3017 H   0  0  0  0  0  0  0  0  0  0  0  0
    1.9432   -1.7247    0.4402 H   0  0  0  0  0  0  0  0  0  0  0  0
    2.2748   -0.3108    1.4682 H   0  0  0  0  0  0  0  0  0  0  0  0
    4.9430   -1.9605   -0.2463 H   0  0  0  0  0  0  0  0  0  0  0  0
    5.1722   -0.5280    0.8836 H   0  0  0  0  0  0  0  0  0  0  0  0
   -0.1599   -0.0261    1.4918 H   0  0  0  0  0  0  0  0  0  0  0  0
   -1.1199    1.5662   -0.2305 H   0  0  0  0  0  0  0  0  0  0  0  0
   -0.7730    0.1912   -2.2091 H   0  0  0  0  0  0  0  0  0  0  0  0
   -1.6612   -1.1774   -1.4714 H   0  0  0  0  0  0  0  0  0  0  0  0
   -2.5104    1.4862   -2.1413 H   0  0  0  0  0  0  0  0  0  0  0  0
   -3.4357    0.9124    0.2079 H   0  0  0  0  0  0  0  0  0  0  0  0
   -2.2220   -1.7644    0.7907 H   0  0  0  0  0  0  0  0  0  0  0  0
   -3.9170   -1.2822    0.2974 H   0  0  0  0  0  0  0  0  0  0  0  0
   -3.4144   -1.1720    1.9886 H   0  0  0  0  0  0  0  0  0  0  0  0
   -1.9379    1.8862    1.7928 H   0  0  0  0  0  0  0  0  0  0  0  0
  1  2  1  0
  2  3  1  0
  3  4  1  0
  4  5  1  0
  4  6  2  0
  2  7  1  0
  7  8  1  0
  8  9  1  0
  9 10  1  0
  8 11  1  0
 11 12  1  0
 11 13  1  0
  1 14  1  0
  1 15  1  0
  1 16  1  0
  2 17  1  6
  3 18  1  0
  3 19  1  0
  5 20  1  0
  5 21  1  0
  7 22  1  0
  8 23  1  6
  9 24  1  0
  9 25  1  0
 10 26  1  0
 11 27  1  6
 12 28  1  0
 12 29  1  0
 12 30  1  0
 13 31  1  0
M  END
$$$$

     RDKit          3D

 31 30  0  0  0  0  0  0  0  0999 V2000
    1.6050   -0.5424    1.3100 C   0  0  0  0  0  0  0  0  0  0  0  0
    1.2072    0.3746    0.2223 C   0  0  1  0  0  0  0  0  0  0  0  0
    1.9670   -0.0851   -1.0431 C   0  0  0  0  0  0  0  0  0  0  0  0
    3.4302   -0.0174   -0.7899 C   0  0  0  0  0  0  0  0  0  0  0  0
    4.0554    1.2479   -0.7186 N   0  0  0  0  0  0  0  0  0  0  0  0
    4.1074   -1.0518   -0.6420 O   0  0  0  0  0  0  0  0  0  0  0  0
   -0.1248    0.6778   -0.0096 N   0  0  0  0  0  0  0  0  0  0  0  0
   -1.0897   -0.2423   -0.4015 C   0  0  1  0  0  0  0  0  0  0  0  0
   -1.3388   -1.2955    0.6129 C   0  0  0  0  0  0  0  0  0  0  0  0
   -1.7538   -0.6959    1.7927 O   0  0  0  0  0  0  0  0  0  0  0  0
   -2.3381    0.5348   -0.7883 C   0  0  1  0  0  0  0  0  0  0  0  0
   -3.4605   -0.3547   -1.2298 C   0  0  0  0  0  0  0  0  0  0  0  0
   -2.7280    1.2641    0.3319 O   0  0  0  0  0  0  0  0  0  0  0  0
    0.9388   -0.5280    2.1791 H   0  0  0  0  0  0  0  0  0  0  0  0
    2.5929   -0.1531    1.7389 H   0  0  0  0  0  0  0  0  0  0  0  0
    1.8974   -1.5579    0.9538 H   0  0  0  0  0  0  0  0  0  0  0  0
    1.7229    1.3704    0.4441 H   0  0  0  0  0  0  0  0  0  0  0  0
    1.6924   -1.1382   -1.2530 H   0  0  0  0  0  0  0  0  0  0  0  0
    1.7147    0.5672   -1.9081 H   0  0  0  0  0  0  0  0  0  0  0  0
    3.8219    1.9775   -1.3971 H   0  0  0  0  0  0  0  0  0  0  0  0
    4.7511    1.4217    0.0262 H   0  0  0  0  0  0  0  0  0  0  0  0
   -0.3727    1.6885   -0.1061 H   0  0  0  0  0  0  0  0  0  0  0  0
   -0.7216   -0.7042   -1.3798 H   0  0  0  0  0  0  0  0  0  0  0  0
   -0.4184   -1.8580    0.8076 H   0  0  0  0  0  0  0  0  0  0  0  0
   -2.0701   -2.0743    0.2700 H   0  0  0  0  0  0  0  0  0  0  0  0
   -2.7293   -0.5154    1.8373 H   0  0  0  0  0  0  0  0  0  0  0  0
   -2.0635    1.2161   -1.6142 H   0  0  0  0  0  0  0  0  0  0  0  0
   -3.2657   -0.8859   -2.1778 H   0  0  0  0  0  0  0  0  0  0  0  0
   -4.3555    0.2799   -1.3782 H   0  0  0  0  0  0  0  0  0  0  0  0
   -3.7453   -1.1142   -0.4878 H   0  0  0  0  0  0  0  0  0  0  0  0
   -2.9283    2.1938    0.0389 H   0  0  0  0  0  0  0  0  0  0  0  0
  1  2  1  0
  2  3  1  0
  3  4  1  0
  4  5  1  0
  4  6  2  0
  2  7  1  0
  7  8  1  0
  8  9  1  0
  9 10  1  0
  8 11  1  0
 11 12  1  0
 11 13  1  0
  1 14  1  0
  1 15  1  0
  1 16  1  0
  2 17  1  1
  3 18  1  0
  3 19  1  0
  5 20  1  0
  5 21  1  0
  7 22  1  0
  8 23  1  6
  9 24  1  0
  9 25  1  0
 10 26  1  0
 11 27  1  6
 12 28  1  0
 12 29  1  0
 12 30  1  0
 13 31  1  0
M  END
$$$$
