
     RDKit          3D

 23 23  0  0  0  0  0  0  0  0999 V2000
    1.2507    0.0465   -1.5793 O   0  0  0  0  0  0  0  0  0  0  0  0
    1.3029   -0.0781   -0.3224 C   0  0  0  0  0  0  0  0  0  0  0  0
    2.6224   -0.1758    0.3865 C   0  0  0  0  0  0  0  0  0  0  0  0
    3.6731   -0.1002   -0.6113 N   0  0  0  0  0  0  0  0  0  0  0  0
    4.8819   -0.1849   -0.0101 O   0  0  0  0  0  0  0  0  0  0  0  0
    0.0713   -0.1217    0.3873 N   0  0  0  0  0  0  0  0  0  0  0  0
   -1.1612   -0.0253   -0.3271 C   0  0  1  0  0  0  0  0  0  0  0  0
   -2.1168   -1.1588   -0.0451 C   0  0  0  0  0  0  0  0  0  0  0  0
   -3.3891   -0.6444   -0.0245 O   0  0  0  0  0  0  0  0  0  0  0  0
   -3.3509    0.6622   -0.4450 C   0  0  0  0  0  0  0  0  0  0  0  0
   -2.0240    1.1444    0.1599 C   0  0  1  0  0  0  0  0  0  0  0  0
   -2.1898    1.1110    1.5245 F   0  0  0  0  0  0  0  0  0  0  0  0
    2.7534    0.6382    1.1122 H   0  0  0  0  0  0  0  0  0  0  0  0
    2.6638   -1.1827    0.8579 H   0  0  0  0  0  0  0  0  0  0  0  0
    3.5478   -0.8743   -1.2794 H   0  0  0  0  0  0  0  0  0  0  0  0
    5.4750    0.5509   -0.3618 H   0  0  0  0  0  0  0  0  0  0  0  0
    0.0988   -0.2224    1.4059 H   0  0  0  0  0  0  0  0  0  0  0  0
   -1.0581    0.0786   -1.4064 H   0  0  0  0  0  0  0  0  0  0  0  0
   -1.9258   -1.5995    0.9761 H   0  0  0  0  0  0  0  0  0  0  0  0
   -2.0050   -1.9780   -0.8029 H   0  0  0  0  0  0  0  0  0  0  0  0
   -3.2127    0.7637   -1.5549 H   0  0  0  0  0  0  0  0  0  0  0  0
   -4.2027    1.2512   -0.0781 H   0  0  0  0  0  0  0  0  0  0  0  0
   -1.7050    2.0993   -0.2412 H   0  0  0  0  0  0  0  0  0  0  0  0
  1  2  2  0
  2  3  1  0
  3  4  1  0
  4  5  1  0
  2  6  1  0
  6  7  1  0
  7  8  1  0
  8  9  1  0
  9 10  1  0
 10 11  1  0
 11 12  1  0
 11  7  1  0
  3 13  1  0
  3 14  1  0
  4 15  1  0
  5 16  1  0
  6 17  1  0
  7 18  1  6
  8 19  1  0
  8 20  1  0
 10 21  1  0
 10 22  1  0
 11 23  1  6
M  END
$$$$

     RDKit          3D

 23 23  0  0  0  0  0  0  0  0999 V2000
    1.2706    1.1319   -0.9129 O   0  0  0  0  0  0  0  0  0  0  0  0
    1.3511   -0.0112   -0.4005 C   0  0  0  0  0  0  0  0  0  0  0  0
    2.6836   -0.6847   -0.2322 C   0  0  0  0  0  0  0  0  0  0  0  0
    3.6256    0.2963   -0.8056 N   0  0  0  0  0  0  0  0  0  0  0  0
    4.4323    0.8093    0.1913 O   0  0  0  0  0  0  0  0  0  0  0  0
    0.1085   -0.6137    0.0138 N   0  0  0  0  0  0  0  0  0  0  0  0
   -1.0598    0.1111   -0.1409 C   0  0  1  0  0  0  0  0  0  0  0  0
   -1.8631   -0.1325   -1.4295 C   0  0  0  0  0  0  0  0  0  0  0  0
   -3.1684    0.3211   -1.1712 O   0  0  0  0  0  0  0  0  0  0  0  0
   -3.2444    0.6962    0.1664 C   0  0  0  0  0  0  0  0  0  0  0  0
   -2.1628   -0.1772    0.8297 C   0  0  1  0  0  0  0  0  0  0  0  0
   -2.6278   -1.4934    0.6693 F   0  0  0  0  0  0  0  0  0  0  0  0
    2.7345   -1.5931   -0.8472 H   0  0  0  0  0  0  0  0  0  0  0  0
    2.9591   -0.8017    0.8084 H   0  0  0  0  0  0  0  0  0  0  0  0
    4.2623   -0.2598   -1.4918 H   0  0  0  0  0  0  0  0  0  0  0  0
    3.8154    1.2394    0.8873 H   0  0  0  0  0  0  0  0  0  0  0  0
    0.1604   -1.5778    0.4027 H   0  0  0  0  0  0  0  0  0  0  0  0
   -0.9026    1.2354   -0.1466 H   0  0  0  0  0  0  0  0  0  0  0  0
   -1.4276    0.3420   -2.3119 H   0  0  0  0  0  0  0  0  0  0  0  0
   -1.9369   -1.2126   -1.6292 H   0  0  0  0  0  0  0  0  0  0  0  0
   -2.8443    1.7207    0.2534 H   0  0  0  0  0  0  0  0  0  0  0  0
   -4.2244    0.5874    0.6243 H   0  0  0  0  0  0  0  0  0  0  0  0
   -1.9412    0.0669    1.8510 H   0  0  0  0  0  0  0  0  0  0  0  0
  1  2  2  0
  2  3  1  0
  3  4  1  0
  4  5  1  0
  2  6  1  0
  6  7  1  0
  7  8  1  0
  8  9  1  0
  9 10  1  0
 10 11  1  0
 11 12  1  0
 11  7  1  0
  3 13  1  0
  3 14  1  0
  4 15  1  0
  5 16  1  0
  6 17  1  0
  7 18  1  6
  8 19  1  0
  8 20  1  0
 10 21  1  0
 10 22  1  0
 11 23  1  1
M  END
$$$$

     RDKit          3D

 23 23  0  0  0  0  0  0  0  0999 V2000
    1.4390    1.7253    0.2996 O   0  0  0  0  0  0  0  0  0  0  0  0
    1.3420    0.4962    0.0173 C   0  0  0  0  0  0  0  0  0  0  0  0
    2.5180   -0.3842   -0.1682 C   0  0  0  0  0  0  0  0  0  0  0  0
    3.7659    0.2952    0.0038 N   0  0  0  0  0  0  0  0  0  0  0  0
    4.7580   -0.6030   -0.1883 O   0  0  0  0  0  0  0  0  0  0  0  0
    0.0476   -0.0407   -0.1227 N   0  0  0  0  0  0  0  0  0  0  0  0
   -1.1743    0.7300    0.0371 C   0  0  1  0  0  0  0  0  0  0  0  0
   -2.0217    0.6053   -1.2049 C   0  0  0  0  0  0  0  0  0  0  0  0
   -3.3136    0.5629   -0.6873 O   0  0  0  0  0  0  0  0  0  0  0  0
   -3.1760   -0.4728    0.2649 C   0  0  0  0  0  0  0  0  0  0  0  0
   -2.0232    0.0897    1.0975 C   0  0  1  0  0  0  0  0  0  0  0  0
   -1.3825   -0.8907    1.8013 F   0  0  0  0  0  0  0  0  0  0  0  0
    2.4694   -1.1967    0.5918 H   0  0  0  0  0  0  0  0  0  0  0  0
    2.4863   -0.8110   -1.1933 H   0  0  0  0  0  0  0  0  0  0  0  0
    3.8298    0.7859    0.9039 H   0  0  0  0  0  0  0  0  0  0  0  0
    4.4598   -1.5362    0.0472 H   0  0  0  0  0  0  0  0  0  0  0  0
   -0.0650   -1.0492   -0.3548 H   0  0  0  0  0  0  0  0  0  0  0  0
   -0.9416    1.7838    0.2813 H   0  0  0  0  0  0  0  0  0  0  0  0
   -1.8699    1.4391   -1.9040 H   0  0  0  0  0  0  0  0  0  0  0  0
   -1.8123   -0.3817   -1.6540 H   0  0  0  0  0  0  0  0  0  0  0  0
   -2.8080   -1.3458   -0.2886 H   0  0  0  0  0  0  0  0  0  0  0  0
   -4.0806   -0.6305    0.8483 H   0  0  0  0  0  0  0  0  0  0  0  0
   -2.4471    0.8293    1.8020 H   0  0  0  0  0  0  0  0  0  0  0  0
  1  2  2  0
  2  3  1  0
  3  4  1  0
  4  5  1  0
  2  6  1  0
  6  7  1  0
  7  8  1  0
  8  9  1  0
  9 10  1  0
 10 11  1  0
 11 12  1  0
 11  7  1  0
  3 13  1  0
  3 14  1  0
  4 15  1  0
  5 16  1  0
  6 17  1  0
  7 18  1  1
  8 19  1  0
  8 20  1  0
 10 21  1  0
 10 22  1  0
 11 23  1  1
M  END
$$$$

     RDKit          3D

 23 23  0  0  0  0  0  0  0  0999 V2000
    0.9501   -1.4568   -1.0429 O   0  0  0  0  0  0  0  0  0  0  0  0
    1.2443   -0.4170   -0.4215 C   0  0  0  0  0  0  0  0  0  0  0  0
    2.6503    0.0143   -0.3725 C   0  0  0  0  0  0  0  0  0  0  0  0
    3.4747   -0.9073   -1.0996 N   0  0  0  0  0  0  0  0  0  0  0  0
    4.7722   -0.5671   -1.0916 O   0  0  0  0  0  0  0  0  0  0  0  0
    0.1900    0.2996    0.2110 N   0  0  0  0  0  0  0  0  0  0  0  0
   -1.1494   -0.1854    0.1165 C   0  0  1  0  0  0  0  0  0  0  0  0
   -1.7923   -0.3859    1.4723 C   0  0  0  0  0  0  0  0  0  0  0  0
   -3.1460   -0.4942    1.1048 O   0  0  0  0  0  0  0  0  0  0  0  0
   -3.3847    0.5274    0.2081 C   0  0  0  0  0  0  0  0  0  0  0  0
   -2.0969    0.8103   -0.5178 C   0  0  1  0  0  0  0  0  0  0  0  0
   -1.6848    2.1069   -0.3200 F   0  0  0  0  0  0  0  0  0  0  0  0
    3.0036    0.1404    0.6785 H   0  0  0  0  0  0  0  0  0  0  0  0
    2.7008    1.0024   -0.9063 H   0  0  0  0  0  0  0  0  0  0  0  0
    3.3461   -1.8942   -0.8016 H   0  0  0  0  0  0  0  0  0  0  0  0
    5.0509   -0.1398   -0.2423 H   0  0  0  0  0  0  0  0  0  0  0  0
    0.4109    1.1627    0.7305 H   0  0  0  0  0  0  0  0  0  0  0  0
   -1.1955   -1.1012   -0.4654 H   0  0  0  0  0  0  0  0  0  0  0  0
   -1.4914   -1.3033    1.9726 H   0  0  0  0  0  0  0  0  0  0  0  0
   -1.7050    0.5314    2.0658 H   0  0  0  0  0  0  0  0  0  0  0  0
   -4.1915    0.2217   -0.4702 H   0  0  0  0  0  0  0  0  0  0  0  0
   -3.7546    1.3969    0.7926 H   0  0  0  0  0  0  0  0  0  0  0  0
   -2.2016    0.6381   -1.6012 H   0  0  0  0  0  0  0  0  0  0  0  0
  1  2  2  0
  2  3  1  0
  3  4  1  0
  4  5  1  0
  2  6  1  0
  6  7  1  0
  7  8  1  0
  8  9  1  0
  9 10  1  0
 10 11  1  0
 11 12  1  0
 11  7  1  0
  3 13  1  0
  3 14  1  0
  4 15  1  0
  5 16  1  0
  6 17  1  0
  7 18  1  6
  8 19  1  0
  8 20  1  0
 10 21  1  0
 10 22  1  0
 11 23  1  6
M  END
$$$$

     RDKit          3D

 23 23  0  0  0  0  0  0  0  0999 V2000
    0.9940   -1.3847   -1.0323 O   0  0  0  0  0  0  0  0  0  0  0  0
    1.2508   -0.3350   -0.4139 C   0  0  0  0  0  0  0  0  0  0  0  0
    2.6262    0.2810   -0.3855 C   0  0  0  0  0  0  0  0  0  0  0  0
    3.5630   -0.4850   -1.1439 N   0  0  0  0  0  0  0  0  0  0  0  0
    4.7706    0.1211   -1.0761 O   0  0  0  0  0  0  0  0  0  0  0  0
    0.1633    0.2681    0.2787 N   0  0  0  0  0  0  0  0  0  0  0  0
   -1.1585   -0.1938    0.3369 C   0  0  1  0  0  0  0  0  0  0  0  0
   -1.7336   -0.4515    1.6949 C   0  0  0  0  0  0  0  0  0  0  0  0
   -3.0918   -0.6208    1.4658 O   0  0  0  0  0  0  0  0  0  0  0  0
   -3.4064   -0.1003    0.2384 C   0  0  0  0  0  0  0  0  0  0  0  0
   -2.2183    0.7466   -0.1933 C   0  0  1  0  0  0  0  0  0  0  0  0
   -2.3152    1.9083    0.5080 F   0  0  0  0  0  0  0  0  0  0  0  0
    2.5641    1.2976   -0.8046 H   0  0  0  0  0  0  0  0  0  0  0  0
    2.9790    0.3671    0.6744 H   0  0  0  0  0  0  0  0  0  0  0  0
    3.6762   -1.4180   -0.6736 H   0  0  0  0  0  0  0  0  0  0  0  0
    5.0873    0.3648   -1.9708 H   0  0  0  0  0  0  0  0  0  0  0  0
    0.4141    1.1647    0.7983 H   0  0  0  0  0  0  0  0  0  0  0  0
   -1.2797   -1.1329   -0.2461 H   0  0  0  0  0  0  0  0  0  0  0  0
   -1.2477   -1.3058    2.1724 H   0  0  0  0  0  0  0  0  0  0  0  0
   -1.6306    0.4679    2.3413 H   0  0  0  0  0  0  0  0  0  0  0  0
   -4.3484    0.4789    0.2221 H   0  0  0  0  0  0  0  0  0  0  0  0
   -3.4884   -0.9133   -0.5393 H   0  0  0  0  0  0  0  0  0  0  0  0
   -2.1700    0.8749   -1.2827 H   0  0  0  0  0  0  0  0  0  0  0  0
  1  2  2  0
  2  3  1  0
  3  4  1  0
  4  5  1  0
  2  6  1  0
  6  7  1  0
  7  8  1  0
  8  9  1  0
  9 10  1  0
 10 11  1  0
 11 12  1  0
 11  7  1  0
  3 13  1  0
  3 14  1  0
  4 15  1  0
  5 16  1  0
  6 17  1  0
  7 18  1  6
  8 19  1  0
  8 20  1  0
 10 21  1  0
 10 22  1  0
 11 23  1  6
M  END
$$$$

     RDKit          3D

 23 23  0  0  0  0  0  0  0  0999 V2000
    1.3826   -1.4721   -0.0677 O   0  0  0  0  0  0  0  0  0  0  0  0
    1.3527   -0.2306    0.1273 C   0  0  0  0  0  0  0  0  0  0  0  0
    2.6003    0.5459    0.2389 C   0  0  0  0  0  0  0  0  0  0  0  0
    3.7191   -0.3476    0.0895 N   0  0  0  0  0  0  0  0  0  0  0  0
    4.9072    0.2527    0.1739 O   0  0  0  0  0  0  0  0  0  0  0  0
    0.0581    0.3580    0.2304 N   0  0  0  0  0  0  0  0  0  0  0  0
   -1.1757   -0.3533    0.1289 C   0  0  1  0  0  0  0  0  0  0  0  0
   -2.0685   -0.1818    1.3354 C   0  0  0  0  0  0  0  0  0  0  0  0
   -3.3690   -0.2890    0.9244 O   0  0  0  0  0  0  0  0  0  0  0  0
   -3.4305   -0.2549   -0.4410 C   0  0  0  0  0  0  0  0  0  0  0  0
   -2.0903    0.2279   -0.9579 C   0  0  1  0  0  0  0  0  0  0  0  0
   -1.9931    1.6005   -0.8420 F   0  0  0  0  0  0  0  0  0  0  0  0
    2.6822    1.3477   -0.5244 H   0  0  0  0  0  0  0  0  0  0  0  0
    2.6902    1.0648    1.2264 H   0  0  0  0  0  0  0  0  0  0  0  0
    3.5818   -0.8894   -0.7905 H   0  0  0  0  0  0  0  0  0  0  0  0
    5.6030   -0.1301   -0.4076 H   0  0  0  0  0  0  0  0  0  0  0  0
    0.0234    1.3875    0.3923 H   0  0  0  0  0  0  0  0  0  0  0  0
   -1.0467   -1.4394   -0.0428 H   0  0  0  0  0  0  0  0  0  0  0  0
   -1.8446   -0.9208    2.1151 H   0  0  0  0  0  0  0  0  0  0  0  0
   -1.9398    0.8616    1.7488 H   0  0  0  0  0  0  0  0  0  0  0  0
   -3.5209   -1.3219   -0.7985 H   0  0  0  0  0  0  0  0  0  0  0  0
   -4.2793    0.3300   -0.8504 H   0  0  0  0  0  0  0  0  0  0  0  0
   -1.8422   -0.1459   -1.9504 H   0  0  0  0  0  0  0  0  0  0  0  0
  1  2  2  0
  2  3  1  0
  3  4  1  0
  4  5  1  0
  2  6  1  0
  6  7  1  0
  7  8  1  0
  8  9  1  0
  9 10  1  0
 10 11  1  0
 11 12  1  0
 11  7  1  0
  3 13  1  0
  3 14  1  0
  4 15  1  0
  5 16  1  0
  6 17  1  0
  7 18  1  6
  8 19  1  0
  8 20  1  0
 10 21  1  0
 10 22  1  0
 11 23  1  6
M  END
$$$$

     RDKit          3D

 23 23  0  0  0  0  0  0  0  0999 V2000
    1.4063    1.3789    0.5407 O   0  0  0  0  0  0  0  0  0  0  0  0
    1.3164    0.1589    0.3343 C   0  0  0  0  0  0  0  0  0  0  0  0
    2.5045   -0.7383    0.4457 C   0  0  0  0  0  0  0  0  0  0  0  0
    3.6298    0.0707    0.8064 N   0  0  0  0  0  0  0  0  0  0  0  0
    4.7643   -0.6263    0.9373 O   0  0  0  0  0  0  0  0  0  0  0  0
    0.0286   -0.3224   -0.0099 N   0  0  0  0  0  0  0  0  0  0  0  0
   -1.0795    0.5290   -0.1116 C   0  0  1  0  0  0  0  0  0  0  0  0
   -1.9172    0.4817   -1.3210 C   0  0  0  0  0  0  0  0  0  0  0  0
   -2.7675   -0.6064   -1.0779 O   0  0  0  0  0  0  0  0  0  0  0  0
   -3.3072   -0.2351    0.1543 C   0  0  0  0  0  0  0  0  0  0  0  0
   -2.0832    0.1079    0.9739 C   0  0  1  0  0  0  0  0  0  0  0  0
   -1.6759   -1.0273    1.6185 F   0  0  0  0  0  0  0  0  0  0  0  0
    2.2698   -1.4572    1.2593 H   0  0  0  0  0  0  0  0  0  0  0  0
    2.6634   -1.3178   -0.4861 H   0  0  0  0  0  0  0  0  0  0  0  0
    3.7087    0.9558    0.2983 H   0  0  0  0  0  0  0  0  0  0  0  0
    5.5128   -0.0066    1.0366 H   0  0  0  0  0  0  0  0  0  0  0  0
   -0.0978   -1.3429   -0.1933 H   0  0  0  0  0  0  0  0  0  0  0  0
   -0.7996    1.5754    0.1076 H   0  0  0  0  0  0  0  0  0  0  0  0
   -2.5838    1.3811   -1.3092 H   0  0  0  0  0  0  0  0  0  0  0  0
   -1.4303    0.4599   -2.2806 H   0  0  0  0  0  0  0  0  0  0  0  0
   -3.8858    0.6941    0.0043 H   0  0  0  0  0  0  0  0  0  0  0  0
   -3.9074   -1.0426    0.6133 H   0  0  0  0  0  0  0  0  0  0  0  0
   -2.2695    0.9293    1.6896 H   0  0  0  0  0  0  0  0  0  0  0  0
  1  2  2  0
  2  3  1  0
  3  4  1  0
  4  5  1  0
  2  6  1  0
  6  7  1  0
  7  8  1  0
  8  9  1  0
  9 10  1  0
 10 11  1  0
 11 12  1  0
 11  7  1  0
  3 13  1  0
  3 14  1  0
  4 15  1  0
  5 16  1  0
  6 17  1  0
  7 18  1  1
  8 19  1  0
  8 20  1  0
 10 21  1  0
 10 22  1  0
 11 23  1  1
M  END
$$$$

     RDKit          3D

 23 23  0  0  0  0  0  0  0  0999 V2000
    0.9303    1.4806   -1.7303 O   0  0  0  0  0  0  0  0  0  0  0  0
    1.2101    0.6347   -0.8444 C   0  0  0  0  0  0  0  0  0  0  0  0
    2.6156    0.2517   -0.5444 C   0  0  0  0  0  0  0  0  0  0  0  0
    2.6679   -0.7416    0.5177 N   0  0  0  0  0  0  0  0  0  0  0  0
    3.9417   -1.0949    0.7961 O   0  0  0  0  0  0  0  0  0  0  0  0
    0.1240    0.0575   -0.1388 N   0  0  0  0  0  0  0  0  0  0  0  0
   -1.2508    0.4397   -0.4402 C   0  0  1  0  0  0  0  0  0  0  0  0
   -2.1241   -0.7525   -0.6953 C   0  0  0  0  0  0  0  0  0  0  0  0
   -2.9847   -0.8965    0.3648 O   0  0  0  0  0  0  0  0  0  0  0  0
   -2.4234   -0.2277    1.4531 C   0  0  0  0  0  0  0  0  0  0  0  0
   -1.9041    1.0338    0.7911 C   0  0  1  0  0  0  0  0  0  0  0  0
   -1.0161    1.7143    1.5840 F   0  0  0  0  0  0  0  0  0  0  0  0
    3.2275    1.1344   -0.2815 H   0  0  0  0  0  0  0  0  0  0  0  0
    3.0430   -0.1741   -1.4739 H   0  0  0  0  0  0  0  0  0  0  0  0
    2.1681   -1.6023    0.1732 H   0  0  0  0  0  0  0  0  0  0  0  0
    4.5953   -0.3936    0.5428 H   0  0  0  0  0  0  0  0  0  0  0  0
    0.3014   -0.6491    0.6057 H   0  0  0  0  0  0  0  0  0  0  0  0
   -1.2823    1.1893   -1.2423 H   0  0  0  0  0  0  0  0  0  0  0  0
   -2.7440   -0.5407   -1.6122 H   0  0  0  0  0  0  0  0  0  0  0  0
   -1.5609   -1.6900   -0.8686 H   0  0  0  0  0  0  0  0  0  0  0  0
   -3.1709    0.0134    2.2127 H   0  0  0  0  0  0  0  0  0  0  0  0
   -1.5927   -0.8486    1.8336 H   0  0  0  0  0  0  0  0  0  0  0  0
   -2.7708    1.6620    0.5063 H   0  0  0  0  0  0  0  0  0  0  0  0
  1  2  2  0
  2  3  1  0
  3  4  1  0
  4  5  1  0
  2  6  1  0
  6  7  1  0
  7  8  1  0
  8  9  1  0
  9 10  1  0
 10 11  1  0
 11 12  1  0
 11  7  1  0
  3 13  1  0
  3 14  1  0
  4 15  1  0
  5 16  1  0
  6 17  1  0
  7 18  1  6
  8 19  1  0
  8 20  1  0
 10 21  1  0
 10 22  1  0
 11 23  1  6
M  END
$$$$
