
     RDKit          3D

 30 30  0  0  0  0  0  0  0  0999 V2000
   -2.1135    1.3951   -0.8731 C   0  0  0  0  0  0  0  0  0  0  0  0
   -2.0160    0.1627   -0.0290 C   0  0  0  0  0  0  0  0  0  0  0  0
   -2.9499    0.2526    1.1675 C   0  0  0  0  0  0  0  0  0  0  0  0
   -2.2675   -1.0463   -0.7601 N   0  0  0  0  0  0  0  0  0  0  0  0
   -1.2153   -1.6881    0.0000 C   0  0  0  0  0  0  0  0  0  0  0  0
   -0.6298   -0.3053    0.3275 C   0  0  1  0  0  0  0  0  0  0  0  0
    0.4354    0.0799   -0.5847 N   0  0  0  0  0  0  0  0  0  0  0  0
    1.7014   -0.1663    0.1001 C   0  0  0  0  0  0  0  0  0  0  0  0
    2.5791    1.0596    0.0068 C   0  0  0  0  0  0  0  0  0  0  0  0
    1.9761    2.1463    0.6379 O   0  0  0  0  0  0  0  0  0  0  0  0
    2.4524   -1.3197   -0.5211 C   0  0  0  0  0  0  0  0  0  0  0  0
    3.6468   -1.5360    0.2118 O   0  0  0  0  0  0  0  0  0  0  0  0
   -1.9386    2.2909   -0.2666 H   0  0  0  0  0  0  0  0  0  0  0  0
   -1.4809    1.3536   -1.7961 H   0  0  0  0  0  0  0  0  0  0  0  0
   -3.1550    1.4461   -1.2559 H   0  0  0  0  0  0  0  0  0  0  0  0
   -3.9789    0.0680    0.8090 H   0  0  0  0  0  0  0  0  0  0  0  0
   -2.6322   -0.5514    1.8675 H   0  0  0  0  0  0  0  0  0  0  0  0
   -2.8903    1.2452    1.6416 H   0  0  0  0  0  0  0  0  0  0  0  0
   -1.9783   -0.9978   -1.7773 H   0  0  0  0  0  0  0  0  0  0  0  0
   -1.5656   -2.2506    0.8743 H   0  0  0  0  0  0  0  0  0  0  0  0
   -0.5099   -2.2772   -0.6301 H   0  0  0  0  0  0  0  0  0  0  0  0
   -0.3675   -0.2000    1.4100 H   0  0  0  0  0  0  0  0  0  0  0  0
    0.4032    1.1341   -0.7408 H   0  0  0  0  0  0  0  0  0  0  0  0
    1.5179   -0.3422    1.1920 H   0  0  0  0  0  0  0  0  0  0  0  0
    3.5440    0.8168    0.5482 H   0  0  0  0  0  0  0  0  0  0  0  0
    2.8691    1.3343   -1.0153 H   0  0  0  0  0  0  0  0  0  0  0  0
    2.5573    2.9430    0.4235 H   0  0  0  0  0  0  0  0  0  0  0  0
    1.8865   -2.2476   -0.5513 H   0  0  0  0  0  0  0  0  0  0  0  0
    2.7327   -1.0593   -1.5712 H   0  0  0  0  0  0  0  0  0  0  0  0
    3.3873   -1.7402    1.1548 H   0  0  0  0  0  0  0  0  0  0  0  0
  1  2  1  0
  2  3  1  0
  2  4  1  0
  4  5  1  0
  5  6  1  0
  6  7  1  0
  7  8  1  0
  8  9  1  0
  9 10  1  0
  8 11  1  0
 11 12  1  0
  6  2  1  0
  1 13  1  0
  1 14  1  0
  1 15  1  0
  3 16  1  0
  3 17  1  0
  3 18  1  0
  4 19  1  0
  5 20  1  0
  5 21  1  0
  6 22  1  1
  7 23  1  0
  8 24  1  0
  9 25  1  0
  9 26  1  0
 10 27  1  0
 11 28  1  0
 11 29  1  0
 12 30  1  0
M  END
$$$$

     RDKit          3D

 30 30  0  0  0  0  0  0  0  0999 V2000
   -1.9065   -0.7914    1.3730 C   0  0  0  0  0  0  0  0  0  0  0  0
   -1.6942   -0.1621    0.0413 C   0  0  0  0  0  0  0  0  0  0  0  0
   -1.8031    1.3335    0.0433 C   0  0  0  0  0  0  0  0  0  0  0  0
   -2.6545   -0.6935   -0.9454 N   0  0  0  0  0  0  0  0  0  0  0  0
   -1.6142   -0.3569   -1.9297 C   0  0  0  0  0  0  0  0  0  0  0  0
   -0.6299   -0.7602   -0.8385 C   0  0  1  0  0  0  0  0  0  0  0  0
    0.5996   -0.1041   -0.9824 N   0  0  0  0  0  0  0  0  0  0  0  0
    1.4105    0.0552    0.1641 C   0  0  0  0  0  0  0  0  0  0  0  0
    1.8945   -1.1914    0.8177 C   0  0  0  0  0  0  0  0  0  0  0  0
    2.6722   -0.7890    1.9206 O   0  0  0  0  0  0  0  0  0  0  0  0
    2.6606    0.8471   -0.2316 C   0  0  0  0  0  0  0  0  0  0  0  0
    2.3701    2.0936   -0.7320 O   0  0  0  0  0  0  0  0  0  0  0  0
   -1.3791   -1.7498    1.4964 H   0  0  0  0  0  0  0  0  0  0  0  0
   -2.9827   -1.0025    1.5064 H   0  0  0  0  0  0  0  0  0  0  0  0
   -1.6022   -0.0873    2.1840 H   0  0  0  0  0  0  0  0  0  0  0  0
   -2.0559    1.6852    1.0810 H   0  0  0  0  0  0  0  0  0  0  0  0
   -2.6201    1.7236   -0.5974 H   0  0  0  0  0  0  0  0  0  0  0  0
   -0.8606    1.8142   -0.2480 H   0  0  0  0  0  0  0  0  0  0  0  0
   -2.6953   -1.7326   -0.8810 H   0  0  0  0  0  0  0  0  0  0  0  0
   -1.6384    0.7410   -2.1461 H   0  0  0  0  0  0  0  0  0  0  0  0
   -1.5973   -1.0057   -2.8100 H   0  0  0  0  0  0  0  0  0  0  0  0
   -0.6486   -1.8588   -0.7544 H   0  0  0  0  0  0  0  0  0  0  0  0
    0.5563    0.7563   -1.5457 H   0  0  0  0  0  0  0  0  0  0  0  0
    0.8925    0.6737    0.9297 H   0  0  0  0  0  0  0  0  0  0  0  0
    1.1268   -1.8521    1.2044 H   0  0  0  0  0  0  0  0  0  0  0  0
    2.6098   -1.6914    0.1238 H   0  0  0  0  0  0  0  0  0  0  0  0
    2.3646    0.0872    2.2315 H   0  0  0  0  0  0  0  0  0  0  0  0
    3.3501    0.9489    0.6482 H   0  0  0  0  0  0  0  0  0  0  0  0
    3.2313    0.2307   -0.9705 H   0  0  0  0  0  0  0  0  0  0  0  0
    2.6438    2.8385   -0.1529 H   0  0  0  0  0  0  0  0  0  0  0  0
  1  2  1  0
  2  3  1  0
  2  4  1  0
  4  5  1  0
  5  6  1  0
  6  7  1  0
  7  8  1  0
  8  9  1  0
  9 10  1  0
  8 11  1  0
 11 12  1  0
  6  2  1  0
  1 13  1  0
  1 14  1  0
  1 15  1  0
  3 16  1  0
  3 17  1  0
  3 18  1  0
  4 19  1  0
  5 20  1  0
  5 21  1  0
  6 22  1  1
  7 23  1  0
  8 24  1  0
  9 25  1  0
  9 26  1  0
 10 27  1  0
 11 28  1  0
 11 29  1  0
 12 30  1  0
M  END
$$$$

     RDKit          3D

 30 30  0  0  0  0  0  0  0  0999 V2000
    2.2749   -1.1331    0.0131 C   0  0  0  0  0  0  0  0  0  0  0  0
    1.7497    0.2763    0.0414 C   0  0  0  0  0  0  0  0  0  0  0  0
    1.8190    0.9259    1.3836 C   0  0  0  0  0  0  0  0  0  0  0  0
    2.4481    1.0415   -1.0193 N   0  0  0  0  0  0  0  0  0  0  0  0
    1.4409    0.4482   -1.9213 C   0  0  0  0  0  0  0  0  0  0  0  0
    0.5145    0.5678   -0.7289 C   0  0  1  0  0  0  0  0  0  0  0  0
   -0.6045   -0.2642   -0.6946 N   0  0  0  0  0  0  0  0  0  0  0  0
   -1.2729   -0.4179    0.5729 C   0  0  0  0  0  0  0  0  0  0  0  0
   -2.3454   -1.5078    0.4538 C   0  0  0  0  0  0  0  0  0  0  0  0
   -3.2848   -1.1716   -0.5113 O   0  0  0  0  0  0  0  0  0  0  0  0
   -2.0355    0.8403    0.9194 C   0  0  0  0  0  0  0  0  0  0  0  0
   -2.9648    1.0411   -0.1005 O   0  0  0  0  0  0  0  0  0  0  0  0
    1.5183   -1.9180    0.0065 H   0  0  0  0  0  0  0  0  0  0  0  0
    2.8983   -1.2531    0.9468 H   0  0  0  0  0  0  0  0  0  0  0  0
    3.0240   -1.3142   -0.8037 H   0  0  0  0  0  0  0  0  0  0  0  0
    2.1551    0.2110    2.1590 H   0  0  0  0  0  0  0  0  0  0  0  0
    2.4913    1.8067    1.2990 H   0  0  0  0  0  0  0  0  0  0  0  0
    0.8214    1.2705    1.7090 H   0  0  0  0  0  0  0  0  0  0  0  0
    2.1594    2.0592   -0.8999 H   0  0  0  0  0  0  0  0  0  0  0  0
    1.1918    1.1131   -2.7602 H   0  0  0  0  0  0  0  0  0  0  0  0
    1.6981   -0.5950   -2.1850 H   0  0  0  0  0  0  0  0  0  0  0  0
    0.2654    1.6548   -0.6078 H   0  0  0  0  0  0  0  0  0  0  0  0
   -0.6120   -1.1113   -1.2855 H   0  0  0  0  0  0  0  0  0  0  0  0
   -0.5837   -0.6693    1.3903 H   0  0  0  0  0  0  0  0  0  0  0  0
   -1.8692   -2.4547    0.2080 H   0  0  0  0  0  0  0  0  0  0  0  0
   -2.9014   -1.5364    1.4369 H   0  0  0  0  0  0  0  0  0  0  0  0
   -3.3893   -1.8633   -1.2033 H   0  0  0  0  0  0  0  0  0  0  0  0
   -2.6438    0.6051    1.8242 H   0  0  0  0  0  0  0  0  0  0  0  0
   -1.4318    1.7127    1.1381 H   0  0  0  0  0  0  0  0  0  0  0  0
   -2.5311    1.6358   -0.7809 H   0  0  0  0  0  0  0  0  0  0  0  0
  1  2  1  0
  2  3  1  0
  2  4  1  0
  4  5  1  0
  5  6  1  0
  6  7  1  0
  7  8  1  0
  8  9  1  0
  9 10  1  0
  8 11  1  0
 11 12  1  0
  6  2  1  0
  1 13  1  0
  1 14  1  0
  1 15  1  0
  3 16  1  0
  3 17  1  0
  3 18  1  0
  4 19  1  0
  5 20  1  0
  5 21  1  0
  6 22  1  1
  7 23  1  0
  8 24  1  0
  9 25  1  0
  9 26  1  0
 10 27  1  0
 11 28  1  0
 11 29  1  0
 12 30  1  0
M  END
$$$$

     RDKit          3D

 30 30  0  0  0  0  0  0  0  0999 V2000
   -2.1462   -1.1596    1.3811 C   0  0  0  0  0  0  0  0  0  0  0  0
   -1.9059   -0.1951    0.2404 C   0  0  0  0  0  0  0  0  0  0  0  0
   -2.2669    1.2110    0.5749 C   0  0  0  0  0  0  0  0  0  0  0  0
   -2.4491   -0.6333   -1.0300 N   0  0  0  0  0  0  0  0  0  0  0  0
   -1.2564   -0.1003   -1.6524 C   0  0  0  0  0  0  0  0  0  0  0  0
   -0.5332   -0.4267   -0.3515 C   0  0  1  0  0  0  0  0  0  0  0  0
    0.4552    0.5205    0.0282 N   0  0  0  0  0  0  0  0  0  0  0  0
    1.7809    0.1725   -0.3287 C   0  0  0  0  0  0  0  0  0  0  0  0
    2.3880   -1.0177    0.3115 C   0  0  0  0  0  0  0  0  0  0  0  0
    1.7749   -2.2179    0.0976 O   0  0  0  0  0  0  0  0  0  0  0  0
    2.6767    1.3917   -0.0717 C   0  0  0  0  0  0  0  0  0  0  0  0
    2.1700    2.4074   -0.8907 O   0  0  0  0  0  0  0  0  0  0  0  0
   -3.2226   -1.4096    1.5130 H   0  0  0  0  0  0  0  0  0  0  0  0
   -1.8279   -0.6478    2.3062 H   0  0  0  0  0  0  0  0  0  0  0  0
   -1.5405   -2.0834    1.2908 H   0  0  0  0  0  0  0  0  0  0  0  0
   -3.2975    1.3959    0.1920 H   0  0  0  0  0  0  0  0  0  0  0  0
   -2.3315    1.3796    1.6899 H   0  0  0  0  0  0  0  0  0  0  0  0
   -1.5300    1.9440    0.1793 H   0  0  0  0  0  0  0  0  0  0  0  0
   -3.3340   -0.1663   -1.3251 H   0  0  0  0  0  0  0  0  0  0  0  0
   -1.3451    1.0056   -1.8072 H   0  0  0  0  0  0  0  0  0  0  0  0
   -0.9219   -0.6670   -2.5300 H   0  0  0  0  0  0  0  0  0  0  0  0
   -0.3204   -1.4933   -0.3385 H   0  0  0  0  0  0  0  0  0  0  0  0
    0.4278    0.6382    1.0824 H   0  0  0  0  0  0  0  0  0  0  0  0
    1.7844    0.0106   -1.4427 H   0  0  0  0  0  0  0  0  0  0  0  0
    3.4391   -1.1080   -0.0914 H   0  0  0  0  0  0  0  0  0  0  0  0
    2.5297   -0.9078    1.4099 H   0  0  0  0  0  0  0  0  0  0  0  0
    2.0849   -2.8940    0.7308 H   0  0  0  0  0  0  0  0  0  0  0  0
    3.7188    1.1679   -0.3232 H   0  0  0  0  0  0  0  0  0  0  0  0
    2.5190    1.7009    0.9797 H   0  0  0  0  0  0  0  0  0  0  0  0
    2.4798    2.1822   -1.8245 H   0  0  0  0  0  0  0  0  0  0  0  0
  1  2  1  0
  2  3  1  0
  2  4  1  0
  4  5  1  0
  5  6  1  0
  6  7  1  0
  7  8  1  0
  8  9  1  0
  9 10  1  0
  8 11  1  0
 11 12  1  0
  6  2  1  0
  1 13  1  0
  1 14  1  0
  1 15  1  0
  3 16  1  0
  3 17  1  0
  3 18  1  0
  4 19  1  0
  5 20  1  0
  5 21  1  0
  6 22  1  6
  7 23  1  0
  8 24  1  0
  9 25  1  0
  9 26  1  0
 10 27  1  0
 11 28  1  0
 11 29  1  0
 12 30  1  0
M  END
$$$$

     RDKit          3D

 30 30  0  0  0  0  0  0  0  0999 V2000
    2.5411   -0.9958    1.2833 C   0  0  0  0  0  0  0  0  0  0  0  0
    1.9158    0.0136    0.3832 C   0  0  0  0  0  0  0  0  0  0  0  0
    2.3838   -0.1461   -1.0384 C   0  0  0  0  0  0  0  0  0  0  0  0
    2.1432    1.3728    0.8270 N   0  0  0  0  0  0  0  0  0  0  0  0
    0.7990    1.6658    0.3060 C   0  0  0  0  0  0  0  0  0  0  0  0
    0.4470    0.2406    0.5789 C   0  0  1  0  0  0  0  0  0  0  0  0
   -0.4306   -0.3378   -0.3878 N   0  0  0  0  0  0  0  0  0  0  0  0
   -1.7623   -0.4158    0.1589 C   0  0  0  0  0  0  0  0  0  0  0  0
   -2.3666    0.9093    0.4741 C   0  0  0  0  0  0  0  0  0  0  0  0
   -2.4443    1.7108   -0.6881 O   0  0  0  0  0  0  0  0  0  0  0  0
   -2.7039   -1.1795   -0.7499 C   0  0  0  0  0  0  0  0  0  0  0  0
   -2.2005   -2.4812   -0.9079 O   0  0  0  0  0  0  0  0  0  0  0  0
    2.1372   -2.0207    1.1430 H   0  0  0  0  0  0  0  0  0  0  0  0
    2.4105   -0.7178    2.3435 H   0  0  0  0  0  0  0  0  0  0  0  0
    3.6449   -0.9993    1.0499 H   0  0  0  0  0  0  0  0  0  0  0  0
    2.1169    0.6672   -1.7124 H   0  0  0  0  0  0  0  0  0  0  0  0
    3.5117   -0.1732   -0.9953 H   0  0  0  0  0  0  0  0  0  0  0  0
    2.0960   -1.1234   -1.4911 H   0  0  0  0  0  0  0  0  0  0  0  0
    2.8947    1.8910    0.3569 H   0  0  0  0  0  0  0  0  0  0  0  0
    0.7809    1.8935   -0.7729 H   0  0  0  0  0  0  0  0  0  0  0  0
    0.2710    2.4494    0.8684 H   0  0  0  0  0  0  0  0  0  0  0  0
    0.1425   -0.0241    1.6063 H   0  0  0  0  0  0  0  0  0  0  0  0
   -0.1067   -1.2556   -0.7581 H   0  0  0  0  0  0  0  0  0  0  0  0
   -1.7642   -0.9998    1.1265 H   0  0  0  0  0  0  0  0  0  0  0  0
   -1.8500    1.4755    1.2505 H   0  0  0  0  0  0  0  0  0  0  0  0
   -3.4094    0.7529    0.8356 H   0  0  0  0  0  0  0  0  0  0  0  0
   -2.9674    2.5058   -0.4288 H   0  0  0  0  0  0  0  0  0  0  0  0
   -3.6692   -1.2516   -0.2340 H   0  0  0  0  0  0  0  0  0  0  0  0
   -2.7933   -0.6619   -1.7247 H   0  0  0  0  0  0  0  0  0  0  0  0
   -1.7677   -2.7646   -0.0525 H   0  0  0  0  0  0  0  0  0  0  0  0
  1  2  1  0
  2  3  1  0
  2  4  1  0
  4  5  1  0
  5  6  1  0
  6  7  1  0
  7  8  1  0
  8  9  1  0
  9 10  1  0
  8 11  1  0
 11 12  1  0
  6  2  1  0
  1 13  1  0
  1 14  1  0
  1 15  1  0
  3 16  1  0
  3 17  1  0
  3 18  1  0
  4 19  1  0
  5 20  1  0
  5 21  1  0
  6 22  1  1
  7 23  1  0
  8 24  1  0
  9 25  1  0
  9 26  1  0
 10 27  1  0
 11 28  1  0
 11 29  1  0
 12 30  1  0
M  END
$$$$

     RDKit          3D

 30 30  0  0  0  0  0  0  0  0999 V2000
    2.5097    1.3346    0.9684 C   0  0  0  0  0  0  0  0  0  0  0  0
    2.0597    0.3244   -0.0387 C   0  0  0  0  0  0  0  0  0  0  0  0
    2.6960   -1.0083    0.1394 C   0  0  0  0  0  0  0  0  0  0  0  0
    2.2141    0.8003   -1.4216 N   0  0  0  0  0  0  0  0  0  0  0  0
    0.9059    0.2289   -1.7666 C   0  0  0  0  0  0  0  0  0  0  0  0
    0.5780    0.3477   -0.2947 C   0  0  1  0  0  0  0  0  0  0  0  0
   -0.1925   -0.7020    0.2775 N   0  0  0  0  0  0  0  0  0  0  0  0
   -1.5640   -0.2711    0.4341 C   0  0  0  0  0  0  0  0  0  0  0  0
   -2.2699    0.0521   -0.8429 C   0  0  0  0  0  0  0  0  0  0  0  0
   -3.5602    0.4419   -0.5318 O   0  0  0  0  0  0  0  0  0  0  0  0
   -2.3412   -1.2967    1.2399 C   0  0  0  0  0  0  0  0  0  0  0  0
   -3.6655   -0.8844    1.3949 O   0  0  0  0  0  0  0  0  0  0  0  0
    3.4779    1.8195    0.7093 H   0  0  0  0  0  0  0  0  0  0  0  0
    2.6187    0.8422    1.9685 H   0  0  0  0  0  0  0  0  0  0  0  0
    1.7338    2.1351    1.1130 H   0  0  0  0  0  0  0  0  0  0  0  0
    2.8556   -1.2139    1.2298 H   0  0  0  0  0  0  0  0  0  0  0  0
    3.7223   -0.9699   -0.3007 H   0  0  0  0  0  0  0  0  0  0  0  0
    2.1722   -1.8385   -0.3705 H   0  0  0  0  0  0  0  0  0  0  0  0
    2.1950    1.8576   -1.5025 H   0  0  0  0  0  0  0  0  0  0  0  0
    0.9681   -0.8583   -2.0390 H   0  0  0  0  0  0  0  0  0  0  0  0
    0.3137    0.8542   -2.4421 H   0  0  0  0  0  0  0  0  0  0  0  0
    0.1895    1.3826   -0.0815 H   0  0  0  0  0  0  0  0  0  0  0  0
   -0.2064   -1.5574   -0.3203 H   0  0  0  0  0  0  0  0  0  0  0  0
   -1.6227    0.6735    1.0575 H   0  0  0  0  0  0  0  0  0  0  0  0
   -2.3605   -0.8076   -1.5401 H   0  0  0  0  0  0  0  0  0  0  0  0
   -1.7838    0.9278   -1.3272 H   0  0  0  0  0  0  0  0  0  0  0  0
   -3.7710    1.3189   -0.9118 H   0  0  0  0  0  0  0  0  0  0  0  0
   -2.3504   -2.3013    0.7711 H   0  0  0  0  0  0  0  0  0  0  0  0
   -1.8273   -1.3416    2.2435 H   0  0  0  0  0  0  0  0  0  0  0  0
   -3.6946   -0.2903    2.1852 H   0  0  0  0  0  0  0  0  0  0  0  0
  1  2  1  0
  2  3  1  0
  2  4  1  0
  4  5  1  0
  5  6  1  0
  6  7  1  0
  7  8  1  0
  8  9  1  0
  9 10  1  0
  8 11  1  0
 11 12  1  0
  6  2  1  0
  1 13  1  0
  1 14  1  0
  1 15  1  0
  3 16  1  0
  3 17  1  0
  3 18  1  0
  4 19  1  0
  5 20  1  0
  5 21  1  0
  6 22  1  6
  7 23  1  0
  8 24  1  0
  9 25  1  0
  9 26  1  0
 10 27  1  0
 11 28  1  0
 11 29  1  0
 12 30  1  0
M  END
$$$$

     RDKit          3D

 30 30  0  0  0  0  0  0  0  0999 V2000
   -3.0191   -0.3757    1.2552 C   0  0  0  0  0  0  0  0  0  0  0  0
   -2.0765    0.1153    0.1915 C   0  0  0  0  0  0  0  0  0  0  0  0
   -2.4229    1.4546   -0.3672 C   0  0  0  0  0  0  0  0  0  0  0  0
   -1.9279   -0.8690   -0.8630 N   0  0  0  0  0  0  0  0  0  0  0  0
   -0.9565   -1.5289    0.0227 C   0  0  0  0  0  0  0  0  0  0  0  0
   -0.6504   -0.1346    0.5684 C   0  0  1  0  0  0  0  0  0  0  0  0
    0.3479    0.5965   -0.1591 N   0  0  0  0  0  0  0  0  0  0  0  0
    1.6688    0.4389    0.3769 C   0  0  0  0  0  0  0  0  0  0  0  0
    2.6309    1.2552   -0.4679 C   0  0  0  0  0  0  0  0  0  0  0  0
    3.9384    1.1471    0.0003 O   0  0  0  0  0  0  0  0  0  0  0  0
    2.1295   -1.0000    0.3941 C   0  0  0  0  0  0  0  0  0  0  0  0
    3.4226   -1.1133    0.9219 O   0  0  0  0  0  0  0  0  0  0  0  0
   -2.5058   -0.4513    2.2389 H   0  0  0  0  0  0  0  0  0  0  0  0
   -3.4936   -1.3358    1.0212 H   0  0  0  0  0  0  0  0  0  0  0  0
   -3.8422    0.3746    1.3542 H   0  0  0  0  0  0  0  0  0  0  0  0
   -1.5436    2.0626   -0.6518 H   0  0  0  0  0  0  0  0  0  0  0  0
   -3.0509    1.9957    0.3721 H   0  0  0  0  0  0  0  0  0  0  0  0
   -3.0585    1.3082   -1.2653 H   0  0  0  0  0  0  0  0  0  0  0  0
   -2.7689   -1.4285   -1.0817 H   0  0  0  0  0  0  0  0  0  0  0  0
   -0.1837   -1.9770   -0.5952 H   0  0  0  0  0  0  0  0  0  0  0  0
   -1.4484   -2.1617    0.7789 H   0  0  0  0  0  0  0  0  0  0  0  0
   -0.4626   -0.1292    1.6518 H   0  0  0  0  0  0  0  0  0  0  0  0
    0.3529    0.3522   -1.1773 H   0  0  0  0  0  0  0  0  0  0  0  0
    1.7230    0.8149    1.4151 H   0  0  0  0  0  0  0  0  0  0  0  0
    2.3412    2.3296   -0.3042 H   0  0  0  0  0  0  0  0  0  0  0  0
    2.5611    0.9598   -1.5269 H   0  0  0  0  0  0  0  0  0  0  0  0
    4.5483    1.5809   -0.6380 H   0  0  0  0  0  0  0  0  0  0  0  0
    2.1584   -1.4601   -0.5983 H   0  0  0  0  0  0  0  0  0  0  0  0
    1.4877   -1.6005    1.0760 H   0  0  0  0  0  0  0  0  0  0  0  0
    4.1008   -1.2204    0.2188 H   0  0  0  0  0  0  0  0  0  0  0  0
  1  2  1  0
  2  3  1  0
  2  4  1  0
  4  5  1  0
  5  6  1  0
  6  7  1  0
  7  8  1  0
  8  9  1  0
  9 10  1  0
  8 11  1  0
 11 12  1  0
  6  2  1  0
  1 13  1  0
  1 14  1  0
  1 15  1  0
  3 16  1  0
  3 17  1  0
  3 18  1  0
  4 19  1  0
  5 20  1  0
  5 21  1  0
  6 22  1  1
  7 23  1  0
  8 24  1  0
  9 25  1  0
  9 26  1  0
 10 27  1  0
 11 28  1  0
 11 29  1  0
 12 30  1  0
M  END
$$$$

     RDKit          3D

 30 30  0  0  0  0  0  0  0  0999 V2000
   -2.6558    1.4146    0.7588 C   0  0  0  0  0  0  0  0  0  0  0  0
   -2.0001    0.2869    0.0092 C   0  0  0  0  0  0  0  0  0  0  0  0
   -2.2676    0.3402   -1.4726 C   0  0  0  0  0  0  0  0  0  0  0  0
   -2.3479   -0.9956    0.5535 N   0  0  0  0  0  0  0  0  0  0  0  0
   -0.9488   -1.4042    0.6832 C   0  0  0  0  0  0  0  0  0  0  0  0
   -0.5714    0.0240    0.3991 C   0  0  1  0  0  0  0  0  0  0  0  0
    0.4073    0.2139   -0.6150 N   0  0  0  0  0  0  0  0  0  0  0  0
    1.7385    0.2176   -0.0721 C   0  0  0  0  0  0  0  0  0  0  0  0
    2.1725   -1.0609    0.5656 C   0  0  0  0  0  0  0  0  0  0  0  0
    2.1778   -2.1588   -0.2615 O   0  0  0  0  0  0  0  0  0  0  0  0
    2.7650    0.7260   -1.0860 C   0  0  0  0  0  0  0  0  0  0  0  0
    2.3623    2.0315   -1.4052 O   0  0  0  0  0  0  0  0  0  0  0  0
   -3.2488    1.0699    1.6262 H   0  0  0  0  0  0  0  0  0  0  0  0
   -3.2055    2.1145    0.0965 H   0  0  0  0  0  0  0  0  0  0  0  0
   -1.8145    2.0304    1.1854 H   0  0  0  0  0  0  0  0  0  0  0  0
   -3.3228    0.6517   -1.6093 H   0  0  0  0  0  0  0  0  0  0  0  0
   -1.6293    1.0603   -2.0038 H   0  0  0  0  0  0  0  0  0  0  0  0
   -2.2018   -0.6862   -1.9054 H   0  0  0  0  0  0  0  0  0  0  0  0
   -2.8745   -1.6442   -0.0379 H   0  0  0  0  0  0  0  0  0  0  0  0
   -0.7474   -1.7134    1.7458 H   0  0  0  0  0  0  0  0  0  0  0  0
   -0.5834   -2.0884   -0.0939 H   0  0  0  0  0  0  0  0  0  0  0  0
   -0.3090    0.6201    1.2998 H   0  0  0  0  0  0  0  0  0  0  0  0
    0.3178   -0.5483   -1.3377 H   0  0  0  0  0  0  0  0  0  0  0  0
    1.7791    0.9928    0.7560 H   0  0  0  0  0  0  0  0  0  0  0  0
    1.5739   -1.3285    1.4595 H   0  0  0  0  0  0  0  0  0  0  0  0
    3.2244   -0.9175    0.9582 H   0  0  0  0  0  0  0  0  0  0  0  0
    2.7404   -2.8513    0.2054 H   0  0  0  0  0  0  0  0  0  0  0  0
    2.8326    0.0862   -1.9745 H   0  0  0  0  0  0  0  0  0  0  0  0
    3.7220    0.8115   -0.5314 H   0  0  0  0  0  0  0  0  0  0  0  0
    2.9151    2.7054   -0.9296 H   0  0  0  0  0  0  0  0  0  0  0  0
  1  2  1  0
  2  3  1  0
  2  4  1  0
  4  5  1  0
  5  6  1  0
  6  7  1  0
  7  8  1  0
  8  9  1  0
  9 10  1  0
  8 11  1  0
 11 12  1  0
  6  2  1  0
  1 13  1  0
  1 14  1  0
  1 15  1  0
  3 16  1  0
  3 17  1  0
  3 18  1  0
  4 19  1  0
  5 20  1  0
  5 21  1  0
  6 22  1  1
  7 23  1  0
  8 24  1  0
  9 25  1  0
  9 26  1  0
 10 27  1  0
 11 28  1  0
 11 29  1  0
 12 30  1  0
M  END
$$$$
