
     RDKit          3D

 30 30  0  0  0  0  0  0  0  0999 V2000
   -3.3675   -1.2418   -0.4923 C   0  0  0  0  0  0  0  0  0  0  0  0
   -3.0609    0.1747   -0.1064 C   0  0  1  0  0  0  0  0  0  0  0  0
   -4.2395    0.7653    0.5023 N   0  0  0  0  0  0  0  0  0  0  0  0
   -1.9539    0.2081    0.9383 C   0  0  2  0  0  0  0  0  0  0  0  0
   -1.7057    1.5140    1.3091 O   0  0  0  0  0  0  0  0  0  0  0  0
   -0.6980   -0.3729    0.4008 C   0  0  0  0  0  0  0  0  0  0  0  0
   -0.7106   -1.5669    0.0033 O   0  0  0  0  0  0  0  0  0  0  0  0
    0.4889    0.3803    0.3301 N   0  0  0  0  0  0  0  0  0  0  0  0
    1.7184   -0.1624   -0.1874 C   0  0  0  0  0  0  0  0  0  0  0  0
    2.4146    0.7314   -1.1951 C   0  0  0  0  0  0  0  0  0  0  0  0
    3.6651    0.3981   -0.5661 N   0  0  0  0  0  0  0  0  0  0  0  0
    4.3895   -0.7085   -1.1096 C   0  0  0  0  0  0  0  0  0  0  0  0
    2.9319    0.1396    0.6572 C   0  0  0  0  0  0  0  0  0  0  0  0
   -2.9996   -1.9390    0.2962 H   0  0  0  0  0  0  0  0  0  0  0  0
   -2.8522   -1.4674   -1.4556 H   0  0  0  0  0  0  0  0  0  0  0  0
   -4.4764   -1.3354   -0.6136 H   0  0  0  0  0  0  0  0  0  0  0  0
   -2.7523    0.8102   -0.9390 H   0  0  0  0  0  0  0  0  0  0  0  0
   -4.4280    1.7113    0.1207 H   0  0  0  0  0  0  0  0  0  0  0  0
   -4.1805    0.7548    1.5516 H   0  0  0  0  0  0  0  0  0  0  0  0
   -2.2993   -0.4170    1.7888 H   0  0  0  0  0  0  0  0  0  0  0  0
   -2.4028    1.8916    1.9023 H   0  0  0  0  0  0  0  0  0  0  0  0
    0.4736    1.3653    0.6650 H   0  0  0  0  0  0  0  0  0  0  0  0
    1.6478   -1.2133   -0.5208 H   0  0  0  0  0  0  0  0  0  0  0  0
    2.2976    0.4469   -2.2409 H   0  0  0  0  0  0  0  0  0  0  0  0
    2.1313    1.7927   -0.9823 H   0  0  0  0  0  0  0  0  0  0  0  0
    5.4913   -0.4620   -1.1120 H   0  0  0  0  0  0  0  0  0  0  0  0
    4.0959   -0.9902   -2.1317 H   0  0  0  0  0  0  0  0  0  0  0  0
    4.2908   -1.5935   -0.4149 H   0  0  0  0  0  0  0  0  0  0  0  0
    2.7645    1.0849    1.2119 H   0  0  0  0  0  0  0  0  0  0  0  0
    3.3260   -0.6988    1.2387 H   0  0  0  0  0  0  0  0  0  0  0  0
  1  2  1  0
  2  3  1  0
  2  4  1  0
  4  5  1  0
  4  6  1  0
  6  7  2  0
  6  8  1  0
  8  9  1  0
  9 10  1  0
 10 11  1  0
 11 12  1  0
 11 13  1  0
 13  9  1  0
  1 14  1  0
  1 15  1  0
  1 16  1  0
  2 17  1  6
  3 18  1  0
  3 19  1  0
  4 20  1  1
  5 21  1  0
  8 22  1  0
  9 23  1  0
 10 24  1  0
 10 25  1  0
 12 26  1  0
 12 27  1  0
 12 28  1  0
 13 29  1  0
 13 30  1  0
M  END
$$$$

     RDKit          3D

 30 30  0  0  0  0  0  0  0  0999 V2000
   -3.2637    0.8887   -0.0120 C   0  0  0  0  0  0  0  0  0  0  0  0
   -2.8762   -0.5611   -0.2785 C   0  0  1  0  0  0  0  0  0  0  0  0
   -1.9994   -0.6067   -1.4041 N   0  0  0  0  0  0  0  0  0  0  0  0
   -2.1687   -1.1490    0.9269 C   0  0  2  0  0  0  0  0  0  0  0  0
   -3.0745   -1.0870    2.0136 O   0  0  0  0  0  0  0  0  0  0  0  0
   -0.9311   -0.4483    1.2833 C   0  0  0  0  0  0  0  0  0  0  0  0
   -0.8385    0.1254    2.4056 O   0  0  0  0  0  0  0  0  0  0  0  0
    0.1790   -0.3932    0.3994 N   0  0  0  0  0  0  0  0  0  0  0  0
    1.3594    0.3253    0.8422 C   0  0  0  0  0  0  0  0  0  0  0  0
    2.5909   -0.5667    0.6607 C   0  0  0  0  0  0  0  0  0  0  0  0
    2.9221    0.1971   -0.4990 N   0  0  0  0  0  0  0  0  0  0  0  0
    4.2992    0.6268   -0.6050 C   0  0  0  0  0  0  0  0  0  0  0  0
    1.9692    1.2261   -0.2017 C   0  0  0  0  0  0  0  0  0  0  0  0
   -2.3892    1.5594   -0.1209 H   0  0  0  0  0  0  0  0  0  0  0  0
   -3.7502    0.9885    0.9719 H   0  0  0  0  0  0  0  0  0  0  0  0
   -3.9974    1.1647   -0.8023 H   0  0  0  0  0  0  0  0  0  0  0  0
   -3.8254   -1.1014   -0.4527 H   0  0  0  0  0  0  0  0  0  0  0  0
   -2.4763   -0.9958   -2.2595 H   0  0  0  0  0  0  0  0  0  0  0  0
   -1.6153    0.3458   -1.6065 H   0  0  0  0  0  0  0  0  0  0  0  0
   -1.9561   -2.2058    0.7323 H   0  0  0  0  0  0  0  0  0  0  0  0
   -2.9459   -1.8960    2.5696 H   0  0  0  0  0  0  0  0  0  0  0  0
    0.1775   -0.8469   -0.5432 H   0  0  0  0  0  0  0  0  0  0  0  0
    1.2749    0.7639    1.8368 H   0  0  0  0  0  0  0  0  0  0  0  0
    3.2689   -0.4819    1.5326 H   0  0  0  0  0  0  0  0  0  0  0  0
    2.3565   -1.6118    0.3886 H   0  0  0  0  0  0  0  0  0  0  0  0
    4.4025    1.4023   -1.3780 H   0  0  0  0  0  0  0  0  0  0  0  0
    4.6951    1.0056    0.3646 H   0  0  0  0  0  0  0  0  0  0  0  0
    4.8988   -0.2685   -0.8705 H   0  0  0  0  0  0  0  0  0  0  0  0
    1.3496    1.4555   -1.0715 H   0  0  0  0  0  0  0  0  0  0  0  0
    2.3641    2.1450    0.2715 H   0  0  0  0  0  0  0  0  0  0  0  0
  1  2  1  0
  2  3  1  0
  2  4  1  0
  4  5  1  0
  4  6  1  0
  6  7  2  0
  6  8  1  0
  8  9  1  0
  9 10  1  0
 10 11  1  0
 11 12  1  0
 11 13  1  0
 13  9  1  0
  1 14  1  0
  1 15  1  0
  1 16  1  0
  2 17  1  6
  3 18  1  0
  3 19  1  0
  4 20  1  6
  5 21  1  0
  8 22  1  0
  9 23  1  0
 10 24  1  0
 10 25  1  0
 12 26  1  0
 12 27  1  0
 12 28  1  0
 13 29  1  0
 13 30  1  0
M  END
$$$$

     RDKit          3D

 30 30  0  0  0  0  0  0  0  0999 V2000
   -3.1504    0.5450   -0.9719 C   0  0  0  0  0  0  0  0  0  0  0  0
   -2.8957   -0.5050    0.0582 C   0  0  1  0  0  0  0  0  0  0  0  0
   -2.2096   -1.6563   -0.4343 N   0  0  0  0  0  0  0  0  0  0  0  0
   -2.1989    0.1001    1.2745 C   0  0  2  0  0  0  0  0  0  0  0  0
   -2.9332    1.2080    1.6837 O   0  0  0  0  0  0  0  0  0  0  0  0
   -0.8230    0.5559    0.9549 C   0  0  0  0  0  0  0  0  0  0  0  0
   -0.5064    1.7683    1.0652 O   0  0  0  0  0  0  0  0  0  0  0  0
    0.2123   -0.3144    0.5130 N   0  0  0  0  0  0  0  0  0  0  0  0
    1.5550    0.1418    0.2027 C   0  0  0  0  0  0  0  0  0  0  0  0
    2.0818   -0.3607   -1.1302 C   0  0  0  0  0  0  0  0  0  0  0  0
    3.3987   -0.4585   -0.4836 N   0  0  0  0  0  0  0  0  0  0  0  0
    4.0900    0.8173   -0.5282 C   0  0  0  0  0  0  0  0  0  0  0  0
    2.6635   -0.6800    0.7695 C   0  0  0  0  0  0  0  0  0  0  0  0
   -4.1278    0.3559   -1.4454 H   0  0  0  0  0  0  0  0  0  0  0  0
   -3.2199    1.5280   -0.4511 H   0  0  0  0  0  0  0  0  0  0  0  0
   -2.3901    0.5679   -1.7782 H   0  0  0  0  0  0  0  0  0  0  0  0
   -3.8911   -0.8534    0.4422 H   0  0  0  0  0  0  0  0  0  0  0  0
   -2.1740   -2.3738    0.3228 H   0  0  0  0  0  0  0  0  0  0  0  0
   -2.7596   -2.0468   -1.2311 H   0  0  0  0  0  0  0  0  0  0  0  0
   -2.1370   -0.6758    2.0481 H   0  0  0  0  0  0  0  0  0  0  0  0
   -2.4835    2.0692    1.4092 H   0  0  0  0  0  0  0  0  0  0  0  0
   -0.0177   -1.3240    0.4127 H   0  0  0  0  0  0  0  0  0  0  0  0
    1.7121    1.2180    0.3359 H   0  0  0  0  0  0  0  0  0  0  0  0
    1.6815   -1.3618   -1.3888 H   0  0  0  0  0  0  0  0  0  0  0  0
    2.0561    0.3889   -1.9425 H   0  0  0  0  0  0  0  0  0  0  0  0
    3.7342    1.3666   -1.4219 H   0  0  0  0  0  0  0  0  0  0  0  0
    5.1635    0.6057   -0.6330 H   0  0  0  0  0  0  0  0  0  0  0  0
    3.9450    1.4304    0.3614 H   0  0  0  0  0  0  0  0  0  0  0  0
    2.4540   -1.7686    0.8484 H   0  0  0  0  0  0  0  0  0  0  0  0
    3.1702   -0.2878    1.6690 H   0  0  0  0  0  0  0  0  0  0  0  0
  1  2  1  0
  2  3  1  0
  2  4  1  0
  4  5  1  0
  4  6  1  0
  6  7  2  0
  6  8  1  0
  8  9  1  0
  9 10  1  0
 10 11  1  0
 11 12  1  0
 11 13  1  0
 13  9  1  0
  1 14  1  0
  1 15  1  0
  1 16  1  0
  2 17  1  1
  3 18  1  0
  3 19  1  0
  4 20  1  1
  5 21  1  0
  8 22  1  0
  9 23  1  0
 10 24  1  0
 10 25  1  0
 12 26  1  0
 12 27  1  0
 12 28  1  0
 13 29  1  0
 13 30  1  0
M  END
$$$$

     RDKit          3D

 30 30  0  0  0  0  0  0  0  0999 V2000
   -3.0067   -1.5483    0.4424 C   0  0  0  0  0  0  0  0  0  0  0  0
   -2.9162   -0.0516    0.3116 C   0  0  1  0  0  0  0  0  0  0  0  0
   -2.2629    0.5213    1.4589 N   0  0  0  0  0  0  0  0  0  0  0  0
   -2.2436    0.3820   -0.9689 C   0  0  2  0  0  0  0  0  0  0  0  0
   -2.9490   -0.2239   -2.0149 O   0  0  0  0  0  0  0  0  0  0  0  0
   -0.8286   -0.0377   -1.0479 C   0  0  0  0  0  0  0  0  0  0  0  0
   -0.4338   -0.8324   -1.9685 O   0  0  0  0  0  0  0  0  0  0  0  0
    0.1699    0.3855   -0.1499 N   0  0  0  0  0  0  0  0  0  0  0  0
    1.5516   -0.0045   -0.2005 C   0  0  0  0  0  0  0  0  0  0  0  0
    2.2200   -0.3189    1.0959 C   0  0  0  0  0  0  0  0  0  0  0  0
    3.2950    0.5678    0.7619 N   0  0  0  0  0  0  0  0  0  0  0  0
    4.3974    0.0067    0.0322 C   0  0  0  0  0  0  0  0  0  0  0  0
    2.4041    1.2678   -0.1472 C   0  0  0  0  0  0  0  0  0  0  0  0
   -3.7922   -1.9484   -0.2313 H   0  0  0  0  0  0  0  0  0  0  0  0
   -2.0339   -2.0108    0.2220 H   0  0  0  0  0  0  0  0  0  0  0  0
   -3.3024   -1.7491    1.5133 H   0  0  0  0  0  0  0  0  0  0  0  0
   -3.9471    0.3560    0.2839 H   0  0  0  0  0  0  0  0  0  0  0  0
   -2.5342    0.0815    2.3406 H   0  0  0  0  0  0  0  0  0  0  0  0
   -2.3182    1.5536    1.4311 H   0  0  0  0  0  0  0  0  0  0  0  0
   -2.3900    1.4705   -1.0717 H   0  0  0  0  0  0  0  0  0  0  0  0
   -3.9065   -0.0487   -1.8954 H   0  0  0  0  0  0  0  0  0  0  0  0
   -0.0966    1.0353    0.6216 H   0  0  0  0  0  0  0  0  0  0  0  0
    1.8559   -0.6840   -0.9988 H   0  0  0  0  0  0  0  0  0  0  0  0
    1.6219   -0.0298    1.9649 H   0  0  0  0  0  0  0  0  0  0  0  0
    2.4940   -1.4045    1.1778 H   0  0  0  0  0  0  0  0  0  0  0  0
    5.3276    0.1720    0.6403 H   0  0  0  0  0  0  0  0  0  0  0  0
    4.5821    0.5801   -0.9232 H   0  0  0  0  0  0  0  0  0  0  0  0
    4.3148   -1.0711   -0.1402 H   0  0  0  0  0  0  0  0  0  0  0  0
    1.8991    2.1119    0.3461 H   0  0  0  0  0  0  0  0  0  0  0  0
    2.8283    1.4715   -1.1430 H   0  0  0  0  0  0  0  0  0  0  0  0
  1  2  1  0
  2  3  1  0
  2  4  1  0
  4  5  1  0
  4  6  1  0
  6  7  2  0
  6  8  1  0
  8  9  1  0
  9 10  1  0
 10 11  1  0
 11 12  1  0
 11 13  1  0
 13  9  1  0
  1 14  1  0
  1 15  1  0
  1 16  1  0
  2 17  1  6
  3 18  1  0
  3 19  1  0
  4 20  1  6
  5 21  1  0
  8 22  1  0
  9 23  1  0
 10 24  1  0
 10 25  1  0
 12 26  1  0
 12 27  1  0
 12 28  1  0
 13 29  1  0
 13 30  1  0
M  END
$$$$

     RDKit          3D

 30 30  0  0  0  0  0  0  0  0999 V2000
   -3.9032    0.0749   -1.2647 C   0  0  0  0  0  0  0  0  0  0  0  0
   -2.6028    0.3506   -0.5413 C   0  0  1  0  0  0  0  0  0  0  0  0
   -2.7553    1.4017    0.4420 N   0  0  0  0  0  0  0  0  0  0  0  0
   -2.1396   -0.9165    0.1456 C   0  0  2  0  0  0  0  0  0  0  0  0
   -3.1222   -1.2530    1.0841 O   0  0  0  0  0  0  0  0  0  0  0  0
   -0.8527   -0.7196    0.8515 C   0  0  0  0  0  0  0  0  0  0  0  0
   -0.7637   -0.8581    2.1077 O   0  0  0  0  0  0  0  0  0  0  0  0
    0.3319   -0.3691    0.1585 N   0  0  0  0  0  0  0  0  0  0  0  0
    1.5801   -0.1803    0.8609 C   0  0  0  0  0  0  0  0  0  0  0  0
    2.7022   -1.0223    0.2525 C   0  0  0  0  0  0  0  0  0  0  0  0
    3.1039    0.1259   -0.4983 N   0  0  0  0  0  0  0  0  0  0  0  0
    4.5318    0.3413   -0.6036 C   0  0  0  0  0  0  0  0  0  0  0  0
    2.4131    0.9782    0.4215 C   0  0  0  0  0  0  0  0  0  0  0  0
   -3.6806   -0.7466   -2.0004 H   0  0  0  0  0  0  0  0  0  0  0  0
   -4.6956   -0.2775   -0.5991 H   0  0  0  0  0  0  0  0  0  0  0  0
   -4.1854    0.9830   -1.8466 H   0  0  0  0  0  0  0  0  0  0  0  0
   -1.8754    0.7157   -1.2928 H   0  0  0  0  0  0  0  0  0  0  0  0
   -2.8793    2.3336    0.0139 H   0  0  0  0  0  0  0  0  0  0  0  0
   -3.4599    1.1506    1.1499 H   0  0  0  0  0  0  0  0  0  0  0  0
   -2.1026   -1.7524   -0.5864 H   0  0  0  0  0  0  0  0  0  0  0  0
   -2.7970   -1.0255    1.9968 H   0  0  0  0  0  0  0  0  0  0  0  0
    0.3158   -0.2429   -0.8712 H   0  0  0  0  0  0  0  0  0  0  0  0
    1.4953   -0.3370    1.9568 H   0  0  0  0  0  0  0  0  0  0  0  0
    2.3355   -1.8455   -0.4052 H   0  0  0  0  0  0  0  0  0  0  0  0
    3.4023   -1.3904    1.0263 H   0  0  0  0  0  0  0  0  0  0  0  0
    4.8780    0.0720   -1.6106 H   0  0  0  0  0  0  0  0  0  0  0  0
    4.7128    1.4162   -0.4600 H   0  0  0  0  0  0  0  0  0  0  0  0
    5.1011   -0.1969    0.1753 H   0  0  0  0  0  0  0  0  0  0  0  0
    3.0519    1.3547    1.2627 H   0  0  0  0  0  0  0  0  0  0  0  0
    1.8597    1.8357   -0.0268 H   0  0  0  0  0  0  0  0  0  0  0  0
  1  2  1  0
  2  3  1  0
  2  4  1  0
  4  5  1  0
  4  6  1  0
  6  7  2  0
  6  8  1  0
  8  9  1  0
  9 10  1  0
 10 11  1  0
 11 12  1  0
 11 13  1  0
 13  9  1  0
  1 14  1  0
  1 15  1  0
  1 16  1  0
  2 17  1  6
  3 18  1  0
  3 19  1  0
  4 20  1  6
  5 21  1  0
  8 22  1  0
  9 23  1  0
 10 24  1  0
 10 25  1  0
 12 26  1  0
 12 27  1  0
 12 28  1  0
 13 29  1  0
 13 30  1  0
M  END
$$$$

     RDKit          3D

 30 30  0  0  0  0  0  0  0  0999 V2000
   -4.1906    0.2483   -1.1950 C   0  0  0  0  0  0  0  0  0  0  0  0
   -2.7964    0.8022   -0.8795 C   0  0  1  0  0  0  0  0  0  0  0  0
   -2.7980    1.5415    0.3414 N   0  0  0  0  0  0  0  0  0  0  0  0
   -1.8690   -0.3947   -0.8485 C   0  0  2  0  0  0  0  0  0  0  0  0
   -2.2297   -1.2886    0.1576 O   0  0  0  0  0  0  0  0  0  0  0  0
   -0.4554   -0.0198   -0.7706 C   0  0  0  0  0  0  0  0  0  0  0  0
    0.0049    0.7845   -1.6226 O   0  0  0  0  0  0  0  0  0  0  0  0
    0.4071   -0.5366    0.2360 N   0  0  0  0  0  0  0  0  0  0  0  0
    1.7902   -0.1492    0.2857 C   0  0  0  0  0  0  0  0  0  0  0  0
    2.2176    0.2482    1.7046 C   0  0  0  0  0  0  0  0  0  0  0  0
    3.5050   -0.3532    1.3961 N   0  0  0  0  0  0  0  0  0  0  0  0
    4.3240    0.5676    0.6292 C   0  0  0  0  0  0  0  0  0  0  0  0
    2.7822   -1.2545    0.4876 C   0  0  0  0  0  0  0  0  0  0  0  0
   -4.9768    0.9404   -0.8274 H   0  0  0  0  0  0  0  0  0  0  0  0
   -4.2595   -0.7546   -0.7419 H   0  0  0  0  0  0  0  0  0  0  0  0
   -4.2427    0.1160   -2.2930 H   0  0  0  0  0  0  0  0  0  0  0  0
   -2.5467    1.4840   -1.7160 H   0  0  0  0  0  0  0  0  0  0  0  0
   -3.7736    1.5681    0.7142 H   0  0  0  0  0  0  0  0  0  0  0  0
   -2.4237    2.4872    0.2074 H   0  0  0  0  0  0  0  0  0  0  0  0
   -2.0352   -0.9311   -1.8172 H   0  0  0  0  0  0  0  0  0  0  0  0
   -1.9740   -2.2156   -0.1439 H   0  0  0  0  0  0  0  0  0  0  0  0
    0.0711   -1.2058    0.9635 H   0  0  0  0  0  0  0  0  0  0  0  0
    2.1278    0.5554   -0.4871 H   0  0  0  0  0  0  0  0  0  0  0  0
    2.2306    1.3493    1.8331 H   0  0  0  0  0  0  0  0  0  0  0  0
    1.6006   -0.3069    2.4329 H   0  0  0  0  0  0  0  0  0  0  0  0
    4.6641    0.0472   -0.2957 H   0  0  0  0  0  0  0  0  0  0  0  0
    3.7975    1.4947    0.3565 H   0  0  0  0  0  0  0  0  0  0  0  0
    5.2135    0.8714    1.2495 H   0  0  0  0  0  0  0  0  0  0  0  0
    2.4041   -2.1456    1.0302 H   0  0  0  0  0  0  0  0  0  0  0  0
    3.4308   -1.4622   -0.3872 H   0  0  0  0  0  0  0  0  0  0  0  0
  1  2  1  0
  2  3  1  0
  2  4  1  0
  4  5  1  0
  4  6  1  0
  6  7  2  0
  6  8  1  0
  8  9  1  0
  9 10  1  0
 10 11  1  0
 11 12  1  0
 11 13  1  0
 13  9  1  0
  1 14  1  0
  1 15  1  0
  1 16  1  0
  2 17  1  6
  3 18  1  0
  3 19  1  0
  4 20  1  6
  5 21  1  0
  8 22  1  0
  9 23  1  0
 10 24  1  0
 10 25  1  0
 12 26  1  0
 12 27  1  0
 12 28  1  0
 13 29  1  0
 13 30  1  0
M  END
$$$$

     RDKit          3D

 30 30  0  0  0  0  0  0  0  0999 V2000
   -4.4427    0.4652   -0.0517 C   0  0  0  0  0  0  0  0  0  0  0  0
   -3.1580   -0.3134    0.2512 C   0  0  1  0  0  0  0  0  0  0  0  0
   -2.9899   -1.3944   -0.6709 N   0  0  0  0  0  0  0  0  0  0  0  0
   -2.0486    0.7057    0.1883 C   0  0  2  0  0  0  0  0  0  0  0  0
   -2.0119    1.2299   -1.0768 O   0  0  0  0  0  0  0  0  0  0  0  0
   -0.7639    0.2109    0.6885 C   0  0  0  0  0  0  0  0  0  0  0  0
   -0.7322   -0.2838    1.8456 O   0  0  0  0  0  0  0  0  0  0  0  0
    0.4601    0.2384   -0.0185 N   0  0  0  0  0  0  0  0  0  0  0  0
    1.7186   -0.2606    0.5052 C   0  0  0  0  0  0  0  0  0  0  0  0
    2.7773    0.8405    0.3599 C   0  0  0  0  0  0  0  0  0  0  0  0
    3.3081    0.1004   -0.7522 N   0  0  0  0  0  0  0  0  0  0  0  0
    4.7297   -0.0505   -0.7837 C   0  0  0  0  0  0  0  0  0  0  0  0
    2.5385   -1.0735   -0.4478 C   0  0  0  0  0  0  0  0  0  0  0  0
   -5.2678   -0.1851   -0.3411 H   0  0  0  0  0  0  0  0  0  0  0  0
   -4.2066    1.2273   -0.8283 H   0  0  0  0  0  0  0  0  0  0  0  0
   -4.6655    1.0372    0.8910 H   0  0  0  0  0  0  0  0  0  0  0  0
   -3.2455   -0.7550    1.2829 H   0  0  0  0  0  0  0  0  0  0  0  0
   -3.8312   -1.5493   -1.2894 H   0  0  0  0  0  0  0  0  0  0  0  0
   -2.0945   -1.4219   -1.1677 H   0  0  0  0  0  0  0  0  0  0  0  0
   -2.3630    1.5442    0.8774 H   0  0  0  0  0  0  0  0  0  0  0  0
   -2.1710    0.5691   -1.7958 H   0  0  0  0  0  0  0  0  0  0  0  0
    0.4530    0.6439   -0.9772 H   0  0  0  0  0  0  0  0  0  0  0  0
    1.6617   -0.6791    1.5240 H   0  0  0  0  0  0  0  0  0  0  0  0
    2.3939    1.8100    0.0398 H   0  0  0  0  0  0  0  0  0  0  0  0
    3.4293    0.9481    1.2354 H   0  0  0  0  0  0  0  0  0  0  0  0
    5.2734    0.8832   -0.4976 H   0  0  0  0  0  0  0  0  0  0  0  0
    5.1177   -0.8604   -0.1597 H   0  0  0  0  0  0  0  0  0  0  0  0
    5.0323   -0.2766   -1.8397 H   0  0  0  0  0  0  0  0  0  0  0  0
    2.0009   -1.4584   -1.3450 H   0  0  0  0  0  0  0  0  0  0  0  0
    3.0977   -1.8922    0.0416 H   0  0  0  0  0  0  0  0  0  0  0  0
  1  2  1  0
  2  3  1  0
  2  4  1  0
  4  5  1  0
  4  6  1  0
  6  7  2  0
  6  8  1  0
  8  9  1  0
  9 10  1  0
 10 11  1  0
 11 12  1  0
 11 13  1  0
 13  9  1  0
  1 14  1  0
  1 15  1  0
  1 16  1  0
  2 17  1  1
  3 18  1  0
  3 19  1  0
  4 20  1  1
  5 21  1  0
  8 22  1  0
  9 23  1  0
 10 24  1  0
 10 25  1  0
 12 26  1  0
 12 27  1  0
 12 28  1  0
 13 29  1  0
 13 30  1  0
M  END
$$$$

     RDKit          3D

 30 30  0  0  0  0  0  0  0  0999 V2000
   -4.4229   -0.0016    0.2099 C   0  0  0  0  0  0  0  0  0  0  0  0
   -3.0622   -0.2244   -0.4403 C   0  0  1  0  0  0  0  0  0  0  0  0
   -2.5286    1.0701   -0.7840 N   0  0  0  0  0  0  0  0  0  0  0  0
   -2.1534   -0.8818    0.5748 C   0  0  2  0  0  0  0  0  0  0  0  0
   -2.0985   -0.0696    1.7027 O   0  0  0  0  0  0  0  0  0  0  0  0
   -0.8002   -0.9700   -0.0525 C   0  0  0  0  0  0  0  0  0  0  0  0
   -0.6842   -1.6730   -1.0893 O   0  0  0  0  0  0  0  0  0  0  0  0
    0.3176   -0.2855    0.5000 N   0  0  0  0  0  0  0  0  0  0  0  0
    1.5741   -0.4350   -0.1782 C   0  0  0  0  0  0  0  0  0  0  0  0
    2.7644   -0.7287    0.7126 C   0  0  0  0  0  0  0  0  0  0  0  0
    3.5446    0.0957   -0.2238 N   0  0  0  0  0  0  0  0  0  0  0  0
    4.6289    0.8146    0.4024 C   0  0  0  0  0  0  0  0  0  0  0  0
    2.3251    0.8832   -0.3965 C   0  0  0  0  0  0  0  0  0  0  0  0
   -4.7669   -0.9998    0.5795 H   0  0  0  0  0  0  0  0  0  0  0  0
   -5.1481    0.3695   -0.5438 H   0  0  0  0  0  0  0  0  0  0  0  0
   -4.3215    0.7256    1.0203 H   0  0  0  0  0  0  0  0  0  0  0  0
   -3.1559   -0.8874   -1.3245 H   0  0  0  0  0  0  0  0  0  0  0  0
   -1.9924    1.5130   -0.0170 H   0  0  0  0  0  0  0  0  0  0  0  0
   -2.0652    1.1045   -1.7107 H   0  0  0  0  0  0  0  0  0  0  0  0
   -2.4952   -1.8976    0.7984 H   0  0  0  0  0  0  0  0  0  0  0  0
   -2.0920   -0.6035    2.5458 H   0  0  0  0  0  0  0  0  0  0  0  0
    0.1921    0.2856    1.3539 H   0  0  0  0  0  0  0  0  0  0  0  0
    1.5684   -1.0653   -1.0666 H   0  0  0  0  0  0  0  0  0  0  0  0
    2.6875   -0.2588    1.7294 H   0  0  0  0  0  0  0  0  0  0  0  0
    3.1204   -1.7610    0.7010 H   0  0  0  0  0  0  0  0  0  0  0  0
    5.5153    0.1485    0.3743 H   0  0  0  0  0  0  0  0  0  0  0  0
    4.3896    1.0872    1.4485 H   0  0  0  0  0  0  0  0  0  0  0  0
    4.8655    1.7519   -0.1475 H   0  0  0  0  0  0  0  0  0  0  0  0
    2.1087    1.5797    0.4233 H   0  0  0  0  0  0  0  0  0  0  0  0
    2.1852    1.3138   -1.3914 H   0  0  0  0  0  0  0  0  0  0  0  0
  1  2  1  0
  2  3  1  0
  2  4  1  0
  4  5  1  0
  4  6  1  0
  6  7  2  0
  6  8  1  0
  8  9  1  0
  9 10  1  0
 10 11  1  0
 11 12  1  0
 11 13  1  0
 13  9  1  0
  1 14  1  0
  1 15  1  0
  1 16  1  0
  2 17  1  6
  3 18  1  0
  3 19  1  0
  4 20  1  1
  5 21  1  0
  8 22  1  0
  9 23  1  0
 10 24  1  0
 10 25  1  0
 12 26  1  0
 12 27  1  0
 12 28  1  0
 13 29  1  0
 13 30  1  0
M  END
$$$$
