
     RDKit          3D

 30 30  0  0  0  0  0  0  0  0999 V2000
   -5.0380    0.8871   -0.9150 O   0  0  0  0  0  0  0  0  0  0  0  0
   -4.2959   -0.1180   -0.3003 C   0  0  0  0  0  0  0  0  0  0  0  0
   -2.9185    0.4484    0.0228 C   0  0  0  0  0  0  0  0  0  0  0  0
   -2.0964   -0.6331    0.6913 C   0  0  0  0  0  0  0  0  0  0  0  0
   -0.8013   -0.1359    1.0048 N   0  0  0  0  0  0  0  0  0  0  0  0
   -0.0296    0.1127   -0.1570 C   0  0  0  0  0  0  0  0  0  0  0  0
    1.3887    0.6008    0.1832 C   0  0  1  0  0  0  0  0  0  0  0  0
    2.0001   -0.3975    1.1040 C   0  0  0  0  0  0  0  0  0  0  0  0
    3.4072   -0.5566    1.0147 N   0  0  0  0  0  0  0  0  0  0  0  0
    4.0265    0.1869   -0.0396 C   0  0  0  0  0  0  0  0  0  0  0  0
    3.1297    0.0614   -1.2543 C   0  0  0  0  0  0  0  0  0  0  0  0
    2.0112    0.8081   -1.0067 O   0  0  0  0  0  0  0  0  0  0  0  0
   -4.6873    1.7958   -0.6967 H   0  0  0  0  0  0  0  0  0  0  0  0
   -4.8053   -0.5188    0.5796 H   0  0  0  0  0  0  0  0  0  0  0  0
   -4.1329   -0.9396   -1.0372 H   0  0  0  0  0  0  0  0  0  0  0  0
   -2.4741    0.7893   -0.9185 H   0  0  0  0  0  0  0  0  0  0  0  0
   -3.0514    1.3234    0.6978 H   0  0  0  0  0  0  0  0  0  0  0  0
   -2.0752   -1.5236    0.0077 H   0  0  0  0  0  0  0  0  0  0  0  0
   -2.6388   -0.9679    1.6118 H   0  0  0  0  0  0  0  0  0  0  0  0
   -0.3393   -0.4752    1.8408 H   0  0  0  0  0  0  0  0  0  0  0  0
   -0.4607    0.9396   -0.7879 H   0  0  0  0  0  0  0  0  0  0  0  0
    0.1193   -0.7681   -0.8140 H   0  0  0  0  0  0  0  0  0  0  0  0
    1.2656    1.5754    0.7182 H   0  0  0  0  0  0  0  0  0  0  0  0
    1.4911   -1.3817    0.9679 H   0  0  0  0  0  0  0  0  0  0  0  0
    1.7715   -0.0794    2.1577 H   0  0  0  0  0  0  0  0  0  0  0  0
    3.6663   -1.5608    0.8992 H   0  0  0  0  0  0  0  0  0  0  0  0
    5.0502   -0.1783   -0.2476 H   0  0  0  0  0  0  0  0  0  0  0  0
    4.0664    1.2685    0.2580 H   0  0  0  0  0  0  0  0  0  0  0  0
    3.6261    0.4335   -2.1741 H   0  0  0  0  0  0  0  0  0  0  0  0
    2.8250   -0.9965   -1.4078 H   0  0  0  0  0  0  0  0  0  0  0  0
  1  2  1  0
  2  3  1  0
  3  4  1  0
  4  5  1  0
  5  6  1  0
  6  7  1  0
  7  8  1  0
  8  9  1  0
  9 10  1  0
 10 11  1  0
 11 12  1  0
 12  7  1  0
  1 13  1  0
  2 14  1  0
  2 15  1  0
  3 16  1  0
  3 17  1  0
  4 18  1  0
  4 19  1  0
  5 20  1  0
  6 21  1  0
  6 22  1  0
  7 23  1  1
  8 24  1  0
  8 25  1  0
  9 26  1  0
 10 27  1  0
 10 28  1  0
 11 29  1  0
 11 30  1  0
M  END
$$$$

     RDKit          3D

 30 30  0  0  0  0  0  0  0  0999 V2000
   -2.9080    1.4849   -1.0309 O   0  0  0  0  0  0  0  0  0  0  0  0
   -3.7923    0.7139   -0.3046 C   0  0  0  0  0  0  0  0  0  0  0  0
   -3.4704   -0.7429   -0.4296 C   0  0  0  0  0  0  0  0  0  0  0  0
   -2.1089   -1.1271    0.0581 C   0  0  0  0  0  0  0  0  0  0  0  0
   -1.0126   -0.4712   -0.6233 N   0  0  0  0  0  0  0  0  0  0  0  0
    0.2056   -1.1469   -0.1687 C   0  0  0  0  0  0  0  0  0  0  0  0
    1.4224   -0.5343   -0.7986 C   0  0  1  0  0  0  0  0  0  0  0  0
    1.4165    0.9446   -0.4684 C   0  0  0  0  0  0  0  0  0  0  0  0
    2.7328    1.4539   -0.8869 N   0  0  0  0  0  0  0  0  0  0  0  0
    3.6621    0.9611    0.1250 C   0  0  0  0  0  0  0  0  0  0  0  0
    3.4206   -0.5004    0.4286 C   0  0  0  0  0  0  0  0  0  0  0  0
    2.5889   -1.1511   -0.4331 O   0  0  0  0  0  0  0  0  0  0  0  0
   -3.2374    2.3999   -1.2049 H   0  0  0  0  0  0  0  0  0  0  0  0
   -4.8259    0.9035   -0.6835 H   0  0  0  0  0  0  0  0  0  0  0  0
   -3.7653    1.0506    0.7616 H   0  0  0  0  0  0  0  0  0  0  0  0
   -3.5724   -1.0187   -1.5195 H   0  0  0  0  0  0  0  0  0  0  0  0
   -4.2215   -1.3158    0.1732 H   0  0  0  0  0  0  0  0  0  0  0  0
   -2.0561   -0.9298    1.1721 H   0  0  0  0  0  0  0  0  0  0  0  0
   -1.9566   -2.2340   -0.0492 H   0  0  0  0  0  0  0  0  0  0  0  0
   -1.0070    0.5239   -0.2439 H   0  0  0  0  0  0  0  0  0  0  0  0
    0.1208   -2.1942   -0.5277 H   0  0  0  0  0  0  0  0  0  0  0  0
    0.2996   -1.0577    0.9307 H   0  0  0  0  0  0  0  0  0  0  0  0
    1.3201   -0.6199   -1.8970 H   0  0  0  0  0  0  0  0  0  0  0  0
    1.3876    1.0084    0.6407 H   0  0  0  0  0  0  0  0  0  0  0  0
    0.6061    1.4852   -0.9438 H   0  0  0  0  0  0  0  0  0  0  0  0
    2.9683    1.0520   -1.8202 H   0  0  0  0  0  0  0  0  0  0  0  0
    3.4549    1.5395    1.0472 H   0  0  0  0  0  0  0  0  0  0  0  0
    4.7193    1.1772   -0.1284 H   0  0  0  0  0  0  0  0  0  0  0  0
    4.4323   -1.0063    0.3144 H   0  0  0  0  0  0  0  0  0  0  0  0
    3.1763   -0.6484    1.5217 H   0  0  0  0  0  0  0  0  0  0  0  0
  1  2  1  0
  2  3  1  0
  3  4  1  0
  4  5  1  0
  5  6  1  0
  6  7  1  0
  7  8  1  0
  8  9  1  0
  9 10  1  0
 10 11  1  0
 11 12  1  0
 12  7  1  0
  1 13  1  0
  2 14  1  0
  2 15  1  0
  3 16  1  0
  3 17  1  0
  4 18  1  0
  4 19  1  0
  5 20  1  0
  6 21  1  0
  6 22  1  0
  7 23  1  6
  8 24  1  0
  8 25  1  0
  9 26  1  0
 10 27  1  0
 10 28  1  0
 11 29  1  0
 11 30  1  0
M  END
$$$$

     RDKit          3D

 30 30  0  0  0  0  0  0  0  0999 V2000
    4.0327   -1.4493   -0.4080 O   0  0  0  0  0  0  0  0  0  0  0  0
    4.2447   -0.1548   -0.0099 C   0  0  0  0  0  0  0  0  0  0  0  0
    3.0955    0.7468   -0.3432 C   0  0  0  0  0  0  0  0  0  0  0  0
    1.8411    0.2487    0.3605 C   0  0  0  0  0  0  0  0  0  0  0  0
    0.7285    1.1001    0.0703 N   0  0  0  0  0  0  0  0  0  0  0  0
   -0.4999    0.7381    0.7328 C   0  0  0  0  0  0  0  0  0  0  0  0
   -1.0178   -0.5461    0.1458 C   0  0  1  0  0  0  0  0  0  0  0  0
   -2.2026   -1.0398    0.9327 C   0  0  0  0  0  0  0  0  0  0  0  0
   -3.4731   -0.7270    0.3846 N   0  0  0  0  0  0  0  0  0  0  0  0
   -3.4707    0.3428   -0.5607 C   0  0  0  0  0  0  0  0  0  0  0  0
   -2.3548    0.3175   -1.5507 C   0  0  0  0  0  0  0  0  0  0  0  0
   -1.2615   -0.4286   -1.2025 O   0  0  0  0  0  0  0  0  0  0  0  0
    3.3457   -1.8703    0.1388 H   0  0  0  0  0  0  0  0  0  0  0  0
    5.1627    0.2512   -0.4876 H   0  0  0  0  0  0  0  0  0  0  0  0
    4.4173   -0.0937    1.0957 H   0  0  0  0  0  0  0  0  0  0  0  0
    3.2399    1.7925   -0.0671 H   0  0  0  0  0  0  0  0  0  0  0  0
    2.8621    0.6615   -1.4414 H   0  0  0  0  0  0  0  0  0  0  0  0
    1.6311   -0.7940    0.0618 H   0  0  0  0  0  0  0  0  0  0  0  0
    2.0519    0.2927    1.4595 H   0  0  0  0  0  0  0  0  0  0  0  0
    0.5909    1.2736   -0.9382 H   0  0  0  0  0  0  0  0  0  0  0  0
   -1.2380    1.5617    0.6167 H   0  0  0  0  0  0  0  0  0  0  0  0
   -0.2866    0.5829    1.8299 H   0  0  0  0  0  0  0  0  0  0  0  0
   -0.2359   -1.3111    0.2752 H   0  0  0  0  0  0  0  0  0  0  0  0
   -2.1721   -2.1645    1.0495 H   0  0  0  0  0  0  0  0  0  0  0  0
   -2.1468   -0.6546    1.9700 H   0  0  0  0  0  0  0  0  0  0  0  0
   -4.0138   -1.5430    0.0219 H   0  0  0  0  0  0  0  0  0  0  0  0
   -4.4780    0.2972   -1.0807 H   0  0  0  0  0  0  0  0  0  0  0  0
   -3.5265    1.3374   -0.0300 H   0  0  0  0  0  0  0  0  0  0  0  0
   -2.0963    1.3668   -1.8207 H   0  0  0  0  0  0  0  0  0  0  0  0
   -2.7695   -0.1350   -2.4929 H   0  0  0  0  0  0  0  0  0  0  0  0
  1  2  1  0
  2  3  1  0
  3  4  1  0
  4  5  1  0
  5  6  1  0
  6  7  1  0
  7  8  1  0
  8  9  1  0
  9 10  1  0
 10 11  1  0
 11 12  1  0
 12  7  1  0
  1 13  1  0
  2 14  1  0
  2 15  1  0
  3 16  1  0
  3 17  1  0
  4 18  1  0
  4 19  1  0
  5 20  1  0
  6 21  1  0
  6 22  1  0
  7 23  1  6
  8 24  1  0
  8 25  1  0
  9 26  1  0
 10 27  1  0
 10 28  1  0
 11 29  1  0
 11 30  1  0
M  END
$$$$

     RDKit          3D

 30 30  0  0  0  0  0  0  0  0999 V2000
    4.6302    1.3585   -0.2140 O   0  0  0  0  0  0  0  0  0  0  0  0
    3.7744    0.3007    0.0698 C   0  0  0  0  0  0  0  0  0  0  0  0
    2.6876    0.3023   -1.0125 C   0  0  0  0  0  0  0  0  0  0  0  0
    1.7178   -0.8439   -0.7513 C   0  0  0  0  0  0  0  0  0  0  0  0
    1.1313   -0.6556    0.5437 N   0  0  0  0  0  0  0  0  0  0  0  0
    0.2433    0.4480    0.6645 C   0  0  0  0  0  0  0  0  0  0  0  0
   -1.0446    0.2246   -0.1164 C   0  0  1  0  0  0  0  0  0  0  0  0
   -1.6997   -0.9895    0.5264 C   0  0  0  0  0  0  0  0  0  0  0  0
   -2.9990   -1.2882   -0.0230 N   0  0  0  0  0  0  0  0  0  0  0  0
   -3.6362   -0.1215   -0.5648 C   0  0  0  0  0  0  0  0  0  0  0  0
   -3.1831    1.1130    0.1999 C   0  0  0  0  0  0  0  0  0  0  0  0
   -1.8413    1.3299    0.0085 O   0  0  0  0  0  0  0  0  0  0  0  0
    4.4503    1.6936   -1.1076 H   0  0  0  0  0  0  0  0  0  0  0  0
    3.3029    0.4839    1.0584 H   0  0  0  0  0  0  0  0  0  0  0  0
    4.3024   -0.6786    0.0288 H   0  0  0  0  0  0  0  0  0  0  0  0
    3.1576    0.1135   -1.9793 H   0  0  0  0  0  0  0  0  0  0  0  0
    2.2214    1.2932   -0.9835 H   0  0  0  0  0  0  0  0  0  0  0  0
    2.3164   -1.7811   -0.7306 H   0  0  0  0  0  0  0  0  0  0  0  0
    0.9589   -0.8811   -1.5772 H   0  0  0  0  0  0  0  0  0  0  0  0
    0.8522   -1.5349    0.9804 H   0  0  0  0  0  0  0  0  0  0  0  0
    0.6832    1.3862    0.3231 H   0  0  0  0  0  0  0  0  0  0  0  0
   -0.0298    0.5781    1.7442 H   0  0  0  0  0  0  0  0  0  0  0  0
   -0.8417    0.0068   -1.1760 H   0  0  0  0  0  0  0  0  0  0  0  0
   -1.7971   -0.8209    1.6302 H   0  0  0  0  0  0  0  0  0  0  0  0
   -1.0351   -1.8580    0.3303 H   0  0  0  0  0  0  0  0  0  0  0  0
   -2.9675   -2.0643   -0.7376 H   0  0  0  0  0  0  0  0  0  0  0  0
   -3.4016    0.0597   -1.6267 H   0  0  0  0  0  0  0  0  0  0  0  0
   -4.7391   -0.2540   -0.4753 H   0  0  0  0  0  0  0  0  0  0  0  0
   -3.7200    1.9916   -0.2737 H   0  0  0  0  0  0  0  0  0  0  0  0
   -3.4942    1.0882    1.2580 H   0  0  0  0  0  0  0  0  0  0  0  0
  1  2  1  0
  2  3  1  0
  3  4  1  0
  4  5  1  0
  5  6  1  0
  6  7  1  0
  7  8  1  0
  8  9  1  0
  9 10  1  0
 10 11  1  0
 11 12  1  0
 12  7  1  0
  1 13  1  0
  2 14  1  0
  2 15  1  0
  3 16  1  0
  3 17  1  0
  4 18  1  0
  4 19  1  0
  5 20  1  0
  6 21  1  0
  6 22  1  0
  7 23  1  6
  8 24  1  0
  8 25  1  0
  9 26  1  0
 10 27  1  0
 10 28  1  0
 11 29  1  0
 11 30  1  0
M  END
$$$$

     RDKit          3D

 30 30  0  0  0  0  0  0  0  0999 V2000
    3.9090    1.7611    0.1534 O   0  0  0  0  0  0  0  0  0  0  0  0
    4.3357    0.4251   -0.0433 C   0  0  0  0  0  0  0  0  0  0  0  0
    3.2023   -0.4483    0.5250 C   0  0  0  0  0  0  0  0  0  0  0  0
    1.9846   -0.1128   -0.3116 C   0  0  0  0  0  0  0  0  0  0  0  0
    0.8138   -0.7966    0.1816 N   0  0  0  0  0  0  0  0  0  0  0  0
   -0.2591   -0.5736   -0.7304 C   0  0  0  0  0  0  0  0  0  0  0  0
   -1.6137   -0.9612   -0.0773 C   0  0  1  0  0  0  0  0  0  0  0  0
   -1.7204   -0.0611    1.1246 C   0  0  0  0  0  0  0  0  0  0  0  0
   -2.9535    0.6088    1.3134 N   0  0  0  0  0  0  0  0  0  0  0  0
   -3.4083    1.1011    0.0271 C   0  0  0  0  0  0  0  0  0  0  0  0
   -3.7223   -0.1842   -0.7462 C   0  0  0  0  0  0  0  0  0  0  0  0
   -2.5449   -0.7781   -1.0351 O   0  0  0  0  0  0  0  0  0  0  0  0
    4.4232    2.4072   -0.3528 H   0  0  0  0  0  0  0  0  0  0  0  0
    4.4147    0.2461   -1.1500 H   0  0  0  0  0  0  0  0  0  0  0  0
    5.2666    0.3017    0.5060 H   0  0  0  0  0  0  0  0  0  0  0  0
    3.4321   -1.5347    0.4128 H   0  0  0  0  0  0  0  0  0  0  0  0
    2.9914   -0.2334    1.5703 H   0  0  0  0  0  0  0  0  0  0  0  0
    1.7412    0.9786   -0.2353 H   0  0  0  0  0  0  0  0  0  0  0  0
    2.1709   -0.3216   -1.3793 H   0  0  0  0  0  0  0  0  0  0  0  0
    0.9973   -1.8241    0.3061 H   0  0  0  0  0  0  0  0  0  0  0  0
   -0.1781   -1.2180   -1.6277 H   0  0  0  0  0  0  0  0  0  0  0  0
   -0.3122    0.4973   -0.9819 H   0  0  0  0  0  0  0  0  0  0  0  0
   -1.5193   -2.0107    0.2171 H   0  0  0  0  0  0  0  0  0  0  0  0
   -1.4743   -0.6419    2.0357 H   0  0  0  0  0  0  0  0  0  0  0  0
   -0.9212    0.7517    1.1137 H   0  0  0  0  0  0  0  0  0  0  0  0
   -3.7039   -0.0189    1.6676 H   0  0  0  0  0  0  0  0  0  0  0  0
   -4.2658    1.7643    0.0782 H   0  0  0  0  0  0  0  0  0  0  0  0
   -2.5355    1.6185   -0.4768 H   0  0  0  0  0  0  0  0  0  0  0  0
   -4.3249   -0.8209   -0.0647 H   0  0  0  0  0  0  0  0  0  0  0  0
   -4.2256    0.0787   -1.6889 H   0  0  0  0  0  0  0  0  0  0  0  0
  1  2  1  0
  2  3  1  0
  3  4  1  0
  4  5  1  0
  5  6  1  0
  6  7  1  0
  7  8  1  0
  8  9  1  0
  9 10  1  0
 10 11  1  0
 11 12  1  0
 12  7  1  0
  1 13  1  0
  2 14  1  0
  2 15  1  0
  3 16  1  0
  3 17  1  0
  4 18  1  0
  4 19  1  0
  5 20  1  0
  6 21  1  0
  6 22  1  0
  7 23  1  1
  8 24  1  0
  8 25  1  0
  9 26  1  0
 10 27  1  0
 10 28  1  0
 11 29  1  0
 11 30  1  0
M  END
$$$$

     RDKit          3D

 30 30  0  0  0  0  0  0  0  0999 V2000
    4.9099    0.5891   -0.4969 O   0  0  0  0  0  0  0  0  0  0  0  0
    4.2012   -0.2404    0.3561 C   0  0  0  0  0  0  0  0  0  0  0  0
    2.7145    0.1578    0.3430 C   0  0  0  0  0  0  0  0  0  0  0  0
    2.2223    0.0167   -1.0661 C   0  0  0  0  0  0  0  0  0  0  0  0
    0.8291    0.3734   -1.1567 N   0  0  0  0  0  0  0  0  0  0  0  0
   -0.0130   -0.5820   -0.4910 C   0  0  0  0  0  0  0  0  0  0  0  0
   -1.4967   -0.1966   -0.6386 C   0  0  1  0  0  0  0  0  0  0  0  0
   -2.3422   -1.3094   -0.1015 C   0  0  0  0  0  0  0  0  0  0  0  0
   -3.2793   -0.8499    0.9078 N   0  0  0  0  0  0  0  0  0  0  0  0
   -3.9339    0.2967    0.3035 C   0  0  0  0  0  0  0  0  0  0  0  0
   -2.9199    1.4113    0.3075 C   0  0  0  0  0  0  0  0  0  0  0  0
   -1.6975    1.0175   -0.0898 O   0  0  0  0  0  0  0  0  0  0  0  0
    5.3272    1.3647   -0.0765 H   0  0  0  0  0  0  0  0  0  0  0  0
    4.5760   -0.0908    1.3781 H   0  0  0  0  0  0  0  0  0  0  0  0
    4.3056   -1.3094    0.0751 H   0  0  0  0  0  0  0  0  0  0  0  0
    2.1369   -0.5178    0.9966 H   0  0  0  0  0  0  0  0  0  0  0  0
    2.6026    1.1894    0.7147 H   0  0  0  0  0  0  0  0  0  0  0  0
    2.8501    0.6113   -1.7767 H   0  0  0  0  0  0  0  0  0  0  0  0
    2.3171   -1.0783   -1.3180 H   0  0  0  0  0  0  0  0  0  0  0  0
    0.6680    1.3461   -0.8159 H   0  0  0  0  0  0  0  0  0  0  0  0
    0.1808   -0.6433    0.6210 H   0  0  0  0  0  0  0  0  0  0  0  0
    0.1681   -1.6121   -0.8621 H   0  0  0  0  0  0  0  0  0  0  0  0
   -1.6966   -0.1363   -1.7296 H   0  0  0  0  0  0  0  0  0  0  0  0
   -1.6871   -2.0544    0.3890 H   0  0  0  0  0  0  0  0  0  0  0  0
   -2.9180   -1.8287   -0.8914 H   0  0  0  0  0  0  0  0  0  0  0  0
   -2.7209   -0.4946    1.7216 H   0  0  0  0  0  0  0  0  0  0  0  0
   -4.1824   -0.0275   -0.7426 H   0  0  0  0  0  0  0  0  0  0  0  0
   -4.8564    0.5633    0.8599 H   0  0  0  0  0  0  0  0  0  0  0  0
   -3.2973    2.1602   -0.4526 H   0  0  0  0  0  0  0  0  0  0  0  0
   -2.9683    1.8740    1.3138 H   0  0  0  0  0  0  0  0  0  0  0  0
  1  2  1  0
  2  3  1  0
  3  4  1  0
  4  5  1  0
  5  6  1  0
  6  7  1  0
  7  8  1  0
  8  9  1  0
  9 10  1  0
 10 11  1  0
 11 12  1  0
 12  7  1  0
  1 13  1  0
  2 14  1  0
  2 15  1  0
  3 16  1  0
  3 17  1  0
  4 18  1  0
  4 19  1  0
  5 20  1  0
  6 21  1  0
  6 22  1  0
  7 23  1  6
  8 24  1  0
  8 25  1  0
  9 26  1  0
 10 27  1  0
 10 28  1  0
 11 29  1  0
 11 30  1  0
M  END
$$$$

     RDKit          3D

 30 30  0  0  0  0  0  0  0  0999 V2000
    4.7500    1.3340   -0.0759 O   0  0  0  0  0  0  0  0  0  0  0  0
    3.9145    0.4654    0.6110 C   0  0  0  0  0  0  0  0  0  0  0  0
    2.8001    0.0739   -0.3496 C   0  0  0  0  0  0  0  0  0  0  0  0
    1.8156   -0.8888    0.3087 C   0  0  0  0  0  0  0  0  0  0  0  0
    0.7715   -1.2477   -0.6065 N   0  0  0  0  0  0  0  0  0  0  0  0
   -0.1535   -0.2112   -0.9205 C   0  0  0  0  0  0  0  0  0  0  0  0
   -1.0209    0.1068    0.2858 C   0  0  1  0  0  0  0  0  0  0  0  0
   -1.9897    1.2094   -0.1108 C   0  0  0  0  0  0  0  0  0  0  0  0
   -3.1638    1.0530    0.7611 N   0  0  0  0  0  0  0  0  0  0  0  0
   -3.8918   -0.1118    0.2452 C   0  0  0  0  0  0  0  0  0  0  0  0
   -2.8481   -1.1820   -0.1209 C   0  0  0  0  0  0  0  0  0  0  0  0
   -1.7225   -1.0304    0.6865 O   0  0  0  0  0  0  0  0  0  0  0  0
    5.4314    0.7854   -0.5598 H   0  0  0  0  0  0  0  0  0  0  0  0
    3.4664    1.0271    1.4786 H   0  0  0  0  0  0  0  0  0  0  0  0
    4.4620   -0.3932    0.9768 H   0  0  0  0  0  0  0  0  0  0  0  0
    3.2979   -0.4390   -1.1875 H   0  0  0  0  0  0  0  0  0  0  0  0
    2.3099    0.9676   -0.7323 H   0  0  0  0  0  0  0  0  0  0  0  0
    2.3753   -1.8158    0.6138 H   0  0  0  0  0  0  0  0  0  0  0  0
    1.3949   -0.3947    1.2262 H   0  0  0  0  0  0  0  0  0  0  0  0
    1.1160   -1.7369   -1.4357 H   0  0  0  0  0  0  0  0  0  0  0  0
    0.3873    0.7206   -1.1863 H   0  0  0  0  0  0  0  0  0  0  0  0
   -0.7634   -0.4780   -1.8089 H   0  0  0  0  0  0  0  0  0  0  0  0
   -0.4153    0.4569    1.1199 H   0  0  0  0  0  0  0  0  0  0  0  0
   -2.2653    1.1817   -1.1742 H   0  0  0  0  0  0  0  0  0  0  0  0
   -1.4902    2.1785    0.1297 H   0  0  0  0  0  0  0  0  0  0  0  0
   -3.7474    1.9053    0.7837 H   0  0  0  0  0  0  0  0  0  0  0  0
   -4.6018   -0.4873    0.9760 H   0  0  0  0  0  0  0  0  0  0  0  0
   -4.3600    0.1997   -0.7048 H   0  0  0  0  0  0  0  0  0  0  0  0
   -2.5767   -1.0832   -1.1722 H   0  0  0  0  0  0  0  0  0  0  0  0
   -3.2822   -2.1653    0.0503 H   0  0  0  0  0  0  0  0  0  0  0  0
  1  2  1  0
  2  3  1  0
  3  4  1  0
  4  5  1  0
  5  6  1  0
  6  7  1  0
  7  8  1  0
  8  9  1  0
  9 10  1  0
 10 11  1  0
 11 12  1  0
 12  7  1  0
  1 13  1  0
  2 14  1  0
  2 15  1  0
  3 16  1  0
  3 17  1  0
  4 18  1  0
  4 19  1  0
  5 20  1  0
  6 21  1  0
  6 22  1  0
  7 23  1  1
  8 24  1  0
  8 25  1  0
  9 26  1  0
 10 27  1  0
 10 28  1  0
 11 29  1  0
 11 30  1  0
M  END
$$$$

     RDKit          3D

 30 30  0  0  0  0  0  0  0  0999 V2000
    4.8117    0.6729    0.0047 O   0  0  0  0  0  0  0  0  0  0  0  0
    4.1561   -0.5174   -0.3451 C   0  0  0  0  0  0  0  0  0  0  0  0
    2.6725   -0.2196   -0.4500 C   0  0  0  0  0  0  0  0  0  0  0  0
    2.2086    0.2805    0.8996 C   0  0  0  0  0  0  0  0  0  0  0  0
    0.7997    0.5894    0.8748 N   0  0  0  0  0  0  0  0  0  0  0  0
   -0.0443   -0.5558    0.7367 C   0  0  0  0  0  0  0  0  0  0  0  0
   -1.4989   -0.1334    0.7382 C   0  0  1  0  0  0  0  0  0  0  0  0
   -1.7005    0.8991   -0.3211 C   0  0  0  0  0  0  0  0  0  0  0  0
   -3.0813    1.3438   -0.2660 N   0  0  0  0  0  0  0  0  0  0  0  0
   -3.9423    0.1603   -0.1327 C   0  0  0  0  0  0  0  0  0  0  0  0
   -3.1426   -1.1009   -0.4696 C   0  0  0  0  0  0  0  0  0  0  0  0
   -2.2556   -1.2741    0.5950 O   0  0  0  0  0  0  0  0  0  0  0  0
    4.6783    1.2846   -0.7650 H   0  0  0  0  0  0  0  0  0  0  0  0
    4.2709   -1.2250    0.5047 H   0  0  0  0  0  0  0  0  0  0  0  0
    4.5239   -0.9240   -1.3051 H   0  0  0  0  0  0  0  0  0  0  0  0
    2.1509   -1.1596   -0.6960 H   0  0  0  0  0  0  0  0  0  0  0  0
    2.5034    0.5311   -1.2205 H   0  0  0  0  0  0  0  0  0  0  0  0
    2.4180   -0.4749    1.6957 H   0  0  0  0  0  0  0  0  0  0  0  0
    2.7670    1.1905    1.2075 H   0  0  0  0  0  0  0  0  0  0  0  0
    0.5017    1.2393    1.6281 H   0  0  0  0  0  0  0  0  0  0  0  0
    0.2070   -1.1159   -0.1824 H   0  0  0  0  0  0  0  0  0  0  0  0
    0.1499   -1.2795    1.5722 H   0  0  0  0  0  0  0  0  0  0  0  0
   -1.7307    0.2707    1.7485 H   0  0  0  0  0  0  0  0  0  0  0  0
   -1.0736    1.7870   -0.0230 H   0  0  0  0  0  0  0  0  0  0  0  0
   -1.3630    0.5923   -1.3113 H   0  0  0  0  0  0  0  0  0  0  0  0
   -3.3859    1.8366   -1.1229 H   0  0  0  0  0  0  0  0  0  0  0  0
   -4.8443    0.2265   -0.7597 H   0  0  0  0  0  0  0  0  0  0  0  0
   -4.2638    0.0199    0.9295 H   0  0  0  0  0  0  0  0  0  0  0  0
   -3.8737   -1.9315   -0.5121 H   0  0  0  0  0  0  0  0  0  0  0  0
   -2.6191   -1.0130   -1.4253 H   0  0  0  0  0  0  0  0  0  0  0  0
  1  2  1  0
  2  3  1  0
  3  4  1  0
  4  5  1  0
  5  6  1  0
  6  7  1  0
  7  8  1  0
  8  9  1  0
  9 10  1  0
 10 11  1  0
 11 12  1  0
 12  7  1  0
  1 13  1  0
  2 14  1  0
  2 15  1  0
  3 16  1  0
  3 17  1  0
  4 18  1  0
  4 19  1  0
  5 20  1  0
  6 21  1  0
  6 22  1  0
  7 23  1  1
  8 24  1  0
  8 25  1  0
  9 26  1  0
 10 27  1  0
 10 28  1  0
 11 29  1  0
 11 30  1  0
M  END
$$$$
