
     RDKit          3D

 25 24  0  0  0  0  0  0  0  0999 V2000
   -3.7977    0.4938    0.1383 C   0  0  0  0  0  0  0  0  0  0  0  0
   -2.4899   -0.2996    0.2269 C   0  0  1  0  0  0  0  0  0  0  0  0
   -2.6444   -1.4467   -0.6524 N   0  0  0  0  0  0  0  0  0  0  0  0
   -1.3608    0.5837   -0.2166 C   0  0  1  0  0  0  0  0  0  0  0  0
   -1.2264    1.6588    0.6487 O   0  0  0  0  0  0  0  0  0  0  0  0
   -0.1017   -0.1733   -0.4150 C   0  0  0  0  0  0  0  0  0  0  0  0
   -0.0897   -1.3151   -1.0062 O   0  0  0  0  0  0  0  0  0  0  0  0
    1.1693    0.3331    0.0378 N   0  0  0  0  0  0  0  0  0  0  0  0
    2.3112   -0.4006   -0.1640 O   0  0  0  0  0  0  0  0  0  0  0  0
    3.3800    0.4002    0.1921 C   0  0  0  0  0  0  0  0  0  0  0  0
    4.6865   -0.2531    0.0229 C   0  0  0  0  0  0  0  0  0  0  0  0
    5.7132    0.4257    0.3149 O   0  0  0  0  0  0  0  0  0  0  0  0
    4.8847   -1.5494   -0.4309 O   0  0  0  0  0  0  0  0  0  0  0  0
   -3.6294    1.5349   -0.2014 H   0  0  0  0  0  0  0  0  0  0  0  0
   -4.3162    0.5522    1.1223 H   0  0  0  0  0  0  0  0  0  0  0  0
   -4.4864    0.0335   -0.5889 H   0  0  0  0  0  0  0  0  0  0  0  0
   -2.3912   -0.5834    1.2991 H   0  0  0  0  0  0  0  0  0  0  0  0
   -3.6028   -1.5070   -1.0345 H   0  0  0  0  0  0  0  0  0  0  0  0
   -2.4519   -2.3377   -0.1657 H   0  0  0  0  0  0  0  0  0  0  0  0
   -1.6993    1.0315   -1.2039 H   0  0  0  0  0  0  0  0  0  0  0  0
   -1.3661    1.3482    1.6016 H   0  0  0  0  0  0  0  0  0  0  0  0
    1.2110    1.2542    0.5258 H   0  0  0  0  0  0  0  0  0  0  0  0
    3.2367    0.7323    1.2369 H   0  0  0  0  0  0  0  0  0  0  0  0
    3.3425    1.2860   -0.5134 H   0  0  0  0  0  0  0  0  0  0  0  0
    5.7188   -1.8024   -0.9828 H   0  0  0  0  0  0  0  0  0  0  0  0
  1  2  1  0
  2  3  1  0
  2  4  1  0
  4  5  1  0
  4  6  1  0
  6  7  2  0
  6  8  1  0
  8  9  1  0
  9 10  1  0
 10 11  1  0
 11 12  2  0
 11 13  1  0
  1 14  1  0
  1 15  1  0
  1 16  1  0
  2 17  1  1
  3 18  1  0
  3 19  1  0
  4 20  1  6
  5 21  1  0
  8 22  1  0
 10 23  1  0
 10 24  1  0
 13 25  1  0
M  END
$$$$

     RDKit          3D

 25 24  0  0  0  0  0  0  0  0999 V2000
   -2.8701   -0.5407    1.3032 C   0  0  0  0  0  0  0  0  0  0  0  0
   -2.5932   -0.1582   -0.1038 C   0  0  1  0  0  0  0  0  0  0  0  0
   -2.6564    1.2784   -0.2339 N   0  0  0  0  0  0  0  0  0  0  0  0
   -1.3455   -0.7541   -0.7061 C   0  0  1  0  0  0  0  0  0  0  0  0
   -1.3157   -0.4582   -2.0902 O   0  0  0  0  0  0  0  0  0  0  0  0
   -0.0933   -0.3215   -0.0593 C   0  0  0  0  0  0  0  0  0  0  0  0
    0.0987   -0.4742    1.1579 O   0  0  0  0  0  0  0  0  0  0  0  0
    0.9124    0.2797   -0.8425 N   0  0  0  0  0  0  0  0  0  0  0  0
    2.0698    0.6882   -0.3190 O   0  0  0  0  0  0  0  0  0  0  0  0
    2.8857   -0.3547    0.0911 C   0  0  0  0  0  0  0  0  0  0  0  0
    4.1628    0.1532    0.6329 C   0  0  0  0  0  0  0  0  0  0  0  0
    5.0217   -0.6892    1.0607 O   0  0  0  0  0  0  0  0  0  0  0  0
    4.4656    1.5189    0.6965 O   0  0  0  0  0  0  0  0  0  0  0  0
   -2.6884   -1.6123    1.5288 H   0  0  0  0  0  0  0  0  0  0  0  0
   -2.3833    0.1331    2.0131 H   0  0  0  0  0  0  0  0  0  0  0  0
   -3.9854   -0.4106    1.4537 H   0  0  0  0  0  0  0  0  0  0  0  0
   -3.4580   -0.5424   -0.7290 H   0  0  0  0  0  0  0  0  0  0  0  0
   -1.7375    1.7278   -0.4198 H   0  0  0  0  0  0  0  0  0  0  0  0
   -3.4150    1.6215   -0.8292 H   0  0  0  0  0  0  0  0  0  0  0  0
   -1.4039   -1.8571   -0.6458 H   0  0  0  0  0  0  0  0  0  0  0  0
   -1.3015    0.4999   -2.2530 H   0  0  0  0  0  0  0  0  0  0  0  0
    0.8015    0.4395   -1.8854 H   0  0  0  0  0  0  0  0  0  0  0  0
    3.0492   -1.0905   -0.7272 H   0  0  0  0  0  0  0  0  0  0  0  0
    2.3630   -0.8972    0.9094 H   0  0  0  0  0  0  0  0  0  0  0  0
    5.4166    1.8205    0.4878 H   0  0  0  0  0  0  0  0  0  0  0  0
  1  2  1  0
  2  3  1  0
  2  4  1  0
  4  5  1  0
  4  6  1  0
  6  7  2  0
  6  8  1  0
  8  9  1  0
  9 10  1  0
 10 11  1  0
 11 12  2  0
 11 13  1  0
  1 14  1  0
  1 15  1  0
  1 16  1  0
  2 17  1  6
  3 18  1  0
  3 19  1  0
  4 20  1  6
  5 21  1  0
  8 22  1  0
 10 23  1  0
 10 24  1  0
 13 25  1  0
M  END
$$$$

     RDKit          3D

 25 24  0  0  0  0  0  0  0  0999 V2000
   -2.1701    1.6280   -0.1887 C   0  0  0  0  0  0  0  0  0  0  0  0
   -2.2593    0.2727    0.4431 C   0  0  1  0  0  0  0  0  0  0  0  0
   -3.0327   -0.6608   -0.3510 N   0  0  0  0  0  0  0  0  0  0  0  0
   -1.0802   -0.2358    1.1337 C   0  0  1  0  0  0  0  0  0  0  0  0
   -1.5200   -1.2200    2.0748 O   0  0  0  0  0  0  0  0  0  0  0  0
   -0.0088   -0.8986    0.3561 C   0  0  0  0  0  0  0  0  0  0  0  0
    0.3149   -2.1130    0.6059 O   0  0  0  0  0  0  0  0  0  0  0  0
    0.6333   -0.1814   -0.6167 N   0  0  0  0  0  0  0  0  0  0  0  0
    1.6626   -0.4697   -1.4433 O   0  0  0  0  0  0  0  0  0  0  0  0
    2.7769   -0.8070   -0.6076 C   0  0  0  0  0  0  0  0  0  0  0  0
    3.7257    0.3600   -0.5608 C   0  0  0  0  0  0  0  0  0  0  0  0
    3.6144    1.4495   -1.1268 O   0  0  0  0  0  0  0  0  0  0  0  0
    4.8802    0.1507    0.2318 O   0  0  0  0  0  0  0  0  0  0  0  0
   -1.1876    2.0949   -0.1225 H   0  0  0  0  0  0  0  0  0  0  0  0
   -2.8548    2.3990    0.3417 H   0  0  0  0  0  0  0  0  0  0  0  0
   -2.5077    1.6509   -1.2733 H   0  0  0  0  0  0  0  0  0  0  0  0
   -3.0407    0.4737    1.3307 H   0  0  0  0  0  0  0  0  0  0  0  0
   -3.7802   -0.0884   -0.8062 H   0  0  0  0  0  0  0  0  0  0  0  0
   -3.5580   -1.3185    0.3136 H   0  0  0  0  0  0  0  0  0  0  0  0
   -0.6677    0.5897    1.7686 H   0  0  0  0  0  0  0  0  0  0  0  0
   -1.7072   -2.0359    1.5792 H   0  0  0  0  0  0  0  0  0  0  0  0
    0.3146    0.8374   -0.7871 H   0  0  0  0  0  0  0  0  0  0  0  0
    2.5835   -1.2293    0.3328 H   0  0  0  0  0  0  0  0  0  0  0  0
    3.3478   -1.5761   -1.2662 H   0  0  0  0  0  0  0  0  0  0  0  0
    5.5213    0.9279    0.4300 H   0  0  0  0  0  0  0  0  0  0  0  0
  1  2  1  0
  2  3  1  0
  2  4  1  0
  4  5  1  0
  4  6  1  0
  6  7  2  0
  6  8  1  0
  8  9  1  0
  9 10  1  0
 10 11  1  0
 11 12  2  0
 11 13  1  0
  1 14  1  0
  1 15  1  0
  1 16  1  0
  2 17  1  1
  3 18  1  0
  3 19  1  0
  4 20  1  1
  5 21  1  0
  8 22  1  0
 10 23  1  0
 10 24  1  0
 13 25  1  0
M  END
$$$$

     RDKit          3D

 25 24  0  0  0  0  0  0  0  0999 V2000
    2.0752    1.3224    0.7196 C   0  0  0  0  0  0  0  0  0  0  0  0
    2.4062    0.2517   -0.2740 C   0  0  1  0  0  0  0  0  0  0  0  0
    3.8069   -0.1449   -0.1538 N   0  0  0  0  0  0  0  0  0  0  0  0
    1.5437   -0.9510   -0.0970 C   0  0  1  0  0  0  0  0  0  0  0  0
    1.7226   -1.5325    1.1443 O   0  0  0  0  0  0  0  0  0  0  0  0
    0.1075   -0.7418   -0.4117 C   0  0  0  0  0  0  0  0  0  0  0  0
   -0.2009   -0.2017   -1.5049 O   0  0  0  0  0  0  0  0  0  0  0  0
   -0.9324   -1.1297    0.4681 N   0  0  0  0  0  0  0  0  0  0  0  0
   -2.2369   -0.9858    0.2542 O   0  0  0  0  0  0  0  0  0  0  0  0
   -2.7273    0.2989    0.2822 C   0  0  0  0  0  0  0  0  0  0  0  0
   -4.1806    0.2514    0.0386 C   0  0  0  0  0  0  0  0  0  0  0  0
   -4.7419   -0.8368   -0.1792 O   0  0  0  0  0  0  0  0  0  0  0  0
   -4.9328    1.4065    0.0492 O   0  0  0  0  0  0  0  0  0  0  0  0
    1.5481    2.1653    0.2140 H   0  0  0  0  0  0  0  0  0  0  0  0
    3.0378    1.7313    1.1060 H   0  0  0  0  0  0  0  0  0  0  0  0
    1.4171    0.9884    1.5177 H   0  0  0  0  0  0  0  0  0  0  0  0
    2.2449    0.6607   -1.3066 H   0  0  0  0  0  0  0  0  0  0  0  0
    3.8434   -1.0949    0.3207 H   0  0  0  0  0  0  0  0  0  0  0  0
    4.1828   -0.3119   -1.1327 H   0  0  0  0  0  0  0  0  0  0  0  0
    1.8963   -1.7445   -0.8356 H   0  0  0  0  0  0  0  0  0  0  0  0
    1.3854   -0.9815    1.8903 H   0  0  0  0  0  0  0  0  0  0  0  0
   -0.6302   -1.5761    1.3796 H   0  0  0  0  0  0  0  0  0  0  0  0
   -2.2421    0.9839   -0.4689 H   0  0  0  0  0  0  0  0  0  0  0  0
   -2.5426    0.7457    1.2963 H   0  0  0  0  0  0  0  0  0  0  0  0
   -5.8502    1.4269   -0.3921 H   0  0  0  0  0  0  0  0  0  0  0  0
  1  2  1  0
  2  3  1  0
  2  4  1  0
  4  5  1  0
  4  6  1  0
  6  7  2  0
  6  8  1  0
  8  9  1  0
  9 10  1  0
 10 11  1  0
 11 12  2  0
 11 13  1  0
  1 14  1  0
  1 15  1  0
  1 16  1  0
  2 17  1  6
  3 18  1  0
  3 19  1  0
  4 20  1  6
  5 21  1  0
  8 22  1  0
 10 23  1  0
 10 24  1  0
 13 25  1  0
M  END
$$$$

     RDKit          3D

 25 24  0  0  0  0  0  0  0  0999 V2000
   -3.7480   -0.0452   -0.1391 C   0  0  0  0  0  0  0  0  0  0  0  0
   -2.3912    0.6475   -0.0867 C   0  0  1  0  0  0  0  0  0  0  0  0
   -2.4358    1.7452    0.8506 N   0  0  0  0  0  0  0  0  0  0  0  0
   -1.3734   -0.3985    0.2475 C   0  0  1  0  0  0  0  0  0  0  0  0
   -1.4580   -1.3782   -0.7495 O   0  0  0  0  0  0  0  0  0  0  0  0
   -0.0065    0.1313    0.2979 C   0  0  0  0  0  0  0  0  0  0  0  0
    0.3071    1.0372    1.1281 O   0  0  0  0  0  0  0  0  0  0  0  0
    1.0145   -0.3409   -0.5698 N   0  0  0  0  0  0  0  0  0  0  0  0
    2.2695    0.1949   -0.4703 O   0  0  0  0  0  0  0  0  0  0  0  0
    3.0556   -0.8143    0.0992 C   0  0  0  0  0  0  0  0  0  0  0  0
    4.4348   -0.3388    0.2529 C   0  0  0  0  0  0  0  0  0  0  0  0
    5.2587   -1.1679    0.7705 O   0  0  0  0  0  0  0  0  0  0  0  0
    4.8818    0.9083   -0.1140 O   0  0  0  0  0  0  0  0  0  0  0  0
   -4.3984    0.4696   -0.8511 H   0  0  0  0  0  0  0  0  0  0  0  0
   -3.6218   -1.0983   -0.4165 H   0  0  0  0  0  0  0  0  0  0  0  0
   -4.1586   -0.0379    0.8978 H   0  0  0  0  0  0  0  0  0  0  0  0
   -2.2228    1.0695   -1.0920 H   0  0  0  0  0  0  0  0  0  0  0  0
   -1.9962    2.6104    0.5294 H   0  0  0  0  0  0  0  0  0  0  0  0
   -2.3140    1.4988    1.8350 H   0  0  0  0  0  0  0  0  0  0  0  0
   -1.6624   -0.8712    1.2141 H   0  0  0  0  0  0  0  0  0  0  0  0
   -1.7962   -0.9910   -1.6008 H   0  0  0  0  0  0  0  0  0  0  0  0
    0.8555   -1.0736   -1.2768 H   0  0  0  0  0  0  0  0  0  0  0  0
    2.9753   -1.7423   -0.5378 H   0  0  0  0  0  0  0  0  0  0  0  0
    2.6363   -1.0818    1.0900 H   0  0  0  0  0  0  0  0  0  0  0  0
    5.8941    1.0672   -0.0886 H   0  0  0  0  0  0  0  0  0  0  0  0
  1  2  1  0
  2  3  1  0
  2  4  1  0
  4  5  1  0
  4  6  1  0
  6  7  2  0
  6  8  1  0
  8  9  1  0
  9 10  1  0
 10 11  1  0
 11 12  2  0
 11 13  1  0
  1 14  1  0
  1 15  1  0
  1 16  1  0
  2 17  1  6
  3 18  1  0
  3 19  1  0
  4 20  1  1
  5 21  1  0
  8 22  1  0
 10 23  1  0
 10 24  1  0
 13 25  1  0
M  END
$$$$

     RDKit          3D

 25 24  0  0  0  0  0  0  0  0999 V2000
   -2.4181    0.4141   -1.3610 C   0  0  0  0  0  0  0  0  0  0  0  0
   -2.2042    0.3327    0.1370 C   0  0  1  0  0  0  0  0  0  0  0  0
   -3.4931    0.1040    0.7416 N   0  0  0  0  0  0  0  0  0  0  0  0
   -1.3079   -0.8596    0.4414 C   0  0  1  0  0  0  0  0  0  0  0  0
   -1.9068   -1.9922   -0.0996 O   0  0  0  0  0  0  0  0  0  0  0  0
    0.0482   -0.6182   -0.1203 C   0  0  0  0  0  0  0  0  0  0  0  0
    0.4889   -1.4266   -0.9635 O   0  0  0  0  0  0  0  0  0  0  0  0
    0.7457    0.5174    0.3431 N   0  0  0  0  0  0  0  0  0  0  0  0
    1.9540    0.8034   -0.1052 O   0  0  0  0  0  0  0  0  0  0  0  0
    2.9379   -0.1216    0.1967 C   0  0  0  0  0  0  0  0  0  0  0  0
    4.2246    0.3312   -0.3602 C   0  0  0  0  0  0  0  0  0  0  0  0
    5.2609   -0.3379   -0.2313 O   0  0  0  0  0  0  0  0  0  0  0  0
    4.2810    1.5341   -1.0450 O   0  0  0  0  0  0  0  0  0  0  0  0
   -2.7851   -0.5583   -1.7224 H   0  0  0  0  0  0  0  0  0  0  0  0
   -1.4718    0.6963   -1.8517 H   0  0  0  0  0  0  0  0  0  0  0  0
   -3.1679    1.2246   -1.5769 H   0  0  0  0  0  0  0  0  0  0  0  0
   -1.7477    1.2822    0.4770 H   0  0  0  0  0  0  0  0  0  0  0  0
   -4.0189   -0.5824    0.1355 H   0  0  0  0  0  0  0  0  0  0  0  0
   -4.0522    1.0004    0.7809 H   0  0  0  0  0  0  0  0  0  0  0  0
   -1.2655   -0.9819    1.5616 H   0  0  0  0  0  0  0  0  0  0  0  0
   -1.1922   -2.6335   -0.3042 H   0  0  0  0  0  0  0  0  0  0  0  0
    0.2777    1.1393    1.0614 H   0  0  0  0  0  0  0  0  0  0  0  0
    3.0572   -0.2627    1.3130 H   0  0  0  0  0  0  0  0  0  0  0  0
    2.6515   -1.1360   -0.1823 H   0  0  0  0  0  0  0  0  0  0  0  0
    5.1038    2.1314   -1.0549 H   0  0  0  0  0  0  0  0  0  0  0  0
  1  2  1  0
  2  3  1  0
  2  4  1  0
  4  5  1  0
  4  6  1  0
  6  7  2  0
  6  8  1  0
  8  9  1  0
  9 10  1  0
 10 11  1  0
 11 12  2  0
 11 13  1  0
  1 14  1  0
  1 15  1  0
  1 16  1  0
  2 17  1  1
  3 18  1  0
  3 19  1  0
  4 20  1  1
  5 21  1  0
  8 22  1  0
 10 23  1  0
 10 24  1  0
 13 25  1  0
M  END
$$$$

     RDKit          3D

 25 24  0  0  0  0  0  0  0  0999 V2000
   -3.0642   -0.9748    0.4174 C   0  0  0  0  0  0  0  0  0  0  0  0
   -2.7936    0.2676   -0.3881 C   0  0  1  0  0  0  0  0  0  0  0  0
   -3.0410    1.4952    0.2954 N   0  0  0  0  0  0  0  0  0  0  0  0
   -1.4499    0.1595   -1.0456 C   0  0  1  0  0  0  0  0  0  0  0  0
   -1.2182    1.0580   -2.0664 O   0  0  0  0  0  0  0  0  0  0  0  0
   -0.3753    0.3949   -0.0236 C   0  0  0  0  0  0  0  0  0  0  0  0
   -0.6042    0.8512    1.1225 O   0  0  0  0  0  0  0  0  0  0  0  0
    0.9595    0.0801   -0.3786 N   0  0  0  0  0  0  0  0  0  0  0  0
    1.9739    0.2874    0.5200 O   0  0  0  0  0  0  0  0  0  0  0  0
    3.1513   -0.2916    0.1452 C   0  0  0  0  0  0  0  0  0  0  0  0
    4.2504   -0.0650    1.1227 C   0  0  0  0  0  0  0  0  0  0  0  0
    4.0734    0.5601    2.1809 O   0  0  0  0  0  0  0  0  0  0  0  0
    5.5264   -0.5565    0.8931 O   0  0  0  0  0  0  0  0  0  0  0  0
   -2.4087   -1.0661    1.2943 H   0  0  0  0  0  0  0  0  0  0  0  0
   -4.1413   -1.0894    0.6517 H   0  0  0  0  0  0  0  0  0  0  0  0
   -2.8064   -1.8426   -0.2871 H   0  0  0  0  0  0  0  0  0  0  0  0
   -3.5413    0.1953   -1.2537 H   0  0  0  0  0  0  0  0  0  0  0  0
   -3.9828    1.8760    0.0528 H   0  0  0  0  0  0  0  0  0  0  0  0
   -2.8852    1.4095    1.3350 H   0  0  0  0  0  0  0  0  0  0  0  0
   -1.3337   -0.8732   -1.4188 H   0  0  0  0  0  0  0  0  0  0  0  0
   -0.2696    1.1399   -2.2130 H   0  0  0  0  0  0  0  0  0  0  0  0
    1.1733   -0.3180   -1.3114 H   0  0  0  0  0  0  0  0  0  0  0  0
    3.0165   -1.3985    0.0073 H   0  0  0  0  0  0  0  0  0  0  0  0
    3.4543    0.0675   -0.8763 H   0  0  0  0  0  0  0  0  0  0  0  0
    6.3363   -0.0187    1.2243 H   0  0  0  0  0  0  0  0  0  0  0  0
  1  2  1  0
  2  3  1  0
  2  4  1  0
  4  5  1  0
  4  6  1  0
  6  7  2  0
  6  8  1  0
  8  9  1  0
  9 10  1  0
 10 11  1  0
 11 12  2  0
 11 13  1  0
  1 14  1  0
  1 15  1  0
  1 16  1  0
  2 17  1  6
  3 18  1  0
  3 19  1  0
  4 20  1  6
  5 21  1  0
  8 22  1  0
 10 23  1  0
 10 24  1  0
 13 25  1  0
M  END
$$$$

     RDKit          3D

 25 24  0  0  0  0  0  0  0  0999 V2000
   -2.7397   -1.3214   -0.2598 C   0  0  0  0  0  0  0  0  0  0  0  0
   -2.2244    0.0886   -0.6008 C   0  0  1  0  0  0  0  0  0  0  0  0
   -3.3991    0.9871   -0.4962 N   0  0  0  0  0  0  0  0  0  0  0  0
   -1.3137    0.4974    0.5163 C   0  0  1  0  0  0  0  0  0  0  0  0
   -1.9649    0.2984    1.7234 O   0  0  0  0  0  0  0  0  0  0  0  0
    0.0131   -0.1097    0.5092 C   0  0  0  0  0  0  0  0  0  0  0  0
    0.4949   -0.7498    1.5094 O   0  0  0  0  0  0  0  0  0  0  0  0
    0.8082    0.0192   -0.6696 N   0  0  0  0  0  0  0  0  0  0  0  0
    2.0506   -0.4563   -0.8284 O   0  0  0  0  0  0  0  0  0  0  0  0
    2.9037    0.3499   -0.0600 C   0  0  0  0  0  0  0  0  0  0  0  0
    4.3180   -0.0967   -0.2195 C   0  0  0  0  0  0  0  0  0  0  0  0
    4.5402   -1.0818   -0.9905 O   0  0  0  0  0  0  0  0  0  0  0  0
    5.3477    0.5429    0.4518 O   0  0  0  0  0  0  0  0  0  0  0  0
   -3.4360   -1.1617    0.6176 H   0  0  0  0  0  0  0  0  0  0  0  0
   -1.9215   -1.9964    0.0255 H   0  0  0  0  0  0  0  0  0  0  0  0
   -3.3691   -1.6983   -1.1023 H   0  0  0  0  0  0  0  0  0  0  0  0
   -1.8347    0.1751   -1.6086 H   0  0  0  0  0  0  0  0  0  0  0  0
   -4.1857    0.4979    0.0053 H   0  0  0  0  0  0  0  0  0  0  0  0
   -3.1314    1.8841   -0.0512 H   0  0  0  0  0  0  0  0  0  0  0  0
   -1.2228    1.6283    0.4127 H   0  0  0  0  0  0  0  0  0  0  0  0
   -1.7615   -0.5972    2.0969 H   0  0  0  0  0  0  0  0  0  0  0  0
    0.3778    0.5340   -1.5054 H   0  0  0  0  0  0  0  0  0  0  0  0
    2.8097    1.4071   -0.3363 H   0  0  0  0  0  0  0  0  0  0  0  0
    2.5625    0.2156    0.9999 H   0  0  0  0  0  0  0  0  0  0  0  0
    6.2781    0.1436    0.3761 H   0  0  0  0  0  0  0  0  0  0  0  0
  1  2  1  0
  2  3  1  0
  2  4  1  0
  4  5  1  0
  4  6  1  0
  6  7  2  0
  6  8  1  0
  8  9  1  0
  9 10  1  0
 10 11  1  0
 11 12  2  0
 11 13  1  0
  1 14  1  0
  1 15  1  0
  1 16  1  0
  2 17  1  6
  3 18  1  0
  3 19  1  0
  4 20  1  6
  5 21  1  0
  8 22  1  0
 10 23  1  0
 10 24  1  0
 13 25  1  0
M  END
$$$$
