
     RDKit          3D

 23 24  0  0  0  0  0  0  0  0999 V2000
   -2.2685    2.3684   -0.8065 O   0  0  0  0  0  0  0  0  0  0  0  0
   -2.5449    1.0364   -0.5116 C   0  0  0  0  0  0  0  0  0  0  0  0
   -1.3133    0.2016   -0.8038 C   0  0  1  0  0  0  0  0  0  0  0  0
   -0.1911    0.7167    0.0670 C   0  0  0  0  0  0  0  0  0  0  0  0
    0.6816   -0.4354    0.1594 N   0  0  0  0  0  0  0  0  0  0  0  0
    2.0962   -0.3855    0.0394 C   0  0  0  0  0  0  0  0  0  0  0  0
    2.9430   -1.4472    0.1213 N   0  0  0  0  0  0  0  0  0  0  0  0
    4.1826   -0.9983   -0.0408 N   0  0  0  0  0  0  0  0  0  0  0  0
    4.1589    0.3141   -0.2237 N   0  0  0  0  0  0  0  0  0  0  0  0
    2.8889    0.6699   -0.1724 N   0  0  0  0  0  0  0  0  0  0  0  0
   -0.1806   -1.5721    0.3881 C   0  0  0  0  0  0  0  0  0  0  0  0
   -1.4621   -1.2134   -0.3378 C   0  0  2  0  0  0  0  0  0  0  0  0
   -1.7002   -2.0917   -1.3701 F   0  0  0  0  0  0  0  0  0  0  0  0
   -2.3934    2.9606   -0.0182 H   0  0  0  0  0  0  0  0  0  0  0  0
   -2.8268    0.9339    0.5516 H   0  0  0  0  0  0  0  0  0  0  0  0
   -3.3567    0.6415   -1.1443 H   0  0  0  0  0  0  0  0  0  0  0  0
   -1.0389    0.2647   -1.8602 H   0  0  0  0  0  0  0  0  0  0  0  0
    0.3321    1.5715   -0.3622 H   0  0  0  0  0  0  0  0  0  0  0  0
   -0.5790    0.9224    1.0833 H   0  0  0  0  0  0  0  0  0  0  0  0
    4.9752    0.9464   -0.3779 H   0  0  0  0  0  0  0  0  0  0  0  0
    0.2569   -2.5165   -0.0238 H   0  0  0  0  0  0  0  0  0  0  0  0
   -0.3475   -1.6342    1.4850 H   0  0  0  0  0  0  0  0  0  0  0  0
   -2.3125   -1.2537    0.3787 H   0  0  0  0  0  0  0  0  0  0  0  0
  1  2  1  0
  2  3  1  0
  3  4  1  0
  4  5  1  0
  5  6  1  0
  6  7  1  0
  7  8  2  0
  8  9  1  0
  9 10  1  0
  5 11  1  0
 11 12  1  0
 12 13  1  0
 12  3  1  0
 10  6  2  0
  1 14  1  0
  2 15  1  0
  2 16  1  0
  3 17  1  6
  4 18  1  0
  4 19  1  0
  9 20  1  0
 11 21  1  0
 11 22  1  0
 12 23  1  1
M  END
$$$$

     RDKit          3D

 23 24  0  0  0  0  0  0  0  0999 V2000
   -3.0826   -0.9821    1.6123 O   0  0  0  0  0  0  0  0  0  0  0  0
   -2.8156   -0.4185    0.3669 C   0  0  0  0  0  0  0  0  0  0  0  0
   -1.5438    0.4220    0.3975 C   0  0  1  0  0  0  0  0  0  0  0  0
   -0.3636   -0.4086    0.7829 C   0  0  0  0  0  0  0  0  0  0  0  0
    0.7527    0.0935    0.0201 N   0  0  0  0  0  0  0  0  0  0  0  0
    2.1195   -0.1163    0.3286 C   0  0  0  0  0  0  0  0  0  0  0  0
    2.6590   -0.8033    1.3602 N   0  0  0  0  0  0  0  0  0  0  0  0
    3.9790   -0.7565    1.2824 N   0  0  0  0  0  0  0  0  0  0  0  0
    4.3134   -0.0580    0.2287 N   0  0  0  0  0  0  0  0  0  0  0  0
    3.2028    0.3370   -0.3601 N   0  0  0  0  0  0  0  0  0  0  0  0
    0.2637    0.8472   -1.1125 C   0  0  0  0  0  0  0  0  0  0  0  0
   -1.2414    0.8259   -1.0165 C   0  0  2  0  0  0  0  0  0  0  0  0
   -1.6911    2.0967   -1.2935 F   0  0  0  0  0  0  0  0  0  0  0  0
   -2.6902   -1.8950    1.6246 H   0  0  0  0  0  0  0  0  0  0  0  0
   -3.6533    0.2515    0.0690 H   0  0  0  0  0  0  0  0  0  0  0  0
   -2.7227   -1.2284   -0.3685 H   0  0  0  0  0  0  0  0  0  0  0  0
   -1.6591    1.2659    1.0826 H   0  0  0  0  0  0  0  0  0  0  0  0
   -0.1530   -0.3688    1.8887 H   0  0  0  0  0  0  0  0  0  0  0  0
   -0.5055   -1.4866    0.4904 H   0  0  0  0  0  0  0  0  0  0  0  0
    5.3131    0.1232   -0.0498 H   0  0  0  0  0  0  0  0  0  0  0  0
    0.6830    1.8616   -1.1785 H   0  0  0  0  0  0  0  0  0  0  0  0
    0.5423    0.2854   -2.0340 H   0  0  0  0  0  0  0  0  0  0  0  0
   -1.7065    0.1122   -1.7317 H   0  0  0  0  0  0  0  0  0  0  0  0
  1  2  1  0
  2  3  1  0
  3  4  1  0
  4  5  1  0
  5  6  1  0
  6  7  1  0
  7  8  2  0
  8  9  1  0
  9 10  1  0
  5 11  1  0
 11 12  1  0
 12 13  1  0
 12  3  1  0
 10  6  2  0
  1 14  1  0
  2 15  1  0
  2 16  1  0
  3 17  1  1
  4 18  1  0
  4 19  1  0
  9 20  1  0
 11 21  1  0
 11 22  1  0
 12 23  1  6
M  END
$$$$

     RDKit          3D

 23 24  0  0  0  0  0  0  0  0999 V2000
   -3.2305    1.0445    0.0007 O   0  0  0  0  0  0  0  0  0  0  0  0
   -2.7707   -0.2472    0.3361 C   0  0  0  0  0  0  0  0  0  0  0  0
   -1.4473   -0.4242   -0.3551 C   0  0  1  0  0  0  0  0  0  0  0  0
   -0.5135    0.6589    0.1606 C   0  0  0  0  0  0  0  0  0  0  0  0
    0.7929    0.0841   -0.0380 N   0  0  0  0  0  0  0  0  0  0  0  0
    2.0032    0.8236   -0.0500 C   0  0  0  0  0  0  0  0  0  0  0  0
    2.1639    2.1513    0.1145 N   0  0  0  0  0  0  0  0  0  0  0  0
    3.4615    2.4626    0.0365 N   0  0  0  0  0  0  0  0  0  0  0  0
    4.1348    1.3330   -0.1783 N   0  0  0  0  0  0  0  0  0  0  0  0
    3.2553    0.3480   -0.2300 N   0  0  0  0  0  0  0  0  0  0  0  0
    0.7035   -1.3512   -0.2236 C   0  0  0  0  0  0  0  0  0  0  0  0
   -0.7328   -1.6820    0.0839 C   0  0  2  0  0  0  0  0  0  0  0  0
   -1.1674   -2.7943   -0.5723 F   0  0  0  0  0  0  0  0  0  0  0  0
   -4.1692    0.9798   -0.2711 H   0  0  0  0  0  0  0  0  0  0  0  0
   -3.4819   -1.0160   -0.0179 H   0  0  0  0  0  0  0  0  0  0  0  0
   -2.6632   -0.3431    1.4350 H   0  0  0  0  0  0  0  0  0  0  0  0
   -1.5942   -0.3790   -1.4340 H   0  0  0  0  0  0  0  0  0  0  0  0
   -0.6598    1.6065   -0.3703 H   0  0  0  0  0  0  0  0  0  0  0  0
   -0.6609    0.7562    1.2613 H   0  0  0  0  0  0  0  0  0  0  0  0
    5.1646    1.2787   -0.2809 H   0  0  0  0  0  0  0  0  0  0  0  0
    0.8727   -1.5636   -1.3096 H   0  0  0  0  0  0  0  0  0  0  0  0
    1.3782   -1.9203    0.4132 H   0  0  0  0  0  0  0  0  0  0  0  0
   -0.8393   -1.8064    1.1794 H   0  0  0  0  0  0  0  0  0  0  0  0
  1  2  1  0
  2  3  1  0
  3  4  1  0
  4  5  1  0
  5  6  1  0
  6  7  1  0
  7  8  2  0
  8  9  1  0
  9 10  1  0
  5 11  1  0
 11 12  1  0
 12 13  1  0
 12  3  1  0
 10  6  2  0
  1 14  1  0
  2 15  1  0
  2 16  1  0
  3 17  1  6
  4 18  1  0
  4 19  1  0
  9 20  1  0
 11 21  1  0
 11 22  1  0
 12 23  1  1
M  END
$$$$

     RDKit          3D

 23 24  0  0  0  0  0  0  0  0999 V2000
   -2.2190    1.8077   -0.6610 O   0  0  0  0  0  0  0  0  0  0  0  0
   -2.4679    0.5622   -1.2107 C   0  0  0  0  0  0  0  0  0  0  0  0
   -1.4898   -0.4284   -0.6251 C   0  0  1  0  0  0  0  0  0  0  0  0
   -0.0526    0.0007   -0.9496 C   0  0  0  0  0  0  0  0  0  0  0  0
    0.7210   -0.3818    0.2110 N   0  0  0  0  0  0  0  0  0  0  0  0
    2.0934   -0.1186    0.3955 C   0  0  0  0  0  0  0  0  0  0  0  0
    2.8221   -0.4586    1.4482 N   0  0  0  0  0  0  0  0  0  0  0  0
    4.0652   -0.0328    1.2425 N   0  0  0  0  0  0  0  0  0  0  0  0
    4.1358    0.5756    0.0684 N   0  0  0  0  0  0  0  0  0  0  0  0
    2.9207    0.5209   -0.4498 N   0  0  0  0  0  0  0  0  0  0  0  0
   -0.1322   -1.0732    1.1470 C   0  0  0  0  0  0  0  0  0  0  0  0
   -1.4593   -0.3657    0.8894 C   0  0  2  0  0  0  0  0  0  0  0  0
   -2.5087   -1.0335    1.4540 F   0  0  0  0  0  0  0  0  0  0  0  0
   -2.7364    1.8957    0.1573 H   0  0  0  0  0  0  0  0  0  0  0  0
   -2.2631    0.6480   -2.3017 H   0  0  0  0  0  0  0  0  0  0  0  0
   -3.4936    0.2111   -1.1047 H   0  0  0  0  0  0  0  0  0  0  0  0
   -1.6316   -1.4489   -0.9676 H   0  0  0  0  0  0  0  0  0  0  0  0
    0.3053   -0.5452   -1.8422 H   0  0  0  0  0  0  0  0  0  0  0  0
   -0.0769    1.0780   -1.1314 H   0  0  0  0  0  0  0  0  0  0  0  0
    4.9517    1.0241   -0.4027 H   0  0  0  0  0  0  0  0  0  0  0  0
    0.1948   -0.9959    2.1872 H   0  0  0  0  0  0  0  0  0  0  0  0
   -0.2860   -2.1342    0.8131 H   0  0  0  0  0  0  0  0  0  0  0  0
   -1.3931    0.6929    1.2261 H   0  0  0  0  0  0  0  0  0  0  0  0
  1  2  1  0
  2  3  1  0
  3  4  1  0
  4  5  1  0
  5  6  1  0
  6  7  1  0
  7  8  2  0
  8  9  1  0
  9 10  1  0
  5 11  1  0
 11 12  1  0
 12 13  1  0
 12  3  1  0
 10  6  2  0
  1 14  1  0
  2 15  1  0
  2 16  1  0
  3 17  1  1
  4 18  1  0
  4 19  1  0
  9 20  1  0
 11 21  1  0
 11 22  1  0
 12 23  1  6
M  END
$$$$

     RDKit          3D

 23 24  0  0  0  0  0  0  0  0999 V2000
   -3.6413    0.6484    0.7924 O   0  0  0  0  0  0  0  0  0  0  0  0
   -2.6393   -0.3034    0.6742 C   0  0  0  0  0  0  0  0  0  0  0  0
   -1.2691    0.3268    0.8443 C   0  0  1  0  0  0  0  0  0  0  0  0
   -0.2356   -0.7830    0.7004 C   0  0  0  0  0  0  0  0  0  0  0  0
    0.7096   -0.2276   -0.2454 N   0  0  0  0  0  0  0  0  0  0  0  0
    2.1202   -0.3766   -0.2255 C   0  0  0  0  0  0  0  0  0  0  0  0
    2.9685    0.1520   -1.1183 N   0  0  0  0  0  0  0  0  0  0  0  0
    4.2048   -0.1694   -0.8215 N   0  0  0  0  0  0  0  0  0  0  0  0
    4.1534   -0.9182    0.2817 N   0  0  0  0  0  0  0  0  0  0  0  0
    2.8897   -1.0472    0.6479 N   0  0  0  0  0  0  0  0  0  0  0  0
   -0.1143    0.4961   -1.1894 C   0  0  0  0  0  0  0  0  0  0  0  0
   -0.9665    1.3228   -0.2574 C   0  0  2  0  0  0  0  0  0  0  0  0
   -0.1911    2.3432    0.2576 F   0  0  0  0  0  0  0  0  0  0  0  0
   -3.7214    1.1264   -0.0600 H   0  0  0  0  0  0  0  0  0  0  0  0
   -2.6473   -0.8105   -0.3192 H   0  0  0  0  0  0  0  0  0  0  0  0
   -2.7161   -1.0847    1.4664 H   0  0  0  0  0  0  0  0  0  0  0  0
   -1.2094    0.8088    1.8495 H   0  0  0  0  0  0  0  0  0  0  0  0
    0.2166   -1.0676    1.6565 H   0  0  0  0  0  0  0  0  0  0  0  0
   -0.7031   -1.6665    0.1741 H   0  0  0  0  0  0  0  0  0  0  0  0
    4.9736   -1.3244    0.7610 H   0  0  0  0  0  0  0  0  0  0  0  0
    0.4696    1.0972   -1.9003 H   0  0  0  0  0  0  0  0  0  0  0  0
   -0.7724   -0.2491   -1.6800 H   0  0  0  0  0  0  0  0  0  0  0  0
   -1.8792    1.7064   -0.7389 H   0  0  0  0  0  0  0  0  0  0  0  0
  1  2  1  0
  2  3  1  0
  3  4  1  0
  4  5  1  0
  5  6  1  0
  6  7  1  0
  7  8  2  0
  8  9  1  0
  9 10  1  0
  5 11  1  0
 11 12  1  0
 12 13  1  0
 12  3  1  0
 10  6  2  0
  1 14  1  0
  2 15  1  0
  2 16  1  0
  3 17  1  1
  4 18  1  0
  4 19  1  0
  9 20  1  0
 11 21  1  0
 11 22  1  0
 12 23  1  6
M  END
$$$$

     RDKit          3D

 23 24  0  0  0  0  0  0  0  0999 V2000
   -3.7292    0.2786   -0.5702 O   0  0  0  0  0  0  0  0  0  0  0  0
   -2.5867    1.0490   -0.3802 C   0  0  0  0  0  0  0  0  0  0  0  0
   -1.3729    0.1747   -0.6943 C   0  0  1  0  0  0  0  0  0  0  0  0
   -0.0925    0.9251   -0.5158 C   0  0  0  0  0  0  0  0  0  0  0  0
    0.7874   -0.0284    0.0969 N   0  0  0  0  0  0  0  0  0  0  0  0
    2.1850   -0.1731   -0.1435 C   0  0  0  0  0  0  0  0  0  0  0  0
    2.9849   -1.0752    0.4449 N   0  0  0  0  0  0  0  0  0  0  0  0
    4.2231   -0.9209   -0.0183 N   0  0  0  0  0  0  0  0  0  0  0  0
    4.2058    0.0689   -0.8910 N   0  0  0  0  0  0  0  0  0  0  0  0
    2.9544    0.5431   -0.9812 N   0  0  0  0  0  0  0  0  0  0  0  0
   -0.0161   -0.8102    1.0014 C   0  0  0  0  0  0  0  0  0  0  0  0
   -1.3177   -0.9828    0.2554 C   0  0  2  0  0  0  0  0  0  0  0  0
   -1.3640   -2.1896   -0.4249 F   0  0  0  0  0  0  0  0  0  0  0  0
   -3.5445   -0.5431   -1.0700 H   0  0  0  0  0  0  0  0  0  0  0  0
   -2.5717    1.9300   -1.0424 H   0  0  0  0  0  0  0  0  0  0  0  0
   -2.5500    1.3566    0.6881 H   0  0  0  0  0  0  0  0  0  0  0  0
   -1.4672   -0.1371   -1.7587 H   0  0  0  0  0  0  0  0  0  0  0  0
    0.3115    1.3335   -1.4685 H   0  0  0  0  0  0  0  0  0  0  0  0
   -0.2655    1.7450    0.2221 H   0  0  0  0  0  0  0  0  0  0  0  0
    5.0262    0.4202   -1.4187 H   0  0  0  0  0  0  0  0  0  0  0  0
    0.4962   -1.7815    1.1810 H   0  0  0  0  0  0  0  0  0  0  0  0
   -0.1329   -0.2433    1.9384 H   0  0  0  0  0  0  0  0  0  0  0  0
   -2.1634   -0.9395    0.9937 H   0  0  0  0  0  0  0  0  0  0  0  0
  1  2  1  0
  2  3  1  0
  3  4  1  0
  4  5  1  0
  5  6  1  0
  6  7  1  0
  7  8  2  0
  8  9  1  0
  9 10  1  0
  5 11  1  0
 11 12  1  0
 12 13  1  0
 12  3  1  0
 10  6  2  0
  1 14  1  0
  2 15  1  0
  2 16  1  0
  3 17  1  6
  4 18  1  0
  4 19  1  0
  9 20  1  0
 11 21  1  0
 11 22  1  0
 12 23  1  1
M  END
$$$$

     RDKit          3D

 23 24  0  0  0  0  0  0  0  0999 V2000
   -3.8013    0.3973    0.0355 O   0  0  0  0  0  0  0  0  0  0  0  0
   -2.8039   -0.5152   -0.2855 C   0  0  0  0  0  0  0  0  0  0  0  0
   -1.5282   -0.0425    0.3383 C   0  0  1  0  0  0  0  0  0  0  0  0
   -0.3560   -0.9536    0.0627 C   0  0  0  0  0  0  0  0  0  0  0  0
    0.7966   -0.0620    0.1839 N   0  0  0  0  0  0  0  0  0  0  0  0
    2.1579   -0.4832    0.1166 C   0  0  0  0  0  0  0  0  0  0  0  0
    2.6294   -1.7213   -0.0626 N   0  0  0  0  0  0  0  0  0  0  0  0
    3.9683   -1.6799   -0.0637 N   0  0  0  0  0  0  0  0  0  0  0  0
    4.3443   -0.4292    0.1128 N   0  0  0  0  0  0  0  0  0  0  0  0
    3.2400    0.3056    0.2235 N   0  0  0  0  0  0  0  0  0  0  0  0
    0.3477    1.3027    0.3810 C   0  0  0  0  0  0  0  0  0  0  0  0
   -1.0251    1.2548   -0.2600 C   0  0  2  0  0  0  0  0  0  0  0  0
   -1.7958    2.3309    0.0517 F   0  0  0  0  0  0  0  0  0  0  0  0
   -3.5591    0.9866    0.7928 H   0  0  0  0  0  0  0  0  0  0  0  0
   -2.7247   -0.6915   -1.3655 H   0  0  0  0  0  0  0  0  0  0  0  0
   -3.0772   -1.4715    0.2043 H   0  0  0  0  0  0  0  0  0  0  0  0
   -1.6792    0.1072    1.4149 H   0  0  0  0  0  0  0  0  0  0  0  0
   -0.2964   -1.8177    0.7223 H   0  0  0  0  0  0  0  0  0  0  0  0
   -0.4567   -1.3006   -1.0034 H   0  0  0  0  0  0  0  0  0  0  0  0
    5.3347   -0.1078    0.1535 H   0  0  0  0  0  0  0  0  0  0  0  0
    0.1888    1.4520    1.4659 H   0  0  0  0  0  0  0  0  0  0  0  0
    1.0048    2.0491   -0.0707 H   0  0  0  0  0  0  0  0  0  0  0  0
   -0.9089    1.0898   -1.3574 H   0  0  0  0  0  0  0  0  0  0  0  0
  1  2  1  0
  2  3  1  0
  3  4  1  0
  4  5  1  0
  5  6  1  0
  6  7  1  0
  7  8  2  0
  8  9  1  0
  9 10  1  0
  5 11  1  0
 11 12  1  0
 12 13  1  0
 12  3  1  0
 10  6  2  0
  1 14  1  0
  2 15  1  0
  2 16  1  0
  3 17  1  1
  4 18  1  0
  4 19  1  0
  9 20  1  0
 11 21  1  0
 11 22  1  0
 12 23  1  6
M  END
$$$$

     RDKit          3D

 23 24  0  0  0  0  0  0  0  0999 V2000
   -2.6576   -1.7335   -0.0460 O   0  0  0  0  0  0  0  0  0  0  0  0
   -2.2545   -0.6652   -0.8193 C   0  0  0  0  0  0  0  0  0  0  0  0
   -1.6737    0.4047    0.0906 C   0  0  1  0  0  0  0  0  0  0  0  0
   -0.4974   -0.1177    0.8523 C   0  0  0  0  0  0  0  0  0  0  0  0
    0.6634    0.2074    0.0609 N   0  0  0  0  0  0  0  0  0  0  0  0
    1.9164   -0.4418    0.1336 C   0  0  0  0  0  0  0  0  0  0  0  0
    2.2643   -1.4710    0.9403 N   0  0  0  0  0  0  0  0  0  0  0  0
    3.5380   -1.7733    0.6828 N   0  0  0  0  0  0  0  0  0  0  0  0
    4.0104   -0.9801   -0.2513 N   0  0  0  0  0  0  0  0  0  0  0  0
    3.0198   -0.1732   -0.5808 N   0  0  0  0  0  0  0  0  0  0  0  0
    0.3348    1.2996   -0.8128 C   0  0  0  0  0  0  0  0  0  0  0  0
   -1.1288    1.5742   -0.6676 C   0  0  2  0  0  0  0  0  0  0  0  0
   -1.3015    2.7022    0.1371 F   0  0  0  0  0  0  0  0  0  0  0  0
   -3.0968   -1.4128    0.7801 H   0  0  0  0  0  0  0  0  0  0  0  0
   -3.1729   -0.2443   -1.3046 H   0  0  0  0  0  0  0  0  0  0  0  0
   -1.4958   -0.9882   -1.5432 H   0  0  0  0  0  0  0  0  0  0  0  0
   -2.4347    0.7469    0.8152 H   0  0  0  0  0  0  0  0  0  0  0  0
   -0.4596    0.3992    1.8544 H   0  0  0  0  0  0  0  0  0  0  0  0
   -0.5401   -1.2217    1.0106 H   0  0  0  0  0  0  0  0  0  0  0  0
    4.9856   -1.0334   -0.6135 H   0  0  0  0  0  0  0  0  0  0  0  0
    0.9829    2.1571   -0.5334 H   0  0  0  0  0  0  0  0  0  0  0  0
    0.5815    1.0487   -1.8593 H   0  0  0  0  0  0  0  0  0  0  0  0
   -1.5839    1.7161   -1.6646 H   0  0  0  0  0  0  0  0  0  0  0  0
  1  2  1  0
  2  3  1  0
  3  4  1  0
  4  5  1  0
  5  6  1  0
  6  7  1  0
  7  8  2  0
  8  9  1  0
  9 10  1  0
  5 11  1  0
 11 12  1  0
 12 13  1  0
 12  3  1  0
 10  6  2  0
  1 14  1  0
  2 15  1  0
  2 16  1  0
  3 17  1  1
  4 18  1  0
  4 19  1  0
  9 20  1  0
 11 21  1  0
 11 22  1  0
 12 23  1  6
M  END
$$$$
