
     RDKit          3D

 31 32  0  0  0  0  0  0  0  0999 V2000
   -2.8626   -0.8438    1.3749 O   0  0  0  0  0  0  0  0  0  0  0  0
   -2.4507   -1.2700    0.1207 C   0  0  1  0  0  0  0  0  0  0  0  0
   -2.7829   -0.2312   -0.9152 C   0  0  0  0  0  0  0  0  0  0  0  0
   -2.1238    1.0600   -0.5311 C   0  0  2  0  0  0  0  0  0  0  0  0
   -2.3617    1.9958   -1.5430 O   0  0  0  0  0  0  0  0  0  0  0  0
   -0.6288    0.8939   -0.3623 C   0  0  0  0  0  0  0  0  0  0  0  0
   -0.2433   -0.2388    0.3555 N   0  0  0  0  0  0  0  0  0  0  0  0
    0.9824   -0.2761    1.0347 C   0  0  0  0  0  0  0  0  0  0  0  0
    2.1212   -0.2929    0.0411 C   0  0  0  0  0  0  0  0  0  0  0  0
    3.4671   -0.3403    0.7685 C   0  0  0  0  0  0  0  0  0  0  0  0
    3.9097    0.8511    0.1081 N   0  0  0  0  0  0  0  0  0  0  0  0
    2.5861    1.0382   -0.4631 C   0  0  0  0  0  0  0  0  0  0  0  0
   -0.9535   -1.4398    0.1780 C   0  0  0  0  0  0  0  0  0  0  0  0
   -3.4670   -1.5160    1.7792 H   0  0  0  0  0  0  0  0  0  0  0  0
   -2.9245   -2.2417   -0.1146 H   0  0  0  0  0  0  0  0  0  0  0  0
   -3.8870   -0.0796   -0.8976 H   0  0  0  0  0  0  0  0  0  0  0  0
   -2.4209   -0.5241   -1.9123 H   0  0  0  0  0  0  0  0  0  0  0  0
   -2.5141    1.4839    0.4221 H   0  0  0  0  0  0  0  0  0  0  0  0
   -2.6204    2.8732   -1.2052 H   0  0  0  0  0  0  0  0  0  0  0  0
   -0.2864    1.8353    0.1471 H   0  0  0  0  0  0  0  0  0  0  0  0
   -0.1957    0.8552   -1.4012 H   0  0  0  0  0  0  0  0  0  0  0  0
    1.1220    0.5985    1.7189 H   0  0  0  0  0  0  0  0  0  0  0  0
    1.0587   -1.1907    1.6707 H   0  0  0  0  0  0  0  0  0  0  0  0
    1.9912   -1.0838   -0.7297 H   0  0  0  0  0  0  0  0  0  0  0  0
    3.4193   -0.2729    1.8572 H   0  0  0  0  0  0  0  0  0  0  0  0
    4.0196   -1.2568    0.4465 H   0  0  0  0  0  0  0  0  0  0  0  0
    4.6464    0.6979   -0.5993 H   0  0  0  0  0  0  0  0  0  0  0  0
    2.6238    1.0606   -1.5775 H   0  0  0  0  0  0  0  0  0  0  0  0
    2.0878    1.9313   -0.0460 H   0  0  0  0  0  0  0  0  0  0  0  0
   -0.5752   -1.9472   -0.7542 H   0  0  0  0  0  0  0  0  0  0  0  0
   -0.7367   -2.1290    1.0290 H   0  0  0  0  0  0  0  0  0  0  0  0
  1  2  1  0
  2  3  1  0
  3  4  1  0
  4  5  1  0
  4  6  1  0
  6  7  1  0
  7  8  1  0
  8  9  1  0
  9 10  1  0
 10 11  1  0
 11 12  1  0
  7 13  1  0
 13  2  1  0
 12  9  1  0
  1 14  1  0
  2 15  1  6
  3 16  1  0
  3 17  1  0
  4 18  1  1
  5 19  1  0
  6 20  1  0
  6 21  1  0
  8 22  1  0
  8 23  1  0
  9 24  1  0
 10 25  1  0
 10 26  1  0
 11 27  1  0
 12 28  1  0
 12 29  1  0
 13 30  1  0
 13 31  1  0
M  END
$$$$

     RDKit          3D

 31 32  0  0  0  0  0  0  0  0999 V2000
   -2.7351    0.6613   -2.0141 O   0  0  0  0  0  0  0  0  0  0  0  0
   -2.3564    1.2654   -0.8331 C   0  0  1  0  0  0  0  0  0  0  0  0
   -2.9507    0.5274    0.3751 C   0  0  0  0  0  0  0  0  0  0  0  0
   -2.4306   -0.8829    0.2544 C   0  0  2  0  0  0  0  0  0  0  0  0
   -2.9280   -1.5761    1.3642 O   0  0  0  0  0  0  0  0  0  0  0  0
   -0.9501   -0.9498    0.2781 C   0  0  0  0  0  0  0  0  0  0  0  0
   -0.2304    0.0618   -0.4007 N   0  0  0  0  0  0  0  0  0  0  0  0
    1.0008    0.3892    0.2904 C   0  0  0  0  0  0  0  0  0  0  0  0
    2.0216   -0.6911    0.2628 C   0  0  0  0  0  0  0  0  0  0  0  0
    3.2697   -0.2641    1.0144 C   0  0  0  0  0  0  0  0  0  0  0  0
    3.5184    0.6476   -0.0942 N   0  0  0  0  0  0  0  0  0  0  0  0
    2.9562   -0.4272   -0.9328 C   0  0  0  0  0  0  0  0  0  0  0  0
   -0.8920    1.3195   -0.6104 C   0  0  0  0  0  0  0  0  0  0  0  0
   -2.2312   -0.1691   -2.2118 H   0  0  0  0  0  0  0  0  0  0  0  0
   -2.7429    2.3004   -0.8074 H   0  0  0  0  0  0  0  0  0  0  0  0
   -2.4466    0.9950    1.2584 H   0  0  0  0  0  0  0  0  0  0  0  0
   -4.0352    0.5924    0.4238 H   0  0  0  0  0  0  0  0  0  0  0  0
   -2.8331   -1.3616   -0.6744 H   0  0  0  0  0  0  0  0  0  0  0  0
   -2.2629   -2.2624    1.6649 H   0  0  0  0  0  0  0  0  0  0  0  0
   -0.5975   -1.0508    1.3318 H   0  0  0  0  0  0  0  0  0  0  0  0
   -0.6775   -1.9426   -0.2056 H   0  0  0  0  0  0  0  0  0  0  0  0
    0.6865    0.6670    1.3381 H   0  0  0  0  0  0  0  0  0  0  0  0
    1.3863    1.3210   -0.1674 H   0  0  0  0  0  0  0  0  0  0  0  0
    1.6968   -1.7214    0.3717 H   0  0  0  0  0  0  0  0  0  0  0  0
    3.1013    0.2092    2.0003 H   0  0  0  0  0  0  0  0  0  0  0  0
    4.0838   -1.0450    0.9964 H   0  0  0  0  0  0  0  0  0  0  0  0
    4.4855    0.9052   -0.2876 H   0  0  0  0  0  0  0  0  0  0  0  0
    2.4451   -0.0733   -1.8325 H   0  0  0  0  0  0  0  0  0  0  0  0
    3.7177   -1.2151   -1.0625 H   0  0  0  0  0  0  0  0  0  0  0  0
   -0.7338    1.9258    0.3317 H   0  0  0  0  0  0  0  0  0  0  0  0
   -0.3357    1.8444   -1.4218 H   0  0  0  0  0  0  0  0  0  0  0  0
  1  2  1  0
  2  3  1  0
  3  4  1  0
  4  5  1  0
  4  6  1  0
  6  7  1  0
  7  8  1  0
  8  9  1  0
  9 10  1  0
 10 11  1  0
 11 12  1  0
  7 13  1  0
 13  2  1  0
 12  9  1  0
  1 14  1  0
  2 15  1  6
  3 16  1  0
  3 17  1  0
  4 18  1  6
  5 19  1  0
  6 20  1  0
  6 21  1  0
  8 22  1  0
  8 23  1  0
  9 24  1  0
 10 25  1  0
 10 26  1  0
 11 27  1  0
 12 28  1  0
 12 29  1  0
 13 30  1  0
 13 31  1  0
M  END
$$$$

     RDKit          3D

 31 32  0  0  0  0  0  0  0  0999 V2000
   -2.9164    2.0905    1.6128 O   0  0  0  0  0  0  0  0  0  0  0  0
   -2.2180    0.9571    1.2242 C   0  0  1  0  0  0  0  0  0  0  0  0
   -3.0913    0.0203    0.4246 C   0  0  0  0  0  0  0  0  0  0  0  0
   -2.2566   -0.7714   -0.5614 C   0  0  2  0  0  0  0  0  0  0  0  0
   -2.8534   -1.9962   -0.8019 O   0  0  0  0  0  0  0  0  0  0  0  0
   -0.8635   -1.0330    0.0346 C   0  0  0  0  0  0  0  0  0  0  0  0
   -0.1899    0.2054    0.2348 N   0  0  0  0  0  0  0  0  0  0  0  0
    1.0066    0.3980   -0.5072 C   0  0  0  0  0  0  0  0  0  0  0  0
    2.1435   -0.3487    0.1036 C   0  0  0  0  0  0  0  0  0  0  0  0
    3.3020    0.5716    0.5285 C   0  0  0  0  0  0  0  0  0  0  0  0
    4.2062   -0.4690    0.0898 N   0  0  0  0  0  0  0  0  0  0  0  0
    3.1763   -0.9058   -0.8345 C   0  0  0  0  0  0  0  0  0  0  0  0
   -1.0106    1.3568    0.3959 C   0  0  0  0  0  0  0  0  0  0  0  0
   -2.9775    2.7029    0.8454 H   0  0  0  0  0  0  0  0  0  0  0  0
   -1.8225    0.4313    2.1223 H   0  0  0  0  0  0  0  0  0  0  0  0
   -3.8479    0.6033   -0.1454 H   0  0  0  0  0  0  0  0  0  0  0  0
   -3.6201   -0.6201    1.1427 H   0  0  0  0  0  0  0  0  0  0  0  0
   -2.1208   -0.1661   -1.4849 H   0  0  0  0  0  0  0  0  0  0  0  0
   -2.3261   -2.7451   -0.4829 H   0  0  0  0  0  0  0  0  0  0  0  0
   -0.9882   -1.6228    0.9504 H   0  0  0  0  0  0  0  0  0  0  0  0
   -0.3025   -1.5814   -0.7560 H   0  0  0  0  0  0  0  0  0  0  0  0
    1.2033    1.4263   -0.8147 H   0  0  0  0  0  0  0  0  0  0  0  0
    0.7958   -0.1455   -1.5097 H   0  0  0  0  0  0  0  0  0  0  0  0
    1.8927   -0.9702    0.9862 H   0  0  0  0  0  0  0  0  0  0  0  0
    3.3548    0.8019    1.5948 H   0  0  0  0  0  0  0  0  0  0  0  0
    3.4366    1.4627   -0.1220 H   0  0  0  0  0  0  0  0  0  0  0  0
    4.3885   -1.2006    0.8355 H   0  0  0  0  0  0  0  0  0  0  0  0
    3.0599   -2.0050   -0.9321 H   0  0  0  0  0  0  0  0  0  0  0  0
    3.1985   -0.3487   -1.7778 H   0  0  0  0  0  0  0  0  0  0  0  0
   -1.3151    1.8100   -0.5871 H   0  0  0  0  0  0  0  0  0  0  0  0
   -0.4441    2.0915    1.0283 H   0  0  0  0  0  0  0  0  0  0  0  0
  1  2  1  0
  2  3  1  0
  3  4  1  0
  4  5  1  0
  4  6  1  0
  6  7  1  0
  7  8  1  0
  8  9  1  0
  9 10  1  0
 10 11  1  0
 11 12  1  0
  7 13  1  0
 13  2  1  0
 12  9  1  0
  1 14  1  0
  2 15  1  1
  3 16  1  0
  3 17  1  0
  4 18  1  6
  5 19  1  0
  6 20  1  0
  6 21  1  0
  8 22  1  0
  8 23  1  0
  9 24  1  0
 10 25  1  0
 10 26  1  0
 11 27  1  0
 12 28  1  0
 12 29  1  0
 13 30  1  0
 13 31  1  0
M  END
$$$$

     RDKit          3D

 31 32  0  0  0  0  0  0  0  0999 V2000
   -2.3524   -1.9991    1.5677 O   0  0  0  0  0  0  0  0  0  0  0  0
   -2.0772   -1.2003    0.4329 C   0  0  1  0  0  0  0  0  0  0  0  0
   -2.9055    0.0114    0.5685 C   0  0  0  0  0  0  0  0  0  0  0  0
   -2.2635    1.2562    0.0554 C   0  0  2  0  0  0  0  0  0  0  0  0
   -3.1281    2.2189   -0.4100 O   0  0  0  0  0  0  0  0  0  0  0  0
   -1.2852    0.7666   -1.0352 C   0  0  0  0  0  0  0  0  0  0  0  0
   -0.2205    0.1649   -0.2646 N   0  0  0  0  0  0  0  0  0  0  0  0
    1.0621    0.5692   -0.5320 C   0  0  0  0  0  0  0  0  0  0  0  0
    2.1599    0.1752    0.3707 C   0  0  0  0  0  0  0  0  0  0  0  0
    3.4755    0.7652   -0.1079 C   0  0  0  0  0  0  0  0  0  0  0  0
    3.8248   -0.5329   -0.6319 N   0  0  0  0  0  0  0  0  0  0  0  0
    2.8486   -1.1147    0.2575 C   0  0  0  0  0  0  0  0  0  0  0  0
   -0.5748   -1.0054    0.4045 C   0  0  0  0  0  0  0  0  0  0  0  0
   -3.0193   -2.6853    1.3860 H   0  0  0  0  0  0  0  0  0  0  0  0
   -2.3950   -1.8507   -0.4262 H   0  0  0  0  0  0  0  0  0  0  0  0
   -3.3332    0.1451    1.5984 H   0  0  0  0  0  0  0  0  0  0  0  0
   -3.8267   -0.1525   -0.0700 H   0  0  0  0  0  0  0  0  0  0  0  0
   -1.6140    1.6685    0.8863 H   0  0  0  0  0  0  0  0  0  0  0  0
   -2.6707    3.0782   -0.5924 H   0  0  0  0  0  0  0  0  0  0  0  0
   -0.9171    1.5649   -1.6584 H   0  0  0  0  0  0  0  0  0  0  0  0
   -1.7695   -0.0219   -1.6182 H   0  0  0  0  0  0  0  0  0  0  0  0
    1.3294    0.3139   -1.6015 H   0  0  0  0  0  0  0  0  0  0  0  0
    1.0752    1.7043   -0.5691 H   0  0  0  0  0  0  0  0  0  0  0  0
    2.0103    0.5581    1.4213 H   0  0  0  0  0  0  0  0  0  0  0  0
    3.3628    1.5837   -0.8494 H   0  0  0  0  0  0  0  0  0  0  0  0
    4.1879    1.0332    0.7238 H   0  0  0  0  0  0  0  0  0  0  0  0
    3.7112   -0.7258   -1.6235 H   0  0  0  0  0  0  0  0  0  0  0  0
    3.3705   -1.3575    1.2318 H   0  0  0  0  0  0  0  0  0  0  0  0
    2.2973   -1.9827   -0.1415 H   0  0  0  0  0  0  0  0  0  0  0  0
   -0.1879   -1.8896   -0.2009 H   0  0  0  0  0  0  0  0  0  0  0  0
   -0.1751   -1.0593    1.4278 H   0  0  0  0  0  0  0  0  0  0  0  0
  1  2  1  0
  2  3  1  0
  3  4  1  0
  4  5  1  0
  4  6  1  0
  6  7  1  0
  7  8  1  0
  8  9  1  0
  9 10  1  0
 10 11  1  0
 11 12  1  0
  7 13  1  0
 13  2  1  0
 12  9  1  0
  1 14  1  0
  2 15  1  6
  3 16  1  0
  3 17  1  0
  4 18  1  1
  5 19  1  0
  6 20  1  0
  6 21  1  0
  8 22  1  0
  8 23  1  0
  9 24  1  0
 10 25  1  0
 10 26  1  0
 11 27  1  0
 12 28  1  0
 12 29  1  0
 13 30  1  0
 13 31  1  0
M  END
$$$$

     RDKit          3D

 31 32  0  0  0  0  0  0  0  0999 V2000
   -2.5823    0.0770   -2.3843 O   0  0  0  0  0  0  0  0  0  0  0  0
   -2.0108    0.0243   -1.1371 C   0  0  1  0  0  0  0  0  0  0  0  0
   -3.0327   -0.3236   -0.0524 C   0  0  0  0  0  0  0  0  0  0  0  0
   -2.2751   -0.4463    1.2339 C   0  0  2  0  0  0  0  0  0  0  0  0
   -2.9128    0.4091    2.1580 O   0  0  0  0  0  0  0  0  0  0  0  0
   -0.8483    0.0164    1.1429 C   0  0  0  0  0  0  0  0  0  0  0  0
   -0.0882   -0.6317    0.1089 N   0  0  0  0  0  0  0  0  0  0  0  0
    0.9613    0.1815   -0.4375 C   0  0  0  0  0  0  0  0  0  0  0  0
    2.0953    0.4842    0.4682 C   0  0  0  0  0  0  0  0  0  0  0  0
    2.8831   -0.6728    1.0120 C   0  0  0  0  0  0  0  0  0  0  0  0
    4.1049    0.0980    0.7294 N   0  0  0  0  0  0  0  0  0  0  0  0
    3.3706    0.7043   -0.3596 C   0  0  0  0  0  0  0  0  0  0  0  0
   -0.9299   -1.0370   -1.0187 C   0  0  0  0  0  0  0  0  0  0  0  0
   -2.8798    1.0297   -2.5281 H   0  0  0  0  0  0  0  0  0  0  0  0
   -1.5381    0.9903   -0.8802 H   0  0  0  0  0  0  0  0  0  0  0  0
   -3.8630    0.3988   -0.0247 H   0  0  0  0  0  0  0  0  0  0  0  0
   -3.4217   -1.3327   -0.3238 H   0  0  0  0  0  0  0  0  0  0  0  0
   -2.3657   -1.4668    1.6878 H   0  0  0  0  0  0  0  0  0  0  0  0
   -2.5983    1.3339    1.9059 H   0  0  0  0  0  0  0  0  0  0  0  0
   -0.3640   -0.2461    2.1154 H   0  0  0  0  0  0  0  0  0  0  0  0
   -0.8650    1.1243    1.0555 H   0  0  0  0  0  0  0  0  0  0  0  0
    0.5117    1.1672   -0.7381 H   0  0  0  0  0  0  0  0  0  0  0  0
    1.3388   -0.3014   -1.3583 H   0  0  0  0  0  0  0  0  0  0  0  0
    1.9939    1.3182    1.1762 H   0  0  0  0  0  0  0  0  0  0  0  0
    2.8229   -0.8450    2.1008 H   0  0  0  0  0  0  0  0  0  0  0  0
    2.8757   -1.5630    0.3785 H   0  0  0  0  0  0  0  0  0  0  0  0
    4.3492    0.7940    1.4699 H   0  0  0  0  0  0  0  0  0  0  0  0
    3.5870    1.7659   -0.5651 H   0  0  0  0  0  0  0  0  0  0  0  0
    3.3872    0.1095   -1.3057 H   0  0  0  0  0  0  0  0  0  0  0  0
   -1.3716   -2.0436   -0.8616 H   0  0  0  0  0  0  0  0  0  0  0  0
   -0.3343   -1.1165   -1.9574 H   0  0  0  0  0  0  0  0  0  0  0  0
  1  2  1  0
  2  3  1  0
  3  4  1  0
  4  5  1  0
  4  6  1  0
  6  7  1  0
  7  8  1  0
  8  9  1  0
  9 10  1  0
 10 11  1  0
 11 12  1  0
  7 13  1  0
 13  2  1  0
 12  9  1  0
  1 14  1  0
  2 15  1  1
  3 16  1  0
  3 17  1  0
  4 18  1  1
  5 19  1  0
  6 20  1  0
  6 21  1  0
  8 22  1  0
  8 23  1  0
  9 24  1  0
 10 25  1  0
 10 26  1  0
 11 27  1  0
 12 28  1  0
 12 29  1  0
 13 30  1  0
 13 31  1  0
M  END
$$$$

     RDKit          3D

 31 32  0  0  0  0  0  0  0  0999 V2000
    2.4708   -2.2209    0.9572 O   0  0  0  0  0  0  0  0  0  0  0  0
    1.8533   -0.9768    0.8853 C   0  0  1  0  0  0  0  0  0  0  0  0
    2.9018    0.0401    0.4922 C   0  0  0  0  0  0  0  0  0  0  0  0
    2.4643    0.8678   -0.6923 C   0  0  2  0  0  0  0  0  0  0  0  0
    3.2998    2.0047   -0.7173 O   0  0  0  0  0  0  0  0  0  0  0  0
    1.0663    1.3636   -0.4802 C   0  0  0  0  0  0  0  0  0  0  0  0
    0.1392    0.3606   -0.0834 N   0  0  0  0  0  0  0  0  0  0  0  0
   -1.0939    0.4580   -0.8270 C   0  0  0  0  0  0  0  0  0  0  0  0
   -2.1014   -0.5724   -0.4486 C   0  0  0  0  0  0  0  0  0  0  0  0
   -2.5597   -0.5763    0.9739 C   0  0  0  0  0  0  0  0  0  0  0  0
   -3.4553    0.5380    0.6317 N   0  0  0  0  0  0  0  0  0  0  0  0
   -3.5127   -0.0307   -0.7128 C   0  0  0  0  0  0  0  0  0  0  0  0
    0.6964   -0.9721   -0.0964 C   0  0  0  0  0  0  0  0  0  0  0  0
    2.4485   -2.6983    0.0946 H   0  0  0  0  0  0  0  0  0  0  0  0
    1.4537   -0.7126    1.8881 H   0  0  0  0  0  0  0  0  0  0  0  0
    3.8781   -0.4292    0.2567 H   0  0  0  0  0  0  0  0  0  0  0  0
    3.1035    0.7474    1.3354 H   0  0  0  0  0  0  0  0  0  0  0  0
    2.6015    0.3359   -1.6575 H   0  0  0  0  0  0  0  0  0  0  0  0
    3.1283    2.4764    0.1340 H   0  0  0  0  0  0  0  0  0  0  0  0
    0.7628    1.8959   -1.4146 H   0  0  0  0  0  0  0  0  0  0  0  0
    1.1042    2.1564    0.3040 H   0  0  0  0  0  0  0  0  0  0  0  0
   -1.5310    1.4631   -0.5740 H   0  0  0  0  0  0  0  0  0  0  0  0
   -0.9548    0.4647   -1.9202 H   0  0  0  0  0  0  0  0  0  0  0  0
   -2.0209   -1.5570   -0.9421 H   0  0  0  0  0  0  0  0  0  0  0  0
   -3.1941   -1.4689    1.1705 H   0  0  0  0  0  0  0  0  0  0  0  0
   -1.8233   -0.3487    1.7422 H   0  0  0  0  0  0  0  0  0  0  0  0
   -4.3722    0.4844    1.1224 H   0  0  0  0  0  0  0  0  0  0  0  0
   -4.2571   -0.8327   -0.7614 H   0  0  0  0  0  0  0  0  0  0  0  0
   -3.5086    0.7026   -1.5283 H   0  0  0  0  0  0  0  0  0  0  0  0
    1.0610   -1.2819   -1.0969 H   0  0  0  0  0  0  0  0  0  0  0  0
   -0.0487   -1.6808    0.2673 H   0  0  0  0  0  0  0  0  0  0  0  0
  1  2  1  0
  2  3  1  0
  3  4  1  0
  4  5  1  0
  4  6  1  0
  6  7  1  0
  7  8  1  0
  8  9  1  0
  9 10  1  0
 10 11  1  0
 11 12  1  0
  7 13  1  0
 13  2  1  0
 12  9  1  0
  1 14  1  0
  2 15  1  1
  3 16  1  0
  3 17  1  0
  4 18  1  6
  5 19  1  0
  6 20  1  0
  6 21  1  0
  8 22  1  0
  8 23  1  0
  9 24  1  0
 10 25  1  0
 10 26  1  0
 11 27  1  0
 12 28  1  0
 12 29  1  0
 13 30  1  0
 13 31  1  0
M  END
$$$$

     RDKit          3D

 31 32  0  0  0  0  0  0  0  0999 V2000
   -2.5484   -0.7504   -2.4204 O   0  0  0  0  0  0  0  0  0  0  0  0
   -2.0759    0.1551   -1.4424 C   0  0  1  0  0  0  0  0  0  0  0  0
   -3.0140    0.0963   -0.2892 C   0  0  0  0  0  0  0  0  0  0  0  0
   -2.2597   -0.4720    0.8960 C   0  0  2  0  0  0  0  0  0  0  0  0
   -3.0841   -0.5192    2.0364 O   0  0  0  0  0  0  0  0  0  0  0  0
   -1.0759    0.4096    1.1333 C   0  0  0  0  0  0  0  0  0  0  0  0
   -0.1421    0.3930    0.0327 N   0  0  0  0  0  0  0  0  0  0  0  0
    1.1108   -0.2230    0.4341 C   0  0  0  0  0  0  0  0  0  0  0  0
    2.1352    0.0551   -0.6464 C   0  0  0  0  0  0  0  0  0  0  0  0
    3.5087   -0.5362   -0.3918 C   0  0  0  0  0  0  0  0  0  0  0  0
    4.0610    0.7945   -0.6900 N   0  0  0  0  0  0  0  0  0  0  0  0
    2.7819    1.4275   -0.4409 C   0  0  0  0  0  0  0  0  0  0  0  0
   -0.6612   -0.2109   -1.1699 C   0  0  0  0  0  0  0  0  0  0  0  0
   -3.1595   -1.4078   -2.0002 H   0  0  0  0  0  0  0  0  0  0  0  0
   -2.0916    1.1717   -1.9402 H   0  0  0  0  0  0  0  0  0  0  0  0
   -3.3262    1.1439   -0.0081 H   0  0  0  0  0  0  0  0  0  0  0  0
   -3.9514   -0.4767   -0.4913 H   0  0  0  0  0  0  0  0  0  0  0  0
   -1.8959   -1.4852    0.6067 H   0  0  0  0  0  0  0  0  0  0  0  0
   -2.9468   -1.4270    2.4581 H   0  0  0  0  0  0  0  0  0  0  0  0
   -1.4513    1.4691    1.2177 H   0  0  0  0  0  0  0  0  0  0  0  0
   -0.5659    0.1519    2.1063 H   0  0  0  0  0  0  0  0  0  0  0  0
    0.9987   -1.3389    0.5299 H   0  0  0  0  0  0  0  0  0  0  0  0
    1.4577    0.1339    1.4223 H   0  0  0  0  0  0  0  0  0  0  0  0
    1.8251   -0.1110   -1.6791 H   0  0  0  0  0  0  0  0  0  0  0  0
    3.7449   -1.3189   -1.1295 H   0  0  0  0  0  0  0  0  0  0  0  0
    3.6356   -0.8477    0.6626 H   0  0  0  0  0  0  0  0  0  0  0  0
    4.3576    0.8930   -1.6785 H   0  0  0  0  0  0  0  0  0  0  0  0
    2.4707    2.1657   -1.1932 H   0  0  0  0  0  0  0  0  0  0  0  0
    2.7062    1.7821    0.6317 H   0  0  0  0  0  0  0  0  0  0  0  0
   -0.4781   -1.3173   -1.1888 H   0  0  0  0  0  0  0  0  0  0  0  0
   -0.0659    0.1998   -2.0225 H   0  0  0  0  0  0  0  0  0  0  0  0
  1  2  1  0
  2  3  1  0
  3  4  1  0
  4  5  1  0
  4  6  1  0
  6  7  1  0
  7  8  1  0
  8  9  1  0
  9 10  1  0
 10 11  1  0
 11 12  1  0
  7 13  1  0
 13  2  1  0
 12  9  1  0
  1 14  1  0
  2 15  1  6
  3 16  1  0
  3 17  1  0
  4 18  1  6
  5 19  1  0
  6 20  1  0
  6 21  1  0
  8 22  1  0
  8 23  1  0
  9 24  1  0
 10 25  1  0
 10 26  1  0
 11 27  1  0
 12 28  1  0
 12 29  1  0
 13 30  1  0
 13 31  1  0
M  END
$$$$

     RDKit          3D

 31 32  0  0  0  0  0  0  0  0999 V2000
   -3.1439    2.2493   -0.6531 O   0  0  0  0  0  0  0  0  0  0  0  0
   -2.3477    1.3681    0.0908 C   0  0  1  0  0  0  0  0  0  0  0  0
   -2.9297   -0.0279    0.0233 C   0  0  0  0  0  0  0  0  0  0  0  0
   -1.9074   -1.0166    0.4946 C   0  0  2  0  0  0  0  0  0  0  0  0
   -2.4719   -1.8905    1.4170 O   0  0  0  0  0  0  0  0  0  0  0  0
   -0.7511   -0.3034    1.1951 C   0  0  0  0  0  0  0  0  0  0  0  0
   -0.0805    0.5886    0.2691 N   0  0  0  0  0  0  0  0  0  0  0  0
    0.9070   -0.0723   -0.5348 C   0  0  0  0  0  0  0  0  0  0  0  0
    2.0997   -0.4973    0.2793 C   0  0  0  0  0  0  0  0  0  0  0  0
    3.1889   -1.2124   -0.4918 C   0  0  0  0  0  0  0  0  0  0  0  0
    4.1241   -0.5430    0.4348 N   0  0  0  0  0  0  0  0  0  0  0  0
    3.1871    0.5758    0.3707 C   0  0  0  0  0  0  0  0  0  0  0  0
   -0.9780    1.3104   -0.5830 C   0  0  0  0  0  0  0  0  0  0  0  0
   -2.8387    3.1545   -0.3932 H   0  0  0  0  0  0  0  0  0  0  0  0
   -2.2987    1.6797    1.1369 H   0  0  0  0  0  0  0  0  0  0  0  0
   -3.1756   -0.2105   -1.0531 H   0  0  0  0  0  0  0  0  0  0  0  0
   -3.8583   -0.0638    0.6329 H   0  0  0  0  0  0  0  0  0  0  0  0
   -1.4945   -1.6274   -0.3444 H   0  0  0  0  0  0  0  0  0  0  0  0
   -2.8269   -2.7163    1.0119 H   0  0  0  0  0  0  0  0  0  0  0  0
   -1.1830    0.2310    2.0442 H   0  0  0  0  0  0  0  0  0  0  0  0
   -0.0620   -1.0786    1.5160 H   0  0  0  0  0  0  0  0  0  0  0  0
    1.2219    0.6062   -1.3344 H   0  0  0  0  0  0  0  0  0  0  0  0
    0.4665   -0.9904   -0.9894 H   0  0  0  0  0  0  0  0  0  0  0  0
    1.9146   -0.8993    1.2774 H   0  0  0  0  0  0  0  0  0  0  0  0
    3.1937   -2.2983   -0.4150 H   0  0  0  0  0  0  0  0  0  0  0  0
    3.2833   -0.7871   -1.5195 H   0  0  0  0  0  0  0  0  0  0  0  0
    3.9969   -1.0029    1.3812 H   0  0  0  0  0  0  0  0  0  0  0  0
    3.2903    1.1472   -0.5915 H   0  0  0  0  0  0  0  0  0  0  0  0
    3.1808    1.1543    1.2940 H   0  0  0  0  0  0  0  0  0  0  0  0
   -1.1063    0.8271   -1.5777 H   0  0  0  0  0  0  0  0  0  0  0  0
   -0.6008    2.3454   -0.7144 H   0  0  0  0  0  0  0  0  0  0  0  0
  1  2  1  0
  2  3  1  0
  3  4  1  0
  4  5  1  0
  4  6  1  0
  6  7  1  0
  7  8  1  0
  8  9  1  0
  9 10  1  0
 10 11  1  0
 11 12  1  0
  7 13  1  0
 13  2  1  0
 12  9  1  0
  1 14  1  0
  2 15  1  1
  3 16  1  0
  3 17  1  0
  4 18  1  6
  5 19  1  0
  6 20  1  0
  6 21  1  0
  8 22  1  0
  8 23  1  0
  9 24  1  0
 10 25  1  0
 10 26  1  0
 11 27  1  0
 12 28  1  0
 12 29  1  0
 13 30  1  0
 13 31  1  0
M  END
$$$$
