
     RDKit          3D

 29 29  0  0  0  0  0  0  0  0999 V2000
    1.8158    0.6823    1.3733 N   0  0  0  0  0  0  0  0  0  0  0  0
    2.9284    0.1116    0.6849 C   0  0  0  0  0  0  0  0  0  0  0  0
    2.6598   -1.2122    0.0511 C   0  0  0  0  0  0  0  0  0  0  0  0
    1.5752   -1.1974   -0.9728 C   0  0  2  0  0  0  0  0  0  0  0  0
    1.8093   -0.3542   -2.0419 O   0  0  0  0  0  0  0  0  0  0  0  0
    0.2514   -0.9662   -0.3459 C   0  0  0  0  0  0  0  0  0  0  0  0
   -0.0895   -1.6554    0.6313 O   0  0  0  0  0  0  0  0  0  0  0  0
   -0.6418    0.0407   -0.8499 N   0  0  0  0  0  0  0  0  0  0  0  0
   -1.9349    0.2857   -0.2583 C   0  0  0  0  0  0  0  0  0  0  0  0
   -2.7099    1.3937   -0.9510 C   0  0  0  0  0  0  0  0  0  0  0  0
   -1.9484    2.5609   -0.8584 O   0  0  0  0  0  0  0  0  0  0  0  0
   -2.1781    0.1234    1.1859 C   0  0  0  0  0  0  0  0  0  0  0  0
   -2.7803   -0.8461    0.2283 C   0  0  0  0  0  0  0  0  0  0  0  0
    1.2336    1.3196    0.7870 H   0  0  0  0  0  0  0  0  0  0  0  0
    2.2085    1.3140    2.1350 H   0  0  0  0  0  0  0  0  0  0  0  0
    3.7367   -0.0634    1.4551 H   0  0  0  0  0  0  0  0  0  0  0  0
    3.3964    0.8417   -0.0290 H   0  0  0  0  0  0  0  0  0  0  0  0
    2.4115   -1.9490    0.8191 H   0  0  0  0  0  0  0  0  0  0  0  0
    3.6144   -1.5543   -0.4194 H   0  0  0  0  0  0  0  0  0  0  0  0
    1.5206   -2.2379   -1.4102 H   0  0  0  0  0  0  0  0  0  0  0  0
    2.4601   -0.7034   -2.6749 H   0  0  0  0  0  0  0  0  0  0  0  0
   -0.2695    0.5754   -1.6795 H   0  0  0  0  0  0  0  0  0  0  0  0
   -3.7190    1.5352   -0.5229 H   0  0  0  0  0  0  0  0  0  0  0  0
   -2.7946    1.1512   -2.0361 H   0  0  0  0  0  0  0  0  0  0  0  0
   -1.9592    2.8847    0.0928 H   0  0  0  0  0  0  0  0  0  0  0  0
   -1.3960   -0.1745    1.8987 H   0  0  0  0  0  0  0  0  0  0  0  0
   -2.9393    0.8058    1.6654 H   0  0  0  0  0  0  0  0  0  0  0  0
   -2.3779   -1.8799    0.2057 H   0  0  0  0  0  0  0  0  0  0  0  0
   -3.8831   -0.8319    0.0289 H   0  0  0  0  0  0  0  0  0  0  0  0
  1  2  1  0
  2  3  1  0
  3  4  1  0
  4  5  1  0
  4  6  1  0
  6  7  2  0
  6  8  1  0
  8  9  1  0
  9 10  1  0
 10 11  1  0
  9 12  1  0
 12 13  1  0
 13  9  1  0
  1 14  1  0
  1 15  1  0
  2 16  1  0
  2 17  1  0
  3 18  1  0
  3 19  1  0
  4 20  1  6
  5 21  1  0
  8 22  1  0
 10 23  1  0
 10 24  1  0
 11 25  1  0
 12 26  1  0
 12 27  1  0
 13 28  1  0
 13 29  1  0
M  END
$$$$

     RDKit          3D

 29 29  0  0  0  0  0  0  0  0999 V2000
    4.3547    0.2312    0.1289 N   0  0  0  0  0  0  0  0  0  0  0  0
    3.7239   -1.0699    0.3299 C   0  0  0  0  0  0  0  0  0  0  0  0
    2.3248   -1.0464   -0.2975 C   0  0  0  0  0  0  0  0  0  0  0  0
    1.5649    0.0479    0.4115 C   0  0  2  0  0  0  0  0  0  0  0  0
    1.4968   -0.2290    1.7528 O   0  0  0  0  0  0  0  0  0  0  0  0
    0.2187    0.2694   -0.1306 C   0  0  0  0  0  0  0  0  0  0  0  0
   -0.0170    0.5423   -1.3377 O   0  0  0  0  0  0  0  0  0  0  0  0
   -0.9144    0.1799    0.7242 N   0  0  0  0  0  0  0  0  0  0  0  0
   -2.2685    0.3843    0.2659 C   0  0  0  0  0  0  0  0  0  0  0  0
   -2.7721   -0.5559   -0.8242 C   0  0  0  0  0  0  0  0  0  0  0  0
   -4.0691   -0.2880   -1.1987 O   0  0  0  0  0  0  0  0  0  0  0  0
   -2.8409    1.7827    0.2988 C   0  0  0  0  0  0  0  0  0  0  0  0
   -3.2415    0.8213    1.3445 C   0  0  0  0  0  0  0  0  0  0  0  0
    3.9324    0.7109   -0.6950 H   0  0  0  0  0  0  0  0  0  0  0  0
    5.3733    0.0394   -0.0185 H   0  0  0  0  0  0  0  0  0  0  0  0
    3.6658   -1.2192    1.4191 H   0  0  0  0  0  0  0  0  0  0  0  0
    4.3225   -1.8578   -0.1362 H   0  0  0  0  0  0  0  0  0  0  0  0
    1.8246   -2.0021   -0.0848 H   0  0  0  0  0  0  0  0  0  0  0  0
    2.3904   -0.8409   -1.3744 H   0  0  0  0  0  0  0  0  0  0  0  0
    2.1532    0.9813    0.2817 H   0  0  0  0  0  0  0  0  0  0  0  0
    1.5315   -1.1979    1.8939 H   0  0  0  0  0  0  0  0  0  0  0  0
   -0.7462   -0.0476    1.7405 H   0  0  0  0  0  0  0  0  0  0  0  0
   -2.7219   -1.5747   -0.4237 H   0  0  0  0  0  0  0  0  0  0  0  0
   -2.0895   -0.4762   -1.6972 H   0  0  0  0  0  0  0  0  0  0  0  0
   -4.5505    0.3610   -0.6386 H   0  0  0  0  0  0  0  0  0  0  0  0
   -3.4970    2.0993   -0.5193 H   0  0  0  0  0  0  0  0  0  0  0  0
   -2.0729    2.5616    0.5782 H   0  0  0  0  0  0  0  0  0  0  0  0
   -4.2507    0.4081    1.3729 H   0  0  0  0  0  0  0  0  0  0  0  0
   -2.8250    0.9849    2.3780 H   0  0  0  0  0  0  0  0  0  0  0  0
  1  2  1  0
  2  3  1  0
  3  4  1  0
  4  5  1  0
  4  6  1  0
  6  7  2  0
  6  8  1  0
  8  9  1  0
  9 10  1  0
 10 11  1  0
  9 12  1  0
 12 13  1  0
 13  9  1  0
  1 14  1  0
  1 15  1  0
  2 16  1  0
  2 17  1  0
  3 18  1  0
  3 19  1  0
  4 20  1  1
  5 21  1  0
  8 22  1  0
 10 23  1  0
 10 24  1  0
 11 25  1  0
 12 26  1  0
 12 27  1  0
 13 28  1  0
 13 29  1  0
M  END
$$$$

     RDKit          3D

 29 29  0  0  0  0  0  0  0  0999 V2000
    3.4954    0.2907    0.3132 N   0  0  0  0  0  0  0  0  0  0  0  0
    2.8797   -0.8881    0.8347 C   0  0  0  0  0  0  0  0  0  0  0  0
    2.3088   -1.8146   -0.1722 C   0  0  0  0  0  0  0  0  0  0  0  0
    1.2272   -1.3064   -1.0460 C   0  0  2  0  0  0  0  0  0  0  0  0
    1.6550   -0.2227   -1.7946 O   0  0  0  0  0  0  0  0  0  0  0  0
   -0.0167   -0.9552   -0.3425 C   0  0  0  0  0  0  0  0  0  0  0  0
   -0.5667   -1.7483    0.4663 O   0  0  0  0  0  0  0  0  0  0  0  0
   -0.6022    0.3103   -0.5904 N   0  0  0  0  0  0  0  0  0  0  0  0
   -1.8124    0.7706    0.0342 C   0  0  0  0  0  0  0  0  0  0  0  0
   -2.2545    2.1546   -0.3806 C   0  0  0  0  0  0  0  0  0  0  0  0
   -3.4327    2.5343    0.2634 O   0  0  0  0  0  0  0  0  0  0  0  0
   -2.3570    0.1938    1.2763 C   0  0  0  0  0  0  0  0  0  0  0  0
   -2.9474   -0.2729   -0.0071 C   0  0  0  0  0  0  0  0  0  0  0  0
    4.5166    0.3554    0.4825 H   0  0  0  0  0  0  0  0  0  0  0  0
    3.0245    1.1183    0.7602 H   0  0  0  0  0  0  0  0  0  0  0  0
    3.7044   -1.4617    1.3557 H   0  0  0  0  0  0  0  0  0  0  0  0
    2.1079   -0.6754    1.6064 H   0  0  0  0  0  0  0  0  0  0  0  0
    3.1633   -2.0932   -0.8627 H   0  0  0  0  0  0  0  0  0  0  0  0
    2.0445   -2.7963    0.2988 H   0  0  0  0  0  0  0  0  0  0  0  0
    0.9371   -2.1595   -1.7321 H   0  0  0  0  0  0  0  0  0  0  0  0
    1.7950    0.5513   -1.2317 H   0  0  0  0  0  0  0  0  0  0  0  0
   -0.1443    0.9639   -1.2702 H   0  0  0  0  0  0  0  0  0  0  0  0
   -2.4339    2.1530   -1.4666 H   0  0  0  0  0  0  0  0  0  0  0  0
   -1.5071    2.9252   -0.1606 H   0  0  0  0  0  0  0  0  0  0  0  0
   -3.2548    2.8732    1.1688 H   0  0  0  0  0  0  0  0  0  0  0  0
   -1.8215   -0.4746    1.9453 H   0  0  0  0  0  0  0  0  0  0  0  0
   -3.0427    0.8866    1.8500 H   0  0  0  0  0  0  0  0  0  0  0  0
   -3.9556    0.0805   -0.3168 H   0  0  0  0  0  0  0  0  0  0  0  0
   -2.7101   -1.2928   -0.3218 H   0  0  0  0  0  0  0  0  0  0  0  0
  1  2  1  0
  2  3  1  0
  3  4  1  0
  4  5  1  0
  4  6  1  0
  6  7  2  0
  6  8  1  0
  8  9  1  0
  9 10  1  0
 10 11  1  0
  9 12  1  0
 12 13  1  0
 13  9  1  0
  1 14  1  0
  1 15  1  0
  2 16  1  0
  2 17  1  0
  3 18  1  0
  3 19  1  0
  4 20  1  6
  5 21  1  0
  8 22  1  0
 10 23  1  0
 10 24  1  0
 11 25  1  0
 12 26  1  0
 12 27  1  0
 13 28  1  0
 13 29  1  0
M  END
$$$$

     RDKit          3D

 29 29  0  0  0  0  0  0  0  0999 V2000
    3.4557    1.7503    0.9877 N   0  0  0  0  0  0  0  0  0  0  0  0
    2.3024    0.8247    1.0560 C   0  0  0  0  0  0  0  0  0  0  0  0
    2.6812   -0.3756    0.2828 C   0  0  0  0  0  0  0  0  0  0  0  0
    1.6640   -1.4888    0.2269 C   0  0  2  0  0  0  0  0  0  0  0  0
    2.2302   -2.5280   -0.5679 O   0  0  0  0  0  0  0  0  0  0  0  0
    0.3754   -1.1128   -0.3727 C   0  0  0  0  0  0  0  0  0  0  0  0
    0.0838   -1.5673   -1.5156 O   0  0  0  0  0  0  0  0  0  0  0  0
   -0.5797   -0.2762    0.2299 N   0  0  0  0  0  0  0  0  0  0  0  0
   -1.8356    0.1034   -0.3410 C   0  0  0  0  0  0  0  0  0  0  0  0
   -2.6997    1.0304    0.5209 C   0  0  0  0  0  0  0  0  0  0  0  0
   -3.8706    1.2852   -0.1982 O   0  0  0  0  0  0  0  0  0  0  0  0
   -2.6356   -1.0515   -0.9278 C   0  0  0  0  0  0  0  0  0  0  0  0
   -2.1400    0.0565   -1.7748 C   0  0  0  0  0  0  0  0  0  0  0  0
    4.1081    1.5757    1.7966 H   0  0  0  0  0  0  0  0  0  0  0  0
    3.1504    2.7365    1.0207 H   0  0  0  0  0  0  0  0  0  0  0  0
    1.4769    1.4186    0.6027 H   0  0  0  0  0  0  0  0  0  0  0  0
    2.1356    0.6084    2.1193 H   0  0  0  0  0  0  0  0  0  0  0  0
    3.6404   -0.7638    0.6829 H   0  0  0  0  0  0  0  0  0  0  0  0
    2.9268   -0.0831   -0.7814 H   0  0  0  0  0  0  0  0  0  0  0  0
    1.5668   -1.9263    1.2419 H   0  0  0  0  0  0  0  0  0  0  0  0
    2.0172   -2.2647   -1.5069 H   0  0  0  0  0  0  0  0  0  0  0  0
   -0.3359    0.0846    1.1954 H   0  0  0  0  0  0  0  0  0  0  0  0
   -2.9502    0.4920    1.4572 H   0  0  0  0  0  0  0  0  0  0  0  0
   -2.1532    1.9732    0.7088 H   0  0  0  0  0  0  0  0  0  0  0  0
   -4.3765    2.0461    0.1786 H   0  0  0  0  0  0  0  0  0  0  0  0
   -2.1478   -2.0393   -1.0521 H   0  0  0  0  0  0  0  0  0  0  0  0
   -3.7202   -1.1262   -0.7046 H   0  0  0  0  0  0  0  0  0  0  0  0
   -1.4164   -0.1383   -2.5702 H   0  0  0  0  0  0  0  0  0  0  0  0
   -2.9534    0.7560   -2.1319 H   0  0  0  0  0  0  0  0  0  0  0  0
  1  2  1  0
  2  3  1  0
  3  4  1  0
  4  5  1  0
  4  6  1  0
  6  7  2  0
  6  8  1  0
  8  9  1  0
  9 10  1  0
 10 11  1  0
  9 12  1  0
 12 13  1  0
 13  9  1  0
  1 14  1  0
  1 15  1  0
  2 16  1  0
  2 17  1  0
  3 18  1  0
  3 19  1  0
  4 20  1  1
  5 21  1  0
  8 22  1  0
 10 23  1  0
 10 24  1  0
 11 25  1  0
 12 26  1  0
 12 27  1  0
 13 28  1  0
 13 29  1  0
M  END
$$$$

     RDKit          3D

 29 29  0  0  0  0  0  0  0  0999 V2000
    3.7342    1.0641   -0.6069 N   0  0  0  0  0  0  0  0  0  0  0  0
    3.6957    0.4059    0.6826 C   0  0  0  0  0  0  0  0  0  0  0  0
    2.2472    0.2929    1.0808 C   0  0  0  0  0  0  0  0  0  0  0  0
    1.4899   -0.5205    0.0489 C   0  0  2  0  0  0  0  0  0  0  0  0
    1.5694    0.0895   -1.1823 O   0  0  0  0  0  0  0  0  0  0  0  0
    0.0542   -0.6082    0.4976 C   0  0  0  0  0  0  0  0  0  0  0  0
   -0.1181   -1.1540    1.6184 O   0  0  0  0  0  0  0  0  0  0  0  0
   -0.9929   -0.1061   -0.3036 N   0  0  0  0  0  0  0  0  0  0  0  0
   -2.3540   -0.1820    0.1211 C   0  0  0  0  0  0  0  0  0  0  0  0
   -2.7266    0.5628    1.3599 C   0  0  0  0  0  0  0  0  0  0  0  0
   -2.0824    0.2057    2.5117 O   0  0  0  0  0  0  0  0  0  0  0  0
   -3.4526   -0.1700   -0.9313 C   0  0  0  0  0  0  0  0  0  0  0  0
   -3.0508   -1.4488   -0.2387 C   0  0  0  0  0  0  0  0  0  0  0  0
    3.9026    2.0703   -0.5667 H   0  0  0  0  0  0  0  0  0  0  0  0
    4.2508    0.5366   -1.3238 H   0  0  0  0  0  0  0  0  0  0  0  0
    4.0804   -0.6287    0.5630 H   0  0  0  0  0  0  0  0  0  0  0  0
    4.2575    0.9212    1.4627 H   0  0  0  0  0  0  0  0  0  0  0  0
    1.7427    1.2699    1.1867 H   0  0  0  0  0  0  0  0  0  0  0  0
    2.1711   -0.2067    2.0704 H   0  0  0  0  0  0  0  0  0  0  0  0
    1.8883   -1.5658    0.0170 H   0  0  0  0  0  0  0  0  0  0  0  0
    2.1119   -0.4332   -1.8396 H   0  0  0  0  0  0  0  0  0  0  0  0
   -0.7688    0.3278   -1.2212 H   0  0  0  0  0  0  0  0  0  0  0  0
   -3.8396    0.5594    1.5294 H   0  0  0  0  0  0  0  0  0  0  0  0
   -2.4732    1.6469    1.1603 H   0  0  0  0  0  0  0  0  0  0  0  0
   -1.5178    0.9206    2.9019 H   0  0  0  0  0  0  0  0  0  0  0  0
   -4.4426    0.1926   -0.6611 H   0  0  0  0  0  0  0  0  0  0  0  0
   -3.1015    0.0170   -1.9630 H   0  0  0  0  0  0  0  0  0  0  0  0
   -3.7333   -1.8939    0.5091 H   0  0  0  0  0  0  0  0  0  0  0  0
   -2.5416   -2.1652   -0.8896 H   0  0  0  0  0  0  0  0  0  0  0  0
  1  2  1  0
  2  3  1  0
  3  4  1  0
  4  5  1  0
  4  6  1  0
  6  7  2  0
  6  8  1  0
  8  9  1  0
  9 10  1  0
 10 11  1  0
  9 12  1  0
 12 13  1  0
 13  9  1  0
  1 14  1  0
  1 15  1  0
  2 16  1  0
  2 17  1  0
  3 18  1  0
  3 19  1  0
  4 20  1  6
  5 21  1  0
  8 22  1  0
 10 23  1  0
 10 24  1  0
 11 25  1  0
 12 26  1  0
 12 27  1  0
 13 28  1  0
 13 29  1  0
M  END
$$$$

     RDKit          3D

 29 29  0  0  0  0  0  0  0  0999 V2000
    3.4408    1.0584    0.0012 N   0  0  0  0  0  0  0  0  0  0  0  0
    2.4248    0.6834    0.9380 C   0  0  0  0  0  0  0  0  0  0  0  0
    2.0963   -0.7855    0.9084 C   0  0  0  0  0  0  0  0  0  0  0  0
    1.5969   -1.2409   -0.4404 C   0  0  2  0  0  0  0  0  0  0  0  0
    2.5051   -1.0403   -1.4480 O   0  0  0  0  0  0  0  0  0  0  0  0
    0.3228   -0.5675   -0.7494 C   0  0  0  0  0  0  0  0  0  0  0  0
    0.2420    0.0813   -1.8342 O   0  0  0  0  0  0  0  0  0  0  0  0
   -0.7650   -0.6596    0.1588 N   0  0  0  0  0  0  0  0  0  0  0  0
   -2.0086    0.0107   -0.1613 C   0  0  0  0  0  0  0  0  0  0  0  0
   -1.8949    1.5094   -0.3121 C   0  0  0  0  0  0  0  0  0  0  0  0
   -3.1236    2.0893   -0.6180 O   0  0  0  0  0  0  0  0  0  0  0  0
   -2.8551   -0.7563   -1.1475 C   0  0  0  0  0  0  0  0  0  0  0  0
   -3.3058   -0.5918    0.2364 C   0  0  0  0  0  0  0  0  0  0  0  0
    3.7157    2.0484    0.2175 H   0  0  0  0  0  0  0  0  0  0  0  0
    4.2988    0.4863    0.2019 H   0  0  0  0  0  0  0  0  0  0  0  0
    1.5192    1.3002    0.8600 H   0  0  0  0  0  0  0  0  0  0  0  0
    2.8410    0.8856    1.9640 H   0  0  0  0  0  0  0  0  0  0  0  0
    2.9742   -1.3966    1.2000 H   0  0  0  0  0  0  0  0  0  0  0  0
    1.2990   -0.9858    1.6481 H   0  0  0  0  0  0  0  0  0  0  0  0
    1.3913   -2.3439   -0.3318 H   0  0  0  0  0  0  0  0  0  0  0  0
    2.9261   -1.8694   -1.7537 H   0  0  0  0  0  0  0  0  0  0  0  0
   -0.6239   -1.2141    1.0317 H   0  0  0  0  0  0  0  0  0  0  0  0
   -1.1088    1.7807   -1.0260 H   0  0  0  0  0  0  0  0  0  0  0  0
   -1.6092    1.9072    0.6982 H   0  0  0  0  0  0  0  0  0  0  0  0
   -3.0154    2.8981   -1.1925 H   0  0  0  0  0  0  0  0  0  0  0  0
   -3.3684   -0.2091   -1.9683 H   0  0  0  0  0  0  0  0  0  0  0  0
   -2.5528   -1.7792   -1.4507 H   0  0  0  0  0  0  0  0  0  0  0  0
   -3.2401   -1.4311    0.9723 H   0  0  0  0  0  0  0  0  0  0  0  0
   -4.1222    0.1321    0.4924 H   0  0  0  0  0  0  0  0  0  0  0  0
  1  2  1  0
  2  3  1  0
  3  4  1  0
  4  5  1  0
  4  6  1  0
  6  7  2  0
  6  8  1  0
  8  9  1  0
  9 10  1  0
 10 11  1  0
  9 12  1  0
 12 13  1  0
 13  9  1  0
  1 14  1  0
  1 15  1  0
  2 16  1  0
  2 17  1  0
  3 18  1  0
  3 19  1  0
  4 20  1  1
  5 21  1  0
  8 22  1  0
 10 23  1  0
 10 24  1  0
 11 25  1  0
 12 26  1  0
 12 27  1  0
 13 28  1  0
 13 29  1  0
M  END
$$$$

     RDKit          3D

 29 29  0  0  0  0  0  0  0  0999 V2000
    4.3374   -0.3730    0.2520 N   0  0  0  0  0  0  0  0  0  0  0  0
    3.7125    0.8820    0.6202 C   0  0  0  0  0  0  0  0  0  0  0  0
    2.2635    0.6386    1.0294 C   0  0  0  0  0  0  0  0  0  0  0  0
    1.5520    0.0277   -0.1562 C   0  0  2  0  0  0  0  0  0  0  0  0
    1.5944    0.8739   -1.2399 O   0  0  0  0  0  0  0  0  0  0  0  0
    0.1662   -0.3847    0.1957 C   0  0  0  0  0  0  0  0  0  0  0  0
    0.0097   -1.1603    1.1735 O   0  0  0  0  0  0  0  0  0  0  0  0
   -0.9810    0.0435   -0.5034 N   0  0  0  0  0  0  0  0  0  0  0  0
   -2.3300   -0.3580   -0.1608 C   0  0  0  0  0  0  0  0  0  0  0  0
   -2.8686   -0.0287    1.2018 C   0  0  0  0  0  0  0  0  0  0  0  0
   -2.8964    1.3315    1.4644 O   0  0  0  0  0  0  0  0  0  0  0  0
   -2.9004   -1.5990   -0.8776 C   0  0  0  0  0  0  0  0  0  0  0  0
   -3.3673   -0.2514   -1.2717 C   0  0  0  0  0  0  0  0  0  0  0  0
    5.3698   -0.3255    0.4067 H   0  0  0  0  0  0  0  0  0  0  0  0
    4.0760   -0.5836   -0.7367 H   0  0  0  0  0  0  0  0  0  0  0  0
    3.7925    1.5651   -0.2251 H   0  0  0  0  0  0  0  0  0  0  0  0
    4.2318    1.3294    1.4888 H   0  0  0  0  0  0  0  0  0  0  0  0
    2.2609   -0.0669    1.8852 H   0  0  0  0  0  0  0  0  0  0  0  0
    1.7830    1.5763    1.3313 H   0  0  0  0  0  0  0  0  0  0  0  0
    2.0840   -0.9143   -0.4455 H   0  0  0  0  0  0  0  0  0  0  0  0
    1.6587    0.3926   -2.1106 H   0  0  0  0  0  0  0  0  0  0  0  0
   -0.8216    0.6923   -1.3177 H   0  0  0  0  0  0  0  0  0  0  0  0
   -3.9058   -0.4380    1.2523 H   0  0  0  0  0  0  0  0  0  0  0  0
   -2.2652   -0.4940    2.0277 H   0  0  0  0  0  0  0  0  0  0  0  0
   -3.4772    1.8289    0.8556 H   0  0  0  0  0  0  0  0  0  0  0  0
   -2.1620   -2.1064   -1.5519 H   0  0  0  0  0  0  0  0  0  0  0  0
   -3.5022   -2.2777   -0.2719 H   0  0  0  0  0  0  0  0  0  0  0  0
   -4.4082    0.0087   -1.0089 H   0  0  0  0  0  0  0  0  0  0  0  0
   -3.0066    0.1711   -2.2258 H   0  0  0  0  0  0  0  0  0  0  0  0
  1  2  1  0
  2  3  1  0
  3  4  1  0
  4  5  1  0
  4  6  1  0
  6  7  2  0
  6  8  1  0
  8  9  1  0
  9 10  1  0
 10 11  1  0
  9 12  1  0
 12 13  1  0
 13  9  1  0
  1 14  1  0
  1 15  1  0
  2 16  1  0
  2 17  1  0
  3 18  1  0
  3 19  1  0
  4 20  1  6
  5 21  1  0
  8 22  1  0
 10 23  1  0
 10 24  1  0
 11 25  1  0
 12 26  1  0
 12 27  1  0
 13 28  1  0
 13 29  1  0
M  END
$$$$

     RDKit          3D

 29 29  0  0  0  0  0  0  0  0999 V2000
    4.0804   -1.0677    0.5679 N   0  0  0  0  0  0  0  0  0  0  0  0
    3.4938   -0.3305   -0.5424 C   0  0  0  0  0  0  0  0  0  0  0  0
    1.9917   -0.5045   -0.5189 C   0  0  0  0  0  0  0  0  0  0  0  0
    1.4502    0.0336    0.8033 C   0  0  2  0  0  0  0  0  0  0  0  0
    2.0295   -0.6784    1.8263 O   0  0  0  0  0  0  0  0  0  0  0  0
   -0.0389   -0.0791    0.8401 C   0  0  0  0  0  0  0  0  0  0  0  0
   -0.6357   -0.7512    1.7149 O   0  0  0  0  0  0  0  0  0  0  0  0
   -0.7996    0.5862   -0.1327 N   0  0  0  0  0  0  0  0  0  0  0  0
   -2.2259    0.5958   -0.2660 C   0  0  0  0  0  0  0  0  0  0  0  0
   -2.8834   -0.7293   -0.5281 C   0  0  0  0  0  0  0  0  0  0  0  0
   -2.6803   -1.6610    0.4498 O   0  0  0  0  0  0  0  0  0  0  0  0
   -3.0584    1.6526    0.3527 C   0  0  0  0  0  0  0  0  0  0  0  0
   -2.7776    1.7776   -1.0771 C   0  0  0  0  0  0  0  0  0  0  0  0
    5.0913   -1.1870    0.3860 H   0  0  0  0  0  0  0  0  0  0  0  0
    3.6442   -1.9844    0.7141 H   0  0  0  0  0  0  0  0  0  0  0  0
    3.7290    0.7549   -0.3896 H   0  0  0  0  0  0  0  0  0  0  0  0
    3.9124   -0.6758   -1.4930 H   0  0  0  0  0  0  0  0  0  0  0  0
    1.7851   -1.5826   -0.6380 H   0  0  0  0  0  0  0  0  0  0  0  0
    1.5470    0.0299   -1.3849 H   0  0  0  0  0  0  0  0  0  0  0  0
    1.7873    1.0921    0.8541 H   0  0  0  0  0  0  0  0  0  0  0  0
    2.2571   -0.0495    2.5758 H   0  0  0  0  0  0  0  0  0  0  0  0
   -0.2466    1.1466   -0.8557 H   0  0  0  0  0  0  0  0  0  0  0  0
   -3.9822   -0.5534   -0.6486 H   0  0  0  0  0  0  0  0  0  0  0  0
   -2.5055   -1.0837   -1.5128 H   0  0  0  0  0  0  0  0  0  0  0  0
   -2.6914   -2.5929    0.1263 H   0  0  0  0  0  0  0  0  0  0  0  0
   -4.0846    1.3553    0.6481 H   0  0  0  0  0  0  0  0  0  0  0  0
   -2.6172    2.3870    1.0653 H   0  0  0  0  0  0  0  0  0  0  0  0
   -3.5057    1.5248   -1.8676 H   0  0  0  0  0  0  0  0  0  0  0  0
   -2.0660    2.5748   -1.3764 H   0  0  0  0  0  0  0  0  0  0  0  0
  1  2  1  0
  2  3  1  0
  3  4  1  0
  4  5  1  0
  4  6  1  0
  6  7  2  0
  6  8  1  0
  8  9  1  0
  9 10  1  0
 10 11  1  0
  9 12  1  0
 12 13  1  0
 13  9  1  0
  1 14  1  0
  1 15  1  0
  2 16  1  0
  2 17  1  0
  3 18  1  0
  3 19  1  0
  4 20  1  1
  5 21  1  0
  8 22  1  0
 10 23  1  0
 10 24  1  0
 11 25  1  0
 12 26  1  0
 12 27  1  0
 13 28  1  0
 13 29  1  0
M  END
$$$$
