
     RDKit          3D

 30 31  0  0  0  0  0  0  0  0999 V2000
    3.4243   -1.4335   -0.7837 O   0  0  0  0  0  0  0  0  0  0  0  0
    3.7374   -0.0689   -0.8883 C   0  0  0  0  0  0  0  0  0  0  0  0
    2.9411    0.6821    0.1653 C   0  0  1  0  0  0  0  0  0  0  0  0
    3.2274    2.0409    0.0903 O   0  0  0  0  0  0  0  0  0  0  0  0
    1.4492    0.4487   -0.0640 C   0  0  0  0  0  0  0  0  0  0  0  0
    0.7834    1.1419    0.9289 O   0  0  0  0  0  0  0  0  0  0  0  0
   -0.6025    1.0113    0.8341 C   0  0  0  0  0  0  0  0  0  0  0  0
   -1.0619   -0.3962    0.9400 C   0  0  1  0  0  0  0  0  0  0  0  0
   -2.4901   -0.7767    0.8634 C   0  0  1  0  0  0  0  0  0  0  0  0
   -3.4903    0.0847    0.1494 C   0  0  0  0  0  0  0  0  0  0  0  0
   -3.3714   -0.1745   -1.2540 N   0  0  0  0  0  0  0  0  0  0  0  0
   -1.9951   -0.4975   -1.4980 C   0  0  0  0  0  0  0  0  0  0  0  0
   -1.5001   -1.1335   -0.2439 C   0  0  1  0  0  0  0  0  0  0  0  0
    3.9966   -1.7834   -0.0320 H   0  0  0  0  0  0  0  0  0  0  0  0
    4.8032    0.0766   -0.7186 H   0  0  0  0  0  0  0  0  0  0  0  0
    3.4155    0.2855   -1.9097 H   0  0  0  0  0  0  0  0  0  0  0  0
    3.2592    0.3216    1.1504 H   0  0  0  0  0  0  0  0  0  0  0  0
    2.8352    2.4710    0.8894 H   0  0  0  0  0  0  0  0  0  0  0  0
    1.1891    0.7529   -1.0852 H   0  0  0  0  0  0  0  0  0  0  0  0
    1.3029   -0.6576    0.0624 H   0  0  0  0  0  0  0  0  0  0  0  0
   -1.0187    1.6597    1.6596 H   0  0  0  0  0  0  0  0  0  0  0  0
   -0.9647    1.4831   -0.0947 H   0  0  0  0  0  0  0  0  0  0  0  0
   -0.4798   -0.9936    1.6949 H   0  0  0  0  0  0  0  0  0  0  0  0
   -2.8830   -1.5804    1.5067 H   0  0  0  0  0  0  0  0  0  0  0  0
   -3.3585    1.1666    0.3269 H   0  0  0  0  0  0  0  0  0  0  0  0
   -4.5253   -0.1754    0.4667 H   0  0  0  0  0  0  0  0  0  0  0  0
   -4.0487   -0.8691   -1.6258 H   0  0  0  0  0  0  0  0  0  0  0  0
   -1.4098    0.4085   -1.7099 H   0  0  0  0  0  0  0  0  0  0  0  0
   -1.8933   -1.2468   -2.3280 H   0  0  0  0  0  0  0  0  0  0  0  0
   -1.2714   -2.2478   -0.2765 H   0  0  0  0  0  0  0  0  0  0  0  0
  1  2  1  0
  2  3  1  0
  3  4  1  0
  3  5  1  0
  5  6  1  0
  6  7  1  0
  7  8  1  0
  8  9  1  0
  9 10  1  0
 10 11  1  0
 11 12  1  0
 12 13  1  0
 13  8  1  0
 13  9  1  0
  1 14  1  0
  2 15  1  0
  2 16  1  0
  3 17  1  1
  4 18  1  0
  5 19  1  0
  5 20  1  0
  7 21  1  0
  7 22  1  0
  8 23  1  1
  9 24  1  1
 10 25  1  0
 10 26  1  0
 11 27  1  0
 12 28  1  0
 12 29  1  0
 13 30  1  6
M  END
$$$$

     RDKit          3D

 30 31  0  0  0  0  0  0  0  0999 V2000
    3.4966    0.4467   -0.6904 O   0  0  0  0  0  0  0  0  0  0  0  0
    3.5208   -0.7893   -0.0882 C   0  0  0  0  0  0  0  0  0  0  0  0
    2.6786   -0.8248    1.1805 C   0  0  1  0  0  0  0  0  0  0  0  0
    3.1804    0.1072    2.0650 O   0  0  0  0  0  0  0  0  0  0  0  0
    1.2426   -0.5557    0.8500 C   0  0  0  0  0  0  0  0  0  0  0  0
    0.7157   -1.4805   -0.0384 O   0  0  0  0  0  0  0  0  0  0  0  0
   -0.6188   -1.1906   -0.3160 C   0  0  0  0  0  0  0  0  0  0  0  0
   -0.7528    0.1836   -0.9311 C   0  0  1  0  0  0  0  0  0  0  0  0
   -2.0379    0.7469   -1.3226 C   0  0  1  0  0  0  0  0  0  0  0  0
   -3.3508    0.3752   -0.7601 C   0  0  0  0  0  0  0  0  0  0  0  0
   -3.2632    0.2710    0.6583 N   0  0  0  0  0  0  0  0  0  0  0  0
   -2.0807    0.9378    1.0883 C   0  0  0  0  0  0  0  0  0  0  0  0
   -1.2978    1.3195   -0.1313 C   0  0  1  0  0  0  0  0  0  0  0  0
    4.0939    1.1158   -0.2752 H   0  0  0  0  0  0  0  0  0  0  0  0
    3.1079   -1.5225   -0.8109 H   0  0  0  0  0  0  0  0  0  0  0  0
    4.5668   -1.0648    0.1195 H   0  0  0  0  0  0  0  0  0  0  0  0
    2.7728   -1.8237    1.6329 H   0  0  0  0  0  0  0  0  0  0  0  0
    2.4524    0.7259    2.3042 H   0  0  0  0  0  0  0  0  0  0  0  0
    0.6544   -0.6651    1.8047 H   0  0  0  0  0  0  0  0  0  0  0  0
    1.1160    0.4915    0.5225 H   0  0  0  0  0  0  0  0  0  0  0  0
   -1.0059   -1.9886   -0.9735 H   0  0  0  0  0  0  0  0  0  0  0  0
   -1.1587   -1.2731    0.6581 H   0  0  0  0  0  0  0  0  0  0  0  0
    0.1157    0.4534   -1.5694 H   0  0  0  0  0  0  0  0  0  0  0  0
   -2.0879    1.3690   -2.2644 H   0  0  0  0  0  0  0  0  0  0  0  0
   -4.0767    1.2048   -0.9869 H   0  0  0  0  0  0  0  0  0  0  0  0
   -3.8096   -0.5298   -1.2310 H   0  0  0  0  0  0  0  0  0  0  0  0
   -3.4411   -0.6513    1.0606 H   0  0  0  0  0  0  0  0  0  0  0  0
   -2.3739    1.9027    1.5936 H   0  0  0  0  0  0  0  0  0  0  0  0
   -1.5069    0.3773    1.8404 H   0  0  0  0  0  0  0  0  0  0  0  0
   -0.8516    2.3314   -0.2242 H   0  0  0  0  0  0  0  0  0  0  0  0
  1  2  1  0
  2  3  1  0
  3  4  1  0
  3  5  1  0
  5  6  1  0
  6  7  1  0
  7  8  1  0
  8  9  1  0
  9 10  1  0
 10 11  1  0
 11 12  1  0
 12 13  1  0
 13  8  1  0
 13  9  1  0
  1 14  1  0
  2 15  1  0
  2 16  1  0
  3 17  1  1
  4 18  1  0
  5 19  1  0
  5 20  1  0
  7 21  1  0
  7 22  1  0
  8 23  1  6
  9 24  1  6
 10 25  1  0
 10 26  1  0
 11 27  1  0
 12 28  1  0
 12 29  1  0
 13 30  1  6
M  END
$$$$

     RDKit          3D

 30 31  0  0  0  0  0  0  0  0999 V2000
    4.3425    0.7311    1.5394 O   0  0  0  0  0  0  0  0  0  0  0  0
    4.2094   -0.4008    0.7380 C   0  0  0  0  0  0  0  0  0  0  0  0
    3.1977   -0.1155   -0.3397 C   0  0  1  0  0  0  0  0  0  0  0  0
    3.0654   -1.2453   -1.1389 O   0  0  0  0  0  0  0  0  0  0  0  0
    1.8340    0.2207    0.2753 C   0  0  0  0  0  0  0  0  0  0  0  0
    0.8999    0.4714   -0.6933 O   0  0  0  0  0  0  0  0  0  0  0  0
   -0.3628    0.8011   -0.2628 C   0  0  0  0  0  0  0  0  0  0  0  0
   -1.0250   -0.2615    0.5458 C   0  0  1  0  0  0  0  0  0  0  0  0
   -2.3913   -0.0771    1.0901 C   0  0  1  0  0  0  0  0  0  0  0  0
   -3.4104    0.8056    0.4753 C   0  0  0  0  0  0  0  0  0  0  0  0
   -3.3342    0.7189   -0.9500 N   0  0  0  0  0  0  0  0  0  0  0  0
   -2.9187   -0.6255   -1.1979 C   0  0  0  0  0  0  0  0  0  0  0  0
   -2.1200   -1.0969   -0.0209 C   0  0  1  0  0  0  0  0  0  0  0  0
    4.3034    1.5377    0.9986 H   0  0  0  0  0  0  0  0  0  0  0  0
    5.1840   -0.5555    0.2391 H   0  0  0  0  0  0  0  0  0  0  0  0
    3.9583   -1.2846    1.3302 H   0  0  0  0  0  0  0  0  0  0  0  0
    3.5370    0.7407   -0.9460 H   0  0  0  0  0  0  0  0  0  0  0  0
    2.1069   -1.4238   -1.2855 H   0  0  0  0  0  0  0  0  0  0  0  0
    1.5969   -0.6254    0.9392 H   0  0  0  0  0  0  0  0  0  0  0  0
    1.9486    1.1154    0.9275 H   0  0  0  0  0  0  0  0  0  0  0  0
   -0.2972    1.7539    0.3070 H   0  0  0  0  0  0  0  0  0  0  0  0
   -0.9819    0.9600   -1.1907 H   0  0  0  0  0  0  0  0  0  0  0  0
   -0.3547   -0.8158    1.2336 H   0  0  0  0  0  0  0  0  0  0  0  0
   -2.6646   -0.4803    2.0898 H   0  0  0  0  0  0  0  0  0  0  0  0
   -3.3772    1.8591    0.8338 H   0  0  0  0  0  0  0  0  0  0  0  0
   -4.4291    0.4326    0.7890 H   0  0  0  0  0  0  0  0  0  0  0  0
   -4.2775    0.9171   -1.3440 H   0  0  0  0  0  0  0  0  0  0  0  0
   -3.7575   -1.2911   -1.4046 H   0  0  0  0  0  0  0  0  0  0  0  0
   -2.2332   -0.6104   -2.0757 H   0  0  0  0  0  0  0  0  0  0  0  0
   -2.2486   -2.1559    0.2831 H   0  0  0  0  0  0  0  0  0  0  0  0
  1  2  1  0
  2  3  1  0
  3  4  1  0
  3  5  1  0
  5  6  1  0
  6  7  1  0
  7  8  1  0
  8  9  1  0
  9 10  1  0
 10 11  1  0
 11 12  1  0
 12 13  1  0
 13  8  1  0
 13  9  1  0
  1 14  1  0
  2 15  1  0
  2 16  1  0
  3 17  1  6
  4 18  1  0
  5 19  1  0
  5 20  1  0
  7 21  1  0
  7 22  1  0
  8 23  1  1
  9 24  1  1
 10 25  1  0
 10 26  1  0
 11 27  1  0
 12 28  1  0
 12 29  1  0
 13 30  1  1
M  END
$$$$

     RDKit          3D

 30 31  0  0  0  0  0  0  0  0999 V2000
    4.2740    0.5908    0.1700 O   0  0  0  0  0  0  0  0  0  0  0  0
    3.5921   -0.3261    0.9887 C   0  0  0  0  0  0  0  0  0  0  0  0
    2.0959   -0.2093    0.6521 C   0  0  1  0  0  0  0  0  0  0  0  0
    1.6705    1.0806    0.9040 O   0  0  0  0  0  0  0  0  0  0  0  0
    1.8880   -0.5843   -0.7753 C   0  0  0  0  0  0  0  0  0  0  0  0
    0.5977   -0.5953   -1.1506 O   0  0  0  0  0  0  0  0  0  0  0  0
   -0.1617    0.5360   -1.0872 C   0  0  0  0  0  0  0  0  0  0  0  0
   -1.5288    0.1575   -1.6551 C   0  0  1  0  0  0  0  0  0  0  0  0
   -2.2362   -0.9135   -0.9442 C   0  0  1  0  0  0  0  0  0  0  0  0
   -2.0927   -1.1142    0.5383 C   0  0  0  0  0  0  0  0  0  0  0  0
   -3.2381   -0.3461    1.0384 N   0  0  0  0  0  0  0  0  0  0  0  0
   -2.9576    0.9453    0.3907 C   0  0  0  0  0  0  0  0  0  0  0  0
   -2.7798    0.5514   -1.0310 C   0  0  1  0  0  0  0  0  0  0  0  0
    4.9158    1.1339    0.6572 H   0  0  0  0  0  0  0  0  0  0  0  0
    3.7095   -0.1137    2.0559 H   0  0  0  0  0  0  0  0  0  0  0  0
    3.9473   -1.3416    0.7215 H   0  0  0  0  0  0  0  0  0  0  0  0
    1.5931   -0.9382    1.3519 H   0  0  0  0  0  0  0  0  0  0  0  0
    2.4224    1.6883    1.0400 H   0  0  0  0  0  0  0  0  0  0  0  0
    2.3268   -1.6238   -0.9564 H   0  0  0  0  0  0  0  0  0  0  0  0
    2.4435    0.1245   -1.4610 H   0  0  0  0  0  0  0  0  0  0  0  0
   -0.2861    0.9347   -0.0564 H   0  0  0  0  0  0  0  0  0  0  0  0
    0.2796    1.3324   -1.7221 H   0  0  0  0  0  0  0  0  0  0  0  0
   -1.5151    0.0953   -2.7576 H   0  0  0  0  0  0  0  0  0  0  0  0
   -2.8206   -1.6748   -1.4975 H   0  0  0  0  0  0  0  0  0  0  0  0
   -2.1520   -2.1756    0.8470 H   0  0  0  0  0  0  0  0  0  0  0  0
   -1.1933   -0.6038    0.9320 H   0  0  0  0  0  0  0  0  0  0  0  0
   -3.2547   -0.2791    2.0601 H   0  0  0  0  0  0  0  0  0  0  0  0
   -3.8145    1.6457    0.5512 H   0  0  0  0  0  0  0  0  0  0  0  0
   -2.0463    1.3369    0.8792 H   0  0  0  0  0  0  0  0  0  0  0  0
   -3.6788    0.6862   -1.6646 H   0  0  0  0  0  0  0  0  0  0  0  0
  1  2  1  0
  2  3  1  0
  3  4  1  0
  3  5  1  0
  5  6  1  0
  6  7  1  0
  7  8  1  0
  8  9  1  0
  9 10  1  0
 10 11  1  0
 11 12  1  0
 12 13  1  0
 13  8  1  0
 13  9  1  0
  1 14  1  0
  2 15  1  0
  2 16  1  0
  3 17  1  1
  4 18  1  0
  5 19  1  0
  5 20  1  0
  7 21  1  0
  7 22  1  0
  8 23  1  6
  9 24  1  6
 10 25  1  0
 10 26  1  0
 11 27  1  0
 12 28  1  0
 12 29  1  0
 13 30  1  6
M  END
$$$$

     RDKit          3D

 30 31  0  0  0  0  0  0  0  0999 V2000
    2.4831   -0.9577    1.6486 O   0  0  0  0  0  0  0  0  0  0  0  0
    3.3725   -0.0033    1.1561 C   0  0  0  0  0  0  0  0  0  0  0  0
    3.3651    0.0308   -0.3503 C   0  0  1  0  0  0  0  0  0  0  0  0
    3.7340   -1.2034   -0.8548 O   0  0  0  0  0  0  0  0  0  0  0  0
    1.9681    0.4019   -0.8742 C   0  0  0  0  0  0  0  0  0  0  0  0
    1.1231   -0.5808   -0.4371 O   0  0  0  0  0  0  0  0  0  0  0  0
   -0.1918   -0.4797   -0.7822 C   0  0  0  0  0  0  0  0  0  0  0  0
   -0.8853    0.7436   -0.2929 C   0  0  1  0  0  0  0  0  0  0  0  0
   -2.3174    0.9566   -0.6080 C   0  0  1  0  0  0  0  0  0  0  0  0
   -3.1547   -0.2440   -0.9508 C   0  0  0  0  0  0  0  0  0  0  0  0
   -3.8075   -0.5137    0.3386 N   0  0  0  0  0  0  0  0  0  0  0  0
   -2.6263   -0.4849    1.2157 C   0  0  0  0  0  0  0  0  0  0  0  0
   -1.8488    0.7184    0.8266 C   0  0  1  0  0  0  0  0  0  0  0  0
    2.2329   -0.8136    2.5740 H   0  0  0  0  0  0  0  0  0  0  0  0
    4.3822   -0.2879    1.4764 H   0  0  0  0  0  0  0  0  0  0  0  0
    3.1309    1.0042    1.5591 H   0  0  0  0  0  0  0  0  0  0  0  0
    4.1092    0.8040   -0.6560 H   0  0  0  0  0  0  0  0  0  0  0  0
    3.0839   -1.4680   -1.5677 H   0  0  0  0  0  0  0  0  0  0  0  0
    2.0679    0.3178   -1.9960 H   0  0  0  0  0  0  0  0  0  0  0  0
    1.7076    1.4265   -0.6126 H   0  0  0  0  0  0  0  0  0  0  0  0
   -0.3349   -0.5954   -1.8875 H   0  0  0  0  0  0  0  0  0  0  0  0
   -0.7146   -1.3634   -0.3327 H   0  0  0  0  0  0  0  0  0  0  0  0
   -0.2740    1.6748   -0.3548 H   0  0  0  0  0  0  0  0  0  0  0  0
   -2.7374    1.9622   -0.7895 H   0  0  0  0  0  0  0  0  0  0  0  0
   -2.5579   -1.1318   -1.1814 H   0  0  0  0  0  0  0  0  0  0  0  0
   -3.8982   -0.0445   -1.7412 H   0  0  0  0  0  0  0  0  0  0  0  0
   -4.3828    0.3593    0.5387 H   0  0  0  0  0  0  0  0  0  0  0  0
   -3.0223   -0.3708    2.2586 H   0  0  0  0  0  0  0  0  0  0  0  0
   -2.1099   -1.4392    1.1507 H   0  0  0  0  0  0  0  0  0  0  0  0
   -1.8966    1.5822    1.5265 H   0  0  0  0  0  0  0  0  0  0  0  0
  1  2  1  0
  2  3  1  0
  3  4  1  0
  3  5  1  0
  5  6  1  0
  6  7  1  0
  7  8  1  0
  8  9  1  0
  9 10  1  0
 10 11  1  0
 11 12  1  0
 12 13  1  0
 13  8  1  0
 13  9  1  0
  1 14  1  0
  2 15  1  0
  2 16  1  0
  3 17  1  1
  4 18  1  0
  5 19  1  0
  5 20  1  0
  7 21  1  0
  7 22  1  0
  8 23  1  1
  9 24  1  1
 10 25  1  0
 10 26  1  0
 11 27  1  0
 12 28  1  0
 12 29  1  0
 13 30  1  1
M  END
$$$$

     RDKit          3D

 30 31  0  0  0  0  0  0  0  0999 V2000
    3.8447   -0.8361   -1.2515 O   0  0  0  0  0  0  0  0  0  0  0  0
    4.0965    0.1671   -0.3432 C   0  0  0  0  0  0  0  0  0  0  0  0
    2.8098    0.9178   -0.0624 C   0  0  1  0  0  0  0  0  0  0  0  0
    2.3311    1.4669   -1.2518 O   0  0  0  0  0  0  0  0  0  0  0  0
    1.7931   -0.0685    0.4471 C   0  0  0  0  0  0  0  0  0  0  0  0
    0.5666    0.5673    0.6855 O   0  0  0  0  0  0  0  0  0  0  0  0
   -0.3329   -0.4027    1.1565 C   0  0  0  0  0  0  0  0  0  0  0  0
   -1.6434    0.2703    1.4127 C   0  0  1  0  0  0  0  0  0  0  0  0
   -2.3753    0.9547    0.3184 C   0  0  1  0  0  0  0  0  0  0  0  0
   -2.2793    0.4967   -1.0958 C   0  0  0  0  0  0  0  0  0  0  0  0
   -3.3562   -0.4957   -1.2318 N   0  0  0  0  0  0  0  0  0  0  0  0
   -3.0673   -1.3342   -0.0581 C   0  0  0  0  0  0  0  0  0  0  0  0
   -2.9361   -0.3077    1.0187 C   0  0  1  0  0  0  0  0  0  0  0  0
    4.5140   -1.5628   -1.1989 H   0  0  0  0  0  0  0  0  0  0  0  0
    4.8400    0.9147   -0.7461 H   0  0  0  0  0  0  0  0  0  0  0  0
    4.5301   -0.2079    0.6049 H   0  0  0  0  0  0  0  0  0  0  0  0
    2.9447    1.6966    0.7091 H   0  0  0  0  0  0  0  0  0  0  0  0
    2.8104    1.0374   -2.0192 H   0  0  0  0  0  0  0  0  0  0  0  0
    1.6682   -0.8916   -0.2796 H   0  0  0  0  0  0  0  0  0  0  0  0
    2.1703   -0.4427    1.4258 H   0  0  0  0  0  0  0  0  0  0  0  0
    0.0266   -0.8182    2.1212 H   0  0  0  0  0  0  0  0  0  0  0  0
   -0.3536   -1.2001    0.4161 H   0  0  0  0  0  0  0  0  0  0  0  0
   -1.6611    0.8336    2.3905 H   0  0  0  0  0  0  0  0  0  0  0  0
   -2.9292    1.8962    0.5095 H   0  0  0  0  0  0  0  0  0  0  0  0
   -1.3360    0.0308   -1.3797 H   0  0  0  0  0  0  0  0  0  0  0  0
   -2.4885    1.3411   -1.8072 H   0  0  0  0  0  0  0  0  0  0  0  0
   -4.2542    0.0421   -1.0442 H   0  0  0  0  0  0  0  0  0  0  0  0
   -2.1446   -1.9002   -0.2642 H   0  0  0  0  0  0  0  0  0  0  0  0
   -3.9427   -2.0155    0.1128 H   0  0  0  0  0  0  0  0  0  0  0  0
   -3.8457   -0.1493    1.6298 H   0  0  0  0  0  0  0  0  0  0  0  0
  1  2  1  0
  2  3  1  0
  3  4  1  0
  3  5  1  0
  5  6  1  0
  6  7  1  0
  7  8  1  0
  8  9  1  0
  9 10  1  0
 10 11  1  0
 11 12  1  0
 12 13  1  0
 13  8  1  0
 13  9  1  0
  1 14  1  0
  2 15  1  0
  2 16  1  0
  3 17  1  1
  4 18  1  0
  5 19  1  0
  5 20  1  0
  7 21  1  0
  7 22  1  0
  8 23  1  1
  9 24  1  6
 10 25  1  0
 10 26  1  0
 11 27  1  0
 12 28  1  0
 12 29  1  0
 13 30  1  1
M  END
$$$$

     RDKit          3D

 30 31  0  0  0  0  0  0  0  0999 V2000
    4.9039   -0.0445   -0.3147 O   0  0  0  0  0  0  0  0  0  0  0  0
    3.5222   -0.0616   -0.5033 C   0  0  0  0  0  0  0  0  0  0  0  0
    2.8616    0.2291    0.8375 C   0  0  1  0  0  0  0  0  0  0  0  0
    3.2413    1.4664    1.3286 O   0  0  0  0  0  0  0  0  0  0  0  0
    1.3463    0.2199    0.6563 C   0  0  0  0  0  0  0  0  0  0  0  0
    1.0009   -1.0160    0.1698 O   0  0  0  0  0  0  0  0  0  0  0  0
   -0.3467   -1.1904   -0.0513 C   0  0  0  0  0  0  0  0  0  0  0  0
   -0.9339   -0.2334   -1.0385 C   0  0  1  0  0  0  0  0  0  0  0  0
   -2.3998   -0.3909   -1.3068 C   0  0  1  0  0  0  0  0  0  0  0  0
   -3.2493   -1.1068   -0.2946 C   0  0  0  0  0  0  0  0  0  0  0  0
   -3.5859   -0.0982    0.6834 N   0  0  0  0  0  0  0  0  0  0  0  0
   -2.5074    0.8462    0.7285 C   0  0  0  0  0  0  0  0  0  0  0  0
   -1.8891    0.8208   -0.6358 C   0  0  1  0  0  0  0  0  0  0  0  0
    5.1181    0.4133    0.5251 H   0  0  0  0  0  0  0  0  0  0  0  0
    3.2116   -1.0833   -0.8139 H   0  0  0  0  0  0  0  0  0  0  0  0
    3.2890    0.7067   -1.2498 H   0  0  0  0  0  0  0  0  0  0  0  0
    3.0995   -0.5676    1.5535 H   0  0  0  0  0  0  0  0  0  0  0  0
    3.6894    2.0128    0.6473 H   0  0  0  0  0  0  0  0  0  0  0  0
    0.8649    0.4582    1.6097 H   0  0  0  0  0  0  0  0  0  0  0  0
    1.1332    1.0113   -0.0996 H   0  0  0  0  0  0  0  0  0  0  0  0
   -0.8692   -1.1037    0.9399 H   0  0  0  0  0  0  0  0  0  0  0  0
   -0.4852   -2.2490   -0.3894 H   0  0  0  0  0  0  0  0  0  0  0  0
   -0.3087    0.0102   -1.9260 H   0  0  0  0  0  0  0  0  0  0  0  0
   -2.7573   -0.2682   -2.3380 H   0  0  0  0  0  0  0  0  0  0  0  0
   -2.7331   -1.9720    0.1624 H   0  0  0  0  0  0  0  0  0  0  0  0
   -4.1868   -1.4741   -0.7599 H   0  0  0  0  0  0  0  0  0  0  0  0
   -4.4434    0.3978    0.3503 H   0  0  0  0  0  0  0  0  0  0  0  0
   -2.9246    1.8469    0.9504 H   0  0  0  0  0  0  0  0  0  0  0  0
   -1.7732    0.6329    1.5334 H   0  0  0  0  0  0  0  0  0  0  0  0
   -1.8883    1.7872   -1.1967 H   0  0  0  0  0  0  0  0  0  0  0  0
  1  2  1  0
  2  3  1  0
  3  4  1  0
  3  5  1  0
  5  6  1  0
  6  7  1  0
  7  8  1  0
  8  9  1  0
  9 10  1  0
 10 11  1  0
 11 12  1  0
 12 13  1  0
 13  8  1  0
 13  9  1  0
  1 14  1  0
  2 15  1  0
  2 16  1  0
  3 17  1  1
  4 18  1  0
  5 19  1  0
  5 20  1  0
  7 21  1  0
  7 22  1  0
  8 23  1  6
  9 24  1  6
 10 25  1  0
 10 26  1  0
 11 27  1  0
 12 28  1  0
 12 29  1  0
 13 30  1  6
M  END
$$$$

     RDKit          3D

 30 31  0  0  0  0  0  0  0  0999 V2000
    2.6438    1.0497   -2.0708 O   0  0  0  0  0  0  0  0  0  0  0  0
    3.3496    1.0445   -0.8744 C   0  0  0  0  0  0  0  0  0  0  0  0
    2.9820   -0.2169   -0.0938 C   0  0  1  0  0  0  0  0  0  0  0  0
    3.6876   -0.2233    1.1034 O   0  0  0  0  0  0  0  0  0  0  0  0
    1.4869   -0.1470    0.1397 C   0  0  0  0  0  0  0  0  0  0  0  0
    1.0986   -1.2769    0.8943 O   0  0  0  0  0  0  0  0  0  0  0  0
   -0.3005   -1.1674    1.0860 C   0  0  0  0  0  0  0  0  0  0  0  0
   -0.9932   -1.1483   -0.2235 C   0  0  1  0  0  0  0  0  0  0  0  0
   -2.4732   -1.0420   -0.2285 C   0  0  1  0  0  0  0  0  0  0  0  0
   -3.1302   -0.4228    0.9608 C   0  0  0  0  0  0  0  0  0  0  0  0
   -3.3034    0.9694    0.5265 N   0  0  0  0  0  0  0  0  0  0  0  0
   -1.9803    1.2511    0.0019 C   0  0  0  0  0  0  0  0  0  0  0  0
   -1.5786    0.0668   -0.8179 C   0  0  1  0  0  0  0  0  0  0  0  0
    2.6233    1.9513   -2.4832 H   0  0  0  0  0  0  0  0  0  0  0  0
    4.4438    1.1109   -1.0460 H   0  0  0  0  0  0  0  0  0  0  0  0
    3.0047    1.9105   -0.2646 H   0  0  0  0  0  0  0  0  0  0  0  0
    3.2556   -1.1082   -0.6709 H   0  0  0  0  0  0  0  0  0  0  0  0
    3.2141   -0.7840    1.7911 H   0  0  0  0  0  0  0  0  0  0  0  0
    0.9864   -0.1957   -0.8490 H   0  0  0  0  0  0  0  0  0  0  0  0
    1.2527    0.7769    0.6927 H   0  0  0  0  0  0  0  0  0  0  0  0
   -0.4865   -0.2861    1.7322 H   0  0  0  0  0  0  0  0  0  0  0  0
   -0.5995   -2.0715    1.6527 H   0  0  0  0  0  0  0  0  0  0  0  0
   -0.5839   -1.8806   -0.9628 H   0  0  0  0  0  0  0  0  0  0  0  0
   -3.0791   -1.6232   -0.9581 H   0  0  0  0  0  0  0  0  0  0  0  0
   -4.1135   -0.8851    1.1899 H   0  0  0  0  0  0  0  0  0  0  0  0
   -2.4941   -0.4035    1.8606 H   0  0  0  0  0  0  0  0  0  0  0  0
   -3.9659    0.9014   -0.3023 H   0  0  0  0  0  0  0  0  0  0  0  0
   -1.2811    1.5184    0.8009 H   0  0  0  0  0  0  0  0  0  0  0  0
   -2.0760    2.1519   -0.6667 H   0  0  0  0  0  0  0  0  0  0  0  0
   -1.5900    0.1795   -1.9200 H   0  0  0  0  0  0  0  0  0  0  0  0
  1  2  1  0
  2  3  1  0
  3  4  1  0
  3  5  1  0
  5  6  1  0
  6  7  1  0
  7  8  1  0
  8  9  1  0
  9 10  1  0
 10 11  1  0
 11 12  1  0
 12 13  1  0
 13  8  1  0
 13  9  1  0
  1 14  1  0
  2 15  1  0
  2 16  1  0
  3 17  1  6
  4 18  1  0
  5 19  1  0
  5 20  1  0
  7 21  1  0
  7 22  1  0
  8 23  1  6
  9 24  1  6
 10 25  1  0
 10 26  1  0
 11 27  1  0
 12 28  1  0
 12 29  1  0
 13 30  1  6
M  END
$$$$
