
     RDKit          3D

 30 30  0  0  0  0  0  0  0  0999 V2000
    3.1169   -0.3686    1.2044 N   0  0  0  0  0  0  0  0  0  0  0  0
    1.9810   -0.6189    0.3218 C   0  0  2  0  0  0  0  0  0  0  0  0
    2.4184   -0.0495   -1.0402 C   0  0  0  0  0  0  0  0  0  0  0  0
    2.6643    1.3092   -0.8285 O   0  0  0  0  0  0  0  0  0  0  0  0
    0.7752    0.1481    0.8052 C   0  0  0  0  0  0  0  0  0  0  0  0
   -0.3806   -0.1028   -0.0760 N   0  0  0  0  0  0  0  0  0  0  0  0
   -0.7591   -1.4508    0.1320 C   0  0  0  0  0  0  0  0  0  0  0  0
   -2.2390   -1.7230    0.1344 C   0  0  0  0  0  0  0  0  0  0  0  0
   -2.8551   -0.7723    0.9083 O   0  0  0  0  0  0  0  0  0  0  0  0
   -2.7408    0.4923    0.3547 C   0  0  0  0  0  0  0  0  0  0  0  0
   -1.3313    0.9153    0.1039 C   0  0  2  0  0  0  0  0  0  0  0  0
   -1.3602    1.7786   -1.1584 C   0  0  0  0  0  0  0  0  0  0  0  0
   -0.1429    2.3451   -1.4044 F   0  0  0  0  0  0  0  0  0  0  0  0
    3.3061   -1.2357    1.7636 H   0  0  0  0  0  0  0  0  0  0  0  0
    2.8963    0.4164    1.8519 H   0  0  0  0  0  0  0  0  0  0  0  0
    1.8294   -1.6927    0.2380 H   0  0  0  0  0  0  0  0  0  0  0  0
    3.3062   -0.5953   -1.3627 H   0  0  0  0  0  0  0  0  0  0  0  0
    1.5582   -0.1490   -1.7236 H   0  0  0  0  0  0  0  0  0  0  0  0
    3.4588    1.6102   -1.3399 H   0  0  0  0  0  0  0  0  0  0  0  0
    1.0117    1.2149    0.8261 H   0  0  0  0  0  0  0  0  0  0  0  0
    0.5266   -0.1735    1.8342 H   0  0  0  0  0  0  0  0  0  0  0  0
   -0.3288   -2.0713   -0.7060 H   0  0  0  0  0  0  0  0  0  0  0  0
   -0.3223   -1.8856    1.0668 H   0  0  0  0  0  0  0  0  0  0  0  0
   -2.3817   -2.7052    0.6498 H   0  0  0  0  0  0  0  0  0  0  0  0
   -2.6369   -1.7772   -0.8898 H   0  0  0  0  0  0  0  0  0  0  0  0
   -3.2398    1.2013    1.0436 H   0  0  0  0  0  0  0  0  0  0  0  0
   -3.3427    0.5136   -0.5899 H   0  0  0  0  0  0  0  0  0  0  0  0
   -1.0317    1.6193    0.9277 H   0  0  0  0  0  0  0  0  0  0  0  0
   -2.0817    2.6261   -1.0211 H   0  0  0  0  0  0  0  0  0  0  0  0
   -1.6745    1.1809   -2.0257 H   0  0  0  0  0  0  0  0  0  0  0  0
  1  2  1  0
  2  3  1  0
  3  4  1  0
  2  5  1  0
  5  6  1  0
  6  7  1  0
  7  8  1  0
  8  9  1  0
  9 10  1  0
 10 11  1  0
 11 12  1  0
 12 13  1  0
 11  6  1  0
  1 14  1  0
  1 15  1  0
  2 16  1  6
  3 17  1  0
  3 18  1  0
  4 19  1  0
  5 20  1  0
  5 21  1  0
  7 22  1  0
  7 23  1  0
  8 24  1  0
  8 25  1  0
 10 26  1  0
 10 27  1  0
 11 28  1  1
 12 29  1  0
 12 30  1  0
M  END
$$$$

     RDKit          3D

 30 30  0  0  0  0  0  0  0  0999 V2000
    2.7983   -1.5288   -0.1375 N   0  0  0  0  0  0  0  0  0  0  0  0
    1.6647   -0.7651   -0.6897 C   0  0  2  0  0  0  0  0  0  0  0  0
    2.3205    0.4161   -1.4623 C   0  0  0  0  0  0  0  0  0  0  0  0
    3.0431    1.1394   -0.5247 O   0  0  0  0  0  0  0  0  0  0  0  0
    0.8743   -0.1644    0.4120 C   0  0  0  0  0  0  0  0  0  0  0  0
   -0.2450    0.5794   -0.0173 N   0  0  0  0  0  0  0  0  0  0  0  0
   -0.6016    1.5328    1.0492 C   0  0  0  0  0  0  0  0  0  0  0  0
   -1.9834    1.4280    1.5619 C   0  0  0  0  0  0  0  0  0  0  0  0
   -2.3877    0.1370    1.8623 O   0  0  0  0  0  0  0  0  0  0  0  0
   -2.0161   -0.7850    0.9341 C   0  0  0  0  0  0  0  0  0  0  0  0
   -1.4586   -0.0914   -0.3202 C   0  0  2  0  0  0  0  0  0  0  0  0
   -1.4794   -1.0518   -1.4601 C   0  0  0  0  0  0  0  0  0  0  0  0
   -2.8038   -1.5190   -1.5752 F   0  0  0  0  0  0  0  0  0  0  0  0
    2.5533   -2.5354   -0.2364 H   0  0  0  0  0  0  0  0  0  0  0  0
    2.9561   -1.2069    0.8289 H   0  0  0  0  0  0  0  0  0  0  0  0
    1.1567   -1.3326   -1.4483 H   0  0  0  0  0  0  0  0  0  0  0  0
    1.4900    1.0167   -1.8733 H   0  0  0  0  0  0  0  0  0  0  0  0
    2.9720    0.0106   -2.2643 H   0  0  0  0  0  0  0  0  0  0  0  0
    2.5274    1.9502   -0.2631 H   0  0  0  0  0  0  0  0  0  0  0  0
    1.5680    0.5237    0.9790 H   0  0  0  0  0  0  0  0  0  0  0  0
    0.6285   -0.9878    1.1214 H   0  0  0  0  0  0  0  0  0  0  0  0
   -0.5319    2.5394    0.5237 H   0  0  0  0  0  0  0  0  0  0  0  0
    0.1981    1.5474    1.7892 H   0  0  0  0  0  0  0  0  0  0  0  0
   -1.9880    1.9523    2.5692 H   0  0  0  0  0  0  0  0  0  0  0  0
   -2.7353    1.9928    0.9538 H   0  0  0  0  0  0  0  0  0  0  0  0
   -1.3206   -1.5163    1.3562 H   0  0  0  0  0  0  0  0  0  0  0  0
   -2.8886   -1.4035    0.5467 H   0  0  0  0  0  0  0  0  0  0  0  0
   -2.2109    0.7068   -0.5398 H   0  0  0  0  0  0  0  0  0  0  0  0
   -1.2064   -0.5970   -2.4000 H   0  0  0  0  0  0  0  0  0  0  0  0
   -0.8938   -1.9877   -1.2754 H   0  0  0  0  0  0  0  0  0  0  0  0
  1  2  1  0
  2  3  1  0
  3  4  1  0
  2  5  1  0
  5  6  1  0
  6  7  1  0
  7  8  1  0
  8  9  1  0
  9 10  1  0
 10 11  1  0
 11 12  1  0
 12 13  1  0
 11  6  1  0
  1 14  1  0
  1 15  1  0
  2 16  1  6
  3 17  1  0
  3 18  1  0
  4 19  1  0
  5 20  1  0
  5 21  1  0
  7 22  1  0
  7 23  1  0
  8 24  1  0
  8 25  1  0
 10 26  1  0
 10 27  1  0
 11 28  1  6
 12 29  1  0
 12 30  1  0
M  END
$$$$

     RDKit          3D

 30 30  0  0  0  0  0  0  0  0999 V2000
    1.8008   -1.6735   -0.0787 N   0  0  0  0  0  0  0  0  0  0  0  0
    1.7010   -0.2718   -0.3415 C   0  0  2  0  0  0  0  0  0  0  0  0
    3.1018    0.2953   -0.0313 C   0  0  0  0  0  0  0  0  0  0  0  0
    4.0341   -0.3147   -0.8589 O   0  0  0  0  0  0  0  0  0  0  0  0
    0.7619    0.4725    0.5427 C   0  0  0  0  0  0  0  0  0  0  0  0
   -0.5729    0.0846    0.5545 N   0  0  0  0  0  0  0  0  0  0  0  0
   -1.3712    0.9383    1.3633 C   0  0  0  0  0  0  0  0  0  0  0  0
   -2.1360    1.8831    0.4186 C   0  0  0  0  0  0  0  0  0  0  0  0
   -2.9470    1.0843   -0.3473 O   0  0  0  0  0  0  0  0  0  0  0  0
   -2.2747    0.2570   -1.2080 C   0  0  0  0  0  0  0  0  0  0  0  0
   -1.1743   -0.5397   -0.5455 C   0  0  2  0  0  0  0  0  0  0  0  0
   -1.8189   -1.8395   -0.0380 C   0  0  0  0  0  0  0  0  0  0  0  0
   -2.7588   -1.4817    0.9286 F   0  0  0  0  0  0  0  0  0  0  0  0
    1.9304   -2.1340   -1.0316 H   0  0  0  0  0  0  0  0  0  0  0  0
    2.5728   -1.9675    0.5260 H   0  0  0  0  0  0  0  0  0  0  0  0
    1.5071   -0.0052   -1.4031 H   0  0  0  0  0  0  0  0  0  0  0  0
    3.0969    1.3927   -0.1238 H   0  0  0  0  0  0  0  0  0  0  0  0
    3.3856    0.0299    1.0229 H   0  0  0  0  0  0  0  0  0  0  0  0
    4.9086    0.0851   -0.6400 H   0  0  0  0  0  0  0  0  0  0  0  0
    0.8479    1.5597    0.2693 H   0  0  0  0  0  0  0  0  0  0  0  0
    1.1816    0.4064    1.5901 H   0  0  0  0  0  0  0  0  0  0  0  0
   -2.1501    0.4556    1.9680 H   0  0  0  0  0  0  0  0  0  0  0  0
   -0.7641    1.5757    2.0200 H   0  0  0  0  0  0  0  0  0  0  0  0
   -2.7767    2.5831    0.9940 H   0  0  0  0  0  0  0  0  0  0  0  0
   -1.3937    2.4737   -0.1743 H   0  0  0  0  0  0  0  0  0  0  0  0
   -1.8348    0.7993   -2.0772 H   0  0  0  0  0  0  0  0  0  0  0  0
   -3.0028   -0.4634   -1.6397 H   0  0  0  0  0  0  0  0  0  0  0  0
   -0.4869   -0.8473   -1.3340 H   0  0  0  0  0  0  0  0  0  0  0  0
   -2.3213   -2.3919   -0.8327 H   0  0  0  0  0  0  0  0  0  0  0  0
   -1.0462   -2.4462    0.5080 H   0  0  0  0  0  0  0  0  0  0  0  0
  1  2  1  0
  2  3  1  0
  3  4  1  0
  2  5  1  0
  5  6  1  0
  6  7  1  0
  7  8  1  0
  8  9  1  0
  9 10  1  0
 10 11  1  0
 11 12  1  0
 12 13  1  0
 11  6  1  0
  1 14  1  0
  1 15  1  0
  2 16  1  6
  3 17  1  0
  3 18  1  0
  4 19  1  0
  5 20  1  0
  5 21  1  0
  7 22  1  0
  7 23  1  0
  8 24  1  0
  8 25  1  0
 10 26  1  0
 10 27  1  0
 11 28  1  6
 12 29  1  0
 12 30  1  0
M  END
$$$$

     RDKit          3D

 30 30  0  0  0  0  0  0  0  0999 V2000
    2.1821    0.6300   -1.5678 N   0  0  0  0  0  0  0  0  0  0  0  0
    1.9744    0.4325   -0.1436 C   0  0  2  0  0  0  0  0  0  0  0  0
    3.0993   -0.4701    0.3300 C   0  0  0  0  0  0  0  0  0  0  0  0
    2.8906   -0.6544    1.7079 O   0  0  0  0  0  0  0  0  0  0  0  0
    0.6790   -0.2651    0.1437 C   0  0  0  0  0  0  0  0  0  0  0  0
   -0.4866    0.3826   -0.2927 N   0  0  0  0  0  0  0  0  0  0  0  0
   -0.8695    1.5909    0.3325 C   0  0  0  0  0  0  0  0  0  0  0  0
   -2.1932    1.4052    1.0480 C   0  0  0  0  0  0  0  0  0  0  0  0
   -2.3460    0.1754    1.6412 O   0  0  0  0  0  0  0  0  0  0  0  0
   -2.1518   -0.9045    0.7902 C   0  0  0  0  0  0  0  0  0  0  0  0
   -1.6321   -0.4268   -0.5362 C   0  0  2  0  0  0  0  0  0  0  0  0
   -1.4861   -1.5179   -1.5286 C   0  0  0  0  0  0  0  0  0  0  0  0
   -2.7262   -2.1695   -1.6010 F   0  0  0  0  0  0  0  0  0  0  0  0
    2.8271   -0.0883   -1.9813 H   0  0  0  0  0  0  0  0  0  0  0  0
    2.6816    1.5551   -1.7264 H   0  0  0  0  0  0  0  0  0  0  0  0
    2.0965    1.3792    0.4236 H   0  0  0  0  0  0  0  0  0  0  0  0
    2.9632   -1.4437   -0.1511 H   0  0  0  0  0  0  0  0  0  0  0  0
    4.0884   -0.0126    0.1294 H   0  0  0  0  0  0  0  0  0  0  0  0
    2.3946    0.1126    2.0967 H   0  0  0  0  0  0  0  0  0  0  0  0
    0.7421   -1.2676   -0.3246 H   0  0  0  0  0  0  0  0  0  0  0  0
    0.6199   -0.4415    1.2374 H   0  0  0  0  0  0  0  0  0  0  0  0
   -0.1514    2.0148    1.0446 H   0  0  0  0  0  0  0  0  0  0  0  0
   -1.0443    2.3550   -0.4543 H   0  0  0  0  0  0  0  0  0  0  0  0
   -2.2351    2.1571    1.8897 H   0  0  0  0  0  0  0  0  0  0  0  0
   -3.0600    1.6663    0.4037 H   0  0  0  0  0  0  0  0  0  0  0  0
   -3.0288   -1.5392    0.6511 H   0  0  0  0  0  0  0  0  0  0  0  0
   -1.3725   -1.5486    1.2938 H   0  0  0  0  0  0  0  0  0  0  0  0
   -2.4323    0.2658   -0.9382 H   0  0  0  0  0  0  0  0  0  0  0  0
   -1.3236   -1.1236   -2.5651 H   0  0  0  0  0  0  0  0  0  0  0  0
   -0.6993   -2.2490   -1.3527 H   0  0  0  0  0  0  0  0  0  0  0  0
  1  2  1  0
  2  3  1  0
  3  4  1  0
  2  5  1  0
  5  6  1  0
  6  7  1  0
  7  8  1  0
  8  9  1  0
  9 10  1  0
 10 11  1  0
 11 12  1  0
 12 13  1  0
 11  6  1  0
  1 14  1  0
  1 15  1  0
  2 16  1  1
  3 17  1  0
  3 18  1  0
  4 19  1  0
  5 20  1  0
  5 21  1  0
  7 22  1  0
  7 23  1  0
  8 24  1  0
  8 25  1  0
 10 26  1  0
 10 27  1  0
 11 28  1  6
 12 29  1  0
 12 30  1  0
M  END
$$$$

     RDKit          3D

 30 30  0  0  0  0  0  0  0  0999 V2000
    1.6460   -0.9393   -1.4221 N   0  0  0  0  0  0  0  0  0  0  0  0
    1.6437   -0.0236   -0.3007 C   0  0  2  0  0  0  0  0  0  0  0  0
    3.0726   -0.0212    0.2321 C   0  0  0  0  0  0  0  0  0  0  0  0
    3.2318    0.8075    1.3348 O   0  0  0  0  0  0  0  0  0  0  0  0
    0.6835   -0.4205    0.7985 C   0  0  0  0  0  0  0  0  0  0  0  0
   -0.6131   -0.4881    0.3621 N   0  0  0  0  0  0  0  0  0  0  0  0
   -1.0978   -1.4652   -0.5057 C   0  0  0  0  0  0  0  0  0  0  0  0
   -1.9252   -0.9089   -1.5945 C   0  0  0  0  0  0  0  0  0  0  0  0
   -2.4970    0.2979   -1.4254 O   0  0  0  0  0  0  0  0  0  0  0  0
   -1.9066    1.1773   -0.5642 C   0  0  0  0  0  0  0  0  0  0  0  0
   -1.6119    0.4064    0.7373 C   0  0  2  0  0  0  0  0  0  0  0  0
   -1.2949    1.3487    1.8569 C   0  0  0  0  0  0  0  0  0  0  0  0
   -2.4280    2.1415    2.0592 F   0  0  0  0  0  0  0  0  0  0  0  0
    1.2320   -0.4762   -2.2804 H   0  0  0  0  0  0  0  0  0  0  0  0
    2.5994   -1.2788   -1.6730 H   0  0  0  0  0  0  0  0  0  0  0  0
    1.4525    1.0003   -0.7067 H   0  0  0  0  0  0  0  0  0  0  0  0
    3.7970    0.3116   -0.5315 H   0  0  0  0  0  0  0  0  0  0  0  0
    3.3545   -1.0721    0.5203 H   0  0  0  0  0  0  0  0  0  0  0  0
    2.5015    1.4750    1.3142 H   0  0  0  0  0  0  0  0  0  0  0  0
    1.0832   -1.4203    1.1684 H   0  0  0  0  0  0  0  0  0  0  0  0
    0.8873    0.2657    1.6547 H   0  0  0  0  0  0  0  0  0  0  0  0
   -1.7616   -2.1587    0.0993 H   0  0  0  0  0  0  0  0  0  0  0  0
   -0.3296   -2.1557   -0.9246 H   0  0  0  0  0  0  0  0  0  0  0  0
   -1.3127   -0.9246   -2.5435 H   0  0  0  0  0  0  0  0  0  0  0  0
   -2.7426   -1.6522   -1.8312 H   0  0  0  0  0  0  0  0  0  0  0  0
   -2.5723    1.9960   -0.3292 H   0  0  0  0  0  0  0  0  0  0  0  0
   -0.8977    1.4864   -0.9418 H   0  0  0  0  0  0  0  0  0  0  0  0
   -2.5628   -0.1086    0.9833 H   0  0  0  0  0  0  0  0  0  0  0  0
   -0.4670    2.0257    1.6551 H   0  0  0  0  0  0  0  0  0  0  0  0
   -1.1643    0.7743    2.7983 H   0  0  0  0  0  0  0  0  0  0  0  0
  1  2  1  0
  2  3  1  0
  3  4  1  0
  2  5  1  0
  5  6  1  0
  6  7  1  0
  7  8  1  0
  8  9  1  0
  9 10  1  0
 10 11  1  0
 11 12  1  0
 12 13  1  0
 11  6  1  0
  1 14  1  0
  1 15  1  0
  2 16  1  6
  3 17  1  0
  3 18  1  0
  4 19  1  0
  5 20  1  0
  5 21  1  0
  7 22  1  0
  7 23  1  0
  8 24  1  0
  8 25  1  0
 10 26  1  0
 10 27  1  0
 11 28  1  1
 12 29  1  0
 12 30  1  0
M  END
$$$$

     RDKit          3D

 30 30  0  0  0  0  0  0  0  0999 V2000
    2.1119    1.3116   -0.9210 N   0  0  0  0  0  0  0  0  0  0  0  0
    1.9586    0.5998    0.3345 C   0  0  2  0  0  0  0  0  0  0  0  0
    2.6310   -0.7427    0.3031 C   0  0  0  0  0  0  0  0  0  0  0  0
    4.0192   -0.6076    0.0808 O   0  0  0  0  0  0  0  0  0  0  0  0
    0.5828    0.5734    0.8800 C   0  0  0  0  0  0  0  0  0  0  0  0
   -0.4394   -0.0149    0.1186 N   0  0  0  0  0  0  0  0  0  0  0  0
   -0.4757   -1.3983   -0.0825 C   0  0  0  0  0  0  0  0  0  0  0  0
   -1.7804   -2.0728    0.2397 C   0  0  0  0  0  0  0  0  0  0  0  0
   -2.7297   -1.2008    0.7501 O   0  0  0  0  0  0  0  0  0  0  0  0
   -2.8400   -0.1390   -0.1352 C   0  0  0  0  0  0  0  0  0  0  0  0
   -1.6251    0.7380    0.0980 C   0  0  2  0  0  0  0  0  0  0  0  0
   -1.6191    1.8896   -0.8837 C   0  0  0  0  0  0  0  0  0  0  0  0
   -0.6276    2.7911   -0.6261 F   0  0  0  0  0  0  0  0  0  0  0  0
    3.0868    1.1285   -1.2518 H   0  0  0  0  0  0  0  0  0  0  0  0
    1.4572    0.9740   -1.6608 H   0  0  0  0  0  0  0  0  0  0  0  0
    2.5780    1.2128    1.0680 H   0  0  0  0  0  0  0  0  0  0  0  0
    2.5204   -1.2954    1.2473 H   0  0  0  0  0  0  0  0  0  0  0  0
    2.2634   -1.3291   -0.5911 H   0  0  0  0  0  0  0  0  0  0  0  0
    4.3708   -0.2010    0.9134 H   0  0  0  0  0  0  0  0  0  0  0  0
    0.2543    1.6268    1.1331 H   0  0  0  0  0  0  0  0  0  0  0  0
    0.6443    0.0889    1.9002 H   0  0  0  0  0  0  0  0  0  0  0  0
   -0.2022   -1.6535   -1.1280 H   0  0  0  0  0  0  0  0  0  0  0  0
    0.2981   -1.9157    0.5604 H   0  0  0  0  0  0  0  0  0  0  0  0
   -1.6597   -2.8754    0.9939 H   0  0  0  0  0  0  0  0  0  0  0  0
   -2.2255   -2.5468   -0.6601 H   0  0  0  0  0  0  0  0  0  0  0  0
   -2.8055   -0.5139   -1.1905 H   0  0  0  0  0  0  0  0  0  0  0  0
   -3.7706    0.4524    0.0368 H   0  0  0  0  0  0  0  0  0  0  0  0
   -1.7746    1.1912    1.1154 H   0  0  0  0  0  0  0  0  0  0  0  0
   -1.6014    1.4989   -1.9127 H   0  0  0  0  0  0  0  0  0  0  0  0
   -2.6005    2.4296   -0.7300 H   0  0  0  0  0  0  0  0  0  0  0  0
  1  2  1  0
  2  3  1  0
  3  4  1  0
  2  5  1  0
  5  6  1  0
  6  7  1  0
  7  8  1  0
  8  9  1  0
  9 10  1  0
 10 11  1  0
 11 12  1  0
 12 13  1  0
 11  6  1  0
  1 14  1  0
  1 15  1  0
  2 16  1  1
  3 17  1  0
  3 18  1  0
  4 19  1  0
  5 20  1  0
  5 21  1  0
  7 22  1  0
  7 23  1  0
  8 24  1  0
  8 25  1  0
 10 26  1  0
 10 27  1  0
 11 28  1  1
 12 29  1  0
 12 30  1  0
M  END
$$$$

     RDKit          3D

 30 30  0  0  0  0  0  0  0  0999 V2000
    2.0808    1.2186   -0.2473 N   0  0  0  0  0  0  0  0  0  0  0  0
    1.7351   -0.0746    0.2385 C   0  0  2  0  0  0  0  0  0  0  0  0
    2.9835   -0.9478    0.0999 C   0  0  0  0  0  0  0  0  0  0  0  0
    4.0131   -0.3971    0.8493 O   0  0  0  0  0  0  0  0  0  0  0  0
    0.5476   -0.7219   -0.4318 C   0  0  0  0  0  0  0  0  0  0  0  0
   -0.5903    0.0286   -0.2854 N   0  0  0  0  0  0  0  0  0  0  0  0
   -0.7836    1.2714   -0.9062 C   0  0  0  0  0  0  0  0  0  0  0  0
   -1.6421    2.1388    0.0022 C   0  0  0  0  0  0  0  0  0  0  0  0
   -2.7441    1.5030    0.4813 O   0  0  0  0  0  0  0  0  0  0  0  0
   -2.5150    0.2428    1.0258 C   0  0  0  0  0  0  0  0  0  0  0  0
   -1.8435   -0.5847   -0.0500 C   0  0  2  0  0  0  0  0  0  0  0  0
   -1.8810   -2.0341    0.2219 C   0  0  0  0  0  0  0  0  0  0  0  0
   -1.3624   -2.7519   -0.8297 F   0  0  0  0  0  0  0  0  0  0  0  0
    2.4843    1.8553    0.4573 H   0  0  0  0  0  0  0  0  0  0  0  0
    2.5294    1.2353   -1.1767 H   0  0  0  0  0  0  0  0  0  0  0  0
    1.5744   -0.0117    1.3535 H   0  0  0  0  0  0  0  0  0  0  0  0
    2.7730   -1.9590    0.5054 H   0  0  0  0  0  0  0  0  0  0  0  0
    3.2912   -0.9633   -0.9590 H   0  0  0  0  0  0  0  0  0  0  0  0
    4.6986    0.0067    0.2529 H   0  0  0  0  0  0  0  0  0  0  0  0
    0.4105   -1.6906    0.1418 H   0  0  0  0  0  0  0  0  0  0  0  0
    0.8571   -0.9685   -1.4750 H   0  0  0  0  0  0  0  0  0  0  0  0
   -1.4361    1.0924   -1.8149 H   0  0  0  0  0  0  0  0  0  0  0  0
    0.0657    1.8582   -1.2195 H   0  0  0  0  0  0  0  0  0  0  0  0
   -2.0032    2.9741   -0.6640 H   0  0  0  0  0  0  0  0  0  0  0  0
   -0.9909    2.6125    0.7340 H   0  0  0  0  0  0  0  0  0  0  0  0
   -3.5038   -0.1693    1.3080 H   0  0  0  0  0  0  0  0  0  0  0  0
   -1.8384    0.3072    1.8907 H   0  0  0  0  0  0  0  0  0  0  0  0
   -2.4752   -0.4101   -0.9749 H   0  0  0  0  0  0  0  0  0  0  0  0
   -1.4643   -2.3295    1.2049 H   0  0  0  0  0  0  0  0  0  0  0  0
   -2.9705   -2.3308    0.2672 H   0  0  0  0  0  0  0  0  0  0  0  0
  1  2  1  0
  2  3  1  0
  3  4  1  0
  2  5  1  0
  5  6  1  0
  6  7  1  0
  7  8  1  0
  8  9  1  0
  9 10  1  0
 10 11  1  0
 11 12  1  0
 12 13  1  0
 11  6  1  0
  1 14  1  0
  1 15  1  0
  2 16  1  1
  3 17  1  0
  3 18  1  0
  4 19  1  0
  5 20  1  0
  5 21  1  0
  7 22  1  0
  7 23  1  0
  8 24  1  0
  8 25  1  0
 10 26  1  0
 10 27  1  0
 11 28  1  6
 12 29  1  0
 12 30  1  0
M  END
$$$$

     RDKit          3D

 30 30  0  0  0  0  0  0  0  0999 V2000
    1.6630   -0.4771   -1.5846 N   0  0  0  0  0  0  0  0  0  0  0  0
    1.9073    0.3383   -0.4456 C   0  0  2  0  0  0  0  0  0  0  0  0
    2.6304   -0.4864    0.6168 C   0  0  0  0  0  0  0  0  0  0  0  0
    3.8153   -0.9373    0.0941 O   0  0  0  0  0  0  0  0  0  0  0  0
    0.6854    0.9916    0.1690 C   0  0  0  0  0  0  0  0  0  0  0  0
   -0.2992    0.0631    0.6444 N   0  0  0  0  0  0  0  0  0  0  0  0
   -1.2319    0.7768    1.5088 C   0  0  0  0  0  0  0  0  0  0  0  0
   -1.8899    1.8632    0.7236 C   0  0  0  0  0  0  0  0  0  0  0  0
   -2.7096    1.2845   -0.2326 O   0  0  0  0  0  0  0  0  0  0  0  0
   -2.5462   -0.0658   -0.3625 C   0  0  0  0  0  0  0  0  0  0  0  0
   -1.0933   -0.5278   -0.4019 C   0  0  2  0  0  0  0  0  0  0  0  0
   -1.1775   -2.0404   -0.2837 C   0  0  0  0  0  0  0  0  0  0  0  0
    0.0086   -2.6839   -0.3479 F   0  0  0  0  0  0  0  0  0  0  0  0
    2.1800   -1.3959   -1.4859 H   0  0  0  0  0  0  0  0  0  0  0  0
    1.8849   -0.0521   -2.4964 H   0  0  0  0  0  0  0  0  0  0  0  0
    2.6213    1.1357   -0.7375 H   0  0  0  0  0  0  0  0  0  0  0  0
    2.0020   -1.3222    0.9644 H   0  0  0  0  0  0  0  0  0  0  0  0
    2.8131    0.1917    1.4842 H   0  0  0  0  0  0  0  0  0  0  0  0
    4.2159   -0.3085   -0.5475 H   0  0  0  0  0  0  0  0  0  0  0  0
    1.0066    1.7272    0.9260 H   0  0  0  0  0  0  0  0  0  0  0  0
    0.2735    1.6229   -0.6816 H   0  0  0  0  0  0  0  0  0  0  0  0
   -1.9589    0.0589    1.9296 H   0  0  0  0  0  0  0  0  0  0  0  0
   -0.6797    1.2252    2.3726 H   0  0  0  0  0  0  0  0  0  0  0  0
   -1.1980    2.5440    0.2268 H   0  0  0  0  0  0  0  0  0  0  0  0
   -2.5615    2.4835    1.3963 H   0  0  0  0  0  0  0  0  0  0  0  0
   -3.0996   -0.6570    0.4274 H   0  0  0  0  0  0  0  0  0  0  0  0
   -3.0142   -0.3962   -1.3158 H   0  0  0  0  0  0  0  0  0  0  0  0
   -0.7080   -0.2396   -1.3978 H   0  0  0  0  0  0  0  0  0  0  0  0
   -1.7936   -2.3739   -1.1624 H   0  0  0  0  0  0  0  0  0  0  0  0
   -1.7461   -2.3425    0.6227 H   0  0  0  0  0  0  0  0  0  0  0  0
  1  2  1  0
  2  3  1  0
  3  4  1  0
  2  5  1  0
  5  6  1  0
  6  7  1  0
  7  8  1  0
  8  9  1  0
  9 10  1  0
 10 11  1  0
 11 12  1  0
 12 13  1  0
 11  6  1  0
  1 14  1  0
  1 15  1  0
  2 16  1  6
  3 17  1  0
  3 18  1  0
  4 19  1  0
  5 20  1  0
  5 21  1  0
  7 22  1  0
  7 23  1  0
  8 24  1  0
  8 25  1  0
 10 26  1  0
 10 27  1  0
 11 28  1  6
 12 29  1  0
 12 30  1  0
M  END
$$$$
