
     RDKit          3D

 26 26  0  0  0  0  0  0  0  0999 V2000
    3.5594    1.1965    0.7010 N   0  0  0  0  0  0  0  0  0  0  0  0
    3.6122   -0.2434    0.7936 C   0  0  0  0  0  0  0  0  0  0  0  0
    2.5571   -0.8340   -0.1504 C   0  0  1  0  0  0  0  0  0  0  0  0
    2.5664   -2.2177   -0.0992 O   0  0  0  0  0  0  0  0  0  0  0  0
    1.2274   -0.2568    0.2810 C   0  0  0  0  0  0  0  0  0  0  0  0
    0.1439   -0.7155   -0.5615 N   0  0  0  0  0  0  0  0  0  0  0  0
   -1.1683   -0.2629   -0.2862 C   0  0  0  0  0  0  0  0  0  0  0  0
   -1.3976    0.5757    0.7378 N   0  0  0  0  0  0  0  0  0  0  0  0
   -2.6591    0.9865    0.9711 C   0  0  0  0  0  0  0  0  0  0  0  0
   -3.7316    0.5780    0.1957 C   0  0  0  0  0  0  0  0  0  0  0  0
   -5.0589    1.0260    0.4613 N   0  0  0  0  0  0  0  0  0  0  0  0
   -3.4489   -0.2881   -0.8513 C   0  0  0  0  0  0  0  0  0  0  0  0
   -2.1921   -0.6823   -1.0644 N   0  0  0  0  0  0  0  0  0  0  0  0
    3.1268    1.4545   -0.2245 H   0  0  0  0  0  0  0  0  0  0  0  0
    4.5287    1.5780    0.7486 H   0  0  0  0  0  0  0  0  0  0  0  0
    4.6216   -0.6019    0.4871 H   0  0  0  0  0  0  0  0  0  0  0  0
    3.4206   -0.5196    1.8319 H   0  0  0  0  0  0  0  0  0  0  0  0
    2.7605   -0.5195   -1.1860 H   0  0  0  0  0  0  0  0  0  0  0  0
    3.1364   -2.6222   -0.8106 H   0  0  0  0  0  0  0  0  0  0  0  0
    1.0527   -0.5876    1.3234 H   0  0  0  0  0  0  0  0  0  0  0  0
    1.2328    0.8454    0.2265 H   0  0  0  0  0  0  0  0  0  0  0  0
    0.3828   -1.3587   -1.3322 H   0  0  0  0  0  0  0  0  0  0  0  0
   -2.9034    1.6684    1.7903 H   0  0  0  0  0  0  0  0  0  0  0  0
   -5.3284    2.0264    0.2530 H   0  0  0  0  0  0  0  0  0  0  0  0
   -5.7607    0.3877    0.8542 H   0  0  0  0  0  0  0  0  0  0  0  0
   -4.2800   -0.6130   -1.4630 H   0  0  0  0  0  0  0  0  0  0  0  0
  1  2  1  0
  2  3  1  0
  3  4  1  0
  3  5  1  0
  5  6  1  0
  6  7  1  0
  7  8  2  0
  8  9  1  0
  9 10  2  0
 10 11  1  0
 10 12  1  0
 12 13  2  0
 13  7  1  0
  1 14  1  0
  1 15  1  0
  2 16  1  0
  2 17  1  0
  3 18  1  6
  4 19  1  0
  5 20  1  0
  5 21  1  0
  6 22  1  0
  9 23  1  0
 11 24  1  0
 11 25  1  0
 12 26  1  0
M  END
$$$$

     RDKit          3D

 26 26  0  0  0  0  0  0  0  0999 V2000
   -3.2437    0.7910   -1.2963 N   0  0  0  0  0  0  0  0  0  0  0  0
   -3.2199    0.5542    0.1122 C   0  0  0  0  0  0  0  0  0  0  0  0
   -1.8462    0.1407    0.6098 C   0  0  1  0  0  0  0  0  0  0  0  0
   -1.9465   -0.0626    1.9979 O   0  0  0  0  0  0  0  0  0  0  0  0
   -1.4593   -1.1435   -0.0830 C   0  0  0  0  0  0  0  0  0  0  0  0
   -0.1882   -1.6357    0.3933 N   0  0  0  0  0  0  0  0  0  0  0  0
    0.9939   -0.8825    0.2048 C   0  0  0  0  0  0  0  0  0  0  0  0
    1.0006    0.2982   -0.4145 N   0  0  0  0  0  0  0  0  0  0  0  0
    2.1318    0.9947   -0.5821 C   0  0  0  0  0  0  0  0  0  0  0  0
    3.3116    0.4720   -0.1006 C   0  0  0  0  0  0  0  0  0  0  0  0
    4.5343    1.1802   -0.2585 N   0  0  0  0  0  0  0  0  0  0  0  0
    3.2993   -0.7472    0.5378 C   0  0  0  0  0  0  0  0  0  0  0  0
    2.1512   -1.4218    0.6910 N   0  0  0  0  0  0  0  0  0  0  0  0
   -3.2547    1.7968   -1.5648 H   0  0  0  0  0  0  0  0  0  0  0  0
   -3.9496    0.2247   -1.8119 H   0  0  0  0  0  0  0  0  0  0  0  0
   -3.4503    1.5304    0.6211 H   0  0  0  0  0  0  0  0  0  0  0  0
   -4.0026   -0.1476    0.4424 H   0  0  0  0  0  0  0  0  0  0  0  0
   -1.1182    0.9191    0.3762 H   0  0  0  0  0  0  0  0  0  0  0  0
   -2.2651   -0.9968    2.0997 H   0  0  0  0  0  0  0  0  0  0  0  0
   -1.3449   -0.9790   -1.1739 H   0  0  0  0  0  0  0  0  0  0  0  0
   -2.2489   -1.9273    0.0417 H   0  0  0  0  0  0  0  0  0  0  0  0
   -0.1646   -2.5755    0.8875 H   0  0  0  0  0  0  0  0  0  0  0  0
    2.1342    1.9617   -1.0898 H   0  0  0  0  0  0  0  0  0  0  0  0
    5.1667    0.9229   -1.0445 H   0  0  0  0  0  0  0  0  0  0  0  0
    4.7793    1.9370    0.4043 H   0  0  0  0  0  0  0  0  0  0  0  0
    4.1999   -1.2041    0.9358 H   0  0  0  0  0  0  0  0  0  0  0  0
  1  2  1  0
  2  3  1  0
  3  4  1  0
  3  5  1  0
  5  6  1  0
  6  7  1  0
  7  8  2  0
  8  9  1  0
  9 10  2  0
 10 11  1  0
 10 12  1  0
 12 13  2  0
 13  7  1  0
  1 14  1  0
  1 15  1  0
  2 16  1  0
  2 17  1  0
  3 18  1  1
  4 19  1  0
  5 20  1  0
  5 21  1  0
  6 22  1  0
  9 23  1  0
 11 24  1  0
 11 25  1  0
 12 26  1  0
M  END
$$$$

     RDKit          3D

 26 26  0  0  0  0  0  0  0  0999 V2000
    3.2481    0.8802    1.1437 N   0  0  0  0  0  0  0  0  0  0  0  0
    3.2059    0.6074   -0.2639 C   0  0  0  0  0  0  0  0  0  0  0  0
    2.6465   -0.7666   -0.5608 C   0  0  1  0  0  0  0  0  0  0  0  0
    3.4451   -1.7319    0.0444 O   0  0  0  0  0  0  0  0  0  0  0  0
    1.2222   -0.9046   -0.0735 C   0  0  0  0  0  0  0  0  0  0  0  0
    0.3766    0.0947   -0.6950 N   0  0  0  0  0  0  0  0  0  0  0  0
   -1.0075    0.1877   -0.4126 C   0  0  0  0  0  0  0  0  0  0  0  0
   -1.5330   -0.6878    0.4621 N   0  0  0  0  0  0  0  0  0  0  0  0
   -2.8262   -0.6801    0.7928 C   0  0  0  0  0  0  0  0  0  0  0  0
   -3.6365    0.2738    0.2003 C   0  0  0  0  0  0  0  0  0  0  0  0
   -5.0057    0.2804    0.5517 N   0  0  0  0  0  0  0  0  0  0  0  0
   -3.0769    1.1556   -0.6887 C   0  0  0  0  0  0  0  0  0  0  0  0
   -1.7622    1.1136   -0.9960 N   0  0  0  0  0  0  0  0  0  0  0  0
    4.2033    0.6964    1.5107 H   0  0  0  0  0  0  0  0  0  0  0  0
    3.0341    1.8856    1.2904 H   0  0  0  0  0  0  0  0  0  0  0  0
    2.6684    1.3983   -0.8018 H   0  0  0  0  0  0  0  0  0  0  0  0
    4.2551    0.6054   -0.6574 H   0  0  0  0  0  0  0  0  0  0  0  0
    2.6389   -0.8922   -1.6624 H   0  0  0  0  0  0  0  0  0  0  0  0
    3.0387   -2.6182   -0.1526 H   0  0  0  0  0  0  0  0  0  0  0  0
    0.8592   -1.9118   -0.3623 H   0  0  0  0  0  0  0  0  0  0  0  0
    1.1266   -0.8161    1.0116 H   0  0  0  0  0  0  0  0  0  0  0  0
    0.8152    0.7736   -1.3815 H   0  0  0  0  0  0  0  0  0  0  0  0
   -3.1954   -1.4015    1.4969 H   0  0  0  0  0  0  0  0  0  0  0  0
   -5.3299    0.7174    1.4323 H   0  0  0  0  0  0  0  0  0  0  0  0
   -5.6910   -0.1579   -0.0812 H   0  0  0  0  0  0  0  0  0  0  0  0
   -3.7196    1.8986   -1.1472 H   0  0  0  0  0  0  0  0  0  0  0  0
  1  2  1  0
  2  3  1  0
  3  4  1  0
  3  5  1  0
  5  6  1  0
  6  7  1  0
  7  8  2  0
  8  9  1  0
  9 10  2  0
 10 11  1  0
 10 12  1  0
 12 13  2  0
 13  7  1  0
  1 14  1  0
  1 15  1  0
  2 16  1  0
  2 17  1  0
  3 18  1  6
  4 19  1  0
  5 20  1  0
  5 21  1  0
  6 22  1  0
  9 23  1  0
 11 24  1  0
 11 25  1  0
 12 26  1  0
M  END
$$$$

     RDKit          3D

 26 26  0  0  0  0  0  0  0  0999 V2000
    3.3563    1.7459    0.1821 N   0  0  0  0  0  0  0  0  0  0  0  0
    3.6131    0.4017    0.6444 C   0  0  0  0  0  0  0  0  0  0  0  0
    2.6280   -0.5567    0.0071 C   0  0  1  0  0  0  0  0  0  0  0  0
    2.8195   -1.8580    0.4075 O   0  0  0  0  0  0  0  0  0  0  0  0
    1.2303   -0.0596    0.2495 C   0  0  0  0  0  0  0  0  0  0  0  0
    0.2663   -0.8527   -0.4610 N   0  0  0  0  0  0  0  0  0  0  0  0
   -1.1200   -0.5490   -0.3668 C   0  0  0  0  0  0  0  0  0  0  0  0
   -1.5717    0.4640    0.3700 N   0  0  0  0  0  0  0  0  0  0  0  0
   -2.8632    0.7929    0.4933 C   0  0  0  0  0  0  0  0  0  0  0  0
   -3.7825    0.0147   -0.2011 C   0  0  0  0  0  0  0  0  0  0  0  0
   -5.1740    0.2988   -0.1226 N   0  0  0  0  0  0  0  0  0  0  0  0
   -3.3187   -1.0352   -0.9654 C   0  0  0  0  0  0  0  0  0  0  0  0
   -2.0203   -1.2957   -1.0350 N   0  0  0  0  0  0  0  0  0  0  0  0
    4.2518    2.2130   -0.0458 H   0  0  0  0  0  0  0  0  0  0  0  0
    2.8106    2.2584    0.9065 H   0  0  0  0  0  0  0  0  0  0  0  0
    3.4424    0.3536    1.7362 H   0  0  0  0  0  0  0  0  0  0  0  0
    4.6620    0.1093    0.4502 H   0  0  0  0  0  0  0  0  0  0  0  0
    2.8167   -0.5138   -1.0976 H   0  0  0  0  0  0  0  0  0  0  0  0
    3.7512   -2.0649    0.6550 H   0  0  0  0  0  0  0  0  0  0  0  0
    1.1961    0.9957   -0.1224 H   0  0  0  0  0  0  0  0  0  0  0  0
    1.0290    0.0010    1.3386 H   0  0  0  0  0  0  0  0  0  0  0  0
    0.5952   -1.6439   -1.0390 H   0  0  0  0  0  0  0  0  0  0  0  0
   -3.1970    1.6215    1.0997 H   0  0  0  0  0  0  0  0  0  0  0  0
   -5.8375   -0.4757    0.0862 H   0  0  0  0  0  0  0  0  0  0  0  0
   -5.5191    1.2680   -0.2724 H   0  0  0  0  0  0  0  0  0  0  0  0
   -4.0644   -1.6333   -1.5030 H   0  0  0  0  0  0  0  0  0  0  0  0
  1  2  1  0
  2  3  1  0
  3  4  1  0
  3  5  1  0
  5  6  1  0
  6  7  1  0
  7  8  2  0
  8  9  1  0
  9 10  2  0
 10 11  1  0
 10 12  1  0
 12 13  2  0
 13  7  1  0
  1 14  1  0
  1 15  1  0
  2 16  1  0
  2 17  1  0
  3 18  1  6
  4 19  1  0
  5 20  1  0
  5 21  1  0
  6 22  1  0
  9 23  1  0
 11 24  1  0
 11 25  1  0
 12 26  1  0
M  END
$$$$

     RDKit          3D

 26 26  0  0  0  0  0  0  0  0999 V2000
   -4.8695   -0.2280   -0.1076 N   0  0  0  0  0  0  0  0  0  0  0  0
   -3.5490   -0.3256    0.4929 C   0  0  0  0  0  0  0  0  0  0  0  0
   -2.4921    0.0123   -0.5090 C   0  0  1  0  0  0  0  0  0  0  0  0
   -2.6476    1.3067   -0.9946 O   0  0  0  0  0  0  0  0  0  0  0  0
   -1.1253   -0.1005    0.1207 C   0  0  0  0  0  0  0  0  0  0  0  0
   -0.0617    0.1660   -0.8115 N   0  0  0  0  0  0  0  0  0  0  0  0
    1.2728    0.0967   -0.3598 C   0  0  0  0  0  0  0  0  0  0  0  0
    1.5788   -0.2113    0.9170 N   0  0  0  0  0  0  0  0  0  0  0  0
    2.8569   -0.2804    1.3609 C   0  0  0  0  0  0  0  0  0  0  0  0
    3.8946   -0.0297    0.4886 C   0  0  0  0  0  0  0  0  0  0  0  0
    5.2520   -0.0906    0.9094 N   0  0  0  0  0  0  0  0  0  0  0  0
    3.5888    0.2868   -0.8227 C   0  0  0  0  0  0  0  0  0  0  0  0
    2.2981    0.3377   -1.1948 N   0  0  0  0  0  0  0  0  0  0  0  0
   -4.8386    0.4823   -0.8888 H   0  0  0  0  0  0  0  0  0  0  0  0
   -5.0866   -1.1383   -0.5590 H   0  0  0  0  0  0  0  0  0  0  0  0
   -3.4109   -1.3606    0.8442 H   0  0  0  0  0  0  0  0  0  0  0  0
   -3.5381    0.3830    1.3471 H   0  0  0  0  0  0  0  0  0  0  0  0
   -2.5337   -0.6910   -1.3487 H   0  0  0  0  0  0  0  0  0  0  0  0
   -3.3111    1.8317   -0.4864 H   0  0  0  0  0  0  0  0  0  0  0  0
   -0.9937   -1.1462    0.4790 H   0  0  0  0  0  0  0  0  0  0  0  0
   -1.0716    0.5613    1.0234 H   0  0  0  0  0  0  0  0  0  0  0  0
   -0.2608    0.4042   -1.7945 H   0  0  0  0  0  0  0  0  0  0  0  0
    3.1021   -0.5293    2.3926 H   0  0  0  0  0  0  0  0  0  0  0  0
    5.7758   -0.9832    0.9064 H   0  0  0  0  0  0  0  0  0  0  0  0
    5.7560    0.7637    1.2325 H   0  0  0  0  0  0  0  0  0  0  0  0
    4.4142    0.4821   -1.4997 H   0  0  0  0  0  0  0  0  0  0  0  0
  1  2  1  0
  2  3  1  0
  3  4  1  0
  3  5  1  0
  5  6  1  0
  6  7  1  0
  7  8  2  0
  8  9  1  0
  9 10  2  0
 10 11  1  0
 10 12  1  0
 12 13  2  0
 13  7  1  0
  1 14  1  0
  1 15  1  0
  2 16  1  0
  2 17  1  0
  3 18  1  6
  4 19  1  0
  5 20  1  0
  5 21  1  0
  6 22  1  0
  9 23  1  0
 11 24  1  0
 11 25  1  0
 12 26  1  0
M  END
$$$$

     RDKit          3D

 26 26  0  0  0  0  0  0  0  0999 V2000
   -3.1183   -0.8830    1.5227 N   0  0  0  0  0  0  0  0  0  0  0  0
   -3.4090   -0.8775    0.1098 C   0  0  0  0  0  0  0  0  0  0  0  0
   -2.7794    0.2388   -0.6561 C   0  0  1  0  0  0  0  0  0  0  0  0
   -3.2030    1.4587   -0.1678 O   0  0  0  0  0  0  0  0  0  0  0  0
   -1.3082    0.1415   -0.8520 C   0  0  0  0  0  0  0  0  0  0  0  0
   -0.5069    0.3381    0.3222 N   0  0  0  0  0  0  0  0  0  0  0  0
    0.8954    0.2452    0.2169 C   0  0  0  0  0  0  0  0  0  0  0  0
    1.6633    0.4237    1.2937 N   0  0  0  0  0  0  0  0  0  0  0  0
    2.9887    0.3452    1.2399 C   0  0  0  0  0  0  0  0  0  0  0  0
    3.6064    0.0716    0.0423 C   0  0  0  0  0  0  0  0  0  0  0  0
    5.0122   -0.0220   -0.0661 N   0  0  0  0  0  0  0  0  0  0  0  0
    2.8158   -0.1134   -1.0725 C   0  0  0  0  0  0  0  0  0  0  0  0
    1.4779   -0.0216   -0.9561 N   0  0  0  0  0  0  0  0  0  0  0  0
   -2.2468   -1.3655    1.7430 H   0  0  0  0  0  0  0  0  0  0  0  0
   -3.1589    0.0691    1.8908 H   0  0  0  0  0  0  0  0  0  0  0  0
   -3.1886   -1.8765   -0.3557 H   0  0  0  0  0  0  0  0  0  0  0  0
   -4.5289   -0.7926    0.0275 H   0  0  0  0  0  0  0  0  0  0  0  0
   -3.2394    0.1764   -1.6965 H   0  0  0  0  0  0  0  0  0  0  0  0
   -2.7929    1.6858    0.6894 H   0  0  0  0  0  0  0  0  0  0  0  0
   -1.0169    0.9635   -1.5702 H   0  0  0  0  0  0  0  0  0  0  0  0
   -1.0281   -0.7965   -1.3515 H   0  0  0  0  0  0  0  0  0  0  0  0
   -0.9046    0.5517    1.2661 H   0  0  0  0  0  0  0  0  0  0  0  0
    3.6276    0.4880    2.1074 H   0  0  0  0  0  0  0  0  0  0  0  0
    5.4944    0.0756   -0.9763 H   0  0  0  0  0  0  0  0  0  0  0  0
    5.5703   -0.1927    0.7892 H   0  0  0  0  0  0  0  0  0  0  0  0
    3.2778   -0.3317   -2.0357 H   0  0  0  0  0  0  0  0  0  0  0  0
  1  2  1  0
  2  3  1  0
  3  4  1  0
  3  5  1  0
  5  6  1  0
  6  7  1  0
  7  8  2  0
  8  9  1  0
  9 10  2  0
 10 11  1  0
 10 12  1  0
 12 13  2  0
 13  7  1  0
  1 14  1  0
  1 15  1  0
  2 16  1  0
  2 17  1  0
  3 18  1  6
  4 19  1  0
  5 20  1  0
  5 21  1  0
  6 22  1  0
  9 23  1  0
 11 24  1  0
 11 25  1  0
 12 26  1  0
M  END
$$$$

     RDKit          3D

 26 26  0  0  0  0  0  0  0  0999 V2000
    4.2344    0.3651   -0.1255 N   0  0  0  0  0  0  0  0  0  0  0  0
    3.2594   -0.7189   -0.1945 C   0  0  0  0  0  0  0  0  0  0  0  0
    1.9359   -0.1703   -0.6913 C   0  0  1  0  0  0  0  0  0  0  0  0
    1.0574   -1.2365   -0.7356 O   0  0  0  0  0  0  0  0  0  0  0  0
    1.4384    0.9619    0.1330 C   0  0  0  0  0  0  0  0  0  0  0  0
    0.2011    1.5292   -0.3307 N   0  0  0  0  0  0  0  0  0  0  0  0
   -1.0414    0.8780   -0.2950 C   0  0  0  0  0  0  0  0  0  0  0  0
   -1.1926   -0.3503    0.1934 N   0  0  0  0  0  0  0  0  0  0  0  0
   -2.3808   -0.9930    0.2359 C   0  0  0  0  0  0  0  0  0  0  0  0
   -3.4683   -0.3285   -0.2529 C   0  0  0  0  0  0  0  0  0  0  0  0
   -4.7421   -0.9435   -0.2386 N   0  0  0  0  0  0  0  0  0  0  0  0
   -3.3438    0.9537   -0.7692 C   0  0  0  0  0  0  0  0  0  0  0  0
   -2.1343    1.5298   -0.7795 N   0  0  0  0  0  0  0  0  0  0  0  0
    5.1841   -0.0024   -0.2999 H   0  0  0  0  0  0  0  0  0  0  0  0
    4.2231    0.8566    0.7785 H   0  0  0  0  0  0  0  0  0  0  0  0
    3.6177   -1.4540   -0.9163 H   0  0  0  0  0  0  0  0  0  0  0  0
    3.1530   -1.1972    0.8011 H   0  0  0  0  0  0  0  0  0  0  0  0
    2.1166    0.1438   -1.7503 H   0  0  0  0  0  0  0  0  0  0  0  0
    1.2412   -1.8182    0.0533 H   0  0  0  0  0  0  0  0  0  0  0  0
    2.1975    1.7520    0.3096 H   0  0  0  0  0  0  0  0  0  0  0  0
    1.2144    0.5659    1.1688 H   0  0  0  0  0  0  0  0  0  0  0  0
    0.2479    2.5110   -0.7254 H   0  0  0  0  0  0  0  0  0  0  0  0
   -2.4163   -1.9755    0.6430 H   0  0  0  0  0  0  0  0  0  0  0  0
   -5.3455   -0.7952   -1.0816 H   0  0  0  0  0  0  0  0  0  0  0  0
   -5.0198   -1.4976    0.5766 H   0  0  0  0  0  0  0  0  0  0  0  0
   -4.2370    1.4342   -1.1432 H   0  0  0  0  0  0  0  0  0  0  0  0
  1  2  1  0
  2  3  1  0
  3  4  1  0
  3  5  1  0
  5  6  1  0
  6  7  1  0
  7  8  2  0
  8  9  1  0
  9 10  2  0
 10 11  1  0
 10 12  1  0
 12 13  2  0
 13  7  1  0
  1 14  1  0
  1 15  1  0
  2 16  1  0
  2 17  1  0
  3 18  1  6
  4 19  1  0
  5 20  1  0
  5 21  1  0
  6 22  1  0
  9 23  1  0
 11 24  1  0
 11 25  1  0
 12 26  1  0
M  END
$$$$

     RDKit          3D

 26 26  0  0  0  0  0  0  0  0999 V2000
   -3.6201    1.5822   -0.5580 N   0  0  0  0  0  0  0  0  0  0  0  0
   -3.6812    0.4009    0.3119 C   0  0  0  0  0  0  0  0  0  0  0  0
   -2.6144   -0.5824   -0.0718 C   0  0  1  0  0  0  0  0  0  0  0  0
   -2.7975   -0.9816   -1.3873 O   0  0  0  0  0  0  0  0  0  0  0  0
   -1.2295   -0.0208    0.1516 C   0  0  0  0  0  0  0  0  0  0  0  0
   -0.2118   -1.0067   -0.1504 N   0  0  0  0  0  0  0  0  0  0  0  0
    1.1572   -0.6410    0.0071 C   0  0  0  0  0  0  0  0  0  0  0  0
    2.1483   -1.5284   -0.2626 N   0  0  0  0  0  0  0  0  0  0  0  0
    3.4291   -1.2014   -0.1203 C   0  0  0  0  0  0  0  0  0  0  0  0
    3.7673    0.0657    0.3105 C   0  0  0  0  0  0  0  0  0  0  0  0
    5.1180    0.4592    0.4768 N   0  0  0  0  0  0  0  0  0  0  0  0
    2.7672    0.9820    0.5897 C   0  0  0  0  0  0  0  0  0  0  0  0
    1.5103    0.5799    0.4230 N   0  0  0  0  0  0  0  0  0  0  0  0
   -3.4888    2.4581    0.0302 H   0  0  0  0  0  0  0  0  0  0  0  0
   -4.4815    1.6391   -1.1230 H   0  0  0  0  0  0  0  0  0  0  0  0
   -3.5920    0.7452    1.3599 H   0  0  0  0  0  0  0  0  0  0  0  0
   -4.6771   -0.0739    0.2192 H   0  0  0  0  0  0  0  0  0  0  0  0
   -2.7215   -1.4724    0.5825 H   0  0  0  0  0  0  0  0  0  0  0  0
   -2.5996   -1.9492   -1.4838 H   0  0  0  0  0  0  0  0  0  0  0  0
   -1.1343    0.4097    1.1640 H   0  0  0  0  0  0  0  0  0  0  0  0
   -1.0682    0.8308   -0.5583 H   0  0  0  0  0  0  0  0  0  0  0  0
   -0.4860   -1.9421   -0.4691 H   0  0  0  0  0  0  0  0  0  0  0  0
    4.2359   -1.8850   -0.3270 H   0  0  0  0  0  0  0  0  0  0  0  0
    5.5440    1.2742   -0.0260 H   0  0  0  0  0  0  0  0  0  0  0  0
    5.7007   -0.1006    1.1349 H   0  0  0  0  0  0  0  0  0  0  0  0
    3.0256    1.9588    0.9218 H   0  0  0  0  0  0  0  0  0  0  0  0
  1  2  1  0
  2  3  1  0
  3  4  1  0
  3  5  1  0
  5  6  1  0
  6  7  1  0
  7  8  2  0
  8  9  1  0
  9 10  2  0
 10 11  1  0
 10 12  1  0
 12 13  2  0
 13  7  1  0
  1 14  1  0
  1 15  1  0
  2 16  1  0
  2 17  1  0
  3 18  1  1
  4 19  1  0
  5 20  1  0
  5 21  1  0
  6 22  1  0
  9 23  1  0
 11 24  1  0
 11 25  1  0
 12 26  1  0
M  END
$$$$
