
     RDKit          3D

 27 26  0  0  0  0  0  0  0  0999 V2000
   -3.7871   -1.1221   -1.2439 N   0  0  0  0  0  0  0  0  0  0  0  0
   -2.5120   -0.4913   -1.4623 C   0  0  0  0  0  0  0  0  0  0  0  0
   -1.8231   -0.2957   -0.1166 C   0  0  2  0  0  0  0  0  0  0  0  0
   -2.7277    0.5827    0.7154 C   0  0  0  0  0  0  0  0  0  0  0  0
   -2.8880    1.8063    0.0737 O   0  0  0  0  0  0  0  0  0  0  0  0
   -0.5164    0.3098   -0.2976 N   0  0  0  0  0  0  0  0  0  0  0  0
    0.6756   -0.3656    0.0811 C   0  0  0  0  0  0  0  0  0  0  0  0
    0.5662   -1.5131    0.5820 O   0  0  0  0  0  0  0  0  0  0  0  0
    1.9801    0.3101   -0.1312 C   0  0  0  0  0  0  0  0  0  0  0  0
    3.1412   -0.5173    0.3128 C   0  0  0  0  0  0  0  0  0  0  0  0
    4.3850    0.2538    0.0543 C   0  0  0  0  0  0  0  0  0  0  0  0
    4.3695    1.4038   -0.4563 O   0  0  0  0  0  0  0  0  0  0  0  0
    5.6326   -0.2761    0.3724 O   0  0  0  0  0  0  0  0  0  0  0  0
   -4.5136   -0.4250   -0.9962 H   0  0  0  0  0  0  0  0  0  0  0  0
   -3.7058   -1.9098   -0.5635 H   0  0  0  0  0  0  0  0  0  0  0  0
   -2.6710    0.5057   -1.9250 H   0  0  0  0  0  0  0  0  0  0  0  0
   -1.8700   -1.1177   -2.1288 H   0  0  0  0  0  0  0  0  0  0  0  0
   -1.7392   -1.3007    0.3341 H   0  0  0  0  0  0  0  0  0  0  0  0
   -2.3236    0.7416    1.7416 H   0  0  0  0  0  0  0  0  0  0  0  0
   -3.6949    0.0481    0.8119 H   0  0  0  0  0  0  0  0  0  0  0  0
   -2.2185    2.4321    0.4422 H   0  0  0  0  0  0  0  0  0  0  0  0
   -0.5030    1.2726   -0.7232 H   0  0  0  0  0  0  0  0  0  0  0  0
    2.0128    1.2920    0.3701 H   0  0  0  0  0  0  0  0  0  0  0  0
    2.1049    0.5045   -1.2218 H   0  0  0  0  0  0  0  0  0  0  0  0
    3.0140   -0.7383    1.4061 H   0  0  0  0  0  0  0  0  0  0  0  0
    3.1339   -1.4816   -0.2708 H   0  0  0  0  0  0  0  0  0  0  0  0
    6.4782    0.0910   -0.0497 H   0  0  0  0  0  0  0  0  0  0  0  0
  1  2  1  0
  2  3  1  0
  3  4  1  0
  4  5  1  0
  3  6  1  0
  6  7  1  0
  7  8  2  0
  7  9  1  0
  9 10  1  0
 10 11  1  0
 11 12  2  0
 11 13  1  0
  1 14  1  0
  1 15  1  0
  2 16  1  0
  2 17  1  0
  3 18  1  1
  4 19  1  0
  4 20  1  0
  5 21  1  0
  6 22  1  0
  9 23  1  0
  9 24  1  0
 10 25  1  0
 10 26  1  0
 13 27  1  0
M  END
$$$$

     RDKit          3D

 27 26  0  0  0  0  0  0  0  0999 V2000
   -3.5097    1.2183   -1.5596 N   0  0  0  0  0  0  0  0  0  0  0  0
   -2.1781    1.3212   -1.0195 C   0  0  0  0  0  0  0  0  0  0  0  0
   -1.7138    0.0720   -0.3398 C   0  0  2  0  0  0  0  0  0  0  0  0
   -2.5966   -0.3224    0.8233 C   0  0  0  0  0  0  0  0  0  0  0  0
   -3.9040   -0.5591    0.4292 O   0  0  0  0  0  0  0  0  0  0  0  0
   -0.3696    0.3008    0.1544 N   0  0  0  0  0  0  0  0  0  0  0  0
    0.7264   -0.5066   -0.2733 C   0  0  0  0  0  0  0  0  0  0  0  0
    0.5693   -1.4432   -1.0916 O   0  0  0  0  0  0  0  0  0  0  0  0
    2.0861   -0.2266    0.2673 C   0  0  0  0  0  0  0  0  0  0  0  0
    3.0866   -1.1880   -0.3109 C   0  0  0  0  0  0  0  0  0  0  0  0
    4.4189   -0.9038    0.2271 C   0  0  0  0  0  0  0  0  0  0  0  0
    5.4540   -1.5611   -0.0889 O   0  0  0  0  0  0  0  0  0  0  0  0
    4.5942    0.1260    1.1272 O   0  0  0  0  0  0  0  0  0  0  0  0
   -4.1164    1.9961   -1.2208 H   0  0  0  0  0  0  0  0  0  0  0  0
   -3.5375    1.1234   -2.5859 H   0  0  0  0  0  0  0  0  0  0  0  0
   -2.1195    2.1741   -0.3298 H   0  0  0  0  0  0  0  0  0  0  0  0
   -1.4916    1.5235   -1.8610 H   0  0  0  0  0  0  0  0  0  0  0  0
   -1.7282   -0.7756   -1.0511 H   0  0  0  0  0  0  0  0  0  0  0  0
   -2.1988   -1.3189    1.1774 H   0  0  0  0  0  0  0  0  0  0  0  0
   -2.5170    0.3530    1.6813 H   0  0  0  0  0  0  0  0  0  0  0  0
   -4.5441    0.1046    0.7784 H   0  0  0  0  0  0  0  0  0  0  0  0
   -0.1901    1.0624    0.8314 H   0  0  0  0  0  0  0  0  0  0  0  0
    2.3766    0.8266    0.1616 H   0  0  0  0  0  0  0  0  0  0  0  0
    2.0296   -0.4493    1.3695 H   0  0  0  0  0  0  0  0  0  0  0  0
    3.0585   -1.2157   -1.4193 H   0  0  0  0  0  0  0  0  0  0  0  0
    2.7948   -2.2046    0.0270 H   0  0  0  0  0  0  0  0  0  0  0  0
    5.5199    0.4731    1.3665 H   0  0  0  0  0  0  0  0  0  0  0  0
  1  2  1  0
  2  3  1  0
  3  4  1  0
  4  5  1  0
  3  6  1  0
  6  7  1  0
  7  8  2  0
  7  9  1  0
  9 10  1  0
 10 11  1  0
 11 12  2  0
 11 13  1  0
  1 14  1  0
  1 15  1  0
  2 16  1  0
  2 17  1  0
  3 18  1  6
  4 19  1  0
  4 20  1  0
  5 21  1  0
  6 22  1  0
  9 23  1  0
  9 24  1  0
 10 25  1  0
 10 26  1  0
 13 27  1  0
M  END
$$$$

     RDKit          3D

 27 26  0  0  0  0  0  0  0  0999 V2000
   -3.6781    1.2424   -0.5865 N   0  0  0  0  0  0  0  0  0  0  0  0
   -2.3494    1.4408   -0.0596 C   0  0  0  0  0  0  0  0  0  0  0  0
   -1.7308    0.0846    0.2648 C   0  0  2  0  0  0  0  0  0  0  0  0
   -2.6138   -0.5945    1.2965 C   0  0  0  0  0  0  0  0  0  0  0  0
   -3.8876   -0.7691    0.7562 O   0  0  0  0  0  0  0  0  0  0  0  0
   -0.4008    0.2771    0.8035 N   0  0  0  0  0  0  0  0  0  0  0  0
    0.6996   -0.2894    0.1118 C   0  0  0  0  0  0  0  0  0  0  0  0
    0.5078   -0.9358   -0.9354 O   0  0  0  0  0  0  0  0  0  0  0  0
    2.1005   -0.1370    0.6004 C   0  0  0  0  0  0  0  0  0  0  0  0
    3.0804   -0.8256   -0.3045 C   0  0  0  0  0  0  0  0  0  0  0  0
    4.4386   -0.6396    0.2290 C   0  0  0  0  0  0  0  0  0  0  0  0
    4.6919    0.0001    1.2765 O   0  0  0  0  0  0  0  0  0  0  0  0
    5.5154   -1.1998   -0.4570 O   0  0  0  0  0  0  0  0  0  0  0  0
   -3.6888    0.4158   -1.2492 H   0  0  0  0  0  0  0  0  0  0  0  0
   -4.0088    2.0582   -1.1605 H   0  0  0  0  0  0  0  0  0  0  0  0
   -1.6993    2.0292   -0.7298 H   0  0  0  0  0  0  0  0  0  0  0  0
   -2.4492    2.0075    0.8882 H   0  0  0  0  0  0  0  0  0  0  0  0
   -1.7056   -0.5114   -0.6650 H   0  0  0  0  0  0  0  0  0  0  0  0
   -2.1449   -1.5830    1.4978 H   0  0  0  0  0  0  0  0  0  0  0  0
   -2.6501    0.0214    2.2063 H   0  0  0  0  0  0  0  0  0  0  0  0
   -4.5584   -0.1526    1.1820 H   0  0  0  0  0  0  0  0  0  0  0  0
   -0.2234    0.8122    1.6738 H   0  0  0  0  0  0  0  0  0  0  0  0
    2.3763    0.9246    0.7310 H   0  0  0  0  0  0  0  0  0  0  0  0
    2.1215   -0.5948    1.6201 H   0  0  0  0  0  0  0  0  0  0  0  0
    2.8288   -1.9238   -0.3259 H   0  0  0  0  0  0  0  0  0  0  0  0
    2.9757   -0.3726   -1.3200 H   0  0  0  0  0  0  0  0  0  0  0  0
    6.4524   -0.7851   -0.3747 H   0  0  0  0  0  0  0  0  0  0  0  0
  1  2  1  0
  2  3  1  0
  3  4  1  0
  4  5  1  0
  3  6  1  0
  6  7  1  0
  7  8  2  0
  7  9  1  0
  9 10  1  0
 10 11  1  0
 11 12  2  0
 11 13  1  0
  1 14  1  0
  1 15  1  0
  2 16  1  0
  2 17  1  0
  3 18  1  6
  4 19  1  0
  4 20  1  0
  5 21  1  0
  6 22  1  0
  9 23  1  0
  9 24  1  0
 10 25  1  0
 10 26  1  0
 13 27  1  0
M  END
$$$$

     RDKit          3D

 27 26  0  0  0  0  0  0  0  0999 V2000
   -1.9389   -0.6858   -1.9568 N   0  0  0  0  0  0  0  0  0  0  0  0
   -2.5765   -0.5633   -0.6786 C   0  0  0  0  0  0  0  0  0  0  0  0
   -1.5882   -0.5891    0.4769 C   0  0  2  0  0  0  0  0  0  0  0  0
   -2.4241   -0.4497    1.7481 C   0  0  0  0  0  0  0  0  0  0  0  0
   -1.5693   -0.4759    2.8420 O   0  0  0  0  0  0  0  0  0  0  0  0
   -0.6410    0.4732    0.3497 N   0  0  0  0  0  0  0  0  0  0  0  0
    0.7540    0.2363    0.2096 C   0  0  0  0  0  0  0  0  0  0  0  0
    1.1365   -0.9472    0.2005 O   0  0  0  0  0  0  0  0  0  0  0  0
    1.6546    1.4009    0.0847 C   0  0  0  0  0  0  0  0  0  0  0  0
    3.1028    0.9718   -0.0596 C   0  0  0  0  0  0  0  0  0  0  0  0
    3.2799    0.1304   -1.2699 C   0  0  0  0  0  0  0  0  0  0  0  0
    4.4329   -0.3027   -1.5142 O   0  0  0  0  0  0  0  0  0  0  0  0
    2.1953   -0.1436   -2.0717 O   0  0  0  0  0  0  0  0  0  0  0  0
   -1.4996   -1.6156   -2.1048 H   0  0  0  0  0  0  0  0  0  0  0  0
   -1.2868    0.1119   -2.1362 H   0  0  0  0  0  0  0  0  0  0  0  0
   -3.1617    0.3629   -0.6476 H   0  0  0  0  0  0  0  0  0  0  0  0
   -3.2361   -1.4555   -0.5316 H   0  0  0  0  0  0  0  0  0  0  0  0
   -1.0815   -1.5721    0.4505 H   0  0  0  0  0  0  0  0  0  0  0  0
   -3.1808   -1.2361    1.8136 H   0  0  0  0  0  0  0  0  0  0  0  0
   -2.9628    0.5194    1.7025 H   0  0  0  0  0  0  0  0  0  0  0  0
   -0.7622   -1.0184    2.6424 H   0  0  0  0  0  0  0  0  0  0  0  0
   -0.9864    1.4540    0.3602 H   0  0  0  0  0  0  0  0  0  0  0  0
    1.5354    2.0368    0.9637 H   0  0  0  0  0  0  0  0  0  0  0  0
    1.3760    1.9994   -0.8101 H   0  0  0  0  0  0  0  0  0  0  0  0
    3.3737    0.3315    0.8128 H   0  0  0  0  0  0  0  0  0  0  0  0
    3.7868    1.8387   -0.0257 H   0  0  0  0  0  0  0  0  0  0  0  0
    2.2679   -0.8124   -2.8304 H   0  0  0  0  0  0  0  0  0  0  0  0
  1  2  1  0
  2  3  1  0
  3  4  1  0
  4  5  1  0
  3  6  1  0
  6  7  1  0
  7  8  2  0
  7  9  1  0
  9 10  1  0
 10 11  1  0
 11 12  2  0
 11 13  1  0
  1 14  1  0
  1 15  1  0
  2 16  1  0
  2 17  1  0
  3 18  1  1
  4 19  1  0
  4 20  1  0
  5 21  1  0
  6 22  1  0
  9 23  1  0
  9 24  1  0
 10 25  1  0
 10 26  1  0
 13 27  1  0
M  END
$$$$

     RDKit          3D

 27 26  0  0  0  0  0  0  0  0999 V2000
   -3.9230    0.1668   -0.9871 N   0  0  0  0  0  0  0  0  0  0  0  0
   -2.5168    0.4221   -1.0711 C   0  0  0  0  0  0  0  0  0  0  0  0
   -1.7364   -0.1880    0.0846 C   0  0  2  0  0  0  0  0  0  0  0  0
   -2.2710    0.4251    1.3856 C   0  0  0  0  0  0  0  0  0  0  0  0
   -3.5752    0.0672    1.6307 O   0  0  0  0  0  0  0  0  0  0  0  0
   -0.3697    0.2639   -0.0508 N   0  0  0  0  0  0  0  0  0  0  0  0
    0.7381   -0.6236   -0.1209 C   0  0  0  0  0  0  0  0  0  0  0  0
    0.5017   -1.8457   -0.0613 O   0  0  0  0  0  0  0  0  0  0  0  0
    2.0807   -0.0321   -0.2584 C   0  0  0  0  0  0  0  0  0  0  0  0
    3.1833   -1.0376   -0.3245 C   0  0  0  0  0  0  0  0  0  0  0  0
    4.4711   -0.3086   -0.4615 C   0  0  0  0  0  0  0  0  0  0  0  0
    5.5804   -0.9128   -0.5416 O   0  0  0  0  0  0  0  0  0  0  0  0
    4.5221    1.0782   -0.5087 O   0  0  0  0  0  0  0  0  0  0  0  0
   -4.1559   -0.7142   -0.4947 H   0  0  0  0  0  0  0  0  0  0  0  0
   -4.5084    0.9762   -0.7535 H   0  0  0  0  0  0  0  0  0  0  0  0
   -2.3684    1.5165   -1.0710 H   0  0  0  0  0  0  0  0  0  0  0  0
   -2.0643    0.0475   -2.0225 H   0  0  0  0  0  0  0  0  0  0  0  0
   -1.8500   -1.2708    0.1290 H   0  0  0  0  0  0  0  0  0  0  0  0
   -2.1789    1.5393    1.3357 H   0  0  0  0  0  0  0  0  0  0  0  0
   -1.6532    0.1101    2.2483 H   0  0  0  0  0  0  0  0  0  0  0  0
   -3.6642   -0.4525    2.4863 H   0  0  0  0  0  0  0  0  0  0  0  0
   -0.2156    1.2903   -0.0969 H   0  0  0  0  0  0  0  0  0  0  0  0
    2.2886    0.6841    0.5534 H   0  0  0  0  0  0  0  0  0  0  0  0
    2.0870    0.5457   -1.2143 H   0  0  0  0  0  0  0  0  0  0  0  0
    3.0487   -1.8176   -1.0684 H   0  0  0  0  0  0  0  0  0  0  0  0
    3.2320   -1.5503    0.6780 H   0  0  0  0  0  0  0  0  0  0  0  0
    5.3174    1.6209   -0.2014 H   0  0  0  0  0  0  0  0  0  0  0  0
  1  2  1  0
  2  3  1  0
  3  4  1  0
  4  5  1  0
  3  6  1  0
  6  7  1  0
  7  8  2  0
  7  9  1  0
  9 10  1  0
 10 11  1  0
 11 12  2  0
 11 13  1  0
  1 14  1  0
  1 15  1  0
  2 16  1  0
  2 17  1  0
  3 18  1  1
  4 19  1  0
  4 20  1  0
  5 21  1  0
  6 22  1  0
  9 23  1  0
  9 24  1  0
 10 25  1  0
 10 26  1  0
 13 27  1  0
M  END
$$$$

     RDKit          3D

 27 26  0  0  0  0  0  0  0  0999 V2000
   -3.9259    0.8238    0.3893 N   0  0  0  0  0  0  0  0  0  0  0  0
   -2.5607    0.8703    0.8513 C   0  0  0  0  0  0  0  0  0  0  0  0
   -1.7640   -0.1492    0.0662 C   0  0  2  0  0  0  0  0  0  0  0  0
   -2.3616   -1.5195    0.3097 C   0  0  0  0  0  0  0  0  0  0  0  0
   -2.2369   -1.7824    1.6837 O   0  0  0  0  0  0  0  0  0  0  0  0
   -0.3849   -0.2040    0.4748 N   0  0  0  0  0  0  0  0  0  0  0  0
    0.6453    0.0761   -0.4600 C   0  0  0  0  0  0  0  0  0  0  0  0
    0.3583    0.3761   -1.6596 O   0  0  0  0  0  0  0  0  0  0  0  0
    2.0802    0.0316   -0.0837 C   0  0  0  0  0  0  0  0  0  0  0  0
    2.9699    0.3668   -1.2553 C   0  0  0  0  0  0  0  0  0  0  0  0
    4.3943    0.3139   -0.8526 C   0  0  0  0  0  0  0  0  0  0  0  0
    4.9457   -0.8113   -0.7981 O   0  0  0  0  0  0  0  0  0  0  0  0
    5.0906    1.4639   -0.5475 O   0  0  0  0  0  0  0  0  0  0  0  0
   -4.5969    0.4837    1.1026 H   0  0  0  0  0  0  0  0  0  0  0  0
   -4.0285    0.3581   -0.5287 H   0  0  0  0  0  0  0  0  0  0  0  0
   -2.5373    0.6162    1.9339 H   0  0  0  0  0  0  0  0  0  0  0  0
   -2.1220    1.8885    0.7317 H   0  0  0  0  0  0  0  0  0  0  0  0
   -1.8112    0.1273   -0.9997 H   0  0  0  0  0  0  0  0  0  0  0  0
   -3.4049   -1.5200   -0.0272 H   0  0  0  0  0  0  0  0  0  0  0  0
   -1.7424   -2.2573   -0.2338 H   0  0  0  0  0  0  0  0  0  0  0  0
   -3.0501   -1.3895    2.1054 H   0  0  0  0  0  0  0  0  0  0  0  0
   -0.1229   -0.4523    1.4721 H   0  0  0  0  0  0  0  0  0  0  0  0
    2.2544    0.7726    0.7238 H   0  0  0  0  0  0  0  0  0  0  0  0
    2.3192   -0.9842    0.2820 H   0  0  0  0  0  0  0  0  0  0  0  0
    2.7500    1.3975   -1.5931 H   0  0  0  0  0  0  0  0  0  0  0  0
    2.7377   -0.3694   -2.0742 H   0  0  0  0  0  0  0  0  0  0  0  0
    6.1047    1.4727   -0.4007 H   0  0  0  0  0  0  0  0  0  0  0  0
  1  2  1  0
  2  3  1  0
  3  4  1  0
  4  5  1  0
  3  6  1  0
  6  7  1  0
  7  8  2  0
  7  9  1  0
  9 10  1  0
 10 11  1  0
 11 12  2  0
 11 13  1  0
  1 14  1  0
  1 15  1  0
  2 16  1  0
  2 17  1  0
  3 18  1  6
  4 19  1  0
  4 20  1  0
  5 21  1  0
  6 22  1  0
  9 23  1  0
  9 24  1  0
 10 25  1  0
 10 26  1  0
 13 27  1  0
M  END
$$$$

     RDKit          3D

 27 26  0  0  0  0  0  0  0  0999 V2000
   -2.1166    1.4353   -1.6454 N   0  0  0  0  0  0  0  0  0  0  0  0
   -2.6569    1.1046   -0.3496 C   0  0  0  0  0  0  0  0  0  0  0  0
   -1.8502    0.0340    0.3468 C   0  0  2  0  0  0  0  0  0  0  0  0
   -2.4420   -0.2916    1.7045 C   0  0  0  0  0  0  0  0  0  0  0  0
   -3.8039   -0.5654    1.6129 O   0  0  0  0  0  0  0  0  0  0  0  0
   -0.4561    0.3170    0.4244 N   0  0  0  0  0  0  0  0  0  0  0  0
    0.5346   -0.4998   -0.2069 C   0  0  0  0  0  0  0  0  0  0  0  0
    0.1461   -1.5112   -0.8573 O   0  0  0  0  0  0  0  0  0  0  0  0
    1.9498   -0.1161   -0.0632 C   0  0  0  0  0  0  0  0  0  0  0  0
    2.8458   -1.0904   -0.7934 C   0  0  0  0  0  0  0  0  0  0  0  0
    4.2631   -0.6840   -0.6346 C   0  0  0  0  0  0  0  0  0  0  0  0
    5.1761   -1.3678   -1.1704 O   0  0  0  0  0  0  0  0  0  0  0  0
    4.5856    0.4360    0.0951 O   0  0  0  0  0  0  0  0  0  0  0  0
   -2.3701    0.7822   -2.3962 H   0  0  0  0  0  0  0  0  0  0  0  0
   -2.2026    2.4424   -1.8823 H   0  0  0  0  0  0  0  0  0  0  0  0
   -2.8203    1.9965    0.2545 H   0  0  0  0  0  0  0  0  0  0  0  0
   -3.6699    0.6497   -0.5422 H   0  0  0  0  0  0  0  0  0  0  0  0
   -1.9721   -0.8947   -0.2695 H   0  0  0  0  0  0  0  0  0  0  0  0
   -2.2676    0.5575    2.3955 H   0  0  0  0  0  0  0  0  0  0  0  0
   -1.9521   -1.2030    2.1104 H   0  0  0  0  0  0  0  0  0  0  0  0
   -4.0088   -1.0416    0.7611 H   0  0  0  0  0  0  0  0  0  0  0  0
   -0.1501    1.1569    0.9658 H   0  0  0  0  0  0  0  0  0  0  0  0
    2.2838   -0.0215    0.9843 H   0  0  0  0  0  0  0  0  0  0  0  0
    2.1410    0.8877   -0.5360 H   0  0  0  0  0  0  0  0  0  0  0  0
    2.6692   -2.0974   -0.3606 H   0  0  0  0  0  0  0  0  0  0  0  0
    2.6161   -1.0927   -1.8793 H   0  0  0  0  0  0  0  0  0  0  0  0
    5.5281    0.6775    0.3516 H   0  0  0  0  0  0  0  0  0  0  0  0
  1  2  1  0
  2  3  1  0
  3  4  1  0
  4  5  1  0
  3  6  1  0
  6  7  1  0
  7  8  2  0
  7  9  1  0
  9 10  1  0
 10 11  1  0
 11 12  2  0
 11 13  1  0
  1 14  1  0
  1 15  1  0
  2 16  1  0
  2 17  1  0
  3 18  1  6
  4 19  1  0
  4 20  1  0
  5 21  1  0
  6 22  1  0
  9 23  1  0
  9 24  1  0
 10 25  1  0
 10 26  1  0
 13 27  1  0
M  END
$$$$

     RDKit          3D

 27 26  0  0  0  0  0  0  0  0999 V2000
   -3.7849   -0.7430   -0.0212 N   0  0  0  0  0  0  0  0  0  0  0  0
   -2.5351   -0.4341   -0.6081 C   0  0  0  0  0  0  0  0  0  0  0  0
   -1.5917    0.3401    0.2578 C   0  0  2  0  0  0  0  0  0  0  0  0
   -2.2214    1.6717    0.6435 C   0  0  0  0  0  0  0  0  0  0  0  0
   -1.2908    2.3895    1.4239 O   0  0  0  0  0  0  0  0  0  0  0  0
   -0.3805    0.5801   -0.5056 N   0  0  0  0  0  0  0  0  0  0  0  0
    0.9018    0.1293   -0.0913 C   0  0  0  0  0  0  0  0  0  0  0  0
    1.0224   -0.5083    0.9799 O   0  0  0  0  0  0  0  0  0  0  0  0
    2.1137    0.4121   -0.9289 C   0  0  0  0  0  0  0  0  0  0  0  0
    3.3525   -0.1659   -0.2835 C   0  0  0  0  0  0  0  0  0  0  0  0
    3.2546   -1.6308   -0.1174 C   0  0  0  0  0  0  0  0  0  0  0  0
    2.2690   -2.3238   -0.4657 O   0  0  0  0  0  0  0  0  0  0  0  0
    4.3302   -2.2861    0.4655 O   0  0  0  0  0  0  0  0  0  0  0  0
   -3.9258   -1.6940    0.3152 H   0  0  0  0  0  0  0  0  0  0  0  0
   -4.2843    0.0095    0.4493 H   0  0  0  0  0  0  0  0  0  0  0  0
   -2.7126    0.1646   -1.5285 H   0  0  0  0  0  0  0  0  0  0  0  0
   -2.0519   -1.3754   -0.9396 H   0  0  0  0  0  0  0  0  0  0  0  0
   -1.3153   -0.2211    1.1522 H   0  0  0  0  0  0  0  0  0  0  0  0
   -3.1324    1.5014    1.2295 H   0  0  0  0  0  0  0  0  0  0  0  0
   -2.4736    2.2637   -0.2549 H   0  0  0  0  0  0  0  0  0  0  0  0
   -1.2881    2.0484    2.3600 H   0  0  0  0  0  0  0  0  0  0  0  0
   -0.4268    1.1068   -1.4055 H   0  0  0  0  0  0  0  0  0  0  0  0
    1.9888    0.0633   -1.9706 H   0  0  0  0  0  0  0  0  0  0  0  0
    2.2192    1.5164   -0.9398 H   0  0  0  0  0  0  0  0  0  0  0  0
    3.5435    0.2859    0.6923 H   0  0  0  0  0  0  0  0  0  0  0  0
    4.2020    0.0289   -0.9694 H   0  0  0  0  0  0  0  0  0  0  0  0
    4.2173   -3.1292    1.0307 H   0  0  0  0  0  0  0  0  0  0  0  0
  1  2  1  0
  2  3  1  0
  3  4  1  0
  4  5  1  0
  3  6  1  0
  6  7  1  0
  7  8  2  0
  7  9  1  0
  9 10  1  0
 10 11  1  0
 11 12  2  0
 11 13  1  0
  1 14  1  0
  1 15  1  0
  2 16  1  0
  2 17  1  0
  3 18  1  1
  4 19  1  0
  4 20  1  0
  5 21  1  0
  6 22  1  0
  9 23  1  0
  9 24  1  0
 10 25  1  0
 10 26  1  0
 13 27  1  0
M  END
$$$$
