
     RDKit          3D

 29 29  0  0  0  0  0  0  0  0999 V2000
    4.2972   -0.4722   -0.0650 C   0  0  0  0  0  0  0  0  0  0  0  0
    3.2221   -0.6859   -0.8574 O   0  0  0  0  0  0  0  0  0  0  0  0
    1.9761   -0.6956   -0.3483 C   0  0  0  0  0  0  0  0  0  0  0  0
    1.4760    0.5508    0.3279 C   0  0  2  0  0  0  0  0  0  0  0  0
    2.3200    0.8594    1.4677 N   0  0  0  0  0  0  0  0  0  0  0  0
    0.1256    0.2530    0.8645 C   0  0  0  0  0  0  0  0  0  0  0  0
    0.0561    0.0898    2.1377 O   0  0  0  0  0  0  0  0  0  0  0  0
   -1.0383    0.1449    0.0865 N   0  0  0  0  0  0  0  0  0  0  0  0
   -1.4044    0.2605   -1.2903 C   0  0  0  0  0  0  0  0  0  0  0  0
   -2.4578   -0.8258   -1.0031 C   0  0  2  0  0  0  0  0  0  0  0  0
   -3.6329   -0.6570   -1.6973 O   0  0  0  0  0  0  0  0  0  0  0  0
   -2.4212   -0.1447    0.3722 C   0  0  2  0  0  0  0  0  0  0  0  0
   -3.3253    1.0497    0.4759 C   0  0  0  0  0  0  0  0  0  0  0  0
    4.3598    0.4816    0.4626 H   0  0  0  0  0  0  0  0  0  0  0  0
    4.5302   -1.3443    0.6161 H   0  0  0  0  0  0  0  0  0  0  0  0
    5.2002   -0.4706   -0.7518 H   0  0  0  0  0  0  0  0  0  0  0  0
    1.2721   -0.9185   -1.1946 H   0  0  0  0  0  0  0  0  0  0  0  0
    1.7782   -1.5288    0.3751 H   0  0  0  0  0  0  0  0  0  0  0  0
    1.4690    1.4282   -0.3536 H   0  0  0  0  0  0  0  0  0  0  0  0
    2.5585   -0.0239    1.9951 H   0  0  0  0  0  0  0  0  0  0  0  0
    1.8526    1.5342    2.1094 H   0  0  0  0  0  0  0  0  0  0  0  0
   -0.7006   -0.0033   -2.0720 H   0  0  0  0  0  0  0  0  0  0  0  0
   -1.9227    1.2138   -1.5651 H   0  0  0  0  0  0  0  0  0  0  0  0
   -2.0068   -1.8152   -0.9754 H   0  0  0  0  0  0  0  0  0  0  0  0
   -4.1999   -1.4380   -1.5182 H   0  0  0  0  0  0  0  0  0  0  0  0
   -2.6163   -0.8538    1.1919 H   0  0  0  0  0  0  0  0  0  0  0  0
   -4.2395    0.8404   -0.1292 H   0  0  0  0  0  0  0  0  0  0  0  0
   -2.8390    2.0023    0.2031 H   0  0  0  0  0  0  0  0  0  0  0  0
   -3.6893    1.1689    1.5249 H   0  0  0  0  0  0  0  0  0  0  0  0
  1  2  1  0
  2  3  1  0
  3  4  1  0
  4  5  1  0
  4  6  1  0
  6  7  2  0
  6  8  1  0
  8  9  1  0
  9 10  1  0
 10 11  1  0
 10 12  1  0
 12 13  1  0
 12  8  1  0
  1 14  1  0
  1 15  1  0
  1 16  1  0
  3 17  1  0
  3 18  1  0
  4 19  1  6
  5 20  1  0
  5 21  1  0
  9 22  1  0
  9 23  1  0
 10 24  1  1
 11 25  1  0
 12 26  1  1
 13 27  1  0
 13 28  1  0
 13 29  1  0
M  END
$$$$

     RDKit          3D

 29 29  0  0  0  0  0  0  0  0999 V2000
    2.0578    1.3749    0.8944 C   0  0  0  0  0  0  0  0  0  0  0  0
    2.0233    0.7421   -0.3418 O   0  0  0  0  0  0  0  0  0  0  0  0
    2.3171   -0.5929   -0.2666 C   0  0  0  0  0  0  0  0  0  0  0  0
    1.3398   -1.4133    0.5616 C   0  0  2  0  0  0  0  0  0  0  0  0
    1.9158   -2.7796    0.5112 N   0  0  0  0  0  0  0  0  0  0  0  0
    0.0713   -1.4645   -0.1996 C   0  0  0  0  0  0  0  0  0  0  0  0
   -0.1214   -2.5405   -0.8747 O   0  0  0  0  0  0  0  0  0  0  0  0
   -0.9227   -0.4840   -0.2596 N   0  0  0  0  0  0  0  0  0  0  0  0
   -2.2073   -0.4327   -0.9917 C   0  0  0  0  0  0  0  0  0  0  0  0
   -2.7245    0.3709    0.1819 C   0  0  2  0  0  0  0  0  0  0  0  0
   -3.6109    1.3385   -0.2213 O   0  0  0  0  0  0  0  0  0  0  0  0
   -1.2665    0.8160    0.2554 C   0  0  2  0  0  0  0  0  0  0  0  0
   -0.9406    1.9437   -0.7003 C   0  0  0  0  0  0  0  0  0  0  0  0
    1.3500    0.9205    1.5795 H   0  0  0  0  0  0  0  0  0  0  0  0
    3.0703    1.3227    1.3599 H   0  0  0  0  0  0  0  0  0  0  0  0
    1.8321    2.4552    0.7000 H   0  0  0  0  0  0  0  0  0  0  0  0
    3.3385   -0.7983    0.1431 H   0  0  0  0  0  0  0  0  0  0  0  0
    2.2691   -1.0105   -1.2974 H   0  0  0  0  0  0  0  0  0  0  0  0
    1.2542   -1.1107    1.5984 H   0  0  0  0  0  0  0  0  0  0  0  0
    2.9479   -2.7223    0.7083 H   0  0  0  0  0  0  0  0  0  0  0  0
    1.8185   -3.1528   -0.4582 H   0  0  0  0  0  0  0  0  0  0  0  0
   -2.0491    0.1760   -1.9075 H   0  0  0  0  0  0  0  0  0  0  0  0
   -2.6850   -1.4089   -1.1231 H   0  0  0  0  0  0  0  0  0  0  0  0
   -3.0042   -0.2676    1.0245 H   0  0  0  0  0  0  0  0  0  0  0  0
   -4.5215    1.0488    0.0961 H   0  0  0  0  0  0  0  0  0  0  0  0
   -0.9810    1.0093    1.2891 H   0  0  0  0  0  0  0  0  0  0  0  0
   -1.8612    2.3630   -1.1535 H   0  0  0  0  0  0  0  0  0  0  0  0
   -0.3175    1.5677   -1.5246 H   0  0  0  0  0  0  0  0  0  0  0  0
   -0.3922    2.7292   -0.1570 H   0  0  0  0  0  0  0  0  0  0  0  0
  1  2  1  0
  2  3  1  0
  3  4  1  0
  4  5  1  0
  4  6  1  0
  6  7  2  0
  6  8  1  0
  8  9  1  0
  9 10  1  0
 10 11  1  0
 10 12  1  0
 12 13  1  0
 12  8  1  0
  1 14  1  0
  1 15  1  0
  1 16  1  0
  3 17  1  0
  3 18  1  0
  4 19  1  1
  5 20  1  0
  5 21  1  0
  9 22  1  0
  9 23  1  0
 10 24  1  1
 11 25  1  0
 12 26  1  1
 13 27  1  0
 13 28  1  0
 13 29  1  0
M  END
$$$$

     RDKit          3D

 29 29  0  0  0  0  0  0  0  0999 V2000
    3.4870    1.1711    0.4341 C   0  0  0  0  0  0  0  0  0  0  0  0
    3.3068    0.4184   -0.7033 O   0  0  0  0  0  0  0  0  0  0  0  0
    2.0083    0.0380   -0.9315 C   0  0  0  0  0  0  0  0  0  0  0  0
    1.4247   -0.8057    0.1873 C   0  0  2  0  0  0  0  0  0  0  0  0
    2.2471   -1.9887    0.2958 N   0  0  0  0  0  0  0  0  0  0  0  0
    0.0257   -1.1255   -0.1728 C   0  0  0  0  0  0  0  0  0  0  0  0
   -0.2837   -2.3320   -0.3384 O   0  0  0  0  0  0  0  0  0  0  0  0
   -0.9262   -0.0797   -0.3222 N   0  0  0  0  0  0  0  0  0  0  0  0
   -0.9685    1.3652   -0.2229 C   0  0  0  0  0  0  0  0  0  0  0  0
   -2.4489    1.2180    0.1524 C   0  0  2  0  0  0  0  0  0  0  0  0
   -2.6758    1.0369    1.5050 O   0  0  0  0  0  0  0  0  0  0  0  0
   -2.3382   -0.0389   -0.6582 C   0  0  2  0  0  0  0  0  0  0  0  0
   -3.1083   -1.2286   -0.1346 C   0  0  0  0  0  0  0  0  0  0  0  0
    4.5866    1.4067    0.4908 H   0  0  0  0  0  0  0  0  0  0  0  0
    3.2642    0.6200    1.3692 H   0  0  0  0  0  0  0  0  0  0  0  0
    2.9208    2.1042    0.4384 H   0  0  0  0  0  0  0  0  0  0  0  0
    1.9958   -0.6022   -1.8397 H   0  0  0  0  0  0  0  0  0  0  0  0
    1.3415    0.9003   -1.1259 H   0  0  0  0  0  0  0  0  0  0  0  0
    1.4034   -0.2627    1.1492 H   0  0  0  0  0  0  0  0  0  0  0  0
    1.7101   -2.8706    0.1235 H   0  0  0  0  0  0  0  0  0  0  0  0
    2.7342   -2.0044    1.2180 H   0  0  0  0  0  0  0  0  0  0  0  0
   -0.9271    1.8080   -1.2420 H   0  0  0  0  0  0  0  0  0  0  0  0
   -0.3412    1.8195    0.5436 H   0  0  0  0  0  0  0  0  0  0  0  0
   -3.0801    2.0219   -0.2787 H   0  0  0  0  0  0  0  0  0  0  0  0
   -3.1284    1.8173    1.8940 H   0  0  0  0  0  0  0  0  0  0  0  0
   -2.4695    0.1646   -1.7256 H   0  0  0  0  0  0  0  0  0  0  0  0
   -2.8083   -1.4112    0.9141 H   0  0  0  0  0  0  0  0  0  0  0  0
   -4.1748   -1.0496   -0.2695 H   0  0  0  0  0  0  0  0  0  0  0  0
   -2.7773   -2.1101   -0.7501 H   0  0  0  0  0  0  0  0  0  0  0  0
  1  2  1  0
  2  3  1  0
  3  4  1  0
  4  5  1  0
  4  6  1  0
  6  7  2  0
  6  8  1  0
  8  9  1  0
  9 10  1  0
 10 11  1  0
 10 12  1  0
 12 13  1  0
 12  8  1  0
  1 14  1  0
  1 15  1  0
  1 16  1  0
  3 17  1  0
  3 18  1  0
  4 19  1  1
  5 20  1  0
  5 21  1  0
  9 22  1  0
  9 23  1  0
 10 24  1  6
 11 25  1  0
 12 26  1  6
 13 27  1  0
 13 28  1  0
 13 29  1  0
M  END
$$$$

     RDKit          3D

 29 29  0  0  0  0  0  0  0  0999 V2000
    3.9473    0.7120    0.5406 C   0  0  0  0  0  0  0  0  0  0  0  0
    2.6928    1.1429    0.8219 O   0  0  0  0  0  0  0  0  0  0  0  0
    1.6448    0.7227    0.0871 C   0  0  0  0  0  0  0  0  0  0  0  0
    1.4254   -0.7425    0.1232 C   0  0  2  0  0  0  0  0  0  0  0  0
    2.5454   -1.4681   -0.4153 N   0  0  0  0  0  0  0  0  0  0  0  0
    0.1893   -1.0960   -0.6298 C   0  0  0  0  0  0  0  0  0  0  0  0
    0.3078   -1.9054   -1.5995 O   0  0  0  0  0  0  0  0  0  0  0  0
   -1.0958   -0.5914   -0.3326 N   0  0  0  0  0  0  0  0  0  0  0  0
   -2.4180   -0.8059   -0.9190 C   0  0  0  0  0  0  0  0  0  0  0  0
   -2.9647   -0.6325    0.4862 C   0  0  2  0  0  0  0  0  0  0  0  0
   -4.1880    0.0002    0.5238 O   0  0  0  0  0  0  0  0  0  0  0  0
   -1.7597    0.3059    0.6000 C   0  0  2  0  0  0  0  0  0  0  0  0
   -2.0635    1.6235   -0.0699 C   0  0  0  0  0  0  0  0  0  0  0  0
    4.1601   -0.3489    0.6301 H   0  0  0  0  0  0  0  0  0  0  0  0
    4.3045    1.0209   -0.4791 H   0  0  0  0  0  0  0  0  0  0  0  0
    4.6468    1.2226    1.2565 H   0  0  0  0  0  0  0  0  0  0  0  0
    0.7164    1.2297    0.4812 H   0  0  0  0  0  0  0  0  0  0  0  0
    1.7128    1.0701   -0.9834 H   0  0  0  0  0  0  0  0  0  0  0  0
    1.2704   -1.0972    1.1713 H   0  0  0  0  0  0  0  0  0  0  0  0
    2.3954   -2.4976   -0.3236 H   0  0  0  0  0  0  0  0  0  0  0  0
    2.6364   -1.1735   -1.4322 H   0  0  0  0  0  0  0  0  0  0  0  0
   -2.6035   -1.8222   -1.2856 H   0  0  0  0  0  0  0  0  0  0  0  0
   -2.6852   -0.0348   -1.6405 H   0  0  0  0  0  0  0  0  0  0  0  0
   -2.8889   -1.5464    1.0809 H   0  0  0  0  0  0  0  0  0  0  0  0
   -4.2363    0.5110    1.3723 H   0  0  0  0  0  0  0  0  0  0  0  0
   -1.3584    0.3653    1.6092 H   0  0  0  0  0  0  0  0  0  0  0  0
   -3.0745    1.6160   -0.5077 H   0  0  0  0  0  0  0  0  0  0  0  0
   -1.2806    1.7930   -0.8458 H   0  0  0  0  0  0  0  0  0  0  0  0
   -1.9787    2.4268    0.6797 H   0  0  0  0  0  0  0  0  0  0  0  0
  1  2  1  0
  2  3  1  0
  3  4  1  0
  4  5  1  0
  4  6  1  0
  6  7  2  0
  6  8  1  0
  8  9  1  0
  9 10  1  0
 10 11  1  0
 10 12  1  0
 12 13  1  0
 12  8  1  0
  1 14  1  0
  1 15  1  0
  1 16  1  0
  3 17  1  0
  3 18  1  0
  4 19  1  1
  5 20  1  0
  5 21  1  0
  9 22  1  0
  9 23  1  0
 10 24  1  1
 11 25  1  0
 12 26  1  1
 13 27  1  0
 13 28  1  0
 13 29  1  0
M  END
$$$$

     RDKit          3D

 29 29  0  0  0  0  0  0  0  0999 V2000
    3.8239   -0.8193    1.1805 C   0  0  0  0  0  0  0  0  0  0  0  0
    3.5982    0.1215    0.2082 O   0  0  0  0  0  0  0  0  0  0  0  0
    2.5085    0.9196    0.4065 C   0  0  0  0  0  0  0  0  0  0  0  0
    1.2447    0.0988    0.4598 C   0  0  2  0  0  0  0  0  0  0  0  0
    1.0900   -0.6199   -0.7723 N   0  0  0  0  0  0  0  0  0  0  0  0
    0.0605    0.9488    0.7429 C   0  0  0  0  0  0  0  0  0  0  0  0
    0.1554    1.8410    1.6650 O   0  0  0  0  0  0  0  0  0  0  0  0
   -1.1282    0.7829    0.0218 N   0  0  0  0  0  0  0  0  0  0  0  0
   -2.3714    1.5797    0.1277 C   0  0  0  0  0  0  0  0  0  0  0  0
   -3.1155    0.3495   -0.2729 C   0  0  2  0  0  0  0  0  0  0  0  0
   -3.3930   -0.5018    0.7924 O   0  0  0  0  0  0  0  0  0  0  0  0
   -1.7757    0.0087   -0.9565 C   0  0  2  0  0  0  0  0  0  0  0  0
   -1.5854   -1.4797   -1.0179 C   0  0  0  0  0  0  0  0  0  0  0  0
    4.7513   -1.3825    0.9025 H   0  0  0  0  0  0  0  0  0  0  0  0
    3.0112   -1.5754    1.2698 H   0  0  0  0  0  0  0  0  0  0  0  0
    3.9886   -0.3893    2.1728 H   0  0  0  0  0  0  0  0  0  0  0  0
    2.4295    1.6453   -0.4163 H   0  0  0  0  0  0  0  0  0  0  0  0
    2.5753    1.5055    1.3568 H   0  0  0  0  0  0  0  0  0  0  0  0
    1.2598   -0.6601    1.2736 H   0  0  0  0  0  0  0  0  0  0  0  0
    0.9669    0.0112   -1.6000 H   0  0  0  0  0  0  0  0  0  0  0  0
    1.8384   -1.3122   -0.8975 H   0  0  0  0  0  0  0  0  0  0  0  0
   -2.5742    1.9905    1.1163 H   0  0  0  0  0  0  0  0  0  0  0  0
   -2.4100    2.3294   -0.7155 H   0  0  0  0  0  0  0  0  0  0  0  0
   -3.8940    0.4482   -1.0274 H   0  0  0  0  0  0  0  0  0  0  0  0
   -4.3647   -0.6675    0.8804 H   0  0  0  0  0  0  0  0  0  0  0  0
   -1.7543    0.4391   -1.9769 H   0  0  0  0  0  0  0  0  0  0  0  0
   -2.6423   -1.9050   -1.1298 H   0  0  0  0  0  0  0  0  0  0  0  0
   -1.2025   -1.9492   -0.1196 H   0  0  0  0  0  0  0  0  0  0  0  0
   -1.0910   -1.7577   -1.9459 H   0  0  0  0  0  0  0  0  0  0  0  0
  1  2  1  0
  2  3  1  0
  3  4  1  0
  4  5  1  0
  4  6  1  0
  6  7  2  0
  6  8  1  0
  8  9  1  0
  9 10  1  0
 10 11  1  0
 10 12  1  0
 12 13  1  0
 12  8  1  0
  1 14  1  0
  1 15  1  0
  1 16  1  0
  3 17  1  0
  3 18  1  0
  4 19  1  1
  5 20  1  0
  5 21  1  0
  9 22  1  0
  9 23  1  0
 10 24  1  6
 11 25  1  0
 12 26  1  6
 13 27  1  0
 13 28  1  0
 13 29  1  0
M  END
$$$$

     RDKit          3D

 29 29  0  0  0  0  0  0  0  0999 V2000
    4.1602    0.1720    0.2071 C   0  0  0  0  0  0  0  0  0  0  0  0
    3.1139   -0.3405    0.9039 O   0  0  0  0  0  0  0  0  0  0  0  0
    1.8806    0.1933    0.7642 C   0  0  0  0  0  0  0  0  0  0  0  0
    1.3039    0.1428   -0.6206 C   0  0  2  0  0  0  0  0  0  0  0  0
    2.0432    0.8481   -1.6170 N   0  0  0  0  0  0  0  0  0  0  0  0
   -0.1283    0.5923   -0.5733 C   0  0  0  0  0  0  0  0  0  0  0  0
   -0.4420    1.5621   -1.3157 O   0  0  0  0  0  0  0  0  0  0  0  0
   -1.1131   -0.0051    0.2416 N   0  0  0  0  0  0  0  0  0  0  0  0
   -1.1724   -1.0943    1.1873 C   0  0  0  0  0  0  0  0  0  0  0  0
   -2.6421   -1.2636    0.7717 C   0  0  2  0  0  0  0  0  0  0  0  0
   -2.7390   -1.9903   -0.3879 O   0  0  0  0  0  0  0  0  0  0  0  0
   -2.5190    0.2183    0.4946 C   0  0  2  0  0  0  0  0  0  0  0  0
   -3.3151    0.7048   -0.6889 C   0  0  0  0  0  0  0  0  0  0  0  0
    4.0770    0.1164   -0.8805 H   0  0  0  0  0  0  0  0  0  0  0  0
    5.1201   -0.2511    0.5871 H   0  0  0  0  0  0  0  0  0  0  0  0
    4.2166    1.2729    0.4654 H   0  0  0  0  0  0  0  0  0  0  0  0
    1.8081    1.2508    1.1505 H   0  0  0  0  0  0  0  0  0  0  0  0
    1.1831   -0.4360    1.3997 H   0  0  0  0  0  0  0  0  0  0  0  0
    1.3121   -0.9454   -0.9219 H   0  0  0  0  0  0  0  0  0  0  0  0
    1.9645    0.3778   -2.5410 H   0  0  0  0  0  0  0  0  0  0  0  0
    1.8908    1.8680   -1.6373 H   0  0  0  0  0  0  0  0  0  0  0  0
   -0.5602   -1.9927    0.9448 H   0  0  0  0  0  0  0  0  0  0  0  0
   -1.0506   -0.7298    2.2164 H   0  0  0  0  0  0  0  0  0  0  0  0
   -3.3080   -1.5320    1.6015 H   0  0  0  0  0  0  0  0  0  0  0  0
   -1.8561   -2.0333   -0.8561 H   0  0  0  0  0  0  0  0  0  0  0  0
   -2.6405    0.8256    1.4031 H   0  0  0  0  0  0  0  0  0  0  0  0
   -4.3306    0.9626   -0.3213 H   0  0  0  0  0  0  0  0  0  0  0  0
   -2.8872    1.6284   -1.1229 H   0  0  0  0  0  0  0  0  0  0  0  0
   -3.3701   -0.1220   -1.4417 H   0  0  0  0  0  0  0  0  0  0  0  0
  1  2  1  0
  2  3  1  0
  3  4  1  0
  4  5  1  0
  4  6  1  0
  6  7  2  0
  6  8  1  0
  8  9  1  0
  9 10  1  0
 10 11  1  0
 10 12  1  0
 12 13  1  0
 12  8  1  0
  1 14  1  0
  1 15  1  0
  1 16  1  0
  3 17  1  0
  3 18  1  0
  4 19  1  6
  5 20  1  0
  5 21  1  0
  9 22  1  0
  9 23  1  0
 10 24  1  1
 11 25  1  0
 12 26  1  1
 13 27  1  0
 13 28  1  0
 13 29  1  0
M  END
$$$$

     RDKit          3D

 29 29  0  0  0  0  0  0  0  0999 V2000
    4.1267   -0.4254   -0.2708 C   0  0  0  0  0  0  0  0  0  0  0  0
    3.8183    0.8785    0.0002 O   0  0  0  0  0  0  0  0  0  0  0  0
    2.5429    1.2947   -0.2308 C   0  0  0  0  0  0  0  0  0  0  0  0
    1.4587    0.6176    0.5107 C   0  0  2  0  0  0  0  0  0  0  0  0
    1.3335   -0.7889    0.2748 N   0  0  0  0  0  0  0  0  0  0  0  0
    0.1348    1.2507    0.3905 C   0  0  0  0  0  0  0  0  0  0  0  0
    0.1465    2.5090    0.5707 O   0  0  0  0  0  0  0  0  0  0  0  0
   -1.0829    0.6064    0.1061 N   0  0  0  0  0  0  0  0  0  0  0  0
   -2.4404    1.1009   -0.0420 C   0  0  0  0  0  0  0  0  0  0  0  0
   -2.7773   -0.0764   -0.9228 C   0  0  2  0  0  0  0  0  0  0  0  0
   -4.0263   -0.5979   -0.6145 O   0  0  0  0  0  0  0  0  0  0  0  0
   -1.6290   -0.7123   -0.1639 C   0  0  2  0  0  0  0  0  0  0  0  0
   -2.1938   -1.4304    1.0416 C   0  0  0  0  0  0  0  0  0  0  0  0
    5.2274   -0.5913   -0.0402 H   0  0  0  0  0  0  0  0  0  0  0  0
    3.6279   -1.1673    0.4244 H   0  0  0  0  0  0  0  0  0  0  0  0
    3.9962   -0.7351   -1.3161 H   0  0  0  0  0  0  0  0  0  0  0  0
    2.3448    1.1052   -1.3310 H   0  0  0  0  0  0  0  0  0  0  0  0
    2.5318    2.4010   -0.1486 H   0  0  0  0  0  0  0  0  0  0  0  0
    1.7242    0.7107    1.6097 H   0  0  0  0  0  0  0  0  0  0  0  0
    0.6872   -1.2447    0.9283 H   0  0  0  0  0  0  0  0  0  0  0  0
    1.3011   -1.0662   -0.7075 H   0  0  0  0  0  0  0  0  0  0  0  0
   -2.5221    2.0799   -0.5493 H   0  0  0  0  0  0  0  0  0  0  0  0
   -2.9626    1.0143    0.9300 H   0  0  0  0  0  0  0  0  0  0  0  0
   -2.5844    0.0800   -2.0007 H   0  0  0  0  0  0  0  0  0  0  0  0
   -4.6602   -0.5539   -1.3788 H   0  0  0  0  0  0  0  0  0  0  0  0
   -1.0675   -1.3665   -0.8273 H   0  0  0  0  0  0  0  0  0  0  0  0
   -1.6176   -2.3647    1.2232 H   0  0  0  0  0  0  0  0  0  0  0  0
   -2.2007   -0.7762    1.9219 H   0  0  0  0  0  0  0  0  0  0  0  0
   -3.2373   -1.7518    0.8442 H   0  0  0  0  0  0  0  0  0  0  0  0
  1  2  1  0
  2  3  1  0
  3  4  1  0
  4  5  1  0
  4  6  1  0
  6  7  2  0
  6  8  1  0
  8  9  1  0
  9 10  1  0
 10 11  1  0
 10 12  1  0
 12 13  1  0
 12  8  1  0
  1 14  1  0
  1 15  1  0
  1 16  1  0
  3 17  1  0
  3 18  1  0
  4 19  1  1
  5 20  1  0
  5 21  1  0
  9 22  1  0
  9 23  1  0
 10 24  1  6
 11 25  1  0
 12 26  1  6
 13 27  1  0
 13 28  1  0
 13 29  1  0
M  END
$$$$

     RDKit          3D

 29 29  0  0  0  0  0  0  0  0999 V2000
    3.6749    1.0683   -0.1335 C   0  0  0  0  0  0  0  0  0  0  0  0
    2.7967    0.0260   -0.3583 O   0  0  0  0  0  0  0  0  0  0  0  0
    2.1037   -0.2127    0.8169 C   0  0  0  0  0  0  0  0  0  0  0  0
    1.1034   -1.3496    0.6774 C   0  0  2  0  0  0  0  0  0  0  0  0
    1.8112   -2.5781    0.3180 N   0  0  0  0  0  0  0  0  0  0  0  0
    0.0939   -1.1073   -0.3689 C   0  0  0  0  0  0  0  0  0  0  0  0
    0.1611   -1.7764   -1.4371 O   0  0  0  0  0  0  0  0  0  0  0  0
   -0.9138   -0.1564   -0.1727 N   0  0  0  0  0  0  0  0  0  0  0  0
   -1.3350    0.7587    0.8419 C   0  0  0  0  0  0  0  0  0  0  0  0
   -1.8813    1.6277   -0.2784 C   0  0  2  0  0  0  0  0  0  0  0  0
   -3.0182    2.3339    0.0130 O   0  0  0  0  0  0  0  0  0  0  0  0
   -2.0293    0.3222   -0.9802 C   0  0  2  0  0  0  0  0  0  0  0  0
   -3.3181   -0.4122   -0.7772 C   0  0  0  0  0  0  0  0  0  0  0  0
    4.2276    1.2580   -1.0724 H   0  0  0  0  0  0  0  0  0  0  0  0
    3.1327    1.9707    0.1616 H   0  0  0  0  0  0  0  0  0  0  0  0
    4.3622    0.7999    0.7107 H   0  0  0  0  0  0  0  0  0  0  0  0
    2.8269   -0.5871    1.6036 H   0  0  0  0  0  0  0  0  0  0  0  0
    1.6191    0.6441    1.2631 H   0  0  0  0  0  0  0  0  0  0  0  0
    0.6548   -1.5061    1.6763 H   0  0  0  0  0  0  0  0  0  0  0  0
    2.8276   -2.4480    0.3437 H   0  0  0  0  0  0  0  0  0  0  0  0
    1.4405   -3.0077   -0.5488 H   0  0  0  0  0  0  0  0  0  0  0  0
   -0.6074    1.3086    1.4281 H   0  0  0  0  0  0  0  0  0  0  0  0
   -2.1257    0.3771    1.5316 H   0  0  0  0  0  0  0  0  0  0  0  0
   -1.0959    2.2635   -0.6893 H   0  0  0  0  0  0  0  0  0  0  0  0
   -3.7656    1.7916    0.3478 H   0  0  0  0  0  0  0  0  0  0  0  0
   -1.8046    0.3883   -2.0742 H   0  0  0  0  0  0  0  0  0  0  0  0
   -3.3278   -1.2659   -1.4954 H   0  0  0  0  0  0  0  0  0  0  0  0
   -3.4657   -0.8004    0.2396 H   0  0  0  0  0  0  0  0  0  0  0  0
   -4.1477    0.2695   -1.0589 H   0  0  0  0  0  0  0  0  0  0  0  0
  1  2  1  0
  2  3  1  0
  3  4  1  0
  4  5  1  0
  4  6  1  0
  6  7  2  0
  6  8  1  0
  8  9  1  0
  9 10  1  0
 10 11  1  0
 10 12  1  0
 12 13  1  0
 12  8  1  0
  1 14  1  0
  1 15  1  0
  1 16  1  0
  3 17  1  0
  3 18  1  0
  4 19  1  1
  5 20  1  0
  5 21  1  0
  9 22  1  0
  9 23  1  0
 10 24  1  6
 11 25  1  0
 12 26  1  6
 13 27  1  0
 13 28  1  0
 13 29  1  0
M  END
$$$$
