
     RDKit          3D

 22 23  0  0  0  0  0  0  0  0999 V2000
   -1.3807    2.0855   -1.0160 N   0  0  0  0  0  0  0  0  0  0  0  0
   -0.3843    1.0740   -1.0405 C   0  0  0  0  0  0  0  0  0  0  0  0
    0.6172    1.2875   -1.7689 O   0  0  0  0  0  0  0  0  0  0  0  0
   -0.5114   -0.1734   -0.2500 C   0  0  0  0  0  0  0  0  0  0  0  0
    0.5764   -1.0931   -0.3649 N   0  0  0  0  0  0  0  0  0  0  0  0
    1.8791   -0.7143    0.0559 C   0  0  0  0  0  0  0  0  0  0  0  0
    2.2489    0.4038    0.5694 C   0  0  0  0  0  0  0  0  0  0  0  0
    3.6095    0.5773    0.9183 N   0  0  0  0  0  0  0  0  0  0  0  0
    4.3736   -0.9764    0.4689 S   0  0  0  0  0  0  0  0  0  0  0  0
    2.9320   -1.7064   -0.1141 N   0  0  0  0  0  0  0  0  0  0  0  0
   -1.8873   -0.8170   -0.4051 C   0  0  0  0  0  0  0  0  0  0  0  0
   -1.9059   -1.0756    1.0228 N   0  0  0  0  0  0  0  0  0  0  0  0
   -0.9562    0.0306    1.1809 C   0  0  0  0  0  0  0  0  0  0  0  0
   -1.2011    3.0629   -0.7077 H   0  0  0  0  0  0  0  0  0  0  0  0
   -2.3475    1.8509   -1.3201 H   0  0  0  0  0  0  0  0  0  0  0  0
    0.3644   -2.0322   -0.7643 H   0  0  0  0  0  0  0  0  0  0  0  0
    1.5999    1.2844    0.7822 H   0  0  0  0  0  0  0  0  0  0  0  0
   -2.6369   -0.0772   -0.7218 H   0  0  0  0  0  0  0  0  0  0  0  0
   -1.8112   -1.7142   -1.0502 H   0  0  0  0  0  0  0  0  0  0  0  0
   -1.5315   -2.0085    1.2933 H   0  0  0  0  0  0  0  0  0  0  0  0
   -1.4765    0.9780    1.3309 H   0  0  0  0  0  0  0  0  0  0  0  0
   -0.1705   -0.2465    1.9008 H   0  0  0  0  0  0  0  0  0  0  0  0
  1  2  1  0
  2  3  2  0
  2  4  1  0
  4  5  1  0
  5  6  1  0
  6  7  1  0
  7  8  2  0
  8  9  1  0
  9 10  1  0
  4 11  1  0
 11 12  1  0
 12 13  1  0
 13  4  1  0
 10  6  2  0
  1 14  1  0
  1 15  1  0
  5 16  1  0
  7 17  1  0
 11 18  1  0
 11 19  1  0
 12 20  1  0
 13 21  1  0
 13 22  1  0
M  END
$$$$

     RDKit          3D

 22 23  0  0  0  0  0  0  0  0999 V2000
   -2.8006    1.1479   -0.0288 N   0  0  0  0  0  0  0  0  0  0  0  0
   -1.4589    1.4139   -0.3023 C   0  0  0  0  0  0  0  0  0  0  0  0
   -1.1040    2.5429   -0.6983 O   0  0  0  0  0  0  0  0  0  0  0  0
   -0.4356    0.3517   -0.1240 C   0  0  0  0  0  0  0  0  0  0  0  0
    0.8625    0.7884   -0.4433 N   0  0  0  0  0  0  0  0  0  0  0  0
    2.0696   -0.0045   -0.3638 C   0  0  0  0  0  0  0  0  0  0  0  0
    3.3002    0.3534   -0.6504 C   0  0  0  0  0  0  0  0  0  0  0  0
    4.3297   -0.5737   -0.5023 N   0  0  0  0  0  0  0  0  0  0  0  0
    3.5538   -2.0157    0.0629 S   0  0  0  0  0  0  0  0  0  0  0  0
    1.9057   -1.3189    0.0749 N   0  0  0  0  0  0  0  0  0  0  0  0
   -0.9474   -0.9233   -0.7735 C   0  0  0  0  0  0  0  0  0  0  0  0
   -1.7919   -1.0771    0.4215 N   0  0  0  0  0  0  0  0  0  0  0  0
   -0.7020   -0.3897    1.1405 C   0  0  0  0  0  0  0  0  0  0  0  0
   -3.0861    0.9071    0.9448 H   0  0  0  0  0  0  0  0  0  0  0  0
   -3.5457    1.1785   -0.7634 H   0  0  0  0  0  0  0  0  0  0  0  0
    1.0049    1.7770   -0.7737 H   0  0  0  0  0  0  0  0  0  0  0  0
    3.5916    1.3708   -1.0132 H   0  0  0  0  0  0  0  0  0  0  0  0
   -0.2301   -1.7551   -0.7878 H   0  0  0  0  0  0  0  0  0  0  0  0
   -1.5097   -0.7765   -1.7057 H   0  0  0  0  0  0  0  0  0  0  0  0
   -1.9268   -2.0646    0.7184 H   0  0  0  0  0  0  0  0  0  0  0  0
    0.0164   -1.1662    1.4571 H   0  0  0  0  0  0  0  0  0  0  0  0
   -1.0955    0.2336    1.9875 H   0  0  0  0  0  0  0  0  0  0  0  0
  1  2  1  0
  2  3  2  0
  2  4  1  0
  4  5  1  0
  5  6  1  0
  6  7  1  0
  7  8  2  0
  8  9  1  0
  9 10  1  0
  4 11  1  0
 11 12  1  0
 12 13  1  0
 13  4  1  0
 10  6  2  0
  1 14  1  0
  1 15  1  0
  5 16  1  0
  7 17  1  0
 11 18  1  0
 11 19  1  0
 12 20  1  0
 13 21  1  0
 13 22  1  0
M  END
$$$$

     RDKit          3D

 22 23  0  0  0  0  0  0  0  0999 V2000
   -2.1282   -1.6082    0.4956 N   0  0  0  0  0  0  0  0  0  0  0  0
   -0.7453   -1.3403    0.3166 C   0  0  0  0  0  0  0  0  0  0  0  0
    0.0844   -2.1725    0.7495 O   0  0  0  0  0  0  0  0  0  0  0  0
   -0.3864   -0.1008   -0.3665 C   0  0  0  0  0  0  0  0  0  0  0  0
    1.0253    0.0822   -0.5000 N   0  0  0  0  0  0  0  0  0  0  0  0
    1.9063    0.1680    0.6350 C   0  0  0  0  0  0  0  0  0  0  0  0
    3.2109    0.3348    0.6419 C   0  0  0  0  0  0  0  0  0  0  0  0
    3.9012    0.3967    1.7753 N   0  0  0  0  0  0  0  0  0  0  0  0
    2.6671    0.2089    3.0563 S   0  0  0  0  0  0  0  0  0  0  0  0
    1.3279    0.0632    1.9535 N   0  0  0  0  0  0  0  0  0  0  0  0
   -1.0856    0.0775   -1.6948 C   0  0  0  0  0  0  0  0  0  0  0  0
   -1.1022    1.5197   -1.4058 N   0  0  0  0  0  0  0  0  0  0  0  0
   -1.1740    1.1253    0.0100 C   0  0  0  0  0  0  0  0  0  0  0  0
   -2.4722   -2.5183    0.0669 H   0  0  0  0  0  0  0  0  0  0  0  0
   -2.7678   -0.9718    1.0048 H   0  0  0  0  0  0  0  0  0  0  0  0
    1.4400    0.1564   -1.4495 H   0  0  0  0  0  0  0  0  0  0  0  0
    3.7849    0.4313   -0.3478 H   0  0  0  0  0  0  0  0  0  0  0  0
   -0.5092   -0.2021   -2.5729 H   0  0  0  0  0  0  0  0  0  0  0  0
   -2.1140   -0.3306   -1.6534 H   0  0  0  0  0  0  0  0  0  0  0  0
   -1.9542    2.0130   -1.6959 H   0  0  0  0  0  0  0  0  0  0  0  0
   -2.2131    0.8507    0.2752 H   0  0  0  0  0  0  0  0  0  0  0  0
   -0.6960    1.8169    0.7058 H   0  0  0  0  0  0  0  0  0  0  0  0
  1  2  1  0
  2  3  2  0
  2  4  1  0
  4  5  1  0
  5  6  1  0
  6  7  1  0
  7  8  2  0
  8  9  1  0
  9 10  1  0
  4 11  1  0
 11 12  1  0
 12 13  1  0
 13  4  1  0
 10  6  2  0
  1 14  1  0
  1 15  1  0
  5 16  1  0
  7 17  1  0
 11 18  1  0
 11 19  1  0
 12 20  1  0
 13 21  1  0
 13 22  1  0
M  END
$$$$

     RDKit          3D

 22 23  0  0  0  0  0  0  0  0999 V2000
   -1.8645    1.0680    1.3640 N   0  0  0  0  0  0  0  0  0  0  0  0
   -0.6150    0.4196    1.1849 C   0  0  0  0  0  0  0  0  0  0  0  0
    0.2773    0.6605    2.0264 O   0  0  0  0  0  0  0  0  0  0  0  0
   -0.3328   -0.5173    0.0561 C   0  0  0  0  0  0  0  0  0  0  0  0
    1.0011   -1.0459    0.0473 N   0  0  0  0  0  0  0  0  0  0  0  0
    2.1338   -0.1306   -0.1263 C   0  0  0  0  0  0  0  0  0  0  0  0
    2.0746    1.1670   -0.2962 C   0  0  0  0  0  0  0  0  0  0  0  0
    3.2127    1.8944   -0.4415 N   0  0  0  0  0  0  0  0  0  0  0  0
    4.5010    0.7905   -0.3499 S   0  0  0  0  0  0  0  0  0  0  0  0
    3.4385   -0.6789   -0.1093 N   0  0  0  0  0  0  0  0  0  0  0  0
   -0.8311   -0.0671   -1.2915 C   0  0  0  0  0  0  0  0  0  0  0  0
   -2.1037   -0.6693   -0.9705 N   0  0  0  0  0  0  0  0  0  0  0  0
   -1.4266   -1.5367   -0.0382 C   0  0  0  0  0  0  0  0  0  0  0  0
   -2.1491    1.9132    0.8142 H   0  0  0  0  0  0  0  0  0  0  0  0
   -2.5718    0.7282    2.0638 H   0  0  0  0  0  0  0  0  0  0  0  0
    1.2034   -2.0488    0.1583 H   0  0  0  0  0  0  0  0  0  0  0  0
    1.1090    1.7284   -0.3331 H   0  0  0  0  0  0  0  0  0  0  0  0
   -0.8708    1.0299   -1.4681 H   0  0  0  0  0  0  0  0  0  0  0  0
   -0.2541   -0.6203   -2.0854 H   0  0  0  0  0  0  0  0  0  0  0  0
   -2.7472    0.0468   -0.5753 H   0  0  0  0  0  0  0  0  0  0  0  0
   -2.0301   -1.6383    0.8923 H   0  0  0  0  0  0  0  0  0  0  0  0
   -1.1545   -2.4933   -0.5220 H   0  0  0  0  0  0  0  0  0  0  0  0
  1  2  1  0
  2  3  2  0
  2  4  1  0
  4  5  1  0
  5  6  1  0
  6  7  1  0
  7  8  2  0
  8  9  1  0
  9 10  1  0
  4 11  1  0
 11 12  1  0
 12 13  1  0
 13  4  1  0
 10  6  2  0
  1 14  1  0
  1 15  1  0
  5 16  1  0
  7 17  1  0
 11 18  1  0
 11 19  1  0
 12 20  1  0
 13 21  1  0
 13 22  1  0
M  END
$$$$

     RDKit          3D

 22 23  0  0  0  0  0  0  0  0999 V2000
   -1.8338    1.4642   -1.1568 N   0  0  0  0  0  0  0  0  0  0  0  0
   -0.7803    1.2146   -0.2434 C   0  0  0  0  0  0  0  0  0  0  0  0
   -0.0843    2.1865    0.1358 O   0  0  0  0  0  0  0  0  0  0  0  0
   -0.4570   -0.1247    0.2860 C   0  0  0  0  0  0  0  0  0  0  0  0
    0.6544   -0.1300    1.1737 N   0  0  0  0  0  0  0  0  0  0  0  0
    1.9767    0.2384    0.7257 C   0  0  0  0  0  0  0  0  0  0  0  0
    2.3057    0.5882   -0.4961 C   0  0  0  0  0  0  0  0  0  0  0  0
    3.6203    0.9245   -0.7893 N   0  0  0  0  0  0  0  0  0  0  0  0
    4.4137    0.7072    0.8500 S   0  0  0  0  0  0  0  0  0  0  0  0
    3.0478    0.2421    1.6546 N   0  0  0  0  0  0  0  0  0  0  0  0
   -1.6553   -0.8257    0.8926 C   0  0  0  0  0  0  0  0  0  0  0  0
   -1.9434   -1.4495   -0.3930 N   0  0  0  0  0  0  0  0  0  0  0  0
   -0.5408   -1.2462   -0.7114 C   0  0  0  0  0  0  0  0  0  0  0  0
   -2.7921    1.0589   -1.0951 H   0  0  0  0  0  0  0  0  0  0  0  0
   -1.6452    2.1033   -1.9582 H   0  0  0  0  0  0  0  0  0  0  0  0
    0.4945   -0.4072    2.1663 H   0  0  0  0  0  0  0  0  0  0  0  0
    1.5691    0.6388   -1.3827 H   0  0  0  0  0  0  0  0  0  0  0  0
   -1.4043   -1.6228    1.6265 H   0  0  0  0  0  0  0  0  0  0  0  0
   -2.3896   -0.0893    1.2313 H   0  0  0  0  0  0  0  0  0  0  0  0
   -2.2240   -2.4548   -0.3193 H   0  0  0  0  0  0  0  0  0  0  0  0
    0.1347   -2.0739   -0.4132 H   0  0  0  0  0  0  0  0  0  0  0  0
   -0.4668   -0.9428   -1.7840 H   0  0  0  0  0  0  0  0  0  0  0  0
  1  2  1  0
  2  3  2  0
  2  4  1  0
  4  5  1  0
  5  6  1  0
  6  7  1  0
  7  8  2  0
  8  9  1  0
  9 10  1  0
  4 11  1  0
 11 12  1  0
 12 13  1  0
 13  4  1  0
 10  6  2  0
  1 14  1  0
  1 15  1  0
  5 16  1  0
  7 17  1  0
 11 18  1  0
 11 19  1  0
 12 20  1  0
 13 21  1  0
 13 22  1  0
M  END
$$$$

     RDKit          3D

 22 23  0  0  0  0  0  0  0  0999 V2000
   -2.8978    0.9260    0.4244 N   0  0  0  0  0  0  0  0  0  0  0  0
   -1.6709    1.2741   -0.1840 C   0  0  0  0  0  0  0  0  0  0  0  0
   -1.5779    2.3212   -0.8514 O   0  0  0  0  0  0  0  0  0  0  0  0
   -0.5210    0.3249    0.0219 C   0  0  0  0  0  0  0  0  0  0  0  0
    0.6776    0.7587   -0.6293 N   0  0  0  0  0  0  0  0  0  0  0  0
    1.9309    0.0796   -0.5927 C   0  0  0  0  0  0  0  0  0  0  0  0
    3.0347    0.4268   -1.1635 C   0  0  0  0  0  0  0  0  0  0  0  0
    4.1814   -0.2613   -1.0845 N   0  0  0  0  0  0  0  0  0  0  0  0
    3.7032   -1.6548   -0.0408 S   0  0  0  0  0  0  0  0  0  0  0  0
    2.0575   -1.1578    0.1601 N   0  0  0  0  0  0  0  0  0  0  0  0
   -0.8498   -1.0868   -0.3588 C   0  0  0  0  0  0  0  0  0  0  0  0
   -0.4367   -1.5321    0.9302 N   0  0  0  0  0  0  0  0  0  0  0  0
   -0.4283   -0.1943    1.4094 C   0  0  0  0  0  0  0  0  0  0  0  0
   -3.4463    1.5836    1.0379 H   0  0  0  0  0  0  0  0  0  0  0  0
   -3.3194   -0.0124    0.2895 H   0  0  0  0  0  0  0  0  0  0  0  0
    0.6170    1.6532   -1.1768 H   0  0  0  0  0  0  0  0  0  0  0  0
    3.1394    1.3845   -1.8101 H   0  0  0  0  0  0  0  0  0  0  0  0
   -1.9346   -1.2969   -0.5156 H   0  0  0  0  0  0  0  0  0  0  0  0
   -0.2171   -1.4697   -1.2172 H   0  0  0  0  0  0  0  0  0  0  0  0
   -1.1152   -2.1912    1.4002 H   0  0  0  0  0  0  0  0  0  0  0  0
   -1.3922    0.0056    1.9563 H   0  0  0  0  0  0  0  0  0  0  0  0
    0.4656    0.1189    1.9946 H   0  0  0  0  0  0  0  0  0  0  0  0
  1  2  1  0
  2  3  2  0
  2  4  1  0
  4  5  1  0
  5  6  1  0
  6  7  1  0
  7  8  2  0
  8  9  1  0
  9 10  1  0
  4 11  1  0
 11 12  1  0
 12 13  1  0
 13  4  1  0
 10  6  2  0
  1 14  1  0
  1 15  1  0
  5 16  1  0
  7 17  1  0
 11 18  1  0
 11 19  1  0
 12 20  1  0
 13 21  1  0
 13 22  1  0
M  END
$$$$

     RDKit          3D

 22 23  0  0  0  0  0  0  0  0999 V2000
   -2.4713    1.7068    0.3502 N   0  0  0  0  0  0  0  0  0  0  0  0
   -1.0545    1.7601    0.2226 C   0  0  0  0  0  0  0  0  0  0  0  0
   -0.4343    2.8538    0.2100 O   0  0  0  0  0  0  0  0  0  0  0  0
   -0.3535    0.4482    0.1056 C   0  0  0  0  0  0  0  0  0  0  0  0
    1.0441    0.6084   -0.0159 N   0  0  0  0  0  0  0  0  0  0  0  0
    1.9900   -0.5169   -0.1432 C   0  0  0  0  0  0  0  0  0  0  0  0
    3.2965   -0.3526   -0.2570 C   0  0  0  0  0  0  0  0  0  0  0  0
    4.0567   -1.4804   -0.3670 N   0  0  0  0  0  0  0  0  0  0  0  0
    2.9925   -2.7881   -0.3163 S   0  0  0  0  0  0  0  0  0  0  0  0
    1.4761   -1.7911   -0.1418 N   0  0  0  0  0  0  0  0  0  0  0  0
   -1.0146   -0.3448   -0.9970 C   0  0  0  0  0  0  0  0  0  0  0  0
   -1.9708   -0.8147   -0.0035 N   0  0  0  0  0  0  0  0  0  0  0  0
   -0.9362   -0.5696    1.0038 C   0  0  0  0  0  0  0  0  0  0  0  0
   -2.9335    1.0913    1.0518 H   0  0  0  0  0  0  0  0  0  0  0  0
   -3.0806    2.3032   -0.2785 H   0  0  0  0  0  0  0  0  0  0  0  0
    1.4369    1.5630   -0.0167 H   0  0  0  0  0  0  0  0  0  0  0  0
    3.8244    0.6225   -0.2705 H   0  0  0  0  0  0  0  0  0  0  0  0
   -0.3661   -1.1272   -1.4175 H   0  0  0  0  0  0  0  0  0  0  0  0
   -1.4783    0.3213   -1.7736 H   0  0  0  0  0  0  0  0  0  0  0  0
   -2.2255   -1.8197   -0.0999 H   0  0  0  0  0  0  0  0  0  0  0  0
   -1.3927   -0.1803    1.9572 H   0  0  0  0  0  0  0  0  0  0  0  0
   -0.4052   -1.4931    1.1971 H   0  0  0  0  0  0  0  0  0  0  0  0
  1  2  1  0
  2  3  2  0
  2  4  1  0
  4  5  1  0
  5  6  1  0
  6  7  1  0
  7  8  2  0
  8  9  1  0
  9 10  1  0
  4 11  1  0
 11 12  1  0
 12 13  1  0
 13  4  1  0
 10  6  2  0
  1 14  1  0
  1 15  1  0
  5 16  1  0
  7 17  1  0
 11 18  1  0
 11 19  1  0
 12 20  1  0
 13 21  1  0
 13 22  1  0
M  END
$$$$

     RDKit          3D

 22 23  0  0  0  0  0  0  0  0999 V2000
   -1.8925    2.0394   -0.2184 N   0  0  0  0  0  0  0  0  0  0  0  0
   -0.6863    1.4739    0.2740 C   0  0  0  0  0  0  0  0  0  0  0  0
    0.2654    2.1684    0.7132 O   0  0  0  0  0  0  0  0  0  0  0  0
   -0.5324    0.0127    0.2752 C   0  0  0  0  0  0  0  0  0  0  0  0
    0.7016   -0.4954    0.7821 N   0  0  0  0  0  0  0  0  0  0  0  0
    1.9637   -0.1874    0.2039 C   0  0  0  0  0  0  0  0  0  0  0  0
    3.1627   -0.5608    0.5339 C   0  0  0  0  0  0  0  0  0  0  0  0
    4.2742   -0.1686   -0.1374 N   0  0  0  0  0  0  0  0  0  0  0  0
    3.5416    0.8843   -1.4307 S   0  0  0  0  0  0  0  0  0  0  0  0
    1.9658    0.6980   -0.9683 N   0  0  0  0  0  0  0  0  0  0  0  0
   -0.8804   -0.6487   -1.0689 C   0  0  0  0  0  0  0  0  0  0  0  0
   -1.3219   -1.7974   -0.2593 N   0  0  0  0  0  0  0  0  0  0  0  0
   -1.7219   -0.7927    0.7396 C   0  0  0  0  0  0  0  0  0  0  0  0
   -2.4934    2.5945    0.4216 H   0  0  0  0  0  0  0  0  0  0  0  0
   -2.2098    1.9237   -1.2049 H   0  0  0  0  0  0  0  0  0  0  0  0
    0.6776   -1.1294    1.6257 H   0  0  0  0  0  0  0  0  0  0  0  0
    3.3518   -1.2440    1.4123 H   0  0  0  0  0  0  0  0  0  0  0  0
   -1.7475   -0.1689   -1.5242 H   0  0  0  0  0  0  0  0  0  0  0  0
   -0.0033   -0.8441   -1.6828 H   0  0  0  0  0  0  0  0  0  0  0  0
   -2.1344   -2.2453   -0.7153 H   0  0  0  0  0  0  0  0  0  0  0  0
   -2.6854   -0.3823    0.4460 H   0  0  0  0  0  0  0  0  0  0  0  0
   -1.5950   -1.1297    1.7827 H   0  0  0  0  0  0  0  0  0  0  0  0
  1  2  1  0
  2  3  2  0
  2  4  1  0
  4  5  1  0
  5  6  1  0
  6  7  1  0
  7  8  2  0
  8  9  1  0
  9 10  1  0
  4 11  1  0
 11 12  1  0
 12 13  1  0
 13  4  1  0
 10  6  2  0
  1 14  1  0
  1 15  1  0
  5 16  1  0
  7 17  1  0
 11 18  1  0
 11 19  1  0
 12 20  1  0
 13 21  1  0
 13 22  1  0
M  END
$$$$
