
     RDKit          3D

 26 26  0  0  0  0  0  0  0  0999 V2000
    4.2332    0.1209   -0.5529 O   0  0  0  0  0  0  0  0  0  0  0  0
    3.2184    0.5269    0.3037 C   0  0  0  0  0  0  0  0  0  0  0  0
    1.9649   -0.2711   -0.0415 C   0  0  2  0  0  0  0  0  0  0  0  0
    1.6402   -0.0107   -1.3483 O   0  0  0  0  0  0  0  0  0  0  0  0
    0.8690    0.0643    0.9381 C   0  0  0  0  0  0  0  0  0  0  0  0
   -0.3438   -0.6318    0.7548 N   0  0  0  0  0  0  0  0  0  0  0  0
   -1.1340   -0.3601   -0.3756 C   0  0  1  0  0  0  0  0  0  0  0  0
   -2.3130   -1.3471   -0.3710 C   0  0  0  0  0  0  0  0  0  0  0  0
   -3.1199   -0.7267   -1.3529 O   0  0  0  0  0  0  0  0  0  0  0  0
   -3.2522    0.5653   -0.8532 C   0  0  0  0  0  0  0  0  0  0  0  0
   -1.9258    0.9467   -0.2585 C   0  0  0  0  0  0  0  0  0  0  0  0
   -2.0391    1.2022    1.0886 F   0  0  0  0  0  0  0  0  0  0  0  0
   -1.3069    1.9711   -0.9452 F   0  0  0  0  0  0  0  0  0  0  0  0
    4.5130   -0.8216   -0.3381 H   0  0  0  0  0  0  0  0  0  0  0  0
    3.0158    1.5873    0.1752 H   0  0  0  0  0  0  0  0  0  0  0  0
    3.5062    0.2953    1.3613 H   0  0  0  0  0  0  0  0  0  0  0  0
    2.2694   -1.3461    0.0606 H   0  0  0  0  0  0  0  0  0  0  0  0
    1.7750    0.9598   -1.5280 H   0  0  0  0  0  0  0  0  0  0  0  0
    0.7566    1.1801    0.8945 H   0  0  0  0  0  0  0  0  0  0  0  0
    1.2418   -0.1305    1.9833 H   0  0  0  0  0  0  0  0  0  0  0  0
   -0.4998   -1.5078    1.2419 H   0  0  0  0  0  0  0  0  0  0  0  0
   -0.6258   -0.4062   -1.3503 H   0  0  0  0  0  0  0  0  0  0  0  0
   -1.9883   -2.3515   -0.6764 H   0  0  0  0  0  0  0  0  0  0  0  0
   -2.8244   -1.2649    0.5822 H   0  0  0  0  0  0  0  0  0  0  0  0
   -4.0407    0.4765   -0.0467 H   0  0  0  0  0  0  0  0  0  0  0  0
   -3.5898    1.2797   -1.6358 H   0  0  0  0  0  0  0  0  0  0  0  0
  1  2  1  0
  2  3  1  0
  3  4  1  0
  3  5  1  0
  5  6  1  0
  6  7  1  0
  7  8  1  0
  8  9  1  0
  9 10  1  0
 10 11  1  0
 11 12  1  0
 11 13  1  0
 11  7  1  0
  1 14  1  0
  2 15  1  0
  2 16  1  0
  3 17  1  6
  4 18  1  0
  5 19  1  0
  5 20  1  0
  6 21  1  0
  7 22  1  6
  8 23  1  0
  8 24  1  0
 10 25  1  0
 10 26  1  0
M  END
$$$$

     RDKit          3D

 26 26  0  0  0  0  0  0  0  0999 V2000
   -3.8343   -0.1769    0.9408 O   0  0  0  0  0  0  0  0  0  0  0  0
   -3.2139    0.8751    0.2355 C   0  0  0  0  0  0  0  0  0  0  0  0
   -2.1070    0.3560   -0.6407 C   0  0  2  0  0  0  0  0  0  0  0  0
   -2.5277   -0.5905   -1.5458 O   0  0  0  0  0  0  0  0  0  0  0  0
   -0.9418   -0.1105    0.1969 C   0  0  0  0  0  0  0  0  0  0  0  0
    0.2140   -0.3978   -0.6060 N   0  0  0  0  0  0  0  0  0  0  0  0
    1.4374   -0.5754    0.1013 C   0  0  1  0  0  0  0  0  0  0  0  0
    2.4254   -1.3398   -0.7034 C   0  0  0  0  0  0  0  0  0  0  0  0
    3.5186   -0.5575   -0.9962 O   0  0  0  0  0  0  0  0  0  0  0  0
    3.3592    0.6920   -0.5036 C   0  0  0  0  0  0  0  0  0  0  0  0
    2.1240    0.7781    0.3022 C   0  0  0  0  0  0  0  0  0  0  0  0
    2.2858    1.0437    1.6247 F   0  0  0  0  0  0  0  0  0  0  0  0
    1.2957    1.7654   -0.2602 F   0  0  0  0  0  0  0  0  0  0  0  0
   -4.6833   -0.4361    0.4719 H   0  0  0  0  0  0  0  0  0  0  0  0
   -2.7567    1.5592    1.0213 H   0  0  0  0  0  0  0  0  0  0  0  0
   -3.9681    1.4864   -0.2860 H   0  0  0  0  0  0  0  0  0  0  0  0
   -1.7796    1.2495   -1.2680 H   0  0  0  0  0  0  0  0  0  0  0  0
   -2.5672   -1.4842   -1.0770 H   0  0  0  0  0  0  0  0  0  0  0  0
   -0.7621    0.5502    1.0453 H   0  0  0  0  0  0  0  0  0  0  0  0
   -1.2560   -1.1132    0.6270 H   0  0  0  0  0  0  0  0  0  0  0  0
    0.0573   -0.9544   -1.4441 H   0  0  0  0  0  0  0  0  0  0  0  0
    1.2802   -1.0475    1.0864 H   0  0  0  0  0  0  0  0  0  0  0  0
    2.8038   -2.2290   -0.1344 H   0  0  0  0  0  0  0  0  0  0  0  0
    2.0264   -1.7453   -1.6420 H   0  0  0  0  0  0  0  0  0  0  0  0
    4.2089    0.9892    0.1232 H   0  0  0  0  0  0  0  0  0  0  0  0
    3.3607    1.4134   -1.3700 H   0  0  0  0  0  0  0  0  0  0  0  0
  1  2  1  0
  2  3  1  0
  3  4  1  0
  3  5  1  0
  5  6  1  0
  6  7  1  0
  7  8  1  0
  8  9  1  0
  9 10  1  0
 10 11  1  0
 11 12  1  0
 11 13  1  0
 11  7  1  0
  1 14  1  0
  2 15  1  0
  2 16  1  0
  3 17  1  6
  4 18  1  0
  5 19  1  0
  5 20  1  0
  6 21  1  0
  7 22  1  1
  8 23  1  0
  8 24  1  0
 10 25  1  0
 10 26  1  0
M  END
$$$$

     RDKit          3D

 26 26  0  0  0  0  0  0  0  0999 V2000
    2.7354    0.9212    1.1543 O   0  0  0  0  0  0  0  0  0  0  0  0
    2.5618   -0.4384    0.9620 C   0  0  0  0  0  0  0  0  0  0  0  0
    2.1721   -0.8223   -0.4316 C   0  0  2  0  0  0  0  0  0  0  0  0
    3.1678   -0.3983   -1.3090 O   0  0  0  0  0  0  0  0  0  0  0  0
    0.8639   -0.2556   -0.8950 C   0  0  0  0  0  0  0  0  0  0  0  0
   -0.1829   -0.6667    0.0030 N   0  0  0  0  0  0  0  0  0  0  0  0
   -1.5094   -0.3289   -0.3829 C   0  0  1  0  0  0  0  0  0  0  0  0
   -2.4553   -0.9956    0.6332 C   0  0  0  0  0  0  0  0  0  0  0  0
   -2.3343   -0.1835    1.7263 O   0  0  0  0  0  0  0  0  0  0  0  0
   -2.1863    1.1147    1.3103 C   0  0  0  0  0  0  0  0  0  0  0  0
   -1.9208    1.0997   -0.1766 C   0  0  0  0  0  0  0  0  0  0  0  0
   -1.0089    2.0295   -0.5905 F   0  0  0  0  0  0  0  0  0  0  0  0
   -3.1351    1.2903   -0.8261 F   0  0  0  0  0  0  0  0  0  0  0  0
    2.7688    1.3962    0.2909 H   0  0  0  0  0  0  0  0  0  0  0  0
    1.7982   -0.8237    1.6697 H   0  0  0  0  0  0  0  0  0  0  0  0
    3.5114   -0.9743    1.2669 H   0  0  0  0  0  0  0  0  0  0  0  0
    2.1301   -1.9393   -0.5502 H   0  0  0  0  0  0  0  0  0  0  0  0
    3.0279    0.5153   -1.6326 H   0  0  0  0  0  0  0  0  0  0  0  0
    0.6329   -0.6708   -1.9039 H   0  0  0  0  0  0  0  0  0  0  0  0
    0.9904    0.8494   -0.9366 H   0  0  0  0  0  0  0  0  0  0  0  0
    0.0182   -0.2655    0.9521 H   0  0  0  0  0  0  0  0  0  0  0  0
   -1.7028   -0.7237   -1.4014 H   0  0  0  0  0  0  0  0  0  0  0  0
   -3.4658   -0.9844    0.1902 H   0  0  0  0  0  0  0  0  0  0  0  0
   -2.1139   -2.0314    0.8385 H   0  0  0  0  0  0  0  0  0  0  0  0
   -3.0701    1.7491    1.5293 H   0  0  0  0  0  0  0  0  0  0  0  0
   -1.2930    1.5371    1.8046 H   0  0  0  0  0  0  0  0  0  0  0  0
  1  2  1  0
  2  3  1  0
  3  4  1  0
  3  5  1  0
  5  6  1  0
  6  7  1  0
  7  8  1  0
  8  9  1  0
  9 10  1  0
 10 11  1  0
 11 12  1  0
 11 13  1  0
 11  7  1  0
  1 14  1  0
  2 15  1  0
  2 16  1  0
  3 17  1  1
  4 18  1  0
  5 19  1  0
  5 20  1  0
  6 21  1  0
  7 22  1  6
  8 23  1  0
  8 24  1  0
 10 25  1  0
 10 26  1  0
M  END
$$$$

     RDKit          3D

 26 26  0  0  0  0  0  0  0  0999 V2000
    3.9056   -0.9194    0.0906 O   0  0  0  0  0  0  0  0  0  0  0  0
    3.2647   -0.1218   -0.8309 C   0  0  0  0  0  0  0  0  0  0  0  0
    1.7589   -0.3665   -0.8679 C   0  0  2  0  0  0  0  0  0  0  0  0
    1.2457    0.4754   -1.8068 O   0  0  0  0  0  0  0  0  0  0  0  0
    1.2337   -0.2339    0.5292 C   0  0  0  0  0  0  0  0  0  0  0  0
   -0.1056   -0.4563    0.7556 N   0  0  0  0  0  0  0  0  0  0  0  0
   -1.1722    0.3584    0.4373 C   0  0  1  0  0  0  0  0  0  0  0  0
   -1.4932    0.7267   -0.9707 C   0  0  0  0  0  0  0  0  0  0  0  0
   -2.8398    1.1010   -0.9419 O   0  0  0  0  0  0  0  0  0  0  0  0
   -3.4723    0.5403    0.1179 C   0  0  0  0  0  0  0  0  0  0  0  0
   -2.5094   -0.4084    0.7694 C   0  0  0  0  0  0  0  0  0  0  0  0
   -2.4215   -1.5703    0.0634 F   0  0  0  0  0  0  0  0  0  0  0  0
   -2.6505   -0.5458    2.1060 F   0  0  0  0  0  0  0  0  0  0  0  0
    3.6511   -1.8575   -0.0664 H   0  0  0  0  0  0  0  0  0  0  0  0
    3.6847   -0.3262   -1.8172 H   0  0  0  0  0  0  0  0  0  0  0  0
    3.4595    0.9300   -0.5776 H   0  0  0  0  0  0  0  0  0  0  0  0
    1.6587   -1.4506   -1.1642 H   0  0  0  0  0  0  0  0  0  0  0  0
    1.4850    1.4025   -1.6017 H   0  0  0  0  0  0  0  0  0  0  0  0
    1.5552    0.8281    0.8567 H   0  0  0  0  0  0  0  0  0  0  0  0
    1.9145   -0.8701    1.2020 H   0  0  0  0  0  0  0  0  0  0  0  0
   -0.4000   -1.3416    1.2097 H   0  0  0  0  0  0  0  0  0  0  0  0
   -1.2582    1.2839    1.0990 H   0  0  0  0  0  0  0  0  0  0  0  0
   -0.9245    1.6321   -1.3160 H   0  0  0  0  0  0  0  0  0  0  0  0
   -1.4076   -0.1411   -1.6416 H   0  0  0  0  0  0  0  0  0  0  0  0
   -3.7538    1.3210    0.8732 H   0  0  0  0  0  0  0  0  0  0  0  0
   -4.4087    0.0100   -0.1867 H   0  0  0  0  0  0  0  0  0  0  0  0
  1  2  1  0
  2  3  1  0
  3  4  1  0
  3  5  1  0
  5  6  1  0
  6  7  1  0
  7  8  1  0
  8  9  1  0
  9 10  1  0
 10 11  1  0
 11 12  1  0
 11 13  1  0
 11  7  1  0
  1 14  1  0
  2 15  1  0
  2 16  1  0
  3 17  1  6
  4 18  1  0
  5 19  1  0
  5 20  1  0
  6 21  1  0
  7 22  1  1
  8 23  1  0
  8 24  1  0
 10 25  1  0
 10 26  1  0
M  END
$$$$

     RDKit          3D

 26 26  0  0  0  0  0  0  0  0999 V2000
    3.2455   -0.8727    0.4749 O   0  0  0  0  0  0  0  0  0  0  0  0
    2.6534   -0.4498   -0.7364 C   0  0  0  0  0  0  0  0  0  0  0  0
    2.0122    0.9121   -0.4393 C   0  0  2  0  0  0  0  0  0  0  0  0
    2.9712    1.8162   -0.0085 O   0  0  0  0  0  0  0  0  0  0  0  0
    0.8986    0.7214    0.5928 C   0  0  0  0  0  0  0  0  0  0  0  0
   -0.0042   -0.2206    0.0406 N   0  0  0  0  0  0  0  0  0  0  0  0
   -1.1448   -0.5758    0.7997 C   0  0  1  0  0  0  0  0  0  0  0  0
   -2.1070    0.5565    1.0782 C   0  0  0  0  0  0  0  0  0  0  0  0
   -2.7906    0.7576   -0.0969 O   0  0  0  0  0  0  0  0  0  0  0  0
   -2.8392   -0.4136   -0.8190 C   0  0  0  0  0  0  0  0  0  0  0  0
   -2.0239   -1.4511   -0.0979 C   0  0  0  0  0  0  0  0  0  0  0  0
   -1.2451   -2.1904   -0.9762 F   0  0  0  0  0  0  0  0  0  0  0  0
   -2.8031   -2.3082    0.6377 F   0  0  0  0  0  0  0  0  0  0  0  0
    3.5474   -0.0875    0.9992 H   0  0  0  0  0  0  0  0  0  0  0  0
    3.3809   -0.3825   -1.5533 H   0  0  0  0  0  0  0  0  0  0  0  0
    1.8261   -1.1416   -0.9730 H   0  0  0  0  0  0  0  0  0  0  0  0
    1.6198    1.2805   -1.4097 H   0  0  0  0  0  0  0  0  0  0  0  0
    2.6504    2.7351    0.0005 H   0  0  0  0  0  0  0  0  0  0  0  0
    1.4132    0.3848    1.5124 H   0  0  0  0  0  0  0  0  0  0  0  0
    0.4341    1.6884    0.7511 H   0  0  0  0  0  0  0  0  0  0  0  0
   -0.1100   -0.1979   -0.9792 H   0  0  0  0  0  0  0  0  0  0  0  0
   -0.8972   -1.1870    1.6774 H   0  0  0  0  0  0  0  0  0  0  0  0
   -2.7905    0.1838    1.8971 H   0  0  0  0  0  0  0  0  0  0  0  0
   -1.5657    1.4417    1.4313 H   0  0  0  0  0  0  0  0  0  0  0  0
   -2.4379   -0.2552   -1.8624 H   0  0  0  0  0  0  0  0  0  0  0  0
   -3.8935   -0.7440   -0.9294 H   0  0  0  0  0  0  0  0  0  0  0  0
  1  2  1  0
  2  3  1  0
  3  4  1  0
  3  5  1  0
  5  6  1  0
  6  7  1  0
  7  8  1  0
  8  9  1  0
  9 10  1  0
 10 11  1  0
 11 12  1  0
 11 13  1  0
 11  7  1  0
  1 14  1  0
  2 15  1  0
  2 16  1  0
  3 17  1  6
  4 18  1  0
  5 19  1  0
  5 20  1  0
  6 21  1  0
  7 22  1  1
  8 23  1  0
  8 24  1  0
 10 25  1  0
 10 26  1  0
M  END
$$$$

     RDKit          3D

 26 26  0  0  0  0  0  0  0  0999 V2000
    3.9297    1.1327    0.9158 O   0  0  0  0  0  0  0  0  0  0  0  0
    2.8121    0.9832    0.0782 C   0  0  0  0  0  0  0  0  0  0  0  0
    2.1942   -0.3549    0.3304 C   0  0  2  0  0  0  0  0  0  0  0  0
    3.1151   -1.3517    0.0373 O   0  0  0  0  0  0  0  0  0  0  0  0
    0.9266   -0.5952   -0.4188 C   0  0  0  0  0  0  0  0  0  0  0  0
   -0.0493    0.4670   -0.1758 N   0  0  0  0  0  0  0  0  0  0  0  0
   -1.2796    0.0927   -0.8051 C   0  0  1  0  0  0  0  0  0  0  0  0
   -1.8073   -1.1597   -0.1212 C   0  0  0  0  0  0  0  0  0  0  0  0
   -3.1654   -0.9895    0.0294 O   0  0  0  0  0  0  0  0  0  0  0  0
   -3.4070    0.3784    0.1674 C   0  0  0  0  0  0  0  0  0  0  0  0
   -2.3745    1.0935   -0.6338 C   0  0  0  0  0  0  0  0  0  0  0  0
   -2.8804    1.3900   -1.8878 F   0  0  0  0  0  0  0  0  0  0  0  0
   -1.9387    2.2603   -0.0504 F   0  0  0  0  0  0  0  0  0  0  0  0
    4.3264    0.2119    1.0183 H   0  0  0  0  0  0  0  0  0  0  0  0
    3.1319    1.0402   -1.0036 H   0  0  0  0  0  0  0  0  0  0  0  0
    2.0957    1.7656    0.3532 H   0  0  0  0  0  0  0  0  0  0  0  0
    1.9418   -0.4798    1.4223 H   0  0  0  0  0  0  0  0  0  0  0  0
    2.8041   -2.2509    0.2505 H   0  0  0  0  0  0  0  0  0  0  0  0
    0.4691   -1.5324   -0.0629 H   0  0  0  0  0  0  0  0  0  0  0  0
    1.1144   -0.5965   -1.5148 H   0  0  0  0  0  0  0  0  0  0  0  0
   -0.1393    0.7219    0.8140 H   0  0  0  0  0  0  0  0  0  0  0  0
   -1.0877   -0.1724   -1.8668 H   0  0  0  0  0  0  0  0  0  0  0  0
   -1.3626   -1.3006    0.8920 H   0  0  0  0  0  0  0  0  0  0  0  0
   -1.6029   -2.0510   -0.7414 H   0  0  0  0  0  0  0  0  0  0  0  0
   -4.4324    0.6075   -0.1855 H   0  0  0  0  0  0  0  0  0  0  0  0
   -3.3338    0.6899    1.2353 H   0  0  0  0  0  0  0  0  0  0  0  0
  1  2  1  0
  2  3  1  0
  3  4  1  0
  3  5  1  0
  5  6  1  0
  6  7  1  0
  7  8  1  0
  8  9  1  0
  9 10  1  0
 10 11  1  0
 11 12  1  0
 11 13  1  0
 11  7  1  0
  1 14  1  0
  2 15  1  0
  2 16  1  0
  3 17  1  1
  4 18  1  0
  5 19  1  0
  5 20  1  0
  6 21  1  0
  7 22  1  6
  8 23  1  0
  8 24  1  0
 10 25  1  0
 10 26  1  0
M  END
$$$$

     RDKit          3D

 26 26  0  0  0  0  0  0  0  0999 V2000
   -4.1909    0.7929    0.9908 O   0  0  0  0  0  0  0  0  0  0  0  0
   -3.3313   -0.2128    0.5054 C   0  0  0  0  0  0  0  0  0  0  0  0
   -1.8929    0.1282    0.8455 C   0  0  2  0  0  0  0  0  0  0  0  0
   -1.6198    1.3507    0.2290 O   0  0  0  0  0  0  0  0  0  0  0  0
   -0.9485   -0.9210    0.4083 C   0  0  0  0  0  0  0  0  0  0  0  0
    0.4131   -0.7393    0.6486 N   0  0  0  0  0  0  0  0  0  0  0  0
    1.1738    0.2191    0.0141 C   0  0  1  0  0  0  0  0  0  0  0  0
    2.5563    0.2614    0.6696 C   0  0  0  0  0  0  0  0  0  0  0  0
    3.2415    1.0344   -0.2804 O   0  0  0  0  0  0  0  0  0  0  0  0
    3.0352    0.2873   -1.4396 C   0  0  0  0  0  0  0  0  0  0  0  0
    1.6130   -0.2278   -1.3888 C   0  0  0  0  0  0  0  0  0  0  0  0
    1.6656   -1.6075   -1.3500 F   0  0  0  0  0  0  0  0  0  0  0  0
    0.8185    0.2725   -2.3681 F   0  0  0  0  0  0  0  0  0  0  0  0
   -3.8341    1.6750    0.7144 H   0  0  0  0  0  0  0  0  0  0  0  0
   -3.4413   -0.3148   -0.5874 H   0  0  0  0  0  0  0  0  0  0  0  0
   -3.6101   -1.1473    1.0299 H   0  0  0  0  0  0  0  0  0  0  0  0
   -1.8808    0.3508    1.9293 H   0  0  0  0  0  0  0  0  0  0  0  0
   -1.4510    1.1968   -0.7556 H   0  0  0  0  0  0  0  0  0  0  0  0
   -1.2640   -1.8951    0.8313 H   0  0  0  0  0  0  0  0  0  0  0  0
   -1.0913   -1.0331   -0.7066 H   0  0  0  0  0  0  0  0  0  0  0  0
    0.6861   -1.0831    1.5701 H   0  0  0  0  0  0  0  0  0  0  0  0
    0.8430    1.2399   -0.0684 H   0  0  0  0  0  0  0  0  0  0  0  0
    3.0112   -0.7362    0.6579 H   0  0  0  0  0  0  0  0  0  0  0  0
    2.5173    0.7440    1.6593 H   0  0  0  0  0  0  0  0  0  0  0  0
    3.2079    0.9141   -2.3347 H   0  0  0  0  0  0  0  0  0  0  0  0
    3.7736   -0.5491   -1.3972 H   0  0  0  0  0  0  0  0  0  0  0  0
  1  2  1  0
  2  3  1  0
  3  4  1  0
  3  5  1  0
  5  6  1  0
  6  7  1  0
  7  8  1  0
  8  9  1  0
  9 10  1  0
 10 11  1  0
 11 12  1  0
 11 13  1  0
 11  7  1  0
  1 14  1  0
  2 15  1  0
  2 16  1  0
  3 17  1  1
  4 18  1  0
  5 19  1  0
  5 20  1  0
  6 21  1  0
  7 22  1  6
  8 23  1  0
  8 24  1  0
 10 25  1  0
 10 26  1  0
M  END
$$$$

     RDKit          3D

 26 26  0  0  0  0  0  0  0  0999 V2000
   -3.4691   -1.2044    1.0812 O   0  0  0  0  0  0  0  0  0  0  0  0
   -3.4223    0.1630    0.8842 C   0  0  0  0  0  0  0  0  0  0  0  0
   -2.3055    0.5777   -0.0556 C   0  0  2  0  0  0  0  0  0  0  0  0
   -2.4446    0.0010   -1.3133 O   0  0  0  0  0  0  0  0  0  0  0  0
   -0.9540    0.2194    0.5362 C   0  0  0  0  0  0  0  0  0  0  0  0
    0.1066    0.6878   -0.3016 N   0  0  0  0  0  0  0  0  0  0  0  0
    1.4013    0.3793    0.2002 C   0  0  1  0  0  0  0  0  0  0  0  0
    1.6759   -1.1210    0.3060 C   0  0  0  0  0  0  0  0  0  0  0  0
    3.0222   -1.3018    0.0851 O   0  0  0  0  0  0  0  0  0  0  0  0
    3.6324   -0.0944   -0.1479 C   0  0  0  0  0  0  0  0  0  0  0  0
    2.5111    0.7312   -0.7972 C   0  0  0  0  0  0  0  0  0  0  0  0
    2.7913    2.0569   -0.8131 F   0  0  0  0  0  0  0  0  0  0  0  0
    2.1845    0.2050   -2.0250 F   0  0  0  0  0  0  0  0  0  0  0  0
   -3.3352   -1.7029    0.2451 H   0  0  0  0  0  0  0  0  0  0  0  0
   -4.3704    0.5683    0.4407 H   0  0  0  0  0  0  0  0  0  0  0  0
   -3.2459    0.7057    1.8436 H   0  0  0  0  0  0  0  0  0  0  0  0
   -2.3844    1.6981   -0.1469 H   0  0  0  0  0  0  0  0  0  0  0  0
   -1.9217   -0.8385   -1.3352 H   0  0  0  0  0  0  0  0  0  0  0  0
   -0.9055    0.6000    1.5666 H   0  0  0  0  0  0  0  0  0  0  0  0
   -0.9504   -0.9092    0.6122 H   0  0  0  0  0  0  0  0  0  0  0  0
   -0.0388    0.5625   -1.3035 H   0  0  0  0  0  0  0  0  0  0  0  0
    1.6646    0.8589    1.1407 H   0  0  0  0  0  0  0  0  0  0  0  0
    1.2899   -1.5431    1.2335 H   0  0  0  0  0  0  0  0  0  0  0  0
    1.1457   -1.5634   -0.5877 H   0  0  0  0  0  0  0  0  0  0  0  0
    4.5238   -0.1480   -0.7626 H   0  0  0  0  0  0  0  0  0  0  0  0
    3.7984    0.4118    0.8485 H   0  0  0  0  0  0  0  0  0  0  0  0
  1  2  1  0
  2  3  1  0
  3  4  1  0
  3  5  1  0
  5  6  1  0
  6  7  1  0
  7  8  1  0
  8  9  1  0
  9 10  1  0
 10 11  1  0
 11 12  1  0
 11 13  1  0
 11  7  1  0
  1 14  1  0
  2 15  1  0
  2 16  1  0
  3 17  1  6
  4 18  1  0
  5 19  1  0
  5 20  1  0
  6 21  1  0
  7 22  1  1
  8 23  1  0
  8 24  1  0
 10 25  1  0
 10 26  1  0
M  END
$$$$
