
     RDKit          3D

 26 27  0  0  0  0  0  0  0  0999 V2000
   -2.6729   -0.1142    1.3768 C   0  0  0  0  0  0  0  0  0  0  0  0
   -2.4482   -0.4549    0.0565 O   0  0  0  0  0  0  0  0  0  0  0  0
   -1.3432    0.0917   -0.5056 C   0  0  2  0  0  0  0  0  0  0  0  0
   -1.6058    0.9304   -1.7400 C   0  0  0  0  0  0  0  0  0  0  0  0
   -0.2732    1.1524   -2.2109 N   0  0  0  0  0  0  0  0  0  0  0  0
    0.3869   -0.1041   -2.1196 C   0  0  0  0  0  0  0  0  0  0  0  0
   -0.3552   -0.8950   -1.0756 C   0  0  1  0  0  0  0  0  0  0  0  0
    0.5324   -1.4606   -0.1360 N   0  0  0  0  0  0  0  0  0  0  0  0
    1.4324   -0.9351    0.5745 C   0  0  0  0  0  0  0  0  0  0  0  0
    2.2255   -1.6306    1.4560 N   0  0  0  0  0  0  0  0  0  0  0  0
    3.0768   -0.7908    2.0525 C   0  0  0  0  0  0  0  0  0  0  0  0
    2.8447    0.4228    1.5718 N   0  0  0  0  0  0  0  0  0  0  0  0
    1.8480    0.3203    0.6793 N   0  0  0  0  0  0  0  0  0  0  0  0
   -1.8268   -0.4290    2.0270 H   0  0  0  0  0  0  0  0  0  0  0  0
   -3.5512   -0.7271    1.7240 H   0  0  0  0  0  0  0  0  0  0  0  0
   -2.8445    0.9545    1.5372 H   0  0  0  0  0  0  0  0  0  0  0  0
   -0.8218    0.7228    0.2254 H   0  0  0  0  0  0  0  0  0  0  0  0
   -2.1697    1.8461   -1.5224 H   0  0  0  0  0  0  0  0  0  0  0  0
   -2.1148    0.2669   -2.4735 H   0  0  0  0  0  0  0  0  0  0  0  0
    0.1854    1.8646   -1.6191 H   0  0  0  0  0  0  0  0  0  0  0  0
    0.2488   -0.6000   -3.1290 H   0  0  0  0  0  0  0  0  0  0  0  0
    1.4741   -0.0197   -1.8898 H   0  0  0  0  0  0  0  0  0  0  0  0
   -0.8978   -1.7655   -1.5525 H   0  0  0  0  0  0  0  0  0  0  0  0
    3.8194   -1.0987    2.8022 H   0  0  0  0  0  0  0  0  0  0  0  0
    3.3421    1.2991    1.8353 H   0  0  0  0  0  0  0  0  0  0  0  0
    1.5085    1.1535    0.1840 H   0  0  0  0  0  0  0  0  0  0  0  0
  1  2  1  0
  2  3  1  0
  3  4  1  0
  4  5  1  0
  5  6  1  0
  6  7  1  0
  7  8  1  0
  8  9  2  3
  9 10  1  0
 10 11  2  0
 11 12  1  0
 12 13  1  0
  7  3  1  0
 13  9  1  0
  1 14  1  0
  1 15  1  0
  1 16  1  0
  3 17  1  1
  4 18  1  0
  4 19  1  0
  5 20  1  0
  6 21  1  0
  6 22  1  0
  7 23  1  6
 11 24  1  0
 12 25  1  0
 13 26  1  0
M  END
$$$$

     RDKit          3D

 26 27  0  0  0  0  0  0  0  0999 V2000
   -1.6937    2.3895    0.5197 C   0  0  0  0  0  0  0  0  0  0  0  0
   -1.6214    1.0543    0.9056 O   0  0  0  0  0  0  0  0  0  0  0  0
   -1.5670    0.2888   -0.2394 C   0  0  2  0  0  0  0  0  0  0  0  0
   -2.7177   -0.6984   -0.1978 C   0  0  0  0  0  0  0  0  0  0  0  0
   -2.1631   -2.0070   -0.4183 N   0  0  0  0  0  0  0  0  0  0  0  0
   -0.9096   -1.7873   -1.0929 C   0  0  0  0  0  0  0  0  0  0  0  0
   -0.3487   -0.6097   -0.2837 C   0  0  1  0  0  0  0  0  0  0  0  0
    0.7036    0.0657   -0.9799 N   0  0  0  0  0  0  0  0  0  0  0  0
    1.9203    0.0037   -0.5728 C   0  0  0  0  0  0  0  0  0  0  0  0
    2.3940   -0.6441    0.4825 N   0  0  0  0  0  0  0  0  0  0  0  0
    3.7167   -0.4412    0.5364 C   0  0  0  0  0  0  0  0  0  0  0  0
    4.0247    0.3462   -0.5153 N   0  0  0  0  0  0  0  0  0  0  0  0
    2.9383    0.6312   -1.2090 N   0  0  0  0  0  0  0  0  0  0  0  0
   -2.6291    2.4998   -0.0971 H   0  0  0  0  0  0  0  0  0  0  0  0
   -1.7229    3.0935    1.3522 H   0  0  0  0  0  0  0  0  0  0  0  0
   -0.8332    2.5672   -0.1660 H   0  0  0  0  0  0  0  0  0  0  0  0
   -1.5934    0.9034   -1.1444 H   0  0  0  0  0  0  0  0  0  0  0  0
   -3.2352   -0.6720    0.8050 H   0  0  0  0  0  0  0  0  0  0  0  0
   -3.4781   -0.4707   -0.9867 H   0  0  0  0  0  0  0  0  0  0  0  0
   -2.0025   -2.5380    0.4639 H   0  0  0  0  0  0  0  0  0  0  0  0
   -1.1125   -1.3945   -2.0966 H   0  0  0  0  0  0  0  0  0  0  0  0
   -0.2368   -2.6431   -1.0801 H   0  0  0  0  0  0  0  0  0  0  0  0
   -0.0455   -0.9769    0.6971 H   0  0  0  0  0  0  0  0  0  0  0  0
    4.3667   -0.8451    1.2871 H   0  0  0  0  0  0  0  0  0  0  0  0
    4.9860    0.6652   -0.7228 H   0  0  0  0  0  0  0  0  0  0  0  0
    2.8600    1.2196   -2.0756 H   0  0  0  0  0  0  0  0  0  0  0  0
  1  2  1  0
  2  3  1  0
  3  4  1  0
  4  5  1  0
  5  6  1  0
  6  7  1  0
  7  8  1  0
  8  9  2  3
  9 10  1  0
 10 11  2  0
 11 12  1  0
 12 13  1  0
  7  3  1  0
 13  9  1  0
  1 14  1  0
  1 15  1  0
  1 16  1  0
  3 17  1  6
  4 18  1  0
  4 19  1  0
  5 20  1  0
  6 21  1  0
  6 22  1  0
  7 23  1  1
 11 24  1  0
 12 25  1  0
 13 26  1  0
M  END
$$$$

     RDKit          3D

 26 27  0  0  0  0  0  0  0  0999 V2000
   -2.2288   -0.0342    2.2951 C   0  0  0  0  0  0  0  0  0  0  0  0
   -2.3578   -0.4294    0.9665 O   0  0  0  0  0  0  0  0  0  0  0  0
   -1.2123   -0.0295    0.2947 C   0  0  2  0  0  0  0  0  0  0  0  0
   -1.6289    0.8678   -0.8533 C   0  0  0  0  0  0  0  0  0  0  0  0
   -1.6226    0.0299   -1.9537 N   0  0  0  0  0  0  0  0  0  0  0  0
   -0.6553   -0.9897   -1.8635 C   0  0  0  0  0  0  0  0  0  0  0  0
   -0.5247   -1.1918   -0.3701 C   0  0  1  0  0  0  0  0  0  0  0  0
    0.8131   -1.3255    0.0816 N   0  0  0  0  0  0  0  0  0  0  0  0
    1.7081   -0.4200    0.0936 C   0  0  0  0  0  0  0  0  0  0  0  0
    1.6031    0.8565   -0.3111 N   0  0  0  0  0  0  0  0  0  0  0  0
    2.7892    1.4885   -0.1297 C   0  0  0  0  0  0  0  0  0  0  0  0
    3.6317    0.5794    0.3953 N   0  0  0  0  0  0  0  0  0  0  0  0
    2.9715   -0.5644    0.5254 N   0  0  0  0  0  0  0  0  0  0  0  0
   -3.0867   -0.3038    2.9182 H   0  0  0  0  0  0  0  0  0  0  0  0
   -2.0231    1.0657    2.3091 H   0  0  0  0  0  0  0  0  0  0  0  0
   -1.2891   -0.5235    2.6719 H   0  0  0  0  0  0  0  0  0  0  0  0
   -0.4996    0.4923    0.9714 H   0  0  0  0  0  0  0  0  0  0  0  0
   -2.6716    1.2623   -0.6804 H   0  0  0  0  0  0  0  0  0  0  0  0
   -0.9668    1.7489   -0.9695 H   0  0  0  0  0  0  0  0  0  0  0  0
   -1.9317    0.3452   -2.8652 H   0  0  0  0  0  0  0  0  0  0  0  0
    0.3086   -0.7736   -2.3431 H   0  0  0  0  0  0  0  0  0  0  0  0
   -1.0713   -1.9204   -2.3022 H   0  0  0  0  0  0  0  0  0  0  0  0
   -1.0749   -2.1272   -0.0595 H   0  0  0  0  0  0  0  0  0  0  0  0
    2.9633    2.5164   -0.3758 H   0  0  0  0  0  0  0  0  0  0  0  0
    4.6237    0.8042    0.6357 H   0  0  0  0  0  0  0  0  0  0  0  0
    3.4326   -1.4242    0.9184 H   0  0  0  0  0  0  0  0  0  0  0  0
  1  2  1  0
  2  3  1  0
  3  4  1  0
  4  5  1  0
  5  6  1  0
  6  7  1  0
  7  8  1  0
  8  9  2  3
  9 10  1  0
 10 11  2  0
 11 12  1  0
 12 13  1  0
  7  3  1  0
 13  9  1  0
  1 14  1  0
  1 15  1  0
  1 16  1  0
  3 17  1  1
  4 18  1  0
  4 19  1  0
  5 20  1  0
  6 21  1  0
  6 22  1  0
  7 23  1  1
 11 24  1  0
 12 25  1  0
 13 26  1  0
M  END
$$$$

     RDKit          3D

 26 27  0  0  0  0  0  0  0  0999 V2000
   -2.5131    1.4295   -1.6315 C   0  0  0  0  0  0  0  0  0  0  0  0
   -2.4286    0.7272   -0.4495 O   0  0  0  0  0  0  0  0  0  0  0  0
   -1.5028   -0.2904   -0.4603 C   0  0  2  0  0  0  0  0  0  0  0  0
   -2.0741   -1.6395   -0.1808 C   0  0  0  0  0  0  0  0  0  0  0  0
   -1.2968   -2.2620    0.8517 N   0  0  0  0  0  0  0  0  0  0  0  0
   -0.8013   -1.1322    1.6139 C   0  0  0  0  0  0  0  0  0  0  0  0
   -0.4093   -0.1157    0.5639 C   0  0  1  0  0  0  0  0  0  0  0  0
    0.8760   -0.4029   -0.0110 N   0  0  0  0  0  0  0  0  0  0  0  0
    1.9330    0.2341    0.2891 C   0  0  0  0  0  0  0  0  0  0  0  0
    2.0261    1.2436    1.1594 N   0  0  0  0  0  0  0  0  0  0  0  0
    3.2983    1.6688    1.2182 C   0  0  0  0  0  0  0  0  0  0  0  0
    4.0084    0.9129    0.3720 N   0  0  0  0  0  0  0  0  0  0  0  0
    3.1748    0.0435   -0.1895 N   0  0  0  0  0  0  0  0  0  0  0  0
   -2.7982    0.7951   -2.5052 H   0  0  0  0  0  0  0  0  0  0  0  0
   -3.3472    2.1641   -1.5149 H   0  0  0  0  0  0  0  0  0  0  0  0
   -1.6091    2.0225   -1.8679 H   0  0  0  0  0  0  0  0  0  0  0  0
   -1.0252   -0.3014   -1.4637 H   0  0  0  0  0  0  0  0  0  0  0  0
   -3.1281   -1.5650    0.1885 H   0  0  0  0  0  0  0  0  0  0  0  0
   -2.0243   -2.3018   -1.0790 H   0  0  0  0  0  0  0  0  0  0  0  0
   -0.5069   -2.7791    0.4338 H   0  0  0  0  0  0  0  0  0  0  0  0
   -1.5876   -0.6905    2.2391 H   0  0  0  0  0  0  0  0  0  0  0  0
    0.0499   -1.4887    2.2131 H   0  0  0  0  0  0  0  0  0  0  0  0
   -0.3875    0.9047    0.9662 H   0  0  0  0  0  0  0  0  0  0  0  0
    3.6111    2.4826    1.8605 H   0  0  0  0  0  0  0  0  0  0  0  0
    5.0200    1.0064    0.2023 H   0  0  0  0  0  0  0  0  0  0  0  0
    3.4426   -0.6659   -0.8843 H   0  0  0  0  0  0  0  0  0  0  0  0
  1  2  1  0
  2  3  1  0
  3  4  1  0
  4  5  1  0
  5  6  1  0
  6  7  1  0
  7  8  1  0
  8  9  2  3
  9 10  1  0
 10 11  2  0
 11 12  1  0
 12 13  1  0
  7  3  1  0
 13  9  1  0
  1 14  1  0
  1 15  1  0
  1 16  1  0
  3 17  1  6
  4 18  1  0
  4 19  1  0
  5 20  1  0
  6 21  1  0
  6 22  1  0
  7 23  1  1
 11 24  1  0
 12 25  1  0
 13 26  1  0
M  END
$$$$

     RDKit          3D

 26 27  0  0  0  0  0  0  0  0999 V2000
   -2.4484    1.8467    1.3165 C   0  0  0  0  0  0  0  0  0  0  0  0
   -1.9934    0.5333    1.3526 O   0  0  0  0  0  0  0  0  0  0  0  0
   -1.7212    0.0207    0.1052 C   0  0  2  0  0  0  0  0  0  0  0  0
   -2.4010   -1.3147   -0.1484 C   0  0  0  0  0  0  0  0  0  0  0  0
   -1.6183   -1.8260   -1.2583 N   0  0  0  0  0  0  0  0  0  0  0  0
   -0.2748   -1.3594   -1.0939 C   0  0  0  0  0  0  0  0  0  0  0  0
   -0.2597   -0.4149    0.0896 C   0  0  1  0  0  0  0  0  0  0  0  0
    0.5446    0.7398   -0.1155 N   0  0  0  0  0  0  0  0  0  0  0  0
    1.8126    0.7853   -0.1509 C   0  0  0  0  0  0  0  0  0  0  0  0
    2.5875    1.8562   -0.3419 N   0  0  0  0  0  0  0  0  0  0  0  0
    3.8881    1.4869   -0.3106 C   0  0  0  0  0  0  0  0  0  0  0  0
    3.9039    0.1569   -0.0951 N   0  0  0  0  0  0  0  0  0  0  0  0
    2.6381   -0.2558   -0.0002 N   0  0  0  0  0  0  0  0  0  0  0  0
   -2.6392    2.1716    2.3504 H   0  0  0  0  0  0  0  0  0  0  0  0
   -3.3655    1.9622    0.7034 H   0  0  0  0  0  0  0  0  0  0  0  0
   -1.6437    2.4617    0.8572 H   0  0  0  0  0  0  0  0  0  0  0  0
   -1.8986    0.7077   -0.7209 H   0  0  0  0  0  0  0  0  0  0  0  0
   -2.2487   -1.9742    0.7245 H   0  0  0  0  0  0  0  0  0  0  0  0
   -3.4618   -1.1760   -0.3905 H   0  0  0  0  0  0  0  0  0  0  0  0
   -1.7175   -2.8395   -1.4046 H   0  0  0  0  0  0  0  0  0  0  0  0
    0.0670   -0.7709   -1.9789 H   0  0  0  0  0  0  0  0  0  0  0  0
    0.4372   -2.2079   -0.8895 H   0  0  0  0  0  0  0  0  0  0  0  0
   -0.0307   -0.9650    1.0223 H   0  0  0  0  0  0  0  0  0  0  0  0
    4.7541    2.1043   -0.4299 H   0  0  0  0  0  0  0  0  0  0  0  0
    4.7219   -0.4834   -0.0092 H   0  0  0  0  0  0  0  0  0  0  0  0
    2.3672   -1.2457    0.1665 H   0  0  0  0  0  0  0  0  0  0  0  0
  1  2  1  0
  2  3  1  0
  3  4  1  0
  4  5  1  0
  5  6  1  0
  6  7  1  0
  7  8  1  0
  8  9  2  3
  9 10  1  0
 10 11  2  0
 11 12  1  0
 12 13  1  0
  7  3  1  0
 13  9  1  0
  1 14  1  0
  1 15  1  0
  1 16  1  0
  3 17  1  6
  4 18  1  0
  4 19  1  0
  5 20  1  0
  6 21  1  0
  6 22  1  0
  7 23  1  1
 11 24  1  0
 12 25  1  0
 13 26  1  0
M  END
$$$$

     RDKit          3D

 26 27  0  0  0  0  0  0  0  0999 V2000
   -2.6980    1.9807    0.6930 C   0  0  0  0  0  0  0  0  0  0  0  0
   -2.2241    0.7425    1.1295 O   0  0  0  0  0  0  0  0  0  0  0  0
   -1.6821    0.0599    0.0438 C   0  0  2  0  0  0  0  0  0  0  0  0
   -2.4264   -1.2620   -0.1878 C   0  0  0  0  0  0  0  0  0  0  0  0
   -1.5145   -1.9960   -1.0129 N   0  0  0  0  0  0  0  0  0  0  0  0
   -0.1816   -1.5771   -0.7094 C   0  0  0  0  0  0  0  0  0  0  0  0
   -0.2893   -0.4627    0.3288 C   0  0  1  0  0  0  0  0  0  0  0  0
    0.6832    0.5716    0.0974 N   0  0  0  0  0  0  0  0  0  0  0  0
    1.9431    0.3606   -0.0151 C   0  0  0  0  0  0  0  0  0  0  0  0
    2.6540   -0.7790    0.0447 N   0  0  0  0  0  0  0  0  0  0  0  0
    3.9613   -0.5229   -0.1294 C   0  0  0  0  0  0  0  0  0  0  0  0
    4.0790    0.8024   -0.3024 N   0  0  0  0  0  0  0  0  0  0  0  0
    2.8642    1.3151   -0.2313 N   0  0  0  0  0  0  0  0  0  0  0  0
   -3.4801    1.7408   -0.0849 H   0  0  0  0  0  0  0  0  0  0  0  0
   -1.9211    2.6230    0.2691 H   0  0  0  0  0  0  0  0  0  0  0  0
   -3.2122    2.4663    1.5722 H   0  0  0  0  0  0  0  0  0  0  0  0
   -1.7408    0.6211   -0.8914 H   0  0  0  0  0  0  0  0  0  0  0  0
   -2.5080   -1.7193    0.8385 H   0  0  0  0  0  0  0  0  0  0  0  0
   -3.4172   -1.0923   -0.6338 H   0  0  0  0  0  0  0  0  0  0  0  0
   -1.7691   -1.8424   -2.0323 H   0  0  0  0  0  0  0  0  0  0  0  0
    0.2364   -1.0951   -1.6311 H   0  0  0  0  0  0  0  0  0  0  0  0
    0.4373   -2.4108   -0.3542 H   0  0  0  0  0  0  0  0  0  0  0  0
   -0.2505   -0.8973    1.3284 H   0  0  0  0  0  0  0  0  0  0  0  0
    4.7904   -1.2431   -0.1332 H   0  0  0  0  0  0  0  0  0  0  0  0
    4.9780    1.2766   -0.4581 H   0  0  0  0  0  0  0  0  0  0  0  0
    2.6881    2.3395   -0.3357 H   0  0  0  0  0  0  0  0  0  0  0  0
  1  2  1  0
  2  3  1  0
  3  4  1  0
  4  5  1  0
  5  6  1  0
  6  7  1  0
  7  8  1  0
  8  9  2  3
  9 10  1  0
 10 11  2  0
 11 12  1  0
 12 13  1  0
  7  3  1  0
 13  9  1  0
  1 14  1  0
  1 15  1  0
  1 16  1  0
  3 17  1  6
  4 18  1  0
  4 19  1  0
  5 20  1  0
  6 21  1  0
  6 22  1  0
  7 23  1  1
 11 24  1  0
 12 25  1  0
 13 26  1  0
M  END
$$$$

     RDKit          3D

 26 27  0  0  0  0  0  0  0  0999 V2000
   -2.3052    2.3118   -0.3288 C   0  0  0  0  0  0  0  0  0  0  0  0
   -2.2225    1.1158    0.3650 O   0  0  0  0  0  0  0  0  0  0  0  0
   -1.5846    0.1157   -0.3349 C   0  0  2  0  0  0  0  0  0  0  0  0
   -2.4441   -1.0791   -0.6082 C   0  0  0  0  0  0  0  0  0  0  0  0
   -1.4454   -2.1068   -0.8925 N   0  0  0  0  0  0  0  0  0  0  0  0
   -0.5481   -1.9197    0.2587 C   0  0  0  0  0  0  0  0  0  0  0  0
   -0.3460   -0.4024    0.3273 C   0  0  1  0  0  0  0  0  0  0  0  0
    0.8405   -0.1134   -0.4560 N   0  0  0  0  0  0  0  0  0  0  0  0
    1.9839    0.0842    0.0713 C   0  0  0  0  0  0  0  0  0  0  0  0
    3.0915    0.3541   -0.6620 N   0  0  0  0  0  0  0  0  0  0  0  0
    4.1398    0.5131    0.1737 C   0  0  0  0  0  0  0  0  0  0  0  0
    3.6916    0.3434    1.4305 N   0  0  0  0  0  0  0  0  0  0  0  0
    2.3872    0.0849    1.3530 N   0  0  0  0  0  0  0  0  0  0  0  0
   -1.3432    2.7438   -0.6055 H   0  0  0  0  0  0  0  0  0  0  0  0
   -2.9836    2.1513   -1.1871 H   0  0  0  0  0  0  0  0  0  0  0  0
   -2.8533    3.0248    0.3489 H   0  0  0  0  0  0  0  0  0  0  0  0
   -1.2855    0.5473   -1.3254 H   0  0  0  0  0  0  0  0  0  0  0  0
   -3.1338   -0.9582   -1.4599 H   0  0  0  0  0  0  0  0  0  0  0  0
   -2.9578   -1.3651    0.3373 H   0  0  0  0  0  0  0  0  0  0  0  0
   -0.8953   -1.7252   -1.7198 H   0  0  0  0  0  0  0  0  0  0  0  0
   -1.1317   -2.2489    1.1458 H   0  0  0  0  0  0  0  0  0  0  0  0
    0.3862   -2.4583    0.1080 H   0  0  0  0  0  0  0  0  0  0  0  0
   -0.2216   -0.0618    1.3675 H   0  0  0  0  0  0  0  0  0  0  0  0
    5.1714    0.7407   -0.1321 H   0  0  0  0  0  0  0  0  0  0  0  0
    4.2454    0.4002    2.3041 H   0  0  0  0  0  0  0  0  0  0  0  0
    1.7642   -0.0923    2.1696 H   0  0  0  0  0  0  0  0  0  0  0  0
  1  2  1  0
  2  3  1  0
  3  4  1  0
  4  5  1  0
  5  6  1  0
  6  7  1  0
  7  8  1  0
  8  9  2  3
  9 10  1  0
 10 11  2  0
 11 12  1  0
 12 13  1  0
  7  3  1  0
 13  9  1  0
  1 14  1  0
  1 15  1  0
  1 16  1  0
  3 17  1  6
  4 18  1  0
  4 19  1  0
  5 20  1  0
  6 21  1  0
  6 22  1  0
  7 23  1  1
 11 24  1  0
 12 25  1  0
 13 26  1  0
M  END
$$$$

     RDKit          3D

 26 27  0  0  0  0  0  0  0  0999 V2000
   -2.8857   -0.5206   -1.9849 C   0  0  0  0  0  0  0  0  0  0  0  0
   -2.3537    0.3753   -1.0350 O   0  0  0  0  0  0  0  0  0  0  0  0
   -1.6540   -0.3375   -0.0708 C   0  0  2  0  0  0  0  0  0  0  0  0
   -2.2160    0.0082    1.2851 C   0  0  0  0  0  0  0  0  0  0  0  0
   -1.6295    1.3147    1.5429 N   0  0  0  0  0  0  0  0  0  0  0  0
   -0.2544    1.2192    1.1210 C   0  0  0  0  0  0  0  0  0  0  0  0
   -0.2554    0.2223   -0.0040 C   0  0  1  0  0  0  0  0  0  0  0  0
    0.7404   -0.8050    0.2426 N   0  0  0  0  0  0  0  0  0  0  0  0
    1.9775   -0.4846    0.0912 C   0  0  0  0  0  0  0  0  0  0  0  0
    2.4998    0.7082   -0.2761 N   0  0  0  0  0  0  0  0  0  0  0  0
    3.8316    0.6110   -0.3123 C   0  0  0  0  0  0  0  0  0  0  0  0
    4.1545   -0.6467    0.0328 N   0  0  0  0  0  0  0  0  0  0  0  0
    3.0441   -1.3148    0.2779 N   0  0  0  0  0  0  0  0  0  0  0  0
   -2.0467   -1.0724   -2.4548 H   0  0  0  0  0  0  0  0  0  0  0  0
   -3.4029    0.0704   -2.7752 H   0  0  0  0  0  0  0  0  0  0  0  0
   -3.6213   -1.1797   -1.5151 H   0  0  0  0  0  0  0  0  0  0  0  0
   -1.6891   -1.4059   -0.2856 H   0  0  0  0  0  0  0  0  0  0  0  0
   -1.8985   -0.7315    2.0424 H   0  0  0  0  0  0  0  0  0  0  0  0
   -3.3266    0.0836    1.2326 H   0  0  0  0  0  0  0  0  0  0  0  0
   -2.1276    2.0328    0.9757 H   0  0  0  0  0  0  0  0  0  0  0  0
    0.3467    0.8819    1.9929 H   0  0  0  0  0  0  0  0  0  0  0  0
    0.0953    2.1976    0.7426 H   0  0  0  0  0  0  0  0  0  0  0  0
    0.0409    0.7163   -0.9567 H   0  0  0  0  0  0  0  0  0  0  0  0
    4.5418    1.3939   -0.5711 H   0  0  0  0  0  0  0  0  0  0  0  0
    5.1240   -1.0231    0.0940 H   0  0  0  0  0  0  0  0  0  0  0  0
    2.9647   -2.3135    0.5681 H   0  0  0  0  0  0  0  0  0  0  0  0
  1  2  1  0
  2  3  1  0
  3  4  1  0
  4  5  1  0
  5  6  1  0
  6  7  1  0
  7  8  1  0
  8  9  2  3
  9 10  1  0
 10 11  2  0
 11 12  1  0
 12 13  1  0
  7  3  1  0
 13  9  1  0
  1 14  1  0
  1 15  1  0
  1 16  1  0
  3 17  1  6
  4 18  1  0
  4 19  1  0
  5 20  1  0
  6 21  1  0
  6 22  1  0
  7 23  1  6
 11 24  1  0
 12 25  1  0
 13 26  1  0
M  END
$$$$
