
     RDKit          3D

 31 32  0  0  0  0  0  0  0  0999 V2000
   -1.0081   -1.5677    1.7859 O   0  0  0  0  0  0  0  0  0  0  0  0
   -1.2295   -0.4049    1.0149 C   0  0  1  0  0  0  0  0  0  0  0  0
   -0.4380   -0.4609   -0.2637 C   0  0  2  0  0  0  0  0  0  0  0  0
    0.9877    0.0241   -0.1024 C   0  0  0  0  0  0  0  0  0  0  0  0
    1.6751   -0.7869    0.8650 N   0  0  0  0  0  0  0  0  0  0  0  0
    3.0433   -0.4030    1.0780 C   0  0  0  0  0  0  0  0  0  0  0  0
    4.0563   -0.4586    0.0074 C   0  0  0  0  0  0  0  0  0  0  0  0
    3.6103    0.8651    0.5416 C   0  0  0  0  0  0  0  0  0  0  0  0
   -1.0680    0.2818   -1.3192 N   0  0  0  0  0  0  0  0  0  0  0  0
   -1.8945    1.3577   -0.8676 C   0  0  0  0  0  0  0  0  0  0  0  0
   -3.0460    0.9003   -0.0059 C   0  0  0  0  0  0  0  0  0  0  0  0
   -2.7172   -0.3689    0.7284 C   0  0  1  0  0  0  0  0  0  0  0  0
   -3.0710   -1.5161   -0.0166 O   0  0  0  0  0  0  0  0  0  0  0  0
   -1.5531   -2.2951    1.3569 H   0  0  0  0  0  0  0  0  0  0  0  0
   -0.9441    0.4843    1.5738 H   0  0  0  0  0  0  0  0  0  0  0  0
   -0.3825   -1.5265   -0.6294 H   0  0  0  0  0  0  0  0  0  0  0  0
    1.4385    0.0021   -1.1014 H   0  0  0  0  0  0  0  0  0  0  0  0
    0.9802    1.0829    0.2320 H   0  0  0  0  0  0  0  0  0  0  0  0
    1.1687   -0.6399    1.7884 H   0  0  0  0  0  0  0  0  0  0  0  0
    3.4165   -0.6703    2.0892 H   0  0  0  0  0  0  0  0  0  0  0  0
    5.1002   -0.7355    0.2631 H   0  0  0  0  0  0  0  0  0  0  0  0
    3.8046   -0.6761   -1.0464 H   0  0  0  0  0  0  0  0  0  0  0  0
    2.9506    1.4928   -0.0847 H   0  0  0  0  0  0  0  0  0  0  0  0
    4.3186    1.4685    1.1729 H   0  0  0  0  0  0  0  0  0  0  0  0
   -1.4938   -0.2966   -2.0639 H   0  0  0  0  0  0  0  0  0  0  0  0
   -2.2852    1.8755   -1.7789 H   0  0  0  0  0  0  0  0  0  0  0  0
   -1.2725    2.1155   -0.3446 H   0  0  0  0  0  0  0  0  0  0  0  0
   -3.2931    1.6747    0.7650 H   0  0  0  0  0  0  0  0  0  0  0  0
   -3.9899    0.7672   -0.5860 H   0  0  0  0  0  0  0  0  0  0  0  0
   -3.2774   -0.3938    1.6629 H   0  0  0  0  0  0  0  0  0  0  0  0
   -3.5868   -1.1917   -0.7953 H   0  0  0  0  0  0  0  0  0  0  0  0
  1  2  1  0
  2  3  1  0
  3  4  1  0
  4  5  1  0
  5  6  1  0
  6  7  1  0
  7  8  1  0
  3  9  1  0
  9 10  1  0
 10 11  1  0
 11 12  1  0
 12 13  1  0
 12  2  1  0
  8  6  1  0
  1 14  1  0
  2 15  1  1
  3 16  1  6
  4 17  1  0
  4 18  1  0
  5 19  1  0
  6 20  1  0
  7 21  1  0
  7 22  1  0
  8 23  1  0
  8 24  1  0
  9 25  1  0
 10 26  1  0
 10 27  1  0
 11 28  1  0
 11 29  1  0
 12 30  1  1
 13 31  1  0
M  END
$$$$

     RDKit          3D

 31 32  0  0  0  0  0  0  0  0999 V2000
   -0.5439   -1.6356    0.9356 O   0  0  0  0  0  0  0  0  0  0  0  0
   -1.0987   -0.4039    0.6254 C   0  0  1  0  0  0  0  0  0  0  0  0
   -0.5865    0.1871   -0.6257 C   0  0  2  0  0  0  0  0  0  0  0  0
    0.8803    0.5264   -0.5764 C   0  0  0  0  0  0  0  0  0  0  0  0
    1.7425   -0.5931   -0.3257 N   0  0  0  0  0  0  0  0  0  0  0  0
    3.1092   -0.2160   -0.5299 C   0  0  0  0  0  0  0  0  0  0  0  0
    4.1981   -1.1802   -0.1987 C   0  0  0  0  0  0  0  0  0  0  0  0
    3.9754    0.0174    0.6702 C   0  0  0  0  0  0  0  0  0  0  0  0
   -1.2909    1.3210   -1.0937 N   0  0  0  0  0  0  0  0  0  0  0  0
   -2.6576    1.4260   -0.8739 C   0  0  0  0  0  0  0  0  0  0  0  0
   -3.2254    0.6987    0.3046 C   0  0  0  0  0  0  0  0  0  0  0  0
   -2.6011   -0.6740    0.3522 C   0  0  1  0  0  0  0  0  0  0  0  0
   -2.6310   -1.2043   -0.9420 O   0  0  0  0  0  0  0  0  0  0  0  0
   -1.2232   -2.2765    1.2264 H   0  0  0  0  0  0  0  0  0  0  0  0
   -1.0282    0.2796    1.4886 H   0  0  0  0  0  0  0  0  0  0  0  0
   -0.6750   -0.6073   -1.4259 H   0  0  0  0  0  0  0  0  0  0  0  0
    1.1314    1.0186   -1.5557 H   0  0  0  0  0  0  0  0  0  0  0  0
    1.0507    1.3378    0.1739 H   0  0  0  0  0  0  0  0  0  0  0  0
    1.5782   -0.8806    0.6906 H   0  0  0  0  0  0  0  0  0  0  0  0
    3.2898    0.3896   -1.4586 H   0  0  0  0  0  0  0  0  0  0  0  0
    5.1134   -1.1645   -0.8121 H   0  0  0  0  0  0  0  0  0  0  0  0
    3.9606   -2.1782    0.2257 H   0  0  0  0  0  0  0  0  0  0  0  0
    3.6281   -0.1161    1.6943 H   0  0  0  0  0  0  0  0  0  0  0  0
    4.6824    0.8918    0.5669 H   0  0  0  0  0  0  0  0  0  0  0  0
   -0.7964    2.0438   -1.5789 H   0  0  0  0  0  0  0  0  0  0  0  0
   -3.2255    1.1233   -1.7833 H   0  0  0  0  0  0  0  0  0  0  0  0
   -2.9265    2.5151   -0.7298 H   0  0  0  0  0  0  0  0  0  0  0  0
   -3.0041    1.2038    1.2757 H   0  0  0  0  0  0  0  0  0  0  0  0
   -4.3157    0.5508    0.1625 H   0  0  0  0  0  0  0  0  0  0  0  0
   -3.0365   -1.3666    1.0633 H   0  0  0  0  0  0  0  0  0  0  0  0
   -3.4741   -1.0338   -1.3951 H   0  0  0  0  0  0  0  0  0  0  0  0
  1  2  1  0
  2  3  1  0
  3  4  1  0
  4  5  1  0
  5  6  1  0
  6  7  1  0
  7  8  1  0
  3  9  1  0
  9 10  1  0
 10 11  1  0
 11 12  1  0
 12 13  1  0
 12  2  1  0
  8  6  1  0
  1 14  1  0
  2 15  1  1
  3 16  1  6
  4 17  1  0
  4 18  1  0
  5 19  1  0
  6 20  1  0
  7 21  1  0
  7 22  1  0
  8 23  1  0
  8 24  1  0
  9 25  1  0
 10 26  1  0
 10 27  1  0
 11 28  1  0
 11 29  1  0
 12 30  1  1
 13 31  1  0
M  END
$$$$

     RDKit          3D

 31 32  0  0  0  0  0  0  0  0999 V2000
   -1.7717   -1.7828   -1.7531 O   0  0  0  0  0  0  0  0  0  0  0  0
   -1.4273   -1.1969   -0.5349 C   0  0  1  0  0  0  0  0  0  0  0  0
   -0.3354   -0.1989   -0.6895 C   0  0  2  0  0  0  0  0  0  0  0  0
    0.7486   -0.3854    0.3590 C   0  0  0  0  0  0  0  0  0  0  0  0
    1.7637    0.6103    0.1831 N   0  0  0  0  0  0  0  0  0  0  0  0
    2.8688    0.5133    1.0719 C   0  0  0  0  0  0  0  0  0  0  0  0
    3.6940   -0.7423    0.9426 C   0  0  0  0  0  0  0  0  0  0  0  0
    4.2860    0.5509    0.5219 C   0  0  0  0  0  0  0  0  0  0  0  0
   -0.6788    1.1579   -0.8287 N   0  0  0  0  0  0  0  0  0  0  0  0
   -2.0766    1.4660   -0.7758 C   0  0  0  0  0  0  0  0  0  0  0  0
   -2.6273    0.7773    0.4762 C   0  0  0  0  0  0  0  0  0  0  0  0
   -2.6677   -0.6966    0.1268 C   0  0  1  0  0  0  0  0  0  0  0  0
   -3.8037   -0.8850   -0.6942 O   0  0  0  0  0  0  0  0  0  0  0  0
   -2.3699   -1.2490   -2.3011 H   0  0  0  0  0  0  0  0  0  0  0  0
   -1.0157   -2.0333    0.1032 H   0  0  0  0  0  0  0  0  0  0  0  0
    0.1820   -0.4823   -1.6650 H   0  0  0  0  0  0  0  0  0  0  0  0
    1.1744   -1.4183    0.2583 H   0  0  0  0  0  0  0  0  0  0  0  0
    0.3266   -0.2799    1.3728 H   0  0  0  0  0  0  0  0  0  0  0  0
    1.9608    0.8538   -0.7883 H   0  0  0  0  0  0  0  0  0  0  0  0
    2.7568    0.9637    2.0799 H   0  0  0  0  0  0  0  0  0  0  0  0
    4.0320   -1.2182    1.9010 H   0  0  0  0  0  0  0  0  0  0  0  0
    3.4434   -1.4638    0.1658 H   0  0  0  0  0  0  0  0  0  0  0  0
    5.0875    1.0576    1.1100 H   0  0  0  0  0  0  0  0  0  0  0  0
    4.3561    0.7713   -0.5693 H   0  0  0  0  0  0  0  0  0  0  0  0
   -0.1235    1.8298   -0.2967 H   0  0  0  0  0  0  0  0  0  0  0  0
   -2.2090    2.5484   -0.6867 H   0  0  0  0  0  0  0  0  0  0  0  0
   -2.6447    1.0857   -1.6488 H   0  0  0  0  0  0  0  0  0  0  0  0
   -1.9316    0.8810    1.3230 H   0  0  0  0  0  0  0  0  0  0  0  0
   -3.6322    1.1288    0.7430 H   0  0  0  0  0  0  0  0  0  0  0  0
   -2.9129   -1.2890    1.0607 H   0  0  0  0  0  0  0  0  0  0  0  0
   -4.4530   -0.1337   -0.5671 H   0  0  0  0  0  0  0  0  0  0  0  0
  1  2  1  0
  2  3  1  0
  3  4  1  0
  4  5  1  0
  5  6  1  0
  6  7  1  0
  7  8  1  0
  3  9  1  0
  9 10  1  0
 10 11  1  0
 11 12  1  0
 12 13  1  0
 12  2  1  0
  8  6  1  0
  1 14  1  0
  2 15  1  1
  3 16  1  6
  4 17  1  0
  4 18  1  0
  5 19  1  0
  6 20  1  0
  7 21  1  0
  7 22  1  0
  8 23  1  0
  8 24  1  0
  9 25  1  0
 10 26  1  0
 10 27  1  0
 11 28  1  0
 11 29  1  0
 12 30  1  1
 13 31  1  0
M  END
$$$$

     RDKit          3D

 31 32  0  0  0  0  0  0  0  0999 V2000
   -1.5131    1.4771    1.2947 O   0  0  0  0  0  0  0  0  0  0  0  0
   -1.1904    0.8460    0.0983 C   0  0  1  0  0  0  0  0  0  0  0  0
   -0.5142   -0.4899    0.3417 C   0  0  2  0  0  0  0  0  0  0  0  0
    0.8046   -0.4849   -0.4423 C   0  0  0  0  0  0  0  0  0  0  0  0
    1.6066    0.5930    0.0381 N   0  0  0  0  0  0  0  0  0  0  0  0
    2.8786    0.7070   -0.6149 C   0  0  0  0  0  0  0  0  0  0  0  0
    3.9019   -0.3911   -0.5170 C   0  0  0  0  0  0  0  0  0  0  0  0
    4.1269    0.9197    0.1680 C   0  0  0  0  0  0  0  0  0  0  0  0
   -1.2860   -1.5985   -0.1165 N   0  0  0  0  0  0  0  0  0  0  0  0
   -2.6200   -1.6431    0.4272 C   0  0  0  0  0  0  0  0  0  0  0  0
   -3.3231   -0.3006    0.3355 C   0  0  0  0  0  0  0  0  0  0  0  0
   -2.4964    0.5414   -0.6388 C   0  0  1  0  0  0  0  0  0  0  0  0
   -3.1530    1.6743   -1.0560 O   0  0  0  0  0  0  0  0  0  0  0  0
   -0.9753    1.1077    2.0345 H   0  0  0  0  0  0  0  0  0  0  0  0
   -0.5520    1.5349   -0.4842 H   0  0  0  0  0  0  0  0  0  0  0  0
   -0.2754   -0.5797    1.4249 H   0  0  0  0  0  0  0  0  0  0  0  0
    1.3109   -1.4732   -0.3632 H   0  0  0  0  0  0  0  0  0  0  0  0
    0.5999   -0.3173   -1.5196 H   0  0  0  0  0  0  0  0  0  0  0  0
    1.6543    0.6769    1.0712 H   0  0  0  0  0  0  0  0  0  0  0  0
    2.7996    1.2632   -1.5856 H   0  0  0  0  0  0  0  0  0  0  0  0
    4.4619   -0.6422   -1.4503 H   0  0  0  0  0  0  0  0  0  0  0  0
    3.7264   -1.2530    0.1366 H   0  0  0  0  0  0  0  0  0  0  0  0
    4.8916    1.5719   -0.2995 H   0  0  0  0  0  0  0  0  0  0  0  0
    4.1274    0.9219    1.2752 H   0  0  0  0  0  0  0  0  0  0  0  0
   -0.7938   -2.4659    0.1745 H   0  0  0  0  0  0  0  0  0  0  0  0
   -3.2095   -2.3481   -0.2054 H   0  0  0  0  0  0  0  0  0  0  0  0
   -2.6429   -2.0257    1.4692 H   0  0  0  0  0  0  0  0  0  0  0  0
   -4.3696   -0.4119    0.0048 H   0  0  0  0  0  0  0  0  0  0  0  0
   -3.2096    0.1904    1.3276 H   0  0  0  0  0  0  0  0  0  0  0  0
   -2.1903   -0.0828   -1.5212 H   0  0  0  0  0  0  0  0  0  0  0  0
   -2.5759    2.4824   -1.1073 H   0  0  0  0  0  0  0  0  0  0  0  0
  1  2  1  0
  2  3  1  0
  3  4  1  0
  4  5  1  0
  5  6  1  0
  6  7  1  0
  7  8  1  0
  3  9  1  0
  9 10  1  0
 10 11  1  0
 11 12  1  0
 12 13  1  0
 12  2  1  0
  8  6  1  0
  1 14  1  0
  2 15  1  6
  3 16  1  1
  4 17  1  0
  4 18  1  0
  5 19  1  0
  6 20  1  0
  7 21  1  0
  7 22  1  0
  8 23  1  0
  8 24  1  0
  9 25  1  0
 10 26  1  0
 10 27  1  0
 11 28  1  0
 11 29  1  0
 12 30  1  6
 13 31  1  0
M  END
$$$$

     RDKit          3D

 31 32  0  0  0  0  0  0  0  0999 V2000
   -1.1568    1.0263    1.8803 O   0  0  0  0  0  0  0  0  0  0  0  0
   -1.1257    0.7609    0.4934 C   0  0  1  0  0  0  0  0  0  0  0  0
   -0.1758   -0.4024    0.2674 C   0  0  2  0  0  0  0  0  0  0  0  0
    0.7997   -0.0511   -0.8399 C   0  0  0  0  0  0  0  0  0  0  0  0
    1.5992    1.0679   -0.5228 N   0  0  0  0  0  0  0  0  0  0  0  0
    2.6621    0.9310    0.3989 C   0  0  0  0  0  0  0  0  0  0  0  0
    3.8053    0.0499   -0.1827 C   0  0  0  0  0  0  0  0  0  0  0  0
    3.0948   -0.2795    1.0873 C   0  0  0  0  0  0  0  0  0  0  0  0
   -0.8528   -1.6283    0.0156 N   0  0  0  0  0  0  0  0  0  0  0  0
   -1.6503   -1.5268   -1.1614 C   0  0  0  0  0  0  0  0  0  0  0  0
   -2.7289   -0.5039   -1.0032 C   0  0  0  0  0  0  0  0  0  0  0  0
   -2.5209    0.5154    0.0512 C   0  0  1  0  0  0  0  0  0  0  0  0
   -3.3579    0.2702    1.1593 O   0  0  0  0  0  0  0  0  0  0  0  0
   -0.7394    1.9106    2.0895 H   0  0  0  0  0  0  0  0  0  0  0  0
   -0.6916    1.6735   -0.0055 H   0  0  0  0  0  0  0  0  0  0  0  0
    0.4151   -0.5511    1.2030 H   0  0  0  0  0  0  0  0  0  0  0  0
    1.4291   -0.9275   -1.1177 H   0  0  0  0  0  0  0  0  0  0  0  0
    0.1710    0.2411   -1.7324 H   0  0  0  0  0  0  0  0  0  0  0  0
    1.6991    1.8063   -1.2287 H   0  0  0  0  0  0  0  0  0  0  0  0
    3.0024    1.9062    0.8408 H   0  0  0  0  0  0  0  0  0  0  0  0
    4.7987    0.5436   -0.1644 H   0  0  0  0  0  0  0  0  0  0  0  0
    3.5882   -0.5864   -1.0408 H   0  0  0  0  0  0  0  0  0  0  0  0
    3.7460   -0.1442    2.0098 H   0  0  0  0  0  0  0  0  0  0  0  0
    2.5307   -1.2084    1.1317 H   0  0  0  0  0  0  0  0  0  0  0  0
   -1.4075   -1.9090    0.8329 H   0  0  0  0  0  0  0  0  0  0  0  0
   -1.0525   -1.3124   -2.0691 H   0  0  0  0  0  0  0  0  0  0  0  0
   -2.0794   -2.5537   -1.3693 H   0  0  0  0  0  0  0  0  0  0  0  0
   -2.9556   -0.0583   -2.0140 H   0  0  0  0  0  0  0  0  0  0  0  0
   -3.6629   -1.0844   -0.7426 H   0  0  0  0  0  0  0  0  0  0  0  0
   -2.9091    1.4952   -0.3683 H   0  0  0  0  0  0  0  0  0  0  0  0
   -4.2743    0.5291    0.9052 H   0  0  0  0  0  0  0  0  0  0  0  0
  1  2  1  0
  2  3  1  0
  3  4  1  0
  4  5  1  0
  5  6  1  0
  6  7  1  0
  7  8  1  0
  3  9  1  0
  9 10  1  0
 10 11  1  0
 11 12  1  0
 12 13  1  0
 12  2  1  0
  8  6  1  0
  1 14  1  0
  2 15  1  6
  3 16  1  1
  4 17  1  0
  4 18  1  0
  5 19  1  0
  6 20  1  0
  7 21  1  0
  7 22  1  0
  8 23  1  0
  8 24  1  0
  9 25  1  0
 10 26  1  0
 10 27  1  0
 11 28  1  0
 11 29  1  0
 12 30  1  6
 13 31  1  0
M  END
$$$$

     RDKit          3D

 31 32  0  0  0  0  0  0  0  0999 V2000
   -2.2654    0.9714   -1.7093 O   0  0  0  0  0  0  0  0  0  0  0  0
   -1.7430   -0.1654   -1.1138 C   0  0  1  0  0  0  0  0  0  0  0  0
   -0.5754    0.2271   -0.2647 C   0  0  2  0  0  0  0  0  0  0  0  0
    0.7635    0.0975   -0.9416 C   0  0  0  0  0  0  0  0  0  0  0  0
    1.7589    0.5170    0.0312 N   0  0  0  0  0  0  0  0  0  0  0  0
    3.0750    0.4261   -0.5189 C   0  0  0  0  0  0  0  0  0  0  0  0
    4.2611    0.6713    0.3246 C   0  0  0  0  0  0  0  0  0  0  0  0
    3.8912   -0.7327   -0.1074 C   0  0  0  0  0  0  0  0  0  0  0  0
   -0.5129   -0.5660    0.9629 N   0  0  0  0  0  0  0  0  0  0  0  0
   -1.5364    0.0228    1.8305 C   0  0  0  0  0  0  0  0  0  0  0  0
   -2.8508   -0.1395    1.1459 C   0  0  0  0  0  0  0  0  0  0  0  0
   -2.8070   -0.7474   -0.2122 C   0  0  1  0  0  0  0  0  0  0  0  0
   -4.0358   -0.5303   -0.8359 O   0  0  0  0  0  0  0  0  0  0  0  0
   -2.0692    1.7699   -1.1791 H   0  0  0  0  0  0  0  0  0  0  0  0
   -1.4807   -0.9412   -1.8538 H   0  0  0  0  0  0  0  0  0  0  0  0
   -0.6507    1.3038    0.0659 H   0  0  0  0  0  0  0  0  0  0  0  0
    0.8023    0.7858   -1.8049 H   0  0  0  0  0  0  0  0  0  0  0  0
    0.9509   -0.9115   -1.3254 H   0  0  0  0  0  0  0  0  0  0  0  0
    1.6465    0.0374    0.9467 H   0  0  0  0  0  0  0  0  0  0  0  0
    3.1365    0.8077   -1.5764 H   0  0  0  0  0  0  0  0  0  0  0  0
    4.1829    0.8726    1.4197 H   0  0  0  0  0  0  0  0  0  0  0  0
    5.1691    1.1208   -0.1332 H   0  0  0  0  0  0  0  0  0  0  0  0
    3.5303   -1.4161    0.6685 H   0  0  0  0  0  0  0  0  0  0  0  0
    4.4742   -1.2037   -0.9281 H   0  0  0  0  0  0  0  0  0  0  0  0
   -0.7854   -1.5554    0.7658 H   0  0  0  0  0  0  0  0  0  0  0  0
   -1.2732    1.1189    1.8701 H   0  0  0  0  0  0  0  0  0  0  0  0
   -1.5036   -0.3913    2.8567 H   0  0  0  0  0  0  0  0  0  0  0  0
   -3.3707    0.8456    1.0917 H   0  0  0  0  0  0  0  0  0  0  0  0
   -3.4732   -0.8202    1.7903 H   0  0  0  0  0  0  0  0  0  0  0  0
   -2.6786   -1.8438   -0.1059 H   0  0  0  0  0  0  0  0  0  0  0  0
   -4.0304    0.3685   -1.2310 H   0  0  0  0  0  0  0  0  0  0  0  0
  1  2  1  0
  2  3  1  0
  3  4  1  0
  4  5  1  0
  5  6  1  0
  6  7  1  0
  7  8  1  0
  3  9  1  0
  9 10  1  0
 10 11  1  0
 11 12  1  0
 12 13  1  0
 12  2  1  0
  8  6  1  0
  1 14  1  0
  2 15  1  6
  3 16  1  1
  4 17  1  0
  4 18  1  0
  5 19  1  0
  6 20  1  0
  7 21  1  0
  7 22  1  0
  8 23  1  0
  8 24  1  0
  9 25  1  0
 10 26  1  0
 10 27  1  0
 11 28  1  0
 11 29  1  0
 12 30  1  1
 13 31  1  0
M  END
$$$$

     RDKit          3D

 31 32  0  0  0  0  0  0  0  0999 V2000
   -1.2262   -1.9796    0.6980 O   0  0  0  0  0  0  0  0  0  0  0  0
   -0.8731   -0.6436    0.4638 C   0  0  1  0  0  0  0  0  0  0  0  0
   -0.5680   -0.3813   -0.9502 C   0  0  2  0  0  0  0  0  0  0  0  0
    0.7846    0.2990   -1.0540 C   0  0  0  0  0  0  0  0  0  0  0  0
    1.7950   -0.5494   -0.5066 N   0  0  0  0  0  0  0  0  0  0  0  0
    3.1144   -0.0431   -0.5032 C   0  0  0  0  0  0  0  0  0  0  0  0
    3.5207    1.1478    0.2771 C   0  0  0  0  0  0  0  0  0  0  0  0
    3.9069   -0.2362    0.7966 C   0  0  0  0  0  0  0  0  0  0  0  0
   -1.5006    0.3404   -1.7360 N   0  0  0  0  0  0  0  0  0  0  0  0
   -2.7365    0.7189   -1.1927 C   0  0  0  0  0  0  0  0  0  0  0  0
   -3.1636   -0.0276    0.0509 C   0  0  0  0  0  0  0  0  0  0  0  0
   -1.9978    0.1927    1.0268 C   0  0  1  0  0  0  0  0  0  0  0  0
   -2.2963   -0.1842    2.3088 O   0  0  0  0  0  0  0  0  0  0  0  0
   -1.0800   -2.5256   -0.1366 H   0  0  0  0  0  0  0  0  0  0  0  0
    0.0050   -0.4513    1.1203 H   0  0  0  0  0  0  0  0  0  0  0  0
   -0.4796   -1.3960   -1.4526 H   0  0  0  0  0  0  0  0  0  0  0  0
    1.0403    0.4894   -2.1328 H   0  0  0  0  0  0  0  0  0  0  0  0
    0.7533    1.3024   -0.5965 H   0  0  0  0  0  0  0  0  0  0  0  0
    1.6630   -1.5521   -0.6506 H   0  0  0  0  0  0  0  0  0  0  0  0
    3.6825   -0.2336   -1.4542 H   0  0  0  0  0  0  0  0  0  0  0  0
    2.7799    1.7401    0.8404 H   0  0  0  0  0  0  0  0  0  0  0  0
    4.3817    1.7301   -0.1080 H   0  0  0  0  0  0  0  0  0  0  0  0
    3.3690   -0.5236    1.7118 H   0  0  0  0  0  0  0  0  0  0  0  0
    4.9723   -0.5521    0.6934 H   0  0  0  0  0  0  0  0  0  0  0  0
   -1.5144    0.0725   -2.7471 H   0  0  0  0  0  0  0  0  0  0  0  0
   -2.7084    1.8028   -0.8934 H   0  0  0  0  0  0  0  0  0  0  0  0
   -3.5314    0.6189   -1.9948 H   0  0  0  0  0  0  0  0  0  0  0  0
   -3.1841   -1.1215   -0.2107 H   0  0  0  0  0  0  0  0  0  0  0  0
   -4.0971    0.3578    0.4470 H   0  0  0  0  0  0  0  0  0  0  0  0
   -1.6789    1.2684    0.9226 H   0  0  0  0  0  0  0  0  0  0  0  0
   -3.1326    0.3198    2.5716 H   0  0  0  0  0  0  0  0  0  0  0  0
  1  2  1  0
  2  3  1  0
  3  4  1  0
  4  5  1  0
  5  6  1  0
  6  7  1  0
  7  8  1  0
  3  9  1  0
  9 10  1  0
 10 11  1  0
 11 12  1  0
 12 13  1  0
 12  2  1  0
  8  6  1  0
  1 14  1  0
  2 15  1  1
  3 16  1  6
  4 17  1  0
  4 18  1  0
  5 19  1  0
  6 20  1  0
  7 21  1  0
  7 22  1  0
  8 23  1  0
  8 24  1  0
  9 25  1  0
 10 26  1  0
 10 27  1  0
 11 28  1  0
 11 29  1  0
 12 30  1  1
 13 31  1  0
M  END
$$$$

     RDKit          3D

 31 32  0  0  0  0  0  0  0  0999 V2000
   -0.5670    1.5374   -1.1251 O   0  0  0  0  0  0  0  0  0  0  0  0
   -1.2346    0.3843   -0.7371 C   0  0  1  0  0  0  0  0  0  0  0  0
   -0.4792   -0.3599    0.3548 C   0  0  2  0  0  0  0  0  0  0  0  0
    0.9743   -0.5494   -0.0219 C   0  0  0  0  0  0  0  0  0  0  0  0
    1.6469    0.7050   -0.2291 N   0  0  0  0  0  0  0  0  0  0  0  0
    3.0186    0.4883   -0.5910 C   0  0  0  0  0  0  0  0  0  0  0  0
    3.8743   -0.2036    0.4391 C   0  0  0  0  0  0  0  0  0  0  0  0
    4.1153    1.2250    0.0951 C   0  0  0  0  0  0  0  0  0  0  0  0
   -1.0852   -1.6500    0.4613 N   0  0  0  0  0  0  0  0  0  0  0  0
   -2.4836   -1.6526    0.7800 C   0  0  0  0  0  0  0  0  0  0  0  0
   -3.2921   -0.6353    0.0389 C   0  0  0  0  0  0  0  0  0  0  0  0
   -2.5896    0.6869   -0.1295 C   0  0  1  0  0  0  0  0  0  0  0  0
   -2.4341    1.2838    1.1162 O   0  0  0  0  0  0  0  0  0  0  0  0
   -0.8456    1.8124   -2.0277 H   0  0  0  0  0  0  0  0  0  0  0  0
   -1.4167   -0.3036   -1.5859 H   0  0  0  0  0  0  0  0  0  0  0  0
   -0.5500    0.1929    1.3124 H   0  0  0  0  0  0  0  0  0  0  0  0
    0.9815   -1.1182   -0.9741 H   0  0  0  0  0  0  0  0  0  0  0  0
    1.4502   -1.1411    0.7597 H   0  0  0  0  0  0  0  0  0  0  0  0
    1.5075    1.4065    0.5070 H   0  0  0  0  0  0  0  0  0  0  0  0
    3.1724    0.2275   -1.6702 H   0  0  0  0  0  0  0  0  0  0  0  0
    3.4527   -0.3790    1.4502 H   0  0  0  0  0  0  0  0  0  0  0  0
    4.5955   -0.9479    0.0128 H   0  0  0  0  0  0  0  0  0  0  0  0
    3.7848    2.0409    0.7933 H   0  0  0  0  0  0  0  0  0  0  0  0
    4.9788    1.5228   -0.5230 H   0  0  0  0  0  0  0  0  0  0  0  0
   -0.9282   -2.1829   -0.4091 H   0  0  0  0  0  0  0  0  0  0  0  0
   -2.5961   -1.5630    1.8832 H   0  0  0  0  0  0  0  0  0  0  0  0
   -2.8833   -2.6547    0.5091 H   0  0  0  0  0  0  0  0  0  0  0  0
   -4.2243   -0.4526    0.6100 H   0  0  0  0  0  0  0  0  0  0  0  0
   -3.5657   -1.0074   -0.9742 H   0  0  0  0  0  0  0  0  0  0  0  0
   -3.2171    1.3083   -0.8008 H   0  0  0  0  0  0  0  0  0  0  0  0
   -3.1603    1.9794    1.2124 H   0  0  0  0  0  0  0  0  0  0  0  0
  1  2  1  0
  2  3  1  0
  3  4  1  0
  4  5  1  0
  5  6  1  0
  6  7  1  0
  7  8  1  0
  3  9  1  0
  9 10  1  0
 10 11  1  0
 11 12  1  0
 12 13  1  0
 12  2  1  0
  8  6  1  0
  1 14  1  0
  2 15  1  6
  3 16  1  1
  4 17  1  0
  4 18  1  0
  5 19  1  0
  6 20  1  0
  7 21  1  0
  7 22  1  0
  8 23  1  0
  8 24  1  0
  9 25  1  0
 10 26  1  0
 10 27  1  0
 11 28  1  0
 11 29  1  0
 12 30  1  6
 13 31  1  0
M  END
$$$$
