
     RDKit          3D

 22 22  0  0  0  0  0  0  0  0999 V2000
    4.9124    2.6314   -1.9068 N   0  0  0  0  0  0  0  0  0  0  0  0
    4.1689    2.1645   -1.1480 C   0  0  0  0  0  0  0  0  0  0  0  0
    3.2819    1.5795   -0.2369 N   0  0  0  0  0  0  0  0  0  0  0  0
    2.2184    0.7181   -0.6245 C   0  0  0  0  0  0  0  0  0  0  0  0
    2.3568    0.1228   -1.7818 N   0  0  0  0  0  0  0  0  0  0  0  0
    1.0707    0.4985    0.1698 N   0  0  0  0  0  0  0  0  0  0  0  0
    0.0839   -0.4346   -0.2481 C   0  0  0  0  0  0  0  0  0  0  0  0
   -1.0803   -0.5798    0.6721 C   0  0  2  0  0  0  0  0  0  0  0  0
   -2.1008   -1.4546   -0.0417 C   0  0  0  0  0  0  0  0  0  0  0  0
   -3.3030   -1.1438    0.7193 N   0  0  0  0  0  0  0  0  0  0  0  0
   -3.1182    0.2119    1.1557 C   0  0  0  0  0  0  0  0  0  0  0  0
   -4.0346    0.8911    1.6947 O   0  0  0  0  0  0  0  0  0  0  0  0
   -1.8035    0.5942    0.8778 O   0  0  0  0  0  0  0  0  0  0  0  0
    3.3842    1.7697    0.7926 H   0  0  0  0  0  0  0  0  0  0  0  0
    1.6619   -0.5228   -2.1763 H   0  0  0  0  0  0  0  0  0  0  0  0
    0.9657    1.0255    1.0515 H   0  0  0  0  0  0  0  0  0  0  0  0
    0.5813   -1.4437   -0.3056 H   0  0  0  0  0  0  0  0  0  0  0  0
   -0.2853   -0.2410   -1.2755 H   0  0  0  0  0  0  0  0  0  0  0  0
   -0.8121   -1.0874    1.6205 H   0  0  0  0  0  0  0  0  0  0  0  0
   -2.1861   -1.0192   -1.0782 H   0  0  0  0  0  0  0  0  0  0  0  0
   -1.8439   -2.5108   -0.0396 H   0  0  0  0  0  0  0  0  0  0  0  0
   -4.1182   -1.7696    0.9054 H   0  0  0  0  0  0  0  0  0  0  0  0
  1  2  3  0
  2  3  1  0
  3  4  1  0
  4  5  2  3
  4  6  1  0
  6  7  1  0
  7  8  1  0
  8  9  1  0
  9 10  1  0
 10 11  1  0
 11 12  2  0
 11 13  1  0
 13  8  1  0
  3 14  1  0
  5 15  1  0
  6 16  1  0
  7 17  1  0
  7 18  1  0
  8 19  1  1
  9 20  1  0
  9 21  1  0
 10 22  1  0
M  END
$$$$

     RDKit          3D

 22 22  0  0  0  0  0  0  0  0999 V2000
    4.5148   -1.2284   -2.8110 N   0  0  0  0  0  0  0  0  0  0  0  0
    3.7089   -0.6010   -2.2692 C   0  0  0  0  0  0  0  0  0  0  0  0
    2.7304    0.1746   -1.6250 N   0  0  0  0  0  0  0  0  0  0  0  0
    1.8463   -0.4636   -0.7120 C   0  0  0  0  0  0  0  0  0  0  0  0
    1.8244   -1.7420   -0.6326 N   0  0  0  0  0  0  0  0  0  0  0  0
    0.9810    0.2785    0.1198 N   0  0  0  0  0  0  0  0  0  0  0  0
   -0.1663   -0.3148    0.7876 C   0  0  0  0  0  0  0  0  0  0  0  0
   -0.8952    0.7300    1.6041 C   0  0  2  0  0  0  0  0  0  0  0  0
   -2.2532    0.1440    1.9885 C   0  0  0  0  0  0  0  0  0  0  0  0
   -2.8469    0.0221    0.6755 N   0  0  0  0  0  0  0  0  0  0  0  0
   -2.2936    1.0876   -0.0821 C   0  0  0  0  0  0  0  0  0  0  0  0
   -2.6403    1.3781   -1.2684 O   0  0  0  0  0  0  0  0  0  0  0  0
   -1.3183    1.7416    0.7043 O   0  0  0  0  0  0  0  0  0  0  0  0
    2.6415    1.2105   -1.8049 H   0  0  0  0  0  0  0  0  0  0  0  0
    2.4526   -2.3413   -1.2338 H   0  0  0  0  0  0  0  0  0  0  0  0
    1.1812    1.2916    0.2543 H   0  0  0  0  0  0  0  0  0  0  0  0
   -0.8423   -0.8014    0.0567 H   0  0  0  0  0  0  0  0  0  0  0  0
    0.2128   -1.1097    1.4532 H   0  0  0  0  0  0  0  0  0  0  0  0
   -0.3350    1.0893    2.4553 H   0  0  0  0  0  0  0  0  0  0  0  0
   -2.1701   -0.7909    2.5353 H   0  0  0  0  0  0  0  0  0  0  0  0
   -2.8068    0.9469    2.5170 H   0  0  0  0  0  0  0  0  0  0  0  0
   -3.5258   -0.7015    0.3902 H   0  0  0  0  0  0  0  0  0  0  0  0
  1  2  3  0
  2  3  1  0
  3  4  1  0
  4  5  2  3
  4  6  1  0
  6  7  1  0
  7  8  1  0
  8  9  1  0
  9 10  1  0
 10 11  1  0
 11 12  2  0
 11 13  1  0
 13  8  1  0
  3 14  1  0
  5 15  1  0
  6 16  1  0
  7 17  1  0
  7 18  1  0
  8 19  1  1
  9 20  1  0
  9 21  1  0
 10 22  1  0
M  END
$$$$

     RDKit          3D

 22 22  0  0  0  0  0  0  0  0999 V2000
    4.9143   -0.8006    0.9501 N   0  0  0  0  0  0  0  0  0  0  0  0
    4.1801   -0.0575    0.6553 C   0  0  0  0  0  0  0  0  0  0  0  0
    3.2071    0.8973    0.2747 N   0  0  0  0  0  0  0  0  0  0  0  0
    1.9789    0.4231   -0.4193 C   0  0  0  0  0  0  0  0  0  0  0  0
    2.1716   -0.3146   -1.3655 N   0  0  0  0  0  0  0  0  0  0  0  0
    0.7206    1.0419   -0.0882 N   0  0  0  0  0  0  0  0  0  0  0  0
   -0.4986    0.4242   -0.5400 C   0  0  0  0  0  0  0  0  0  0  0  0
   -0.8290   -0.8168    0.2443 C   0  0  2  0  0  0  0  0  0  0  0  0
   -2.1924   -1.2948   -0.2677 C   0  0  0  0  0  0  0  0  0  0  0  0
   -2.9618   -0.1032    0.0438 N   0  0  0  0  0  0  0  0  0  0  0  0
   -2.4529    0.3253    1.2896 C   0  0  0  0  0  0  0  0  0  0  0  0
   -2.9948    1.1399    2.0717 O   0  0  0  0  0  0  0  0  0  0  0  0
   -1.2157   -0.3309    1.5548 O   0  0  0  0  0  0  0  0  0  0  0  0
    3.2511    1.8938    0.4855 H   0  0  0  0  0  0  0  0  0  0  0  0
    2.2403   -0.8751   -2.0915 H   0  0  0  0  0  0  0  0  0  0  0  0
    0.7637    1.9314    0.4345 H   0  0  0  0  0  0  0  0  0  0  0  0
   -1.3501    1.1379   -0.3876 H   0  0  0  0  0  0  0  0  0  0  0  0
   -0.4217    0.1618   -1.6326 H   0  0  0  0  0  0  0  0  0  0  0  0
   -0.0846   -1.5998    0.2907 H   0  0  0  0  0  0  0  0  0  0  0  0
   -2.1683   -1.4922   -1.3330 H   0  0  0  0  0  0  0  0  0  0  0  0
   -2.6002   -2.0999    0.3399 H   0  0  0  0  0  0  0  0  0  0  0  0
   -3.6578    0.4086   -0.5097 H   0  0  0  0  0  0  0  0  0  0  0  0
  1  2  3  0
  2  3  1  0
  3  4  1  0
  4  5  2  3
  4  6  1  0
  6  7  1  0
  7  8  1  0
  8  9  1  0
  9 10  1  0
 10 11  1  0
 11 12  2  0
 11 13  1  0
 13  8  1  0
  3 14  1  0
  5 15  1  0
  6 16  1  0
  7 17  1  0
  7 18  1  0
  8 19  1  1
  9 20  1  0
  9 21  1  0
 10 22  1  0
M  END
$$$$

     RDKit          3D

 22 22  0  0  0  0  0  0  0  0999 V2000
    2.0425    1.5432    4.7977 N   0  0  0  0  0  0  0  0  0  0  0  0
    1.4729    1.0031    3.9483 C   0  0  0  0  0  0  0  0  0  0  0  0
    0.7849    0.3238    2.9236 N   0  0  0  0  0  0  0  0  0  0  0  0
    0.5798    0.9273    1.6424 C   0  0  0  0  0  0  0  0  0  0  0  0
    0.7892    2.2039    1.5883 N   0  0  0  0  0  0  0  0  0  0  0  0
    0.1722    0.1641    0.5105 N   0  0  0  0  0  0  0  0  0  0  0  0
    0.5010    0.6619   -0.7820 C   0  0  0  0  0  0  0  0  0  0  0  0
    0.0566   -0.1677   -1.9256 C   0  0  2  0  0  0  0  0  0  0  0  0
   -1.4187   -0.3636   -2.0433 C   0  0  0  0  0  0  0  0  0  0  0  0
   -1.6211   -1.5598   -1.2553 N   0  0  0  0  0  0  0  0  0  0  0  0
   -0.3714   -2.2331   -1.2372 C   0  0  0  0  0  0  0  0  0  0  0  0
   -0.1527   -3.3382   -0.6493 O   0  0  0  0  0  0  0  0  0  0  0  0
    0.5569   -1.4653   -1.9745 O   0  0  0  0  0  0  0  0  0  0  0  0
    0.4148   -0.6253    3.0789 H   0  0  0  0  0  0  0  0  0  0  0  0
    0.6746    2.7599    0.7148 H   0  0  0  0  0  0  0  0  0  0  0  0
   -0.3469   -0.7205    0.7057 H   0  0  0  0  0  0  0  0  0  0  0  0
    1.6154    0.7451   -0.8406 H   0  0  0  0  0  0  0  0  0  0  0  0
    0.1135    1.6848   -0.9200 H   0  0  0  0  0  0  0  0  0  0  0  0
    0.3925    0.3544   -2.8648 H   0  0  0  0  0  0  0  0  0  0  0  0
   -1.7609   -0.4843   -3.0870 H   0  0  0  0  0  0  0  0  0  0  0  0
   -1.9960    0.4487   -1.5325 H   0  0  0  0  0  0  0  0  0  0  0  0
   -2.4989   -1.8622   -0.7980 H   0  0  0  0  0  0  0  0  0  0  0  0
  1  2  3  0
  2  3  1  0
  3  4  1  0
  4  5  2  3
  4  6  1  0
  6  7  1  0
  7  8  1  0
  8  9  1  0
  9 10  1  0
 10 11  1  0
 11 12  2  0
 11 13  1  0
 13  8  1  0
  3 14  1  0
  5 15  1  0
  6 16  1  0
  7 17  1  0
  7 18  1  0
  8 19  1  6
  9 20  1  0
  9 21  1  0
 10 22  1  0
M  END
$$$$

     RDKit          3D

 22 22  0  0  0  0  0  0  0  0999 V2000
    4.9334    1.9499   -0.3464 N   0  0  0  0  0  0  0  0  0  0  0  0
    4.2430    1.0214   -0.1986 C   0  0  0  0  0  0  0  0  0  0  0  0
    3.4115   -0.0973   -0.0171 N   0  0  0  0  0  0  0  0  0  0  0  0
    1.9602    0.0573   -0.2104 C   0  0  0  0  0  0  0  0  0  0  0  0
    1.4323    1.1341   -0.2578 N   0  0  0  0  0  0  0  0  0  0  0  0
    1.1892   -1.1435   -0.3320 N   0  0  0  0  0  0  0  0  0  0  0  0
   -0.1302   -1.3145    0.1590 C   0  0  0  0  0  0  0  0  0  0  0  0
   -1.2768   -0.6318   -0.4642 C   0  0  2  0  0  0  0  0  0  0  0  0
   -1.4314    0.8356   -0.2675 C   0  0  0  0  0  0  0  0  0  0  0  0
   -2.9089    1.0086   -0.1953 N   0  0  0  0  0  0  0  0  0  0  0  0
   -3.4646   -0.2447    0.1205 C   0  0  0  0  0  0  0  0  0  0  0  0
   -4.6898   -0.5691    0.2444 O   0  0  0  0  0  0  0  0  0  0  0  0
   -2.4345   -1.1396    0.2886 O   0  0  0  0  0  0  0  0  0  0  0  0
    3.7805   -1.0168    0.2429 H   0  0  0  0  0  0  0  0  0  0  0  0
    1.2393    2.0440   -0.2638 H   0  0  0  0  0  0  0  0  0  0  0  0
    1.7103   -1.9400   -0.8401 H   0  0  0  0  0  0  0  0  0  0  0  0
   -0.1764   -1.1578    1.2838 H   0  0  0  0  0  0  0  0  0  0  0  0
   -0.3467   -2.4332    0.0587 H   0  0  0  0  0  0  0  0  0  0  0  0
   -1.4547   -0.9300   -1.5034 H   0  0  0  0  0  0  0  0  0  0  0  0
   -1.0802    1.2225    0.6939 H   0  0  0  0  0  0  0  0  0  0  0  0
   -1.0765    1.4474   -1.1176 H   0  0  0  0  0  0  0  0  0  0  0  0
   -3.4289    1.8975   -0.3498 H   0  0  0  0  0  0  0  0  0  0  0  0
  1  2  3  0
  2  3  1  0
  3  4  1  0
  4  5  2  3
  4  6  1  0
  6  7  1  0
  7  8  1  0
  8  9  1  0
  9 10  1  0
 10 11  1  0
 11 12  2  0
 11 13  1  0
 13  8  1  0
  3 14  1  0
  5 15  1  0
  6 16  1  0
  7 17  1  0
  7 18  1  0
  8 19  1  6
  9 20  1  0
  9 21  1  0
 10 22  1  0
M  END
$$$$

     RDKit          3D

 22 22  0  0  0  0  0  0  0  0999 V2000
    4.3219    0.0715    2.2321 N   0  0  0  0  0  0  0  0  0  0  0  0
    3.7647   -0.2226    1.2544 C   0  0  0  0  0  0  0  0  0  0  0  0
    3.0827   -0.5560    0.0874 N   0  0  0  0  0  0  0  0  0  0  0  0
    2.0352    0.2693   -0.3980 C   0  0  0  0  0  0  0  0  0  0  0  0
    2.1093    1.5308   -0.1710 N   0  0  0  0  0  0  0  0  0  0  0  0
    0.9473   -0.3157   -1.1152 N   0  0  0  0  0  0  0  0  0  0  0  0
   -0.2637    0.4250   -1.3265 C   0  0  0  0  0  0  0  0  0  0  0  0
   -0.9790    0.6179   -0.0169 C   0  0  2  0  0  0  0  0  0  0  0  0
   -1.4520   -0.7463    0.4796 C   0  0  0  0  0  0  0  0  0  0  0  0
   -2.8600   -0.5646    0.7279 N   0  0  0  0  0  0  0  0  0  0  0  0
   -3.1715    0.8161    0.6165 C   0  0  0  0  0  0  0  0  0  0  0  0
   -4.1666    1.3673    1.1706 O   0  0  0  0  0  0  0  0  0  0  0  0
   -2.1829    1.3545   -0.1900 O   0  0  0  0  0  0  0  0  0  0  0  0
    3.3547   -1.4296   -0.4306 H   0  0  0  0  0  0  0  0  0  0  0  0
    1.4318    2.2373   -0.4598 H   0  0  0  0  0  0  0  0  0  0  0  0
    1.0529   -1.2916   -1.4821 H   0  0  0  0  0  0  0  0  0  0  0  0
   -0.9462   -0.1144   -2.0116 H   0  0  0  0  0  0  0  0  0  0  0  0
   -0.0400    1.4220   -1.7302 H   0  0  0  0  0  0  0  0  0  0  0  0
   -0.3108    1.0906    0.7162 H   0  0  0  0  0  0  0  0  0  0  0  0
   -0.8808   -1.0334    1.3782 H   0  0  0  0  0  0  0  0  0  0  0  0
   -1.2790   -1.5324   -0.2865 H   0  0  0  0  0  0  0  0  0  0  0  0
   -3.5681   -1.2961    0.9554 H   0  0  0  0  0  0  0  0  0  0  0  0
  1  2  3  0
  2  3  1  0
  3  4  1  0
  4  5  2  3
  4  6  1  0
  6  7  1  0
  7  8  1  0
  8  9  1  0
  9 10  1  0
 10 11  1  0
 11 12  2  0
 11 13  1  0
 13  8  1  0
  3 14  1  0
  5 15  1  0
  6 16  1  0
  7 17  1  0
  7 18  1  0
  8 19  1  1
  9 20  1  0
  9 21  1  0
 10 22  1  0
M  END
$$$$

     RDKit          3D

 22 22  0  0  0  0  0  0  0  0999 V2000
    5.7460    0.3817    0.1650 N   0  0  0  0  0  0  0  0  0  0  0  0
    4.6538    0.2034   -0.2024 C   0  0  0  0  0  0  0  0  0  0  0  0
    3.3288   -0.0061   -0.6260 N   0  0  0  0  0  0  0  0  0  0  0  0
    2.2088    0.1297    0.2278 C   0  0  0  0  0  0  0  0  0  0  0  0
    2.3807    0.5340    1.4210 N   0  0  0  0  0  0  0  0  0  0  0  0
    0.8772   -0.1703   -0.1942 N   0  0  0  0  0  0  0  0  0  0  0  0
   -0.1627   -0.4126    0.7863 C   0  0  0  0  0  0  0  0  0  0  0  0
   -1.4449   -0.6991    0.0315 C   0  0  2  0  0  0  0  0  0  0  0  0
   -1.8613    0.5372   -0.7406 C   0  0  0  0  0  0  0  0  0  0  0  0
   -3.3042    0.5846   -0.5817 N   0  0  0  0  0  0  0  0  0  0  0  0
   -3.6829   -0.4206    0.3291 C   0  0  0  0  0  0  0  0  0  0  0  0
   -4.8651   -0.7785    0.5681 O   0  0  0  0  0  0  0  0  0  0  0  0
   -2.5189   -0.9487    0.9187 O   0  0  0  0  0  0  0  0  0  0  0  0
    3.1481   -0.2765   -1.6206 H   0  0  0  0  0  0  0  0  0  0  0  0
    3.3245    0.7705    1.7945 H   0  0  0  0  0  0  0  0  0  0  0  0
    0.6961   -0.2052   -1.2251 H   0  0  0  0  0  0  0  0  0  0  0  0
    0.0930   -1.2994    1.4096 H   0  0  0  0  0  0  0  0  0  0  0  0
   -0.3029    0.4349    1.4732 H   0  0  0  0  0  0  0  0  0  0  0  0
   -1.2856   -1.5147   -0.6947 H   0  0  0  0  0  0  0  0  0  0  0  0
   -1.6583    0.4400   -1.8269 H   0  0  0  0  0  0  0  0  0  0  0  0
   -1.4395    1.4565   -0.3011 H   0  0  0  0  0  0  0  0  0  0  0  0
   -3.9307    1.2592   -1.0713 H   0  0  0  0  0  0  0  0  0  0  0  0
  1  2  3  0
  2  3  1  0
  3  4  1  0
  4  5  2  3
  4  6  1  0
  6  7  1  0
  7  8  1  0
  8  9  1  0
  9 10  1  0
 10 11  1  0
 11 12  2  0
 11 13  1  0
 13  8  1  0
  3 14  1  0
  5 15  1  0
  6 16  1  0
  7 17  1  0
  7 18  1  0
  8 19  1  6
  9 20  1  0
  9 21  1  0
 10 22  1  0
M  END
$$$$

     RDKit          3D

 22 22  0  0  0  0  0  0  0  0999 V2000
    5.7819   -0.9966   -0.3559 N   0  0  0  0  0  0  0  0  0  0  0  0
    4.7390   -0.3830   -0.3185 C   0  0  0  0  0  0  0  0  0  0  0  0
    3.5344    0.3201   -0.2980 N   0  0  0  0  0  0  0  0  0  0  0  0
    2.3211   -0.3599   -0.0078 C   0  0  0  0  0  0  0  0  0  0  0  0
    2.2744   -1.6390    0.1932 N   0  0  0  0  0  0  0  0  0  0  0  0
    1.0692    0.3482    0.0833 N   0  0  0  0  0  0  0  0  0  0  0  0
   -0.1181   -0.3590   -0.2920 C   0  0  0  0  0  0  0  0  0  0  0  0
   -1.3847    0.2878    0.1251 C   0  0  2  0  0  0  0  0  0  0  0  0
   -2.5303   -0.5216   -0.5193 C   0  0  0  0  0  0  0  0  0  0  0  0
   -3.6523    0.3982   -0.3721 N   0  0  0  0  0  0  0  0  0  0  0  0
   -3.0552    1.7227   -0.3924 C   0  0  0  0  0  0  0  0  0  0  0  0
   -3.6549    2.8035   -0.4455 O   0  0  0  0  0  0  0  0  0  0  0  0
   -1.6491    1.5746   -0.3380 O   0  0  0  0  0  0  0  0  0  0  0  0
    3.4979    1.3484   -0.4759 H   0  0  0  0  0  0  0  0  0  0  0  0
    3.1404   -2.2043    0.1483 H   0  0  0  0  0  0  0  0  0  0  0  0
    1.0536    1.3257    0.3758 H   0  0  0  0  0  0  0  0  0  0  0  0
   -0.0936   -0.4189   -1.4323 H   0  0  0  0  0  0  0  0  0  0  0  0
   -0.1285   -1.4228    0.0442 H   0  0  0  0  0  0  0  0  0  0  0  0
   -1.4811    0.1944    1.2440 H   0  0  0  0  0  0  0  0  0  0  0  0
   -2.3520   -0.6419   -1.6023 H   0  0  0  0  0  0  0  0  0  0  0  0
   -2.6900   -1.4872   -0.0703 H   0  0  0  0  0  0  0  0  0  0  0  0
   -4.6221    0.1106   -0.2827 H   0  0  0  0  0  0  0  0  0  0  0  0
  1  2  3  0
  2  3  1  0
  3  4  1  0
  4  5  2  3
  4  6  1  0
  6  7  1  0
  7  8  1  0
  8  9  1  0
  9 10  1  0
 10 11  1  0
 11 12  2  0
 11 13  1  0
 13  8  1  0
  3 14  1  0
  5 15  1  0
  6 16  1  0
  7 17  1  0
  7 18  1  0
  8 19  1  1
  9 20  1  0
  9 21  1  0
 10 22  1  0
M  END
$$$$
