
     RDKit          3D

 22 22  0  0  0  0  0  0  0  0999 V2000
   -1.8926    1.1042    1.0423 N   0  0  0  0  0  0  0  0  0  0  0  0
   -2.1733    0.7365   -0.3098 C   0  0  0  0  0  0  0  0  0  0  0  0
   -1.3223   -0.4210   -0.7542 C   0  0  2  0  0  0  0  0  0  0  0  0
   -1.5360   -1.6548    0.0846 C   0  0  0  0  0  0  0  0  0  0  0  0
   -0.6878   -2.6495   -0.4341 O   0  0  0  0  0  0  0  0  0  0  0  0
    0.1104   -0.0969   -0.7797 C   0  0  0  0  0  0  0  0  0  0  0  0
    0.8603    0.2629    0.2820 N   0  0  0  0  0  0  0  0  0  0  0  0
    2.1226    0.4795   -0.1301 C   0  0  0  0  0  0  0  0  0  0  0  0
    3.2377    0.8814    0.6964 C   0  0  0  0  0  0  0  0  0  0  0  0
    3.0817    1.0606    1.9119 O   0  0  0  0  0  0  0  0  0  0  0  0
    4.5026    1.0776    0.1655 O   0  0  0  0  0  0  0  0  0  0  0  0
    2.1144    0.2411   -1.4668 N   0  0  0  0  0  0  0  0  0  0  0  0
    0.9188   -0.0975   -1.8309 O   0  0  0  0  0  0  0  0  0  0  0  0
   -0.9528    1.5103    1.1921 H   0  0  0  0  0  0  0  0  0  0  0  0
   -2.6696    1.6445    1.4796 H   0  0  0  0  0  0  0  0  0  0  0  0
   -3.2372    0.4319   -0.3706 H   0  0  0  0  0  0  0  0  0  0  0  0
   -2.0309    1.5575   -1.0380 H   0  0  0  0  0  0  0  0  0  0  0  0
   -1.6425   -0.6793   -1.7973 H   0  0  0  0  0  0  0  0  0  0  0  0
   -1.3695   -1.4857    1.1531 H   0  0  0  0  0  0  0  0  0  0  0  0
   -2.5778   -2.0342   -0.1025 H   0  0  0  0  0  0  0  0  0  0  0  0
   -0.1801   -3.0819    0.2780 H   0  0  0  0  0  0  0  0  0  0  0  0
    5.3240    1.2129    0.7287 H   0  0  0  0  0  0  0  0  0  0  0  0
  1  2  1  0
  2  3  1  0
  3  4  1  0
  4  5  1  0
  3  6  1  0
  6  7  2  0
  7  8  1  0
  8  9  1  0
  9 10  2  0
  9 11  1  0
  8 12  2  0
 12 13  1  0
 13  6  1  0
  1 14  1  0
  1 15  1  0
  2 16  1  0
  2 17  1  0
  3 18  1  6
  4 19  1  0
  4 20  1  0
  5 21  1  0
 11 22  1  0
M  END
$$$$

     RDKit          3D

 22 22  0  0  0  0  0  0  0  0999 V2000
   -1.5395    2.1890   -0.3105 N   0  0  0  0  0  0  0  0  0  0  0  0
   -2.1080    0.9645    0.2112 C   0  0  0  0  0  0  0  0  0  0  0  0
   -1.2977   -0.2257   -0.2043 C   0  0  2  0  0  0  0  0  0  0  0  0
   -1.9477   -1.4656    0.3743 C   0  0  0  0  0  0  0  0  0  0  0  0
   -1.2368   -2.6263    0.0227 O   0  0  0  0  0  0  0  0  0  0  0  0
    0.1261   -0.1145    0.1909 C   0  0  0  0  0  0  0  0  0  0  0  0
    1.1997   -0.1030   -0.6160 N   0  0  0  0  0  0  0  0  0  0  0  0
    2.3130    0.0128    0.1311 C   0  0  0  0  0  0  0  0  0  0  0  0
    3.6968    0.0658   -0.3267 C   0  0  0  0  0  0  0  0  0  0  0  0
    4.0083    0.0049   -1.5407 O   0  0  0  0  0  0  0  0  0  0  0  0
    4.7135    0.1869    0.5912 O   0  0  0  0  0  0  0  0  0  0  0  0
    1.8888    0.0707    1.4029 N   0  0  0  0  0  0  0  0  0  0  0  0
    0.5773   -0.0075    1.4103 O   0  0  0  0  0  0  0  0  0  0  0  0
   -0.5226    2.2637   -0.2040 H   0  0  0  0  0  0  0  0  0  0  0  0
   -2.0682    3.0096    0.0546 H   0  0  0  0  0  0  0  0  0  0  0  0
   -3.1117    0.8580   -0.2847 H   0  0  0  0  0  0  0  0  0  0  0  0
   -2.2493    1.0404    1.3020 H   0  0  0  0  0  0  0  0  0  0  0  0
   -1.3547   -0.3018   -1.3142 H   0  0  0  0  0  0  0  0  0  0  0  0
   -2.9870   -1.5056    0.0148 H   0  0  0  0  0  0  0  0  0  0  0  0
   -1.9321   -1.4266    1.4867 H   0  0  0  0  0  0  0  0  0  0  0  0
   -1.8241   -3.3744   -0.1957 H   0  0  0  0  0  0  0  0  0  0  0  0
    5.6560    0.4849    0.3754 H   0  0  0  0  0  0  0  0  0  0  0  0
  1  2  1  0
  2  3  1  0
  3  4  1  0
  4  5  1  0
  3  6  1  0
  6  7  2  0
  7  8  1  0
  8  9  1  0
  9 10  2  0
  9 11  1  0
  8 12  2  0
 12 13  1  0
 13  6  1  0
  1 14  1  0
  1 15  1  0
  2 16  1  0
  2 17  1  0
  3 18  1  6
  4 19  1  0
  4 20  1  0
  5 21  1  0
 11 22  1  0
M  END
$$$$

     RDKit          3D

 22 22  0  0  0  0  0  0  0  0999 V2000
   -2.1645    0.9083    1.2702 N   0  0  0  0  0  0  0  0  0  0  0  0
   -1.6758    1.5310    0.0650 C   0  0  0  0  0  0  0  0  0  0  0  0
   -0.9212    0.5013   -0.7553 C   0  0  2  0  0  0  0  0  0  0  0  0
   -1.8937   -0.6091   -1.0818 C   0  0  0  0  0  0  0  0  0  0  0  0
   -1.3179   -1.6107   -1.8304 O   0  0  0  0  0  0  0  0  0  0  0  0
    0.2291   -0.0242    0.0260 C   0  0  0  0  0  0  0  0  0  0  0  0
    1.5164   -0.0018   -0.3656 N   0  0  0  0  0  0  0  0  0  0  0  0
    2.2826   -0.5580    0.5825 C   0  0  0  0  0  0  0  0  0  0  0  0
    3.7424   -0.7445    0.5780 C   0  0  0  0  0  0  0  0  0  0  0  0
    4.3123   -1.2857    1.5474 O   0  0  0  0  0  0  0  0  0  0  0  0
    4.4621   -0.3063   -0.5235 O   0  0  0  0  0  0  0  0  0  0  0  0
    1.4354   -0.9226    1.5655 N   0  0  0  0  0  0  0  0  0  0  0  0
    0.2218   -0.5865    1.1941 O   0  0  0  0  0  0  0  0  0  0  0  0
   -3.1008    1.2534    1.5608 H   0  0  0  0  0  0  0  0  0  0  0  0
   -1.4768    0.8379    2.0203 H   0  0  0  0  0  0  0  0  0  0  0  0
   -2.5131    1.9243   -0.5449 H   0  0  0  0  0  0  0  0  0  0  0  0
   -0.9873    2.3559    0.3228 H   0  0  0  0  0  0  0  0  0  0  0  0
   -0.5679    0.9161   -1.7112 H   0  0  0  0  0  0  0  0  0  0  0  0
   -2.7273   -0.1249   -1.6607 H   0  0  0  0  0  0  0  0  0  0  0  0
   -2.3585   -0.9843   -0.1535 H   0  0  0  0  0  0  0  0  0  0  0  0
   -1.9652   -2.3737   -1.8411 H   0  0  0  0  0  0  0  0  0  0  0  0
    5.4677   -0.0959   -0.4437 H   0  0  0  0  0  0  0  0  0  0  0  0
  1  2  1  0
  2  3  1  0
  3  4  1  0
  4  5  1  0
  3  6  1  0
  6  7  2  0
  7  8  1  0
  8  9  1  0
  9 10  2  0
  9 11  1  0
  8 12  2  0
 12 13  1  0
 13  6  1  0
  1 14  1  0
  1 15  1  0
  2 16  1  0
  2 17  1  0
  3 18  1  6
  4 19  1  0
  4 20  1  0
  5 21  1  0
 11 22  1  0
M  END
$$$$

     RDKit          3D

 22 22  0  0  0  0  0  0  0  0999 V2000
   -1.6250   -0.6156    1.9961 N   0  0  0  0  0  0  0  0  0  0  0  0
   -2.0010   -0.5051    0.6073 C   0  0  0  0  0  0  0  0  0  0  0  0
   -1.1054    0.4856   -0.1255 C   0  0  2  0  0  0  0  0  0  0  0  0
   -1.5690    0.5401   -1.5743 C   0  0  0  0  0  0  0  0  0  0  0  0
   -2.8876    0.9529   -1.6653 O   0  0  0  0  0  0  0  0  0  0  0  0
    0.2958   -0.0279   -0.1222 C   0  0  0  0  0  0  0  0  0  0  0  0
    1.4018    0.5744    0.3100 N   0  0  0  0  0  0  0  0  0  0  0  0
    2.4150   -0.2646    0.1130 C   0  0  0  0  0  0  0  0  0  0  0  0
    3.8293   -0.0667    0.4218 C   0  0  0  0  0  0  0  0  0  0  0  0
    4.6788   -0.9444    0.1823 O   0  0  0  0  0  0  0  0  0  0  0  0
    4.2088    1.1360    0.9949 O   0  0  0  0  0  0  0  0  0  0  0  0
    1.9007   -1.3855   -0.4464 N   0  0  0  0  0  0  0  0  0  0  0  0
    0.6195   -1.2030   -0.5719 O   0  0  0  0  0  0  0  0  0  0  0  0
   -1.2055    0.2448    2.3906 H   0  0  0  0  0  0  0  0  0  0  0  0
   -2.4227   -0.9702    2.5714 H   0  0  0  0  0  0  0  0  0  0  0  0
   -3.0550   -0.1419    0.5052 H   0  0  0  0  0  0  0  0  0  0  0  0
   -1.8518   -1.4842    0.1067 H   0  0  0  0  0  0  0  0  0  0  0  0
   -1.1774    1.4966    0.2941 H   0  0  0  0  0  0  0  0  0  0  0  0
   -0.9195    1.2565   -2.1357 H   0  0  0  0  0  0  0  0  0  0  0  0
   -1.5017   -0.4563   -2.0590 H   0  0  0  0  0  0  0  0  0  0  0  0
   -3.1567    0.8904   -2.6084 H   0  0  0  0  0  0  0  0  0  0  0  0
    5.1286    1.5237    0.8154 H   0  0  0  0  0  0  0  0  0  0  0  0
  1  2  1  0
  2  3  1  0
  3  4  1  0
  4  5  1  0
  3  6  1  0
  6  7  2  0
  7  8  1  0
  8  9  1  0
  9 10  2  0
  9 11  1  0
  8 12  2  0
 12 13  1  0
 13  6  1  0
  1 14  1  0
  1 15  1  0
  2 16  1  0
  2 17  1  0
  3 18  1  1
  4 19  1  0
  4 20  1  0
  5 21  1  0
 11 22  1  0
M  END
$$$$

     RDKit          3D

 22 22  0  0  0  0  0  0  0  0999 V2000
   -3.1888    1.3129   -0.1819 N   0  0  0  0  0  0  0  0  0  0  0  0
   -1.8647    1.0829    0.2464 C   0  0  0  0  0  0  0  0  0  0  0  0
   -1.1154   -0.0048   -0.4360 C   0  0  2  0  0  0  0  0  0  0  0  0
   -1.7007   -1.3630   -0.3358 C   0  0  0  0  0  0  0  0  0  0  0  0
   -0.8709   -2.2473   -1.0288 O   0  0  0  0  0  0  0  0  0  0  0  0
    0.2587   -0.0548    0.1674 C   0  0  0  0  0  0  0  0  0  0  0  0
    1.4411    0.1720   -0.4391 N   0  0  0  0  0  0  0  0  0  0  0  0
    2.4353    0.0264    0.4539 C   0  0  0  0  0  0  0  0  0  0  0  0
    3.8712    0.1730    0.2548 C   0  0  0  0  0  0  0  0  0  0  0  0
    4.2914    0.4763   -0.8897 O   0  0  0  0  0  0  0  0  0  0  0  0
    4.7635   -0.0128    1.2866 O   0  0  0  0  0  0  0  0  0  0  0  0
    1.8411   -0.2911    1.6079 N   0  0  0  0  0  0  0  0  0  0  0  0
    0.5561   -0.3351    1.4225 O   0  0  0  0  0  0  0  0  0  0  0  0
   -3.3567    2.1679   -0.7372 H   0  0  0  0  0  0  0  0  0  0  0  0
   -3.7034    0.5236   -0.5736 H   0  0  0  0  0  0  0  0  0  0  0  0
   -1.2802    2.0208    0.1402 H   0  0  0  0  0  0  0  0  0  0  0  0
   -1.8863    0.8855    1.3579 H   0  0  0  0  0  0  0  0  0  0  0  0
   -0.9965    0.2596   -1.5053 H   0  0  0  0  0  0  0  0  0  0  0  0
   -1.6474   -1.6822    0.7378 H   0  0  0  0  0  0  0  0  0  0  0  0
   -2.7025   -1.4799   -0.7585 H   0  0  0  0  0  0  0  0  0  0  0  0
   -0.8782   -1.9195   -1.9841 H   0  0  0  0  0  0  0  0  0  0  0  0
    5.7331    0.2895    1.2523 H   0  0  0  0  0  0  0  0  0  0  0  0
  1  2  1  0
  2  3  1  0
  3  4  1  0
  4  5  1  0
  3  6  1  0
  6  7  2  0
  7  8  1  0
  8  9  1  0
  9 10  2  0
  9 11  1  0
  8 12  2  0
 12 13  1  0
 13  6  1  0
  1 14  1  0
  1 15  1  0
  2 16  1  0
  2 17  1  0
  3 18  1  6
  4 19  1  0
  4 20  1  0
  5 21  1  0
 11 22  1  0
M  END
$$$$

     RDKit          3D

 22 22  0  0  0  0  0  0  0  0999 V2000
   -3.1784   -0.5717   -0.5745 N   0  0  0  0  0  0  0  0  0  0  0  0
   -1.7463   -0.7025   -0.6076 C   0  0  0  0  0  0  0  0  0  0  0  0
   -1.0537    0.1617    0.4157 C   0  0  2  0  0  0  0  0  0  0  0  0
   -1.3499    1.6312    0.2134 C   0  0  0  0  0  0  0  0  0  0  0  0
   -2.6797    1.9456    0.3000 O   0  0  0  0  0  0  0  0  0  0  0  0
    0.4168   -0.0035    0.1892 C   0  0  0  0  0  0  0  0  0  0  0  0
    1.3594   -0.4608    1.0186 N   0  0  0  0  0  0  0  0  0  0  0  0
    2.5081   -0.4094    0.3411 C   0  0  0  0  0  0  0  0  0  0  0  0
    3.8372   -0.7989    0.8023 C   0  0  0  0  0  0  0  0  0  0  0  0
    4.0009   -1.2468    1.9685 O   0  0  0  0  0  0  0  0  0  0  0  0
    4.9398   -0.6921   -0.0073 O   0  0  0  0  0  0  0  0  0  0  0  0
    2.2390    0.0791   -0.8884 N   0  0  0  0  0  0  0  0  0  0  0  0
    0.9681    0.3175   -0.9578 O   0  0  0  0  0  0  0  0  0  0  0  0
   -3.5148   -0.0997   -1.4650 H   0  0  0  0  0  0  0  0  0  0  0  0
   -3.6411   -1.5087   -0.5787 H   0  0  0  0  0  0  0  0  0  0  0  0
   -1.3294   -0.5303   -1.6253 H   0  0  0  0  0  0  0  0  0  0  0  0
   -1.4963   -1.7578   -0.3536 H   0  0  0  0  0  0  0  0  0  0  0  0
   -1.3483   -0.1529    1.4260 H   0  0  0  0  0  0  0  0  0  0  0  0
   -0.7831    2.1739    1.0112 H   0  0  0  0  0  0  0  0  0  0  0  0
   -0.9445    2.0078   -0.7463 H   0  0  0  0  0  0  0  0  0  0  0  0
   -2.9947    1.8345    1.2160 H   0  0  0  0  0  0  0  0  0  0  0  0
    5.7908   -1.2160    0.0999 H   0  0  0  0  0  0  0  0  0  0  0  0
  1  2  1  0
  2  3  1  0
  3  4  1  0
  4  5  1  0
  3  6  1  0
  6  7  2  0
  7  8  1  0
  8  9  1  0
  9 10  2  0
  9 11  1  0
  8 12  2  0
 12 13  1  0
 13  6  1  0
  1 14  1  0
  1 15  1  0
  2 16  1  0
  2 17  1  0
  3 18  1  1
  4 19  1  0
  4 20  1  0
  5 21  1  0
 11 22  1  0
M  END
$$$$

     RDKit          3D

 22 22  0  0  0  0  0  0  0  0999 V2000
   -1.4428    2.1496   -0.2339 N   0  0  0  0  0  0  0  0  0  0  0  0
   -2.0017    0.9032    0.2533 C   0  0  0  0  0  0  0  0  0  0  0  0
   -1.1911   -0.2461   -0.3244 C   0  0  2  0  0  0  0  0  0  0  0  0
   -1.7358   -1.5676    0.1550 C   0  0  0  0  0  0  0  0  0  0  0  0
   -3.0631   -1.7691   -0.2165 O   0  0  0  0  0  0  0  0  0  0  0  0
    0.1917   -0.1213    0.1399 C   0  0  0  0  0  0  0  0  0  0  0  0
    1.2688    0.0118   -0.6492 N   0  0  0  0  0  0  0  0  0  0  0  0
    2.3471    0.0952    0.1602 C   0  0  0  0  0  0  0  0  0  0  0  0
    3.7088    0.2473   -0.3198 C   0  0  0  0  0  0  0  0  0  0  0  0
    3.9243    0.3072   -1.5471 O   0  0  0  0  0  0  0  0  0  0  0  0
    4.7659    0.3265    0.5592 O   0  0  0  0  0  0  0  0  0  0  0  0
    1.9159    0.0121    1.4331 N   0  0  0  0  0  0  0  0  0  0  0  0
    0.6325   -0.1153    1.3720 O   0  0  0  0  0  0  0  0  0  0  0  0
   -0.6408    2.0125   -0.8778 H   0  0  0  0  0  0  0  0  0  0  0  0
   -2.1980    2.7390   -0.6460 H   0  0  0  0  0  0  0  0  0  0  0  0
   -1.9120    0.9082    1.3502 H   0  0  0  0  0  0  0  0  0  0  0  0
   -3.0478    0.7997   -0.0673 H   0  0  0  0  0  0  0  0  0  0  0  0
   -1.2926   -0.2221   -1.4217 H   0  0  0  0  0  0  0  0  0  0  0  0
   -1.1064   -2.3677   -0.3043 H   0  0  0  0  0  0  0  0  0  0  0  0
   -1.6158   -1.6511    1.2620 H   0  0  0  0  0  0  0  0  0  0  0  0
   -3.2531   -2.7289   -0.3647 H   0  0  0  0  0  0  0  0  0  0  0  0
    5.7461    0.2769    0.2878 H   0  0  0  0  0  0  0  0  0  0  0  0
  1  2  1  0
  2  3  1  0
  3  4  1  0
  4  5  1  0
  3  6  1  0
  6  7  2  0
  7  8  1  0
  8  9  1  0
  9 10  2  0
  9 11  1  0
  8 12  2  0
 12 13  1  0
 13  6  1  0
  1 14  1  0
  1 15  1  0
  2 16  1  0
  2 17  1  0
  3 18  1  6
  4 19  1  0
  4 20  1  0
  5 21  1  0
 11 22  1  0
M  END
$$$$

     RDKit          3D

 22 22  0  0  0  0  0  0  0  0999 V2000
   -2.8582   -1.4512   -0.5964 N   0  0  0  0  0  0  0  0  0  0  0  0
   -1.5240   -1.0010   -0.7709 C   0  0  0  0  0  0  0  0  0  0  0  0
   -0.9826   -0.1697    0.3522 C   0  0  2  0  0  0  0  0  0  0  0  0
   -1.7684    1.0871    0.5999 C   0  0  0  0  0  0  0  0  0  0  0  0
   -1.8147    1.9379   -0.4806 O   0  0  0  0  0  0  0  0  0  0  0  0
    0.4126    0.1892    0.0278 C   0  0  0  0  0  0  0  0  0  0  0  0
    1.4827   -0.1750    0.7569 N   0  0  0  0  0  0  0  0  0  0  0  0
    2.5840    0.3237    0.1714 C   0  0  0  0  0  0  0  0  0  0  0  0
    3.9615    0.1562    0.6491 C   0  0  0  0  0  0  0  0  0  0  0  0
    4.9085    0.6760    0.0067 O   0  0  0  0  0  0  0  0  0  0  0  0
    4.2184   -0.5608    1.7870 O   0  0  0  0  0  0  0  0  0  0  0  0
    2.1672    0.9891   -0.9132 N   0  0  0  0  0  0  0  0  0  0  0  0
    0.8714    0.8978   -0.9822 O   0  0  0  0  0  0  0  0  0  0  0  0
   -3.0301   -2.3492   -1.1268 H   0  0  0  0  0  0  0  0  0  0  0  0
   -3.5987   -0.7958   -0.8748 H   0  0  0  0  0  0  0  0  0  0  0  0
   -1.4856   -0.4046   -1.7226 H   0  0  0  0  0  0  0  0  0  0  0  0
   -0.8493   -1.8629   -0.9268 H   0  0  0  0  0  0  0  0  0  0  0  0
   -1.0170   -0.7725    1.2685 H   0  0  0  0  0  0  0  0  0  0  0  0
   -1.2473    1.6330    1.4241 H   0  0  0  0  0  0  0  0  0  0  0  0
   -2.7746    0.8371    0.9994 H   0  0  0  0  0  0  0  0  0  0  0  0
   -2.7362    1.9240   -0.8431 H   0  0  0  0  0  0  0  0  0  0  0  0
    5.0804   -1.1082    1.8788 H   0  0  0  0  0  0  0  0  0  0  0  0
  1  2  1  0
  2  3  1  0
  3  4  1  0
  4  5  1  0
  3  6  1  0
  6  7  2  0
  7  8  1  0
  8  9  1  0
  9 10  2  0
  9 11  1  0
  8 12  2  0
 12 13  1  0
 13  6  1  0
  1 14  1  0
  1 15  1  0
  2 16  1  0
  2 17  1  0
  3 18  1  1
  4 19  1  0
  4 20  1  0
  5 21  1  0
 11 22  1  0
M  END
$$$$
