
     RDKit          3D

 26 27  0  0  0  0  0  0  0  0999 V2000
    0.6726   -1.5098   -0.5295 O   0  0  0  0  0  0  0  0  0  0  0  0
    0.7814   -0.4958    0.1701 C   0  0  0  0  0  0  0  0  0  0  0  0
   -0.3896    0.2346    0.5088 N   0  0  0  0  0  0  0  0  0  0  0  0
   -1.7060   -0.1004    0.1081 C   0  0  0  0  0  0  0  0  0  0  0  0
   -2.7967    0.8410    0.6025 C   0  0  0  0  0  0  0  0  0  0  0  0
   -4.0495    0.3866    0.1287 O   0  0  0  0  0  0  0  0  0  0  0  0
   -1.8341   -0.4490   -1.3997 C   0  0  0  0  0  0  0  0  0  0  0  0
   -2.1349   -1.4469   -0.2933 C   0  0  0  0  0  0  0  0  0  0  0  0
    2.1288   -0.0752    0.6326 C   0  0  0  0  0  0  0  0  0  0  0  0
    2.3054   -0.0212    1.9865 F   0  0  0  0  0  0  0  0  0  0  0  0
    3.2293   -0.7521   -0.1534 C   0  0  0  0  0  0  0  0  0  0  0  0
    3.9509    0.5221   -0.1136 N   0  0  0  0  0  0  0  0  0  0  0  0
    2.6491    1.1727   -0.0874 C   0  0  0  0  0  0  0  0  0  0  0  0
   -0.2240    1.0819    1.1034 H   0  0  0  0  0  0  0  0  0  0  0  0
   -2.6834    1.8592    0.2276 H   0  0  0  0  0  0  0  0  0  0  0  0
   -2.8017    0.8667    1.7113 H   0  0  0  0  0  0  0  0  0  0  0  0
   -4.6865    1.1159    0.3224 H   0  0  0  0  0  0  0  0  0  0  0  0
   -0.9084   -0.5782   -1.9702 H   0  0  0  0  0  0  0  0  0  0  0  0
   -2.6909    0.0035   -1.9437 H   0  0  0  0  0  0  0  0  0  0  0  0
   -1.4902   -2.3392   -0.2463 H   0  0  0  0  0  0  0  0  0  0  0  0
   -3.2068   -1.6860   -0.1951 H   0  0  0  0  0  0  0  0  0  0  0  0
    3.7411   -1.5729    0.3854 H   0  0  0  0  0  0  0  0  0  0  0  0
    2.9161   -0.9657   -1.1810 H   0  0  0  0  0  0  0  0  0  0  0  0
    4.3906    0.6117    0.8366 H   0  0  0  0  0  0  0  0  0  0  0  0
    2.5898    2.0906    0.5056 H   0  0  0  0  0  0  0  0  0  0  0  0
    2.2475    1.2056   -1.1164 H   0  0  0  0  0  0  0  0  0  0  0  0
  1  2  2  0
  2  3  1  0
  3  4  1  0
  4  5  1  0
  5  6  1  0
  4  7  1  0
  7  8  1  0
  2  9  1  0
  9 10  1  0
  9 11  1  0
 11 12  1  0
 12 13  1  0
  8  4  1  0
 13  9  1  0
  3 14  1  0
  5 15  1  0
  5 16  1  0
  6 17  1  0
  7 18  1  0
  7 19  1  0
  8 20  1  0
  8 21  1  0
 11 22  1  0
 11 23  1  0
 12 24  1  0
 13 25  1  0
 13 26  1  0
M  END
$$$$

     RDKit          3D

 26 27  0  0  0  0  0  0  0  0999 V2000
    0.5670    0.4333    1.4662 O   0  0  0  0  0  0  0  0  0  0  0  0
    0.7057    0.3762    0.2052 C   0  0  0  0  0  0  0  0  0  0  0  0
   -0.4780    0.2623   -0.5558 N   0  0  0  0  0  0  0  0  0  0  0  0
   -1.8028    0.2101    0.0365 C   0  0  0  0  0  0  0  0  0  0  0  0
   -2.1077   -0.9242    0.9985 C   0  0  0  0  0  0  0  0  0  0  0  0
   -1.9614   -2.1589    0.3600 O   0  0  0  0  0  0  0  0  0  0  0  0
   -2.9057    0.6517   -0.8810 C   0  0  0  0  0  0  0  0  0  0  0  0
   -2.5133    1.5072    0.3241 C   0  0  0  0  0  0  0  0  0  0  0  0
    2.0369    0.4280   -0.4027 C   0  0  0  0  0  0  0  0  0  0  0  0
    2.2959    1.4448   -1.2647 F   0  0  0  0  0  0  0  0  0  0  0  0
    2.6387   -0.8639   -0.8451 C   0  0  0  0  0  0  0  0  0  0  0  0
    3.9289   -0.3275   -0.3750 N   0  0  0  0  0  0  0  0  0  0  0  0
    3.1428    0.3529    0.6580 C   0  0  0  0  0  0  0  0  0  0  0  0
   -0.3670    0.2145   -1.6046 H   0  0  0  0  0  0  0  0  0  0  0  0
   -3.1561   -0.8356    1.3126 H   0  0  0  0  0  0  0  0  0  0  0  0
   -1.4616   -0.8375    1.8765 H   0  0  0  0  0  0  0  0  0  0  0  0
   -2.8319   -2.3759   -0.0796 H   0  0  0  0  0  0  0  0  0  0  0  0
   -2.6710    1.1044   -1.8596 H   0  0  0  0  0  0  0  0  0  0  0  0
   -3.8984    0.1785   -0.8357 H   0  0  0  0  0  0  0  0  0  0  0  0
   -2.0180    2.4742    0.1105 H   0  0  0  0  0  0  0  0  0  0  0  0
   -3.2151    1.5305    1.1554 H   0  0  0  0  0  0  0  0  0  0  0  0
    2.6386   -1.0180   -1.9496 H   0  0  0  0  0  0  0  0  0  0  0  0
    2.3985   -1.7545   -0.2487 H   0  0  0  0  0  0  0  0  0  0  0  0
    4.5789   -1.0519   -0.0169 H   0  0  0  0  0  0  0  0  0  0  0  0
    3.5138    1.3398    0.9434 H   0  0  0  0  0  0  0  0  0  0  0  0
    2.9421   -0.3603    1.4722 H   0  0  0  0  0  0  0  0  0  0  0  0
  1  2  2  0
  2  3  1  0
  3  4  1  0
  4  5  1  0
  5  6  1  0
  4  7  1  0
  7  8  1  0
  2  9  1  0
  9 10  1  0
  9 11  1  0
 11 12  1  0
 12 13  1  0
  8  4  1  0
 13  9  1  0
  3 14  1  0
  5 15  1  0
  5 16  1  0
  6 17  1  0
  7 18  1  0
  7 19  1  0
  8 20  1  0
  8 21  1  0
 11 22  1  0
 11 23  1  0
 12 24  1  0
 13 25  1  0
 13 26  1  0
M  END
$$$$

     RDKit          3D

 26 27  0  0  0  0  0  0  0  0999 V2000
   -0.5588   -1.4342    0.5396 O   0  0  0  0  0  0  0  0  0  0  0  0
   -0.7661   -0.4503   -0.2066 C   0  0  0  0  0  0  0  0  0  0  0  0
    0.3796    0.3348   -0.5472 N   0  0  0  0  0  0  0  0  0  0  0  0
    1.7012    0.0778   -0.1068 C   0  0  0  0  0  0  0  0  0  0  0  0
    2.7416    1.0817   -0.6136 C   0  0  0  0  0  0  0  0  0  0  0  0
    2.4236    2.3695   -0.1819 O   0  0  0  0  0  0  0  0  0  0  0  0
    2.0464   -0.6473    1.1233 C   0  0  0  0  0  0  0  0  0  0  0  0
    2.1539   -1.3597   -0.2182 C   0  0  0  0  0  0  0  0  0  0  0  0
   -2.1245   -0.1747   -0.6687 C   0  0  0  0  0  0  0  0  0  0  0  0
   -2.2658   -0.2056   -2.0386 F   0  0  0  0  0  0  0  0  0  0  0  0
   -2.8455    0.9626    0.0113 C   0  0  0  0  0  0  0  0  0  0  0  0
   -3.3690   -0.0045    0.9636 N   0  0  0  0  0  0  0  0  0  0  0  0
   -3.1337   -1.0651    0.0142 C   0  0  0  0  0  0  0  0  0  0  0  0
    0.1985    1.1576   -1.1719 H   0  0  0  0  0  0  0  0  0  0  0  0
    2.7893    1.0756   -1.7159 H   0  0  0  0  0  0  0  0  0  0  0  0
    3.7563    0.7876   -0.2234 H   0  0  0  0  0  0  0  0  0  0  0  0
    3.1271    2.9622   -0.5472 H   0  0  0  0  0  0  0  0  0  0  0  0
    1.3271   -1.0274    1.8494 H   0  0  0  0  0  0  0  0  0  0  0  0
    3.0329   -0.3969    1.6018 H   0  0  0  0  0  0  0  0  0  0  0  0
    3.2014   -1.5634   -0.5858 H   0  0  0  0  0  0  0  0  0  0  0  0
    1.4290   -2.1690   -0.4147 H   0  0  0  0  0  0  0  0  0  0  0  0
   -3.6512    1.3540   -0.6697 H   0  0  0  0  0  0  0  0  0  0  0  0
   -2.2285    1.7497    0.4431 H   0  0  0  0  0  0  0  0  0  0  0  0
   -2.6848   -0.0858    1.7558 H   0  0  0  0  0  0  0  0  0  0  0  0
   -2.6990   -1.9726    0.4945 H   0  0  0  0  0  0  0  0  0  0  0  0
   -3.9809   -1.3568   -0.6152 H   0  0  0  0  0  0  0  0  0  0  0  0
  1  2  2  0
  2  3  1  0
  3  4  1  0
  4  5  1  0
  5  6  1  0
  4  7  1  0
  7  8  1  0
  2  9  1  0
  9 10  1  0
  9 11  1  0
 11 12  1  0
 12 13  1  0
  8  4  1  0
 13  9  1  0
  3 14  1  0
  5 15  1  0
  5 16  1  0
  6 17  1  0
  7 18  1  0
  7 19  1  0
  8 20  1  0
  8 21  1  0
 11 22  1  0
 11 23  1  0
 12 24  1  0
 13 25  1  0
 13 26  1  0
M  END
$$$$

     RDKit          3D

 26 27  0  0  0  0  0  0  0  0999 V2000
    0.3246    0.6798    1.5992 O   0  0  0  0  0  0  0  0  0  0  0  0
    0.7129    0.0025    0.6275 C   0  0  0  0  0  0  0  0  0  0  0  0
   -0.2752   -0.5497   -0.2419 N   0  0  0  0  0  0  0  0  0  0  0  0
   -1.6871   -0.3619   -0.0508 C   0  0  0  0  0  0  0  0  0  0  0  0
   -2.1241    1.0844   -0.0900 C   0  0  0  0  0  0  0  0  0  0  0  0
   -3.5007    1.2111    0.0991 O   0  0  0  0  0  0  0  0  0  0  0  0
   -2.5917   -1.3945   -0.7555 C   0  0  0  0  0  0  0  0  0  0  0  0
   -2.4765   -1.3561    0.7212 C   0  0  0  0  0  0  0  0  0  0  0  0
    2.1226   -0.2800    0.2960 C   0  0  0  0  0  0  0  0  0  0  0  0
    2.4698   -1.6075    0.2739 F   0  0  0  0  0  0  0  0  0  0  0  0
    2.5334    0.5190   -0.9239 C   0  0  0  0  0  0  0  0  0  0  0  0
    3.7946    0.7818   -0.2646 N   0  0  0  0  0  0  0  0  0  0  0  0
    3.1418    0.5672    1.0138 C   0  0  0  0  0  0  0  0  0  0  0  0
    0.0192   -1.1332   -1.0824 H   0  0  0  0  0  0  0  0  0  0  0  0
   -1.5708    1.6564    0.6630 H   0  0  0  0  0  0  0  0  0  0  0  0
   -1.8768    1.5074   -1.0847 H   0  0  0  0  0  0  0  0  0  0  0  0
   -3.7782    2.0355   -0.3735 H   0  0  0  0  0  0  0  0  0  0  0  0
   -2.0976   -2.2152   -1.2983 H   0  0  0  0  0  0  0  0  0  0  0  0
   -3.4846   -0.9646   -1.2544 H   0  0  0  0  0  0  0  0  0  0  0  0
   -3.3768   -0.9273    1.2487 H   0  0  0  0  0  0  0  0  0  0  0  0
   -1.9730   -2.1808    1.2616 H   0  0  0  0  0  0  0  0  0  0  0  0
    1.9566    1.4563   -1.0195 H   0  0  0  0  0  0  0  0  0  0  0  0
    2.5876   -0.1146   -1.8193 H   0  0  0  0  0  0  0  0  0  0  0  0
    4.5469    0.1031   -0.4878 H   0  0  0  0  0  0  0  0  0  0  0  0
    3.8349   -0.0207    1.6756 H   0  0  0  0  0  0  0  0  0  0  0  0
    2.7683    1.5016    1.4452 H   0  0  0  0  0  0  0  0  0  0  0  0
  1  2  2  0
  2  3  1  0
  3  4  1  0
  4  5  1  0
  5  6  1  0
  4  7  1  0
  7  8  1  0
  2  9  1  0
  9 10  1  0
  9 11  1  0
 11 12  1  0
 12 13  1  0
  8  4  1  0
 13  9  1  0
  3 14  1  0
  5 15  1  0
  5 16  1  0
  6 17  1  0
  7 18  1  0
  7 19  1  0
  8 20  1  0
  8 21  1  0
 11 22  1  0
 11 23  1  0
 12 24  1  0
 13 25  1  0
 13 26  1  0
M  END
$$$$

     RDKit          3D

 26 27  0  0  0  0  0  0  0  0999 V2000
    0.4699   -1.0712   -1.1182 O   0  0  0  0  0  0  0  0  0  0  0  0
    0.7661   -0.4513   -0.0773 C   0  0  0  0  0  0  0  0  0  0  0  0
   -0.2826    0.1780    0.6334 N   0  0  0  0  0  0  0  0  0  0  0  0
   -1.6270    0.0692    0.1232 C   0  0  0  0  0  0  0  0  0  0  0  0
   -2.1985   -1.3249    0.0117 C   0  0  0  0  0  0  0  0  0  0  0  0
   -3.4924   -1.1945   -0.4953 O   0  0  0  0  0  0  0  0  0  0  0  0
   -1.8724    1.0136   -1.0671 C   0  0  0  0  0  0  0  0  0  0  0  0
   -2.5800    1.2015    0.2479 C   0  0  0  0  0  0  0  0  0  0  0  0
    2.1791   -0.4037    0.3594 C   0  0  0  0  0  0  0  0  0  0  0  0
    2.4497   -0.9410    1.5835 F   0  0  0  0  0  0  0  0  0  0  0  0
    3.1007   -0.8019   -0.7713 C   0  0  0  0  0  0  0  0  0  0  0  0
    3.0094    0.5645   -1.2486 N   0  0  0  0  0  0  0  0  0  0  0  0
    2.8156    0.9729    0.1270 C   0  0  0  0  0  0  0  0  0  0  0  0
   -0.1081    0.7125    1.5074 H   0  0  0  0  0  0  0  0  0  0  0  0
   -2.2815   -1.7072    1.0586 H   0  0  0  0  0  0  0  0  0  0  0  0
   -1.6025   -1.9734   -0.6317 H   0  0  0  0  0  0  0  0  0  0  0  0
   -4.0960   -1.0635    0.2713 H   0  0  0  0  0  0  0  0  0  0  0  0
   -1.1108    1.7856   -1.2977 H   0  0  0  0  0  0  0  0  0  0  0  0
   -2.4120    0.5374   -1.9081 H   0  0  0  0  0  0  0  0  0  0  0  0
   -2.3576    2.0830    0.8669 H   0  0  0  0  0  0  0  0  0  0  0  0
   -3.6528    0.9228    0.2120 H   0  0  0  0  0  0  0  0  0  0  0  0
    2.6526   -1.5609   -1.4511 H   0  0  0  0  0  0  0  0  0  0  0  0
    4.1256   -1.0596   -0.4123 H   0  0  0  0  0  0  0  0  0  0  0  0
    2.1641    0.6830   -1.8669 H   0  0  0  0  0  0  0  0  0  0  0  0
    3.7876    1.0070    0.6433 H   0  0  0  0  0  0  0  0  0  0  0  0
    2.1537    1.8221    0.2999 H   0  0  0  0  0  0  0  0  0  0  0  0
  1  2  2  0
  2  3  1  0
  3  4  1  0
  4  5  1  0
  5  6  1  0
  4  7  1  0
  7  8  1  0
  2  9  1  0
  9 10  1  0
  9 11  1  0
 11 12  1  0
 12 13  1  0
  8  4  1  0
 13  9  1  0
  3 14  1  0
  5 15  1  0
  5 16  1  0
  6 17  1  0
  7 18  1  0
  7 19  1  0
  8 20  1  0
  8 21  1  0
 11 22  1  0
 11 23  1  0
 12 24  1  0
 13 25  1  0
 13 26  1  0
M  END
$$$$

     RDKit          3D

 26 27  0  0  0  0  0  0  0  0999 V2000
    0.4215    1.5364    0.7921 O   0  0  0  0  0  0  0  0  0  0  0  0
    0.6867    0.5206    0.1139 C   0  0  0  0  0  0  0  0  0  0  0  0
   -0.3885   -0.3537   -0.2389 N   0  0  0  0  0  0  0  0  0  0  0  0
   -1.7443   -0.1364    0.1364 C   0  0  0  0  0  0  0  0  0  0  0  0
   -2.3605    1.1667   -0.3707 C   0  0  0  0  0  0  0  0  0  0  0  0
   -2.3582    1.2470   -1.7437 O   0  0  0  0  0  0  0  0  0  0  0  0
   -2.3233   -0.7109    1.3760 C   0  0  0  0  0  0  0  0  0  0  0  0
   -2.6558   -1.3693    0.1021 C   0  0  0  0  0  0  0  0  0  0  0  0
    2.0362    0.1917   -0.3296 C   0  0  0  0  0  0  0  0  0  0  0  0
    2.2036    0.1111   -1.7003 F   0  0  0  0  0  0  0  0  0  0  0  0
    3.1596    0.9820    0.2848 C   0  0  0  0  0  0  0  0  0  0  0  0
    3.9705   -0.2444    0.1843 N   0  0  0  0  0  0  0  0  0  0  0  0
    2.7023   -0.9704    0.3680 C   0  0  0  0  0  0  0  0  0  0  0  0
   -0.1617   -1.2131   -0.8137 H   0  0  0  0  0  0  0  0  0  0  0  0
   -1.7871    2.0255    0.0345 H   0  0  0  0  0  0  0  0  0  0  0  0
   -3.3950    1.2814   -0.0010 H   0  0  0  0  0  0  0  0  0  0  0  0
   -3.2695    1.2318   -2.1469 H   0  0  0  0  0  0  0  0  0  0  0  0
   -1.7351   -1.2715    2.1050 H   0  0  0  0  0  0  0  0  0  0  0  0
   -3.1617   -0.1324    1.8440 H   0  0  0  0  0  0  0  0  0  0  0  0
   -3.6439   -1.2532   -0.3929 H   0  0  0  0  0  0  0  0  0  0  0  0
   -2.1802   -2.3509   -0.1300 H   0  0  0  0  0  0  0  0  0  0  0  0
    3.5475    1.8166   -0.3308 H   0  0  0  0  0  0  0  0  0  0  0  0
    3.0496    1.2197    1.3594 H   0  0  0  0  0  0  0  0  0  0  0  0
    4.2402   -0.3363   -0.8382 H   0  0  0  0  0  0  0  0  0  0  0  0
    2.6753   -1.9306   -0.2120 H   0  0  0  0  0  0  0  0  0  0  0  0
    2.4719   -1.0575    1.4283 H   0  0  0  0  0  0  0  0  0  0  0  0
  1  2  2  0
  2  3  1  0
  3  4  1  0
  4  5  1  0
  5  6  1  0
  4  7  1  0
  7  8  1  0
  2  9  1  0
  9 10  1  0
  9 11  1  0
 11 12  1  0
 12 13  1  0
  8  4  1  0
 13  9  1  0
  3 14  1  0
  5 15  1  0
  5 16  1  0
  6 17  1  0
  7 18  1  0
  7 19  1  0
  8 20  1  0
  8 21  1  0
 11 22  1  0
 11 23  1  0
 12 24  1  0
 13 25  1  0
 13 26  1  0
M  END
$$$$

     RDKit          3D

 26 27  0  0  0  0  0  0  0  0999 V2000
   -0.4786   -0.6051   -1.5991 O   0  0  0  0  0  0  0  0  0  0  0  0
   -0.7527   -0.4858   -0.3829 C   0  0  0  0  0  0  0  0  0  0  0  0
    0.3169   -0.2436    0.5199 N   0  0  0  0  0  0  0  0  0  0  0  0
    1.6677   -0.1370    0.0619 C   0  0  0  0  0  0  0  0  0  0  0  0
    1.9510    0.9804   -0.9287 C   0  0  0  0  0  0  0  0  0  0  0  0
    3.3118    0.9722   -1.2937 O   0  0  0  0  0  0  0  0  0  0  0  0
    2.7282   -0.3719    1.1050 C   0  0  0  0  0  0  0  0  0  0  0  0
    2.5619   -1.3177   -0.0127 C   0  0  0  0  0  0  0  0  0  0  0  0
   -2.1151   -0.5842    0.1440 C   0  0  0  0  0  0  0  0  0  0  0  0
   -2.2801   -1.5978    1.0603 F   0  0  0  0  0  0  0  0  0  0  0  0
   -3.2214   -0.4625   -0.8776 C   0  0  0  0  0  0  0  0  0  0  0  0
   -3.0631    0.9810   -0.7858 N   0  0  0  0  0  0  0  0  0  0  0  0
   -2.6159    0.7709    0.6000 C   0  0  0  0  0  0  0  0  0  0  0  0
    0.1294   -0.1356    1.5606 H   0  0  0  0  0  0  0  0  0  0  0  0
    1.6760    1.9794   -0.5207 H   0  0  0  0  0  0  0  0  0  0  0  0
    1.3461    0.8142   -1.8329 H   0  0  0  0  0  0  0  0  0  0  0  0
    3.8106    1.6033   -0.7042 H   0  0  0  0  0  0  0  0  0  0  0  0
    3.5961    0.3054    1.1832 H   0  0  0  0  0  0  0  0  0  0  0  0
    2.4172   -0.7642    2.1165 H   0  0  0  0  0  0  0  0  0  0  0  0
    3.3035   -1.3702   -0.8472 H   0  0  0  0  0  0  0  0  0  0  0  0
    2.0889   -2.3141    0.1872 H   0  0  0  0  0  0  0  0  0  0  0  0
   -2.9943   -0.8929   -1.8772 H   0  0  0  0  0  0  0  0  0  0  0  0
   -4.1887   -0.7782   -0.4611 H   0  0  0  0  0  0  0  0  0  0  0  0
   -3.9574    1.5256   -0.8007 H   0  0  0  0  0  0  0  0  0  0  0  0
   -3.4382    0.6670    1.3096 H   0  0  0  0  0  0  0  0  0  0  0  0
   -1.8000    1.4611    0.9054 H   0  0  0  0  0  0  0  0  0  0  0  0
  1  2  2  0
  2  3  1  0
  3  4  1  0
  4  5  1  0
  5  6  1  0
  4  7  1  0
  7  8  1  0
  2  9  1  0
  9 10  1  0
  9 11  1  0
 11 12  1  0
 12 13  1  0
  8  4  1  0
 13  9  1  0
  3 14  1  0
  5 15  1  0
  5 16  1  0
  6 17  1  0
  7 18  1  0
  7 19  1  0
  8 20  1  0
  8 21  1  0
 11 22  1  0
 11 23  1  0
 12 24  1  0
 13 25  1  0
 13 26  1  0
M  END
$$$$

     RDKit          3D

 26 27  0  0  0  0  0  0  0  0999 V2000
    0.3900   -1.7791   -0.0935 O   0  0  0  0  0  0  0  0  0  0  0  0
    0.6858   -0.5721   -0.2164 C   0  0  0  0  0  0  0  0  0  0  0  0
   -0.3886    0.3652   -0.2840 N   0  0  0  0  0  0  0  0  0  0  0  0
   -1.7591    0.0064   -0.2205 C   0  0  0  0  0  0  0  0  0  0  0  0
   -2.7390    1.1771   -0.3079 C   0  0  0  0  0  0  0  0  0  0  0  0
   -2.4233    1.9966    0.7924 O   0  0  0  0  0  0  0  0  0  0  0  0
   -2.2876   -1.3317   -0.5100 C   0  0  0  0  0  0  0  0  0  0  0  0
   -2.0904   -0.9755    0.9356 C   0  0  0  0  0  0  0  0  0  0  0  0
    2.0619   -0.0257   -0.2986 C   0  0  0  0  0  0  0  0  0  0  0  0
    2.2344    0.6387   -1.4933 F   0  0  0  0  0  0  0  0  0  0  0  0
    3.1584   -0.9960    0.0512 C   0  0  0  0  0  0  0  0  0  0  0  0
    3.2600   -0.3309    1.3557 N   0  0  0  0  0  0  0  0  0  0  0  0
    2.3987    0.7763    0.9381 C   0  0  0  0  0  0  0  0  0  0  0  0
   -0.1627    1.4019   -0.3887 H   0  0  0  0  0  0  0  0  0  0  0  0
   -3.7831    0.8344   -0.2675 H   0  0  0  0  0  0  0  0  0  0  0  0
   -2.4992    1.7589   -1.2218 H   0  0  0  0  0  0  0  0  0  0  0  0
   -2.3384    2.9416    0.5276 H   0  0  0  0  0  0  0  0  0  0  0  0
   -3.3828   -1.3647   -0.7901 H   0  0  0  0  0  0  0  0  0  0  0  0
   -1.7327   -2.1591   -0.9455 H   0  0  0  0  0  0  0  0  0  0  0  0
   -2.9635   -0.7232    1.5724 H   0  0  0  0  0  0  0  0  0  0  0  0
   -1.2534   -1.3845    1.5122 H   0  0  0  0  0  0  0  0  0  0  0  0
    4.0383   -0.8492   -0.6016 H   0  0  0  0  0  0  0  0  0  0  0  0
    2.8522   -2.0568    0.1333 H   0  0  0  0  0  0  0  0  0  0  0  0
    4.2269   -0.0316    1.5454 H   0  0  0  0  0  0  0  0  0  0  0  0
    2.9488    1.7046    0.6972 H   0  0  0  0  0  0  0  0  0  0  0  0
    1.5482    0.9783    1.6191 H   0  0  0  0  0  0  0  0  0  0  0  0
  1  2  2  0
  2  3  1  0
  3  4  1  0
  4  5  1  0
  5  6  1  0
  4  7  1  0
  7  8  1  0
  2  9  1  0
  9 10  1  0
  9 11  1  0
 11 12  1  0
 12 13  1  0
  8  4  1  0
 13  9  1  0
  3 14  1  0
  5 15  1  0
  5 16  1  0
  6 17  1  0
  7 18  1  0
  7 19  1  0
  8 20  1  0
  8 21  1  0
 11 22  1  0
 11 23  1  0
 12 24  1  0
 13 25  1  0
 13 26  1  0
M  END
$$$$
