
     RDKit          3D

 26 26  0  0  0  0  0  0  0  0999 V2000
    4.6390   -1.7111   -0.0897 N   0  0  0  0  0  0  0  0  0  0  0  0
    3.4822   -1.0162   -0.4780 C   0  0  0  0  0  0  0  0  0  0  0  0
    3.5599   -0.0751   -1.3214 O   0  0  0  0  0  0  0  0  0  0  0  0
    2.1795   -1.3117    0.0336 N   0  0  0  0  0  0  0  0  0  0  0  0
    1.0351   -0.6012   -0.3709 C   0  0  0  0  0  0  0  0  0  0  0  0
    1.1312    0.3385   -1.2165 O   0  0  0  0  0  0  0  0  0  0  0  0
   -0.3297   -0.8792    0.1372 C   0  0  0  0  0  0  0  0  0  0  0  0
   -1.3743    0.0025   -0.4373 C   0  0  1  0  0  0  0  0  0  0  0  0
   -2.7092   -0.3866    0.1628 C   0  0  0  0  0  0  0  0  0  0  0  0
   -3.1818    0.6934    0.8662 O   0  0  0  0  0  0  0  0  0  0  0  0
   -2.6739    1.8271    0.2587 C   0  0  0  0  0  0  0  0  0  0  0  0
   -1.2295    1.4499   -0.0936 C   0  0  1  0  0  0  0  0  0  0  0  0
   -0.4020    1.6886    1.0587 N   0  0  0  0  0  0  0  0  0  0  0  0
    4.6557   -2.2707    0.7889 H   0  0  0  0  0  0  0  0  0  0  0  0
    5.4904   -1.6657   -0.6886 H   0  0  0  0  0  0  0  0  0  0  0  0
    2.0586   -2.0778    0.7313 H   0  0  0  0  0  0  0  0  0  0  0  0
   -0.5651   -1.9269   -0.1471 H   0  0  0  0  0  0  0  0  0  0  0  0
   -0.2728   -0.8632    1.2387 H   0  0  0  0  0  0  0  0  0  0  0  0
   -1.4348   -0.1800   -1.5298 H   0  0  0  0  0  0  0  0  0  0  0  0
   -2.6007   -1.2325    0.8945 H   0  0  0  0  0  0  0  0  0  0  0  0
   -3.4278   -0.7343   -0.6288 H   0  0  0  0  0  0  0  0  0  0  0  0
   -2.7219    2.7040    0.9058 H   0  0  0  0  0  0  0  0  0  0  0  0
   -3.2269    1.9608   -0.7137 H   0  0  0  0  0  0  0  0  0  0  0  0
   -0.9499    2.0890   -0.9445 H   0  0  0  0  0  0  0  0  0  0  0  0
   -0.2193    2.7229    1.0966 H   0  0  0  0  0  0  0  0  0  0  0  0
   -0.9119    1.4555    1.9405 H   0  0  0  0  0  0  0  0  0  0  0  0
  1  2  1  0
  2  3  2  0
  2  4  1  0
  4  5  1  0
  5  6  2  0
  5  7  1  0
  7  8  1  0
  8  9  1  0
  9 10  1  0
 10 11  1  0
 11 12  1  0
 12 13  1  0
 12  8  1  0
  1 14  1  0
  1 15  1  0
  4 16  1  0
  7 17  1  0
  7 18  1  0
  8 19  1  6
  9 20  1  0
  9 21  1  0
 11 22  1  0
 11 23  1  0
 12 24  1  6
 13 25  1  0
 13 26  1  0
M  END
$$$$

     RDKit          3D

 26 26  0  0  0  0  0  0  0  0999 V2000
    5.0240    0.5456   -0.3844 N   0  0  0  0  0  0  0  0  0  0  0  0
    3.7958    0.1829    0.2369 C   0  0  0  0  0  0  0  0  0  0  0  0
    3.7384   -0.1369    1.4555 O   0  0  0  0  0  0  0  0  0  0  0  0
    2.5677    0.1705   -0.5181 N   0  0  0  0  0  0  0  0  0  0  0  0
    1.3266   -0.1896    0.0844 C   0  0  0  0  0  0  0  0  0  0  0  0
    1.3525   -0.4952    1.3015 O   0  0  0  0  0  0  0  0  0  0  0  0
    0.0629   -0.2028   -0.6904 C   0  0  0  0  0  0  0  0  0  0  0  0
   -1.0432   -0.6054    0.2145 C   0  0  1  0  0  0  0  0  0  0  0  0
   -1.2651    0.2903    1.3921 C   0  0  0  0  0  0  0  0  0  0  0  0
   -2.6139    0.4048    1.6388 O   0  0  0  0  0  0  0  0  0  0  0  0
   -3.2718   -0.5097    0.8215 C   0  0  0  0  0  0  0  0  0  0  0  0
   -2.4042   -0.5818   -0.4448 C   0  0  1  0  0  0  0  0  0  0  0  0
   -2.6572    0.6221   -1.1816 N   0  0  0  0  0  0  0  0  0  0  0  0
    5.6991   -0.1628   -0.7600 H   0  0  0  0  0  0  0  0  0  0  0  0
    5.2262    1.5739   -0.4503 H   0  0  0  0  0  0  0  0  0  0  0  0
    2.5796    0.4269   -1.5178 H   0  0  0  0  0  0  0  0  0  0  0  0
   -0.0554    0.8221   -1.1133 H   0  0  0  0  0  0  0  0  0  0  0  0
    0.1554   -0.9635   -1.4846 H   0  0  0  0  0  0  0  0  0  0  0  0
   -0.8638   -1.6581    0.5234 H   0  0  0  0  0  0  0  0  0  0  0  0
   -0.6894   -0.0153    2.3012 H   0  0  0  0  0  0  0  0  0  0  0  0
   -0.9001    1.3138    1.0909 H   0  0  0  0  0  0  0  0  0  0  0  0
   -3.1960   -1.4964    1.3259 H   0  0  0  0  0  0  0  0  0  0  0  0
   -4.3021   -0.2313    0.5908 H   0  0  0  0  0  0  0  0  0  0  0  0
   -2.6280   -1.5043   -1.0051 H   0  0  0  0  0  0  0  0  0  0  0  0
   -3.6287    1.0042   -0.9708 H   0  0  0  0  0  0  0  0  0  0  0  0
   -2.0095    1.3961   -0.9984 H   0  0  0  0  0  0  0  0  0  0  0  0
  1  2  1  0
  2  3  2  0
  2  4  1  0
  4  5  1  0
  5  6  2  0
  5  7  1  0
  7  8  1  0
  8  9  1  0
  9 10  1  0
 10 11  1  0
 11 12  1  0
 12 13  1  0
 12  8  1  0
  1 14  1  0
  1 15  1  0
  4 16  1  0
  7 17  1  0
  7 18  1  0
  8 19  1  1
  9 20  1  0
  9 21  1  0
 11 22  1  0
 11 23  1  0
 12 24  1  6
 13 25  1  0
 13 26  1  0
M  END
$$$$

     RDKit          3D

 26 26  0  0  0  0  0  0  0  0999 V2000
    4.9534    0.9945   -0.5217 N   0  0  0  0  0  0  0  0  0  0  0  0
    3.7166    0.7989    0.1571 C   0  0  0  0  0  0  0  0  0  0  0  0
    3.5886    1.0893    1.3780 O   0  0  0  0  0  0  0  0  0  0  0  0
    2.5978    0.2661   -0.5472 N   0  0  0  0  0  0  0  0  0  0  0  0
    1.3391    0.0487    0.0759 C   0  0  0  0  0  0  0  0  0  0  0  0
    1.2397    0.3454    1.2880 O   0  0  0  0  0  0  0  0  0  0  0  0
    0.1655   -0.5020   -0.6321 C   0  0  0  0  0  0  0  0  0  0  0  0
   -0.9864   -0.5896    0.2862 C   0  0  1  0  0  0  0  0  0  0  0  0
   -1.4304    0.7275    0.8771 C   0  0  0  0  0  0  0  0  0  0  0  0
   -2.8092    0.7159    0.9810 O   0  0  0  0  0  0  0  0  0  0  0  0
   -3.2379   -0.5789    0.7067 C   0  0  0  0  0  0  0  0  0  0  0  0
   -2.2859   -0.9771   -0.4081 C   0  0  1  0  0  0  0  0  0  0  0  0
   -2.5177   -0.0855   -1.5085 N   0  0  0  0  0  0  0  0  0  0  0  0
    5.4118    0.1539   -0.9333 H   0  0  0  0  0  0  0  0  0  0  0  0
    5.3762    1.9621   -0.5958 H   0  0  0  0  0  0  0  0  0  0  0  0
    2.7254    0.0362   -1.5440 H   0  0  0  0  0  0  0  0  0  0  0  0
   -0.0410    0.0205   -1.5861 H   0  0  0  0  0  0  0  0  0  0  0  0
    0.4491   -1.5532   -0.9200 H   0  0  0  0  0  0  0  0  0  0  0  0
   -0.8109   -1.3398    1.0856 H   0  0  0  0  0  0  0  0  0  0  0  0
   -0.9318    0.9363    1.8464 H   0  0  0  0  0  0  0  0  0  0  0  0
   -1.1778    1.5120    0.1064 H   0  0  0  0  0  0  0  0  0  0  0  0
   -2.9971   -1.1952    1.6046 H   0  0  0  0  0  0  0  0  0  0  0  0
   -4.2737   -0.6376    0.3873 H   0  0  0  0  0  0  0  0  0  0  0  0
   -2.3309   -2.0385   -0.6568 H   0  0  0  0  0  0  0  0  0  0  0  0
   -3.4713    0.3359   -1.4959 H   0  0  0  0  0  0  0  0  0  0  0  0
   -2.2612   -0.4456   -2.4301 H   0  0  0  0  0  0  0  0  0  0  0  0
  1  2  1  0
  2  3  2  0
  2  4  1  0
  4  5  1  0
  5  6  2  0
  5  7  1  0
  7  8  1  0
  8  9  1  0
  9 10  1  0
 10 11  1  0
 11 12  1  0
 12 13  1  0
 12  8  1  0
  1 14  1  0
  1 15  1  0
  4 16  1  0
  7 17  1  0
  7 18  1  0
  8 19  1  1
  9 20  1  0
  9 21  1  0
 11 22  1  0
 11 23  1  0
 12 24  1  6
 13 25  1  0
 13 26  1  0
M  END
$$$$

     RDKit          3D

 26 26  0  0  0  0  0  0  0  0999 V2000
    4.8944    0.1353    0.8116 N   0  0  0  0  0  0  0  0  0  0  0  0
    3.7004   -0.3003    0.1671 C   0  0  0  0  0  0  0  0  0  0  0  0
    3.7203   -1.2360   -0.6762 O   0  0  0  0  0  0  0  0  0  0  0  0
    2.4499    0.3200    0.4670 N   0  0  0  0  0  0  0  0  0  0  0  0
    1.2657   -0.1162   -0.1761 C   0  0  0  0  0  0  0  0  0  0  0  0
    1.3669   -1.0553   -1.0056 O   0  0  0  0  0  0  0  0  0  0  0  0
   -0.0533    0.4577    0.0676 C   0  0  0  0  0  0  0  0  0  0  0  0
   -1.1952   -0.1374   -0.6594 C   0  0  1  0  0  0  0  0  0  0  0  0
   -1.3868   -1.5998   -0.3360 C   0  0  0  0  0  0  0  0  0  0  0  0
   -1.6855   -1.5479    1.0211 O   0  0  0  0  0  0  0  0  0  0  0  0
   -2.4734   -0.4511    1.2459 C   0  0  0  0  0  0  0  0  0  0  0  0
   -2.4757    0.4074   -0.0006 C   0  0  1  0  0  0  0  0  0  0  0  0
   -2.3398    1.8096    0.2880 N   0  0  0  0  0  0  0  0  0  0  0  0
    5.2102    1.1107    0.7845 H   0  0  0  0  0  0  0  0  0  0  0  0
    5.4674   -0.5622    1.3292 H   0  0  0  0  0  0  0  0  0  0  0  0
    2.3747    1.0985    1.1564 H   0  0  0  0  0  0  0  0  0  0  0  0
   -0.0413    1.5693   -0.1220 H   0  0  0  0  0  0  0  0  0  0  0  0
   -0.2599    0.3361    1.1722 H   0  0  0  0  0  0  0  0  0  0  0  0
   -1.2101    0.0626   -1.7465 H   0  0  0  0  0  0  0  0  0  0  0  0
   -2.3123   -1.9424   -0.8769 H   0  0  0  0  0  0  0  0  0  0  0  0
   -0.5548   -2.2509   -0.5709 H   0  0  0  0  0  0  0  0  0  0  0  0
   -2.0512    0.1182    2.1156 H   0  0  0  0  0  0  0  0  0  0  0  0
   -3.4934   -0.8127    1.4892 H   0  0  0  0  0  0  0  0  0  0  0  0
   -3.3637    0.1758   -0.6334 H   0  0  0  0  0  0  0  0  0  0  0  0
   -2.6075    2.3607   -0.5440 H   0  0  0  0  0  0  0  0  0  0  0  0
   -2.9460    2.0504    1.1164 H   0  0  0  0  0  0  0  0  0  0  0  0
  1  2  1  0
  2  3  2  0
  2  4  1  0
  4  5  1  0
  5  6  2  0
  5  7  1  0
  7  8  1  0
  8  9  1  0
  9 10  1  0
 10 11  1  0
 11 12  1  0
 12 13  1  0
 12  8  1  0
  1 14  1  0
  1 15  1  0
  4 16  1  0
  7 17  1  0
  7 18  1  0
  8 19  1  6
  9 20  1  0
  9 21  1  0
 11 22  1  0
 11 23  1  0
 12 24  1  6
 13 25  1  0
 13 26  1  0
M  END
$$$$

     RDKit          3D

 26 26  0  0  0  0  0  0  0  0999 V2000
    4.8188   -1.6504   -0.0771 N   0  0  0  0  0  0  0  0  0  0  0  0
    3.7398   -0.7356    0.0728 C   0  0  0  0  0  0  0  0  0  0  0  0
    3.9628    0.5103    0.1538 O   0  0  0  0  0  0  0  0  0  0  0  0
    2.3914   -1.1602    0.1378 N   0  0  0  0  0  0  0  0  0  0  0  0
    1.3149   -0.2382    0.2882 C   0  0  0  0  0  0  0  0  0  0  0  0
    1.6351    0.9792    0.3598 O   0  0  0  0  0  0  0  0  0  0  0  0
   -0.0972   -0.6453    0.3593 C   0  0  0  0  0  0  0  0  0  0  0  0
   -0.9938    0.5261    0.5138 C   0  0  1  0  0  0  0  0  0  0  0  0
   -0.9262    1.5284   -0.5924 C   0  0  0  0  0  0  0  0  0  0  0  0
   -2.1534    2.1315   -0.7161 O   0  0  0  0  0  0  0  0  0  0  0  0
   -3.0483    1.5151    0.1243 C   0  0  0  0  0  0  0  0  0  0  0  0
   -2.4539    0.1337    0.4344 C   0  0  1  0  0  0  0  0  0  0  0  0
   -2.7389   -0.6904   -0.7160 N   0  0  0  0  0  0  0  0  0  0  0  0
    4.5933   -2.6522   -0.1799 H   0  0  0  0  0  0  0  0  0  0  0  0
    5.7884   -1.3031   -0.0803 H   0  0  0  0  0  0  0  0  0  0  0  0
    2.1553   -2.1669    0.0765 H   0  0  0  0  0  0  0  0  0  0  0  0
   -0.2125   -1.2918    1.2499 H   0  0  0  0  0  0  0  0  0  0  0  0
   -0.3413   -1.1829   -0.5677 H   0  0  0  0  0  0  0  0  0  0  0  0
   -0.8642    1.0437    1.4892 H   0  0  0  0  0  0  0  0  0  0  0  0
   -0.6826    1.0055   -1.5420 H   0  0  0  0  0  0  0  0  0  0  0  0
   -0.1349    2.3038   -0.3910 H   0  0  0  0  0  0  0  0  0  0  0  0
   -3.1242    2.0437    1.1099 H   0  0  0  0  0  0  0  0  0  0  0  0
   -4.0397    1.4252   -0.3496 H   0  0  0  0  0  0  0  0  0  0  0  0
   -2.8099   -0.2753    1.3722 H   0  0  0  0  0  0  0  0  0  0  0  0
   -3.7281   -0.5952   -1.0423 H   0  0  0  0  0  0  0  0  0  0  0  0
   -2.0507   -0.5588   -1.4875 H   0  0  0  0  0  0  0  0  0  0  0  0
  1  2  1  0
  2  3  2  0
  2  4  1  0
  4  5  1  0
  5  6  2  0
  5  7  1  0
  7  8  1  0
  8  9  1  0
  9 10  1  0
 10 11  1  0
 11 12  1  0
 12 13  1  0
 12  8  1  0
  1 14  1  0
  1 15  1  0
  4 16  1  0
  7 17  1  0
  7 18  1  0
  8 19  1  1
  9 20  1  0
  9 21  1  0
 11 22  1  0
 11 23  1  0
 12 24  1  1
 13 25  1  0
 13 26  1  0
M  END
$$$$

     RDKit          3D

 26 26  0  0  0  0  0  0  0  0999 V2000
    4.9287    0.1077   -0.5078 N   0  0  0  0  0  0  0  0  0  0  0  0
    3.6248    0.5896   -0.2291 C   0  0  0  0  0  0  0  0  0  0  0  0
    3.4231    1.6597    0.4197 O   0  0  0  0  0  0  0  0  0  0  0  0
    2.4406   -0.0998   -0.6617 N   0  0  0  0  0  0  0  0  0  0  0  0
    1.1473    0.3980   -0.3732 C   0  0  0  0  0  0  0  0  0  0  0  0
    1.0509    1.4687    0.2771 O   0  0  0  0  0  0  0  0  0  0  0  0
   -0.0713   -0.2986   -0.8105 C   0  0  0  0  0  0  0  0  0  0  0  0
   -1.3332    0.3822   -0.4105 C   0  0  1  0  0  0  0  0  0  0  0  0
   -2.4935   -0.4701   -0.9420 C   0  0  0  0  0  0  0  0  0  0  0  0
   -3.5413   -0.0212   -0.1768 O   0  0  0  0  0  0  0  0  0  0  0  0
   -3.1052    0.1641    1.1108 C   0  0  0  0  0  0  0  0  0  0  0  0
   -1.6000    0.3648    1.0586 C   0  0  1  0  0  0  0  0  0  0  0  0
   -0.9116   -0.7270    1.7223 N   0  0  0  0  0  0  0  0  0  0  0  0
    5.4027    0.1914   -1.4284 H   0  0  0  0  0  0  0  0  0  0  0  0
    5.4497   -0.3621    0.2587 H   0  0  0  0  0  0  0  0  0  0  0  0
    2.5291   -0.9742   -1.1926 H   0  0  0  0  0  0  0  0  0  0  0  0
   -0.0525   -1.3447   -0.4014 H   0  0  0  0  0  0  0  0  0  0  0  0
   -0.0450   -0.4223   -1.9127 H   0  0  0  0  0  0  0  0  0  0  0  0
   -1.3813    1.3885   -0.8589 H   0  0  0  0  0  0  0  0  0  0  0  0
   -2.3104   -1.5350   -0.6737 H   0  0  0  0  0  0  0  0  0  0  0  0
   -2.6428   -0.2989   -2.0065 H   0  0  0  0  0  0  0  0  0  0  0  0
   -3.6237    1.0807    1.5178 H   0  0  0  0  0  0  0  0  0  0  0  0
   -3.3426   -0.7227    1.7333 H   0  0  0  0  0  0  0  0  0  0  0  0
   -1.3846    1.3448    1.5272 H   0  0  0  0  0  0  0  0  0  0  0  0
   -0.5477   -0.3866    2.6333 H   0  0  0  0  0  0  0  0  0  0  0  0
   -1.6101   -1.4772    1.9061 H   0  0  0  0  0  0  0  0  0  0  0  0
  1  2  1  0
  2  3  2  0
  2  4  1  0
  4  5  1  0
  5  6  2  0
  5  7  1  0
  7  8  1  0
  8  9  1  0
  9 10  1  0
 10 11  1  0
 11 12  1  0
 12 13  1  0
 12  8  1  0
  1 14  1  0
  1 15  1  0
  4 16  1  0
  7 17  1  0
  7 18  1  0
  8 19  1  6
  9 20  1  0
  9 21  1  0
 11 22  1  0
 11 23  1  0
 12 24  1  1
 13 25  1  0
 13 26  1  0
M  END
$$$$

     RDKit          3D

 26 26  0  0  0  0  0  0  0  0999 V2000
    4.9373    0.3352    0.5883 N   0  0  0  0  0  0  0  0  0  0  0  0
    3.6603    0.3754   -0.0241 C   0  0  0  0  0  0  0  0  0  0  0  0
    3.4946    1.0156   -1.1128 O   0  0  0  0  0  0  0  0  0  0  0  0
    2.5110   -0.2664    0.5024 N   0  0  0  0  0  0  0  0  0  0  0  0
    1.2321   -0.2075   -0.1404 C   0  0  0  0  0  0  0  0  0  0  0  0
    1.1760    0.4512   -1.2115 O   0  0  0  0  0  0  0  0  0  0  0  0
    0.0460   -0.8927    0.4392 C   0  0  0  0  0  0  0  0  0  0  0  0
   -1.1198   -0.6336   -0.4695 C   0  0  1  0  0  0  0  0  0  0  0  0
   -2.3997   -1.2734   -0.0027 C   0  0  0  0  0  0  0  0  0  0  0  0
   -3.4446   -0.4453   -0.3318 O   0  0  0  0  0  0  0  0  0  0  0  0
   -2.9633    0.6434   -1.0125 C   0  0  0  0  0  0  0  0  0  0  0  0
   -1.5309    0.8239   -0.4865 C   0  0  1  0  0  0  0  0  0  0  0  0
   -1.6687    1.3589    0.8540 N   0  0  0  0  0  0  0  0  0  0  0  0
    5.4195   -0.5447    0.8315 H   0  0  0  0  0  0  0  0  0  0  0  0
    5.4089    1.2346    0.8020 H   0  0  0  0  0  0  0  0  0  0  0  0
    2.5789   -0.7988    1.3778 H   0  0  0  0  0  0  0  0  0  0  0  0
    0.2195   -1.9882    0.4461 H   0  0  0  0  0  0  0  0  0  0  0  0
   -0.1402   -0.5932    1.4843 H   0  0  0  0  0  0  0  0  0  0  0  0
   -0.8779   -0.9584   -1.4790 H   0  0  0  0  0  0  0  0  0  0  0  0
   -2.4028   -1.4916    1.0841 H   0  0  0  0  0  0  0  0  0  0  0  0
   -2.5514   -2.2436   -0.5364 H   0  0  0  0  0  0  0  0  0  0  0  0
   -3.5419    1.5719   -0.8435 H   0  0  0  0  0  0  0  0  0  0  0  0
   -2.8529    0.4167   -2.0951 H   0  0  0  0  0  0  0  0  0  0  0  0
   -0.9347    1.4493   -1.1434 H   0  0  0  0  0  0  0  0  0  0  0  0
   -2.4767    2.0426    0.9151 H   0  0  0  0  0  0  0  0  0  0  0  0
   -1.7787    0.6188    1.5765 H   0  0  0  0  0  0  0  0  0  0  0  0
  1  2  1  0
  2  3  2  0
  2  4  1  0
  4  5  1  0
  5  6  2  0
  5  7  1  0
  7  8  1  0
  8  9  1  0
  9 10  1  0
 10 11  1  0
 11 12  1  0
 12 13  1  0
 12  8  1  0
  1 14  1  0
  1 15  1  0
  4 16  1  0
  7 17  1  0
  7 18  1  0
  8 19  1  6
  9 20  1  0
  9 21  1  0
 11 22  1  0
 11 23  1  0
 12 24  1  6
 13 25  1  0
 13 26  1  0
M  END
$$$$

     RDKit          3D

 26 26  0  0  0  0  0  0  0  0999 V2000
    4.8831   -0.1901   -0.3164 N   0  0  0  0  0  0  0  0  0  0  0  0
    3.6111   -0.1251    0.3074 C   0  0  0  0  0  0  0  0  0  0  0  0
    3.4963   -0.4490    1.5177 O   0  0  0  0  0  0  0  0  0  0  0  0
    2.4298    0.3025   -0.3985 N   0  0  0  0  0  0  0  0  0  0  0  0
    1.1613    0.3677    0.2225 C   0  0  0  0  0  0  0  0  0  0  0  0
    1.0909    0.0366    1.4284 O   0  0  0  0  0  0  0  0  0  0  0  0
   -0.0429    0.7961   -0.4709 C   0  0  0  0  0  0  0  0  0  0  0  0
   -1.2859    0.8005    0.3457 C   0  0  1  0  0  0  0  0  0  0  0  0
   -2.4105    1.2788   -0.5758 C   0  0  0  0  0  0  0  0  0  0  0  0
   -2.7459    0.0926   -1.2271 O   0  0  0  0  0  0  0  0  0  0  0  0
   -3.0277   -0.7525   -0.1540 C   0  0  0  0  0  0  0  0  0  0  0  0
   -1.7816   -0.5722    0.7141 C   0  0  1  0  0  0  0  0  0  0  0  0
   -0.8213   -1.6122    0.4987 N   0  0  0  0  0  0  0  0  0  0  0  0
    4.9676   -0.3294   -1.3377 H   0  0  0  0  0  0  0  0  0  0  0  0
    5.7311   -0.0945    0.2752 H   0  0  0  0  0  0  0  0  0  0  0  0
    2.5603    0.5641   -1.4016 H   0  0  0  0  0  0  0  0  0  0  0  0
   -0.2298    0.1299   -1.3585 H   0  0  0  0  0  0  0  0  0  0  0  0
    0.0820    1.8239   -0.9007 H   0  0  0  0  0  0  0  0  0  0  0  0
   -1.2715    1.4941    1.1947 H   0  0  0  0  0  0  0  0  0  0  0  0
   -2.0054    2.0020   -1.2996 H   0  0  0  0  0  0  0  0  0  0  0  0
   -3.2738    1.6564   -0.0021 H   0  0  0  0  0  0  0  0  0  0  0  0
   -3.9426   -0.4458    0.3709 H   0  0  0  0  0  0  0  0  0  0  0  0
   -3.1215   -1.8088   -0.4530 H   0  0  0  0  0  0  0  0  0  0  0  0
   -2.1368   -0.5523    1.7671 H   0  0  0  0  0  0  0  0  0  0  0  0
   -0.6469   -2.0957    1.4140 H   0  0  0  0  0  0  0  0  0  0  0  0
   -1.2693   -2.3175   -0.1604 H   0  0  0  0  0  0  0  0  0  0  0  0
  1  2  1  0
  2  3  2  0
  2  4  1  0
  4  5  1  0
  5  6  2  0
  5  7  1  0
  7  8  1  0
  8  9  1  0
  9 10  1  0
 10 11  1  0
 11 12  1  0
 12 13  1  0
 12  8  1  0
  1 14  1  0
  1 15  1  0
  4 16  1  0
  7 17  1  0
  7 18  1  0
  8 19  1  1
  9 20  1  0
  9 21  1  0
 11 22  1  0
 11 23  1  0
 12 24  1  1
 13 25  1  0
 13 26  1  0
M  END
$$$$
