
     RDKit          3D

 26 26  0  0  0  0  0  0  0  0999 V2000
   -2.4829    0.2473   -1.1444 C   0  0  0  0  0  0  0  0  0  0  0  0
   -1.7844    0.4720    0.1612 C   0  0  0  0  0  0  0  0  0  0  0  0
   -0.3800    0.1544    0.0388 N   0  0  0  0  0  0  0  0  0  0  0  0
   -0.1414   -1.2268   -0.2825 C   0  0  0  0  0  0  0  0  0  0  0  0
    1.3254   -1.4324   -0.3491 C   0  0  0  0  0  0  0  0  0  0  0  0
    1.7699   -2.5997   -0.6310 O   0  0  0  0  0  0  0  0  0  0  0  0
    2.2832   -0.4181   -0.1200 N   0  0  0  0  0  0  0  0  0  0  0  0
    3.6990   -0.6831   -0.2021 C   0  0  0  0  0  0  0  0  0  0  0  0
    4.6145    0.3714    0.0371 N   0  0  0  0  0  0  0  0  0  0  0  0
    4.0583   -1.8487   -0.4849 O   0  0  0  0  0  0  0  0  0  0  0  0
   -1.9367    1.8582    0.7561 C   0  0  0  0  0  0  0  0  0  0  0  0
   -2.8978    1.3213    1.6095 O   0  0  0  0  0  0  0  0  0  0  0  0
   -2.4754   -0.0088    1.3815 C   0  0  0  0  0  0  0  0  0  0  0  0
   -1.7927    0.5694   -1.9620 H   0  0  0  0  0  0  0  0  0  0  0  0
   -3.4483    0.8277   -1.1842 H   0  0  0  0  0  0  0  0  0  0  0  0
   -2.6915   -0.8311   -1.2839 H   0  0  0  0  0  0  0  0  0  0  0  0
    0.1074    0.8054   -0.6242 H   0  0  0  0  0  0  0  0  0  0  0  0
   -0.5073   -1.8854    0.5412 H   0  0  0  0  0  0  0  0  0  0  0  0
   -0.6055   -1.5616   -1.2245 H   0  0  0  0  0  0  0  0  0  0  0  0
    1.9524    0.5435    0.1134 H   0  0  0  0  0  0  0  0  0  0  0  0
    5.5707    0.3503   -0.3768 H   0  0  0  0  0  0  0  0  0  0  0  0
    4.3735    1.1975    0.6269 H   0  0  0  0  0  0  0  0  0  0  0  0
   -1.0416    2.2321    1.2879 H   0  0  0  0  0  0  0  0  0  0  0  0
   -2.3219    2.5936    0.0227 H   0  0  0  0  0  0  0  0  0  0  0  0
   -1.8781   -0.4139    2.2012 H   0  0  0  0  0  0  0  0  0  0  0  0
   -3.3689   -0.6344    1.0918 H   0  0  0  0  0  0  0  0  0  0  0  0
  1  2  1  0
  2  3  1  0
  3  4  1  0
  4  5  1  0
  5  6  2  0
  5  7  1  0
  7  8  1  0
  8  9  1  0
  8 10  2  0
  2 11  1  0
 11 12  1  0
 12 13  1  0
 13  2  1  0
  1 14  1  0
  1 15  1  0
  1 16  1  0
  3 17  1  0
  4 18  1  0
  4 19  1  0
  7 20  1  0
  9 21  1  0
  9 22  1  0
 11 23  1  0
 11 24  1  0
 13 25  1  0
 13 26  1  0
M  END
$$$$

     RDKit          3D

 26 26  0  0  0  0  0  0  0  0999 V2000
   -1.5735    1.3804    0.5150 C   0  0  0  0  0  0  0  0  0  0  0  0
   -1.8054    0.2609   -0.4210 C   0  0  0  0  0  0  0  0  0  0  0  0
   -0.8550   -0.2661   -1.2725 N   0  0  0  0  0  0  0  0  0  0  0  0
    0.3131   -0.8874   -0.8592 C   0  0  0  0  0  0  0  0  0  0  0  0
    1.3768   -0.0685   -0.2664 C   0  0  0  0  0  0  0  0  0  0  0  0
    1.2542    1.1628   -0.1466 O   0  0  0  0  0  0  0  0  0  0  0  0
    2.6106   -0.6510    0.2031 N   0  0  0  0  0  0  0  0  0  0  0  0
    3.6284    0.1505    0.7578 C   0  0  0  0  0  0  0  0  0  0  0  0
    4.8692   -0.3731    1.2137 N   0  0  0  0  0  0  0  0  0  0  0  0
    3.4185    1.3895    0.8480 O   0  0  0  0  0  0  0  0  0  0  0  0
   -2.7917   -0.7537    0.1970 C   0  0  0  0  0  0  0  0  0  0  0  0
   -3.7763    0.2162    0.0054 O   0  0  0  0  0  0  0  0  0  0  0  0
   -3.1216    0.5284   -1.1882 C   0  0  0  0  0  0  0  0  0  0  0  0
   -2.5828    1.7557    0.9023 H   0  0  0  0  0  0  0  0  0  0  0  0
   -1.1838    2.2782   -0.0103 H   0  0  0  0  0  0  0  0  0  0  0  0
   -0.9547    1.1720    1.3878 H   0  0  0  0  0  0  0  0  0  0  0  0
   -1.0134   -0.1713   -2.2981 H   0  0  0  0  0  0  0  0  0  0  0  0
    0.7827   -1.3847   -1.7630 H   0  0  0  0  0  0  0  0  0  0  0  0
    0.0264   -1.7427   -0.1715 H   0  0  0  0  0  0  0  0  0  0  0  0
    2.7529   -1.6759    0.1237 H   0  0  0  0  0  0  0  0  0  0  0  0
    5.7039    0.2580    1.2117 H   0  0  0  0  0  0  0  0  0  0  0  0
    4.9302   -1.3628    1.5387 H   0  0  0  0  0  0  0  0  0  0  0  0
   -2.5747   -0.9867    1.2450 H   0  0  0  0  0  0  0  0  0  0  0  0
   -2.9821   -1.6018   -0.4741 H   0  0  0  0  0  0  0  0  0  0  0  0
   -3.3354   -0.2197   -1.9486 H   0  0  0  0  0  0  0  0  0  0  0  0
   -3.1164    1.5927   -1.4795 H   0  0  0  0  0  0  0  0  0  0  0  0
  1  2  1  0
  2  3  1  0
  3  4  1  0
  4  5  1  0
  5  6  2  0
  5  7  1  0
  7  8  1  0
  8  9  1  0
  8 10  2  0
  2 11  1  0
 11 12  1  0
 12 13  1  0
 13  2  1  0
  1 14  1  0
  1 15  1  0
  1 16  1  0
  3 17  1  0
  4 18  1  0
  4 19  1  0
  7 20  1  0
  9 21  1  0
  9 22  1  0
 11 23  1  0
 11 24  1  0
 13 25  1  0
 13 26  1  0
M  END
$$$$

     RDKit          3D

 26 26  0  0  0  0  0  0  0  0999 V2000
   -2.6373   -1.0691   -0.5255 C   0  0  0  0  0  0  0  0  0  0  0  0
   -2.0822    0.1969    0.0211 C   0  0  0  0  0  0  0  0  0  0  0  0
   -0.7747    0.1505    0.6147 N   0  0  0  0  0  0  0  0  0  0  0  0
    0.2685   -0.2133   -0.2991 C   0  0  0  0  0  0  0  0  0  0  0  0
    1.5635   -0.0931    0.4355 C   0  0  0  0  0  0  0  0  0  0  0  0
    1.6163    0.2772    1.6598 O   0  0  0  0  0  0  0  0  0  0  0  0
    2.8113   -0.3828   -0.1877 N   0  0  0  0  0  0  0  0  0  0  0  0
    4.0710   -0.2386    0.5048 C   0  0  0  0  0  0  0  0  0  0  0  0
    5.3144   -0.5243   -0.0833 N   0  0  0  0  0  0  0  0  0  0  0  0
    4.0413    0.1644    1.6958 O   0  0  0  0  0  0  0  0  0  0  0  0
   -3.0620    0.8957    0.9343 C   0  0  0  0  0  0  0  0  0  0  0  0
   -2.4636    2.1101    0.4868 O   0  0  0  0  0  0  0  0  0  0  0  0
   -2.3755    1.4640   -0.7526 C   0  0  0  0  0  0  0  0  0  0  0  0
   -3.0985   -1.7237    0.2580 H   0  0  0  0  0  0  0  0  0  0  0  0
   -1.8772   -1.6236   -1.1324 H   0  0  0  0  0  0  0  0  0  0  0  0
   -3.4422   -0.7609   -1.2639 H   0  0  0  0  0  0  0  0  0  0  0  0
   -0.8080   -0.6458    1.3251 H   0  0  0  0  0  0  0  0  0  0  0  0
    0.2020   -1.2422   -0.7019 H   0  0  0  0  0  0  0  0  0  0  0  0
    0.3146    0.4435   -1.1922 H   0  0  0  0  0  0  0  0  0  0  0  0
    2.8424   -0.7064   -1.1719 H   0  0  0  0  0  0  0  0  0  0  0  0
    5.7571    0.1354   -0.7417 H   0  0  0  0  0  0  0  0  0  0  0  0
    5.7993   -1.4114    0.1445 H   0  0  0  0  0  0  0  0  0  0  0  0
   -2.8689    0.7783    2.0056 H   0  0  0  0  0  0  0  0  0  0  0  0
   -4.1234    0.8124    0.6056 H   0  0  0  0  0  0  0  0  0  0  0  0
   -1.6033    1.8054   -1.4381 H   0  0  0  0  0  0  0  0  0  0  0  0
   -3.3849    1.4012   -1.2015 H   0  0  0  0  0  0  0  0  0  0  0  0
  1  2  1  0
  2  3  1  0
  3  4  1  0
  4  5  1  0
  5  6  2  0
  5  7  1  0
  7  8  1  0
  8  9  1  0
  8 10  2  0
  2 11  1  0
 11 12  1  0
 12 13  1  0
 13  2  1  0
  1 14  1  0
  1 15  1  0
  1 16  1  0
  3 17  1  0
  4 18  1  0
  4 19  1  0
  7 20  1  0
  9 21  1  0
  9 22  1  0
 11 23  1  0
 11 24  1  0
 13 25  1  0
 13 26  1  0
M  END
$$$$

     RDKit          3D

 26 26  0  0  0  0  0  0  0  0999 V2000
   -1.9420    1.5140   -1.0036 C   0  0  0  0  0  0  0  0  0  0  0  0
   -1.5063    0.3308   -0.1155 C   0  0  0  0  0  0  0  0  0  0  0  0
   -1.0342   -0.7247   -0.9134 N   0  0  0  0  0  0  0  0  0  0  0  0
   -0.2328   -1.7425   -0.4018 C   0  0  0  0  0  0  0  0  0  0  0  0
    1.1502   -1.4754   -0.0500 C   0  0  0  0  0  0  0  0  0  0  0  0
    1.8030   -2.4698    0.4438 O   0  0  0  0  0  0  0  0  0  0  0  0
    1.8737   -0.2747   -0.1842 N   0  0  0  0  0  0  0  0  0  0  0  0
    3.2657   -0.2008    0.1879 C   0  0  0  0  0  0  0  0  0  0  0  0
    4.0563    0.9370    0.0335 N   0  0  0  0  0  0  0  0  0  0  0  0
    3.8054   -1.2398    0.6842 O   0  0  0  0  0  0  0  0  0  0  0  0
   -2.6481    0.0151    0.8311 C   0  0  0  0  0  0  0  0  0  0  0  0
   -2.0702    0.8135    1.8119 O   0  0  0  0  0  0  0  0  0  0  0  0
   -0.8292    0.7225    1.1414 C   0  0  0  0  0  0  0  0  0  0  0  0
   -1.4635    1.4617   -2.0082 H   0  0  0  0  0  0  0  0  0  0  0  0
   -1.7629    2.4684   -0.4926 H   0  0  0  0  0  0  0  0  0  0  0  0
   -3.0402    1.4618   -1.1695 H   0  0  0  0  0  0  0  0  0  0  0  0
   -1.8106   -1.0574   -1.5449 H   0  0  0  0  0  0  0  0  0  0  0  0
   -0.6851   -2.3067    0.4568 H   0  0  0  0  0  0  0  0  0  0  0  0
   -0.1955   -2.5634   -1.2058 H   0  0  0  0  0  0  0  0  0  0  0  0
    1.4164    0.5702   -0.5724 H   0  0  0  0  0  0  0  0  0  0  0  0
    4.1009    1.7700    0.6447 H   0  0  0  0  0  0  0  0  0  0  0  0
    4.6995    0.9572   -0.8157 H   0  0  0  0  0  0  0  0  0  0  0  0
   -2.7717   -1.0370    1.1027 H   0  0  0  0  0  0  0  0  0  0  0  0
   -3.6203    0.4636    0.5340 H   0  0  0  0  0  0  0  0  0  0  0  0
   -0.2499   -0.0985    1.5937 H   0  0  0  0  0  0  0  0  0  0  0  0
   -0.3086    1.7047    1.1245 H   0  0  0  0  0  0  0  0  0  0  0  0
  1  2  1  0
  2  3  1  0
  3  4  1  0
  4  5  1  0
  5  6  2  0
  5  7  1  0
  7  8  1  0
  8  9  1  0
  8 10  2  0
  2 11  1  0
 11 12  1  0
 12 13  1  0
 13  2  1  0
  1 14  1  0
  1 15  1  0
  1 16  1  0
  3 17  1  0
  4 18  1  0
  4 19  1  0
  7 20  1  0
  9 21  1  0
  9 22  1  0
 11 23  1  0
 11 24  1  0
 13 25  1  0
 13 26  1  0
M  END
$$$$

     RDKit          3D

 26 26  0  0  0  0  0  0  0  0999 V2000
   -1.9813    1.1929   -0.9864 C   0  0  0  0  0  0  0  0  0  0  0  0
   -2.1032    0.1800    0.1447 C   0  0  0  0  0  0  0  0  0  0  0  0
   -0.9113    0.2201    0.9646 N   0  0  0  0  0  0  0  0  0  0  0  0
    0.1858   -0.2117    0.0804 C   0  0  0  0  0  0  0  0  0  0  0  0
    1.4979    0.0937    0.7055 C   0  0  0  0  0  0  0  0  0  0  0  0
    1.4980    0.6403    1.8548 O   0  0  0  0  0  0  0  0  0  0  0  0
    2.7033   -0.1923    0.0804 N   0  0  0  0  0  0  0  0  0  0  0  0
    3.9967    0.1554    0.5826 C   0  0  0  0  0  0  0  0  0  0  0  0
    5.1937   -0.0643   -0.1219 N   0  0  0  0  0  0  0  0  0  0  0  0
    4.0225    0.6968    1.7424 O   0  0  0  0  0  0  0  0  0  0  0  0
   -3.4192    0.1191    0.8244 C   0  0  0  0  0  0  0  0  0  0  0  0
   -3.6934   -1.1563    0.3192 O   0  0  0  0  0  0  0  0  0  0  0  0
   -2.4497   -1.2086   -0.3195 C   0  0  0  0  0  0  0  0  0  0  0  0
   -1.5847    0.7582   -1.9235 H   0  0  0  0  0  0  0  0  0  0  0  0
   -2.9693    1.6467   -1.1131 H   0  0  0  0  0  0  0  0  0  0  0  0
   -1.2425    1.9606   -0.6701 H   0  0  0  0  0  0  0  0  0  0  0  0
   -1.0163   -0.4425    1.7783 H   0  0  0  0  0  0  0  0  0  0  0  0
    0.1381    0.2482   -0.9191 H   0  0  0  0  0  0  0  0  0  0  0  0
    0.1152   -1.3416   -0.0604 H   0  0  0  0  0  0  0  0  0  0  0  0
    2.6799   -0.6740   -0.8699 H   0  0  0  0  0  0  0  0  0  0  0  0
    5.3810    0.5171   -0.9497 H   0  0  0  0  0  0  0  0  0  0  0  0
    5.8678   -0.7740    0.1862 H   0  0  0  0  0  0  0  0  0  0  0  0
   -4.1392    0.8335    0.3347 H   0  0  0  0  0  0  0  0  0  0  0  0
   -3.4090    0.1954    1.9240 H   0  0  0  0  0  0  0  0  0  0  0  0
   -2.5137   -1.3691   -1.4205 H   0  0  0  0  0  0  0  0  0  0  0  0
   -1.8470   -2.0236    0.1247 H   0  0  0  0  0  0  0  0  0  0  0  0
  1  2  1  0
  2  3  1  0
  3  4  1  0
  4  5  1  0
  5  6  2  0
  5  7  1  0
  7  8  1  0
  8  9  1  0
  8 10  2  0
  2 11  1  0
 11 12  1  0
 12 13  1  0
 13  2  1  0
  1 14  1  0
  1 15  1  0
  1 16  1  0
  3 17  1  0
  4 18  1  0
  4 19  1  0
  7 20  1  0
  9 21  1  0
  9 22  1  0
 11 23  1  0
 11 24  1  0
 13 25  1  0
 13 26  1  0
M  END
$$$$

     RDKit          3D

 26 26  0  0  0  0  0  0  0  0999 V2000
   -2.1209   -1.6411   -0.8818 C   0  0  0  0  0  0  0  0  0  0  0  0
   -1.7051   -0.2398   -0.5377 C   0  0  0  0  0  0  0  0  0  0  0  0
   -0.3303   -0.0162   -0.2661 N   0  0  0  0  0  0  0  0  0  0  0  0
    0.1644   -0.7299    0.8832 C   0  0  0  0  0  0  0  0  0  0  0  0
    1.5962   -0.4666    1.1094 C   0  0  0  0  0  0  0  0  0  0  0  0
    2.2456   -0.9857    2.0684 O   0  0  0  0  0  0  0  0  0  0  0  0
    2.2930    0.3994    0.2296 N   0  0  0  0  0  0  0  0  0  0  0  0
    3.6950    0.6817    0.4202 C   0  0  0  0  0  0  0  0  0  0  0  0
    4.3941    1.5414   -0.4570 N   0  0  0  0  0  0  0  0  0  0  0  0
    4.2952    0.1483    1.3863 O   0  0  0  0  0  0  0  0  0  0  0  0
   -2.3230    0.7613   -1.4832 C   0  0  0  0  0  0  0  0  0  0  0  0
   -3.5293    0.5611   -0.7681 O   0  0  0  0  0  0  0  0  0  0  0  0
   -2.7019    0.4284    0.3722 C   0  0  0  0  0  0  0  0  0  0  0  0
   -3.2068   -1.5746   -1.1881 H   0  0  0  0  0  0  0  0  0  0  0  0
   -2.0976   -2.3220   -0.0279 H   0  0  0  0  0  0  0  0  0  0  0  0
   -1.6066   -2.0320   -1.7928 H   0  0  0  0  0  0  0  0  0  0  0  0
    0.2283   -0.3315   -1.0988 H   0  0  0  0  0  0  0  0  0  0  0  0
   -0.3811   -0.3409    1.7902 H   0  0  0  0  0  0  0  0  0  0  0  0
   -0.0736   -1.8131    0.8409 H   0  0  0  0  0  0  0  0  0  0  0  0
    1.8521    0.8647   -0.5749 H   0  0  0  0  0  0  0  0  0  0  0  0
    4.9862    2.2854   -0.0852 H   0  0  0  0  0  0  0  0  0  0  0  0
    4.3081    1.4183   -1.4802 H   0  0  0  0  0  0  0  0  0  0  0  0
   -2.3681    0.4693   -2.5351 H   0  0  0  0  0  0  0  0  0  0  0  0
   -1.9456    1.7834   -1.2642 H   0  0  0  0  0  0  0  0  0  0  0  0
   -2.4390    1.3964    0.7945 H   0  0  0  0  0  0  0  0  0  0  0  0
   -3.2291   -0.2457    1.0931 H   0  0  0  0  0  0  0  0  0  0  0  0
  1  2  1  0
  2  3  1  0
  3  4  1  0
  4  5  1  0
  5  6  2  0
  5  7  1  0
  7  8  1  0
  8  9  1  0
  8 10  2  0
  2 11  1  0
 11 12  1  0
 12 13  1  0
 13  2  1  0
  1 14  1  0
  1 15  1  0
  1 16  1  0
  3 17  1  0
  4 18  1  0
  4 19  1  0
  7 20  1  0
  9 21  1  0
  9 22  1  0
 11 23  1  0
 11 24  1  0
 13 25  1  0
 13 26  1  0
M  END
$$$$

     RDKit          3D

 26 26  0  0  0  0  0  0  0  0999 V2000
   -2.0036   -0.7061    1.5079 C   0  0  0  0  0  0  0  0  0  0  0  0
   -2.0443    0.1163    0.1982 C   0  0  0  0  0  0  0  0  0  0  0  0
   -0.8082    0.7304   -0.0433 N   0  0  0  0  0  0  0  0  0  0  0  0
    0.2360   -0.2225   -0.3197 C   0  0  0  0  0  0  0  0  0  0  0  0
    1.5427    0.4759   -0.2891 C   0  0  0  0  0  0  0  0  0  0  0  0
    1.5249    1.7358   -0.0557 O   0  0  0  0  0  0  0  0  0  0  0  0
    2.7677   -0.2068   -0.5015 N   0  0  0  0  0  0  0  0  0  0  0  0
    3.9855    0.5574   -0.3584 C   0  0  0  0  0  0  0  0  0  0  0  0
    5.2268   -0.1474   -0.5145 N   0  0  0  0  0  0  0  0  0  0  0  0
    3.9239    1.8002   -0.0995 O   0  0  0  0  0  0  0  0  0  0  0  0
   -2.6847   -0.6838   -0.9239 C   0  0  0  0  0  0  0  0  0  0  0  0
   -3.9186   -0.2976   -0.4294 O   0  0  0  0  0  0  0  0  0  0  0  0
   -3.3203    0.8799    0.0859 C   0  0  0  0  0  0  0  0  0  0  0  0
   -3.0525   -0.9999    1.7436 H   0  0  0  0  0  0  0  0  0  0  0  0
   -1.4329   -1.6120    1.2698 H   0  0  0  0  0  0  0  0  0  0  0  0
   -1.5570   -0.0358    2.2635 H   0  0  0  0  0  0  0  0  0  0  0  0
   -0.7591    1.5853   -0.5732 H   0  0  0  0  0  0  0  0  0  0  0  0
    0.2766   -1.0745    0.4085 H   0  0  0  0  0  0  0  0  0  0  0  0
    0.0468   -0.6876   -1.3275 H   0  0  0  0  0  0  0  0  0  0  0  0
    2.7786   -1.2149   -0.7147 H   0  0  0  0  0  0  0  0  0  0  0  0
    6.0740    0.4101   -0.6564 H   0  0  0  0  0  0  0  0  0  0  0  0
    5.1824   -1.1831   -0.4793 H   0  0  0  0  0  0  0  0  0  0  0  0
   -2.4138   -0.2271   -1.8978 H   0  0  0  0  0  0  0  0  0  0  0  0
   -2.4238   -1.7643   -0.8291 H   0  0  0  0  0  0  0  0  0  0  0  0
   -3.3649    1.6563   -0.6788 H   0  0  0  0  0  0  0  0  0  0  0  0
   -3.7822    1.1156    1.0729 H   0  0  0  0  0  0  0  0  0  0  0  0
  1  2  1  0
  2  3  1  0
  3  4  1  0
  4  5  1  0
  5  6  2  0
  5  7  1  0
  7  8  1  0
  8  9  1  0
  8 10  2  0
  2 11  1  0
 11 12  1  0
 12 13  1  0
 13  2  1  0
  1 14  1  0
  1 15  1  0
  1 16  1  0
  3 17  1  0
  4 18  1  0
  4 19  1  0
  7 20  1  0
  9 21  1  0
  9 22  1  0
 11 23  1  0
 11 24  1  0
 13 25  1  0
 13 26  1  0
M  END
$$$$

     RDKit          3D

 26 26  0  0  0  0  0  0  0  0999 V2000
   -3.2678   -0.8285   -0.7617 C   0  0  0  0  0  0  0  0  0  0  0  0
   -2.1223   -0.1327   -0.0826 C   0  0  0  0  0  0  0  0  0  0  0  0
   -0.8529   -0.6775   -0.4347 N   0  0  0  0  0  0  0  0  0  0  0  0
    0.2797    0.0830    0.0540 C   0  0  0  0  0  0  0  0  0  0  0  0
    1.5370   -0.5144   -0.4565 C   0  0  0  0  0  0  0  0  0  0  0  0
    1.6073   -1.5177   -1.1894 O   0  0  0  0  0  0  0  0  0  0  0  0
    2.7466    0.1471   -0.0520 N   0  0  0  0  0  0  0  0  0  0  0  0
    4.0303   -0.2933   -0.4785 C   0  0  0  0  0  0  0  0  0  0  0  0
    5.2283    0.3734   -0.0687 N   0  0  0  0  0  0  0  0  0  0  0  0
    4.0879   -1.3044   -1.2404 O   0  0  0  0  0  0  0  0  0  0  0  0
   -2.2150    1.3707   -0.0288 C   0  0  0  0  0  0  0  0  0  0  0  0
   -1.6658    1.3007    1.2544 O   0  0  0  0  0  0  0  0  0  0  0  0
   -2.3705    0.0835    1.3935 C   0  0  0  0  0  0  0  0  0  0  0  0
   -3.5055   -0.3449   -1.7252 H   0  0  0  0  0  0  0  0  0  0  0  0
   -2.9895   -1.8716   -0.9795 H   0  0  0  0  0  0  0  0  0  0  0  0
   -4.1609   -0.8461   -0.1111 H   0  0  0  0  0  0  0  0  0  0  0  0
   -0.7908   -1.6099    0.0833 H   0  0  0  0  0  0  0  0  0  0  0  0
    0.2565    1.1288   -0.2549 H   0  0  0  0  0  0  0  0  0  0  0  0
    0.3241    0.0714    1.1820 H   0  0  0  0  0  0  0  0  0  0  0  0
    2.7508    0.9855    0.5680 H   0  0  0  0  0  0  0  0  0  0  0  0
    5.3315    1.3999   -0.0112 H   0  0  0  0  0  0  0  0  0  0  0  0
    6.0173   -0.3003    0.1789 H   0  0  0  0  0  0  0  0  0  0  0  0
   -3.2770    1.6766    0.0025 H   0  0  0  0  0  0  0  0  0  0  0  0
   -1.5943    1.9022   -0.7760 H   0  0  0  0  0  0  0  0  0  0  0  0
   -3.4385    0.3657    1.5876 H   0  0  0  0  0  0  0  0  0  0  0  0
   -1.9465   -0.6472    2.0785 H   0  0  0  0  0  0  0  0  0  0  0  0
  1  2  1  0
  2  3  1  0
  3  4  1  0
  4  5  1  0
  5  6  2  0
  5  7  1  0
  7  8  1  0
  8  9  1  0
  8 10  2  0
  2 11  1  0
 11 12  1  0
 12 13  1  0
 13  2  1  0
  1 14  1  0
  1 15  1  0
  1 16  1  0
  3 17  1  0
  4 18  1  0
  4 19  1  0
  7 20  1  0
  9 21  1  0
  9 22  1  0
 11 23  1  0
 11 24  1  0
 13 25  1  0
 13 26  1  0
M  END
$$$$
