
     RDKit          3D

 31 30  0  0  0  0  0  0  0  0999 V2000
   -4.0365   -0.5505    1.3157 C   0  0  0  0  0  0  0  0  0  0  0  0
   -3.7557    0.4736    0.2419 C   0  0  0  0  0  0  0  0  0  0  0  0
   -2.7835   -0.1121   -0.7592 C   0  0  1  0  0  0  0  0  0  0  0  0
   -2.4677    0.8067   -1.8150 N   0  0  0  0  0  0  0  0  0  0  0  0
   -1.5394   -0.4715   -0.0526 C   0  0  0  0  0  0  0  0  0  0  0  0
   -1.6000   -1.2650    0.8991 O   0  0  0  0  0  0  0  0  0  0  0  0
   -0.2887    0.0741   -0.4450 N   0  0  0  0  0  0  0  0  0  0  0  0
    0.8809   -0.3315    0.3018 C   0  0  0  0  0  0  0  0  0  0  0  0
    2.0855    0.3628   -0.2813 C   0  0  0  0  0  0  0  0  0  0  0  0
    3.2944   -0.1003    0.5438 C   0  0  1  0  0  0  0  0  0  0  0  0
    3.4083   -1.4720    0.4389 O   0  0  0  0  0  0  0  0  0  0  0  0
    4.5461    0.5856    0.0358 C   0  0  0  0  0  0  0  0  0  0  0  0
    4.7109    0.2326   -1.2908 O   0  0  0  0  0  0  0  0  0  0  0  0
   -5.1095   -0.4311    1.6461 H   0  0  0  0  0  0  0  0  0  0  0  0
   -3.9134   -1.5851    0.8896 H   0  0  0  0  0  0  0  0  0  0  0  0
   -3.3668   -0.4416    2.1858 H   0  0  0  0  0  0  0  0  0  0  0  0
   -4.6709    0.8356   -0.2496 H   0  0  0  0  0  0  0  0  0  0  0  0
   -3.2912    1.3550    0.7563 H   0  0  0  0  0  0  0  0  0  0  0  0
   -3.2528   -1.0207   -1.1751 H   0  0  0  0  0  0  0  0  0  0  0  0
   -3.1910    0.9011   -2.5356 H   0  0  0  0  0  0  0  0  0  0  0  0
   -2.1140    1.7004   -1.4201 H   0  0  0  0  0  0  0  0  0  0  0  0
   -0.2316    0.7358   -1.2370 H   0  0  0  0  0  0  0  0  0  0  0  0
    0.7542   -0.0483    1.3540 H   0  0  0  0  0  0  0  0  0  0  0  0
    1.0023   -1.4296    0.2675 H   0  0  0  0  0  0  0  0  0  0  0  0
    1.9485    1.4538   -0.1929 H   0  0  0  0  0  0  0  0  0  0  0  0
    2.2134    0.0706   -1.3404 H   0  0  0  0  0  0  0  0  0  0  0  0
    3.1665    0.1799    1.6030 H   0  0  0  0  0  0  0  0  0  0  0  0
    2.9140   -1.7652   -0.3604 H   0  0  0  0  0  0  0  0  0  0  0  0
    5.3851    0.3002    0.6845 H   0  0  0  0  0  0  0  0  0  0  0  0
    4.3363    1.6875    0.0722 H   0  0  0  0  0  0  0  0  0  0  0  0
    4.9665   -0.7309   -1.3215 H   0  0  0  0  0  0  0  0  0  0  0  0
  1  2  1  0
  2  3  1  0
  3  4  1  0
  3  5  1  0
  5  6  2  0
  5  7  1  0
  7  8  1  0
  8  9  1  0
  9 10  1  0
 10 11  1  0
 10 12  1  0
 12 13  1  0
  1 14  1  0
  1 15  1  0
  1 16  1  0
  2 17  1  0
  2 18  1  0
  3 19  1  6
  4 20  1  0
  4 21  1  0
  7 22  1  0
  8 23  1  0
  8 24  1  0
  9 25  1  0
  9 26  1  0
 10 27  1  1
 11 28  1  0
 12 29  1  0
 12 30  1  0
 13 31  1  0
M  END
$$$$

     RDKit          3D

 31 30  0  0  0  0  0  0  0  0999 V2000
   -3.7869   -0.0666    0.7395 C   0  0  0  0  0  0  0  0  0  0  0  0
   -3.5525   -0.9216   -0.4722 C   0  0  0  0  0  0  0  0  0  0  0  0
   -2.2296   -0.6294   -1.1463 C   0  0  1  0  0  0  0  0  0  0  0  0
   -2.1214    0.7249   -1.5934 N   0  0  0  0  0  0  0  0  0  0  0  0
   -1.1267   -1.0307   -0.2396 C   0  0  0  0  0  0  0  0  0  0  0  0
   -1.1130   -2.1927    0.2167 O   0  0  0  0  0  0  0  0  0  0  0  0
   -0.0813   -0.1149    0.1211 N   0  0  0  0  0  0  0  0  0  0  0  0
    0.9590   -0.5894    1.0132 C   0  0  0  0  0  0  0  0  0  0  0  0
    1.9564    0.5290    1.2628 C   0  0  0  0  0  0  0  0  0  0  0  0
    2.5909    0.9831   -0.0125 C   0  0  1  0  0  0  0  0  0  0  0  0
    3.5027    2.0074    0.2251 O   0  0  0  0  0  0  0  0  0  0  0  0
    3.3235   -0.1379   -0.7229 C   0  0  0  0  0  0  0  0  0  0  0  0
    4.3729   -0.6214    0.0571 O   0  0  0  0  0  0  0  0  0  0  0  0
   -4.5600   -0.5807    1.3569 H   0  0  0  0  0  0  0  0  0  0  0  0
   -4.1810    0.9445    0.4705 H   0  0  0  0  0  0  0  0  0  0  0  0
   -2.8846    0.0294    1.3734 H   0  0  0  0  0  0  0  0  0  0  0  0
   -3.6088   -1.9805   -0.1641 H   0  0  0  0  0  0  0  0  0  0  0  0
   -4.3970   -0.7389   -1.1730 H   0  0  0  0  0  0  0  0  0  0  0  0
   -2.1731   -1.2874   -2.0376 H   0  0  0  0  0  0  0  0  0  0  0  0
   -1.3379    0.8346   -2.2459 H   0  0  0  0  0  0  0  0  0  0  0  0
   -2.0890    1.4236   -0.8232 H   0  0  0  0  0  0  0  0  0  0  0  0
   -0.1112    0.8484   -0.2696 H   0  0  0  0  0  0  0  0  0  0  0  0
    0.5166   -0.9573    1.9559 H   0  0  0  0  0  0  0  0  0  0  0  0
    1.4911   -1.4499    0.5549 H   0  0  0  0  0  0  0  0  0  0  0  0
    2.7302    0.2298    1.9914 H   0  0  0  0  0  0  0  0  0  0  0  0
    1.4164    1.3835    1.7077 H   0  0  0  0  0  0  0  0  0  0  0  0
    1.8170    1.3460   -0.7037 H   0  0  0  0  0  0  0  0  0  0  0  0
    3.5212    2.5748   -0.5860 H   0  0  0  0  0  0  0  0  0  0  0  0
    2.6530   -0.9478   -1.0411 H   0  0  0  0  0  0  0  0  0  0  0  0
    3.8172    0.3275   -1.6268 H   0  0  0  0  0  0  0  0  0  0  0  0
    4.6860    0.0605    0.7031 H   0  0  0  0  0  0  0  0  0  0  0  0
  1  2  1  0
  2  3  1  0
  3  4  1  0
  3  5  1  0
  5  6  2  0
  5  7  1  0
  7  8  1  0
  8  9  1  0
  9 10  1  0
 10 11  1  0
 10 12  1  0
 12 13  1  0
  1 14  1  0
  1 15  1  0
  1 16  1  0
  2 17  1  0
  2 18  1  0
  3 19  1  6
  4 20  1  0
  4 21  1  0
  7 22  1  0
  8 23  1  0
  8 24  1  0
  9 25  1  0
  9 26  1  0
 10 27  1  6
 11 28  1  0
 12 29  1  0
 12 30  1  0
 13 31  1  0
M  END
$$$$

     RDKit          3D

 31 30  0  0  0  0  0  0  0  0999 V2000
   -4.0368    0.9753    0.8004 C   0  0  0  0  0  0  0  0  0  0  0  0
   -3.7620    0.0449   -0.3414 C   0  0  0  0  0  0  0  0  0  0  0  0
   -2.7201   -0.9786    0.0711 C   0  0  1  0  0  0  0  0  0  0  0  0
   -2.4570   -1.8678   -1.0185 N   0  0  0  0  0  0  0  0  0  0  0  0
   -1.4775   -0.2722    0.4640 C   0  0  0  0  0  0  0  0  0  0  0  0
   -1.4871    0.5648    1.4129 O   0  0  0  0  0  0  0  0  0  0  0  0
   -0.2763   -0.5496   -0.2411 N   0  0  0  0  0  0  0  0  0  0  0  0
    0.9474    0.1308    0.1287 C   0  0  0  0  0  0  0  0  0  0  0  0
    2.0895   -0.3128   -0.7451 C   0  0  0  0  0  0  0  0  0  0  0  0
    3.3807    0.3582   -0.4079 C   0  0  1  0  0  0  0  0  0  0  0  0
    3.2963    1.7398   -0.5457 O   0  0  0  0  0  0  0  0  0  0  0  0
    3.8469    0.0668    0.9990 C   0  0  0  0  0  0  0  0  0  0  0  0
    5.0942    0.6734    1.1511 O   0  0  0  0  0  0  0  0  0  0  0  0
   -5.1450    1.1734    0.7928 H   0  0  0  0  0  0  0  0  0  0  0  0
   -3.4693    1.9014    0.6712 H   0  0  0  0  0  0  0  0  0  0  0  0
   -3.7962    0.4838    1.7667 H   0  0  0  0  0  0  0  0  0  0  0  0
   -4.6628   -0.5265   -0.6363 H   0  0  0  0  0  0  0  0  0  0  0  0
   -3.4072    0.5800   -1.2362 H   0  0  0  0  0  0  0  0  0  0  0  0
   -3.1108   -1.5960    0.9160 H   0  0  0  0  0  0  0  0  0  0  0  0
   -2.1078   -1.3393   -1.8432 H   0  0  0  0  0  0  0  0  0  0  0  0
   -1.7582   -2.5883   -0.7648 H   0  0  0  0  0  0  0  0  0  0  0  0
   -0.2463   -1.2255   -1.0145 H   0  0  0  0  0  0  0  0  0  0  0  0
    0.7692    1.2134   -0.0328 H   0  0  0  0  0  0  0  0  0  0  0  0
    1.1708   -0.0397    1.1917 H   0  0  0  0  0  0  0  0  0  0  0  0
    2.1984   -1.4094   -0.6218 H   0  0  0  0  0  0  0  0  0  0  0  0
    1.8623   -0.0926   -1.8078 H   0  0  0  0  0  0  0  0  0  0  0  0
    4.1654   -0.0340   -1.0887 H   0  0  0  0  0  0  0  0  0  0  0  0
    2.8195    1.9287   -1.3911 H   0  0  0  0  0  0  0  0  0  0  0  0
    3.1878    0.4660    1.7761 H   0  0  0  0  0  0  0  0  0  0  0  0
    3.9744   -1.0305    1.0980 H   0  0  0  0  0  0  0  0  0  0  0  0
    5.1177    1.5624    0.7464 H   0  0  0  0  0  0  0  0  0  0  0  0
  1  2  1  0
  2  3  1  0
  3  4  1  0
  3  5  1  0
  5  6  2  0
  5  7  1  0
  7  8  1  0
  8  9  1  0
  9 10  1  0
 10 11  1  0
 10 12  1  0
 12 13  1  0
  1 14  1  0
  1 15  1  0
  1 16  1  0
  2 17  1  0
  2 18  1  0
  3 19  1  1
  4 20  1  0
  4 21  1  0
  7 22  1  0
  8 23  1  0
  8 24  1  0
  9 25  1  0
  9 26  1  0
 10 27  1  6
 11 28  1  0
 12 29  1  0
 12 30  1  0
 13 31  1  0
M  END
$$$$

     RDKit          3D

 31 30  0  0  0  0  0  0  0  0999 V2000
    2.3168    1.7587   -0.0910 C   0  0  0  0  0  0  0  0  0  0  0  0
    2.4400    0.6236   -1.0923 C   0  0  0  0  0  0  0  0  0  0  0  0
    2.5904   -0.6728   -0.3203 C   0  0  1  0  0  0  0  0  0  0  0  0
    3.7990   -0.5847    0.5115 N   0  0  0  0  0  0  0  0  0  0  0  0
    1.4590   -0.8677    0.5940 C   0  0  0  0  0  0  0  0  0  0  0  0
    1.5515   -0.9395    1.8449 O   0  0  0  0  0  0  0  0  0  0  0  0
    0.1402   -0.9880    0.0467 N   0  0  0  0  0  0  0  0  0  0  0  0
   -0.9952   -1.1799    0.9104 C   0  0  0  0  0  0  0  0  0  0  0  0
   -2.2483   -1.2650    0.0926 C   0  0  0  0  0  0  0  0  0  0  0  0
   -2.4629    0.0007   -0.6864 C   0  0  1  0  0  0  0  0  0  0  0  0
   -3.6578   -0.1412   -1.4351 O   0  0  0  0  0  0  0  0  0  0  0  0
   -2.5530    1.2320    0.1856 C   0  0  0  0  0  0  0  0  0  0  0  0
   -3.6080    1.1575    1.0837 O   0  0  0  0  0  0  0  0  0  0  0  0
    2.6501    2.6913   -0.5875 H   0  0  0  0  0  0  0  0  0  0  0  0
    1.2368    1.8117    0.1859 H   0  0  0  0  0  0  0  0  0  0  0  0
    2.9421    1.4820    0.7838 H   0  0  0  0  0  0  0  0  0  0  0  0
    1.5714    0.5478   -1.7531 H   0  0  0  0  0  0  0  0  0  0  0  0
    3.3699    0.7928   -1.6942 H   0  0  0  0  0  0  0  0  0  0  0  0
    2.7512   -1.5062   -1.0142 H   0  0  0  0  0  0  0  0  0  0  0  0
    3.7849   -1.4307    1.1154 H   0  0  0  0  0  0  0  0  0  0  0  0
    4.6450   -0.5110   -0.0810 H   0  0  0  0  0  0  0  0  0  0  0  0
    0.0088   -0.9407   -0.9786 H   0  0  0  0  0  0  0  0  0  0  0  0
   -0.8701   -2.1102    1.5248 H   0  0  0  0  0  0  0  0  0  0  0  0
   -1.0088   -0.3215    1.6164 H   0  0  0  0  0  0  0  0  0  0  0  0
   -3.1231   -1.5217    0.7293 H   0  0  0  0  0  0  0  0  0  0  0  0
   -2.1998   -2.1013   -0.6557 H   0  0  0  0  0  0  0  0  0  0  0  0
   -1.6271    0.1225   -1.3975 H   0  0  0  0  0  0  0  0  0  0  0  0
   -4.1073    0.7169   -1.4058 H   0  0  0  0  0  0  0  0  0  0  0  0
   -1.6174    1.3785    0.7311 H   0  0  0  0  0  0  0  0  0  0  0  0
   -2.7926    2.0959   -0.4818 H   0  0  0  0  0  0  0  0  0  0  0  0
   -4.3857    0.6702    0.7461 H   0  0  0  0  0  0  0  0  0  0  0  0
  1  2  1  0
  2  3  1  0
  3  4  1  0
  3  5  1  0
  5  6  2  0
  5  7  1  0
  7  8  1  0
  8  9  1  0
  9 10  1  0
 10 11  1  0
 10 12  1  0
 12 13  1  0
  1 14  1  0
  1 15  1  0
  1 16  1  0
  2 17  1  0
  2 18  1  0
  3 19  1  6
  4 20  1  0
  4 21  1  0
  7 22  1  0
  8 23  1  0
  8 24  1  0
  9 25  1  0
  9 26  1  0
 10 27  1  6
 11 28  1  0
 12 29  1  0
 12 30  1  0
 13 31  1  0
M  END
$$$$

     RDKit          3D

 31 30  0  0  0  0  0  0  0  0999 V2000
   -3.2251   -1.5044   -0.5665 C   0  0  0  0  0  0  0  0  0  0  0  0
   -2.9233   -0.4865    0.4925 C   0  0  0  0  0  0  0  0  0  0  0  0
   -2.3901    0.8097   -0.0549 C   0  0  1  0  0  0  0  0  0  0  0  0
   -2.1490    1.6847    1.0905 N   0  0  0  0  0  0  0  0  0  0  0  0
   -1.1419    0.6714   -0.8056 C   0  0  0  0  0  0  0  0  0  0  0  0
   -1.1427   -0.0496   -1.8372 O   0  0  0  0  0  0  0  0  0  0  0  0
    0.0813    1.2985   -0.4497 N   0  0  0  0  0  0  0  0  0  0  0  0
    1.2988    1.1453   -1.2080 C   0  0  0  0  0  0  0  0  0  0  0  0
    1.7647   -0.2624   -1.3025 C   0  0  0  0  0  0  0  0  0  0  0  0
    2.0485   -0.9449    0.0054 C   0  0  1  0  0  0  0  0  0  0  0  0
    2.4746   -2.2718   -0.2831 O   0  0  0  0  0  0  0  0  0  0  0  0
    3.1559   -0.3076    0.8065 C   0  0  0  0  0  0  0  0  0  0  0  0
    2.8588    0.9922    1.1831 O   0  0  0  0  0  0  0  0  0  0  0  0
   -3.2132   -1.1114   -1.5871 H   0  0  0  0  0  0  0  0  0  0  0  0
   -4.2174   -2.0123   -0.3862 H   0  0  0  0  0  0  0  0  0  0  0  0
   -2.4450   -2.3151   -0.4633 H   0  0  0  0  0  0  0  0  0  0  0  0
   -2.2556   -0.8939    1.3054 H   0  0  0  0  0  0  0  0  0  0  0  0
   -3.8849   -0.2433    1.0062 H   0  0  0  0  0  0  0  0  0  0  0  0
   -3.1506    1.2457   -0.7013 H   0  0  0  0  0  0  0  0  0  0  0  0
   -1.8716    2.6480    0.7874 H   0  0  0  0  0  0  0  0  0  0  0  0
   -1.4067    1.2850    1.7038 H   0  0  0  0  0  0  0  0  0  0  0  0
    0.0591    1.8958    0.4147 H   0  0  0  0  0  0  0  0  0  0  0  0
    1.1667    1.5033   -2.2659 H   0  0  0  0  0  0  0  0  0  0  0  0
    2.0880    1.7971   -0.7978 H   0  0  0  0  0  0  0  0  0  0  0  0
    2.7157   -0.3268   -1.9061 H   0  0  0  0  0  0  0  0  0  0  0  0
    1.0360   -0.8907   -1.8625 H   0  0  0  0  0  0  0  0  0  0  0  0
    1.1299   -0.9578    0.6057 H   0  0  0  0  0  0  0  0  0  0  0  0
    2.4915   -2.7207    0.6023 H   0  0  0  0  0  0  0  0  0  0  0  0
    4.1112   -0.2972    0.2250 H   0  0  0  0  0  0  0  0  0  0  0  0
    3.2548   -0.9001    1.7366 H   0  0  0  0  0  0  0  0  0  0  0  0
    3.6816    1.5198    1.3471 H   0  0  0  0  0  0  0  0  0  0  0  0
  1  2  1  0
  2  3  1  0
  3  4  1  0
  3  5  1  0
  5  6  2  0
  5  7  1  0
  7  8  1  0
  8  9  1  0
  9 10  1  0
 10 11  1  0
 10 12  1  0
 12 13  1  0
  1 14  1  0
  1 15  1  0
  1 16  1  0
  2 17  1  0
  2 18  1  0
  3 19  1  6
  4 20  1  0
  4 21  1  0
  7 22  1  0
  8 23  1  0
  8 24  1  0
  9 25  1  0
  9 26  1  0
 10 27  1  1
 11 28  1  0
 12 29  1  0
 12 30  1  0
 13 31  1  0
M  END
$$$$

     RDKit          3D

 31 30  0  0  0  0  0  0  0  0999 V2000
    3.9217    0.0847   -1.4941 C   0  0  0  0  0  0  0  0  0  0  0  0
    2.4357    0.0583   -1.2519 C   0  0  0  0  0  0  0  0  0  0  0  0
    2.0896   -1.0938   -0.3358 C   0  0  1  0  0  0  0  0  0  0  0  0
    2.7777   -0.9308    0.9247 N   0  0  0  0  0  0  0  0  0  0  0  0
    0.5940   -1.0968   -0.1111 C   0  0  0  0  0  0  0  0  0  0  0  0
   -0.1054   -1.2292   -1.1125 O   0  0  0  0  0  0  0  0  0  0  0  0
    0.0867   -0.9533    1.1863 N   0  0  0  0  0  0  0  0  0  0  0  0
   -1.2654   -0.9038    1.6088 C   0  0  0  0  0  0  0  0  0  0  0  0
   -2.1079    0.2464    1.2667 C   0  0  0  0  0  0  0  0  0  0  0  0
   -2.3573    0.5295   -0.1615 C   0  0  1  0  0  0  0  0  0  0  0  0
   -2.9781   -0.5585   -0.7757 O   0  0  0  0  0  0  0  0  0  0  0  0
   -3.3639    1.7126   -0.2927 C   0  0  0  0  0  0  0  0  0  0  0  0
   -2.7800    2.8022    0.3044 O   0  0  0  0  0  0  0  0  0  0  0  0
    4.4142   -0.8723   -1.2322 H   0  0  0  0  0  0  0  0  0  0  0  0
    4.1456    0.3207   -2.5731 H   0  0  0  0  0  0  0  0  0  0  0  0
    4.3920    0.8852   -0.8984 H   0  0  0  0  0  0  0  0  0  0  0  0
    2.1294    1.0329   -0.8351 H   0  0  0  0  0  0  0  0  0  0  0  0
    1.9382   -0.0552   -2.2331 H   0  0  0  0  0  0  0  0  0  0  0  0
    2.4020   -2.0318   -0.7892 H   0  0  0  0  0  0  0  0  0  0  0  0
    2.6209   -1.7666    1.5178 H   0  0  0  0  0  0  0  0  0  0  0  0
    3.7948   -0.8906    0.7112 H   0  0  0  0  0  0  0  0  0  0  0  0
    0.8033   -0.8628    2.0081 H   0  0  0  0  0  0  0  0  0  0  0  0
   -1.7840   -1.8705    1.2257 H   0  0  0  0  0  0  0  0  0  0  0  0
   -1.3509   -1.1016    2.7355 H   0  0  0  0  0  0  0  0  0  0  0  0
   -1.6944    1.2156    1.7047 H   0  0  0  0  0  0  0  0  0  0  0  0
   -3.1086    0.1751    1.8037 H   0  0  0  0  0  0  0  0  0  0  0  0
   -1.4493    0.8470   -0.6864 H   0  0  0  0  0  0  0  0  0  0  0  0
   -3.9697   -0.4717   -0.7545 H   0  0  0  0  0  0  0  0  0  0  0  0
   -4.3132    1.4647    0.1994 H   0  0  0  0  0  0  0  0  0  0  0  0
   -3.5288    1.8641   -1.3577 H   0  0  0  0  0  0  0  0  0  0  0  0
   -2.3887    3.4503   -0.3020 H   0  0  0  0  0  0  0  0  0  0  0  0
  1  2  1  0
  2  3  1  0
  3  4  1  0
  3  5  1  0
  5  6  2  0
  5  7  1  0
  7  8  1  0
  8  9  1  0
  9 10  1  0
 10 11  1  0
 10 12  1  0
 12 13  1  0
  1 14  1  0
  1 15  1  0
  1 16  1  0
  2 17  1  0
  2 18  1  0
  3 19  1  6
  4 20  1  0
  4 21  1  0
  7 22  1  0
  8 23  1  0
  8 24  1  0
  9 25  1  0
  9 26  1  0
 10 27  1  6
 11 28  1  0
 12 29  1  0
 12 30  1  0
 13 31  1  0
M  END
$$$$

     RDKit          3D

 31 30  0  0  0  0  0  0  0  0999 V2000
   -4.3964    1.0311    0.4310 C   0  0  0  0  0  0  0  0  0  0  0  0
   -2.9207    0.9534    0.1494 C   0  0  0  0  0  0  0  0  0  0  0  0
   -2.3231   -0.2372    0.9060 C   0  0  1  0  0  0  0  0  0  0  0  0
   -2.9247   -1.4728    0.5094 N   0  0  0  0  0  0  0  0  0  0  0  0
   -0.8505   -0.2191    0.7103 C   0  0  0  0  0  0  0  0  0  0  0  0
   -0.2496    0.8365    1.0372 O   0  0  0  0  0  0  0  0  0  0  0  0
   -0.1142   -1.2927    0.1923 N   0  0  0  0  0  0  0  0  0  0  0  0
    1.3208   -1.2737    0.0019 C   0  0  0  0  0  0  0  0  0  0  0  0
    1.7432   -0.1732   -0.9488 C   0  0  0  0  0  0  0  0  0  0  0  0
    3.2248   -0.1381   -1.1590 C   0  0  1  0  0  0  0  0  0  0  0  0
    3.4980    0.9074   -2.0464 O   0  0  0  0  0  0  0  0  0  0  0  0
    3.9102    0.1838    0.1521 C   0  0  0  0  0  0  0  0  0  0  0  0
    3.3953    1.3834    0.6192 O   0  0  0  0  0  0  0  0  0  0  0  0
   -4.8794    1.5123   -0.4454 H   0  0  0  0  0  0  0  0  0  0  0  0
   -4.5314    1.6357    1.3606 H   0  0  0  0  0  0  0  0  0  0  0  0
   -4.7672   -0.0015    0.6058 H   0  0  0  0  0  0  0  0  0  0  0  0
   -2.4006    1.8659    0.4879 H   0  0  0  0  0  0  0  0  0  0  0  0
   -2.7539    0.7757   -0.9340 H   0  0  0  0  0  0  0  0  0  0  0  0
   -2.5036   -0.0766    1.9908 H   0  0  0  0  0  0  0  0  0  0  0  0
   -3.2981   -1.3903   -0.4458 H   0  0  0  0  0  0  0  0  0  0  0  0
   -3.7349   -1.7315    1.1363 H   0  0  0  0  0  0  0  0  0  0  0  0
   -0.6346   -2.1632   -0.0737 H   0  0  0  0  0  0  0  0  0  0  0  0
    1.6994   -2.2521   -0.2866 H   0  0  0  0  0  0  0  0  0  0  0  0
    1.7872   -1.0249    0.9949 H   0  0  0  0  0  0  0  0  0  0  0  0
    1.4384    0.8246   -0.5748 H   0  0  0  0  0  0  0  0  0  0  0  0
    1.2295   -0.3145   -1.9369 H   0  0  0  0  0  0  0  0  0  0  0  0
    3.6007   -1.0947   -1.5897 H   0  0  0  0  0  0  0  0  0  0  0  0
    3.6176    0.6042   -2.9705 H   0  0  0  0  0  0  0  0  0  0  0  0
    3.8203   -0.6489    0.8665 H   0  0  0  0  0  0  0  0  0  0  0  0
    4.9946    0.3714   -0.0879 H   0  0  0  0  0  0  0  0  0  0  0  0
    4.0031    1.6929    1.3481 H   0  0  0  0  0  0  0  0  0  0  0  0
  1  2  1  0
  2  3  1  0
  3  4  1  0
  3  5  1  0
  5  6  2  0
  5  7  1  0
  7  8  1  0
  8  9  1  0
  9 10  1  0
 10 11  1  0
 10 12  1  0
 12 13  1  0
  1 14  1  0
  1 15  1  0
  1 16  1  0
  2 17  1  0
  2 18  1  0
  3 19  1  1
  4 20  1  0
  4 21  1  0
  7 22  1  0
  8 23  1  0
  8 24  1  0
  9 25  1  0
  9 26  1  0
 10 27  1  6
 11 28  1  0
 12 29  1  0
 12 30  1  0
 13 31  1  0
M  END
$$$$

     RDKit          3D

 31 30  0  0  0  0  0  0  0  0999 V2000
    3.7360    1.4999   -0.3488 C   0  0  0  0  0  0  0  0  0  0  0  0
    2.5515    0.9118    0.3752 C   0  0  0  0  0  0  0  0  0  0  0  0
    2.2488   -0.4961   -0.1108 C   0  0  1  0  0  0  0  0  0  0  0  0
    3.4134   -1.3161    0.1363 N   0  0  0  0  0  0  0  0  0  0  0  0
    1.1268   -1.0343    0.6974 C   0  0  0  0  0  0  0  0  0  0  0  0
    1.2428   -2.0367    1.4471 O   0  0  0  0  0  0  0  0  0  0  0  0
   -0.1765   -0.4165    0.6574 N   0  0  0  0  0  0  0  0  0  0  0  0
   -1.2658   -0.9292    1.4343 C   0  0  0  0  0  0  0  0  0  0  0  0
   -2.5647   -0.2359    1.2863 C   0  0  0  0  0  0  0  0  0  0  0  0
   -3.2425   -0.2480   -0.0163 C   0  0  1  0  0  0  0  0  0  0  0  0
   -4.4662    0.4537    0.0668 O   0  0  0  0  0  0  0  0  0  0  0  0
   -2.5238    0.2025   -1.2294 C   0  0  0  0  0  0  0  0  0  0  0  0
   -2.2360    1.5643   -1.2786 O   0  0  0  0  0  0  0  0  0  0  0  0
    4.5079    0.7215   -0.5802 H   0  0  0  0  0  0  0  0  0  0  0  0
    3.3894    1.9906   -1.2919 H   0  0  0  0  0  0  0  0  0  0  0  0
    4.2388    2.2848    0.2520 H   0  0  0  0  0  0  0  0  0  0  0  0
    2.7254    0.8531    1.4664 H   0  0  0  0  0  0  0  0  0  0  0  0
    1.6755    1.5834    0.2163 H   0  0  0  0  0  0  0  0  0  0  0  0
    1.9782   -0.4802   -1.1933 H   0  0  0  0  0  0  0  0  0  0  0  0
    3.1752   -2.1604    0.7095 H   0  0  0  0  0  0  0  0  0  0  0  0
    3.9086   -1.6034   -0.7368 H   0  0  0  0  0  0  0  0  0  0  0  0
   -0.2735    0.4055    0.0690 H   0  0  0  0  0  0  0  0  0  0  0  0
   -0.9489   -0.9974    2.5217 H   0  0  0  0  0  0  0  0  0  0  0  0
   -1.3779   -2.0178    1.1552 H   0  0  0  0  0  0  0  0  0  0  0  0
   -3.2719   -0.7480    2.0228 H   0  0  0  0  0  0  0  0  0  0  0  0
   -2.4630    0.7905    1.7327 H   0  0  0  0  0  0  0  0  0  0  0  0
   -3.5605   -1.3168   -0.2186 H   0  0  0  0  0  0  0  0  0  0  0  0
   -4.3264    1.1565    0.7340 H   0  0  0  0  0  0  0  0  0  0  0  0
   -1.6950   -0.4524   -1.5454 H   0  0  0  0  0  0  0  0  0  0  0  0
   -3.2787    0.0701   -2.0854 H   0  0  0  0  0  0  0  0  0  0  0  0
   -2.2470    2.0007   -0.3969 H   0  0  0  0  0  0  0  0  0  0  0  0
  1  2  1  0
  2  3  1  0
  3  4  1  0
  3  5  1  0
  5  6  2  0
  5  7  1  0
  7  8  1  0
  8  9  1  0
  9 10  1  0
 10 11  1  0
 10 12  1  0
 12 13  1  0
  1 14  1  0
  1 15  1  0
  1 16  1  0
  2 17  1  0
  2 18  1  0
  3 19  1  6
  4 20  1  0
  4 21  1  0
  7 22  1  0
  8 23  1  0
  8 24  1  0
  9 25  1  0
  9 26  1  0
 10 27  1  6
 11 28  1  0
 12 29  1  0
 12 30  1  0
 13 31  1  0
M  END
$$$$
