
     RDKit          3D

 31 31  0  0  0  0  0  0  0  0999 V2000
   -3.3243   -0.2809   -1.2073 O   0  0  0  0  0  0  0  0  0  0  0  0
   -2.5689    0.7378   -0.6406 C   0  0  0  0  0  0  0  0  0  0  0  0
   -1.7400    0.2221    0.5095 C   0  0  0  0  0  0  0  0  0  0  0  0
   -2.7651   -0.3326    1.5157 C   0  0  0  0  0  0  0  0  0  0  0  0
   -3.4934   -1.3605    0.8782 O   0  0  0  0  0  0  0  0  0  0  0  0
   -0.8400   -0.9147    0.1642 C   0  0  0  0  0  0  0  0  0  0  0  0
    0.1612   -0.6201   -0.8997 C   0  0  0  0  0  0  0  0  0  0  0  0
    1.0711    0.4261   -0.6679 N   0  0  0  0  0  0  0  0  0  0  0  0
    2.0560    0.2837    0.3276 C   0  0  2  0  0  0  0  0  0  0  0  0
    2.9670    1.5199    0.2743 C   0  0  0  0  0  0  0  0  0  0  0  0
    4.2486    0.9863   -0.2187 N   0  0  0  0  0  0  0  0  0  0  0  0
    4.2661   -0.2093    0.4472 O   0  0  0  0  0  0  0  0  0  0  0  0
    3.0344   -0.8232    0.1546 C   0  0  0  0  0  0  0  0  0  0  0  0
   -3.9165    0.1683   -1.8826 H   0  0  0  0  0  0  0  0  0  0  0  0
   -1.9573    1.2748   -1.3926 H   0  0  0  0  0  0  0  0  0  0  0  0
   -3.2820    1.4794   -0.2044 H   0  0  0  0  0  0  0  0  0  0  0  0
   -1.2423    1.0530    1.0397 H   0  0  0  0  0  0  0  0  0  0  0  0
   -3.5079    0.4426    1.7855 H   0  0  0  0  0  0  0  0  0  0  0  0
   -2.2659   -0.7849    2.3734 H   0  0  0  0  0  0  0  0  0  0  0  0
   -4.2613   -1.6336    1.4208 H   0  0  0  0  0  0  0  0  0  0  0  0
   -1.4990   -1.7396   -0.2237 H   0  0  0  0  0  0  0  0  0  0  0  0
   -0.3502   -1.2709    1.0672 H   0  0  0  0  0  0  0  0  0  0  0  0
   -0.3934   -0.3866   -1.8540 H   0  0  0  0  0  0  0  0  0  0  0  0
    0.7429   -1.5630   -1.0720 H   0  0  0  0  0  0  0  0  0  0  0  0
    1.3894    0.9632   -1.4764 H   0  0  0  0  0  0  0  0  0  0  0  0
    1.6415    0.2456    1.3579 H   0  0  0  0  0  0  0  0  0  0  0  0
    3.1042    1.9575    1.2624 H   0  0  0  0  0  0  0  0  0  0  0  0
    2.5807    2.2553   -0.4491 H   0  0  0  0  0  0  0  0  0  0  0  0
    4.1628    0.7943   -1.2388 H   0  0  0  0  0  0  0  0  0  0  0  0
    2.9108   -1.6279    0.9071 H   0  0  0  0  0  0  0  0  0  0  0  0
    3.0708   -1.2623   -0.8419 H   0  0  0  0  0  0  0  0  0  0  0  0
  1  2  1  0
  2  3  1  0
  3  4  1  0
  4  5  1  0
  3  6  1  0
  6  7  1  0
  7  8  1  0
  8  9  1  0
  9 10  1  0
 10 11  1  0
 11 12  1  0
 12 13  1  0
 13  9  1  0
  1 14  1  0
  2 15  1  0
  2 16  1  0
  3 17  1  0
  4 18  1  0
  4 19  1  0
  5 20  1  0
  6 21  1  0
  6 22  1  0
  7 23  1  0
  7 24  1  0
  8 25  1  0
  9 26  1  1
 10 27  1  0
 10 28  1  0
 11 29  1  0
 13 30  1  0
 13 31  1  0
M  END
$$$$

     RDKit          3D

 31 31  0  0  0  0  0  0  0  0999 V2000
    1.8897    1.5342   -0.7955 O   0  0  0  0  0  0  0  0  0  0  0  0
    2.3857    0.2554   -0.8505 C   0  0  0  0  0  0  0  0  0  0  0  0
    2.2013   -0.5273    0.4274 C   0  0  0  0  0  0  0  0  0  0  0  0
    2.9197    0.1981    1.5475 C   0  0  0  0  0  0  0  0  0  0  0  0
    4.2790    0.3093    1.2682 O   0  0  0  0  0  0  0  0  0  0  0  0
    0.7481   -0.6222    0.8317 C   0  0  0  0  0  0  0  0  0  0  0  0
   -0.1017   -1.2911   -0.1948 C   0  0  0  0  0  0  0  0  0  0  0  0
   -1.4581   -1.3469    0.2453 N   0  0  0  0  0  0  0  0  0  0  0  0
   -2.1185   -0.0883    0.3284 C   0  0  2  0  0  0  0  0  0  0  0  0
   -3.6255   -0.3348    0.4886 C   0  0  0  0  0  0  0  0  0  0  0  0
   -4.1219    0.9465   -0.0370 N   0  0  0  0  0  0  0  0  0  0  0  0
   -3.4036    1.1712   -1.1408 O   0  0  0  0  0  0  0  0  0  0  0  0
   -2.0895    0.7523   -0.9057 C   0  0  0  0  0  0  0  0  0  0  0  0
    2.4536    2.1923   -0.3627 H   0  0  0  0  0  0  0  0  0  0  0  0
    3.4786    0.3117   -1.0252 H   0  0  0  0  0  0  0  0  0  0  0  0
    1.9626   -0.2874   -1.7222 H   0  0  0  0  0  0  0  0  0  0  0  0
    2.6696   -1.5145    0.3138 H   0  0  0  0  0  0  0  0  0  0  0  0
    2.4497    1.2078    1.7282 H   0  0  0  0  0  0  0  0  0  0  0  0
    2.7763   -0.3867    2.4710 H   0  0  0  0  0  0  0  0  0  0  0  0
    4.4883    1.2386    1.0094 H   0  0  0  0  0  0  0  0  0  0  0  0
    0.7028   -1.2288    1.7617 H   0  0  0  0  0  0  0  0  0  0  0  0
    0.3673    0.3741    1.0947 H   0  0  0  0  0  0  0  0  0  0  0  0
   -0.0581   -0.7905   -1.1796 H   0  0  0  0  0  0  0  0  0  0  0  0
    0.2475   -2.3554   -0.3094 H   0  0  0  0  0  0  0  0  0  0  0  0
   -2.0260   -2.1027   -0.1714 H   0  0  0  0  0  0  0  0  0  0  0  0
   -1.8361    0.4978    1.2323 H   0  0  0  0  0  0  0  0  0  0  0  0
   -3.9196   -0.5116    1.5194 H   0  0  0  0  0  0  0  0  0  0  0  0
   -3.9534   -1.1009   -0.2449 H   0  0  0  0  0  0  0  0  0  0  0  0
   -4.0356    1.6994    0.6821 H   0  0  0  0  0  0  0  0  0  0  0  0
   -1.7951    0.1288   -1.7664 H   0  0  0  0  0  0  0  0  0  0  0  0
   -1.4771    1.6717   -0.7849 H   0  0  0  0  0  0  0  0  0  0  0  0
  1  2  1  0
  2  3  1  0
  3  4  1  0
  4  5  1  0
  3  6  1  0
  6  7  1  0
  7  8  1  0
  8  9  1  0
  9 10  1  0
 10 11  1  0
 11 12  1  0
 12 13  1  0
 13  9  1  0
  1 14  1  0
  2 15  1  0
  2 16  1  0
  3 17  1  0
  4 18  1  0
  4 19  1  0
  5 20  1  0
  6 21  1  0
  6 22  1  0
  7 23  1  0
  7 24  1  0
  8 25  1  0
  9 26  1  1
 10 27  1  0
 10 28  1  0
 11 29  1  0
 13 30  1  0
 13 31  1  0
M  END
$$$$

     RDKit          3D

 31 31  0  0  0  0  0  0  0  0999 V2000
   -2.5164   -2.2614   -0.8141 O   0  0  0  0  0  0  0  0  0  0  0  0
   -2.7732   -0.8975   -0.9399 C   0  0  0  0  0  0  0  0  0  0  0  0
   -2.5202   -0.1678    0.3557 C   0  0  0  0  0  0  0  0  0  0  0  0
   -2.8164    1.3175    0.2157 C   0  0  0  0  0  0  0  0  0  0  0  0
   -4.1348    1.5739   -0.1196 O   0  0  0  0  0  0  0  0  0  0  0  0
   -1.1835   -0.3887    0.9451 C   0  0  0  0  0  0  0  0  0  0  0  0
   -0.0010    0.0680    0.1122 C   0  0  0  0  0  0  0  0  0  0  0  0
    1.1758   -0.2476    0.8393 N   0  0  0  0  0  0  0  0  0  0  0  0
    2.3520    0.3183    0.3516 C   0  0  2  0  0  0  0  0  0  0  0  0
    2.7856   -0.0829   -1.0510 C   0  0  0  0  0  0  0  0  0  0  0  0
    4.1557    0.4265   -0.9922 N   0  0  0  0  0  0  0  0  0  0  0  0
    4.6331    0.1517    0.2347 O   0  0  0  0  0  0  0  0  0  0  0  0
    3.6020   -0.1959    1.0799 C   0  0  0  0  0  0  0  0  0  0  0  0
   -2.5663   -2.7441   -1.6802 H   0  0  0  0  0  0  0  0  0  0  0  0
   -2.2066   -0.5125   -1.8018 H   0  0  0  0  0  0  0  0  0  0  0  0
   -3.8704   -0.8436   -1.2059 H   0  0  0  0  0  0  0  0  0  0  0  0
   -3.2793   -0.5269    1.1259 H   0  0  0  0  0  0  0  0  0  0  0  0
   -2.6077    1.7721    1.1987 H   0  0  0  0  0  0  0  0  0  0  0  0
   -2.1360    1.7469   -0.5425 H   0  0  0  0  0  0  0  0  0  0  0  0
   -4.3691    2.5218   -0.1124 H   0  0  0  0  0  0  0  0  0  0  0  0
   -1.0168   -1.4665    1.1732 H   0  0  0  0  0  0  0  0  0  0  0  0
   -1.1346    0.1827    1.8975 H   0  0  0  0  0  0  0  0  0  0  0  0
    0.0373   -0.4776   -0.8617 H   0  0  0  0  0  0  0  0  0  0  0  0
   -0.0346    1.1438   -0.1486 H   0  0  0  0  0  0  0  0  0  0  0  0
    1.1148   -0.2004    1.8650 H   0  0  0  0  0  0  0  0  0  0  0  0
    2.3642    1.4430    0.3965 H   0  0  0  0  0  0  0  0  0  0  0  0
    2.7787   -1.1920   -1.1278 H   0  0  0  0  0  0  0  0  0  0  0  0
    2.1912    0.4210   -1.8269 H   0  0  0  0  0  0  0  0  0  0  0  0
    4.7383    0.1633   -1.7755 H   0  0  0  0  0  0  0  0  0  0  0  0
    3.6997    0.2743    2.0570 H   0  0  0  0  0  0  0  0  0  0  0  0
    3.5381   -1.3196    1.1520 H   0  0  0  0  0  0  0  0  0  0  0  0
  1  2  1  0
  2  3  1  0
  3  4  1  0
  4  5  1  0
  3  6  1  0
  6  7  1  0
  7  8  1  0
  8  9  1  0
  9 10  1  0
 10 11  1  0
 11 12  1  0
 12 13  1  0
 13  9  1  0
  1 14  1  0
  2 15  1  0
  2 16  1  0
  3 17  1  0
  4 18  1  0
  4 19  1  0
  5 20  1  0
  6 21  1  0
  6 22  1  0
  7 23  1  0
  7 24  1  0
  8 25  1  0
  9 26  1  6
 10 27  1  0
 10 28  1  0
 11 29  1  0
 13 30  1  0
 13 31  1  0
M  END
$$$$

     RDKit          3D

 31 31  0  0  0  0  0  0  0  0999 V2000
   -3.4751   -1.2456    1.1122 O   0  0  0  0  0  0  0  0  0  0  0  0
   -3.5757   -0.6980   -0.1710 C   0  0  0  0  0  0  0  0  0  0  0  0
   -2.4042    0.2414   -0.3410 C   0  0  0  0  0  0  0  0  0  0  0  0
   -2.4437    1.3331    0.6941 C   0  0  0  0  0  0  0  0  0  0  0  0
   -3.6406    2.0401    0.5264 O   0  0  0  0  0  0  0  0  0  0  0  0
   -1.1437   -0.5744   -0.2733 C   0  0  0  0  0  0  0  0  0  0  0  0
    0.0982    0.2943   -0.4356 C   0  0  0  0  0  0  0  0  0  0  0  0
    1.2289   -0.6484   -0.3574 N   0  0  0  0  0  0  0  0  0  0  0  0
    2.4837    0.0061   -0.4897 C   0  0  2  0  0  0  0  0  0  0  0  0
    3.4877   -1.0226   -1.0319 C   0  0  0  0  0  0  0  0  0  0  0  0
    4.7255   -0.3925   -0.5499 N   0  0  0  0  0  0  0  0  0  0  0  0
    4.4342   -0.1941    0.7514 O   0  0  0  0  0  0  0  0  0  0  0  0
    3.1535    0.3304    0.8304 C   0  0  0  0  0  0  0  0  0  0  0  0
   -4.0488   -2.0562    1.1384 H   0  0  0  0  0  0  0  0  0  0  0  0
   -4.5423   -0.1602   -0.2765 H   0  0  0  0  0  0  0  0  0  0  0  0
   -3.4818   -1.5164   -0.9160 H   0  0  0  0  0  0  0  0  0  0  0  0
   -2.4829    0.7009   -1.3549 H   0  0  0  0  0  0  0  0  0  0  0  0
   -1.6002    2.0274    0.5615 H   0  0  0  0  0  0  0  0  0  0  0  0
   -2.4695    0.8738    1.7099 H   0  0  0  0  0  0  0  0  0  0  0  0
   -3.4680    2.9185    0.0910 H   0  0  0  0  0  0  0  0  0  0  0  0
   -1.0456   -1.0865    0.6876 H   0  0  0  0  0  0  0  0  0  0  0  0
   -1.1872   -1.3282   -1.0933 H   0  0  0  0  0  0  0  0  0  0  0  0
    0.1321    0.8291   -1.3870 H   0  0  0  0  0  0  0  0  0  0  0  0
    0.1864    0.9561    0.4479 H   0  0  0  0  0  0  0  0  0  0  0  0
    1.2078   -1.1802    0.5243 H   0  0  0  0  0  0  0  0  0  0  0  0
    2.4811    0.8677   -1.1891 H   0  0  0  0  0  0  0  0  0  0  0  0
    3.4584   -1.0919   -2.1179 H   0  0  0  0  0  0  0  0  0  0  0  0
    3.3834   -1.9634   -0.4877 H   0  0  0  0  0  0  0  0  0  0  0  0
    4.7430    0.5453   -1.0457 H   0  0  0  0  0  0  0  0  0  0  0  0
    3.2001    1.4134    1.0312 H   0  0  0  0  0  0  0  0  0  0  0  0
    2.6054   -0.2190    1.6195 H   0  0  0  0  0  0  0  0  0  0  0  0
  1  2  1  0
  2  3  1  0
  3  4  1  0
  4  5  1  0
  3  6  1  0
  6  7  1  0
  7  8  1  0
  8  9  1  0
  9 10  1  0
 10 11  1  0
 11 12  1  0
 12 13  1  0
 13  9  1  0
  1 14  1  0
  2 15  1  0
  2 16  1  0
  3 17  1  0
  4 18  1  0
  4 19  1  0
  5 20  1  0
  6 21  1  0
  6 22  1  0
  7 23  1  0
  7 24  1  0
  8 25  1  0
  9 26  1  6
 10 27  1  0
 10 28  1  0
 11 29  1  0
 13 30  1  0
 13 31  1  0
M  END
$$$$

     RDKit          3D

 31 31  0  0  0  0  0  0  0  0999 V2000
    3.9578    1.3960    0.1118 O   0  0  0  0  0  0  0  0  0  0  0  0
    2.5955    1.4520   -0.2164 C   0  0  0  0  0  0  0  0  0  0  0  0
    2.0246    0.0372   -0.2872 C   0  0  0  0  0  0  0  0  0  0  0  0
    2.1637   -0.6740    1.0097 C   0  0  0  0  0  0  0  0  0  0  0  0
    3.5298   -0.7435    1.3272 O   0  0  0  0  0  0  0  0  0  0  0  0
    0.5831    0.1975   -0.7442 C   0  0  0  0  0  0  0  0  0  0  0  0
   -0.1352   -1.0913   -0.8680 C   0  0  0  0  0  0  0  0  0  0  0  0
   -1.4229   -1.0362   -1.3364 N   0  0  0  0  0  0  0  0  0  0  0  0
   -2.5494   -0.5230   -0.7816 C   0  0  2  0  0  0  0  0  0  0  0  0
   -2.5545    0.9751   -0.6173 C   0  0  0  0  0  0  0  0  0  0  0  0
   -2.5252    1.1366    0.8229 N   0  0  0  0  0  0  0  0  0  0  0  0
   -2.1687   -0.0494    1.3669 O   0  0  0  0  0  0  0  0  0  0  0  0
   -2.9190   -0.9484    0.6178 C   0  0  0  0  0  0  0  0  0  0  0  0
    4.4514    0.9466   -0.6062 H   0  0  0  0  0  0  0  0  0  0  0  0
    2.5438    1.9463   -1.2058 H   0  0  0  0  0  0  0  0  0  0  0  0
    2.0373    2.0876    0.4931 H   0  0  0  0  0  0  0  0  0  0  0  0
    2.5709   -0.5097   -1.0710 H   0  0  0  0  0  0  0  0  0  0  0  0
    1.8878   -1.7584    0.8478 H   0  0  0  0  0  0  0  0  0  0  0  0
    1.5403   -0.2741    1.8074 H   0  0  0  0  0  0  0  0  0  0  0  0
    3.7998   -0.0768    1.9860 H   0  0  0  0  0  0  0  0  0  0  0  0
    0.5423    0.8221   -1.6441 H   0  0  0  0  0  0  0  0  0  0  0  0
    0.1007    0.7858    0.0944 H   0  0  0  0  0  0  0  0  0  0  0  0
    0.0070   -1.6130    0.1200 H   0  0  0  0  0  0  0  0  0  0  0  0
    0.4665   -1.7167   -1.6160 H   0  0  0  0  0  0  0  0  0  0  0  0
   -1.5976   -1.5876   -2.2292 H   0  0  0  0  0  0  0  0  0  0  0  0
   -3.4501   -0.8000   -1.4160 H   0  0  0  0  0  0  0  0  0  0  0  0
   -3.5177    1.4089   -1.0306 H   0  0  0  0  0  0  0  0  0  0  0  0
   -1.6988    1.4700   -1.0799 H   0  0  0  0  0  0  0  0  0  0  0  0
   -3.4942    1.4110    1.1244 H   0  0  0  0  0  0  0  0  0  0  0  0
   -3.9822   -0.6798    0.7722 H   0  0  0  0  0  0  0  0  0  0  0  0
   -2.7869   -1.9909    0.8509 H   0  0  0  0  0  0  0  0  0  0  0  0
  1  2  1  0
  2  3  1  0
  3  4  1  0
  4  5  1  0
  3  6  1  0
  6  7  1  0
  7  8  1  0
  8  9  1  0
  9 10  1  0
 10 11  1  0
 11 12  1  0
 12 13  1  0
 13  9  1  0
  1 14  1  0
  2 15  1  0
  2 16  1  0
  3 17  1  0
  4 18  1  0
  4 19  1  0
  5 20  1  0
  6 21  1  0
  6 22  1  0
  7 23  1  0
  7 24  1  0
  8 25  1  0
  9 26  1  6
 10 27  1  0
 10 28  1  0
 11 29  1  0
 13 30  1  0
 13 31  1  0
M  END
$$$$

     RDKit          3D

 31 31  0  0  0  0  0  0  0  0999 V2000
   -3.2361   -1.0153    0.5133 O   0  0  0  0  0  0  0  0  0  0  0  0
   -2.6017    0.1840    0.8117 C   0  0  0  0  0  0  0  0  0  0  0  0
   -2.0397    0.8774   -0.3838 C   0  0  0  0  0  0  0  0  0  0  0  0
   -3.1238    1.2268   -1.3973 C   0  0  0  0  0  0  0  0  0  0  0  0
   -4.0742    2.0701   -0.8274 O   0  0  0  0  0  0  0  0  0  0  0  0
   -0.9341    0.0930   -1.0400 C   0  0  0  0  0  0  0  0  0  0  0  0
    0.1962   -0.1202   -0.0867 C   0  0  0  0  0  0  0  0  0  0  0  0
    1.2971   -0.8660   -0.7247 N   0  0  0  0  0  0  0  0  0  0  0  0
    2.3158   -1.0028    0.2926 C   0  0  2  0  0  0  0  0  0  0  0  0
    2.8513    0.3412    0.7370 C   0  0  0  0  0  0  0  0  0  0  0  0
    4.1770    0.0094    1.1363 N   0  0  0  0  0  0  0  0  0  0  0  0
    4.5443   -1.1485    0.6278 O   0  0  0  0  0  0  0  0  0  0  0  0
    3.5788   -1.6284   -0.2189 C   0  0  0  0  0  0  0  0  0  0  0  0
   -3.7029   -1.0451   -0.3350 H   0  0  0  0  0  0  0  0  0  0  0  0
   -1.8247    0.0126    1.5608 H   0  0  0  0  0  0  0  0  0  0  0  0
   -3.3309    0.8927    1.3090 H   0  0  0  0  0  0  0  0  0  0  0  0
   -1.6511    1.8695   -0.0254 H   0  0  0  0  0  0  0  0  0  0  0  0
   -3.6330    0.3560   -1.8113 H   0  0  0  0  0  0  0  0  0  0  0  0
   -2.6194    1.7984   -2.2100 H   0  0  0  0  0  0  0  0  0  0  0  0
   -4.3434    2.7429   -1.4793 H   0  0  0  0  0  0  0  0  0  0  0  0
   -1.3495   -0.8999   -1.3851 H   0  0  0  0  0  0  0  0  0  0  0  0
   -0.6032    0.5826   -1.9867 H   0  0  0  0  0  0  0  0  0  0  0  0
    0.5511    0.8675    0.2639 H   0  0  0  0  0  0  0  0  0  0  0  0
   -0.1643   -0.6759    0.8003 H   0  0  0  0  0  0  0  0  0  0  0  0
    0.9716   -1.7609   -1.1000 H   0  0  0  0  0  0  0  0  0  0  0  0
    1.9583   -1.5858    1.1543 H   0  0  0  0  0  0  0  0  0  0  0  0
    2.9035    0.9975   -0.1639 H   0  0  0  0  0  0  0  0  0  0  0  0
    2.2345    0.7894    1.5397 H   0  0  0  0  0  0  0  0  0  0  0  0
    4.2762    0.0658    2.1722 H   0  0  0  0  0  0  0  0  0  0  0  0
    3.5794   -2.7359   -0.1339 H   0  0  0  0  0  0  0  0  0  0  0  0
    3.7969   -1.2921   -1.2394 H   0  0  0  0  0  0  0  0  0  0  0  0
  1  2  1  0
  2  3  1  0
  3  4  1  0
  4  5  1  0
  3  6  1  0
  6  7  1  0
  7  8  1  0
  8  9  1  0
  9 10  1  0
 10 11  1  0
 11 12  1  0
 12 13  1  0
 13  9  1  0
  1 14  1  0
  2 15  1  0
  2 16  1  0
  3 17  1  0
  4 18  1  0
  4 19  1  0
  5 20  1  0
  6 21  1  0
  6 22  1  0
  7 23  1  0
  7 24  1  0
  8 25  1  0
  9 26  1  1
 10 27  1  0
 10 28  1  0
 11 29  1  0
 13 30  1  0
 13 31  1  0
M  END
$$$$

     RDKit          3D

 31 31  0  0  0  0  0  0  0  0999 V2000
   -4.0321   -1.5016    0.0211 O   0  0  0  0  0  0  0  0  0  0  0  0
   -2.8368   -1.3323    0.6782 C   0  0  0  0  0  0  0  0  0  0  0  0
   -2.0782   -0.1676   -0.0024 C   0  0  0  0  0  0  0  0  0  0  0  0
   -2.9582    1.0176    0.1338 C   0  0  0  0  0  0  0  0  0  0  0  0
   -2.4410    2.1472   -0.4367 O   0  0  0  0  0  0  0  0  0  0  0  0
   -0.7017   -0.0739    0.5399 C   0  0  0  0  0  0  0  0  0  0  0  0
    0.1182    1.0147   -0.0483 C   0  0  0  0  0  0  0  0  0  0  0  0
    1.4694    1.0520    0.4912 N   0  0  0  0  0  0  0  0  0  0  0  0
    2.2101   -0.0898    0.0722 C   0  0  2  0  0  0  0  0  0  0  0  0
    3.6407   -0.0440    0.6292 C   0  0  0  0  0  0  0  0  0  0  0  0
    4.2673   -0.9678   -0.3110 N   0  0  0  0  0  0  0  0  0  0  0  0
    3.6640   -0.8649   -1.4765 O   0  0  0  0  0  0  0  0  0  0  0  0
    2.5691   -0.0480   -1.4094 C   0  0  0  0  0  0  0  0  0  0  0  0
   -4.1280   -2.3497   -0.4482 H   0  0  0  0  0  0  0  0  0  0  0  0
   -2.2354   -2.2630    0.5400 H   0  0  0  0  0  0  0  0  0  0  0  0
   -2.9929   -1.0711    1.7366 H   0  0  0  0  0  0  0  0  0  0  0  0
   -2.0512   -0.4530   -1.0907 H   0  0  0  0  0  0  0  0  0  0  0  0
   -3.3146    1.1839    1.1859 H   0  0  0  0  0  0  0  0  0  0  0  0
   -3.9129    0.7743   -0.4218 H   0  0  0  0  0  0  0  0  0  0  0  0
   -2.8710    2.9725   -0.1184 H   0  0  0  0  0  0  0  0  0  0  0  0
   -0.2177   -1.0791    0.3389 H   0  0  0  0  0  0  0  0  0  0  0  0
   -0.7572   -0.0360    1.6513 H   0  0  0  0  0  0  0  0  0  0  0  0
    0.1796    0.9288   -1.1322 H   0  0  0  0  0  0  0  0  0  0  0  0
   -0.3208    2.0011    0.2590 H   0  0  0  0  0  0  0  0  0  0  0  0
    1.3807    1.0109    1.5310 H   0  0  0  0  0  0  0  0  0  0  0  0
    1.8132   -1.0612    0.3733 H   0  0  0  0  0  0  0  0  0  0  0  0
    4.1024    0.9500    0.4375 H   0  0  0  0  0  0  0  0  0  0  0  0
    3.6939   -0.3702    1.6728 H   0  0  0  0  0  0  0  0  0  0  0  0
    4.0755   -1.9352    0.0839 H   0  0  0  0  0  0  0  0  0  0  0  0
    1.7492   -0.3489   -2.0569 H   0  0  0  0  0  0  0  0  0  0  0  0
    2.9163    1.0043   -1.6135 H   0  0  0  0  0  0  0  0  0  0  0  0
  1  2  1  0
  2  3  1  0
  3  4  1  0
  4  5  1  0
  3  6  1  0
  6  7  1  0
  7  8  1  0
  8  9  1  0
  9 10  1  0
 10 11  1  0
 11 12  1  0
 12 13  1  0
 13  9  1  0
  1 14  1  0
  2 15  1  0
  2 16  1  0
  3 17  1  0
  4 18  1  0
  4 19  1  0
  5 20  1  0
  6 21  1  0
  6 22  1  0
  7 23  1  0
  7 24  1  0
  8 25  1  0
  9 26  1  6
 10 27  1  0
 10 28  1  0
 11 29  1  0
 13 30  1  0
 13 31  1  0
M  END
$$$$

     RDKit          3D

 31 31  0  0  0  0  0  0  0  0999 V2000
    3.9561    0.4007    1.5411 O   0  0  0  0  0  0  0  0  0  0  0  0
    3.2847   -0.5719    0.8286 C   0  0  0  0  0  0  0  0  0  0  0  0
    1.8540   -0.1846    0.5062 C   0  0  0  0  0  0  0  0  0  0  0  0
    1.7869    1.0686   -0.3075 C   0  0  0  0  0  0  0  0  0  0  0  0
    2.3925    2.1138    0.4307 O   0  0  0  0  0  0  0  0  0  0  0  0
    1.2791   -1.3590   -0.2869 C   0  0  0  0  0  0  0  0  0  0  0  0
   -0.1346   -1.0289   -0.6361 C   0  0  0  0  0  0  0  0  0  0  0  0
   -0.9699   -0.7924    0.5245 N   0  0  0  0  0  0  0  0  0  0  0  0
   -2.2805   -0.4566    0.0575 C   0  0  2  0  0  0  0  0  0  0  0  0
   -2.3263    0.8241   -0.7541 C   0  0  0  0  0  0  0  0  0  0  0  0
   -3.7592    1.1111   -0.6519 N   0  0  0  0  0  0  0  0  0  0  0  0
   -4.1580    0.7577    0.5495 O   0  0  0  0  0  0  0  0  0  0  0  0
   -3.2697   -0.1244    1.1290 C   0  0  0  0  0  0  0  0  0  0  0  0
    4.9466    0.3355    1.3762 H   0  0  0  0  0  0  0  0  0  0  0  0
    3.1936   -1.4758    1.4844 H   0  0  0  0  0  0  0  0  0  0  0  0
    3.8110   -0.8731   -0.0806 H   0  0  0  0  0  0  0  0  0  0  0  0
    1.2236   -0.0805    1.4017 H   0  0  0  0  0  0  0  0  0  0  0  0
    2.3032    0.9976   -1.2743 H   0  0  0  0  0  0  0  0  0  0  0  0
    0.7415    1.3635   -0.5041 H   0  0  0  0  0  0  0  0  0  0  0  0
    1.7472    2.8786    0.5195 H   0  0  0  0  0  0  0  0  0  0  0  0
    1.4192   -2.3201    0.1940 H   0  0  0  0  0  0  0  0  0  0  0  0
    1.8574   -1.3833   -1.2575 H   0  0  0  0  0  0  0  0  0  0  0  0
   -0.6073   -1.9194   -1.1572 H   0  0  0  0  0  0  0  0  0  0  0  0
   -0.2446   -0.1768   -1.3183 H   0  0  0  0  0  0  0  0  0  0  0  0
   -1.0633   -1.6448    1.1197 H   0  0  0  0  0  0  0  0  0  0  0  0
   -2.6950   -1.2469   -0.5995 H   0  0  0  0  0  0  0  0  0  0  0  0
   -2.0091    0.6994   -1.7870 H   0  0  0  0  0  0  0  0  0  0  0  0
   -1.7618    1.6397   -0.2107 H   0  0  0  0  0  0  0  0  0  0  0  0
   -3.9701    2.0894   -0.9334 H   0  0  0  0  0  0  0  0  0  0  0  0
   -3.7604   -1.0391    1.5201 H   0  0  0  0  0  0  0  0  0  0  0  0
   -2.7866    0.3981    1.9854 H   0  0  0  0  0  0  0  0  0  0  0  0
  1  2  1  0
  2  3  1  0
  3  4  1  0
  4  5  1  0
  3  6  1  0
  6  7  1  0
  7  8  1  0
  8  9  1  0
  9 10  1  0
 10 11  1  0
 11 12  1  0
 12 13  1  0
 13  9  1  0
  1 14  1  0
  2 15  1  0
  2 16  1  0
  3 17  1  0
  4 18  1  0
  4 19  1  0
  5 20  1  0
  6 21  1  0
  6 22  1  0
  7 23  1  0
  7 24  1  0
  8 25  1  0
  9 26  1  6
 10 27  1  0
 10 28  1  0
 11 29  1  0
 13 30  1  0
 13 31  1  0
M  END
$$$$
