
     RDKit          3D

 22 22  0  0  0  0  0  0  0  0999 V2000
   -2.4508   -0.7183   -1.6304 C   0  0  0  0  0  0  0  0  0  0  0  0
   -2.0655   -0.0757   -0.3035 C   0  0  2  0  0  0  0  0  0  0  0  0
   -2.0670    1.2970   -0.3552 O   0  0  0  0  0  0  0  0  0  0  0  0
   -2.9306    1.8800    0.4975 N   0  0  0  0  0  0  0  0  0  0  0  0
   -0.6787   -0.5920    0.0087 C   0  0  0  0  0  0  0  0  0  0  0  0
   -0.4988   -1.8340    0.0932 O   0  0  0  0  0  0  0  0  0  0  0  0
    0.4078    0.2639    0.2062 N   0  0  0  0  0  0  0  0  0  0  0  0
    1.7245   -0.1747    0.5007 C   0  0  0  0  0  0  0  0  0  0  0  0
    2.8053    0.6392    0.6986 N   0  0  0  0  0  0  0  0  0  0  0  0
    3.9050   -0.0868    0.9580 C   0  0  0  0  0  0  0  0  0  0  0  0
    5.1997    0.3530    1.2150 O   0  0  0  0  0  0  0  0  0  0  0  0
    3.5106   -1.3688    0.9226 N   0  0  0  0  0  0  0  0  0  0  0  0
    2.2162   -1.4108    0.6508 N   0  0  0  0  0  0  0  0  0  0  0  0
   -1.7150   -0.4684   -2.4244 H   0  0  0  0  0  0  0  0  0  0  0  0
   -2.4083   -1.8191   -1.4729 H   0  0  0  0  0  0  0  0  0  0  0  0
   -3.4410   -0.3730   -1.9783 H   0  0  0  0  0  0  0  0  0  0  0  0
   -2.7924   -0.4072    0.4461 H   0  0  0  0  0  0  0  0  0  0  0  0
   -2.4702    2.7412    0.8638 H   0  0  0  0  0  0  0  0  0  0  0  0
   -3.8110    2.1785   -0.0120 H   0  0  0  0  0  0  0  0  0  0  0  0
    0.2248    1.3040    0.1286 H   0  0  0  0  0  0  0  0  0  0  0  0
    5.6373    0.9786    0.5425 H   0  0  0  0  0  0  0  0  0  0  0  0
    1.6981   -2.3066    0.5749 H   0  0  0  0  0  0  0  0  0  0  0  0
  1  2  1  0
  2  3  1  0
  3  4  1  0
  2  5  1  0
  5  6  2  0
  5  7  1  0
  7  8  1  0
  8  9  2  0
  9 10  1  0
 10 11  1  0
 10 12  2  0
 12 13  1  0
 13  8  1  0
  1 14  1  0
  1 15  1  0
  1 16  1  0
  2 17  1  1
  4 18  1  0
  4 19  1  0
  7 20  1  0
 11 21  1  0
 13 22  1  0
M  END
$$$$

     RDKit          3D

 22 22  0  0  0  0  0  0  0  0999 V2000
   -2.6949   -1.2065    0.4580 C   0  0  0  0  0  0  0  0  0  0  0  0
   -1.9519    0.1010    0.5620 C   0  0  2  0  0  0  0  0  0  0  0  0
   -2.3402    0.8925   -0.5151 O   0  0  0  0  0  0  0  0  0  0  0  0
   -2.9063    2.0430   -0.1360 N   0  0  0  0  0  0  0  0  0  0  0  0
   -0.4877   -0.0744    0.5655 C   0  0  0  0  0  0  0  0  0  0  0  0
    0.0550   -0.7621    1.4665 O   0  0  0  0  0  0  0  0  0  0  0  0
    0.3464    0.5091   -0.4202 N   0  0  0  0  0  0  0  0  0  0  0  0
    1.7571    0.3537   -0.4365 C   0  0  0  0  0  0  0  0  0  0  0  0
    2.4216   -0.3711    0.4975 N   0  0  0  0  0  0  0  0  0  0  0  0
    3.7278   -0.3161    0.1948 C   0  0  0  0  0  0  0  0  0  0  0  0
    4.7249   -0.9498    0.9404 O   0  0  0  0  0  0  0  0  0  0  0  0
    3.8544    0.4301   -0.9052 N   0  0  0  0  0  0  0  0  0  0  0  0
    2.6612    0.8337   -1.2846 N   0  0  0  0  0  0  0  0  0  0  0  0
   -3.7307   -1.0137    0.8346 H   0  0  0  0  0  0  0  0  0  0  0  0
   -2.7700   -1.4595   -0.6217 H   0  0  0  0  0  0  0  0  0  0  0  0
   -2.2508   -2.0201    1.0405 H   0  0  0  0  0  0  0  0  0  0  0  0
   -2.2247    0.6542    1.4849 H   0  0  0  0  0  0  0  0  0  0  0  0
   -3.8297    2.2257   -0.5924 H   0  0  0  0  0  0  0  0  0  0  0  0
   -2.2526    2.8210   -0.3447 H   0  0  0  0  0  0  0  0  0  0  0  0
   -0.0968    1.0792   -1.1683 H   0  0  0  0  0  0  0  0  0  0  0  0
    5.5374   -1.3246    0.4972 H   0  0  0  0  0  0  0  0  0  0  0  0
    2.4505    1.4346   -2.1170 H   0  0  0  0  0  0  0  0  0  0  0  0
  1  2  1  0
  2  3  1  0
  3  4  1  0
  2  5  1  0
  5  6  2  0
  5  7  1  0
  7  8  1  0
  8  9  2  0
  9 10  1  0
 10 11  1  0
 10 12  2  0
 12 13  1  0
 13  8  1  0
  1 14  1  0
  1 15  1  0
  1 16  1  0
  2 17  1  1
  4 18  1  0
  4 19  1  0
  7 20  1  0
 11 21  1  0
 13 22  1  0
M  END
$$$$

     RDKit          3D

 22 22  0  0  0  0  0  0  0  0999 V2000
   -2.4229   -1.1182    0.1300 C   0  0  0  0  0  0  0  0  0  0  0  0
   -1.9656    0.3136   -0.0969 C   0  0  2  0  0  0  0  0  0  0  0  0
   -2.6864    0.9357   -1.0826 O   0  0  0  0  0  0  0  0  0  0  0  0
   -3.2603    2.0464   -0.5668 N   0  0  0  0  0  0  0  0  0  0  0  0
   -0.4975    0.2610   -0.4242 C   0  0  0  0  0  0  0  0  0  0  0  0
   -0.0605    0.7519   -1.4954 O   0  0  0  0  0  0  0  0  0  0  0  0
    0.3408   -0.3667    0.5381 N   0  0  0  0  0  0  0  0  0  0  0  0
    1.7400   -0.4511    0.2922 C   0  0  0  0  0  0  0  0  0  0  0  0
    2.4078    0.0096   -0.7882 N   0  0  0  0  0  0  0  0  0  0  0  0
    3.7257   -0.2513   -0.6711 C   0  0  0  0  0  0  0  0  0  0  0  0
    4.7345    0.0778   -1.5978 O   0  0  0  0  0  0  0  0  0  0  0  0
    3.8750   -0.8876    0.5086 N   0  0  0  0  0  0  0  0  0  0  0  0
    2.6802   -1.0003    1.0738 N   0  0  0  0  0  0  0  0  0  0  0  0
   -3.3189   -1.3530   -0.5085 H   0  0  0  0  0  0  0  0  0  0  0  0
   -1.6373   -1.8397   -0.1436 H   0  0  0  0  0  0  0  0  0  0  0  0
   -2.6757   -1.2665    1.1913 H   0  0  0  0  0  0  0  0  0  0  0  0
   -2.0350    0.8685    0.8545 H   0  0  0  0  0  0  0  0  0  0  0  0
   -3.8337    1.7888    0.2744 H   0  0  0  0  0  0  0  0  0  0  0  0
   -2.4588    2.6184   -0.1713 H   0  0  0  0  0  0  0  0  0  0  0  0
   -0.0281   -0.7726    1.4261 H   0  0  0  0  0  0  0  0  0  0  0  0
    4.9269    1.0830   -1.6994 H   0  0  0  0  0  0  0  0  0  0  0  0
    2.4498   -1.4479    2.0014 H   0  0  0  0  0  0  0  0  0  0  0  0
  1  2  1  0
  2  3  1  0
  3  4  1  0
  2  5  1  0
  5  6  2  0
  5  7  1  0
  7  8  1  0
  8  9  2  0
  9 10  1  0
 10 11  1  0
 10 12  2  0
 12 13  1  0
 13  8  1  0
  1 14  1  0
  1 15  1  0
  1 16  1  0
  2 17  1  1
  4 18  1  0
  4 19  1  0
  7 20  1  0
 11 21  1  0
 13 22  1  0
M  END
$$$$

     RDKit          3D

 22 22  0  0  0  0  0  0  0  0999 V2000
   -2.2490    1.8290   -0.3821 C   0  0  0  0  0  0  0  0  0  0  0  0
   -1.7807    0.4264   -0.6994 C   0  0  2  0  0  0  0  0  0  0  0  0
   -2.5006   -0.5448   -0.0607 O   0  0  0  0  0  0  0  0  0  0  0  0
   -3.1800   -1.3686   -0.8696 N   0  0  0  0  0  0  0  0  0  0  0  0
   -0.3336    0.3674   -0.4755 C   0  0  0  0  0  0  0  0  0  0  0  0
    0.3898    1.2307   -1.0333 O   0  0  0  0  0  0  0  0  0  0  0  0
    0.3004   -0.6078    0.3345 N   0  0  0  0  0  0  0  0  0  0  0  0
    1.7045   -0.6492    0.5399 C   0  0  0  0  0  0  0  0  0  0  0  0
    2.6187    0.1711    0.0381 N   0  0  0  0  0  0  0  0  0  0  0  0
    3.8288   -0.2079    0.4726 C   0  0  0  0  0  0  0  0  0  0  0  0
    5.0782    0.3432    0.2143 O   0  0  0  0  0  0  0  0  0  0  0  0
    3.6489   -1.2838    1.2572 N   0  0  0  0  0  0  0  0  0  0  0  0
    2.3526   -1.5426    1.2904 N   0  0  0  0  0  0  0  0  0  0  0  0
   -3.0056    2.1857   -1.1166 H   0  0  0  0  0  0  0  0  0  0  0  0
   -2.6966    1.9143    0.6255 H   0  0  0  0  0  0  0  0  0  0  0  0
   -1.3920    2.5284   -0.4691 H   0  0  0  0  0  0  0  0  0  0  0  0
   -1.9447    0.2877   -1.8049 H   0  0  0  0  0  0  0  0  0  0  0  0
   -3.8953   -0.7694   -1.3749 H   0  0  0  0  0  0  0  0  0  0  0  0
   -3.7587   -1.9925   -0.2424 H   0  0  0  0  0  0  0  0  0  0  0  0
   -0.3286   -1.3138    0.7859 H   0  0  0  0  0  0  0  0  0  0  0  0
    5.2124    1.3294    0.0284 H   0  0  0  0  0  0  0  0  0  0  0  0
    1.9310   -2.3328    1.8307 H   0  0  0  0  0  0  0  0  0  0  0  0
  1  2  1  0
  2  3  1  0
  3  4  1  0
  2  5  1  0
  5  6  2  0
  5  7  1  0
  7  8  1  0
  8  9  2  0
  9 10  1  0
 10 11  1  0
 10 12  2  0
 12 13  1  0
 13  8  1  0
  1 14  1  0
  1 15  1  0
  1 16  1  0
  2 17  1  6
  4 18  1  0
  4 19  1  0
  7 20  1  0
 11 21  1  0
 13 22  1  0
M  END
$$$$

     RDKit          3D

 22 22  0  0  0  0  0  0  0  0999 V2000
   -2.5987   -0.4905    1.3199 C   0  0  0  0  0  0  0  0  0  0  0  0
   -2.0106    0.1312    0.0688 C   0  0  2  0  0  0  0  0  0  0  0  0
   -2.2676   -0.6240   -1.0629 O   0  0  0  0  0  0  0  0  0  0  0  0
   -2.9330    0.0916   -1.9951 N   0  0  0  0  0  0  0  0  0  0  0  0
   -0.5335    0.2296    0.3026 C   0  0  0  0  0  0  0  0  0  0  0  0
   -0.1542    0.8879    1.2982 O   0  0  0  0  0  0  0  0  0  0  0  0
    0.4088   -0.3848   -0.5493 N   0  0  0  0  0  0  0  0  0  0  0  0
    1.7930   -0.2596   -0.2816 C   0  0  0  0  0  0  0  0  0  0  0  0
    2.3118    0.4152    0.7469 N   0  0  0  0  0  0  0  0  0  0  0  0
    3.6366    0.3455    0.7230 C   0  0  0  0  0  0  0  0  0  0  0  0
    4.5043    0.9264    1.6334 O   0  0  0  0  0  0  0  0  0  0  0  0
    3.9445   -0.3907   -0.3468 N   0  0  0  0  0  0  0  0  0  0  0  0
    2.8386   -0.7653   -0.9665 N   0  0  0  0  0  0  0  0  0  0  0  0
   -2.2214   -1.5344    1.3576 H   0  0  0  0  0  0  0  0  0  0  0  0
   -2.1764    0.0545    2.1776 H   0  0  0  0  0  0  0  0  0  0  0  0
   -3.6916   -0.4304    1.3494 H   0  0  0  0  0  0  0  0  0  0  0  0
   -2.4024    1.1606   -0.0255 H   0  0  0  0  0  0  0  0  0  0  0  0
   -2.4675    1.0145   -2.1929 H   0  0  0  0  0  0  0  0  0  0  0  0
   -3.9192    0.2150   -1.7058 H   0  0  0  0  0  0  0  0  0  0  0  0
    0.1180   -0.9352   -1.3803 H   0  0  0  0  0  0  0  0  0  0  0  0
    5.0945    1.6895    1.3618 H   0  0  0  0  0  0  0  0  0  0  0  0
    2.7262   -1.3467   -1.8325 H   0  0  0  0  0  0  0  0  0  0  0  0
  1  2  1  0
  2  3  1  0
  3  4  1  0
  2  5  1  0
  5  6  2  0
  5  7  1  0
  7  8  1  0
  8  9  2  0
  9 10  1  0
 10 11  1  0
 10 12  2  0
 12 13  1  0
 13  8  1  0
  1 14  1  0
  1 15  1  0
  1 16  1  0
  2 17  1  6
  4 18  1  0
  4 19  1  0
  7 20  1  0
 11 21  1  0
 13 22  1  0
M  END
$$$$

     RDKit          3D

 22 22  0  0  0  0  0  0  0  0999 V2000
   -2.4414   -1.0792   -0.1835 C   0  0  0  0  0  0  0  0  0  0  0  0
   -1.9244    0.2816    0.2907 C   0  0  2  0  0  0  0  0  0  0  0  0
   -2.6573    1.3109   -0.2618 O   0  0  0  0  0  0  0  0  0  0  0  0
   -3.2560    2.0044    0.7170 N   0  0  0  0  0  0  0  0  0  0  0  0
   -0.4950    0.3330   -0.0785 C   0  0  0  0  0  0  0  0  0  0  0  0
   -0.0669    1.2426   -0.8173 O   0  0  0  0  0  0  0  0  0  0  0  0
    0.3810   -0.6559    0.4122 N   0  0  0  0  0  0  0  0  0  0  0  0
    1.7584   -0.6439    0.0829 C   0  0  0  0  0  0  0  0  0  0  0  0
    2.3653    0.2573   -0.6916 N   0  0  0  0  0  0  0  0  0  0  0  0
    3.6713   -0.0550   -0.7764 C   0  0  0  0  0  0  0  0  0  0  0  0
    4.6288    0.6327   -1.4827 O   0  0  0  0  0  0  0  0  0  0  0  0
    3.8536   -1.1620   -0.0412 N   0  0  0  0  0  0  0  0  0  0  0  0
    2.6877   -1.5058    0.4720 N   0  0  0  0  0  0  0  0  0  0  0  0
   -2.0065   -1.2317   -1.1946 H   0  0  0  0  0  0  0  0  0  0  0  0
   -1.9867   -1.8303    0.4798 H   0  0  0  0  0  0  0  0  0  0  0  0
   -3.5298   -1.0960   -0.2339 H   0  0  0  0  0  0  0  0  0  0  0  0
   -2.0226    0.2963    1.4119 H   0  0  0  0  0  0  0  0  0  0  0  0
   -2.6965    2.0529    1.5906 H   0  0  0  0  0  0  0  0  0  0  0  0
   -3.5208    2.9568    0.3747 H   0  0  0  0  0  0  0  0  0  0  0  0
    0.0074   -1.4119    1.0304 H   0  0  0  0  0  0  0  0  0  0  0  0
    4.6867    1.6556   -1.4799 H   0  0  0  0  0  0  0  0  0  0  0  0
    2.5638   -2.3525    1.0957 H   0  0  0  0  0  0  0  0  0  0  0  0
  1  2  1  0
  2  3  1  0
  3  4  1  0
  2  5  1  0
  5  6  2  0
  5  7  1  0
  7  8  1  0
  8  9  2  0
  9 10  1  0
 10 11  1  0
 10 12  2  0
 12 13  1  0
 13  8  1  0
  1 14  1  0
  1 15  1  0
  1 16  1  0
  2 17  1  1
  4 18  1  0
  4 19  1  0
  7 20  1  0
 11 21  1  0
 13 22  1  0
M  END
$$$$

     RDKit          3D

 22 22  0  0  0  0  0  0  0  0999 V2000
    2.4807   -0.7974    0.7993 C   0  0  0  0  0  0  0  0  0  0  0  0
    1.8745    0.3975    0.0647 C   0  0  2  0  0  0  0  0  0  0  0  0
    2.3850    1.5331    0.6784 O   0  0  0  0  0  0  0  0  0  0  0  0
    3.1234    2.2710   -0.1898 N   0  0  0  0  0  0  0  0  0  0  0  0
    0.3967    0.3699    0.1839 C   0  0  0  0  0  0  0  0  0  0  0  0
   -0.1962    1.3076    0.7835 O   0  0  0  0  0  0  0  0  0  0  0  0
   -0.3388   -0.7005   -0.3712 N   0  0  0  0  0  0  0  0  0  0  0  0
   -1.7672   -0.7245   -0.2544 C   0  0  0  0  0  0  0  0  0  0  0  0
   -2.5425    0.1798    0.3425 N   0  0  0  0  0  0  0  0  0  0  0  0
   -3.8400   -0.1941    0.2439 C   0  0  0  0  0  0  0  0  0  0  0  0
   -4.9048    0.5236    0.7588 O   0  0  0  0  0  0  0  0  0  0  0  0
   -3.8463   -1.3442   -0.4243 N   0  0  0  0  0  0  0  0  0  0  0  0
   -2.5885   -1.6705   -0.7292 N   0  0  0  0  0  0  0  0  0  0  0  0
    3.5643   -0.6097    0.8485 H   0  0  0  0  0  0  0  0  0  0  0  0
    2.0332   -0.7754    1.8221 H   0  0  0  0  0  0  0  0  0  0  0  0
    2.2164   -1.6907    0.2342 H   0  0  0  0  0  0  0  0  0  0  0  0
    2.1920    0.3656   -0.9862 H   0  0  0  0  0  0  0  0  0  0  0  0
    3.0517    1.9294   -1.1689 H   0  0  0  0  0  0  0  0  0  0  0  0
    4.1117    2.3024    0.1580 H   0  0  0  0  0  0  0  0  0  0  0  0
    0.1476   -1.4738   -0.8654 H   0  0  0  0  0  0  0  0  0  0  0  0
   -5.2848    1.3186    0.2556 H   0  0  0  0  0  0  0  0  0  0  0  0
   -2.2683   -2.5179   -1.2514 H   0  0  0  0  0  0  0  0  0  0  0  0
  1  2  1  0
  2  3  1  0
  3  4  1  0
  2  5  1  0
  5  6  2  0
  5  7  1  0
  7  8  1  0
  8  9  2  0
  9 10  1  0
 10 11  1  0
 10 12  2  0
 12 13  1  0
 13  8  1  0
  1 14  1  0
  1 15  1  0
  1 16  1  0
  2 17  1  6
  4 18  1  0
  4 19  1  0
  7 20  1  0
 11 21  1  0
 13 22  1  0
M  END
$$$$

     RDKit          3D

 22 22  0  0  0  0  0  0  0  0999 V2000
   -2.2762    1.9283   -0.6043 C   0  0  0  0  0  0  0  0  0  0  0  0
   -1.9908    0.5240   -0.1201 C   0  0  2  0  0  0  0  0  0  0  0  0
   -2.1476    0.4324    1.2526 O   0  0  0  0  0  0  0  0  0  0  0  0
   -3.0781   -0.4758    1.5845 N   0  0  0  0  0  0  0  0  0  0  0  0
   -0.6000    0.1579   -0.5374 C   0  0  0  0  0  0  0  0  0  0  0  0
   -0.3327    0.2017   -1.7573 O   0  0  0  0  0  0  0  0  0  0  0  0
    0.3722   -0.2227    0.4142 N   0  0  0  0  0  0  0  0  0  0  0  0
    1.7076   -0.5788    0.0586 C   0  0  0  0  0  0  0  0  0  0  0  0
    2.6557   -0.9474    0.9615 N   0  0  0  0  0  0  0  0  0  0  0  0
    3.8050   -1.2217    0.3349 C   0  0  0  0  0  0  0  0  0  0  0  0
    4.9971   -1.6324    0.9435 O   0  0  0  0  0  0  0  0  0  0  0  0
    3.5812   -1.0262   -0.9600 N   0  0  0  0  0  0  0  0  0  0  0  0
    2.3090   -0.6354   -1.1365 N   0  0  0  0  0  0  0  0  0  0  0  0
   -1.3436    2.4376   -0.9090 H   0  0  0  0  0  0  0  0  0  0  0  0
   -2.9746    1.9052   -1.4559 H   0  0  0  0  0  0  0  0  0  0  0  0
   -2.7702    2.4919    0.2380 H   0  0  0  0  0  0  0  0  0  0  0  0
   -2.6898   -0.1917   -0.5906 H   0  0  0  0  0  0  0  0  0  0  0  0
   -4.0332   -0.1978    1.2845 H   0  0  0  0  0  0  0  0  0  0  0  0
   -2.7964   -1.4035    1.2171 H   0  0  0  0  0  0  0  0  0  0  0  0
    0.1009   -0.2459    1.4394 H   0  0  0  0  0  0  0  0  0  0  0  0
    5.6568   -0.8902    1.1944 H   0  0  0  0  0  0  0  0  0  0  0  0
    1.8478   -0.4094   -2.0412 H   0  0  0  0  0  0  0  0  0  0  0  0
  1  2  1  0
  2  3  1  0
  3  4  1  0
  2  5  1  0
  5  6  2  0
  5  7  1  0
  7  8  1  0
  8  9  2  0
  9 10  1  0
 10 11  1  0
 10 12  2  0
 12 13  1  0
 13  8  1  0
  1 14  1  0
  1 15  1  0
  1 16  1  0
  2 17  1  6
  4 18  1  0
  4 19  1  0
  7 20  1  0
 11 21  1  0
 13 22  1  0
M  END
$$$$
