
     RDKit          3D

 26 27  0  0  0  0  0  0  0  0999 V2000
   -4.2421    0.7906   -0.1501 N   0  0  0  0  0  0  0  0  0  0  0  0
   -3.1674   -0.1534   -0.1177 C   0  0  0  0  0  0  0  0  0  0  0  0
   -3.3672   -1.2483   -0.7052 O   0  0  0  0  0  0  0  0  0  0  0  0
   -1.9170    0.2043    0.5923 C   0  0  0  0  0  0  0  0  0  0  0  0
   -0.9891   -0.9100    0.4803 N   0  0  0  0  0  0  0  0  0  0  0  0
    0.1242   -0.7531    1.3831 C   0  0  0  0  0  0  0  0  0  0  0  0
    1.3659   -0.8802    0.5771 C   0  0  1  0  0  0  0  0  0  0  0  0
    1.0097   -0.7516   -0.8615 C   0  0  1  0  0  0  0  0  0  0  0  0
   -0.4657   -0.9522   -0.8687 C   0  0  0  0  0  0  0  0  0  0  0  0
    1.7336    0.3331   -0.2244 C   0  0  2  0  0  0  0  0  0  0  0  0
    3.2073    0.4214   -0.4383 C   0  0  0  0  0  0  0  0  0  0  0  0
    3.8964    1.6466   -0.1615 N   0  0  0  0  0  0  0  0  0  0  0  0
    3.8602   -0.5586   -0.8555 O   0  0  0  0  0  0  0  0  0  0  0  0
   -4.2972    1.5062    0.5959 H   0  0  0  0  0  0  0  0  0  0  0  0
   -4.9338    0.7475   -0.9009 H   0  0  0  0  0  0  0  0  0  0  0  0
   -2.0281    0.6194    1.5896 H   0  0  0  0  0  0  0  0  0  0  0  0
   -1.4632    1.0146   -0.0886 H   0  0  0  0  0  0  0  0  0  0  0  0
    0.1452    0.2446    1.8693 H   0  0  0  0  0  0  0  0  0  0  0  0
    0.0557   -1.5965    2.1073 H   0  0  0  0  0  0  0  0  0  0  0  0
    2.1042   -1.6894    0.7715 H   0  0  0  0  0  0  0  0  0  0  0  0
    1.5381   -1.3471   -1.6513 H   0  0  0  0  0  0  0  0  0  0  0  0
   -0.9588   -0.1871   -1.5066 H   0  0  0  0  0  0  0  0  0  0  0  0
   -0.7400   -1.9301   -1.2958 H   0  0  0  0  0  0  0  0  0  0  0  0
    1.2554    1.2837    0.1066 H   0  0  0  0  0  0  0  0  0  0  0  0
    4.4517    1.7432    0.7269 H   0  0  0  0  0  0  0  0  0  0  0  0
    3.8220    2.4021   -0.8560 H   0  0  0  0  0  0  0  0  0  0  0  0
  1  2  1  0
  2  3  2  0
  2  4  1  0
  4  5  1  0
  5  6  1  0
  6  7  1  0
  7  8  1  0
  8  9  1  0
  8 10  1  0
 10 11  1  0
 11 12  1  0
 11 13  2  0
  9  5  1  0
 10  7  1  0
  1 14  1  0
  1 15  1  0
  4 16  1  0
  4 17  1  0
  6 18  1  0
  6 19  1  0
  7 20  1  6
  8 21  1  6
  9 22  1  0
  9 23  1  0
 10 24  1  1
 12 25  1  0
 12 26  1  0
M  END
$$$$

     RDKit          3D

 26 27  0  0  0  0  0  0  0  0999 V2000
    3.0102    0.2328    1.5524 N   0  0  0  0  0  0  0  0  0  0  0  0
    3.2484   -0.4659    0.3579 C   0  0  0  0  0  0  0  0  0  0  0  0
    4.4446   -0.8476    0.1517 O   0  0  0  0  0  0  0  0  0  0  0  0
    2.2294   -0.7678   -0.6276 C   0  0  0  0  0  0  0  0  0  0  0  0
    0.9053   -0.3775   -0.4268 N   0  0  0  0  0  0  0  0  0  0  0  0
    0.2037   -1.0625    0.6000 C   0  0  0  0  0  0  0  0  0  0  0  0
   -1.1538   -0.3752    0.5478 C   0  0  1  0  0  0  0  0  0  0  0  0
   -0.9224    1.0046    0.0030 C   0  0  1  0  0  0  0  0  0  0  0  0
    0.5758    0.9990   -0.3130 C   0  0  0  0  0  0  0  0  0  0  0  0
   -1.7389    0.0370   -0.7738 C   0  0  2  0  0  0  0  0  0  0  0  0
   -3.2066    0.1104   -0.7690 C   0  0  0  0  0  0  0  0  0  0  0  0
   -3.9656    0.5270    0.3371 N   0  0  0  0  0  0  0  0  0  0  0  0
   -3.8200   -0.2242   -1.8393 O   0  0  0  0  0  0  0  0  0  0  0  0
    2.6526   -0.1793    2.4396 H   0  0  0  0  0  0  0  0  0  0  0  0
    3.2122    1.2691    1.5958 H   0  0  0  0  0  0  0  0  0  0  0  0
    2.2059   -1.9004   -0.8102 H   0  0  0  0  0  0  0  0  0  0  0  0
    2.5394   -0.3940   -1.6575 H   0  0  0  0  0  0  0  0  0  0  0  0
    0.5989   -0.8862    1.6028 H   0  0  0  0  0  0  0  0  0  0  0  0
    0.1019   -2.1315    0.3464 H   0  0  0  0  0  0  0  0  0  0  0  0
   -1.7791   -0.4964    1.4441 H   0  0  0  0  0  0  0  0  0  0  0  0
   -1.3700    1.8481    0.5230 H   0  0  0  0  0  0  0  0  0  0  0  0
    0.7477    1.5548   -1.2545 H   0  0  0  0  0  0  0  0  0  0  0  0
    1.1156    1.4929    0.5394 H   0  0  0  0  0  0  0  0  0  0  0  0
   -1.2799   -0.3221   -1.7132 H   0  0  0  0  0  0  0  0  0  0  0  0
   -4.9265    0.1492    0.4973 H   0  0  0  0  0  0  0  0  0  0  0  0
   -3.6289    1.2055    1.0341 H   0  0  0  0  0  0  0  0  0  0  0  0
  1  2  1  0
  2  3  2  0
  2  4  1  0
  4  5  1  0
  5  6  1  0
  6  7  1  0
  7  8  1  0
  8  9  1  0
  8 10  1  0
 10 11  1  0
 11 12  1  0
 11 13  2  0
  9  5  1  0
 10  7  1  0
  1 14  1  0
  1 15  1  0
  4 16  1  0
  4 17  1  0
  6 18  1  0
  6 19  1  0
  7 20  1  1
  8 21  1  1
  9 22  1  0
  9 23  1  0
 10 24  1  6
 12 25  1  0
 12 26  1  0
M  END
$$$$

     RDKit          3D

 26 27  0  0  0  0  0  0  0  0999 V2000
   -2.9572    1.3606   -0.5790 N   0  0  0  0  0  0  0  0  0  0  0  0
   -3.2770    0.0304   -0.2173 C   0  0  0  0  0  0  0  0  0  0  0  0
   -4.5090   -0.2392   -0.1194 O   0  0  0  0  0  0  0  0  0  0  0  0
   -2.2778   -1.0084    0.0405 C   0  0  0  0  0  0  0  0  0  0  0  0
   -0.9266   -0.5158   -0.1159 N   0  0  0  0  0  0  0  0  0  0  0  0
   -0.5401    0.4261    0.8874 C   0  0  0  0  0  0  0  0  0  0  0  0
    0.9304    0.5887    0.6706 C   0  0  1  0  0  0  0  0  0  0  0  0
    1.3293   -0.8523    0.2964 C   0  0  1  0  0  0  0  0  0  0  0  0
    0.0450   -1.5924    0.1134 C   0  0  0  0  0  0  0  0  0  0  0  0
    1.5901    0.2708   -0.6154 C   0  0  2  0  0  0  0  0  0  0  0  0
    2.9837    0.7507   -0.7370 C   0  0  0  0  0  0  0  0  0  0  0  0
    3.8304    0.7137    0.3970 N   0  0  0  0  0  0  0  0  0  0  0  0
    3.4058    1.1773   -1.8137 O   0  0  0  0  0  0  0  0  0  0  0  0
   -3.3592    2.1363   -0.0184 H   0  0  0  0  0  0  0  0  0  0  0  0
   -2.3399    1.5833   -1.3773 H   0  0  0  0  0  0  0  0  0  0  0  0
   -2.4162   -1.7879   -0.7612 H   0  0  0  0  0  0  0  0  0  0  0  0
   -2.4563   -1.4455    1.0348 H   0  0  0  0  0  0  0  0  0  0  0  0
   -1.0994    1.3652    0.8979 H   0  0  0  0  0  0  0  0  0  0  0  0
   -0.6509   -0.1009    1.8808 H   0  0  0  0  0  0  0  0  0  0  0  0
    1.4802    1.1166    1.4450 H   0  0  0  0  0  0  0  0  0  0  0  0
    2.1146   -1.2634    0.9629 H   0  0  0  0  0  0  0  0  0  0  0  0
   -0.2442   -2.1697    1.0173 H   0  0  0  0  0  0  0  0  0  0  0  0
    0.0873   -2.2726   -0.7538 H   0  0  0  0  0  0  0  0  0  0  0  0
    0.9875    0.3094   -1.5732 H   0  0  0  0  0  0  0  0  0  0  0  0
    4.4425   -0.1132    0.5974 H   0  0  0  0  0  0  0  0  0  0  0  0
    3.8272    1.5325    1.0332 H   0  0  0  0  0  0  0  0  0  0  0  0
  1  2  1  0
  2  3  2  0
  2  4  1  0
  4  5  1  0
  5  6  1  0
  6  7  1  0
  7  8  1  0
  8  9  1  0
  8 10  1  0
 10 11  1  0
 11 12  1  0
 11 13  2  0
  9  5  1  0
 10  7  1  0
  1 14  1  0
  1 15  1  0
  4 16  1  0
  4 17  1  0
  6 18  1  0
  6 19  1  0
  7 20  1  1
  8 21  1  1
  9 22  1  0
  9 23  1  0
 10 24  1  6
 12 25  1  0
 12 26  1  0
M  END
$$$$

     RDKit          3D

 26 27  0  0  0  0  0  0  0  0999 V2000
   -4.0641    1.4977    0.7935 N   0  0  0  0  0  0  0  0  0  0  0  0
   -3.0770    0.7412    0.0857 C   0  0  0  0  0  0  0  0  0  0  0  0
   -3.1309    0.6863   -1.1629 O   0  0  0  0  0  0  0  0  0  0  0  0
   -2.0489    0.0705    0.9148 C   0  0  0  0  0  0  0  0  0  0  0  0
   -1.1154   -0.6562    0.0826 N   0  0  0  0  0  0  0  0  0  0  0  0
   -0.1086   -1.3234    0.8415 C   0  0  0  0  0  0  0  0  0  0  0  0
    1.1147   -1.2957   -0.0116 C   0  0  1  0  0  0  0  0  0  0  0  0
    0.8775   -0.3798   -1.1507 C   0  0  1  0  0  0  0  0  0  0  0  0
   -0.5255    0.1178   -0.9524 C   0  0  0  0  0  0  0  0  0  0  0  0
    1.8806    0.0207   -0.1517 C   0  0  2  0  0  0  0  0  0  0  0  0
    3.3281   -0.1828   -0.3793 C   0  0  0  0  0  0  0  0  0  0  0  0
    4.3287    0.6157    0.2335 N   0  0  0  0  0  0  0  0  0  0  0  0
    3.6511   -1.1262   -1.1666 O   0  0  0  0  0  0  0  0  0  0  0  0
   -5.0504    1.4927    0.4540 H   0  0  0  0  0  0  0  0  0  0  0  0
   -3.8217    2.0518    1.6379 H   0  0  0  0  0  0  0  0  0  0  0  0
   -1.5468    0.7652    1.6151 H   0  0  0  0  0  0  0  0  0  0  0  0
   -2.5696   -0.6822    1.5452 H   0  0  0  0  0  0  0  0  0  0  0  0
   -0.3996   -2.3954    0.9716 H   0  0  0  0  0  0  0  0  0  0  0  0
    0.0569   -0.8444    1.8276 H   0  0  0  0  0  0  0  0  0  0  0  0
    1.6269   -2.2397   -0.2481 H   0  0  0  0  0  0  0  0  0  0  0  0
    1.2048   -0.7092   -2.1643 H   0  0  0  0  0  0  0  0  0  0  0  0
   -1.0746   -0.1117   -1.9134 H   0  0  0  0  0  0  0  0  0  0  0  0
   -0.5785    1.2117   -0.7949 H   0  0  0  0  0  0  0  0  0  0  0  0
    1.6290    0.8409    0.5312 H   0  0  0  0  0  0  0  0  0  0  0  0
    4.2117    1.6440    0.3357 H   0  0  0  0  0  0  0  0  0  0  0  0
    5.2016    0.1907    0.5944 H   0  0  0  0  0  0  0  0  0  0  0  0
  1  2  1  0
  2  3  2  0
  2  4  1  0
  4  5  1  0
  5  6  1  0
  6  7  1  0
  7  8  1  0
  8  9  1  0
  8 10  1  0
 10 11  1  0
 11 12  1  0
 11 13  2  0
  9  5  1  0
 10  7  1  0
  1 14  1  0
  1 15  1  0
  4 16  1  0
  4 17  1  0
  6 18  1  0
  6 19  1  0
  7 20  1  6
  8 21  1  6
  9 22  1  0
  9 23  1  0
 10 24  1  1
 12 25  1  0
 12 26  1  0
M  END
$$$$

     RDKit          3D

 26 27  0  0  0  0  0  0  0  0999 V2000
   -3.6096    0.7727    0.3732 N   0  0  0  0  0  0  0  0  0  0  0  0
   -3.4391   -0.6239    0.2604 C   0  0  0  0  0  0  0  0  0  0  0  0
   -4.3649   -1.4208    0.5166 O   0  0  0  0  0  0  0  0  0  0  0  0
   -2.1090   -1.1342   -0.1854 C   0  0  0  0  0  0  0  0  0  0  0  0
   -1.2109    0.0253   -0.3727 N   0  0  0  0  0  0  0  0  0  0  0  0
   -0.0469   -0.5236   -1.0681 C   0  0  0  0  0  0  0  0  0  0  0  0
    0.9913    0.5147   -0.7225 C   0  0  1  0  0  0  0  0  0  0  0  0
    0.7494    0.8697    0.7209 C   0  0  1  0  0  0  0  0  0  0  0  0
   -0.6223    0.3219    0.9429 C   0  0  0  0  0  0  0  0  0  0  0  0
    1.9128    0.0597    0.3897 C   0  0  2  0  0  0  0  0  0  0  0  0
    3.2633    0.6587    0.2639 C   0  0  0  0  0  0  0  0  0  0  0  0
    4.4257   -0.1601    0.2554 N   0  0  0  0  0  0  0  0  0  0  0  0
    3.4283    1.9096    0.1597 O   0  0  0  0  0  0  0  0  0  0  0  0
   -4.1150    1.1606    1.1714 H   0  0  0  0  0  0  0  0  0  0  0  0
   -3.2252    1.3836   -0.3630 H   0  0  0  0  0  0  0  0  0  0  0  0
   -1.6818   -1.7143    0.6766 H   0  0  0  0  0  0  0  0  0  0  0  0
   -2.1459   -1.7783   -1.0685 H   0  0  0  0  0  0  0  0  0  0  0  0
   -0.2354   -0.6250   -2.1521 H   0  0  0  0  0  0  0  0  0  0  0  0
    0.1629   -1.5110   -0.6086 H   0  0  0  0  0  0  0  0  0  0  0  0
    1.2168    1.3593   -1.3641 H   0  0  0  0  0  0  0  0  0  0  0  0
    0.9571    1.9147    1.0739 H   0  0  0  0  0  0  0  0  0  0  0  0
   -0.6604   -0.6000    1.5534 H   0  0  0  0  0  0  0  0  0  0  0  0
   -1.2588    1.0920    1.4098 H   0  0  0  0  0  0  0  0  0  0  0  0
    1.9281   -1.0430    0.5597 H   0  0  0  0  0  0  0  0  0  0  0  0
    4.7852   -0.5413   -0.6279 H   0  0  0  0  0  0  0  0  0  0  0  0
    4.9043   -0.3670    1.1398 H   0  0  0  0  0  0  0  0  0  0  0  0
  1  2  1  0
  2  3  2  0
  2  4  1  0
  4  5  1  0
  5  6  1  0
  6  7  1  0
  7  8  1  0
  8  9  1  0
  8 10  1  0
 10 11  1  0
 11 12  1  0
 11 13  2  0
  9  5  1  0
 10  7  1  0
  1 14  1  0
  1 15  1  0
  4 16  1  0
  4 17  1  0
  6 18  1  0
  6 19  1  0
  7 20  1  6
  8 21  1  6
  9 22  1  0
  9 23  1  0
 10 24  1  1
 12 25  1  0
 12 26  1  0
M  END
$$$$

     RDKit          3D

 26 27  0  0  0  0  0  0  0  0999 V2000
   -4.5068    0.4087   -0.5616 N   0  0  0  0  0  0  0  0  0  0  0  0
   -3.2553   -0.2280   -0.3506 C   0  0  0  0  0  0  0  0  0  0  0  0
   -3.1505   -1.4272   -0.6968 O   0  0  0  0  0  0  0  0  0  0  0  0
   -2.1660    0.5354    0.2517 C   0  0  0  0  0  0  0  0  0  0  0  0
   -0.9406   -0.1964    0.4186 N   0  0  0  0  0  0  0  0  0  0  0  0
   -0.2744   -0.5311   -0.7867 C   0  0  0  0  0  0  0  0  0  0  0  0
    1.1735   -0.1381   -0.6370 C   0  0  1  0  0  0  0  0  0  0  0  0
    1.3510    0.3842    0.7527 C   0  0  1  0  0  0  0  0  0  0  0  0
   -0.0422    0.5597    1.2294 C   0  0  0  0  0  0  0  0  0  0  0  0
    1.9656   -0.9088    0.4194 C   0  0  2  0  0  0  0  0  0  0  0  0
    3.4071   -0.9128    0.1469 C   0  0  0  0  0  0  0  0  0  0  0  0
    4.1368    0.2185   -0.2675 N   0  0  0  0  0  0  0  0  0  0  0  0
    4.0335   -2.0187    0.2984 O   0  0  0  0  0  0  0  0  0  0  0  0
   -4.5558    1.3352   -1.0459 H   0  0  0  0  0  0  0  0  0  0  0  0
   -5.4268   -0.0056   -0.2492 H   0  0  0  0  0  0  0  0  0  0  0  0
   -2.4789    0.8835    1.2594 H   0  0  0  0  0  0  0  0  0  0  0  0
   -1.9285    1.4690   -0.3283 H   0  0  0  0  0  0  0  0  0  0  0  0
   -0.6501   -0.0101   -1.6930 H   0  0  0  0  0  0  0  0  0  0  0  0
   -0.3129   -1.6383   -0.9421 H   0  0  0  0  0  0  0  0  0  0  0  0
    1.7021    0.4022   -1.4337 H   0  0  0  0  0  0  0  0  0  0  0  0
    2.0197    1.2785    0.9246 H   0  0  0  0  0  0  0  0  0  0  0  0
   -0.3088    1.6493    1.1044 H   0  0  0  0  0  0  0  0  0  0  0  0
   -0.1737    0.3575    2.3135 H   0  0  0  0  0  0  0  0  0  0  0  0
    1.5164   -1.8712    0.7449 H   0  0  0  0  0  0  0  0  0  0  0  0
    3.9838    1.1793    0.1369 H   0  0  0  0  0  0  0  0  0  0  0  0
    4.8817    0.1753   -1.0083 H   0  0  0  0  0  0  0  0  0  0  0  0
  1  2  1  0
  2  3  2  0
  2  4  1  0
  4  5  1  0
  5  6  1  0
  6  7  1  0
  7  8  1  0
  8  9  1  0
  8 10  1  0
 10 11  1  0
 11 12  1  0
 11 13  2  0
  9  5  1  0
 10  7  1  0
  1 14  1  0
  1 15  1  0
  4 16  1  0
  4 17  1  0
  6 18  1  0
  6 19  1  0
  7 20  1  6
  8 21  1  6
  9 22  1  0
  9 23  1  0
 10 24  1  1
 12 25  1  0
 12 26  1  0
M  END
$$$$

     RDKit          3D

 26 27  0  0  0  0  0  0  0  0999 V2000
   -3.4261    1.2041    0.9744 N   0  0  0  0  0  0  0  0  0  0  0  0
   -2.8035    0.0928    0.3406 C   0  0  0  0  0  0  0  0  0  0  0  0
   -3.3023   -1.0371    0.5282 O   0  0  0  0  0  0  0  0  0  0  0  0
   -1.6160    0.3683   -0.4884 C   0  0  0  0  0  0  0  0  0  0  0  0
   -1.0581   -0.8192   -1.0867 N   0  0  0  0  0  0  0  0  0  0  0  0
    0.0967   -0.3842   -1.8665 C   0  0  0  0  0  0  0  0  0  0  0  0
    0.9826    0.1921   -0.8028 C   0  0  1  0  0  0  0  0  0  0  0  0
    0.6563   -0.6414    0.4298 C   0  0  1  0  0  0  0  0  0  0  0  0
   -0.3652   -1.6299   -0.0744 C   0  0  0  0  0  0  0  0  0  0  0  0
    2.0433   -0.6604   -0.1947 C   0  0  2  0  0  0  0  0  0  0  0  0
    3.0677    0.0065    0.6265 C   0  0  0  0  0  0  0  0  0  0  0  0
    2.7980    1.1924    1.3516 N   0  0  0  0  0  0  0  0  0  0  0  0
    4.2157   -0.4923    0.6852 O   0  0  0  0  0  0  0  0  0  0  0  0
   -3.8604    1.9314    0.3589 H   0  0  0  0  0  0  0  0  0  0  0  0
   -3.4525    1.2979    2.0306 H   0  0  0  0  0  0  0  0  0  0  0  0
   -1.9493    1.0281   -1.3265 H   0  0  0  0  0  0  0  0  0  0  0  0
   -0.8676    0.8666    0.1530 H   0  0  0  0  0  0  0  0  0  0  0  0
   -0.1766    0.3287   -2.6549 H   0  0  0  0  0  0  0  0  0  0  0  0
    0.5938   -1.3045   -2.2723 H   0  0  0  0  0  0  0  0  0  0  0  0
    1.1040    1.2767   -0.6900 H   0  0  0  0  0  0  0  0  0  0  0  0
    0.5008   -0.1465    1.3892 H   0  0  0  0  0  0  0  0  0  0  0  0
    0.1619   -2.4175   -0.6305 H   0  0  0  0  0  0  0  0  0  0  0  0
   -1.0479   -1.9876    0.7016 H   0  0  0  0  0  0  0  0  0  0  0  0
    2.3172   -1.5713   -0.7282 H   0  0  0  0  0  0  0  0  0  0  0  0
    2.6426    2.0901    0.8346 H   0  0  0  0  0  0  0  0  0  0  0  0
    2.7447    1.2164    2.4119 H   0  0  0  0  0  0  0  0  0  0  0  0
  1  2  1  0
  2  3  2  0
  2  4  1  0
  4  5  1  0
  5  6  1  0
  6  7  1  0
  7  8  1  0
  8  9  1  0
  8 10  1  0
 10 11  1  0
 11 12  1  0
 11 13  2  0
  9  5  1  0
 10  7  1  0
  1 14  1  0
  1 15  1  0
  4 16  1  0
  4 17  1  0
  6 18  1  0
  6 19  1  0
  7 20  1  1
  8 21  1  1
  9 22  1  0
  9 23  1  0
 10 24  1  6
 12 25  1  0
 12 26  1  0
M  END
$$$$

     RDKit          3D

 26 27  0  0  0  0  0  0  0  0999 V2000
   -4.5534   -0.3988   -0.1577 N   0  0  0  0  0  0  0  0  0  0  0  0
   -3.1560   -0.2632   -0.4326 C   0  0  0  0  0  0  0  0  0  0  0  0
   -2.6397   -0.8409   -1.4234 O   0  0  0  0  0  0  0  0  0  0  0  0
   -2.2768    0.5560    0.4342 C   0  0  0  0  0  0  0  0  0  0  0  0
   -0.9540    0.5186   -0.0550 N   0  0  0  0  0  0  0  0  0  0  0  0
   -0.0056    1.2943    0.6979 C   0  0  0  0  0  0  0  0  0  0  0  0
    1.2197    0.4808    0.9329 C   0  0  1  0  0  0  0  0  0  0  0  0
    0.9809   -0.8307    0.2886 C   0  0  1  0  0  0  0  0  0  0  0  0
   -0.4096   -0.7760   -0.2962 C   0  0  0  0  0  0  0  0  0  0  0  0
    2.0462    0.0235   -0.2507 C   0  0  2  0  0  0  0  0  0  0  0  0
    3.4406   -0.3603    0.0402 C   0  0  0  0  0  0  0  0  0  0  0  0
    4.5044   -0.0855   -0.8684 N   0  0  0  0  0  0  0  0  0  0  0  0
    3.7477   -0.9501    1.1107 O   0  0  0  0  0  0  0  0  0  0  0  0
   -5.0796    0.4551    0.0811 H   0  0  0  0  0  0  0  0  0  0  0  0
   -4.9505   -1.3470   -0.2157 H   0  0  0  0  0  0  0  0  0  0  0  0
   -2.4069    0.1744    1.4724 H   0  0  0  0  0  0  0  0  0  0  0  0
   -2.6461    1.6125    0.3909 H   0  0  0  0  0  0  0  0  0  0  0  0
   -0.3921    1.6664    1.6619 H   0  0  0  0  0  0  0  0  0  0  0  0
    0.2487    2.1861    0.0530 H   0  0  0  0  0  0  0  0  0  0  0  0
    1.6954    0.5492    1.9227 H   0  0  0  0  0  0  0  0  0  0  0  0
    1.2330   -1.7641    0.8536 H   0  0  0  0  0  0  0  0  0  0  0  0
   -1.0398   -1.6085    0.0847 H   0  0  0  0  0  0  0  0  0  0  0  0
   -0.3042   -0.8996   -1.4019 H   0  0  0  0  0  0  0  0  0  0  0  0
    1.9081    0.5365   -1.2248 H   0  0  0  0  0  0  0  0  0  0  0  0
    4.7195    0.9173   -1.1154 H   0  0  0  0  0  0  0  0  0  0  0  0
    5.0700   -0.8460   -1.2909 H   0  0  0  0  0  0  0  0  0  0  0  0
  1  2  1  0
  2  3  2  0
  2  4  1  0
  4  5  1  0
  5  6  1  0
  6  7  1  0
  7  8  1  0
  8  9  1  0
  8 10  1  0
 10 11  1  0
 11 12  1  0
 11 13  2  0
  9  5  1  0
 10  7  1  0
  1 14  1  0
  1 15  1  0
  4 16  1  0
  4 17  1  0
  6 18  1  0
  6 19  1  0
  7 20  1  1
  8 21  1  1
  9 22  1  0
  9 23  1  0
 10 24  1  6
 12 25  1  0
 12 26  1  0
M  END
$$$$
