
     RDKit          3D

 27 27  0  0  0  0  0  0  0  0999 V2000
    4.4982    0.2204    1.6500 N   0  0  0  0  0  0  0  0  0  0  0  0
    3.6993   -0.5856    0.6975 C   0  0  0  0  0  0  0  0  0  0  0  0
    3.3438    0.3416   -0.3838 C   0  0  0  0  0  0  0  0  0  0  0  0
    2.1613    0.6853   -0.7678 C   0  0  0  0  0  0  0  0  0  0  0  0
    0.9617    0.1757   -0.1510 C   0  0  0  0  0  0  0  0  0  0  0  0
    0.8790   -0.6290    0.7943 O   0  0  0  0  0  0  0  0  0  0  0  0
   -0.3519    0.5857   -0.6112 N   0  0  0  0  0  0  0  0  0  0  0  0
   -1.5777    0.1635   -0.0967 C   0  0  1  0  0  0  0  0  0  0  0  0
   -2.4847    1.2166    0.4637 C   0  0  0  0  0  0  0  0  0  0  0  0
   -3.7789    0.7311    0.3485 O   0  0  0  0  0  0  0  0  0  0  0  0
   -3.7026   -0.5911   -0.0599 C   0  0  0  0  0  0  0  0  0  0  0  0
   -2.5202   -0.5414   -1.0192 C   0  0  1  0  0  0  0  0  0  0  0  0
   -2.9552    0.2299   -2.0783 O   0  0  0  0  0  0  0  0  0  0  0  0
    4.0971    1.2005    1.6849 H   0  0  0  0  0  0  0  0  0  0  0  0
    4.3845   -0.1506    2.6165 H   0  0  0  0  0  0  0  0  0  0  0  0
    2.9231   -1.0681    1.2502 H   0  0  0  0  0  0  0  0  0  0  0  0
    4.4587   -1.3081    0.2758 H   0  0  0  0  0  0  0  0  0  0  0  0
    4.2069    0.7881   -0.9211 H   0  0  0  0  0  0  0  0  0  0  0  0
    2.1042    1.4066   -1.6127 H   0  0  0  0  0  0  0  0  0  0  0  0
   -0.3392    1.2625   -1.4051 H   0  0  0  0  0  0  0  0  0  0  0  0
   -1.3817   -0.5613    0.7500 H   0  0  0  0  0  0  0  0  0  0  0  0
   -2.2808    1.3391    1.5636 H   0  0  0  0  0  0  0  0  0  0  0  0
   -2.3642    2.1991   -0.0017 H   0  0  0  0  0  0  0  0  0  0  0  0
   -4.6266   -0.8900   -0.5896 H   0  0  0  0  0  0  0  0  0  0  0  0
   -3.4611   -1.2660    0.7796 H   0  0  0  0  0  0  0  0  0  0  0  0
   -2.1879   -1.5522   -1.3089 H   0  0  0  0  0  0  0  0  0  0  0  0
   -3.7053    0.8040   -1.8677 H   0  0  0  0  0  0  0  0  0  0  0  0
  1  2  1  0
  2  3  1  0
  3  4  2  0
  4  5  1  0
  5  6  2  0
  5  7  1  0
  7  8  1  0
  8  9  1  0
  9 10  1  0
 10 11  1  0
 11 12  1  0
 12 13  1  0
 12  8  1  0
  1 14  1  0
  1 15  1  0
  2 16  1  0
  2 17  1  0
  3 18  1  0
  4 19  1  0
  7 20  1  0
  8 21  1  1
  9 22  1  0
  9 23  1  0
 11 24  1  0
 11 25  1  0
 12 26  1  6
 13 27  1  0
M  END
$$$$

     RDKit          3D

 27 27  0  0  0  0  0  0  0  0999 V2000
    4.4017   -1.1634    1.1932 N   0  0  0  0  0  0  0  0  0  0  0  0
    3.4043   -1.4535    0.1375 C   0  0  0  0  0  0  0  0  0  0  0  0
    3.1810   -0.2670   -0.6746 C   0  0  0  0  0  0  0  0  0  0  0  0
    2.0426    0.3364   -0.7946 C   0  0  0  0  0  0  0  0  0  0  0  0
    0.8302   -0.0880   -0.1324 C   0  0  0  0  0  0  0  0  0  0  0  0
    0.6898   -1.0633    0.6358 O   0  0  0  0  0  0  0  0  0  0  0  0
   -0.3993    0.6554   -0.3371 N   0  0  0  0  0  0  0  0  0  0  0  0
   -1.6116    0.2664    0.2987 C   0  0  1  0  0  0  0  0  0  0  0  0
   -2.2872    1.3938    1.0467 C   0  0  0  0  0  0  0  0  0  0  0  0
   -3.6375    1.1843    1.0016 O   0  0  0  0  0  0  0  0  0  0  0  0
   -3.9322    0.2185    0.0841 C   0  0  0  0  0  0  0  0  0  0  0  0
   -2.6892   -0.0554   -0.7352 C   0  0  1  0  0  0  0  0  0  0  0  0
   -2.6732    0.8713   -1.7831 O   0  0  0  0  0  0  0  0  0  0  0  0
    5.2814   -0.9241    0.6816 H   0  0  0  0  0  0  0  0  0  0  0  0
    4.5575   -2.0916    1.6594 H   0  0  0  0  0  0  0  0  0  0  0  0
    3.9938   -2.1730   -0.5472 H   0  0  0  0  0  0  0  0  0  0  0  0
    2.5788   -2.0406    0.4770 H   0  0  0  0  0  0  0  0  0  0  0  0
    4.0619    0.1490   -1.2346 H   0  0  0  0  0  0  0  0  0  0  0  0
    2.0335    1.2330   -1.4559 H   0  0  0  0  0  0  0  0  0  0  0  0
   -0.3241    1.4760   -0.9711 H   0  0  0  0  0  0  0  0  0  0  0  0
   -1.5224   -0.6212    0.9360 H   0  0  0  0  0  0  0  0  0  0  0  0
   -1.8590    1.4182    2.0746 H   0  0  0  0  0  0  0  0  0  0  0  0
   -2.0737    2.3430    0.4920 H   0  0  0  0  0  0  0  0  0  0  0  0
   -4.8110    0.4497   -0.5465 H   0  0  0  0  0  0  0  0  0  0  0  0
   -4.1780   -0.7408    0.6253 H   0  0  0  0  0  0  0  0  0  0  0  0
   -2.6185   -1.0807   -1.0968 H   0  0  0  0  0  0  0  0  0  0  0  0
   -2.4398    1.7677   -1.4984 H   0  0  0  0  0  0  0  0  0  0  0  0
  1  2  1  0
  2  3  1  0
  3  4  2  0
  4  5  1  0
  5  6  2  0
  5  7  1  0
  7  8  1  0
  8  9  1  0
  9 10  1  0
 10 11  1  0
 11 12  1  0
 12 13  1  0
 12  8  1  0
  1 14  1  0
  1 15  1  0
  2 16  1  0
  2 17  1  0
  3 18  1  0
  4 19  1  0
  7 20  1  0
  8 21  1  1
  9 22  1  0
  9 23  1  0
 11 24  1  0
 11 25  1  0
 12 26  1  6
 13 27  1  0
M  END
$$$$

     RDKit          3D

 27 27  0  0  0  0  0  0  0  0999 V2000
    4.7327    0.0991    0.6935 N   0  0  0  0  0  0  0  0  0  0  0  0
    3.5840   -0.7868    0.9119 C   0  0  0  0  0  0  0  0  0  0  0  0
    3.0460   -1.2734   -0.3550 C   0  0  0  0  0  0  0  0  0  0  0  0
    1.8266   -1.0398   -0.7450 C   0  0  0  0  0  0  0  0  0  0  0  0
    0.8008   -0.2913   -0.0502 C   0  0  0  0  0  0  0  0  0  0  0  0
    0.9599    0.2452    1.0460 O   0  0  0  0  0  0  0  0  0  0  0  0
   -0.5133   -0.1359   -0.6423 N   0  0  0  0  0  0  0  0  0  0  0  0
   -1.5273    0.6012    0.0394 C   0  0  1  0  0  0  0  0  0  0  0  0
   -2.0380    1.7930   -0.7393 C   0  0  0  0  0  0  0  0  0  0  0  0
   -3.2633    2.0321   -0.0748 O   0  0  0  0  0  0  0  0  0  0  0  0
   -3.8691    0.7813   -0.1867 C   0  0  0  0  0  0  0  0  0  0  0  0
   -2.7954   -0.1904    0.2585 C   0  0  1  0  0  0  0  0  0  0  0  0
   -2.8745   -1.3123   -0.5427 O   0  0  0  0  0  0  0  0  0  0  0  0
    4.8399    0.6759    1.5397 H   0  0  0  0  0  0  0  0  0  0  0  0
    4.5872    0.7193   -0.1169 H   0  0  0  0  0  0  0  0  0  0  0  0
    4.0147   -1.6635    1.4877 H   0  0  0  0  0  0  0  0  0  0  0  0
    2.9017   -0.3002    1.5929 H   0  0  0  0  0  0  0  0  0  0  0  0
    3.7180   -1.8664   -1.0017 H   0  0  0  0  0  0  0  0  0  0  0  0
    1.5671   -1.4784   -1.7330 H   0  0  0  0  0  0  0  0  0  0  0  0
   -0.6408   -0.5917   -1.5685 H   0  0  0  0  0  0  0  0  0  0  0  0
   -1.1358    0.9774    0.9952 H   0  0  0  0  0  0  0  0  0  0  0  0
   -2.2184    1.5195   -1.7999 H   0  0  0  0  0  0  0  0  0  0  0  0
   -1.3867    2.6847   -0.6309 H   0  0  0  0  0  0  0  0  0  0  0  0
   -4.1758    0.6068   -1.2479 H   0  0  0  0  0  0  0  0  0  0  0  0
   -4.7354    0.7145    0.5030 H   0  0  0  0  0  0  0  0  0  0  0  0
   -2.9394   -0.3979    1.3210 H   0  0  0  0  0  0  0  0  0  0  0  0
   -2.4652   -2.1219   -0.1462 H   0  0  0  0  0  0  0  0  0  0  0  0
  1  2  1  0
  2  3  1  0
  3  4  2  0
  4  5  1  0
  5  6  2  0
  5  7  1  0
  7  8  1  0
  8  9  1  0
  9 10  1  0
 10 11  1  0
 11 12  1  0
 12 13  1  0
 12  8  1  0
  1 14  1  0
  1 15  1  0
  2 16  1  0
  2 17  1  0
  3 18  1  0
  4 19  1  0
  7 20  1  0
  8 21  1  1
  9 22  1  0
  9 23  1  0
 11 24  1  0
 11 25  1  0
 12 26  1  1
 13 27  1  0
M  END
$$$$

     RDKit          3D

 27 27  0  0  0  0  0  0  0  0999 V2000
    4.6812    0.3292   -0.5031 N   0  0  0  0  0  0  0  0  0  0  0  0
    3.6191    0.5204    0.5127 C   0  0  0  0  0  0  0  0  0  0  0  0
    2.9612   -0.7591    0.8128 C   0  0  0  0  0  0  0  0  0  0  0  0
    1.6959   -0.9606    0.6256 C   0  0  0  0  0  0  0  0  0  0  0  0
    0.7613   -0.0170    0.1173 C   0  0  0  0  0  0  0  0  0  0  0  0
    0.9701    1.1700   -0.2431 O   0  0  0  0  0  0  0  0  0  0  0  0
   -0.6205   -0.4133   -0.0267 N   0  0  0  0  0  0  0  0  0  0  0  0
   -1.6397    0.4657   -0.5301 C   0  0  1  0  0  0  0  0  0  0  0  0
   -2.3008   -0.2331   -1.7141 C   0  0  0  0  0  0  0  0  0  0  0  0
   -3.1590   -1.1560   -1.1794 O   0  0  0  0  0  0  0  0  0  0  0  0
   -3.5298   -0.7668    0.0768 C   0  0  0  0  0  0  0  0  0  0  0  0
   -2.8406    0.5124    0.4198 C   0  0  1  0  0  0  0  0  0  0  0  0
   -2.4195    0.5659    1.7458 O   0  0  0  0  0  0  0  0  0  0  0  0
    5.4036    1.0262   -0.2907 H   0  0  0  0  0  0  0  0  0  0  0  0
    4.2959    0.5578   -1.4601 H   0  0  0  0  0  0  0  0  0  0  0  0
    3.0177    1.3284    0.1460 H   0  0  0  0  0  0  0  0  0  0  0  0
    4.1497    0.8083    1.4778 H   0  0  0  0  0  0  0  0  0  0  0  0
    3.6012   -1.5982    1.2261 H   0  0  0  0  0  0  0  0  0  0  0  0
    1.3325   -1.9741    0.8953 H   0  0  0  0  0  0  0  0  0  0  0  0
   -0.8643   -1.3805    0.2520 H   0  0  0  0  0  0  0  0  0  0  0  0
   -1.2892    1.4587   -0.7962 H   0  0  0  0  0  0  0  0  0  0  0  0
   -1.4805   -0.6761   -2.3212 H   0  0  0  0  0  0  0  0  0  0  0  0
   -2.8395    0.5324   -2.3316 H   0  0  0  0  0  0  0  0  0  0  0  0
   -4.6484   -0.6736    0.1984 H   0  0  0  0  0  0  0  0  0  0  0  0
   -3.1464   -1.5530    0.7921 H   0  0  0  0  0  0  0  0  0  0  0  0
   -3.4506    1.3693    0.1245 H   0  0  0  0  0  0  0  0  0  0  0  0
   -2.2608    1.5168    1.9733 H   0  0  0  0  0  0  0  0  0  0  0  0
  1  2  1  0
  2  3  1  0
  3  4  2  0
  4  5  1  0
  5  6  2  0
  5  7  1  0
  7  8  1  0
  8  9  1  0
  9 10  1  0
 10 11  1  0
 11 12  1  0
 12 13  1  0
 12  8  1  0
  1 14  1  0
  1 15  1  0
  2 16  1  0
  2 17  1  0
  3 18  1  0
  4 19  1  0
  7 20  1  0
  8 21  1  6
  9 22  1  0
  9 23  1  0
 11 24  1  0
 11 25  1  0
 12 26  1  6
 13 27  1  0
M  END
$$$$

     RDKit          3D

 27 27  0  0  0  0  0  0  0  0999 V2000
    4.3474    0.4002   -1.6691 N   0  0  0  0  0  0  0  0  0  0  0  0
    3.7058   -0.3694   -0.5730 C   0  0  0  0  0  0  0  0  0  0  0  0
    3.1146    0.5896    0.3405 C   0  0  0  0  0  0  0  0  0  0  0  0
    1.8480    0.6526    0.6313 C   0  0  0  0  0  0  0  0  0  0  0  0
    0.8626   -0.2328    0.0754 C   0  0  0  0  0  0  0  0  0  0  0  0
    0.9960   -1.1625   -0.7285 O   0  0  0  0  0  0  0  0  0  0  0  0
   -0.5096   -0.0401    0.4955 N   0  0  0  0  0  0  0  0  0  0  0  0
   -1.5950   -0.8527    0.0195 C   0  0  1  0  0  0  0  0  0  0  0  0
   -2.4705   -1.3957    1.1096 C   0  0  0  0  0  0  0  0  0  0  0  0
   -3.0307   -0.2361    1.6245 O   0  0  0  0  0  0  0  0  0  0  0  0
   -3.5343    0.3834    0.4915 C   0  0  0  0  0  0  0  0  0  0  0  0
   -2.5799    0.1194   -0.6368 C   0  0  1  0  0  0  0  0  0  0  0  0
   -1.9475    1.3056   -0.9872 O   0  0  0  0  0  0  0  0  0  0  0  0
    3.6279    1.1134   -1.9678 H   0  0  0  0  0  0  0  0  0  0  0  0
    5.1200    0.9341   -1.1987 H   0  0  0  0  0  0  0  0  0  0  0  0
    3.1025   -1.1162   -1.0435 H   0  0  0  0  0  0  0  0  0  0  0  0
    4.5840   -0.9135   -0.1162 H   0  0  0  0  0  0  0  0  0  0  0  0
    3.7580    1.3430    0.8501 H   0  0  0  0  0  0  0  0  0  0  0  0
    1.5278    1.4518    1.3603 H   0  0  0  0  0  0  0  0  0  0  0  0
   -0.7456    0.7161    1.1734 H   0  0  0  0  0  0  0  0  0  0  0  0
   -1.3127   -1.6311   -0.6857 H   0  0  0  0  0  0  0  0  0  0  0  0
   -1.9742   -2.0261    1.8347 H   0  0  0  0  0  0  0  0  0  0  0  0
   -3.2779   -1.9795    0.6249 H   0  0  0  0  0  0  0  0  0  0  0  0
   -3.5801    1.4834    0.7244 H   0  0  0  0  0  0  0  0  0  0  0  0
   -4.5678    0.0366    0.2638 H   0  0  0  0  0  0  0  0  0  0  0  0
   -3.0957   -0.3482   -1.4895 H   0  0  0  0  0  0  0  0  0  0  0  0
   -2.3733    1.7746   -1.7229 H   0  0  0  0  0  0  0  0  0  0  0  0
  1  2  1  0
  2  3  1  0
  3  4  2  0
  4  5  1  0
  5  6  2  0
  5  7  1  0
  7  8  1  0
  8  9  1  0
  9 10  1  0
 10 11  1  0
 11 12  1  0
 12 13  1  0
 12  8  1  0
  1 14  1  0
  1 15  1  0
  2 16  1  0
  2 17  1  0
  3 18  1  0
  4 19  1  0
  7 20  1  0
  8 21  1  6
  9 22  1  0
  9 23  1  0
 11 24  1  0
 11 25  1  0
 12 26  1  6
 13 27  1  0
M  END
$$$$

     RDKit          3D

 27 27  0  0  0  0  0  0  0  0999 V2000
   -2.2532    1.2371   -0.9014 N   0  0  0  0  0  0  0  0  0  0  0  0
   -3.2881    0.3039   -0.9268 C   0  0  0  0  0  0  0  0  0  0  0  0
   -3.1564   -1.0845   -0.6170 C   0  0  0  0  0  0  0  0  0  0  0  0
   -2.1535   -1.7668   -0.2822 C   0  0  0  0  0  0  0  0  0  0  0  0
   -0.7932   -1.5181   -0.0690 C   0  0  0  0  0  0  0  0  0  0  0  0
   -0.0750   -2.6019    0.2939 O   0  0  0  0  0  0  0  0  0  0  0  0
    0.0775   -0.4291   -0.1244 N   0  0  0  0  0  0  0  0  0  0  0  0
    1.5085   -0.4902    0.1669 C   0  0  1  0  0  0  0  0  0  0  0  0
    2.3526   -0.0398   -0.9789 C   0  0  0  0  0  0  0  0  0  0  0  0
    2.9891    1.1454   -0.5641 O   0  0  0  0  0  0  0  0  0  0  0  0
    3.2770    0.8844    0.7945 C   0  0  0  0  0  0  0  0  0  0  0  0
    1.9100    0.4223    1.2778 C   0  0  1  0  0  0  0  0  0  0  0  0
    1.1189    1.5642    1.3748 O   0  0  0  0  0  0  0  0  0  0  0  0
   -2.2785    1.7731    0.0158 H   0  0  0  0  0  0  0  0  0  0  0  0
   -2.1968    1.8820   -1.7240 H   0  0  0  0  0  0  0  0  0  0  0  0
   -4.1631    0.6749   -0.2529 H   0  0  0  0  0  0  0  0  0  0  0  0
   -3.8187    0.3978   -1.9767 H   0  0  0  0  0  0  0  0  0  0  0  0
   -4.1723   -1.6698   -0.6962 H   0  0  0  0  0  0  0  0  0  0  0  0
   -2.4221   -2.8977   -0.1022 H   0  0  0  0  0  0  0  0  0  0  0  0
   -0.2785    0.4848   -0.3838 H   0  0  0  0  0  0  0  0  0  0  0  0
    1.7750   -1.5242    0.4323 H   0  0  0  0  0  0  0  0  0  0  0  0
    3.1954   -0.7651   -1.1734 H   0  0  0  0  0  0  0  0  0  0  0  0
    1.8327    0.0806   -1.9277 H   0  0  0  0  0  0  0  0  0  0  0  0
    3.5963    1.8124    1.2995 H   0  0  0  0  0  0  0  0  0  0  0  0
    4.0270    0.0786    0.8342 H   0  0  0  0  0  0  0  0  0  0  0  0
    2.0268   -0.0965    2.2533 H   0  0  0  0  0  0  0  0  0  0  0  0
    1.3626    2.1422    0.6032 H   0  0  0  0  0  0  0  0  0  0  0  0
  1  2  1  0
  2  3  1  0
  3  4  2  0
  4  5  1  0
  5  6  2  0
  5  7  1  0
  7  8  1  0
  8  9  1  0
  9 10  1  0
 10 11  1  0
 11 12  1  0
 12 13  1  0
 12  8  1  0
  1 14  1  0
  1 15  1  0
  2 16  1  0
  2 17  1  0
  3 18  1  0
  4 19  1  0
  7 20  1  0
  8 21  1  1
  9 22  1  0
  9 23  1  0
 11 24  1  0
 11 25  1  0
 12 26  1  1
 13 27  1  0
M  END
$$$$

     RDKit          3D

 27 27  0  0  0  0  0  0  0  0999 V2000
    3.5207    0.5809    1.3998 N   0  0  0  0  0  0  0  0  0  0  0  0
    2.8308   -0.6222    0.9380 C   0  0  0  0  0  0  0  0  0  0  0  0
    3.0927   -0.8312   -0.4482 C   0  0  0  0  0  0  0  0  0  0  0  0
    2.2434   -0.8200   -1.4082 C   0  0  0  0  0  0  0  0  0  0  0  0
    0.8465   -0.5972   -1.3809 C   0  0  0  0  0  0  0  0  0  0  0  0
    0.2668   -0.7056   -2.5520 O   0  0  0  0  0  0  0  0  0  0  0  0
   -0.0788   -0.2801   -0.3902 N   0  0  0  0  0  0  0  0  0  0  0  0
   -1.5041   -0.1057   -0.6166 C   0  0  1  0  0  0  0  0  0  0  0  0
   -2.3600   -0.9342    0.2612 C   0  0  0  0  0  0  0  0  0  0  0  0
   -3.5777   -0.3009    0.3264 O   0  0  0  0  0  0  0  0  0  0  0  0
   -3.4358    1.0090   -0.0178 C   0  0  0  0  0  0  0  0  0  0  0  0
   -1.9623    1.2948   -0.2163 C   0  0  1  0  0  0  0  0  0  0  0  0
   -1.4140    1.6005    1.0273 O   0  0  0  0  0  0  0  0  0  0  0  0
    3.6534    1.2806    0.6636 H   0  0  0  0  0  0  0  0  0  0  0  0
    3.1587    0.9293    2.2905 H   0  0  0  0  0  0  0  0  0  0  0  0
    1.8967   -0.8331    1.4024 H   0  0  0  0  0  0  0  0  0  0  0  0
    3.5112   -1.4468    1.4695 H   0  0  0  0  0  0  0  0  0  0  0  0
    4.1634   -1.0238   -0.7361 H   0  0  0  0  0  0  0  0  0  0  0  0
    2.6844   -1.0194   -2.4492 H   0  0  0  0  0  0  0  0  0  0  0  0
    0.2247   -0.1304    0.5665 H   0  0  0  0  0  0  0  0  0  0  0  0
   -1.7766   -0.2512   -1.6591 H   0  0  0  0  0  0  0  0  0  0  0  0
   -1.9732   -0.9933    1.3190 H   0  0  0  0  0  0  0  0  0  0  0  0
   -2.4796   -1.9614   -0.1546 H   0  0  0  0  0  0  0  0  0  0  0  0
   -3.9163    1.7242    0.6737 H   0  0  0  0  0  0  0  0  0  0  0  0
   -3.9204    1.1819   -1.0222 H   0  0  0  0  0  0  0  0  0  0  0  0
   -1.7543    2.0451   -0.9756 H   0  0  0  0  0  0  0  0  0  0  0  0
   -1.9403    1.2101    1.7732 H   0  0  0  0  0  0  0  0  0  0  0  0
  1  2  1  0
  2  3  1  0
  3  4  2  0
  4  5  1  0
  5  6  2  0
  5  7  1  0
  7  8  1  0
  8  9  1  0
  9 10  1  0
 10 11  1  0
 11 12  1  0
 12 13  1  0
 12  8  1  0
  1 14  1  0
  1 15  1  0
  2 16  1  0
  2 17  1  0
  3 18  1  0
  4 19  1  0
  7 20  1  0
  8 21  1  6
  9 22  1  0
  9 23  1  0
 11 24  1  0
 11 25  1  0
 12 26  1  6
 13 27  1  0
M  END
$$$$

     RDKit          3D

 27 27  0  0  0  0  0  0  0  0999 V2000
    3.8136   -0.8247   -0.8940 N   0  0  0  0  0  0  0  0  0  0  0  0
    3.0165   -0.3892    0.2778 C   0  0  0  0  0  0  0  0  0  0  0  0
    3.0079    1.0505    0.2872 C   0  0  0  0  0  0  0  0  0  0  0  0
    1.9692    1.8082    0.1855 C   0  0  0  0  0  0  0  0  0  0  0  0
    0.5778    1.5396    0.0356 C   0  0  0  0  0  0  0  0  0  0  0  0
   -0.1500    2.6325    0.0031 O   0  0  0  0  0  0  0  0  0  0  0  0
   -0.1801    0.3923   -0.0859 N   0  0  0  0  0  0  0  0  0  0  0  0
   -1.6323    0.4241   -0.2245 C   0  0  1  0  0  0  0  0  0  0  0  0
   -2.1154   -0.3378   -1.4153 C   0  0  0  0  0  0  0  0  0  0  0  0
   -3.3070   -0.9424   -1.1032 O   0  0  0  0  0  0  0  0  0  0  0  0
   -3.5866   -0.7351    0.2233 C   0  0  0  0  0  0  0  0  0  0  0  0
   -2.2823   -0.3552    0.9010 C   0  0  1  0  0  0  0  0  0  0  0  0
   -1.5822   -1.5414    1.1572 O   0  0  0  0  0  0  0  0  0  0  0  0
    4.6916   -0.2995   -0.9511 H   0  0  0  0  0  0  0  0  0  0  0  0
    3.9220   -1.8554   -0.9053 H   0  0  0  0  0  0  0  0  0  0  0  0
    3.7547   -0.6961    1.1386 H   0  0  0  0  0  0  0  0  0  0  0  0
    2.1097   -0.9199    0.4134 H   0  0  0  0  0  0  0  0  0  0  0  0
    4.0085    1.5351    0.3913 H   0  0  0  0  0  0  0  0  0  0  0  0
    2.2445    2.9170    0.2247 H   0  0  0  0  0  0  0  0  0  0  0  0
    0.2442   -0.5276   -0.0981 H   0  0  0  0  0  0  0  0  0  0  0  0
   -2.0438    1.4321   -0.2217 H   0  0  0  0  0  0  0  0  0  0  0  0
   -1.3770   -1.1503   -1.6605 H   0  0  0  0  0  0  0  0  0  0  0  0
   -2.1607    0.2877   -2.3390 H   0  0  0  0  0  0  0  0  0  0  0  0
   -4.0672   -1.6149    0.7025 H   0  0  0  0  0  0  0  0  0  0  0  0
   -4.2755    0.1386    0.3869 H   0  0  0  0  0  0  0  0  0  0  0  0
   -2.4382    0.2526    1.7988 H   0  0  0  0  0  0  0  0  0  0  0  0
   -2.1621   -2.2209    1.5832 H   0  0  0  0  0  0  0  0  0  0  0  0
  1  2  1  0
  2  3  1  0
  3  4  2  0
  4  5  1  0
  5  6  2  0
  5  7  1  0
  7  8  1  0
  8  9  1  0
  9 10  1  0
 10 11  1  0
 11 12  1  0
 12 13  1  0
 12  8  1  0
  1 14  1  0
  1 15  1  0
  2 16  1  0
  2 17  1  0
  3 18  1  0
  4 19  1  0
  7 20  1  0
  8 21  1  6
  9 22  1  0
  9 23  1  0
 11 24  1  0
 11 25  1  0
 12 26  1  1
 13 27  1  0
M  END
$$$$
