
     RDKit          3D

 24 24  0  0  0  0  0  0  0  0999 V2000
    1.3195   -1.0194   -0.7153 N   0  0  0  0  0  0  0  0  0  0  0  0
    1.0817   -0.0613    0.3186 C   0  0  1  0  0  0  0  0  0  0  0  0
    1.7884    1.2320   -0.0863 C   0  0  0  0  0  0  0  0  0  0  0  0
    3.2586    0.8935   -0.2163 C   0  0  0  0  0  0  0  0  0  0  0  0
    3.6620    0.4299    1.0563 O   0  0  0  0  0  0  0  0  0  0  0  0
   -0.3735    0.1661    0.5333 C   0  0  0  0  0  0  0  0  0  0  0  0
   -0.7053    0.9853    1.4146 O   0  0  0  0  0  0  0  0  0  0  0  0
   -1.2723   -0.5579   -0.2716 N   0  0  0  0  0  0  0  0  0  0  0  0
   -2.6432   -0.4029   -0.1336 N   0  0  0  0  0  0  0  0  0  0  0  0
   -3.5444   -1.0944   -0.9034 C   0  0  0  0  0  0  0  0  0  0  0  0
   -4.7790   -0.7377   -0.5436 N   0  0  0  0  0  0  0  0  0  0  0  0
   -4.6673    0.1473    0.4189 N   0  0  0  0  0  0  0  0  0  0  0  0
   -3.3434    0.3639    0.6829 C   0  0  0  0  0  0  0  0  0  0  0  0
    1.1271   -2.0003   -0.4390 H   0  0  0  0  0  0  0  0  0  0  0  0
    0.9600   -0.7483   -1.6339 H   0  0  0  0  0  0  0  0  0  0  0  0
    1.5026   -0.3924    1.2673 H   0  0  0  0  0  0  0  0  0  0  0  0
    1.3428    1.5733   -1.0368 H   0  0  0  0  0  0  0  0  0  0  0  0
    1.6502    1.9766    0.7151 H   0  0  0  0  0  0  0  0  0  0  0  0
    3.8627    1.7723   -0.5189 H   0  0  0  0  0  0  0  0  0  0  0  0
    3.3569    0.0400   -0.9169 H   0  0  0  0  0  0  0  0  0  0  0  0
    3.6242   -0.5624    1.0907 H   0  0  0  0  0  0  0  0  0  0  0  0
   -0.9159   -1.2311   -0.9940 H   0  0  0  0  0  0  0  0  0  0  0  0
   -3.3393   -1.8152   -1.6808 H   0  0  0  0  0  0  0  0  0  0  0  0
   -2.9532    1.0431    1.4282 H   0  0  0  0  0  0  0  0  0  0  0  0
  1  2  1  0
  2  3  1  0
  3  4  1  0
  4  5  1  0
  2  6  1  0
  6  7  2  0
  6  8  1  0
  8  9  1  0
  9 10  1  0
 10 11  2  0
 11 12  1  0
 12 13  2  0
 13  9  1  0
  1 14  1  0
  1 15  1  0
  2 16  1  1
  3 17  1  0
  3 18  1  0
  4 19  1  0
  4 20  1  0
  5 21  1  0
  8 22  1  0
 10 23  1  0
 13 24  1  0
M  END
$$$$

     RDKit          3D

 24 24  0  0  0  0  0  0  0  0999 V2000
   -1.7326    1.5008   -1.3113 N   0  0  0  0  0  0  0  0  0  0  0  0
   -1.0676    0.8905   -0.2024 C   0  0  1  0  0  0  0  0  0  0  0  0
   -1.6722   -0.4235    0.2148 C   0  0  0  0  0  0  0  0  0  0  0  0
   -3.1160   -0.2927    0.6308 C   0  0  0  0  0  0  0  0  0  0  0  0
   -3.6419   -1.5265    1.0099 O   0  0  0  0  0  0  0  0  0  0  0  0
    0.3657    0.6312   -0.5130 C   0  0  0  0  0  0  0  0  0  0  0  0
    0.7911    0.9606   -1.6453 O   0  0  0  0  0  0  0  0  0  0  0  0
    1.2622    0.0386    0.3944 N   0  0  0  0  0  0  0  0  0  0  0  0
    2.6084   -0.2279    0.1616 N   0  0  0  0  0  0  0  0  0  0  0  0
    3.4227   -0.8071    1.0906 C   0  0  0  0  0  0  0  0  0  0  0  0
    4.6466   -0.9347    0.5852 N   0  0  0  0  0  0  0  0  0  0  0  0
    4.6104   -0.4487   -0.6342 N   0  0  0  0  0  0  0  0  0  0  0  0
    3.3534   -0.0070   -0.9105 C   0  0  0  0  0  0  0  0  0  0  0  0
   -1.3410    1.1377   -2.2206 H   0  0  0  0  0  0  0  0  0  0  0  0
   -1.5092    2.5225   -1.3001 H   0  0  0  0  0  0  0  0  0  0  0  0
   -1.1675    1.6018    0.6654 H   0  0  0  0  0  0  0  0  0  0  0  0
   -1.1067   -0.8159    1.0795 H   0  0  0  0  0  0  0  0  0  0  0  0
   -1.6207   -1.1856   -0.5872 H   0  0  0  0  0  0  0  0  0  0  0  0
   -3.6704    0.1844   -0.1783 H   0  0  0  0  0  0  0  0  0  0  0  0
   -3.2189    0.3695    1.5304 H   0  0  0  0  0  0  0  0  0  0  0  0
   -3.1759   -2.2829    0.5654 H   0  0  0  0  0  0  0  0  0  0  0  0
    0.8252   -0.2115    1.3316 H   0  0  0  0  0  0  0  0  0  0  0  0
    3.1319   -1.1126    2.0702 H   0  0  0  0  0  0  0  0  0  0  0  0
    3.0231    0.4387   -1.8268 H   0  0  0  0  0  0  0  0  0  0  0  0
  1  2  1  0
  2  3  1  0
  3  4  1  0
  4  5  1  0
  2  6  1  0
  6  7  2  0
  6  8  1  0
  8  9  1  0
  9 10  1  0
 10 11  2  0
 11 12  1  0
 12 13  2  0
 13  9  1  0
  1 14  1  0
  1 15  1  0
  2 16  1  1
  3 17  1  0
  3 18  1  0
  4 19  1  0
  4 20  1  0
  5 21  1  0
  8 22  1  0
 10 23  1  0
 13 24  1  0
M  END
$$$$

     RDKit          3D

 24 24  0  0  0  0  0  0  0  0999 V2000
    1.2613    0.4816   -1.2889 N   0  0  0  0  0  0  0  0  0  0  0  0
    0.9464   -0.5909   -0.3758 C   0  0  1  0  0  0  0  0  0  0  0  0
    1.8796   -0.4732    0.8040 C   0  0  0  0  0  0  0  0  0  0  0  0
    3.2947   -0.5988    0.2433 C   0  0  0  0  0  0  0  0  0  0  0  0
    4.2522   -0.5057    1.2403 O   0  0  0  0  0  0  0  0  0  0  0  0
   -0.4814   -0.5867    0.0275 C   0  0  0  0  0  0  0  0  0  0  0  0
   -0.9160   -1.4580    0.8203 O   0  0  0  0  0  0  0  0  0  0  0  0
   -1.3959    0.3738   -0.4499 N   0  0  0  0  0  0  0  0  0  0  0  0
   -2.7388    0.4481   -0.1248 N   0  0  0  0  0  0  0  0  0  0  0  0
   -3.5825    1.3819   -0.6018 C   0  0  0  0  0  0  0  0  0  0  0  0
   -4.8125    1.1875   -0.1024 N   0  0  0  0  0  0  0  0  0  0  0  0
   -4.7610    0.1367    0.6900 N   0  0  0  0  0  0  0  0  0  0  0  0
   -3.4721   -0.3174    0.6720 C   0  0  0  0  0  0  0  0  0  0  0  0
    1.0227    1.3806   -0.8143 H   0  0  0  0  0  0  0  0  0  0  0  0
    0.6561    0.3818   -2.1230 H   0  0  0  0  0  0  0  0  0  0  0  0
    1.1693   -1.5441   -0.8913 H   0  0  0  0  0  0  0  0  0  0  0  0
    1.8261    0.5501    1.2624 H   0  0  0  0  0  0  0  0  0  0  0  0
    1.7579   -1.2669    1.5468 H   0  0  0  0  0  0  0  0  0  0  0  0
    3.4362    0.1746   -0.5402 H   0  0  0  0  0  0  0  0  0  0  0  0
    3.3515   -1.5830   -0.2787 H   0  0  0  0  0  0  0  0  0  0  0  0
    4.7949    0.3112    1.0706 H   0  0  0  0  0  0  0  0  0  0  0  0
   -0.9717    1.0865   -1.1181 H   0  0  0  0  0  0  0  0  0  0  0  0
   -3.3400    2.1918   -1.2929 H   0  0  0  0  0  0  0  0  0  0  0  0
   -3.1769   -1.1614    1.2361 H   0  0  0  0  0  0  0  0  0  0  0  0
  1  2  1  0
  2  3  1  0
  3  4  1  0
  4  5  1  0
  2  6  1  0
  6  7  2  0
  6  8  1  0
  8  9  1  0
  9 10  1  0
 10 11  2  0
 11 12  1  0
 12 13  2  0
 13  9  1  0
  1 14  1  0
  1 15  1  0
  2 16  1  6
  3 17  1  0
  3 18  1  0
  4 19  1  0
  4 20  1  0
  5 21  1  0
  8 22  1  0
 10 23  1  0
 13 24  1  0
M  END
$$$$

     RDKit          3D

 24 24  0  0  0  0  0  0  0  0999 V2000
   -1.4324   -2.0993    0.3057 N   0  0  0  0  0  0  0  0  0  0  0  0
   -0.9276   -0.8358   -0.1765 C   0  0  1  0  0  0  0  0  0  0  0  0
   -1.6654    0.2743    0.5275 C   0  0  0  0  0  0  0  0  0  0  0  0
   -3.1453    0.0972    0.1841 C   0  0  0  0  0  0  0  0  0  0  0  0
   -3.8892    1.1052    0.8128 O   0  0  0  0  0  0  0  0  0  0  0  0
    0.5440   -0.7332    0.0957 C   0  0  0  0  0  0  0  0  0  0  0  0
    1.1367   -1.6617    0.6600 O   0  0  0  0  0  0  0  0  0  0  0  0
    1.2212    0.4292   -0.3019 N   0  0  0  0  0  0  0  0  0  0  0  0
    2.5786    0.6073   -0.0900 N   0  0  0  0  0  0  0  0  0  0  0  0
    3.2306    1.7393   -0.4788 C   0  0  0  0  0  0  0  0  0  0  0  0
    4.5009    1.5881   -0.1314 N   0  0  0  0  0  0  0  0  0  0  0  0
    4.6560    0.4206    0.4496 N   0  0  0  0  0  0  0  0  0  0  0  0
    3.4701   -0.2082    0.4864 C   0  0  0  0  0  0  0  0  0  0  0  0
   -0.6158   -2.7587    0.4697 H   0  0  0  0  0  0  0  0  0  0  0  0
   -2.0895   -2.5165   -0.3841 H   0  0  0  0  0  0  0  0  0  0  0  0
   -1.0765   -0.7086   -1.2587 H   0  0  0  0  0  0  0  0  0  0  0  0
   -1.3209    1.2694    0.1928 H   0  0  0  0  0  0  0  0  0  0  0  0
   -1.5491    0.1293    1.6177 H   0  0  0  0  0  0  0  0  0  0  0  0
   -3.4879   -0.8800    0.5672 H   0  0  0  0  0  0  0  0  0  0  0  0
   -3.3076    0.1407   -0.9071 H   0  0  0  0  0  0  0  0  0  0  0  0
   -3.5691    2.0007    0.5458 H   0  0  0  0  0  0  0  0  0  0  0  0
    0.6513    1.1940   -0.7844 H   0  0  0  0  0  0  0  0  0  0  0  0
    2.7773    2.5783   -0.9707 H   0  0  0  0  0  0  0  0  0  0  0  0
    3.3098   -1.1719    0.9033 H   0  0  0  0  0  0  0  0  0  0  0  0
  1  2  1  0
  2  3  1  0
  3  4  1  0
  4  5  1  0
  2  6  1  0
  6  7  2  0
  6  8  1  0
  8  9  1  0
  9 10  1  0
 10 11  2  0
 11 12  1  0
 12 13  2  0
 13  9  1  0
  1 14  1  0
  1 15  1  0
  2 16  1  6
  3 17  1  0
  3 18  1  0
  4 19  1  0
  4 20  1  0
  5 21  1  0
  8 22  1  0
 10 23  1  0
 13 24  1  0
M  END
$$$$

     RDKit          3D

 24 24  0  0  0  0  0  0  0  0999 V2000
   -1.7480   -1.5216    1.2559 N   0  0  0  0  0  0  0  0  0  0  0  0
   -1.0652   -0.7135    0.3099 C   0  0  1  0  0  0  0  0  0  0  0  0
   -1.5111    0.7316    0.3112 C   0  0  0  0  0  0  0  0  0  0  0  0
   -2.9773    0.8767   -0.0070 C   0  0  0  0  0  0  0  0  0  0  0  0
   -3.2776    0.3582   -1.2645 O   0  0  0  0  0  0  0  0  0  0  0  0
    0.3792   -0.7186    0.6036 C   0  0  0  0  0  0  0  0  0  0  0  0
    0.7969   -1.3420    1.5884 O   0  0  0  0  0  0  0  0  0  0  0  0
    1.2629   -0.0166   -0.2374 N   0  0  0  0  0  0  0  0  0  0  0  0
    2.6342    0.0432   -0.0508 N   0  0  0  0  0  0  0  0  0  0  0  0
    3.3845   -0.5045    0.8921 C   0  0  0  0  0  0  0  0  0  0  0  0
    4.6854   -0.1595    0.6513 N   0  0  0  0  0  0  0  0  0  0  0  0
    4.7097    0.5824   -0.4185 N   0  0  0  0  0  0  0  0  0  0  0  0
    3.4661    0.7244   -0.8719 C   0  0  0  0  0  0  0  0  0  0  0  0
   -1.2676   -2.3237    1.6287 H   0  0  0  0  0  0  0  0  0  0  0  0
   -2.7484   -1.4557    1.3072 H   0  0  0  0  0  0  0  0  0  0  0  0
   -1.2328   -1.1497   -0.7047 H   0  0  0  0  0  0  0  0  0  0  0  0
   -0.9662    1.2454   -0.5062 H   0  0  0  0  0  0  0  0  0  0  0  0
   -1.2899    1.2089    1.2686 H   0  0  0  0  0  0  0  0  0  0  0  0
   -3.1894    1.9649   -0.0572 H   0  0  0  0  0  0  0  0  0  0  0  0
   -3.6162    0.4400    0.7717 H   0  0  0  0  0  0  0  0  0  0  0  0
   -3.4738    1.0625   -1.9363 H   0  0  0  0  0  0  0  0  0  0  0  0
    0.8266    0.4958   -1.0700 H   0  0  0  0  0  0  0  0  0  0  0  0
    3.0503   -1.1192    1.7160 H   0  0  0  0  0  0  0  0  0  0  0  0
    3.1676    1.2905   -1.7514 H   0  0  0  0  0  0  0  0  0  0  0  0
  1  2  1  0
  2  3  1  0
  3  4  1  0
  4  5  1  0
  2  6  1  0
  6  7  2  0
  6  8  1  0
  8  9  1  0
  9 10  1  0
 10 11  2  0
 11 12  1  0
 12 13  2  0
 13  9  1  0
  1 14  1  0
  1 15  1  0
  2 16  1  6
  3 17  1  0
  3 18  1  0
  4 19  1  0
  4 20  1  0
  5 21  1  0
  8 22  1  0
 10 23  1  0
 13 24  1  0
M  END
$$$$

     RDKit          3D

 24 24  0  0  0  0  0  0  0  0999 V2000
   -2.0491   -0.6558    1.8407 N   0  0  0  0  0  0  0  0  0  0  0  0
   -1.1798   -1.0166    0.7414 C   0  0  1  0  0  0  0  0  0  0  0  0
   -1.8282   -0.6292   -0.5649 C   0  0  0  0  0  0  0  0  0  0  0  0
   -2.0963    0.8581   -0.6452 C   0  0  0  0  0  0  0  0  0  0  0  0
   -2.6917    1.0936   -1.8865 O   0  0  0  0  0  0  0  0  0  0  0  0
    0.1241   -0.3443    0.9444 C   0  0  0  0  0  0  0  0  0  0  0  0
    0.2940    0.3861    1.9518 O   0  0  0  0  0  0  0  0  0  0  0  0
    1.2101   -0.4915    0.0340 N   0  0  0  0  0  0  0  0  0  0  0  0
    2.4548    0.1163    0.1759 N   0  0  0  0  0  0  0  0  0  0  0  0
    2.9446    0.9345    1.1154 C   0  0  0  0  0  0  0  0  0  0  0  0
    4.2167    1.2511    0.7953 N   0  0  0  0  0  0  0  0  0  0  0  0
    4.5338    0.6436   -0.3321 N   0  0  0  0  0  0  0  0  0  0  0  0
    3.4611   -0.0430   -0.7027 C   0  0  0  0  0  0  0  0  0  0  0  0
   -1.7727    0.3127    2.1464 H   0  0  0  0  0  0  0  0  0  0  0  0
   -1.7948   -1.2779    2.6432 H   0  0  0  0  0  0  0  0  0  0  0  0
   -1.0958   -2.1219    0.7444 H   0  0  0  0  0  0  0  0  0  0  0  0
   -1.1700   -0.9809   -1.3819 H   0  0  0  0  0  0  0  0  0  0  0  0
   -2.7977   -1.1702   -0.6148 H   0  0  0  0  0  0  0  0  0  0  0  0
   -2.7967    1.1410    0.1385 H   0  0  0  0  0  0  0  0  0  0  0  0
   -1.1229    1.4065   -0.5775 H   0  0  0  0  0  0  0  0  0  0  0  0
   -3.6752    1.0794   -1.7655 H   0  0  0  0  0  0  0  0  0  0  0  0
    0.9887   -1.1213   -0.7874 H   0  0  0  0  0  0  0  0  0  0  0  0
    2.4212    1.2811    1.9749 H   0  0  0  0  0  0  0  0  0  0  0  0
    3.4219   -0.6517   -1.6071 H   0  0  0  0  0  0  0  0  0  0  0  0
  1  2  1  0
  2  3  1  0
  3  4  1  0
  4  5  1  0
  2  6  1  0
  6  7  2  0
  6  8  1  0
  8  9  1  0
  9 10  1  0
 10 11  2  0
 11 12  1  0
 12 13  2  0
 13  9  1  0
  1 14  1  0
  1 15  1  0
  2 16  1  6
  3 17  1  0
  3 18  1  0
  4 19  1  0
  4 20  1  0
  5 21  1  0
  8 22  1  0
 10 23  1  0
 13 24  1  0
M  END
$$$$

     RDKit          3D

 24 24  0  0  0  0  0  0  0  0999 V2000
   -1.8724   -1.6869   -0.4199 N   0  0  0  0  0  0  0  0  0  0  0  0
   -1.1184   -0.4700   -0.4913 C   0  0  1  0  0  0  0  0  0  0  0  0
   -1.5515    0.5406    0.5563 C   0  0  0  0  0  0  0  0  0  0  0  0
   -3.0332    0.8861    0.3494 C   0  0  0  0  0  0  0  0  0  0  0  0
   -3.1265    1.4167   -0.9294 O   0  0  0  0  0  0  0  0  0  0  0  0
    0.3062   -0.7837   -0.2157 C   0  0  0  0  0  0  0  0  0  0  0  0
    0.6463   -1.9623    0.0230 O   0  0  0  0  0  0  0  0  0  0  0  0
    1.2865    0.2257   -0.2181 N   0  0  0  0  0  0  0  0  0  0  0  0
    2.6524    0.0319    0.0293 N   0  0  0  0  0  0  0  0  0  0  0  0
    3.5678    1.0503    0.0153 C   0  0  0  0  0  0  0  0  0  0  0  0
    4.7462    0.4940    0.2897 N   0  0  0  0  0  0  0  0  0  0  0  0
    4.6018   -0.7898    0.4679 N   0  0  0  0  0  0  0  0  0  0  0  0
    3.2925   -1.0861    0.3062 C   0  0  0  0  0  0  0  0  0  0  0  0
   -1.7626   -2.1799    0.5041 H   0  0  0  0  0  0  0  0  0  0  0  0
   -1.4877   -2.3335   -1.1443 H   0  0  0  0  0  0  0  0  0  0  0  0
   -1.2626   -0.0478   -1.5047 H   0  0  0  0  0  0  0  0  0  0  0  0
   -0.9983    1.4836    0.3700 H   0  0  0  0  0  0  0  0  0  0  0  0
   -1.3986    0.1791    1.5745 H   0  0  0  0  0  0  0  0  0  0  0  0
   -3.6031   -0.0493    0.4626 H   0  0  0  0  0  0  0  0  0  0  0  0
   -3.3820    1.6079    1.0876 H   0  0  0  0  0  0  0  0  0  0  0  0
   -3.6553    2.2415   -0.8945 H   0  0  0  0  0  0  0  0  0  0  0  0
    0.9147    1.2039   -0.4305 H   0  0  0  0  0  0  0  0  0  0  0  0
    3.3496    2.1045   -0.1845 H   0  0  0  0  0  0  0  0  0  0  0  0
    2.8883   -2.0767    0.3972 H   0  0  0  0  0  0  0  0  0  0  0  0
  1  2  1  0
  2  3  1  0
  3  4  1  0
  4  5  1  0
  2  6  1  0
  6  7  2  0
  6  8  1  0
  8  9  1  0
  9 10  1  0
 10 11  2  0
 11 12  1  0
 12 13  2  0
 13  9  1  0
  1 14  1  0
  1 15  1  0
  2 16  1  6
  3 17  1  0
  3 18  1  0
  4 19  1  0
  4 20  1  0
  5 21  1  0
  8 22  1  0
 10 23  1  0
 13 24  1  0
M  END
$$$$

     RDKit          3D

 24 24  0  0  0  0  0  0  0  0999 V2000
   -1.0116   -1.1729   -0.9090 N   0  0  0  0  0  0  0  0  0  0  0  0
   -1.0611    0.1805   -0.4042 C   0  0  1  0  0  0  0  0  0  0  0  0
   -1.8804    0.2829    0.8410 C   0  0  0  0  0  0  0  0  0  0  0  0
   -3.3034   -0.1395    0.6619 C   0  0  0  0  0  0  0  0  0  0  0  0
   -3.9376    0.6583   -0.3042 O   0  0  0  0  0  0  0  0  0  0  0  0
    0.3589    0.5383   -0.0123 C   0  0  0  0  0  0  0  0  0  0  0  0
    0.5465    1.6847    0.4567 O   0  0  0  0  0  0  0  0  0  0  0  0
    1.4171   -0.3602   -0.1625 N   0  0  0  0  0  0  0  0  0  0  0  0
    2.7335   -0.0794    0.1815 N   0  0  0  0  0  0  0  0  0  0  0  0
    3.2476    1.0372    0.6979 C   0  0  0  0  0  0  0  0  0  0  0  0
    4.5736    0.8081    0.8502 N   0  0  0  0  0  0  0  0  0  0  0  0
    4.8835   -0.3985    0.4482 N   0  0  0  0  0  0  0  0  0  0  0  0
    3.7576   -0.9629    0.0309 C   0  0  0  0  0  0  0  0  0  0  0  0
   -0.6346   -1.1705   -1.8834 H   0  0  0  0  0  0  0  0  0  0  0  0
   -1.9557   -1.5768   -0.9481 H   0  0  0  0  0  0  0  0  0  0  0  0
   -1.3816    0.8805   -1.1931 H   0  0  0  0  0  0  0  0  0  0  0  0
   -1.4213   -0.3963    1.6002 H   0  0  0  0  0  0  0  0  0  0  0  0
   -1.8639    1.3073    1.2232 H   0  0  0  0  0  0  0  0  0  0  0  0
   -3.8366    0.0864    1.6215 H   0  0  0  0  0  0  0  0  0  0  0  0
   -3.4492   -1.1829    0.3844 H   0  0  0  0  0  0  0  0  0  0  0  0
   -3.3223    1.3021   -0.7177 H   0  0  0  0  0  0  0  0  0  0  0  0
    1.1623   -1.3148   -0.5708 H   0  0  0  0  0  0  0  0  0  0  0  0
    2.7242    1.9643    0.9554 H   0  0  0  0  0  0  0  0  0  0  0  0
    3.6545   -1.9760   -0.3721 H   0  0  0  0  0  0  0  0  0  0  0  0
  1  2  1  0
  2  3  1  0
  3  4  1  0
  4  5  1  0
  2  6  1  0
  6  7  2  0
  6  8  1  0
  8  9  1  0
  9 10  1  0
 10 11  2  0
 11 12  1  0
 12 13  2  0
 13  9  1  0
  1 14  1  0
  1 15  1  0
  2 16  1  6
  3 17  1  0
  3 18  1  0
  4 19  1  0
  4 20  1  0
  5 21  1  0
  8 22  1  0
 10 23  1  0
 13 24  1  0
M  END
$$$$
