
     RDKit          3D

 30 29  0  0  0  0  0  0  0  0999 V2000
   -2.5803   -1.8119    0.0821 C   0  0  0  0  0  0  0  0  0  0  0  0
   -2.7150   -0.4072    0.6790 C   0  0  2  0  0  0  0  0  0  0  0  0
   -3.9146    0.0852    0.1591 O   0  0  0  0  0  0  0  0  0  0  0  0
   -1.6027    0.4575    0.2001 C   0  0  1  0  0  0  0  0  0  0  0  0
   -1.8619    1.8830    0.6517 C   0  0  0  0  0  0  0  0  0  0  0  0
   -0.8829    2.6745    0.0517 O   0  0  0  0  0  0  0  0  0  0  0  0
   -0.2973    0.1020    0.6348 N   0  0  0  0  0  0  0  0  0  0  0  0
    0.8060   -0.1962   -0.1858 C   0  0  0  0  0  0  0  0  0  0  0  0
    0.6636   -0.1551   -1.4133 O   0  0  0  0  0  0  0  0  0  0  0  0
    2.1242   -0.5554    0.3968 C   0  0  0  0  0  0  0  0  0  0  0  0
    3.1511   -0.8320   -0.6784 C   0  0  1  0  0  0  0  0  0  0  0  0
    3.3001    0.4230   -1.5137 C   0  0  0  0  0  0  0  0  0  0  0  0
    4.3986   -1.0919   -0.1149 O   0  0  0  0  0  0  0  0  0  0  0  0
   -3.3234   -2.4964    0.5008 H   0  0  0  0  0  0  0  0  0  0  0  0
   -1.5747   -2.2304    0.3756 H   0  0  0  0  0  0  0  0  0  0  0  0
   -2.6114   -1.8020   -1.0035 H   0  0  0  0  0  0  0  0  0  0  0  0
   -2.8334   -0.4654    1.7574 H   0  0  0  0  0  0  0  0  0  0  0  0
   -4.5815   -0.6472    0.0707 H   0  0  0  0  0  0  0  0  0  0  0  0
   -1.6233    0.4652   -0.9128 H   0  0  0  0  0  0  0  0  0  0  0  0
   -1.6852    1.9603    1.7593 H   0  0  0  0  0  0  0  0  0  0  0  0
   -2.8892    2.2212    0.4247 H   0  0  0  0  0  0  0  0  0  0  0  0
   -1.1284    3.6369    0.0486 H   0  0  0  0  0  0  0  0  0  0  0  0
   -0.1399    0.0571    1.6679 H   0  0  0  0  0  0  0  0  0  0  0  0
    2.4857    0.2051    1.1006 H   0  0  0  0  0  0  0  0  0  0  0  0
    1.9990   -1.5265    0.9553 H   0  0  0  0  0  0  0  0  0  0  0  0
    2.7961   -1.6656   -1.3122 H   0  0  0  0  0  0  0  0  0  0  0  0
    2.9278    1.3017   -0.9301 H   0  0  0  0  0  0  0  0  0  0  0  0
    2.6967    0.3644   -2.4424 H   0  0  0  0  0  0  0  0  0  0  0  0
    4.3637    0.6344   -1.7291 H   0  0  0  0  0  0  0  0  0  0  0  0
    4.5326   -0.5882    0.7201 H   0  0  0  0  0  0  0  0  0  0  0  0
  1  2  1  0
  2  3  1  0
  2  4  1  0
  4  5  1  0
  5  6  1  0
  4  7  1  0
  7  8  1  0
  8  9  2  0
  8 10  1  0
 10 11  1  0
 11 12  1  0
 11 13  1  0
  1 14  1  0
  1 15  1  0
  1 16  1  0
  2 17  1  1
  3 18  1  0
  4 19  1  6
  5 20  1  0
  5 21  1  0
  6 22  1  0
  7 23  1  0
 10 24  1  0
 10 25  1  0
 11 26  1  6
 12 27  1  0
 12 28  1  0
 12 29  1  0
 13 30  1  0
M  END
$$$$

     RDKit          3D

 30 29  0  0  0  0  0  0  0  0999 V2000
   -3.7824   -0.2564   -0.5606 C   0  0  0  0  0  0  0  0  0  0  0  0
   -2.4998   -0.9416   -0.1582 C   0  0  2  0  0  0  0  0  0  0  0  0
   -2.7214   -1.5900    1.0427 O   0  0  0  0  0  0  0  0  0  0  0  0
   -1.4462    0.1014    0.0388 C   0  0  1  0  0  0  0  0  0  0  0  0
   -1.9109    0.9920    1.1756 C   0  0  0  0  0  0  0  0  0  0  0  0
   -3.1129    1.6080    0.9678 O   0  0  0  0  0  0  0  0  0  0  0  0
   -0.1735   -0.4230    0.4740 N   0  0  0  0  0  0  0  0  0  0  0  0
    1.0601   -0.2014   -0.1670 C   0  0  0  0  0  0  0  0  0  0  0  0
    0.9822    0.5273   -1.2080 O   0  0  0  0  0  0  0  0  0  0  0  0
    2.3493   -0.7561    0.3079 C   0  0  0  0  0  0  0  0  0  0  0  0
    3.5056   -0.3708   -0.5524 C   0  0  1  0  0  0  0  0  0  0  0  0
    3.6154    1.1562   -0.5587 C   0  0  0  0  0  0  0  0  0  0  0  0
    4.6672   -0.8636    0.0424 O   0  0  0  0  0  0  0  0  0  0  0  0
   -3.5692    0.6923   -1.1133 H   0  0  0  0  0  0  0  0  0  0  0  0
   -4.3243   -0.8957   -1.3165 H   0  0  0  0  0  0  0  0  0  0  0  0
   -4.4875   -0.1177    0.2823 H   0  0  0  0  0  0  0  0  0  0  0  0
   -2.2697   -1.6469   -0.9857 H   0  0  0  0  0  0  0  0  0  0  0  0
   -1.9715   -2.1534    1.3321 H   0  0  0  0  0  0  0  0  0  0  0  0
   -1.3867    0.7194   -0.8755 H   0  0  0  0  0  0  0  0  0  0  0  0
   -1.1590    1.8136    1.3717 H   0  0  0  0  0  0  0  0  0  0  0  0
   -1.9103    0.4161    2.1487 H   0  0  0  0  0  0  0  0  0  0  0  0
   -3.0201    2.4835    0.5319 H   0  0  0  0  0  0  0  0  0  0  0  0
   -0.1780   -1.0132    1.3345 H   0  0  0  0  0  0  0  0  0  0  0  0
    2.5834   -0.4770    1.3495 H   0  0  0  0  0  0  0  0  0  0  0  0
    2.2381   -1.8650    0.2978 H   0  0  0  0  0  0  0  0  0  0  0  0
    3.4268   -0.7589   -1.5839 H   0  0  0  0  0  0  0  0  0  0  0  0
    2.7315    1.6184   -0.0695 H   0  0  0  0  0  0  0  0  0  0  0  0
    3.7007    1.4838   -1.6129 H   0  0  0  0  0  0  0  0  0  0  0  0
    4.5282    1.4982   -0.0361 H   0  0  0  0  0  0  0  0  0  0  0  0
    4.5348   -0.7796    1.0335 H   0  0  0  0  0  0  0  0  0  0  0  0
  1  2  1  0
  2  3  1  0
  2  4  1  0
  4  5  1  0
  5  6  1  0
  4  7  1  0
  7  8  1  0
  8  9  2  0
  8 10  1  0
 10 11  1  0
 11 12  1  0
 11 13  1  0
  1 14  1  0
  1 15  1  0
  1 16  1  0
  2 17  1  6
  3 18  1  0
  4 19  1  6
  5 20  1  0
  5 21  1  0
  6 22  1  0
  7 23  1  0
 10 24  1  0
 10 25  1  0
 11 26  1  6
 12 27  1  0
 12 28  1  0
 12 29  1  0
 13 30  1  0
M  END
$$$$

     RDKit          3D

 30 29  0  0  0  0  0  0  0  0999 V2000
   -2.3087    1.3896    0.7908 C   0  0  0  0  0  0  0  0  0  0  0  0
   -2.7209    0.4132   -0.2779 C   0  0  2  0  0  0  0  0  0  0  0  0
   -3.9281   -0.1590    0.0868 O   0  0  0  0  0  0  0  0  0  0  0  0
   -1.6712   -0.6652   -0.4866 C   0  0  1  0  0  0  0  0  0  0  0  0
   -2.1750   -1.7018   -1.4626 C   0  0  0  0  0  0  0  0  0  0  0  0
   -2.3486   -1.2028   -2.7411 O   0  0  0  0  0  0  0  0  0  0  0  0
   -0.4029   -0.1145   -0.8667 N   0  0  0  0  0  0  0  0  0  0  0  0
    0.7294   -0.2763   -0.0286 C   0  0  0  0  0  0  0  0  0  0  0  0
    0.5822   -0.9134    1.0482 O   0  0  0  0  0  0  0  0  0  0  0  0
    2.0712    0.2845   -0.3913 C   0  0  0  0  0  0  0  0  0  0  0  0
    3.0853   -0.0433    0.6891 C   0  0  1  0  0  0  0  0  0  0  0  0
    4.4365    0.5206    0.3253 C   0  0  0  0  0  0  0  0  0  0  0  0
    2.6448    0.4568    1.9049 O   0  0  0  0  0  0  0  0  0  0  0  0
   -1.8518    2.2691    0.3344 H   0  0  0  0  0  0  0  0  0  0  0  0
   -1.5586    0.8557    1.4327 H   0  0  0  0  0  0  0  0  0  0  0  0
   -3.1836    1.6260    1.4494 H   0  0  0  0  0  0  0  0  0  0  0  0
   -2.8610    0.9816   -1.2196 H   0  0  0  0  0  0  0  0  0  0  0  0
   -4.6469    0.0218   -0.5709 H   0  0  0  0  0  0  0  0  0  0  0  0
   -1.5656   -1.1790    0.4905 H   0  0  0  0  0  0  0  0  0  0  0  0
   -1.5265   -2.5870   -1.4195 H   0  0  0  0  0  0  0  0  0  0  0  0
   -3.1813   -2.0228   -1.1048 H   0  0  0  0  0  0  0  0  0  0  0  0
   -2.0746   -1.9161   -3.3743 H   0  0  0  0  0  0  0  0  0  0  0  0
   -0.2651    0.4163   -1.7565 H   0  0  0  0  0  0  0  0  0  0  0  0
    2.0114    1.3791   -0.4911 H   0  0  0  0  0  0  0  0  0  0  0  0
    2.3860   -0.1967   -1.3413 H   0  0  0  0  0  0  0  0  0  0  0  0
    3.2056   -1.1388    0.8105 H   0  0  0  0  0  0  0  0  0  0  0  0
    5.0622    0.6834    1.2311 H   0  0  0  0  0  0  0  0  0  0  0  0
    4.9865   -0.1068   -0.3866 H   0  0  0  0  0  0  0  0  0  0  0  0
    4.2827    1.5057   -0.1698 H   0  0  0  0  0  0  0  0  0  0  0  0
    2.7865    1.4203    1.9789 H   0  0  0  0  0  0  0  0  0  0  0  0
  1  2  1  0
  2  3  1  0
  2  4  1  0
  4  5  1  0
  5  6  1  0
  4  7  1  0
  7  8  1  0
  8  9  2  0
  8 10  1  0
 10 11  1  0
 11 12  1  0
 11 13  1  0
  1 14  1  0
  1 15  1  0
  1 16  1  0
  2 17  1  6
  3 18  1  0
  4 19  1  1
  5 20  1  0
  5 21  1  0
  6 22  1  0
  7 23  1  0
 10 24  1  0
 10 25  1  0
 11 26  1  1
 12 27  1  0
 12 28  1  0
 12 29  1  0
 13 30  1  0
M  END
$$$$

     RDKit          3D

 30 29  0  0  0  0  0  0  0  0999 V2000
   -2.4687   -1.1363    1.5264 C   0  0  0  0  0  0  0  0  0  0  0  0
   -2.7809    0.0794    0.7141 C   0  0  2  0  0  0  0  0  0  0  0  0
   -4.0153   -0.1674    0.0687 O   0  0  0  0  0  0  0  0  0  0  0  0
   -1.7820    0.3526   -0.3755 C   0  0  1  0  0  0  0  0  0  0  0  0
   -2.3368    1.5319   -1.1864 C   0  0  0  0  0  0  0  0  0  0  0  0
   -1.5555    1.8125   -2.2851 O   0  0  0  0  0  0  0  0  0  0  0  0
   -0.4623    0.6262    0.1011 N   0  0  0  0  0  0  0  0  0  0  0  0
    0.6944   -0.1002   -0.2539 C   0  0  0  0  0  0  0  0  0  0  0  0
    0.5692   -1.0651   -1.0499 O   0  0  0  0  0  0  0  0  0  0  0  0
    2.0480    0.2032    0.2532 C   0  0  0  0  0  0  0  0  0  0  0  0
    3.1000   -0.7103   -0.2721 C   0  0  1  0  0  0  0  0  0  0  0  0
    4.4293   -0.2894    0.3241 C   0  0  0  0  0  0  0  0  0  0  0  0
    2.8716   -2.0283    0.1454 O   0  0  0  0  0  0  0  0  0  0  0  0
   -3.3854   -1.6851    1.8346 H   0  0  0  0  0  0  0  0  0  0  0  0
   -1.7859   -1.8454    1.0179 H   0  0  0  0  0  0  0  0  0  0  0  0
   -1.9994   -0.7822    2.4860 H   0  0  0  0  0  0  0  0  0  0  0  0
   -2.9313    0.9933    1.3028 H   0  0  0  0  0  0  0  0  0  0  0  0
   -3.7909   -0.8252   -0.6531 H   0  0  0  0  0  0  0  0  0  0  0  0
   -1.7678   -0.5015   -1.0559 H   0  0  0  0  0  0  0  0  0  0  0  0
   -3.3974    1.3740   -1.4349 H   0  0  0  0  0  0  0  0  0  0  0  0
   -2.3020    2.3989   -0.4843 H   0  0  0  0  0  0  0  0  0  0  0  0
   -1.1554    2.6977   -2.2137 H   0  0  0  0  0  0  0  0  0  0  0  0
   -0.3404    1.4262    0.7647 H   0  0  0  0  0  0  0  0  0  0  0  0
    2.3396    1.2510   -0.0453 H   0  0  0  0  0  0  0  0  0  0  0  0
    2.0361    0.1270    1.3525 H   0  0  0  0  0  0  0  0  0  0  0  0
    3.2235   -0.6606   -1.3732 H   0  0  0  0  0  0  0  0  0  0  0  0
    5.2459   -0.3232   -0.4223 H   0  0  0  0  0  0  0  0  0  0  0  0
    4.7266   -0.9632    1.1538 H   0  0  0  0  0  0  0  0  0  0  0  0
    4.3940    0.7620    0.7016 H   0  0  0  0  0  0  0  0  0  0  0  0
    2.5788   -2.5524   -0.6411 H   0  0  0  0  0  0  0  0  0  0  0  0
  1  2  1  0
  2  3  1  0
  2  4  1  0
  4  5  1  0
  5  6  1  0
  4  7  1  0
  7  8  1  0
  8  9  2  0
  8 10  1  0
 10 11  1  0
 11 12  1  0
 11 13  1  0
  1 14  1  0
  1 15  1  0
  1 16  1  0
  2 17  1  1
  3 18  1  0
  4 19  1  6
  5 20  1  0
  5 21  1  0
  6 22  1  0
  7 23  1  0
 10 24  1  0
 10 25  1  0
 11 26  1  6
 12 27  1  0
 12 28  1  0
 12 29  1  0
 13 30  1  0
M  END
$$$$

     RDKit          3D

 30 29  0  0  0  0  0  0  0  0999 V2000
    3.6004    1.3293   -0.8165 C   0  0  0  0  0  0  0  0  0  0  0  0
    2.3467    1.2307    0.0147 C   0  0  2  0  0  0  0  0  0  0  0  0
    2.5645    1.5473    1.3439 O   0  0  0  0  0  0  0  0  0  0  0  0
    1.6561   -0.1045   -0.1426 C   0  0  1  0  0  0  0  0  0  0  0  0
    2.4413   -1.2247    0.5007 C   0  0  0  0  0  0  0  0  0  0  0  0
    1.7166   -2.4038    0.3548 O   0  0  0  0  0  0  0  0  0  0  0  0
    0.3870   -0.0230    0.5399 N   0  0  0  0  0  0  0  0  0  0  0  0
   -0.8060   -0.2016   -0.1979 C   0  0  0  0  0  0  0  0  0  0  0  0
   -0.7186   -0.4262   -1.4286 O   0  0  0  0  0  0  0  0  0  0  0  0
   -2.1551   -0.1344    0.4227 C   0  0  0  0  0  0  0  0  0  0  0  0
   -3.2141   -0.3616   -0.6023 C   0  0  1  0  0  0  0  0  0  0  0  0
   -4.5583   -0.2890    0.0467 C   0  0  0  0  0  0  0  0  0  0  0  0
   -3.0802    0.5231   -1.6691 O   0  0  0  0  0  0  0  0  0  0  0  0
    3.6252    0.4895   -1.5207 H   0  0  0  0  0  0  0  0  0  0  0  0
    3.6512    2.2756   -1.3928 H   0  0  0  0  0  0  0  0  0  0  0  0
    4.5012    1.3016   -0.1727 H   0  0  0  0  0  0  0  0  0  0  0  0
    1.6401    1.9969   -0.3854 H   0  0  0  0  0  0  0  0  0  0  0  0
    2.1561    0.9388    1.9834 H   0  0  0  0  0  0  0  0  0  0  0  0
    1.5423   -0.3062   -1.2107 H   0  0  0  0  0  0  0  0  0  0  0  0
    3.4703   -1.3022    0.1322 H   0  0  0  0  0  0  0  0  0  0  0  0
    2.4950   -1.0376    1.6080 H   0  0  0  0  0  0  0  0  0  0  0  0
    2.1658   -3.0116   -0.3040 H   0  0  0  0  0  0  0  0  0  0  0  0
    0.3178    0.1626    1.5562 H   0  0  0  0  0  0  0  0  0  0  0  0
   -2.2976    0.8072    0.9857 H   0  0  0  0  0  0  0  0  0  0  0  0
   -2.2077   -0.9544    1.1710 H   0  0  0  0  0  0  0  0  0  0  0  0
   -3.0641   -1.3821   -1.0232 H   0  0  0  0  0  0  0  0  0  0  0  0
   -5.2144   -1.0531   -0.4293 H   0  0  0  0  0  0  0  0  0  0  0  0
   -4.4425   -0.4891    1.1280 H   0  0  0  0  0  0  0  0  0  0  0  0
   -4.9590    0.7383   -0.0764 H   0  0  0  0  0  0  0  0  0  0  0  0
   -3.5601    1.3642   -1.5068 H   0  0  0  0  0  0  0  0  0  0  0  0
  1  2  1  0
  2  3  1  0
  2  4  1  0
  4  5  1  0
  5  6  1  0
  4  7  1  0
  7  8  1  0
  8  9  2  0
  8 10  1  0
 10 11  1  0
 11 12  1  0
 11 13  1  0
  1 14  1  0
  1 15  1  0
  1 16  1  0
  2 17  1  6
  3 18  1  0
  4 19  1  6
  5 20  1  0
  5 21  1  0
  6 22  1  0
  7 23  1  0
 10 24  1  0
 10 25  1  0
 11 26  1  6
 12 27  1  0
 12 28  1  0
 12 29  1  0
 13 30  1  0
M  END
$$$$

     RDKit          3D

 30 29  0  0  0  0  0  0  0  0999 V2000
   -1.9881    0.6581   -2.2710 C   0  0  0  0  0  0  0  0  0  0  0  0
   -2.5052   -0.2281   -1.1599 C   0  0  2  0  0  0  0  0  0  0  0  0
   -3.7773    0.2415   -0.8246 O   0  0  0  0  0  0  0  0  0  0  0  0
   -1.6560   -0.1342    0.0683 C   0  0  1  0  0  0  0  0  0  0  0  0
   -2.3536   -0.8822    1.1935 C   0  0  0  0  0  0  0  0  0  0  0  0
   -2.3505   -2.2432    0.8598 O   0  0  0  0  0  0  0  0  0  0  0  0
   -0.3107   -0.5790   -0.1016 N   0  0  0  0  0  0  0  0  0  0  0  0
    0.8429    0.2035    0.0867 C   0  0  0  0  0  0  0  0  0  0  0  0
    0.7218    1.3837    0.4291 O   0  0  0  0  0  0  0  0  0  0  0  0
    2.1840   -0.3676   -0.1194 C   0  0  0  0  0  0  0  0  0  0  0  0
    3.2887    0.6028    0.1245 C   0  0  1  0  0  0  0  0  0  0  0  0
    3.2966    1.1463    1.5323 C   0  0  0  0  0  0  0  0  0  0  0  0
    4.5016   -0.0833   -0.0643 O   0  0  0  0  0  0  0  0  0  0  0  0
   -1.4019   -0.0117   -2.9524 H   0  0  0  0  0  0  0  0  0  0  0  0
   -1.4051    1.5064   -1.9113 H   0  0  0  0  0  0  0  0  0  0  0  0
   -2.8206    1.0508   -2.8905 H   0  0  0  0  0  0  0  0  0  0  0  0
   -2.6458   -1.2769   -1.4939 H   0  0  0  0  0  0  0  0  0  0  0  0
   -3.6923    0.9167   -0.1025 H   0  0  0  0  0  0  0  0  0  0  0  0
   -1.6271    0.9332    0.3734 H   0  0  0  0  0  0  0  0  0  0  0  0
   -3.3954   -0.5589    1.3037 H   0  0  0  0  0  0  0  0  0  0  0  0
   -1.7839   -0.7706    2.1431 H   0  0  0  0  0  0  0  0  0  0  0  0
   -3.2641   -2.6218    0.8930 H   0  0  0  0  0  0  0  0  0  0  0  0
   -0.1743   -1.5744   -0.3915 H   0  0  0  0  0  0  0  0  0  0  0  0
    2.3017   -1.2082    0.5928 H   0  0  0  0  0  0  0  0  0  0  0  0
    2.2891   -0.7634   -1.1434 H   0  0  0  0  0  0  0  0  0  0  0  0
    3.3068    1.4432   -0.5981 H   0  0  0  0  0  0  0  0  0  0  0  0
    2.4207    0.7997    2.1274 H   0  0  0  0  0  0  0  0  0  0  0  0
    3.3412    2.2580    1.5054 H   0  0  0  0  0  0  0  0  0  0  0  0
    4.2070    0.8259    2.1004 H   0  0  0  0  0  0  0  0  0  0  0  0
    4.4500   -0.6662   -0.8801 H   0  0  0  0  0  0  0  0  0  0  0  0
  1  2  1  0
  2  3  1  0
  2  4  1  0
  4  5  1  0
  5  6  1  0
  4  7  1  0
  7  8  1  0
  8  9  2  0
  8 10  1  0
 10 11  1  0
 11 12  1  0
 11 13  1  0
  1 14  1  0
  1 15  1  0
  1 16  1  0
  2 17  1  6
  3 18  1  0
  4 19  1  1
  5 20  1  0
  5 21  1  0
  6 22  1  0
  7 23  1  0
 10 24  1  0
 10 25  1  0
 11 26  1  6
 12 27  1  0
 12 28  1  0
 12 29  1  0
 13 30  1  0
M  END
$$$$

     RDKit          3D

 30 29  0  0  0  0  0  0  0  0999 V2000
    3.2997    1.3622   -0.1614 C   0  0  0  0  0  0  0  0  0  0  0  0
    2.6913    0.2446   -0.9299 C   0  0  2  0  0  0  0  0  0  0  0  0
    2.0123    0.7407   -2.0285 O   0  0  0  0  0  0  0  0  0  0  0  0
    1.7394   -0.6070   -0.1295 C   0  0  1  0  0  0  0  0  0  0  0  0
    2.4647   -1.2750    1.0435 C   0  0  0  0  0  0  0  0  0  0  0  0
    1.5118   -2.1491    1.6122 O   0  0  0  0  0  0  0  0  0  0  0  0
    0.5945    0.1062    0.3432 N   0  0  0  0  0  0  0  0  0  0  0  0
   -0.7109   -0.2968   -0.0501 C   0  0  0  0  0  0  0  0  0  0  0  0
   -0.8902   -1.2808   -0.8158 O   0  0  0  0  0  0  0  0  0  0  0  0
   -1.9143    0.4452    0.4408 C   0  0  0  0  0  0  0  0  0  0  0  0
   -3.1848   -0.1741   -0.1159 C   0  0  1  0  0  0  0  0  0  0  0  0
   -4.3697    0.6091    0.4079 C   0  0  0  0  0  0  0  0  0  0  0  0
   -3.2017   -0.1106   -1.5050 O   0  0  0  0  0  0  0  0  0  0  0  0
    2.7901    2.3367   -0.4121 H   0  0  0  0  0  0  0  0  0  0  0  0
    4.3539    1.4967   -0.5370 H   0  0  0  0  0  0  0  0  0  0  0  0
    3.3011    1.2487    0.9223 H   0  0  0  0  0  0  0  0  0  0  0  0
    3.4940   -0.4437   -1.2991 H   0  0  0  0  0  0  0  0  0  0  0  0
    1.2166    1.2310   -1.7342 H   0  0  0  0  0  0  0  0  0  0  0  0
    1.4227   -1.4410   -0.7890 H   0  0  0  0  0  0  0  0  0  0  0  0
    2.8076   -0.5393    1.7857 H   0  0  0  0  0  0  0  0  0  0  0  0
    3.3279   -1.8446    0.6487 H   0  0  0  0  0  0  0  0  0  0  0  0
    1.2696   -2.8047    0.8942 H   0  0  0  0  0  0  0  0  0  0  0  0
    0.6513    0.9305    0.9785 H   0  0  0  0  0  0  0  0  0  0  0  0
   -1.8561    1.4693    0.0134 H   0  0  0  0  0  0  0  0  0  0  0  0
   -1.9428    0.5131    1.5270 H   0  0  0  0  0  0  0  0  0  0  0  0
   -3.2700   -1.2203    0.1902 H   0  0  0  0  0  0  0  0  0  0  0  0
   -4.1333    0.9928    1.4265 H   0  0  0  0  0  0  0  0  0  0  0  0
   -5.2538   -0.0739    0.4252 H   0  0  0  0  0  0  0  0  0  0  0  0
   -4.5603    1.4456   -0.3042 H   0  0  0  0  0  0  0  0  0  0  0  0
   -3.6606   -0.9115   -1.8476 H   0  0  0  0  0  0  0  0  0  0  0  0
  1  2  1  0
  2  3  1  0
  2  4  1  0
  4  5  1  0
  5  6  1  0
  4  7  1  0
  7  8  1  0
  8  9  2  0
  8 10  1  0
 10 11  1  0
 11 12  1  0
 11 13  1  0
  1 14  1  0
  1 15  1  0
  1 16  1  0
  2 17  1  6
  3 18  1  0
  4 19  1  6
  5 20  1  0
  5 21  1  0
  6 22  1  0
  7 23  1  0
 10 24  1  0
 10 25  1  0
 11 26  1  6
 12 27  1  0
 12 28  1  0
 12 29  1  0
 13 30  1  0
M  END
$$$$

     RDKit          3D

 30 29  0  0  0  0  0  0  0  0999 V2000
    2.1085   -0.6558   -1.5649 C   0  0  0  0  0  0  0  0  0  0  0  0
    2.5672    0.0424   -0.3298 C   0  0  2  0  0  0  0  0  0  0  0  0
    3.6731   -0.6233    0.1854 O   0  0  0  0  0  0  0  0  0  0  0  0
    1.5226    0.1135    0.7548 C   0  0  1  0  0  0  0  0  0  0  0  0
    2.1476    0.7938    1.9482 C   0  0  0  0  0  0  0  0  0  0  0  0
    3.2969    0.0485    2.2778 O   0  0  0  0  0  0  0  0  0  0  0  0
    0.3215    0.7931    0.3174 N   0  0  0  0  0  0  0  0  0  0  0  0
   -0.9470    0.1671    0.2968 C   0  0  0  0  0  0  0  0  0  0  0  0
   -1.0192   -1.0304    0.6772 O   0  0  0  0  0  0  0  0  0  0  0  0
   -2.1181    0.9223   -0.1601 C   0  0  0  0  0  0  0  0  0  0  0  0
   -3.3917    0.1066   -0.1197 C   0  0  1  0  0  0  0  0  0  0  0  0
   -3.3154   -1.1199   -0.9916 C   0  0  0  0  0  0  0  0  0  0  0  0
   -3.6887   -0.3170    1.1787 O   0  0  0  0  0  0  0  0  0  0  0  0
    2.2540   -1.7441   -1.4764 H   0  0  0  0  0  0  0  0  0  0  0  0
    1.0204   -0.4793   -1.7714 H   0  0  0  0  0  0  0  0  0  0  0  0
    2.7034   -0.2475   -2.4254 H   0  0  0  0  0  0  0  0  0  0  0  0
    2.8922    1.0759   -0.5825 H   0  0  0  0  0  0  0  0  0  0  0  0
    4.5097   -0.1638   -0.0661 H   0  0  0  0  0  0  0  0  0  0  0  0
    1.2636   -0.9120    1.0454 H   0  0  0  0  0  0  0  0  0  0  0  0
    1.4667    0.7223    2.8174 H   0  0  0  0  0  0  0  0  0  0  0  0
    2.4216    1.8436    1.7029 H   0  0  0  0  0  0  0  0  0  0  0  0
    3.0911   -0.7223    2.8306 H   0  0  0  0  0  0  0  0  0  0  0  0
    0.3795    1.7854    0.0020 H   0  0  0  0  0  0  0  0  0  0  0  0
   -2.0161    1.2852   -1.2121 H   0  0  0  0  0  0  0  0  0  0  0  0
   -2.2907    1.8048    0.4995 H   0  0  0  0  0  0  0  0  0  0  0  0
   -4.2633    0.7023   -0.4566 H   0  0  0  0  0  0  0  0  0  0  0  0
   -2.8447   -0.9063   -1.9782 H   0  0  0  0  0  0  0  0  0  0  0  0
   -2.8570   -1.9603   -0.4559 H   0  0  0  0  0  0  0  0  0  0  0  0
   -4.3773   -1.4173   -1.2239 H   0  0  0  0  0  0  0  0  0  0  0  0
   -4.5103    0.0925    1.5359 H   0  0  0  0  0  0  0  0  0  0  0  0
  1  2  1  0
  2  3  1  0
  2  4  1  0
  4  5  1  0
  5  6  1  0
  4  7  1  0
  7  8  1  0
  8  9  2  0
  8 10  1  0
 10 11  1  0
 11 12  1  0
 11 13  1  0
  1 14  1  0
  1 15  1  0
  1 16  1  0
  2 17  1  6
  3 18  1  0
  4 19  1  1
  5 20  1  0
  5 21  1  0
  6 22  1  0
  7 23  1  0
 10 24  1  0
 10 25  1  0
 11 26  1  6
 12 27  1  0
 12 28  1  0
 12 29  1  0
 13 30  1  0
M  END
$$$$
