
     RDKit          3D

 31 31  0  0  0  0  0  0  0  0999 V2000
    5.3639    0.5162    0.5292 O   0  0  0  0  0  0  0  0  0  0  0  0
    4.1183   -0.0579    0.7550 C   0  0  0  0  0  0  0  0  0  0  0  0
    3.0750    0.5754   -0.1283 C   0  0  1  0  0  0  0  0  0  0  0  0
    3.4508    0.4086   -1.4724 O   0  0  0  0  0  0  0  0  0  0  0  0
    1.7404   -0.1433    0.0219 C   0  0  0  0  0  0  0  0  0  0  0  0
    0.7727    0.4470   -0.8628 N   0  0  0  0  0  0  0  0  0  0  0  0
   -0.4438   -0.2985   -0.9695 C   0  0  0  0  0  0  0  0  0  0  0  0
   -1.2721   -0.3419    0.3013 C   0  0  2  0  0  0  0  0  0  0  0  0
   -2.3158   -1.4312    0.2210 C   0  0  0  0  0  0  0  0  0  0  0  0
   -3.6524   -1.0281    0.4525 N   0  0  0  0  0  0  0  0  0  0  0  0
   -3.9534    0.3141    0.0848 C   0  0  0  0  0  0  0  0  0  0  0  0
   -2.9363    1.3078    0.5474 C   0  0  0  0  0  0  0  0  0  0  0  0
   -1.6825    0.8550    0.7771 O   0  0  0  0  0  0  0  0  0  0  0  0
    5.2658    1.4299    0.2231 H   0  0  0  0  0  0  0  0  0  0  0  0
    4.1598   -1.1404    0.5336 H   0  0  0  0  0  0  0  0  0  0  0  0
    3.8233    0.0967    1.8312 H   0  0  0  0  0  0  0  0  0  0  0  0
    2.9695    1.6352    0.0628 H   0  0  0  0  0  0  0  0  0  0  0  0
    3.1965   -0.4998   -1.7684 H   0  0  0  0  0  0  0  0  0  0  0  0
    1.9113   -1.2113   -0.1414 H   0  0  0  0  0  0  0  0  0  0  0  0
    1.4045    0.0292    1.0901 H   0  0  0  0  0  0  0  0  0  0  0  0
    0.5840    1.4336   -0.6401 H   0  0  0  0  0  0  0  0  0  0  0  0
   -1.0230    0.1162   -1.8229 H   0  0  0  0  0  0  0  0  0  0  0  0
   -0.1558   -1.3403   -1.2218 H   0  0  0  0  0  0  0  0  0  0  0  0
   -0.5163   -0.7176    1.0761 H   0  0  0  0  0  0  0  0  0  0  0  0
   -2.1511   -1.9524   -0.7731 H   0  0  0  0  0  0  0  0  0  0  0  0
   -2.1010   -2.2610    0.9608 H   0  0  0  0  0  0  0  0  0  0  0  0
   -4.3366   -1.6456   -0.0824 H   0  0  0  0  0  0  0  0  0  0  0  0
   -4.0705    0.4622   -1.0197 H   0  0  0  0  0  0  0  0  0  0  0  0
   -4.9839    0.5414    0.4908 H   0  0  0  0  0  0  0  0  0  0  0  0
   -3.3258    1.6903    1.5447 H   0  0  0  0  0  0  0  0  0  0  0  0
   -2.9156    2.2105   -0.1051 H   0  0  0  0  0  0  0  0  0  0  0  0
  1  2  1  0
  2  3  1  0
  3  4  1  0
  3  5  1  0
  5  6  1  0
  6  7  1  0
  7  8  1  0
  8  9  1  0
  9 10  1  0
 10 11  1  0
 11 12  1  0
 12 13  1  0
 13  8  1  0
  1 14  1  0
  2 15  1  0
  2 16  1  0
  3 17  1  1
  4 18  1  0
  5 19  1  0
  5 20  1  0
  6 21  1  0
  7 22  1  0
  7 23  1  0
  8 24  1  1
  9 25  1  0
  9 26  1  0
 10 27  1  0
 11 28  1  0
 11 29  1  0
 12 30  1  0
 12 31  1  0
M  END
$$$$

     RDKit          3D

 31 31  0  0  0  0  0  0  0  0999 V2000
    4.2451    1.3062   -0.0005 O   0  0  0  0  0  0  0  0  0  0  0  0
    4.4316    0.0265   -0.5393 C   0  0  0  0  0  0  0  0  0  0  0  0
    3.2715   -0.8446   -0.0356 C   0  0  1  0  0  0  0  0  0  0  0  0
    3.3396   -0.9097    1.3427 O   0  0  0  0  0  0  0  0  0  0  0  0
    2.0289   -0.1811   -0.5369 C   0  0  0  0  0  0  0  0  0  0  0  0
    0.7880   -0.8593   -0.2136 N   0  0  0  0  0  0  0  0  0  0  0  0
   -0.2308    0.1293   -0.5859 C   0  0  0  0  0  0  0  0  0  0  0  0
   -1.6174   -0.3948   -0.6522 C   0  0  2  0  0  0  0  0  0  0  0  0
   -2.5007    0.8557   -0.8960 C   0  0  0  0  0  0  0  0  0  0  0  0
   -2.8517    1.3679    0.3922 N   0  0  0  0  0  0  0  0  0  0  0  0
   -3.8893    0.5125    0.9429 C   0  0  0  0  0  0  0  0  0  0  0  0
   -3.5432   -0.9049    0.4638 C   0  0  0  0  0  0  0  0  0  0  0  0
   -2.1210   -0.9669    0.5012 O   0  0  0  0  0  0  0  0  0  0  0  0
    3.6969    1.2796    0.8430 H   0  0  0  0  0  0  0  0  0  0  0  0
    5.4109   -0.3896   -0.2745 H   0  0  0  0  0  0  0  0  0  0  0  0
    4.2780    0.1275   -1.6478 H   0  0  0  0  0  0  0  0  0  0  0  0
    3.4346   -1.8460   -0.4383 H   0  0  0  0  0  0  0  0  0  0  0  0
    3.8805   -1.6803    1.6443 H   0  0  0  0  0  0  0  0  0  0  0  0
    2.1170   -0.1837   -1.6619 H   0  0  0  0  0  0  0  0  0  0  0  0
    2.0086    0.8633   -0.2135 H   0  0  0  0  0  0  0  0  0  0  0  0
    0.7104   -0.9760    0.8192 H   0  0  0  0  0  0  0  0  0  0  0  0
    0.0052    0.6243   -1.5535 H   0  0  0  0  0  0  0  0  0  0  0  0
   -0.2239    0.9587    0.1837 H   0  0  0  0  0  0  0  0  0  0  0  0
   -1.7890   -1.1037   -1.4983 H   0  0  0  0  0  0  0  0  0  0  0  0
   -3.3306    0.6376   -1.5529 H   0  0  0  0  0  0  0  0  0  0  0  0
   -1.8537    1.5932   -1.4238 H   0  0  0  0  0  0  0  0  0  0  0  0
   -3.0982    2.3759    0.3757 H   0  0  0  0  0  0  0  0  0  0  0  0
   -4.8953    0.8185    0.6445 H   0  0  0  0  0  0  0  0  0  0  0  0
   -3.8151    0.4863    2.0550 H   0  0  0  0  0  0  0  0  0  0  0  0
   -3.9680   -1.6771    1.1012 H   0  0  0  0  0  0  0  0  0  0  0  0
   -3.9188   -1.0450   -0.5749 H   0  0  0  0  0  0  0  0  0  0  0  0
  1  2  1  0
  2  3  1  0
  3  4  1  0
  3  5  1  0
  5  6  1  0
  6  7  1  0
  7  8  1  0
  8  9  1  0
  9 10  1  0
 10 11  1  0
 11 12  1  0
 12 13  1  0
 13  8  1  0
  1 14  1  0
  2 15  1  0
  2 16  1  0
  3 17  1  6
  4 18  1  0
  5 19  1  0
  5 20  1  0
  6 21  1  0
  7 22  1  0
  7 23  1  0
  8 24  1  6
  9 25  1  0
  9 26  1  0
 10 27  1  0
 11 28  1  0
 11 29  1  0
 12 30  1  0
 12 31  1  0
M  END
$$$$

     RDKit          3D

 31 31  0  0  0  0  0  0  0  0999 V2000
    4.0344    1.6613   -0.0614 O   0  0  0  0  0  0  0  0  0  0  0  0
    3.7939    0.6233   -0.9758 C   0  0  0  0  0  0  0  0  0  0  0  0
    3.2738   -0.6134   -0.1968 C   0  0  1  0  0  0  0  0  0  0  0  0
    4.3391   -0.8565    0.7202 O   0  0  0  0  0  0  0  0  0  0  0  0
    2.0752   -0.2576    0.6063 C   0  0  0  0  0  0  0  0  0  0  0  0
    0.8618   -0.0653   -0.1801 N   0  0  0  0  0  0  0  0  0  0  0  0
   -0.1630    0.2843    0.7717 C   0  0  0  0  0  0  0  0  0  0  0  0
   -1.5585    0.2208    0.2818 C   0  0  2  0  0  0  0  0  0  0  0  0
   -2.0067   -1.1937   -0.0391 C   0  0  0  0  0  0  0  0  0  0  0  0
   -3.4469   -1.1897   -0.0129 N   0  0  0  0  0  0  0  0  0  0  0  0
   -4.0170    0.1188   -0.1464 C   0  0  0  0  0  0  0  0  0  0  0  0
   -3.2240    1.0547   -1.0064 C   0  0  0  0  0  0  0  0  0  0  0  0
   -1.8515    1.0230   -0.7798 O   0  0  0  0  0  0  0  0  0  0  0  0
    3.3166    2.3338   -0.0857 H   0  0  0  0  0  0  0  0  0  0  0  0
    3.0341    0.9539   -1.6809 H   0  0  0  0  0  0  0  0  0  0  0  0
    4.7870    0.3843   -1.4355 H   0  0  0  0  0  0  0  0  0  0  0  0
    3.1874   -1.4544   -0.8753 H   0  0  0  0  0  0  0  0  0  0  0  0
    4.4778   -1.8399    0.7996 H   0  0  0  0  0  0  0  0  0  0  0  0
    2.2942    0.6891    1.1596 H   0  0  0  0  0  0  0  0  0  0  0  0
    1.8707   -1.0010    1.4218 H   0  0  0  0  0  0  0  0  0  0  0  0
    0.6386   -0.8178   -0.8226 H   0  0  0  0  0  0  0  0  0  0  0  0
    0.0348    1.3778    1.0187 H   0  0  0  0  0  0  0  0  0  0  0  0
    0.0031   -0.2545    1.7016 H   0  0  0  0  0  0  0  0  0  0  0  0
   -2.2299    0.5388    1.1369 H   0  0  0  0  0  0  0  0  0  0  0  0
   -1.6400   -1.9127    0.7267 H   0  0  0  0  0  0  0  0  0  0  0  0
   -1.6811   -1.4777   -1.0540 H   0  0  0  0  0  0  0  0  0  0  0  0
   -3.8771   -1.9171   -0.5866 H   0  0  0  0  0  0  0  0  0  0  0  0
   -4.2532    0.5799    0.8560 H   0  0  0  0  0  0  0  0  0  0  0  0
   -5.0098   -0.0276   -0.6327 H   0  0  0  0  0  0  0  0  0  0  0  0
   -3.5595    2.0967   -0.7175 H   0  0  0  0  0  0  0  0  0  0  0  0
   -3.5042    0.9386   -2.0739 H   0  0  0  0  0  0  0  0  0  0  0  0
  1  2  1  0
  2  3  1  0
  3  4  1  0
  3  5  1  0
  5  6  1  0
  6  7  1  0
  7  8  1  0
  8  9  1  0
  9 10  1  0
 10 11  1  0
 11 12  1  0
 12 13  1  0
 13  8  1  0
  1 14  1  0
  2 15  1  0
  2 16  1  0
  3 17  1  6
  4 18  1  0
  5 19  1  0
  5 20  1  0
  6 21  1  0
  7 22  1  0
  7 23  1  0
  8 24  1  1
  9 25  1  0
  9 26  1  0
 10 27  1  0
 11 28  1  0
 11 29  1  0
 12 30  1  0
 12 31  1  0
M  END
$$$$

     RDKit          3D

 31 31  0  0  0  0  0  0  0  0999 V2000
    2.3925    1.4400   -1.6270 O   0  0  0  0  0  0  0  0  0  0  0  0
    2.6451    0.0512   -1.6592 C   0  0  0  0  0  0  0  0  0  0  0  0
    3.0777   -0.4292   -0.2801 C   0  0  1  0  0  0  0  0  0  0  0  0
    4.2986    0.3279   -0.0463 O   0  0  0  0  0  0  0  0  0  0  0  0
    2.1893    0.0048    0.8289 C   0  0  0  0  0  0  0  0  0  0  0  0
    0.9308   -0.6020    1.0097 N   0  0  0  0  0  0  0  0  0  0  0  0
   -0.0788   -0.4400    0.0478 C   0  0  0  0  0  0  0  0  0  0  0  0
   -1.4588   -0.9091    0.5722 C   0  0  2  0  0  0  0  0  0  0  0  0
   -2.4658   -0.8881   -0.5002 C   0  0  0  0  0  0  0  0  0  0  0  0
   -3.6976   -0.2403   -0.2372 N   0  0  0  0  0  0  0  0  0  0  0  0
   -3.7206    0.6952    0.8415 C   0  0  0  0  0  0  0  0  0  0  0  0
   -2.2856    1.0682    1.1822 C   0  0  0  0  0  0  0  0  0  0  0  0
   -1.7201   -0.1203    1.6762 O   0  0  0  0  0  0  0  0  0  0  0  0
    2.9927    1.8071   -0.9165 H   0  0  0  0  0  0  0  0  0  0  0  0
    1.8123   -0.4530   -2.1045 H   0  0  0  0  0  0  0  0  0  0  0  0
    3.5231   -0.1241   -2.3687 H   0  0  0  0  0  0  0  0  0  0  0  0
    3.2781   -1.4825   -0.3186 H   0  0  0  0  0  0  0  0  0  0  0  0
    4.8221    0.3602   -0.8728 H   0  0  0  0  0  0  0  0  0  0  0  0
    2.7633   -0.0655    1.8006 H   0  0  0  0  0  0  0  0  0  0  0  0
    2.0115    1.1384    0.7449 H   0  0  0  0  0  0  0  0  0  0  0  0
    1.0516   -1.5865    1.3377 H   0  0  0  0  0  0  0  0  0  0  0  0
   -0.1014    0.5667   -0.3617 H   0  0  0  0  0  0  0  0  0  0  0  0
    0.1550   -1.1406   -0.8230 H   0  0  0  0  0  0  0  0  0  0  0  0
   -1.2747   -1.9427    0.9679 H   0  0  0  0  0  0  0  0  0  0  0  0
   -2.7180   -1.9654   -0.7592 H   0  0  0  0  0  0  0  0  0  0  0  0
   -2.0074   -0.4732   -1.4286 H   0  0  0  0  0  0  0  0  0  0  0  0
   -4.0268    0.2768   -1.1100 H   0  0  0  0  0  0  0  0  0  0  0  0
   -4.1310    0.1927    1.7465 H   0  0  0  0  0  0  0  0  0  0  0  0
   -4.2204    1.6553    0.6074 H   0  0  0  0  0  0  0  0  0  0  0  0
   -1.8460    1.3600    0.1875 H   0  0  0  0  0  0  0  0  0  0  0  0
   -2.1906    1.9180    1.8626 H   0  0  0  0  0  0  0  0  0  0  0  0
  1  2  1  0
  2  3  1  0
  3  4  1  0
  3  5  1  0
  5  6  1  0
  6  7  1  0
  7  8  1  0
  8  9  1  0
  9 10  1  0
 10 11  1  0
 11 12  1  0
 12 13  1  0
 13  8  1  0
  1 14  1  0
  2 15  1  0
  2 16  1  0
  3 17  1  6
  4 18  1  0
  5 19  1  0
  5 20  1  0
  6 21  1  0
  7 22  1  0
  7 23  1  0
  8 24  1  1
  9 25  1  0
  9 26  1  0
 10 27  1  0
 11 28  1  0
 11 29  1  0
 12 30  1  0
 12 31  1  0
M  END
$$$$

     RDKit          3D

 31 31  0  0  0  0  0  0  0  0999 V2000
   -4.2150    1.7211    0.6764 O   0  0  0  0  0  0  0  0  0  0  0  0
   -3.1383    1.0028    0.1447 C   0  0  0  0  0  0  0  0  0  0  0  0
   -3.3275   -0.4849    0.2411 C   0  0  1  0  0  0  0  0  0  0  0  0
   -4.4559   -0.9042   -0.4275 O   0  0  0  0  0  0  0  0  0  0  0  0
   -2.0766   -1.0956   -0.3952 C   0  0  0  0  0  0  0  0  0  0  0  0
   -0.9147   -0.6108    0.3207 N   0  0  0  0  0  0  0  0  0  0  0  0
    0.2512   -1.0429   -0.3869 C   0  0  0  0  0  0  0  0  0  0  0  0
    1.5378   -0.6086    0.3193 C   0  0  2  0  0  0  0  0  0  0  0  0
    1.5059    0.8341    0.6628 C   0  0  0  0  0  0  0  0  0  0  0  0
    2.8506    1.2828    1.0316 N   0  0  0  0  0  0  0  0  0  0  0  0
    3.6694    1.0689   -0.1597 C   0  0  0  0  0  0  0  0  0  0  0  0
    3.7625   -0.4118   -0.3708 C   0  0  0  0  0  0  0  0  0  0  0  0
    2.5599   -1.0397   -0.4773 O   0  0  0  0  0  0  0  0  0  0  0  0
   -3.8349    2.6115    0.9581 H   0  0  0  0  0  0  0  0  0  0  0  0
   -2.2611    1.2410    0.8067 H   0  0  0  0  0  0  0  0  0  0  0  0
   -2.9352    1.2816   -0.8917 H   0  0  0  0  0  0  0  0  0  0  0  0
   -3.3896   -0.8332    1.2900 H   0  0  0  0  0  0  0  0  0  0  0  0
   -4.4212   -0.7139   -1.3910 H   0  0  0  0  0  0  0  0  0  0  0  0
   -2.0360   -0.8614   -1.4497 H   0  0  0  0  0  0  0  0  0  0  0  0
   -2.1086   -2.2052   -0.2517 H   0  0  0  0  0  0  0  0  0  0  0  0
   -0.9079   -0.8927    1.3074 H   0  0  0  0  0  0  0  0  0  0  0  0
    0.2791   -2.1445   -0.4134 H   0  0  0  0  0  0  0  0  0  0  0  0
    0.2256   -0.6084   -1.3936 H   0  0  0  0  0  0  0  0  0  0  0  0
    1.5060   -1.1905    1.2962 H   0  0  0  0  0  0  0  0  0  0  0  0
    0.9037    0.9632    1.6098 H   0  0  0  0  0  0  0  0  0  0  0  0
    1.0721    1.5010   -0.0900 H   0  0  0  0  0  0  0  0  0  0  0  0
    3.2069    0.5812    1.7328 H   0  0  0  0  0  0  0  0  0  0  0  0
    4.7022    1.4314    0.0233 H   0  0  0  0  0  0  0  0  0  0  0  0
    3.2428    1.5757   -1.0395 H   0  0  0  0  0  0  0  0  0  0  0  0
    4.4436   -0.8555    0.3929 H   0  0  0  0  0  0  0  0  0  0  0  0
    4.3032   -0.5924   -1.3493 H   0  0  0  0  0  0  0  0  0  0  0  0
  1  2  1  0
  2  3  1  0
  3  4  1  0
  3  5  1  0
  5  6  1  0
  6  7  1  0
  7  8  1  0
  8  9  1  0
  9 10  1  0
 10 11  1  0
 11 12  1  0
 12 13  1  0
 13  8  1  0
  1 14  1  0
  2 15  1  0
  2 16  1  0
  3 17  1  1
  4 18  1  0
  5 19  1  0
  5 20  1  0
  6 21  1  0
  7 22  1  0
  7 23  1  0
  8 24  1  1
  9 25  1  0
  9 26  1  0
 10 27  1  0
 11 28  1  0
 11 29  1  0
 12 30  1  0
 12 31  1  0
M  END
$$$$

     RDKit          3D

 31 31  0  0  0  0  0  0  0  0999 V2000
    4.8812   -0.7481    0.1107 O   0  0  0  0  0  0  0  0  0  0  0  0
    4.3319    0.4661   -0.3376 C   0  0  0  0  0  0  0  0  0  0  0  0
    2.9057    0.6179    0.1849 C   0  0  1  0  0  0  0  0  0  0  0  0
    2.4157    1.8202   -0.2836 O   0  0  0  0  0  0  0  0  0  0  0  0
    2.0868   -0.5856   -0.1565 C   0  0  0  0  0  0  0  0  0  0  0  0
    0.7571   -0.5442    0.3689 N   0  0  0  0  0  0  0  0  0  0  0  0
   -0.1113    0.4343   -0.2186 C   0  0  0  0  0  0  0  0  0  0  0  0
   -1.4750    0.2413    0.4675 C   0  0  2  0  0  0  0  0  0  0  0  0
   -1.9590   -1.1574    0.1592 C   0  0  0  0  0  0  0  0  0  0  0  0
   -2.9767   -1.1170   -0.8989 N   0  0  0  0  0  0  0  0  0  0  0  0
   -4.1521   -0.3647   -0.4381 C   0  0  0  0  0  0  0  0  0  0  0  0
   -3.6507    0.7423    0.4621 C   0  0  0  0  0  0  0  0  0  0  0  0
   -2.4002    1.1649   -0.0529 O   0  0  0  0  0  0  0  0  0  0  0  0
    4.5274   -1.4958   -0.4290 H   0  0  0  0  0  0  0  0  0  0  0  0
    4.3160    0.5405   -1.4419 H   0  0  0  0  0  0  0  0  0  0  0  0
    4.9043    1.3076    0.1342 H   0  0  0  0  0  0  0  0  0  0  0  0
    2.9472    0.7142    1.3023 H   0  0  0  0  0  0  0  0  0  0  0  0
    2.2463    1.7612   -1.2574 H   0  0  0  0  0  0  0  0  0  0  0  0
    2.5972   -1.4971    0.2523 H   0  0  0  0  0  0  0  0  0  0  0  0
    2.0247   -0.7153   -1.2806 H   0  0  0  0  0  0  0  0  0  0  0  0
    0.6729   -0.6629    1.3818 H   0  0  0  0  0  0  0  0  0  0  0  0
    0.1948    1.4834    0.0509 H   0  0  0  0  0  0  0  0  0  0  0  0
   -0.2083    0.2886   -1.3001 H   0  0  0  0  0  0  0  0  0  0  0  0
   -1.4002    0.4543    1.5397 H   0  0  0  0  0  0  0  0  0  0  0  0
   -1.1463   -1.8009   -0.2387 H   0  0  0  0  0  0  0  0  0  0  0  0
   -2.3934   -1.6612    1.0382 H   0  0  0  0  0  0  0  0  0  0  0  0
   -2.5402   -0.5302   -1.6560 H   0  0  0  0  0  0  0  0  0  0  0  0
   -4.6926    0.0463   -1.3176 H   0  0  0  0  0  0  0  0  0  0  0  0
   -4.8449   -1.0513    0.1067 H   0  0  0  0  0  0  0  0  0  0  0  0
   -3.5009    0.2775    1.4808 H   0  0  0  0  0  0  0  0  0  0  0  0
   -4.3573    1.5711    0.5698 H   0  0  0  0  0  0  0  0  0  0  0  0
  1  2  1  0
  2  3  1  0
  3  4  1  0
  3  5  1  0
  5  6  1  0
  6  7  1  0
  7  8  1  0
  8  9  1  0
  9 10  1  0
 10 11  1  0
 11 12  1  0
 12 13  1  0
 13  8  1  0
  1 14  1  0
  2 15  1  0
  2 16  1  0
  3 17  1  1
  4 18  1  0
  5 19  1  0
  5 20  1  0
  6 21  1  0
  7 22  1  0
  7 23  1  0
  8 24  1  1
  9 25  1  0
  9 26  1  0
 10 27  1  0
 11 28  1  0
 11 29  1  0
 12 30  1  0
 12 31  1  0
M  END
$$$$

     RDKit          3D

 31 31  0  0  0  0  0  0  0  0999 V2000
    4.3754   -1.5865   -0.4393 O   0  0  0  0  0  0  0  0  0  0  0  0
    3.4311   -0.8168    0.2330 C   0  0  0  0  0  0  0  0  0  0  0  0
    3.0097    0.3807   -0.6114 C   0  0  1  0  0  0  0  0  0  0  0  0
    2.4921   -0.0669   -1.7912 O   0  0  0  0  0  0  0  0  0  0  0  0
    2.1507    1.3452    0.1670 C   0  0  0  0  0  0  0  0  0  0  0  0
    0.8582    0.8361    0.5288 N   0  0  0  0  0  0  0  0  0  0  0  0
   -0.0838    0.6933   -0.5292 C   0  0  0  0  0  0  0  0  0  0  0  0
   -1.3077   -0.0013    0.0179 C   0  0  2  0  0  0  0  0  0  0  0  0
   -2.3249   -0.2417   -1.0797 C   0  0  0  0  0  0  0  0  0  0  0  0
   -3.4871   -0.8330   -0.5137 N   0  0  0  0  0  0  0  0  0  0  0  0
   -3.9561   -0.2619    0.7130 C   0  0  0  0  0  0  0  0  0  0  0  0
   -2.7849   -0.1368    1.6729 C   0  0  0  0  0  0  0  0  0  0  0  0
   -1.8645    0.7329    1.0645 O   0  0  0  0  0  0  0  0  0  0  0  0
    5.2799   -1.1878   -0.4061 H   0  0  0  0  0  0  0  0  0  0  0  0
    3.8486   -0.4251    1.2048 H   0  0  0  0  0  0  0  0  0  0  0  0
    2.5310   -1.4308    0.4055 H   0  0  0  0  0  0  0  0  0  0  0  0
    3.9702    0.9442   -0.8144 H   0  0  0  0  0  0  0  0  0  0  0  0
    2.2646   -1.0366   -1.8142 H   0  0  0  0  0  0  0  0  0  0  0  0
    2.7022    1.4992    1.1487 H   0  0  0  0  0  0  0  0  0  0  0  0
    2.1200    2.3484   -0.3028 H   0  0  0  0  0  0  0  0  0  0  0  0
    0.4419    1.5754    1.1758 H   0  0  0  0  0  0  0  0  0  0  0  0
   -0.4500    1.6897   -0.9179 H   0  0  0  0  0  0  0  0  0  0  0  0
    0.2388    0.1484   -1.4182 H   0  0  0  0  0  0  0  0  0  0  0  0
   -1.0603   -1.0105    0.4459 H   0  0  0  0  0  0  0  0  0  0  0  0
   -1.8752   -0.9342   -1.8061 H   0  0  0  0  0  0  0  0  0  0  0  0
   -2.5756    0.7602   -1.4967 H   0  0  0  0  0  0  0  0  0  0  0  0
   -3.4605   -1.8559   -0.4440 H   0  0  0  0  0  0  0  0  0  0  0  0
   -4.4080    0.7482    0.5112 H   0  0  0  0  0  0  0  0  0  0  0  0
   -4.6939   -0.9534    1.1714 H   0  0  0  0  0  0  0  0  0  0  0  0
   -3.0963    0.2200    2.6636 H   0  0  0  0  0  0  0  0  0  0  0  0
   -2.2855   -1.1428    1.7014 H   0  0  0  0  0  0  0  0  0  0  0  0
  1  2  1  0
  2  3  1  0
  3  4  1  0
  3  5  1  0
  5  6  1  0
  6  7  1  0
  7  8  1  0
  8  9  1  0
  9 10  1  0
 10 11  1  0
 11 12  1  0
 12 13  1  0
 13  8  1  0
  1 14  1  0
  2 15  1  0
  2 16  1  0
  3 17  1  6
  4 18  1  0
  5 19  1  0
  5 20  1  0
  6 21  1  0
  7 22  1  0
  7 23  1  0
  8 24  1  1
  9 25  1  0
  9 26  1  0
 10 27  1  0
 11 28  1  0
 11 29  1  0
 12 30  1  0
 12 31  1  0
M  END
$$$$

     RDKit          3D

 31 31  0  0  0  0  0  0  0  0999 V2000
    2.6763    1.1051   -1.3758 O   0  0  0  0  0  0  0  0  0  0  0  0
    3.5506    0.2243   -0.7856 C   0  0  0  0  0  0  0  0  0  0  0  0
    2.8149   -0.9726   -0.2120 C   0  0  1  0  0  0  0  0  0  0  0  0
    3.7603   -1.8415    0.3610 O   0  0  0  0  0  0  0  0  0  0  0  0
    1.9023   -0.5434    0.8999 C   0  0  0  0  0  0  0  0  0  0  0  0
    0.9022    0.3402    0.4230 N   0  0  0  0  0  0  0  0  0  0  0  0
   -0.0718   -0.2168   -0.4557 C   0  0  0  0  0  0  0  0  0  0  0  0
   -1.1659    0.8036   -0.7631 C   0  0  2  0  0  0  0  0  0  0  0  0
   -1.7509    1.2072    0.5706 C   0  0  0  0  0  0  0  0  0  0  0  0
   -3.1640    1.1161    0.6571 N   0  0  0  0  0  0  0  0  0  0  0  0
   -3.7371   -0.0730    0.1294 C   0  0  0  0  0  0  0  0  0  0  0  0
   -2.9412   -0.6589   -1.0170 C   0  0  0  0  0  0  0  0  0  0  0  0
   -2.1209    0.2812   -1.6227 O   0  0  0  0  0  0  0  0  0  0  0  0
    2.4106    1.8023   -0.6988 H   0  0  0  0  0  0  0  0  0  0  0  0
    4.3275   -0.1722   -1.4925 H   0  0  0  0  0  0  0  0  0  0  0  0
    4.1040    0.6708    0.0635 H   0  0  0  0  0  0  0  0  0  0  0  0
    2.3018   -1.5242   -1.0015 H   0  0  0  0  0  0  0  0  0  0  0  0
    3.5957   -2.7713    0.0739 H   0  0  0  0  0  0  0  0  0  0  0  0
    1.4958   -1.4139    1.4673 H   0  0  0  0  0  0  0  0  0  0  0  0
    2.5093    0.0352    1.6592 H   0  0  0  0  0  0  0  0  0  0  0  0
    0.5826    1.0517    1.0772 H   0  0  0  0  0  0  0  0  0  0  0  0
    0.4508   -0.5196   -1.3935 H   0  0  0  0  0  0  0  0  0  0  0  0
   -0.5377   -1.1323   -0.0195 H   0  0  0  0  0  0  0  0  0  0  0  0
   -0.6881    1.6489   -1.2825 H   0  0  0  0  0  0  0  0  0  0  0  0
   -1.4524    2.2603    0.7769 H   0  0  0  0  0  0  0  0  0  0  0  0
   -1.3391    0.5962    1.4225 H   0  0  0  0  0  0  0  0  0  0  0  0
   -3.7079    1.9714    0.6187 H   0  0  0  0  0  0  0  0  0  0  0  0
   -4.7849    0.1514   -0.1930 H   0  0  0  0  0  0  0  0  0  0  0  0
   -3.8455   -0.8736    0.9210 H   0  0  0  0  0  0  0  0  0  0  0  0
   -2.4036   -1.5683   -0.6811 H   0  0  0  0  0  0  0  0  0  0  0  0
   -3.6735   -0.9844   -1.7862 H   0  0  0  0  0  0  0  0  0  0  0  0
  1  2  1  0
  2  3  1  0
  3  4  1  0
  3  5  1  0
  5  6  1  0
  6  7  1  0
  7  8  1  0
  8  9  1  0
  9 10  1  0
 10 11  1  0
 11 12  1  0
 12 13  1  0
 13  8  1  0
  1 14  1  0
  2 15  1  0
  2 16  1  0
  3 17  1  6
  4 18  1  0
  5 19  1  0
  5 20  1  0
  6 21  1  0
  7 22  1  0
  7 23  1  0
  8 24  1  6
  9 25  1  0
  9 26  1  0
 10 27  1  0
 11 28  1  0
 11 29  1  0
 12 30  1  0
 12 31  1  0
M  END
$$$$
