
     RDKit          3D

 24 25  0  0  0  0  0  0  0  0999 V2000
   -4.1545    1.0326    0.0332 N   0  0  0  0  0  0  0  0  0  0  0  0
   -3.0472    0.3814    0.0433 C   0  0  0  0  0  0  0  0  0  0  0  0
   -2.9755   -1.0411    0.2183 N   0  0  0  0  0  0  0  0  0  0  0  0
   -1.5960   -1.3778    0.1709 C   0  0  0  0  0  0  0  0  0  0  0  0
   -1.0638   -2.4837   -0.0905 O   0  0  0  0  0  0  0  0  0  0  0  0
   -0.8654   -0.1146    0.5047 C   0  0  1  0  0  0  0  0  0  0  0  0
    0.5154   -0.1557   -0.1360 C   0  0  1  0  0  0  0  0  0  0  0  0
    1.1600    1.1688   -0.2138 C   0  0  0  0  0  0  0  0  0  0  0  0
    2.5144    1.2067   -0.1617 O   0  0  0  0  0  0  0  0  0  0  0  0
    3.1272    0.1976    0.5321 C   0  0  0  0  0  0  0  0  0  0  0  0
    2.5284   -1.1210    0.0268 C   0  0  0  0  0  0  0  0  0  0  0  0
    1.2266   -1.1303    0.5262 O   0  0  0  0  0  0  0  0  0  0  0  0
   -1.7179    0.8777   -0.1061 N   0  0  0  0  0  0  0  0  0  0  0  0
   -4.1156    2.0602   -0.0992 H   0  0  0  0  0  0  0  0  0  0  0  0
   -3.7455   -1.7275    0.3552 H   0  0  0  0  0  0  0  0  0  0  0  0
   -0.8343    0.0233    1.5846 H   0  0  0  0  0  0  0  0  0  0  0  0
    0.3382   -0.5445   -1.1808 H   0  0  0  0  0  0  0  0  0  0  0  0
    0.8429    1.6533   -1.1852 H   0  0  0  0  0  0  0  0  0  0  0  0
    0.7117    1.8400    0.5720 H   0  0  0  0  0  0  0  0  0  0  0  0
    2.8742    0.3203    1.6193 H   0  0  0  0  0  0  0  0  0  0  0  0
    4.1993    0.1817    0.3506 H   0  0  0  0  0  0  0  0  0  0  0  0
    2.4502   -1.0360   -1.0736 H   0  0  0  0  0  0  0  0  0  0  0  0
    3.1219   -1.9833    0.3661 H   0  0  0  0  0  0  0  0  0  0  0  0
   -1.4948    1.7720   -0.5684 H   0  0  0  0  0  0  0  0  0  0  0  0
  1  2  2  3
  2  3  1  0
  3  4  1  0
  4  5  2  0
  4  6  1  0
  6  7  1  0
  7  8  1  0
  8  9  1  0
  9 10  1  0
 10 11  1  0
 11 12  1  0
  6 13  1  0
 13  2  1  0
 12  7  1  0
  1 14  1  0
  3 15  1  0
  6 16  1  1
  7 17  1  6
  8 18  1  0
  8 19  1  0
 10 20  1  0
 10 21  1  0
 11 22  1  0
 11 23  1  0
 13 24  1  0
M  END
$$$$

     RDKit          3D

 24 25  0  0  0  0  0  0  0  0999 V2000
   -3.8292    0.8339    1.1551 N   0  0  0  0  0  0  0  0  0  0  0  0
   -2.8990    0.4364    0.3580 C   0  0  0  0  0  0  0  0  0  0  0  0
   -2.9411    0.3892   -1.0609 N   0  0  0  0  0  0  0  0  0  0  0  0
   -1.6936   -0.1164   -1.5127 C   0  0  0  0  0  0  0  0  0  0  0  0
   -1.3347   -0.1448   -2.7145 O   0  0  0  0  0  0  0  0  0  0  0  0
   -0.9203   -0.5858   -0.3651 C   0  0  1  0  0  0  0  0  0  0  0  0
    0.4717    0.0035   -0.3210 C   0  0  1  0  0  0  0  0  0  0  0  0
    1.1416   -0.3099    0.9839 C   0  0  0  0  0  0  0  0  0  0  0  0
    2.3375   -0.9640    0.8675 O   0  0  0  0  0  0  0  0  0  0  0  0
    3.1912   -0.4834   -0.0818 C   0  0  0  0  0  0  0  0  0  0  0  0
    2.4906    0.2171   -1.2253 C   0  0  0  0  0  0  0  0  0  0  0  0
    1.2556   -0.4549   -1.3885 O   0  0  0  0  0  0  0  0  0  0  0  0
   -1.6333   -0.0366    0.7890 N   0  0  0  0  0  0  0  0  0  0  0  0
   -4.7479    1.1759    0.8173 H   0  0  0  0  0  0  0  0  0  0  0  0
   -3.7726    0.6872   -1.6281 H   0  0  0  0  0  0  0  0  0  0  0  0
   -0.9301   -1.6787   -0.3202 H   0  0  0  0  0  0  0  0  0  0  0  0
    0.3668    1.0989   -0.4659 H   0  0  0  0  0  0  0  0  0  0  0  0
    1.3041    0.6005    1.5971 H   0  0  0  0  0  0  0  0  0  0  0  0
    0.4621   -0.9749    1.5937 H   0  0  0  0  0  0  0  0  0  0  0  0
    3.9459    0.1694    0.3801 H   0  0  0  0  0  0  0  0  0  0  0  0
    3.7077   -1.3741   -0.5464 H   0  0  0  0  0  0  0  0  0  0  0  0
    2.2564    1.2545   -0.8725 H   0  0  0  0  0  0  0  0  0  0  0  0
    3.0796    0.2366   -2.1374 H   0  0  0  0  0  0  0  0  0  0  0  0
   -1.3092    0.0204    1.7775 H   0  0  0  0  0  0  0  0  0  0  0  0
  1  2  2  3
  2  3  1  0
  3  4  1  0
  4  5  2  0
  4  6  1  0
  6  7  1  0
  7  8  1  0
  8  9  1  0
  9 10  1  0
 10 11  1  0
 11 12  1  0
  6 13  1  0
 13  2  1  0
 12  7  1  0
  1 14  1  0
  3 15  1  0
  6 16  1  1
  7 17  1  6
  8 18  1  0
  8 19  1  0
 10 20  1  0
 10 21  1  0
 11 22  1  0
 11 23  1  0
 13 24  1  0
M  END
$$$$

     RDKit          3D

 24 25  0  0  0  0  0  0  0  0999 V2000
   -4.0719    1.1283   -0.6705 N   0  0  0  0  0  0  0  0  0  0  0  0
   -2.9974    0.5394   -0.2364 C   0  0  0  0  0  0  0  0  0  0  0  0
   -3.0501   -0.6470    0.5371 N   0  0  0  0  0  0  0  0  0  0  0  0
   -1.6928   -0.9861    0.8207 C   0  0  0  0  0  0  0  0  0  0  0  0
   -1.3463   -2.0679    1.3826 O   0  0  0  0  0  0  0  0  0  0  0  0
   -0.8108    0.1145    0.3554 C   0  0  1  0  0  0  0  0  0  0  0  0
    0.3833   -0.4244   -0.4014 C   0  0  1  0  0  0  0  0  0  0  0  0
    1.2471    0.6784   -0.9483 C   0  0  0  0  0  0  0  0  0  0  0  0
    2.1255    1.2021   -0.0209 O   0  0  0  0  0  0  0  0  0  0  0  0
    2.9270    0.2714    0.5893 C   0  0  0  0  0  0  0  0  0  0  0  0
    2.4663   -1.1267    0.2278 C   0  0  0  0  0  0  0  0  0  0  0  0
    1.1085   -1.2080    0.4991 O   0  0  0  0  0  0  0  0  0  0  0  0
   -1.6556    0.9421   -0.4386 N   0  0  0  0  0  0  0  0  0  0  0  0
   -3.9773    1.9838   -1.2257 H   0  0  0  0  0  0  0  0  0  0  0  0
   -3.8831   -1.1817    0.8488 H   0  0  0  0  0  0  0  0  0  0  0  0
   -0.4559    0.6416    1.2548 H   0  0  0  0  0  0  0  0  0  0  0  0
    0.0610   -1.1213   -1.2148 H   0  0  0  0  0  0  0  0  0  0  0  0
    0.6356    1.5342   -1.3303 H   0  0  0  0  0  0  0  0  0  0  0  0
    1.8238    0.3250   -1.8458 H   0  0  0  0  0  0  0  0  0  0  0  0
    2.8467    0.4021    1.6879 H   0  0  0  0  0  0  0  0  0  0  0  0
    3.9924    0.4393    0.3068 H   0  0  0  0  0  0  0  0  0  0  0  0
    3.0328   -1.8992    0.7550 H   0  0  0  0  0  0  0  0  0  0  0  0
    2.6701   -1.2538   -0.8662 H   0  0  0  0  0  0  0  0  0  0  0  0
   -1.3792    1.7141   -1.0674 H   0  0  0  0  0  0  0  0  0  0  0  0
  1  2  2  3
  2  3  1  0
  3  4  1  0
  4  5  2  0
  4  6  1  0
  6  7  1  0
  7  8  1  0
  8  9  1  0
  9 10  1  0
 10 11  1  0
 11 12  1  0
  6 13  1  0
 13  2  1  0
 12  7  1  0
  1 14  1  0
  3 15  1  0
  6 16  1  1
  7 17  1  6
  8 18  1  0
  8 19  1  0
 10 20  1  0
 10 21  1  0
 11 22  1  0
 11 23  1  0
 13 24  1  0
M  END
$$$$

     RDKit          3D

 24 25  0  0  0  0  0  0  0  0999 V2000
    4.1545    0.6456    0.2755 N   0  0  0  0  0  0  0  0  0  0  0  0
    2.9543    0.2821    0.4847 C   0  0  0  0  0  0  0  0  0  0  0  0
    2.3338    0.1519    1.7447 N   0  0  0  0  0  0  0  0  0  0  0  0
    0.9873   -0.2796    1.5052 C   0  0  0  0  0  0  0  0  0  0  0  0
    0.0780   -0.1772    2.3495 O   0  0  0  0  0  0  0  0  0  0  0  0
    0.9381   -0.8378    0.1110 C   0  0  1  0  0  0  0  0  0  0  0  0
   -0.3967   -0.4527   -0.5398 C   0  0  1  0  0  0  0  0  0  0  0  0
   -1.4707   -1.3352    0.0070 C   0  0  0  0  0  0  0  0  0  0  0  0
   -2.7068   -0.8835   -0.4269 O   0  0  0  0  0  0  0  0  0  0  0  0
   -2.9501    0.4344   -0.2026 C   0  0  0  0  0  0  0  0  0  0  0  0
   -1.8288    1.3689   -0.4028 C   0  0  0  0  0  0  0  0  0  0  0  0
   -0.5713    0.8768   -0.3373 O   0  0  0  0  0  0  0  0  0  0  0  0
    1.9925   -0.0680   -0.5231 N   0  0  0  0  0  0  0  0  0  0  0  0
    4.5993    0.7378   -0.6514 H   0  0  0  0  0  0  0  0  0  0  0  0
    2.7877    0.3400    2.6756 H   0  0  0  0  0  0  0  0  0  0  0  0
    1.1182   -1.9114    0.0887 H   0  0  0  0  0  0  0  0  0  0  0  0
   -0.2381   -0.6389   -1.6355 H   0  0  0  0  0  0  0  0  0  0  0  0
   -1.4023   -1.4713    1.0856 H   0  0  0  0  0  0  0  0  0  0  0  0
   -1.3306   -2.3492   -0.4518 H   0  0  0  0  0  0  0  0  0  0  0  0
   -3.7892    0.7457   -0.8940 H   0  0  0  0  0  0  0  0  0  0  0  0
   -3.4067    0.5462    0.8247 H   0  0  0  0  0  0  0  0  0  0  0  0
   -1.9316    1.9318   -1.3772 H   0  0  0  0  0  0  0  0  0  0  0  0
   -1.9166    2.1842    0.3767 H   0  0  0  0  0  0  0  0  0  0  0  0
    1.9959    0.1594   -1.5384 H   0  0  0  0  0  0  0  0  0  0  0  0
  1  2  2  3
  2  3  1  0
  3  4  1  0
  4  5  2  0
  4  6  1  0
  6  7  1  0
  7  8  1  0
  8  9  1  0
  9 10  1  0
 10 11  1  0
 11 12  1  0
  6 13  1  0
 13  2  1  0
 12  7  1  0
  1 14  1  0
  3 15  1  0
  6 16  1  1
  7 17  1  6
  8 18  1  0
  8 19  1  0
 10 20  1  0
 10 21  1  0
 11 22  1  0
 11 23  1  0
 13 24  1  0
M  END
$$$$

     RDKit          3D

 24 25  0  0  0  0  0  0  0  0999 V2000
   -4.1166    0.6954   -0.1796 N   0  0  0  0  0  0  0  0  0  0  0  0
   -2.9822    0.0787   -0.0862 C   0  0  0  0  0  0  0  0  0  0  0  0
   -2.7870   -1.3276   -0.2048 N   0  0  0  0  0  0  0  0  0  0  0  0
   -1.4102   -1.6375   -0.0459 C   0  0  0  0  0  0  0  0  0  0  0  0
   -0.9470   -2.7942   -0.1732 O   0  0  0  0  0  0  0  0  0  0  0  0
   -0.7127   -0.3900    0.2758 C   0  0  1  0  0  0  0  0  0  0  0  0
    0.4360   -0.0805   -0.6513 C   0  0  1  0  0  0  0  0  0  0  0  0
    1.0207    1.2599   -0.1919 C   0  0  0  0  0  0  0  0  0  0  0  0
    2.3493    1.3421   -0.6083 O   0  0  0  0  0  0  0  0  0  0  0  0
    3.0908    0.5308    0.2392 C   0  0  0  0  0  0  0  0  0  0  0  0
    2.3264   -0.7599    0.4561 C   0  0  0  0  0  0  0  0  0  0  0  0
    1.4457   -1.0138   -0.5999 O   0  0  0  0  0  0  0  0  0  0  0  0
   -1.7087    0.6374    0.1484 N   0  0  0  0  0  0  0  0  0  0  0  0
   -4.1322    1.7205   -0.0755 H   0  0  0  0  0  0  0  0  0  0  0  0
   -3.5931   -1.9873   -0.3851 H   0  0  0  0  0  0  0  0  0  0  0  0
   -0.3577   -0.3876    1.3211 H   0  0  0  0  0  0  0  0  0  0  0  0
    0.1037    0.0610   -1.6863 H   0  0  0  0  0  0  0  0  0  0  0  0
    1.0252    1.3019    0.9349 H   0  0  0  0  0  0  0  0  0  0  0  0
    0.4230    2.0952   -0.5580 H   0  0  0  0  0  0  0  0  0  0  0  0
    3.2146    1.0460    1.2200 H   0  0  0  0  0  0  0  0  0  0  0  0
    4.0742    0.2326   -0.2042 H   0  0  0  0  0  0  0  0  0  0  0  0
    1.7479   -0.6566    1.4030 H   0  0  0  0  0  0  0  0  0  0  0  0
    3.0150   -1.6445    0.5133 H   0  0  0  0  0  0  0  0  0  0  0  0
   -1.5251    1.6783    0.2190 H   0  0  0  0  0  0  0  0  0  0  0  0
  1  2  2  3
  2  3  1  0
  3  4  1  0
  4  5  2  0
  4  6  1  0
  6  7  1  0
  7  8  1  0
  8  9  1  0
  9 10  1  0
 10 11  1  0
 11 12  1  0
  6 13  1  0
 13  2  1  0
 12  7  1  0
  1 14  1  0
  3 15  1  0
  6 16  1  1
  7 17  1  6
  8 18  1  0
  8 19  1  0
 10 20  1  0
 10 21  1  0
 11 22  1  0
 11 23  1  0
 13 24  1  0
M  END
$$$$

     RDKit          3D

 24 25  0  0  0  0  0  0  0  0999 V2000
    3.6119    0.6495   -1.5553 N   0  0  0  0  0  0  0  0  0  0  0  0
    2.7505    0.2345   -0.6760 C   0  0  0  0  0  0  0  0  0  0  0  0
    2.7209    0.7121    0.6743 N   0  0  0  0  0  0  0  0  0  0  0  0
    1.6622    0.0310    1.2957 C   0  0  0  0  0  0  0  0  0  0  0  0
    1.3595    0.0710    2.5292 O   0  0  0  0  0  0  0  0  0  0  0  0
    0.9253   -0.7624    0.2911 C   0  0  1  0  0  0  0  0  0  0  0  0
   -0.4192   -0.0862    0.0611 C   0  0  1  0  0  0  0  0  0  0  0  0
   -1.1686   -0.9042   -0.9581 C   0  0  0  0  0  0  0  0  0  0  0  0
   -2.5047   -0.6243   -1.0270 O   0  0  0  0  0  0  0  0  0  0  0  0
   -2.9517    0.3703   -0.2083 C   0  0  0  0  0  0  0  0  0  0  0  0
   -2.3785    0.3873    1.1631 C   0  0  0  0  0  0  0  0  0  0  0  0
   -1.1186   -0.1864    1.2636 O   0  0  0  0  0  0  0  0  0  0  0  0
    1.7403   -0.7185   -0.8969 N   0  0  0  0  0  0  0  0  0  0  0  0
    4.3364    1.3543   -1.3397 H   0  0  0  0  0  0  0  0  0  0  0  0
    3.3626    1.4287    1.1130 H   0  0  0  0  0  0  0  0  0  0  0  0
    0.7591   -1.7947    0.6249 H   0  0  0  0  0  0  0  0  0  0  0  0
   -0.2986    0.9606   -0.2365 H   0  0  0  0  0  0  0  0  0  0  0  0
   -0.6846   -0.8494   -1.9635 H   0  0  0  0  0  0  0  0  0  0  0  0
   -1.0742   -1.9803   -0.6291 H   0  0  0  0  0  0  0  0  0  0  0  0
   -2.8455    1.3847   -0.6878 H   0  0  0  0  0  0  0  0  0  0  0  0
   -4.0684    0.2348   -0.0997 H   0  0  0  0  0  0  0  0  0  0  0  0
   -3.0316   -0.0665    1.9285 H   0  0  0  0  0  0  0  0  0  0  0  0
   -2.2496    1.4620    1.4858 H   0  0  0  0  0  0  0  0  0  0  0  0
    1.5652   -1.3077   -1.7342 H   0  0  0  0  0  0  0  0  0  0  0  0
  1  2  2  3
  2  3  1  0
  3  4  1  0
  4  5  2  0
  4  6  1  0
  6  7  1  0
  7  8  1  0
  8  9  1  0
  9 10  1  0
 10 11  1  0
 11 12  1  0
  6 13  1  0
 13  2  1  0
 12  7  1  0
  1 14  1  0
  3 15  1  0
  6 16  1  1
  7 17  1  6
  8 18  1  0
  8 19  1  0
 10 20  1  0
 10 21  1  0
 11 22  1  0
 11 23  1  0
 13 24  1  0
M  END
$$$$

     RDKit          3D

 24 25  0  0  0  0  0  0  0  0999 V2000
    4.1534    0.9474   -0.1443 N   0  0  0  0  0  0  0  0  0  0  0  0
    3.0222    0.3288   -0.2199 C   0  0  0  0  0  0  0  0  0  0  0  0
    2.8145   -1.0572   -0.5599 N   0  0  0  0  0  0  0  0  0  0  0  0
    1.3894   -1.2849   -0.5139 C   0  0  0  0  0  0  0  0  0  0  0  0
    0.8727   -2.4261   -0.3922 O   0  0  0  0  0  0  0  0  0  0  0  0
    0.7852    0.0446   -0.6358 C   0  0  1  0  0  0  0  0  0  0  0  0
   -0.6011    0.1464   -0.0984 C   0  0  1  0  0  0  0  0  0  0  0  0
   -1.5252   -0.7143   -0.8981 C   0  0  0  0  0  0  0  0  0  0  0  0
   -2.8305   -0.3037   -0.6278 O   0  0  0  0  0  0  0  0  0  0  0  0
   -2.9441    0.4403    0.5217 C   0  0  0  0  0  0  0  0  0  0  0  0
   -2.0323    0.0115    1.6269 C   0  0  0  0  0  0  0  0  0  0  0  0
   -0.7219   -0.1781    1.2337 O   0  0  0  0  0  0  0  0  0  0  0  0
    1.7371    0.8957    0.0195 N   0  0  0  0  0  0  0  0  0  0  0  0
    5.0419    0.4765   -0.3301 H   0  0  0  0  0  0  0  0  0  0  0  0
    3.5493   -1.7634   -0.7948 H   0  0  0  0  0  0  0  0  0  0  0  0
    0.7604    0.3219   -1.7061 H   0  0  0  0  0  0  0  0  0  0  0  0
   -0.9343    1.1996   -0.2148 H   0  0  0  0  0  0  0  0  0  0  0  0
   -1.2600   -0.5839   -1.9727 H   0  0  0  0  0  0  0  0  0  0  0  0
   -1.4384   -1.7894   -0.6008 H   0  0  0  0  0  0  0  0  0  0  0  0
   -3.9987    0.2928    0.8960 H   0  0  0  0  0  0  0  0  0  0  0  0
   -2.8778    1.5472    0.3212 H   0  0  0  0  0  0  0  0  0  0  0  0
   -2.4697   -0.9050    2.0969 H   0  0  0  0  0  0  0  0  0  0  0  0
   -2.0681    0.8075    2.4113 H   0  0  0  0  0  0  0  0  0  0  0  0
    1.5760    1.7798    0.5823 H   0  0  0  0  0  0  0  0  0  0  0  0
  1  2  2  3
  2  3  1  0
  3  4  1  0
  4  5  2  0
  4  6  1  0
  6  7  1  0
  7  8  1  0
  8  9  1  0
  9 10  1  0
 10 11  1  0
 11 12  1  0
  6 13  1  0
 13  2  1  0
 12  7  1  0
  1 14  1  0
  3 15  1  0
  6 16  1  6
  7 17  1  1
  8 18  1  0
  8 19  1  0
 10 20  1  0
 10 21  1  0
 11 22  1  0
 11 23  1  0
 13 24  1  0
M  END
$$$$

     RDKit          3D

 24 25  0  0  0  0  0  0  0  0999 V2000
   -3.9215    1.2895    0.3180 N   0  0  0  0  0  0  0  0  0  0  0  0
   -2.8911    0.5653    0.0327 C   0  0  0  0  0  0  0  0  0  0  0  0
   -2.9779   -0.5796   -0.8335 N   0  0  0  0  0  0  0  0  0  0  0  0
   -1.6605   -1.1083   -0.9052 C   0  0  0  0  0  0  0  0  0  0  0  0
   -1.2470   -1.8488   -1.8148 O   0  0  0  0  0  0  0  0  0  0  0  0
   -0.9518   -0.5908    0.2945 C   0  0  1  0  0  0  0  0  0  0  0  0
    0.5321   -0.6001    0.1413 C   0  0  1  0  0  0  0  0  0  0  0  0
    1.0358   -0.0009   -1.1100 C   0  0  0  0  0  0  0  0  0  0  0  0
    2.3112    0.4272   -1.1278 O   0  0  0  0  0  0  0  0  0  0  0  0
    2.9933    0.5714    0.0169 C   0  0  0  0  0  0  0  0  0  0  0  0
    2.4374   -0.0354    1.2452 C   0  0  0  0  0  0  0  0  0  0  0  0
    1.0722   -0.0315    1.2924 O   0  0  0  0  0  0  0  0  0  0  0  0
   -1.5393    0.6995    0.4589 N   0  0  0  0  0  0  0  0  0  0  0  0
   -3.8793    2.1152    0.9378 H   0  0  0  0  0  0  0  0  0  0  0  0
   -3.8549   -0.9313   -1.3053 H   0  0  0  0  0  0  0  0  0  0  0  0
   -1.2910   -1.2243    1.1440 H   0  0  0  0  0  0  0  0  0  0  0  0
    0.8482   -1.6832    0.1567 H   0  0  0  0  0  0  0  0  0  0  0  0
    0.3720    0.8477   -1.4467 H   0  0  0  0  0  0  0  0  0  0  0  0
    0.9116   -0.7678   -1.9318 H   0  0  0  0  0  0  0  0  0  0  0  0
    3.1847    1.6640    0.2315 H   0  0  0  0  0  0  0  0  0  0  0  0
    4.0324    0.1507   -0.1306 H   0  0  0  0  0  0  0  0  0  0  0  0
    2.8349   -1.0672    1.3849 H   0  0  0  0  0  0  0  0  0  0  0  0
    2.8043    0.5365    2.1468 H   0  0  0  0  0  0  0  0  0  0  0  0
   -1.1558    1.6021    0.8041 H   0  0  0  0  0  0  0  0  0  0  0  0
  1  2  2  3
  2  3  1  0
  3  4  1  0
  4  5  2  0
  4  6  1  0
  6  7  1  0
  7  8  1  0
  8  9  1  0
  9 10  1  0
 10 11  1  0
 11 12  1  0
  6 13  1  0
 13  2  1  0
 12  7  1  0
  1 14  1  0
  3 15  1  0
  6 16  1  1
  7 17  1  6
  8 18  1  0
  8 19  1  0
 10 20  1  0
 10 21  1  0
 11 22  1  0
 11 23  1  0
 13 24  1  0
M  END
$$$$
