
     RDKit          3D

 33 33  0  0  0  0  0  0  0  0999 V2000
   -3.2000   -1.1763    0.6821 C   0  0  0  0  0  0  0  0  0  0  0  0
   -2.5577    0.1846    0.5748 C   0  0  2  0  0  0  0  0  0  0  0  0
   -2.4127    0.7692    1.8147 O   0  0  0  0  0  0  0  0  0  0  0  0
   -3.4093    1.0364   -0.3380 C   0  0  0  0  0  0  0  0  0  0  0  0
   -4.6753    1.2208    0.1838 O   0  0  0  0  0  0  0  0  0  0  0  0
   -1.1513    0.0888   -0.0580 C   0  0  0  0  0  0  0  0  0  0  0  0
   -0.3804   -0.6921    0.7986 N   0  0  0  0  0  0  0  0  0  0  0  0
    0.9238   -1.0788    0.5529 C   0  0  0  0  0  0  0  0  0  0  0  0
    2.0371   -0.0842    0.5607 C   0  0  1  0  0  0  0  0  0  0  0  0
    3.3378   -0.8912    0.2779 C   0  0  0  0  0  0  0  0  0  0  0  0
    4.2668    0.1497   -0.2809 C   0  0  0  0  0  0  0  0  0  0  0  0
    3.4781    1.2876   -0.6253 N   0  0  0  0  0  0  0  0  0  0  0  0
    2.0906    0.8102   -0.6596 C   0  0  0  0  0  0  0  0  0  0  0  0
   -4.0560   -1.2856   -0.0289 H   0  0  0  0  0  0  0  0  0  0  0  0
   -3.6478   -1.3179    1.6925 H   0  0  0  0  0  0  0  0  0  0  0  0
   -2.4776   -1.9947    0.4253 H   0  0  0  0  0  0  0  0  0  0  0  0
   -2.1297    1.7078    1.6874 H   0  0  0  0  0  0  0  0  0  0  0  0
   -3.5102    0.4702   -1.2833 H   0  0  0  0  0  0  0  0  0  0  0  0
   -2.9738    2.0280   -0.5363 H   0  0  0  0  0  0  0  0  0  0  0  0
   -4.7032    1.1869    1.1729 H   0  0  0  0  0  0  0  0  0  0  0  0
   -1.2564   -0.3327   -1.0775 H   0  0  0  0  0  0  0  0  0  0  0  0
   -0.7615    1.1216   -0.1566 H   0  0  0  0  0  0  0  0  0  0  0  0
   -0.8541   -1.0590    1.6277 H   0  0  0  0  0  0  0  0  0  0  0  0
    1.0468   -1.7159   -0.3891 H   0  0  0  0  0  0  0  0  0  0  0  0
    1.2100   -1.8411    1.3537 H   0  0  0  0  0  0  0  0  0  0  0  0
    2.1855    0.4384    1.5072 H   0  0  0  0  0  0  0  0  0  0  0  0
    3.6943   -1.3900    1.1740 H   0  0  0  0  0  0  0  0  0  0  0  0
    3.0486   -1.6129   -0.5280 H   0  0  0  0  0  0  0  0  0  0  0  0
    4.8088   -0.2510   -1.1835 H   0  0  0  0  0  0  0  0  0  0  0  0
    5.0407    0.4262    0.4921 H   0  0  0  0  0  0  0  0  0  0  0  0
    3.5533    1.9879    0.1613 H   0  0  0  0  0  0  0  0  0  0  0  0
    1.3971    1.6468   -0.6624 H   0  0  0  0  0  0  0  0  0  0  0  0
    2.0376    0.1626   -1.5611 H   0  0  0  0  0  0  0  0  0  0  0  0
  1  2  1  0
  2  3  1  1
  2  4  1  0
  4  5  1  0
  2  6  1  0
  6  7  1  0
  7  8  1  0
  8  9  1  0
  9 10  1  0
 10 11  1  0
 11 12  1  0
 12 13  1  0
 13  9  1  0
  1 14  1  0
  1 15  1  0
  1 16  1  0
  3 17  1  0
  4 18  1  0
  4 19  1  0
  5 20  1  0
  6 21  1  0
  6 22  1  0
  7 23  1  0
  8 24  1  0
  8 25  1  0
  9 26  1  1
 10 27  1  0
 10 28  1  0
 11 29  1  0
 11 30  1  0
 12 31  1  0
 13 32  1  0
 13 33  1  0
M  END
$$$$

     RDKit          3D

 33 33  0  0  0  0  0  0  0  0999 V2000
   -3.0023    1.1491    0.3760 C   0  0  0  0  0  0  0  0  0  0  0  0
   -2.5093   -0.2220   -0.0108 C   0  0  2  0  0  0  0  0  0  0  0  0
   -2.5748   -0.4078   -1.3855 O   0  0  0  0  0  0  0  0  0  0  0  0
   -3.3656   -1.2717    0.6317 C   0  0  0  0  0  0  0  0  0  0  0  0
   -4.6998   -1.0912    0.1883 O   0  0  0  0  0  0  0  0  0  0  0  0
   -1.0266   -0.3443    0.4669 C   0  0  0  0  0  0  0  0  0  0  0  0
   -0.3541    0.6359   -0.2968 N   0  0  0  0  0  0  0  0  0  0  0  0
    0.9157    1.1004   -0.0495 C   0  0  0  0  0  0  0  0  0  0  0  0
    2.0213    0.1287   -0.2608 C   0  0  1  0  0  0  0  0  0  0  0  0
    3.3711    0.8351   -0.0150 C   0  0  0  0  0  0  0  0  0  0  0  0
    4.1293   -0.0745    0.8687 C   0  0  0  0  0  0  0  0  0  0  0  0
    3.5138   -1.3797    0.6344 N   0  0  0  0  0  0  0  0  0  0  0  0
    2.0952   -0.9765    0.7522 C   0  0  0  0  0  0  0  0  0  0  0  0
   -2.4449    1.9190   -0.2083 H   0  0  0  0  0  0  0  0  0  0  0  0
   -2.8626    1.2962    1.4610 H   0  0  0  0  0  0  0  0  0  0  0  0
   -4.0655    1.2394    0.0920 H   0  0  0  0  0  0  0  0  0  0  0  0
   -2.6042    0.4621   -1.8467 H   0  0  0  0  0  0  0  0  0  0  0  0
   -3.0461   -2.2999    0.2593 H   0  0  0  0  0  0  0  0  0  0  0  0
   -3.3173   -1.1870    1.7131 H   0  0  0  0  0  0  0  0  0  0  0  0
   -5.1991   -0.5441    0.8628 H   0  0  0  0  0  0  0  0  0  0  0  0
   -0.7396   -1.3833    0.2533 H   0  0  0  0  0  0  0  0  0  0  0  0
   -1.0332   -0.1172    1.5477 H   0  0  0  0  0  0  0  0  0  0  0  0
   -0.5554    0.4365   -1.3339 H   0  0  0  0  0  0  0  0  0  0  0  0
    1.1057    2.0248   -0.6963 H   0  0  0  0  0  0  0  0  0  0  0  0
    1.0016    1.5472    0.9958 H   0  0  0  0  0  0  0  0  0  0  0  0
    2.0277   -0.2885   -1.2672 H   0  0  0  0  0  0  0  0  0  0  0  0
    3.1832    1.8227    0.4638 H   0  0  0  0  0  0  0  0  0  0  0  0
    3.8482    1.0385   -0.9870 H   0  0  0  0  0  0  0  0  0  0  0  0
    3.8622    0.1769    1.9309 H   0  0  0  0  0  0  0  0  0  0  0  0
    5.2140   -0.0878    0.7136 H   0  0  0  0  0  0  0  0  0  0  0  0
    3.6703   -1.7240   -0.3186 H   0  0  0  0  0  0  0  0  0  0  0  0
    1.4447   -1.8354    0.5354 H   0  0  0  0  0  0  0  0  0  0  0  0
    1.9965   -0.5777    1.7790 H   0  0  0  0  0  0  0  0  0  0  0  0
  1  2  1  0
  2  3  1  6
  2  4  1  0
  4  5  1  0
  2  6  1  0
  6  7  1  0
  7  8  1  0
  8  9  1  0
  9 10  1  0
 10 11  1  0
 11 12  1  0
 12 13  1  0
 13  9  1  0
  1 14  1  0
  1 15  1  0
  1 16  1  0
  3 17  1  0
  4 18  1  0
  4 19  1  0
  5 20  1  0
  6 21  1  0
  6 22  1  0
  7 23  1  0
  8 24  1  0
  8 25  1  0
  9 26  1  6
 10 27  1  0
 10 28  1  0
 11 29  1  0
 11 30  1  0
 12 31  1  0
 13 32  1  0
 13 33  1  0
M  END
$$$$

     RDKit          3D

 33 33  0  0  0  0  0  0  0  0999 V2000
   -2.8509   -0.7864   -1.4519 C   0  0  0  0  0  0  0  0  0  0  0  0
   -2.5507   -0.1070   -0.1204 C   0  0  2  0  0  0  0  0  0  0  0  0
   -3.7522   -0.3883    0.6400 O   0  0  0  0  0  0  0  0  0  0  0  0
   -2.5257    1.3710   -0.3041 C   0  0  0  0  0  0  0  0  0  0  0  0
   -2.4112    2.0254    0.9197 O   0  0  0  0  0  0  0  0  0  0  0  0
   -1.4866   -0.7452    0.6550 C   0  0  0  0  0  0  0  0  0  0  0  0
   -0.1256   -0.6599    0.3264 N   0  0  0  0  0  0  0  0  0  0  0  0
    0.5627    0.5461    0.5759 C   0  0  0  0  0  0  0  0  0  0  0  0
    2.0322    0.5141    0.3193 C   0  0  1  0  0  0  0  0  0  0  0  0
    2.7792   -0.5006    1.1288 C   0  0  0  0  0  0  0  0  0  0  0  0
    3.7568   -1.0972    0.1112 C   0  0  0  0  0  0  0  0  0  0  0  0
    3.8943   -0.0099   -0.8695 N   0  0  0  0  0  0  0  0  0  0  0  0
    2.4652    0.2902   -1.0836 C   0  0  0  0  0  0  0  0  0  0  0  0
   -3.9498   -1.0255   -1.5539 H   0  0  0  0  0  0  0  0  0  0  0  0
   -2.3190   -1.7253   -1.5011 H   0  0  0  0  0  0  0  0  0  0  0  0
   -2.6388   -0.0927   -2.2696 H   0  0  0  0  0  0  0  0  0  0  0  0
   -4.4277    0.3075    0.4654 H   0  0  0  0  0  0  0  0  0  0  0  0
   -3.5187    1.6608   -0.7790 H   0  0  0  0  0  0  0  0  0  0  0  0
   -1.8010    1.6819   -1.0462 H   0  0  0  0  0  0  0  0  0  0  0  0
   -3.1718    1.7166    1.4874 H   0  0  0  0  0  0  0  0  0  0  0  0
   -1.6098   -0.3896    1.7333 H   0  0  0  0  0  0  0  0  0  0  0  0
   -1.7509   -1.8628    0.7057 H   0  0  0  0  0  0  0  0  0  0  0  0
    0.1753   -1.1781   -0.5213 H   0  0  0  0  0  0  0  0  0  0  0  0
    0.1621    1.4079    0.0285 H   0  0  0  0  0  0  0  0  0  0  0  0
    0.4418    0.7794    1.6792 H   0  0  0  0  0  0  0  0  0  0  0  0
    2.4345    1.5253    0.6387 H   0  0  0  0  0  0  0  0  0  0  0  0
    3.3739   -0.0556    1.9291 H   0  0  0  0  0  0  0  0  0  0  0  0
    2.1458   -1.2945    1.5500 H   0  0  0  0  0  0  0  0  0  0  0  0
    4.7224   -1.3491    0.5384 H   0  0  0  0  0  0  0  0  0  0  0  0
    3.3232   -1.9762   -0.4094 H   0  0  0  0  0  0  0  0  0  0  0  0
    4.2490    0.8054   -0.2769 H   0  0  0  0  0  0  0  0  0  0  0  0
    2.3734    1.2128   -1.7023 H   0  0  0  0  0  0  0  0  0  0  0  0
    1.9987   -0.6006   -1.5430 H   0  0  0  0  0  0  0  0  0  0  0  0
  1  2  1  0
  2  3  1  1
  2  4  1  0
  4  5  1  0
  2  6  1  0
  6  7  1  0
  7  8  1  0
  8  9  1  0
  9 10  1  0
 10 11  1  0
 11 12  1  0
 12 13  1  0
 13  9  1  0
  1 14  1  0
  1 15  1  0
  1 16  1  0
  3 17  1  0
  4 18  1  0
  4 19  1  0
  5 20  1  0
  6 21  1  0
  6 22  1  0
  7 23  1  0
  8 24  1  0
  8 25  1  0
  9 26  1  1
 10 27  1  0
 10 28  1  0
 11 29  1  0
 11 30  1  0
 12 31  1  0
 13 32  1  0
 13 33  1  0
M  END
$$$$

     RDKit          3D

 33 33  0  0  0  0  0  0  0  0999 V2000
    2.7571   -1.6476    0.6428 C   0  0  0  0  0  0  0  0  0  0  0  0
    2.8373   -0.3996   -0.2796 C   0  0  2  0  0  0  0  0  0  0  0  0
    3.8001   -0.6882   -1.2245 O   0  0  0  0  0  0  0  0  0  0  0  0
    3.1634    0.7971    0.5326 C   0  0  0  0  0  0  0  0  0  0  0  0
    3.2808    1.9169   -0.2534 O   0  0  0  0  0  0  0  0  0  0  0  0
    1.5155   -0.2935   -0.9928 C   0  0  0  0  0  0  0  0  0  0  0  0
    0.4406    0.1111   -0.1018 N   0  0  0  0  0  0  0  0  0  0  0  0
   -0.8236   -0.1624   -0.7308 C   0  0  0  0  0  0  0  0  0  0  0  0
   -1.9583    0.5252   -0.0557 C   0  0  1  0  0  0  0  0  0  0  0  0
   -3.2514    0.1075   -0.7406 C   0  0  0  0  0  0  0  0  0  0  0  0
   -4.2375    0.3572    0.4073 C   0  0  0  0  0  0  0  0  0  0  0  0
   -3.5435   -0.2892    1.4992 N   0  0  0  0  0  0  0  0  0  0  0  0
   -2.1705    0.2418    1.3752 C   0  0  0  0  0  0  0  0  0  0  0  0
    3.7568   -2.1159    0.6461 H   0  0  0  0  0  0  0  0  0  0  0  0
    2.4590   -1.4133    1.6526 H   0  0  0  0  0  0  0  0  0  0  0  0
    2.0600   -2.3793    0.1570 H   0  0  0  0  0  0  0  0  0  0  0  0
    3.5890   -0.3501   -2.1401 H   0  0  0  0  0  0  0  0  0  0  0  0
    4.0936    0.6175    1.1362 H   0  0  0  0  0  0  0  0  0  0  0  0
    2.3119    0.9655    1.2659 H   0  0  0  0  0  0  0  0  0  0  0  0
    3.3626    2.7294    0.3282 H   0  0  0  0  0  0  0  0  0  0  0  0
    1.3082   -1.2738   -1.4759 H   0  0  0  0  0  0  0  0  0  0  0  0
    1.6402    0.4863   -1.7728 H   0  0  0  0  0  0  0  0  0  0  0  0
    0.5451    1.1086    0.1678 H   0  0  0  0  0  0  0  0  0  0  0  0
   -0.7760    0.1917   -1.7851 H   0  0  0  0  0  0  0  0  0  0  0  0
   -1.0392   -1.2569   -0.7052 H   0  0  0  0  0  0  0  0  0  0  0  0
   -1.8410    1.6464   -0.1993 H   0  0  0  0  0  0  0  0  0  0  0  0
   -3.4828    0.6432   -1.6496 H   0  0  0  0  0  0  0  0  0  0  0  0
   -3.1896   -1.0054   -0.8878 H   0  0  0  0  0  0  0  0  0  0  0  0
   -5.2298   -0.0657    0.1955 H   0  0  0  0  0  0  0  0  0  0  0  0
   -4.2735    1.4666    0.5637 H   0  0  0  0  0  0  0  0  0  0  0  0
   -3.4634   -1.3000    1.2609 H   0  0  0  0  0  0  0  0  0  0  0  0
   -1.4275   -0.4630    1.8173 H   0  0  0  0  0  0  0  0  0  0  0  0
   -2.2135    1.1922    1.9772 H   0  0  0  0  0  0  0  0  0  0  0  0
  1  2  1  0
  2  3  1  6
  2  4  1  0
  4  5  1  0
  2  6  1  0
  6  7  1  0
  7  8  1  0
  8  9  1  0
  9 10  1  0
 10 11  1  0
 11 12  1  0
 12 13  1  0
 13  9  1  0
  1 14  1  0
  1 15  1  0
  1 16  1  0
  3 17  1  0
  4 18  1  0
  4 19  1  0
  5 20  1  0
  6 21  1  0
  6 22  1  0
  7 23  1  0
  8 24  1  0
  8 25  1  0
  9 26  1  1
 10 27  1  0
 10 28  1  0
 11 29  1  0
 11 30  1  0
 12 31  1  0
 13 32  1  0
 13 33  1  0
M  END
$$$$

     RDKit          3D

 33 33  0  0  0  0  0  0  0  0999 V2000
   -3.7714    0.6451    0.5842 C   0  0  0  0  0  0  0  0  0  0  0  0
   -2.3870    0.1195    0.2254 C   0  0  2  0  0  0  0  0  0  0  0  0
   -2.2652    0.1384   -1.1366 O   0  0  0  0  0  0  0  0  0  0  0  0
   -2.3526   -1.3150    0.7111 C   0  0  0  0  0  0  0  0  0  0  0  0
   -3.4073   -2.0043    0.1434 O   0  0  0  0  0  0  0  0  0  0  0  0
   -1.3884    0.9732    0.9627 C   0  0  0  0  0  0  0  0  0  0  0  0
   -0.0331    0.6557    0.7912 N   0  0  0  0  0  0  0  0  0  0  0  0
    0.5578    0.9440   -0.4562 C   0  0  0  0  0  0  0  0  0  0  0  0
    1.9318    0.4489   -0.6641 C   0  0  1  0  0  0  0  0  0  0  0  0
    2.9865    0.9322    0.2896 C   0  0  0  0  0  0  0  0  0  0  0  0
    4.1093   -0.0691   -0.0457 C   0  0  0  0  0  0  0  0  0  0  0  0
    3.4934   -1.1724   -0.7402 N   0  0  0  0  0  0  0  0  0  0  0  0
    2.0747   -1.0538   -0.4064 C   0  0  0  0  0  0  0  0  0  0  0  0
   -3.7719    1.2917    1.4790 H   0  0  0  0  0  0  0  0  0  0  0  0
   -4.1801    1.2635   -0.2648 H   0  0  0  0  0  0  0  0  0  0  0  0
   -4.4860   -0.1681    0.7841 H   0  0  0  0  0  0  0  0  0  0  0  0
   -2.0714   -0.7436   -1.4810 H   0  0  0  0  0  0  0  0  0  0  0  0
   -1.4178   -1.8324    0.4616 H   0  0  0  0  0  0  0  0  0  0  0  0
   -2.4879   -1.3585    1.8288 H   0  0  0  0  0  0  0  0  0  0  0  0
   -3.7100   -1.6550   -0.7043 H   0  0  0  0  0  0  0  0  0  0  0  0
   -1.6753    1.0425    2.0335 H   0  0  0  0  0  0  0  0  0  0  0  0
   -1.5409    2.0223    0.5765 H   0  0  0  0  0  0  0  0  0  0  0  0
    0.3833   -0.0983    1.3470 H   0  0  0  0  0  0  0  0  0  0  0  0
    0.5691    2.0580   -0.6079 H   0  0  0  0  0  0  0  0  0  0  0  0
   -0.0664    0.5571   -1.2869 H   0  0  0  0  0  0  0  0  0  0  0  0
    2.3005    0.6443   -1.6964 H   0  0  0  0  0  0  0  0  0  0  0  0
    3.3154    1.9666    0.1496 H   0  0  0  0  0  0  0  0  0  0  0  0
    2.6140    0.7113    1.3104 H   0  0  0  0  0  0  0  0  0  0  0  0
    4.5789   -0.4533    0.8692 H   0  0  0  0  0  0  0  0  0  0  0  0
    4.8214    0.4903   -0.6906 H   0  0  0  0  0  0  0  0  0  0  0  0
    3.8762   -2.1036   -0.5053 H   0  0  0  0  0  0  0  0  0  0  0  0
    1.9837   -1.2071    0.6926 H   0  0  0  0  0  0  0  0  0  0  0  0
    1.4167   -1.6702   -1.0162 H   0  0  0  0  0  0  0  0  0  0  0  0
  1  2  1  0
  2  3  1  6
  2  4  1  0
  4  5  1  0
  2  6  1  0
  6  7  1  0
  7  8  1  0
  8  9  1  0
  9 10  1  0
 10 11  1  0
 11 12  1  0
 12 13  1  0
 13  9  1  0
  1 14  1  0
  1 15  1  0
  1 16  1  0
  3 17  1  0
  4 18  1  0
  4 19  1  0
  5 20  1  0
  6 21  1  0
  6 22  1  0
  7 23  1  0
  8 24  1  0
  8 25  1  0
  9 26  1  6
 10 27  1  0
 10 28  1  0
 11 29  1  0
 11 30  1  0
 12 31  1  0
 13 32  1  0
 13 33  1  0
M  END
$$$$

     RDKit          3D

 33 33  0  0  0  0  0  0  0  0999 V2000
   -3.0561    0.6962   -1.0957 C   0  0  0  0  0  0  0  0  0  0  0  0
   -2.7948   -0.2492    0.0498 C   0  0  2  0  0  0  0  0  0  0  0  0
   -2.7368   -1.5416   -0.4719 O   0  0  0  0  0  0  0  0  0  0  0  0
   -3.9337   -0.2118    1.0407 C   0  0  0  0  0  0  0  0  0  0  0  0
   -4.0723    1.0498    1.6205 O   0  0  0  0  0  0  0  0  0  0  0  0
   -1.4863    0.0803    0.7434 C   0  0  0  0  0  0  0  0  0  0  0  0
   -0.3670    0.0082   -0.1733 N   0  0  0  0  0  0  0  0  0  0  0  0
    0.8249    0.3283    0.5438 C   0  0  0  0  0  0  0  0  0  0  0  0
    2.0633    0.2864   -0.3081 C   0  0  1  0  0  0  0  0  0  0  0  0
    3.2931    0.6338    0.5046 C   0  0  0  0  0  0  0  0  0  0  0  0
    4.3803    0.0951   -0.4265 C   0  0  0  0  0  0  0  0  0  0  0  0
    3.7984   -0.9883   -1.1542 N   0  0  0  0  0  0  0  0  0  0  0  0
    2.4164   -1.0949   -0.7810 C   0  0  0  0  0  0  0  0  0  0  0  0
   -4.1287    0.6847   -1.3550 H   0  0  0  0  0  0  0  0  0  0  0  0
   -2.4388    0.3987   -1.9613 H   0  0  0  0  0  0  0  0  0  0  0  0
   -2.7132    1.7177   -0.7909 H   0  0  0  0  0  0  0  0  0  0  0  0
   -2.1233   -1.5726   -1.2597 H   0  0  0  0  0  0  0  0  0  0  0  0
   -4.8709   -0.4174    0.4932 H   0  0  0  0  0  0  0  0  0  0  0  0
   -3.7974   -0.9634    1.8233 H   0  0  0  0  0  0  0  0  0  0  0  0
   -3.3367    1.2489    2.2705 H   0  0  0  0  0  0  0  0  0  0  0  0
   -1.3651   -0.6164    1.5889 H   0  0  0  0  0  0  0  0  0  0  0  0
   -1.5958    1.0963    1.1650 H   0  0  0  0  0  0  0  0  0  0  0  0
   -0.3099   -0.9457   -0.5668 H   0  0  0  0  0  0  0  0  0  0  0  0
    0.7513    1.3528    0.9657 H   0  0  0  0  0  0  0  0  0  0  0  0
    0.9472   -0.3669    1.3839 H   0  0  0  0  0  0  0  0  0  0  0  0
    2.0116    0.9439   -1.1866 H   0  0  0  0  0  0  0  0  0  0  0  0
    3.3978    1.6978    0.7018 H   0  0  0  0  0  0  0  0  0  0  0  0
    3.3297   -0.0018    1.4086 H   0  0  0  0  0  0  0  0  0  0  0  0
    5.3030   -0.1600    0.1183 H   0  0  0  0  0  0  0  0  0  0  0  0
    4.5998    0.9389   -1.1338 H   0  0  0  0  0  0  0  0  0  0  0  0
    3.9191   -0.8420   -2.2002 H   0  0  0  0  0  0  0  0  0  0  0  0
    1.7662   -1.4550   -1.6003 H   0  0  0  0  0  0  0  0  0  0  0  0
    2.3248   -1.8307    0.0432 H   0  0  0  0  0  0  0  0  0  0  0  0
  1  2  1  0
  2  3  1  6
  2  4  1  0
  4  5  1  0
  2  6  1  0
  6  7  1  0
  7  8  1  0
  8  9  1  0
  9 10  1  0
 10 11  1  0
 11 12  1  0
 12 13  1  0
 13  9  1  0
  1 14  1  0
  1 15  1  0
  1 16  1  0
  3 17  1  0
  4 18  1  0
  4 19  1  0
  5 20  1  0
  6 21  1  0
  6 22  1  0
  7 23  1  0
  8 24  1  0
  8 25  1  0
  9 26  1  6
 10 27  1  0
 10 28  1  0
 11 29  1  0
 11 30  1  0
 12 31  1  0
 13 32  1  0
 13 33  1  0
M  END
$$$$

     RDKit          3D

 33 33  0  0  0  0  0  0  0  0999 V2000
   -2.7391    0.0715    1.5904 C   0  0  0  0  0  0  0  0  0  0  0  0
   -2.4123   -0.0637    0.1070 C   0  0  2  0  0  0  0  0  0  0  0  0
   -2.0775    1.1414   -0.4758 O   0  0  0  0  0  0  0  0  0  0  0  0
   -3.6934   -0.5820   -0.5555 C   0  0  0  0  0  0  0  0  0  0  0  0
   -4.6850    0.3791   -0.3303 O   0  0  0  0  0  0  0  0  0  0  0  0
   -1.3462   -1.0855   -0.0744 C   0  0  0  0  0  0  0  0  0  0  0  0
   -0.0723   -0.7485    0.4659 N   0  0  0  0  0  0  0  0  0  0  0  0
    0.6709    0.2503   -0.2133 C   0  0  0  0  0  0  0  0  0  0  0  0
    1.9621    0.5115    0.5484 C   0  0  1  0  0  0  0  0  0  0  0  0
    2.7732   -0.7335    0.6602 C   0  0  0  0  0  0  0  0  0  0  0  0
    4.0145   -0.5020   -0.2058 C   0  0  0  0  0  0  0  0  0  0  0  0
    3.4112    0.3589   -1.2363 N   0  0  0  0  0  0  0  0  0  0  0  0
    2.8037    1.3741   -0.4016 C   0  0  0  0  0  0  0  0  0  0  0  0
   -2.8956    1.1215    1.8605 H   0  0  0  0  0  0  0  0  0  0  0  0
   -1.9242   -0.3950    2.2094 H   0  0  0  0  0  0  0  0  0  0  0  0
   -3.6371   -0.5569    1.8243 H   0  0  0  0  0  0  0  0  0  0  0  0
   -2.6533    1.3656   -1.2665 H   0  0  0  0  0  0  0  0  0  0  0  0
   -3.5760   -0.6933   -1.6529 H   0  0  0  0  0  0  0  0  0  0  0  0
   -3.9735   -1.4993   -0.0254 H   0  0  0  0  0  0  0  0  0  0  0  0
   -4.2910    1.2037    0.0238 H   0  0  0  0  0  0  0  0  0  0  0  0
   -1.7319   -2.0635    0.3041 H   0  0  0  0  0  0  0  0  0  0  0  0
   -1.2344   -1.2661   -1.1864 H   0  0  0  0  0  0  0  0  0  0  0  0
   -0.0449   -0.5796    1.4781 H   0  0  0  0  0  0  0  0  0  0  0  0
    0.1399    1.1940   -0.3308 H   0  0  0  0  0  0  0  0  0  0  0  0
    0.9674   -0.1448   -1.2262 H   0  0  0  0  0  0  0  0  0  0  0  0
    1.7963    1.0492    1.4881 H   0  0  0  0  0  0  0  0  0  0  0  0
    3.1357   -0.8304    1.7184 H   0  0  0  0  0  0  0  0  0  0  0  0
    2.2701   -1.6653    0.3697 H   0  0  0  0  0  0  0  0  0  0  0  0
    4.4196   -1.4279   -0.5981 H   0  0  0  0  0  0  0  0  0  0  0  0
    4.7301    0.1291    0.3416 H   0  0  0  0  0  0  0  0  0  0  0  0
    4.1385    0.7072   -1.8854 H   0  0  0  0  0  0  0  0  0  0  0  0
    2.1536    2.0585   -0.9821 H   0  0  0  0  0  0  0  0  0  0  0  0
    3.6012    1.9220    0.1130 H   0  0  0  0  0  0  0  0  0  0  0  0
  1  2  1  0
  2  3  1  6
  2  4  1  0
  4  5  1  0
  2  6  1  0
  6  7  1  0
  7  8  1  0
  8  9  1  0
  9 10  1  0
 10 11  1  0
 11 12  1  0
 12 13  1  0
 13  9  1  0
  1 14  1  0
  1 15  1  0
  1 16  1  0
  3 17  1  0
  4 18  1  0
  4 19  1  0
  5 20  1  0
  6 21  1  0
  6 22  1  0
  7 23  1  0
  8 24  1  0
  8 25  1  0
  9 26  1  1
 10 27  1  0
 10 28  1  0
 11 29  1  0
 11 30  1  0
 12 31  1  0
 13 32  1  0
 13 33  1  0
M  END
$$$$

     RDKit          3D

 33 33  0  0  0  0  0  0  0  0999 V2000
   -2.8163   -1.6152   -0.7017 C   0  0  0  0  0  0  0  0  0  0  0  0
   -2.7390   -0.2506   -0.0214 C   0  0  2  0  0  0  0  0  0  0  0  0
   -2.7780   -0.5278    1.3521 O   0  0  0  0  0  0  0  0  0  0  0  0
   -3.9433    0.5583   -0.4227 C   0  0  0  0  0  0  0  0  0  0  0  0
   -4.0106    1.7550    0.2716 O   0  0  0  0  0  0  0  0  0  0  0  0
   -1.4774    0.4750   -0.3924 C   0  0  0  0  0  0  0  0  0  0  0  0
   -0.2993   -0.3073   -0.1175 N   0  0  0  0  0  0  0  0  0  0  0  0
    0.8677    0.4942   -0.3606 C   0  0  0  0  0  0  0  0  0  0  0  0
    2.1473   -0.2611   -0.2601 C   0  0  1  0  0  0  0  0  0  0  0  0
    3.3025    0.7043   -0.5049 C   0  0  0  0  0  0  0  0  0  0  0  0
    4.1660    0.5412    0.7343 C   0  0  0  0  0  0  0  0  0  0  0  0
    3.9359   -0.8688    1.1054 N   0  0  0  0  0  0  0  0  0  0  0  0
    2.4553   -0.8541    1.0733 C   0  0  0  0  0  0  0  0  0  0  0  0
   -2.7210   -1.4654   -1.7904 H   0  0  0  0  0  0  0  0  0  0  0  0
   -3.8503   -1.9902   -0.5224 H   0  0  0  0  0  0  0  0  0  0  0  0
   -2.0564   -2.2885   -0.3139 H   0  0  0  0  0  0  0  0  0  0  0  0
   -3.1689    0.2525    1.8377 H   0  0  0  0  0  0  0  0  0  0  0  0
   -3.9060    0.7858   -1.5143 H   0  0  0  0  0  0  0  0  0  0  0  0
   -4.8684   -0.0441   -0.2152 H   0  0  0  0  0  0  0  0  0  0  0  0
   -3.2093    2.2902    0.1372 H   0  0  0  0  0  0  0  0  0  0  0  0
   -1.4001    1.4284    0.1552 H   0  0  0  0  0  0  0  0  0  0  0  0
   -1.4429    0.6993   -1.4844 H   0  0  0  0  0  0  0  0  0  0  0  0
   -0.2913   -1.1816   -0.6755 H   0  0  0  0  0  0  0  0  0  0  0  0
    0.8637    1.3461    0.3766 H   0  0  0  0  0  0  0  0  0  0  0  0
    0.7867    0.9079   -1.4019 H   0  0  0  0  0  0  0  0  0  0  0  0
    2.1816   -1.0881   -1.0156 H   0  0  0  0  0  0  0  0  0  0  0  0
    3.8621    0.3892   -1.3902 H   0  0  0  0  0  0  0  0  0  0  0  0
    2.9439    1.7482   -0.5744 H   0  0  0  0  0  0  0  0  0  0  0  0
    3.7923    1.1400    1.5881 H   0  0  0  0  0  0  0  0  0  0  0  0
    5.2394    0.7000    0.5389 H   0  0  0  0  0  0  0  0  0  0  0  0
    4.1955   -1.4606    0.2670 H   0  0  0  0  0  0  0  0  0  0  0  0
    2.1558   -0.1446    1.8785 H   0  0  0  0  0  0  0  0  0  0  0  0
    2.0826   -1.8674    1.2409 H   0  0  0  0  0  0  0  0  0  0  0  0
  1  2  1  0
  2  3  1  1
  2  4  1  0
  4  5  1  0
  2  6  1  0
  6  7  1  0
  7  8  1  0
  8  9  1  0
  9 10  1  0
 10 11  1  0
 11 12  1  0
 12 13  1  0
 13  9  1  0
  1 14  1  0
  1 15  1  0
  1 16  1  0
  3 17  1  0
  4 18  1  0
  4 19  1  0
  5 20  1  0
  6 21  1  0
  6 22  1  0
  7 23  1  0
  8 24  1  0
  8 25  1  0
  9 26  1  6
 10 27  1  0
 10 28  1  0
 11 29  1  0
 11 30  1  0
 12 31  1  0
 13 32  1  0
 13 33  1  0
M  END
$$$$
