
     RDKit          3D

 31 32  0  0  0  0  0  0  0  0999 V2000
    3.0281    0.0455    1.3805 C   0  0  0  0  0  0  0  0  0  0  0  0
    2.3523    0.2642    0.0261 C   0  0  1  0  0  0  0  0  0  0  0  0
    2.8668   -0.5972   -1.0283 N   0  0  0  0  0  0  0  0  0  0  0  0
    1.4996   -0.9172   -1.3698 C   0  0  0  0  0  0  0  0  0  0  0  0
    0.9767   -0.2759   -0.0845 C   0  0  2  0  0  0  0  0  0  0  0  0
   -0.0808    0.6287   -0.3825 N   0  0  0  0  0  0  0  0  0  0  0  0
   -0.3475    1.6705    0.5735 C   0  0  0  0  0  0  0  0  0  0  0  0
   -1.8358    1.4562    0.2557 C   0  0  0  0  0  0  0  0  0  0  0  0
   -1.4207    0.1159   -0.3517 C   0  0  0  0  0  0  0  0  0  0  0  0
   -1.6975   -0.9856    0.6313 C   0  0  0  0  0  0  0  0  0  0  0  0
   -1.4548   -0.5909    1.9492 O   0  0  0  0  0  0  0  0  0  0  0  0
   -2.0583   -0.0768   -1.6862 C   0  0  0  0  0  0  0  0  0  0  0  0
   -3.3491   -0.5723   -1.4946 O   0  0  0  0  0  0  0  0  0  0  0  0
    3.9440    0.6559    1.3762 H   0  0  0  0  0  0  0  0  0  0  0  0
    2.3541    0.4213    2.1511 H   0  0  0  0  0  0  0  0  0  0  0  0
    3.3250   -1.0121    1.5229 H   0  0  0  0  0  0  0  0  0  0  0  0
    2.5068    1.3167   -0.2688 H   0  0  0  0  0  0  0  0  0  0  0  0
    3.4369   -1.3950   -0.6730 H   0  0  0  0  0  0  0  0  0  0  0  0
    1.3601   -2.0171   -1.4206 H   0  0  0  0  0  0  0  0  0  0  0  0
    1.1223   -0.4306   -2.2968 H   0  0  0  0  0  0  0  0  0  0  0  0
    0.6718   -1.0421    0.6226 H   0  0  0  0  0  0  0  0  0  0  0  0
   -0.1743    1.4402    1.6218 H   0  0  0  0  0  0  0  0  0  0  0  0
    0.0314    2.6462    0.2043 H   0  0  0  0  0  0  0  0  0  0  0  0
   -2.1685    2.1896   -0.4792 H   0  0  0  0  0  0  0  0  0  0  0  0
   -2.4830    1.3945    1.1303 H   0  0  0  0  0  0  0  0  0  0  0  0
   -2.7933   -1.1995    0.5717 H   0  0  0  0  0  0  0  0  0  0  0  0
   -1.1923   -1.9407    0.3740 H   0  0  0  0  0  0  0  0  0  0  0  0
   -0.9746   -1.3097    2.4340 H   0  0  0  0  0  0  0  0  0  0  0  0
   -2.1323    0.9412   -2.1635 H   0  0  0  0  0  0  0  0  0  0  0  0
   -1.4870   -0.7639   -2.3317 H   0  0  0  0  0  0  0  0  0  0  0  0
   -3.8261   -0.0601   -0.7940 H   0  0  0  0  0  0  0  0  0  0  0  0
  1  2  1  0
  2  3  1  0
  3  4  1  0
  4  5  1  0
  5  6  1  0
  6  7  1  0
  7  8  1  0
  8  9  1  0
  9 10  1  0
 10 11  1  0
  9 12  1  0
 12 13  1  0
  5  2  1  0
  9  6  1  0
  1 14  1  0
  1 15  1  0
  1 16  1  0
  2 17  1  6
  3 18  1  0
  4 19  1  0
  4 20  1  0
  5 21  1  1
  7 22  1  0
  7 23  1  0
  8 24  1  0
  8 25  1  0
 10 26  1  0
 10 27  1  0
 11 28  1  0
 12 29  1  0
 12 30  1  0
 13 31  1  0
M  END
$$$$

     RDKit          3D

 31 32  0  0  0  0  0  0  0  0999 V2000
    2.8403    1.5399   -0.4451 C   0  0  0  0  0  0  0  0  0  0  0  0
    2.3521    0.1293   -0.2438 C   0  0  1  0  0  0  0  0  0  0  0  0
    2.9168   -0.4072    1.0054 N   0  0  0  0  0  0  0  0  0  0  0  0
    1.6824   -1.2232    1.0295 C   0  0  0  0  0  0  0  0  0  0  0  0
    0.9800    0.0303    0.4580 C   0  0  2  0  0  0  0  0  0  0  0  0
   -0.1055   -0.3254   -0.2862 N   0  0  0  0  0  0  0  0  0  0  0  0
   -0.2542   -1.5755   -0.8885 C   0  0  0  0  0  0  0  0  0  0  0  0
   -1.7618   -1.3159   -1.0003 C   0  0  0  0  0  0  0  0  0  0  0  0
   -1.4288   -0.0410   -0.2327 C   0  0  0  0  0  0  0  0  0  0  0  0
   -2.1714    0.0471    1.0738 C   0  0  0  0  0  0  0  0  0  0  0  0
   -2.1696   -1.0876    1.8329 O   0  0  0  0  0  0  0  0  0  0  0  0
   -1.9281    1.1280   -1.1121 C   0  0  0  0  0  0  0  0  0  0  0  0
   -1.2572    2.2531   -0.6939 O   0  0  0  0  0  0  0  0  0  0  0  0
    3.5111    1.5313   -1.3417 H   0  0  0  0  0  0  0  0  0  0  0  0
    2.0250    2.2762   -0.5937 H   0  0  0  0  0  0  0  0  0  0  0  0
    3.4783    1.8908    0.4022 H   0  0  0  0  0  0  0  0  0  0  0  0
    2.4370   -0.5607   -1.0819 H   0  0  0  0  0  0  0  0  0  0  0  0
    2.8754    0.3413    1.7376 H   0  0  0  0  0  0  0  0  0  0  0  0
    1.8158   -1.9893    0.2321 H   0  0  0  0  0  0  0  0  0  0  0  0
    1.3488   -1.5505    2.0029 H   0  0  0  0  0  0  0  0  0  0  0  0
    0.8920    0.7997    1.2605 H   0  0  0  0  0  0  0  0  0  0  0  0
    0.2457   -1.6923   -1.8821 H   0  0  0  0  0  0  0  0  0  0  0  0
   -0.0344   -2.5034   -0.3065 H   0  0  0  0  0  0  0  0  0  0  0  0
   -2.0468   -1.1655   -2.0538 H   0  0  0  0  0  0  0  0  0  0  0  0
   -2.3574   -2.0530   -0.4444 H   0  0  0  0  0  0  0  0  0  0  0  0
   -3.2480    0.2749    0.8080 H   0  0  0  0  0  0  0  0  0  0  0  0
   -1.8234    0.9544    1.6062 H   0  0  0  0  0  0  0  0  0  0  0  0
   -2.2666   -0.8422    2.7886 H   0  0  0  0  0  0  0  0  0  0  0  0
   -1.7294    0.8780   -2.1510 H   0  0  0  0  0  0  0  0  0  0  0  0
   -3.0156    1.2019   -0.9128 H   0  0  0  0  0  0  0  0  0  0  0  0
   -1.8026    3.0567   -0.5675 H   0  0  0  0  0  0  0  0  0  0  0  0
  1  2  1  0
  2  3  1  0
  3  4  1  0
  4  5  1  0
  5  6  1  0
  6  7  1  0
  7  8  1  0
  8  9  1  0
  9 10  1  0
 10 11  1  0
  9 12  1  0
 12 13  1  0
  5  2  1  0
  9  6  1  0
  1 14  1  0
  1 15  1  0
  1 16  1  0
  2 17  1  6
  3 18  1  0
  4 19  1  0
  4 20  1  0
  5 21  1  1
  7 22  1  0
  7 23  1  0
  8 24  1  0
  8 25  1  0
 10 26  1  0
 10 27  1  0
 11 28  1  0
 12 29  1  0
 12 30  1  0
 13 31  1  0
M  END
$$$$

     RDKit          3D

 31 32  0  0  0  0  0  0  0  0999 V2000
    3.0851   -1.0480   -0.4788 C   0  0  0  0  0  0  0  0  0  0  0  0
    2.4017   -0.0382    0.4173 C   0  0  1  0  0  0  0  0  0  0  0  0
    2.9477    1.3173    0.2455 N   0  0  0  0  0  0  0  0  0  0  0  0
    1.6069    1.7687    0.5982 C   0  0  0  0  0  0  0  0  0  0  0  0
    1.1006    0.5077   -0.1540 C   0  0  2  0  0  0  0  0  0  0  0  0
   -0.1055    0.1147    0.3467 N   0  0  0  0  0  0  0  0  0  0  0  0
   -0.6156    0.3574    1.6259 C   0  0  0  0  0  0  0  0  0  0  0  0
   -2.0287    0.2393    1.0009 C   0  0  0  0  0  0  0  0  0  0  0  0
   -1.2913   -0.1982   -0.2874 C   0  0  0  0  0  0  0  0  0  0  0  0
   -1.5044   -1.6820   -0.4683 C   0  0  0  0  0  0  0  0  0  0  0  0
   -1.5196   -2.2667    0.7990 O   0  0  0  0  0  0  0  0  0  0  0  0
   -1.8035    0.6101   -1.4391 C   0  0  0  0  0  0  0  0  0  0  0  0
   -3.0116    0.0502   -1.8656 O   0  0  0  0  0  0  0  0  0  0  0  0
    3.6852   -0.4980   -1.2344 H   0  0  0  0  0  0  0  0  0  0  0  0
    3.8159   -1.6094    0.1409 H   0  0  0  0  0  0  0  0  0  0  0  0
    2.3937   -1.8003   -0.9142 H   0  0  0  0  0  0  0  0  0  0  0  0
    2.3038   -0.2684    1.4716 H   0  0  0  0  0  0  0  0  0  0  0  0
    3.0763    1.4616   -0.7980 H   0  0  0  0  0  0  0  0  0  0  0  0
    1.2734    2.7127    0.1833 H   0  0  0  0  0  0  0  0  0  0  0  0
    1.4717    1.5907    1.6925 H   0  0  0  0  0  0  0  0  0  0  0  0
    1.2003    0.7393   -1.2455 H   0  0  0  0  0  0  0  0  0  0  0  0
   -0.4644    1.3823    2.0509 H   0  0  0  0  0  0  0  0  0  0  0  0
   -0.4101   -0.4433    2.3575 H   0  0  0  0  0  0  0  0  0  0  0  0
   -2.6168   -0.5425    1.4606 H   0  0  0  0  0  0  0  0  0  0  0  0
   -2.5227    1.2114    0.9292 H   0  0  0  0  0  0  0  0  0  0  0  0
   -2.5031   -1.9124   -0.9339 H   0  0  0  0  0  0  0  0  0  0  0  0
   -0.6677   -2.1473   -1.0128 H   0  0  0  0  0  0  0  0  0  0  0  0
   -2.4268   -2.5369    1.0690 H   0  0  0  0  0  0  0  0  0  0  0  0
   -2.0309    1.6710   -1.2004 H   0  0  0  0  0  0  0  0  0  0  0  0
   -1.1262    0.5581   -2.3271 H   0  0  0  0  0  0  0  0  0  0  0  0
   -3.7136    0.6988   -2.0296 H   0  0  0  0  0  0  0  0  0  0  0  0
  1  2  1  0
  2  3  1  0
  3  4  1  0
  4  5  1  0
  5  6  1  0
  6  7  1  0
  7  8  1  0
  8  9  1  0
  9 10  1  0
 10 11  1  0
  9 12  1  0
 12 13  1  0
  5  2  1  0
  9  6  1  0
  1 14  1  0
  1 15  1  0
  1 16  1  0
  2 17  1  1
  3 18  1  0
  4 19  1  0
  4 20  1  0
  5 21  1  6
  7 22  1  0
  7 23  1  0
  8 24  1  0
  8 25  1  0
 10 26  1  0
 10 27  1  0
 11 28  1  0
 12 29  1  0
 12 30  1  0
 13 31  1  0
M  END
$$$$

     RDKit          3D

 31 32  0  0  0  0  0  0  0  0999 V2000
    2.6560   -0.8072   -1.0177 C   0  0  0  0  0  0  0  0  0  0  0  0
    1.9905    0.0927    0.0057 C   0  0  1  0  0  0  0  0  0  0  0  0
    2.6873    1.3904    0.0634 N   0  0  0  0  0  0  0  0  0  0  0  0
    1.4431    2.0567   -0.1400 C   0  0  0  0  0  0  0  0  0  0  0  0
    0.7185    0.7364   -0.4412 C   0  0  2  0  0  0  0  0  0  0  0  0
   -0.4643    0.6550    0.2369 N   0  0  0  0  0  0  0  0  0  0  0  0
   -0.7656    1.1034    1.5127 C   0  0  0  0  0  0  0  0  0  0  0  0
   -1.2022   -0.2931    1.8894 C   0  0  0  0  0  0  0  0  0  0  0  0
   -1.3174   -0.4389    0.3639 C   0  0  0  0  0  0  0  0  0  0  0  0
   -2.7835   -0.1780   -0.0037 C   0  0  0  0  0  0  0  0  0  0  0  0
   -2.9114    0.2317   -1.3168 O   0  0  0  0  0  0  0  0  0  0  0  0
   -0.9222   -1.7958   -0.1367 C   0  0  0  0  0  0  0  0  0  0  0  0
    0.2129   -2.3147    0.4611 O   0  0  0  0  0  0  0  0  0  0  0  0
    2.1213   -0.7853   -1.9909 H   0  0  0  0  0  0  0  0  0  0  0  0
    2.7181   -1.8130   -0.6035 H   0  0  0  0  0  0  0  0  0  0  0  0
    3.6936   -0.4529   -1.1835 H   0  0  0  0  0  0  0  0  0  0  0  0
    2.0433   -0.3540    0.9906 H   0  0  0  0  0  0  0  0  0  0  0  0
    3.4060    1.5142   -0.6874 H   0  0  0  0  0  0  0  0  0  0  0  0
    1.0670    2.5800    0.7579 H   0  0  0  0  0  0  0  0  0  0  0  0
    1.4813    2.7721   -0.9767 H   0  0  0  0  0  0  0  0  0  0  0  0
    0.6924    0.6636   -1.5753 H   0  0  0  0  0  0  0  0  0  0  0  0
    0.0064    1.5519    2.1549 H   0  0  0  0  0  0  0  0  0  0  0  0
   -1.6542    1.7968    1.5439 H   0  0  0  0  0  0  0  0  0  0  0  0
   -0.4078   -0.9301    2.3224 H   0  0  0  0  0  0  0  0  0  0  0  0
   -2.1495   -0.3105    2.4302 H   0  0  0  0  0  0  0  0  0  0  0  0
   -3.3651   -1.1356    0.0873 H   0  0  0  0  0  0  0  0  0  0  0  0
   -3.2556    0.5192    0.7185 H   0  0  0  0  0  0  0  0  0  0  0  0
   -3.1896    1.1820   -1.3251 H   0  0  0  0  0  0  0  0  0  0  0  0
   -0.7719   -1.8244   -1.2329 H   0  0  0  0  0  0  0  0  0  0  0  0
   -1.7490   -2.5117    0.0762 H   0  0  0  0  0  0  0  0  0  0  0  0
   -0.0283   -2.9011    1.2179 H   0  0  0  0  0  0  0  0  0  0  0  0
  1  2  1  0
  2  3  1  0
  3  4  1  0
  4  5  1  0
  5  6  1  0
  6  7  1  0
  7  8  1  0
  8  9  1  0
  9 10  1  0
 10 11  1  0
  9 12  1  0
 12 13  1  0
  5  2  1  0
  9  6  1  0
  1 14  1  0
  1 15  1  0
  1 16  1  0
  2 17  1  1
  3 18  1  0
  4 19  1  0
  4 20  1  0
  5 21  1  6
  7 22  1  0
  7 23  1  0
  8 24  1  0
  8 25  1  0
 10 26  1  0
 10 27  1  0
 11 28  1  0
 12 29  1  0
 12 30  1  0
 13 31  1  0
M  END
$$$$

     RDKit          3D

 31 32  0  0  0  0  0  0  0  0999 V2000
    3.0155    0.9082    0.9022 C   0  0  0  0  0  0  0  0  0  0  0  0
    2.2923    0.1481   -0.1473 C   0  0  1  0  0  0  0  0  0  0  0  0
    2.8459   -1.2170   -0.2292 N   0  0  0  0  0  0  0  0  0  0  0  0
    1.4871   -1.6013   -0.6498 C   0  0  0  0  0  0  0  0  0  0  0  0
    0.9811   -0.5094    0.2253 C   0  0  2  0  0  0  0  0  0  0  0  0
   -0.1098    0.2566   -0.0927 N   0  0  0  0  0  0  0  0  0  0  0  0
   -0.1714    1.5058    0.6213 C   0  0  0  0  0  0  0  0  0  0  0  0
   -1.4339    1.0217    1.2811 C   0  0  0  0  0  0  0  0  0  0  0  0
   -1.4524    0.0297    0.1153 C   0  0  0  0  0  0  0  0  0  0  0  0
   -2.3605    0.5275   -1.0244 C   0  0  0  0  0  0  0  0  0  0  0  0
   -2.2279    1.8920   -1.2144 O   0  0  0  0  0  0  0  0  0  0  0  0
   -1.9897   -1.2707    0.5705 C   0  0  0  0  0  0  0  0  0  0  0  0
   -1.6835   -2.2889   -0.3346 O   0  0  0  0  0  0  0  0  0  0  0  0
    2.8984    2.0072    0.7999 H   0  0  0  0  0  0  0  0  0  0  0  0
    2.6751    0.5769    1.9006 H   0  0  0  0  0  0  0  0  0  0  0  0
    4.1183    0.6600    0.8738 H   0  0  0  0  0  0  0  0  0  0  0  0
    2.2816    0.5890   -1.1667 H   0  0  0  0  0  0  0  0  0  0  0  0
    3.5679   -1.2974   -0.9487 H   0  0  0  0  0  0  0  0  0  0  0  0
    1.3019   -2.6175   -0.2293 H   0  0  0  0  0  0  0  0  0  0  0  0
    1.4133   -1.4850   -1.7365 H   0  0  0  0  0  0  0  0  0  0  0  0
    1.0726   -0.8490    1.2996 H   0  0  0  0  0  0  0  0  0  0  0  0
   -0.2692    2.4189    0.0084 H   0  0  0  0  0  0  0  0  0  0  0  0
    0.6141    1.6821    1.3968 H   0  0  0  0  0  0  0  0  0  0  0  0
   -2.2912    1.7075    1.3096 H   0  0  0  0  0  0  0  0  0  0  0  0
   -1.2104    0.4738    2.2059 H   0  0  0  0  0  0  0  0  0  0  0  0
   -2.0677    0.0144   -1.9416 H   0  0  0  0  0  0  0  0  0  0  0  0
   -3.3901    0.2445   -0.7440 H   0  0  0  0  0  0  0  0  0  0  0  0
   -2.8357    2.3313   -0.5659 H   0  0  0  0  0  0  0  0  0  0  0  0
   -3.1150   -1.1988    0.5528 H   0  0  0  0  0  0  0  0  0  0  0  0
   -1.7456   -1.5495    1.6099 H   0  0  0  0  0  0  0  0  0  0  0  0
   -2.2109   -3.1109   -0.1366 H   0  0  0  0  0  0  0  0  0  0  0  0
  1  2  1  0
  2  3  1  0
  3  4  1  0
  4  5  1  0
  5  6  1  0
  6  7  1  0
  7  8  1  0
  8  9  1  0
  9 10  1  0
 10 11  1  0
  9 12  1  0
 12 13  1  0
  5  2  1  0
  9  6  1  0
  1 14  1  0
  1 15  1  0
  1 16  1  0
  2 17  1  6
  3 18  1  0
  4 19  1  0
  4 20  1  0
  5 21  1  1
  7 22  1  0
  7 23  1  0
  8 24  1  0
  8 25  1  0
 10 26  1  0
 10 27  1  0
 11 28  1  0
 12 29  1  0
 12 30  1  0
 13 31  1  0
M  END
$$$$

     RDKit          3D

 31 32  0  0  0  0  0  0  0  0999 V2000
    3.3736   -0.7560    0.7541 C   0  0  0  0  0  0  0  0  0  0  0  0
    1.8819   -0.5202    0.8575 C   0  0  1  0  0  0  0  0  0  0  0  0
    1.6474    0.9110    1.0579 N   0  0  0  0  0  0  0  0  0  0  0  0
    1.7314    1.0350   -0.3679 C   0  0  0  0  0  0  0  0  0  0  0  0
    1.1924   -0.3343   -0.4903 C   0  0  2  0  0  0  0  0  0  0  0  0
   -0.0997   -0.6495   -0.5990 N   0  0  0  0  0  0  0  0  0  0  0  0
   -0.7011   -1.2969   -1.7151 C   0  0  0  0  0  0  0  0  0  0  0  0
   -1.9995   -1.2813   -0.8946 C   0  0  0  0  0  0  0  0  0  0  0  0
   -1.3057   -0.1357   -0.2250 C   0  0  0  0  0  0  0  0  0  0  0  0
   -1.8230    1.1713   -0.7654 C   0  0  0  0  0  0  0  0  0  0  0  0
   -3.0823    1.3694   -0.1955 O   0  0  0  0  0  0  0  0  0  0  0  0
   -1.6029   -0.1342    1.2988 C   0  0  0  0  0  0  0  0  0  0  0  0
   -1.5355   -1.3705    1.8529 O   0  0  0  0  0  0  0  0  0  0  0  0
    3.6274   -1.1862   -0.2594 H   0  0  0  0  0  0  0  0  0  0  0  0
    3.7456   -1.4856    1.4947 H   0  0  0  0  0  0  0  0  0  0  0  0
    3.9364    0.1864    0.8243 H   0  0  0  0  0  0  0  0  0  0  0  0
    1.3457   -1.1864    1.5563 H   0  0  0  0  0  0  0  0  0  0  0  0
    2.3354    1.3902    1.6196 H   0  0  0  0  0  0  0  0  0  0  0  0
    1.1102    1.7713   -0.8871 H   0  0  0  0  0  0  0  0  0  0  0  0
    2.8051    1.1506   -0.7306 H   0  0  0  0  0  0  0  0  0  0  0  0
    1.8342   -0.9030   -1.2344 H   0  0  0  0  0  0  0  0  0  0  0  0
   -0.8268   -0.6379   -2.6153 H   0  0  0  0  0  0  0  0  0  0  0  0
   -0.2855   -2.2748   -1.9166 H   0  0  0  0  0  0  0  0  0  0  0  0
   -2.9177   -1.0310   -1.4557 H   0  0  0  0  0  0  0  0  0  0  0  0
   -2.0334   -2.2073   -0.2925 H   0  0  0  0  0  0  0  0  0  0  0  0
   -1.2217    2.0461   -0.3568 H   0  0  0  0  0  0  0  0  0  0  0  0
   -1.9016    1.2333   -1.8592 H   0  0  0  0  0  0  0  0  0  0  0  0
   -3.3400    2.3168   -0.0994 H   0  0  0  0  0  0  0  0  0  0  0  0
   -2.6849    0.2204    1.3444 H   0  0  0  0  0  0  0  0  0  0  0  0
   -1.0306    0.6787    1.7291 H   0  0  0  0  0  0  0  0  0  0  0  0
   -2.1748   -1.4905    2.5702 H   0  0  0  0  0  0  0  0  0  0  0  0
  1  2  1  0
  2  3  1  0
  3  4  1  0
  4  5  1  0
  5  6  1  0
  6  7  1  0
  7  8  1  0
  8  9  1  0
  9 10  1  0
 10 11  1  0
  9 12  1  0
 12 13  1  0
  5  2  1  0
  9  6  1  0
  1 14  1  0
  1 15  1  0
  1 16  1  0
  2 17  1  1
  3 18  1  0
  4 19  1  0
  4 20  1  0
  5 21  1  6
  7 22  1  0
  7 23  1  0
  8 24  1  0
  8 25  1  0
 10 26  1  0
 10 27  1  0
 11 28  1  0
 12 29  1  0
 12 30  1  0
 13 31  1  0
M  END
$$$$

     RDKit          3D

 31 32  0  0  0  0  0  0  0  0999 V2000
    3.2527   -0.3381   -0.8189 C   0  0  0  0  0  0  0  0  0  0  0  0
    2.3107    0.0039    0.2866 C   0  0  1  0  0  0  0  0  0  0  0  0
    2.5629    1.2698    0.9469 N   0  0  0  0  0  0  0  0  0  0  0  0
    1.2817    1.8022    0.4762 C   0  0  0  0  0  0  0  0  0  0  0  0
    0.9314    0.5073   -0.1532 C   0  0  2  0  0  0  0  0  0  0  0  0
   -0.0614   -0.3146    0.4413 N   0  0  0  0  0  0  0  0  0  0  0  0
    0.0655   -1.6744   -0.0457 C   0  0  0  0  0  0  0  0  0  0  0  0
   -1.4225   -1.8046    0.0613 C   0  0  0  0  0  0  0  0  0  0  0  0
   -1.4038   -0.2896   -0.0052 C   0  0  0  0  0  0  0  0  0  0  0  0
   -1.6866    0.2992   -1.3612 C   0  0  0  0  0  0  0  0  0  0  0  0
   -1.2419    1.6373   -1.3045 O   0  0  0  0  0  0  0  0  0  0  0  0
   -2.4210    0.2402    1.0097 C   0  0  0  0  0  0  0  0  0  0  0  0
   -3.6856    0.1974    0.4247 O   0  0  0  0  0  0  0  0  0  0  0  0
    2.9393   -1.2802   -1.2812 H   0  0  0  0  0  0  0  0  0  0  0  0
    4.2380   -0.5569   -0.3259 H   0  0  0  0  0  0  0  0  0  0  0  0
    3.3680    0.4951   -1.5212 H   0  0  0  0  0  0  0  0  0  0  0  0
    2.2965   -0.7955    1.0437 H   0  0  0  0  0  0  0  0  0  0  0  0
    2.5914    1.2297    1.9964 H   0  0  0  0  0  0  0  0  0  0  0  0
    0.6308    2.2086    1.2486 H   0  0  0  0  0  0  0  0  0  0  0  0
    1.5171    2.5937   -0.2873 H   0  0  0  0  0  0  0  0  0  0  0  0
    0.8991    0.5447   -1.2763 H   0  0  0  0  0  0  0  0  0  0  0  0
    0.6840   -2.3192    0.5779 H   0  0  0  0  0  0  0  0  0  0  0  0
    0.3470   -1.6725   -1.1427 H   0  0  0  0  0  0  0  0  0  0  0  0
   -1.8775   -2.3131   -0.7949 H   0  0  0  0  0  0  0  0  0  0  0  0
   -1.6858   -2.2076    1.0612 H   0  0  0  0  0  0  0  0  0  0  0  0
   -1.1520   -0.2322   -2.1600 H   0  0  0  0  0  0  0  0  0  0  0  0
   -2.7878    0.2945   -1.5187 H   0  0  0  0  0  0  0  0  0  0  0  0
   -2.0199    2.2485   -1.4553 H   0  0  0  0  0  0  0  0  0  0  0  0
   -2.4582   -0.4002    1.9119 H   0  0  0  0  0  0  0  0  0  0  0  0
   -2.1870    1.3057    1.2551 H   0  0  0  0  0  0  0  0  0  0  0  0
   -3.8253   -0.6790   -0.0450 H   0  0  0  0  0  0  0  0  0  0  0  0
  1  2  1  0
  2  3  1  0
  3  4  1  0
  4  5  1  0
  5  6  1  0
  6  7  1  0
  7  8  1  0
  8  9  1  0
  9 10  1  0
 10 11  1  0
  9 12  1  0
 12 13  1  0
  5  2  1  0
  9  6  1  0
  1 14  1  0
  1 15  1  0
  1 16  1  0
  2 17  1  1
  3 18  1  0
  4 19  1  0
  4 20  1  0
  5 21  1  6
  7 22  1  0
  7 23  1  0
  8 24  1  0
  8 25  1  0
 10 26  1  0
 10 27  1  0
 11 28  1  0
 12 29  1  0
 12 30  1  0
 13 31  1  0
M  END
$$$$

     RDKit          3D

 31 32  0  0  0  0  0  0  0  0999 V2000
    2.9952    1.0873   -0.1717 C   0  0  0  0  0  0  0  0  0  0  0  0
    2.2622   -0.1870   -0.5062 C   0  0  1  0  0  0  0  0  0  0  0  0
    2.8019   -1.3418    0.2379 N   0  0  0  0  0  0  0  0  0  0  0  0
    1.4526   -1.8653    0.1776 C   0  0  0  0  0  0  0  0  0  0  0  0
    0.9750   -0.4497    0.2318 C   0  0  2  0  0  0  0  0  0  0  0  0
   -0.1688   -0.0545   -0.4470 N   0  0  0  0  0  0  0  0  0  0  0  0
   -0.2235    1.3517   -0.6619 C   0  0  0  0  0  0  0  0  0  0  0  0
   -1.3387    1.4265    0.3439 C   0  0  0  0  0  0  0  0  0  0  0  0
   -1.4635   -0.0290    0.0625 C   0  0  0  0  0  0  0  0  0  0  0  0
   -1.7987   -0.9124    1.2381 C   0  0  0  0  0  0  0  0  0  0  0  0
   -1.0504   -0.6580    2.3611 O   0  0  0  0  0  0  0  0  0  0  0  0
   -2.5510   -0.2538   -0.9989 C   0  0  0  0  0  0  0  0  0  0  0  0
   -2.5273    0.7118   -1.9967 O   0  0  0  0  0  0  0  0  0  0  0  0
    2.9112    1.8697   -0.9274 H   0  0  0  0  0  0  0  0  0  0  0  0
    2.6718    1.4404    0.8233 H   0  0  0  0  0  0  0  0  0  0  0  0
    4.0777    0.7989   -0.1229 H   0  0  0  0  0  0  0  0  0  0  0  0
    2.2551   -0.4583   -1.5808 H   0  0  0  0  0  0  0  0  0  0  0  0
    3.5118   -1.8889   -0.2871 H   0  0  0  0  0  0  0  0  0  0  0  0
    1.2849   -2.4634    1.1121 H   0  0  0  0  0  0  0  0  0  0  0  0
    1.3317   -2.4134   -0.7654 H   0  0  0  0  0  0  0  0  0  0  0  0
    1.1133   -0.0738    1.2915 H   0  0  0  0  0  0  0  0  0  0  0  0
   -0.4717    1.6912   -1.6877 H   0  0  0  0  0  0  0  0  0  0  0  0
    0.6352    1.9490   -0.2794 H   0  0  0  0  0  0  0  0  0  0  0  0
   -0.9823    1.6487    1.3722 H   0  0  0  0  0  0  0  0  0  0  0  0
   -2.1740    2.0694   -0.0051 H   0  0  0  0  0  0  0  0  0  0  0  0
   -2.8661   -0.7697    1.5071 H   0  0  0  0  0  0  0  0  0  0  0  0
   -1.7322   -1.9702    0.8770 H   0  0  0  0  0  0  0  0  0  0  0  0
   -1.5109    0.0379    2.8879 H   0  0  0  0  0  0  0  0  0  0  0  0
   -2.4562   -1.2684   -1.4351 H   0  0  0  0  0  0  0  0  0  0  0  0
   -3.5693   -0.2107   -0.5441 H   0  0  0  0  0  0  0  0  0  0  0  0
   -3.3949    1.1859   -2.1065 H   0  0  0  0  0  0  0  0  0  0  0  0
  1  2  1  0
  2  3  1  0
  3  4  1  0
  4  5  1  0
  5  6  1  0
  6  7  1  0
  7  8  1  0
  8  9  1  0
  9 10  1  0
 10 11  1  0
  9 12  1  0
 12 13  1  0
  5  2  1  0
  9  6  1  0
  1 14  1  0
  1 15  1  0
  1 16  1  0
  2 17  1  6
  3 18  1  0
  4 19  1  0
  4 20  1  0
  5 21  1  1
  7 22  1  0
  7 23  1  0
  8 24  1  0
  8 25  1  0
 10 26  1  0
 10 27  1  0
 11 28  1  0
 12 29  1  0
 12 30  1  0
 13 31  1  0
M  END
$$$$
