
     RDKit          3D

 26 26  0  0  0  0  0  0  0  0999 V2000
    0.3767   -0.6617   -1.9994 O   0  0  0  0  0  0  0  0  0  0  0  0
   -0.0137   -0.6686   -0.8483 C   0  0  0  0  0  0  0  0  0  0  0  0
    0.8232    0.1696    0.1008 N   0  0  0  0  0  0  0  0  0  0  0  0
    1.8400    0.7571    0.1100 O   0  0  0  0  0  0  0  0  0  0  0  0
    2.9172    0.9598   -0.6610 C   0  0  0  0  0  0  0  0  0  0  0  0
    3.9871    0.6411    0.5465 C   0  0  0  0  0  0  0  0  0  0  0  0
    5.1962    0.6988   -0.0479 O   0  0  0  0  0  0  0  0  0  0  0  0
   -1.1199   -1.2899   -0.1642 C   0  0  2  0  0  0  0  0  0  0  0  0
   -1.7146   -2.2752   -0.8562 F   0  0  0  0  0  0  0  0  0  0  0  0
   -2.0896   -0.2156    0.3285 C   0  0  0  0  0  0  0  0  0  0  0  0
   -3.2262   -0.6322    1.2155 C   0  0  0  0  0  0  0  0  0  0  0  0
   -4.1770   -0.1209    0.2185 N   0  0  0  0  0  0  0  0  0  0  0  0
   -3.1699    0.0295   -0.8221 C   0  0  0  0  0  0  0  0  0  0  0  0
    0.2906    0.1912    1.0527 H   0  0  0  0  0  0  0  0  0  0  0  0
    3.1927    0.2584   -1.4300 H   0  0  0  0  0  0  0  0  0  0  0  0
    3.2060    1.9715   -0.8806 H   0  0  0  0  0  0  0  0  0  0  0  0
    3.7066   -0.4734    0.7963 H   0  0  0  0  0  0  0  0  0  0  0  0
    3.7049    1.3071    1.3276 H   0  0  0  0  0  0  0  0  0  0  0  0
    5.8147    1.1248    0.5885 H   0  0  0  0  0  0  0  0  0  0  0  0
   -0.6407   -1.8231    0.7886 H   0  0  0  0  0  0  0  0  0  0  0  0
   -1.5640    0.6971    0.4991 H   0  0  0  0  0  0  0  0  0  0  0  0
   -3.2322    0.0130    2.1269 H   0  0  0  0  0  0  0  0  0  0  0  0
   -3.2676   -1.6947    1.4184 H   0  0  0  0  0  0  0  0  0  0  0  0
   -4.6123    0.7539    0.5238 H   0  0  0  0  0  0  0  0  0  0  0  0
   -3.1525   -0.7798   -1.5491 H   0  0  0  0  0  0  0  0  0  0  0  0
   -3.0758    1.0621   -1.2335 H   0  0  0  0  0  0  0  0  0  0  0  0
  1  2  2  0
  2  3  1  0
  3  4  1  0
  4  5  1  0
  5  6  1  0
  6  7  1  0
  2  8  1  0
  8  9  1  0
  8 10  1  0
 10 11  1  0
 11 12  1  0
 12 13  1  0
 13 10  1  0
  3 14  1  0
  5 15  1  0
  5 16  1  0
  6 17  1  0
  6 18  1  0
  7 19  1  0
  8 20  1  1
 10 21  1  0
 11 22  1  0
 11 23  1  0
 12 24  1  0
 13 25  1  0
 13 26  1  0
M  END
$$$$

     RDKit          3D

 26 26  0  0  0  0  0  0  0  0999 V2000
   -0.3528    0.6965    1.4632 O   0  0  0  0  0  0  0  0  0  0  0  0
   -0.0900    0.4610    0.2837 C   0  0  0  0  0  0  0  0  0  0  0  0
    1.1393    0.8294   -0.2003 N   0  0  0  0  0  0  0  0  0  0  0  0
    2.2758    1.3318    0.4053 O   0  0  0  0  0  0  0  0  0  0  0  0
    2.7039   -0.0584    0.7919 C   0  0  0  0  0  0  0  0  0  0  0  0
    4.0243   -0.2780    0.1628 C   0  0  0  0  0  0  0  0  0  0  0  0
    4.9869    0.5636    0.5916 O   0  0  0  0  0  0  0  0  0  0  0  0
   -0.9426   -0.2278   -0.6825 C   0  0  2  0  0  0  0  0  0  0  0  0
   -0.5410    0.2486   -1.9943 F   0  0  0  0  0  0  0  0  0  0  0  0
   -2.3712   -0.2346   -0.6959 C   0  0  0  0  0  0  0  0  0  0  0  0
   -3.2196    0.9463   -0.9666 C   0  0  0  0  0  0  0  0  0  0  0  0
   -4.1794    0.4130   -0.0241 N   0  0  0  0  0  0  0  0  0  0  0  0
   -3.0233   -0.0483    0.7028 C   0  0  0  0  0  0  0  0  0  0  0  0
    1.3813    0.7569   -1.2704 H   0  0  0  0  0  0  0  0  0  0  0  0
    2.9122    0.0485    1.9141 H   0  0  0  0  0  0  0  0  0  0  0  0
    1.9622   -0.7718    0.5819 H   0  0  0  0  0  0  0  0  0  0  0  0
    3.8183    0.0123   -0.9823 H   0  0  0  0  0  0  0  0  0  0  0  0
    4.2953   -1.3350    0.0157 H   0  0  0  0  0  0  0  0  0  0  0  0
    5.4091    0.1345    1.4004 H   0  0  0  0  0  0  0  0  0  0  0  0
   -0.5191   -1.2822   -0.7379 H   0  0  0  0  0  0  0  0  0  0  0  0
   -2.8076   -1.1719   -1.0844 H   0  0  0  0  0  0  0  0  0  0  0  0
   -2.7716    1.8769   -0.6122 H   0  0  0  0  0  0  0  0  0  0  0  0
   -3.6075    0.9936   -2.0321 H   0  0  0  0  0  0  0  0  0  0  0  0
   -4.7709    1.1328    0.4536 H   0  0  0  0  0  0  0  0  0  0  0  0
   -3.0980   -0.9716    1.2768 H   0  0  0  0  0  0  0  0  0  0  0  0
   -2.6142    0.8490    1.2393 H   0  0  0  0  0  0  0  0  0  0  0  0
  1  2  2  0
  2  3  1  0
  3  4  1  0
  4  5  1  0
  5  6  1  0
  6  7  1  0
  2  8  1  0
  8  9  1  0
  8 10  1  0
 10 11  1  0
 11 12  1  0
 12 13  1  0
 13 10  1  0
  3 14  1  0
  5 15  1  0
  5 16  1  0
  6 17  1  0
  6 18  1  0
  7 19  1  0
  8 20  1  6
 10 21  1  0
 11 22  1  0
 11 23  1  0
 12 24  1  0
 13 25  1  0
 13 26  1  0
M  END
$$$$

     RDKit          3D

 26 26  0  0  0  0  0  0  0  0999 V2000
    0.7389    0.7461    1.2433 O   0  0  0  0  0  0  0  0  0  0  0  0
    0.1395    0.6309    0.1532 C   0  0  0  0  0  0  0  0  0  0  0  0
    0.8321    0.1861   -0.9923 N   0  0  0  0  0  0  0  0  0  0  0  0
    2.1207   -0.1462   -1.0761 O   0  0  0  0  0  0  0  0  0  0  0  0
    2.8988    0.0783    0.0172 C   0  0  0  0  0  0  0  0  0  0  0  0
    4.3387   -0.3634   -0.3023 C   0  0  0  0  0  0  0  0  0  0  0  0
    5.1824   -0.1542    0.7829 O   0  0  0  0  0  0  0  0  0  0  0  0
   -1.3113    0.9749    0.0989 C   0  0  2  0  0  0  0  0  0  0  0  0
   -1.7708    1.3436    1.3353 F   0  0  0  0  0  0  0  0  0  0  0  0
   -2.1528   -0.1642   -0.4122 C   0  0  0  0  0  0  0  0  0  0  0  0
   -3.6088    0.2469   -0.4467 C   0  0  0  0  0  0  0  0  0  0  0  0
   -3.9555   -1.0273    0.1494 N   0  0  0  0  0  0  0  0  0  0  0  0
   -2.6091   -1.1426    0.6484 C   0  0  0  0  0  0  0  0  0  0  0  0
    0.2612    0.1118   -1.8757 H   0  0  0  0  0  0  0  0  0  0  0  0
    2.5562   -0.6140    0.8408 H   0  0  0  0  0  0  0  0  0  0  0  0
    2.8881    1.0878    0.4194 H   0  0  0  0  0  0  0  0  0  0  0  0
    4.6971    0.1596   -1.2292 H   0  0  0  0  0  0  0  0  0  0  0  0
    4.3636   -1.4521   -0.5226 H   0  0  0  0  0  0  0  0  0  0  0  0
    4.9622    0.6857    1.2884 H   0  0  0  0  0  0  0  0  0  0  0  0
   -1.4198    1.8164   -0.6396 H   0  0  0  0  0  0  0  0  0  0  0  0
   -1.8579   -0.6063   -1.3640 H   0  0  0  0  0  0  0  0  0  0  0  0
   -3.8598    1.1393    0.1994 H   0  0  0  0  0  0  0  0  0  0  0  0
   -4.0565    0.2968   -1.4633 H   0  0  0  0  0  0  0  0  0  0  0  0
   -4.6877   -0.9905    0.9096 H   0  0  0  0  0  0  0  0  0  0  0  0
   -2.1613   -2.1549    0.5723 H   0  0  0  0  0  0  0  0  0  0  0  0
   -2.5281   -0.6885    1.6528 H   0  0  0  0  0  0  0  0  0  0  0  0
  1  2  2  0
  2  3  1  0
  3  4  1  0
  4  5  1  0
  5  6  1  0
  6  7  1  0
  2  8  1  0
  8  9  1  0
  8 10  1  0
 10 11  1  0
 11 12  1  0
 12 13  1  0
 13 10  1  0
  3 14  1  0
  5 15  1  0
  5 16  1  0
  6 17  1  0
  6 18  1  0
  7 19  1  0
  8 20  1  6
 10 21  1  0
 11 22  1  0
 11 23  1  0
 12 24  1  0
 13 25  1  0
 13 26  1  0
M  END
$$$$

     RDKit          3D

 26 26  0  0  0  0  0  0  0  0999 V2000
    0.4122    1.3898   -1.1622 O   0  0  0  0  0  0  0  0  0  0  0  0
    0.0407    0.7014   -0.1812 C   0  0  0  0  0  0  0  0  0  0  0  0
    0.8586   -0.3854    0.2185 N   0  0  0  0  0  0  0  0  0  0  0  0
    2.0257   -0.6954   -0.4308 O   0  0  0  0  0  0  0  0  0  0  0  0
    3.0298   -0.0252    0.2815 C   0  0  0  0  0  0  0  0  0  0  0  0
    4.3977   -0.2608   -0.3061 C   0  0  0  0  0  0  0  0  0  0  0  0
    4.6631   -1.6464   -0.2687 O   0  0  0  0  0  0  0  0  0  0  0  0
   -1.2028    1.0321    0.5109 C   0  0  2  0  0  0  0  0  0  0  0  0
   -0.9828    1.3281    1.8617 F   0  0  0  0  0  0  0  0  0  0  0  0
   -2.2667   -0.0094    0.4558 C   0  0  0  0  0  0  0  0  0  0  0  0
   -2.7716   -0.4081   -0.8953 C   0  0  0  0  0  0  0  0  0  0  0  0
   -4.1193   -0.4674   -0.3089 N   0  0  0  0  0  0  0  0  0  0  0  0
   -3.6711    0.5918    0.6032 C   0  0  0  0  0  0  0  0  0  0  0  0
    0.5218   -0.9497    1.0479 H   0  0  0  0  0  0  0  0  0  0  0  0
    2.8385    1.0840    0.2515 H   0  0  0  0  0  0  0  0  0  0  0  0
    3.0555   -0.3565    1.3552 H   0  0  0  0  0  0  0  0  0  0  0  0
    5.1238    0.2035    0.4120 H   0  0  0  0  0  0  0  0  0  0  0  0
    4.4814    0.1400   -1.3208 H   0  0  0  0  0  0  0  0  0  0  0  0
    4.5509   -2.0604   -1.1664 H   0  0  0  0  0  0  0  0  0  0  0  0
   -1.6450    1.9758    0.0928 H   0  0  0  0  0  0  0  0  0  0  0  0
   -2.1089   -0.8960    1.0945 H   0  0  0  0  0  0  0  0  0  0  0  0
   -2.7574    0.3789   -1.6754 H   0  0  0  0  0  0  0  0  0  0  0  0
   -2.4928   -1.4189   -1.2533 H   0  0  0  0  0  0  0  0  0  0  0  0
   -4.1693   -1.3588    0.2619 H   0  0  0  0  0  0  0  0  0  0  0  0
   -3.7281    1.5772    0.0984 H   0  0  0  0  0  0  0  0  0  0  0  0
   -4.0838    0.5359    1.6176 H   0  0  0  0  0  0  0  0  0  0  0  0
  1  2  2  0
  2  3  1  0
  3  4  1  0
  4  5  1  0
  5  6  1  0
  6  7  1  0
  2  8  1  0
  8  9  1  0
  8 10  1  0
 10 11  1  0
 11 12  1  0
 12 13  1  0
 13 10  1  0
  3 14  1  0
  5 15  1  0
  5 16  1  0
  6 17  1  0
  6 18  1  0
  7 19  1  0
  8 20  1  6
 10 21  1  0
 11 22  1  0
 11 23  1  0
 12 24  1  0
 13 25  1  0
 13 26  1  0
M  END
$$$$

     RDKit          3D

 26 26  0  0  0  0  0  0  0  0999 V2000
    0.1028    0.2973   -1.1062 O   0  0  0  0  0  0  0  0  0  0  0  0
    0.0967   -0.1066    0.0852 C   0  0  0  0  0  0  0  0  0  0  0  0
   -1.1362    0.0498    0.7899 N   0  0  0  0  0  0  0  0  0  0  0  0
   -2.2031    0.6046    0.1684 O   0  0  0  0  0  0  0  0  0  0  0  0
   -3.2032   -0.3269   -0.0077 C   0  0  0  0  0  0  0  0  0  0  0  0
   -4.3627    0.3892   -0.7106 C   0  0  0  0  0  0  0  0  0  0  0  0
   -4.7812    1.4304    0.1051 O   0  0  0  0  0  0  0  0  0  0  0  0
    1.3018   -0.7049    0.7103 C   0  0  2  0  0  0  0  0  0  0  0  0
    1.6460    0.0525    1.8348 F   0  0  0  0  0  0  0  0  0  0  0  0
    2.4080   -0.6457   -0.3165 C   0  0  0  0  0  0  0  0  0  0  0  0
    2.6720    0.7800   -0.7076 C   0  0  0  0  0  0  0  0  0  0  0  0
    4.0820    0.4942   -0.6707 N   0  0  0  0  0  0  0  0  0  0  0  0
    3.7997   -0.6357    0.2014 C   0  0  0  0  0  0  0  0  0  0  0  0
   -1.1938   -0.2638    1.7659 H   0  0  0  0  0  0  0  0  0  0  0  0
   -2.8814   -1.2141   -0.5619 H   0  0  0  0  0  0  0  0  0  0  0  0
   -3.6011   -0.5940    1.0084 H   0  0  0  0  0  0  0  0  0  0  0  0
   -5.1910   -0.3158   -0.9073 H   0  0  0  0  0  0  0  0  0  0  0  0
   -3.9423    0.7399   -1.6775 H   0  0  0  0  0  0  0  0  0  0  0  0
   -4.5281    1.2160    1.0176 H   0  0  0  0  0  0  0  0  0  0  0  0
    1.1276   -1.7364    1.0544 H   0  0  0  0  0  0  0  0  0  0  0  0
    2.2108   -1.3562   -1.1258 H   0  0  0  0  0  0  0  0  0  0  0  0
    2.2480    1.0040   -1.6964 H   0  0  0  0  0  0  0  0  0  0  0  0
    2.3214    1.5060    0.0612 H   0  0  0  0  0  0  0  0  0  0  0  0
    4.6810    1.2358   -0.2564 H   0  0  0  0  0  0  0  0  0  0  0  0
    3.9292   -0.3786    1.2731 H   0  0  0  0  0  0  0  0  0  0  0  0
    4.3969   -1.5212   -0.1135 H   0  0  0  0  0  0  0  0  0  0  0  0
  1  2  2  0
  2  3  1  0
  3  4  1  0
  4  5  1  0
  5  6  1  0
  6  7  1  0
  2  8  1  0
  8  9  1  0
  8 10  1  0
 10 11  1  0
 11 12  1  0
 12 13  1  0
 13 10  1  0
  3 14  1  0
  5 15  1  0
  5 16  1  0
  6 17  1  0
  6 18  1  0
  7 19  1  0
  8 20  1  1
 10 21  1  0
 11 22  1  0
 11 23  1  0
 12 24  1  0
 13 25  1  0
 13 26  1  0
M  END
$$$$

     RDKit          3D

 26 26  0  0  0  0  0  0  0  0999 V2000
    1.0949    0.2106    1.8962 O   0  0  0  0  0  0  0  0  0  0  0  0
    0.2376   -0.1312    1.0324 C   0  0  0  0  0  0  0  0  0  0  0  0
    0.7808   -0.7511   -0.1125 N   0  0  0  0  0  0  0  0  0  0  0  0
    1.9152   -1.0462   -0.3635 O   0  0  0  0  0  0  0  0  0  0  0  0
    3.0836   -1.0685    0.2483 C   0  0  0  0  0  0  0  0  0  0  0  0
    3.8594    0.1423   -0.4198 C   0  0  0  0  0  0  0  0  0  0  0  0
    3.3296    1.3671    0.0044 O   0  0  0  0  0  0  0  0  0  0  0  0
   -1.1705    0.1080    1.2633 C   0  0  2  0  0  0  0  0  0  0  0  0
   -1.5038   -0.5737    2.4303 F   0  0  0  0  0  0  0  0  0  0  0  0
   -2.0255   -0.4149    0.1279 C   0  0  0  0  0  0  0  0  0  0  0  0
   -3.4771   -0.1976    0.5040 C   0  0  0  0  0  0  0  0  0  0  0  0
   -3.3301    1.1747    0.0738 N   0  0  0  0  0  0  0  0  0  0  0  0
   -2.3599    0.6760   -0.9009 C   0  0  0  0  0  0  0  0  0  0  0  0
    0.0573   -0.8643   -0.9586 H   0  0  0  0  0  0  0  0  0  0  0  0
    3.7628   -1.8979    0.0910 H   0  0  0  0  0  0  0  0  0  0  0  0
    3.1153   -0.8445    1.3735 H   0  0  0  0  0  0  0  0  0  0  0  0
    4.8212    0.0469   -0.5992 H   0  0  0  0  0  0  0  0  0  0  0  0
    3.3334    0.0918   -1.5226 H   0  0  0  0  0  0  0  0  0  0  0  0
    4.1427    1.9882    0.1247 H   0  0  0  0  0  0  0  0  0  0  0  0
   -1.3713    1.1670    1.4031 H   0  0  0  0  0  0  0  0  0  0  0  0
   -1.8084   -1.3959   -0.2845 H   0  0  0  0  0  0  0  0  0  0  0  0
   -4.1863   -0.7653   -0.1355 H   0  0  0  0  0  0  0  0  0  0  0  0
   -3.6695   -0.2579    1.5902 H   0  0  0  0  0  0  0  0  0  0  0  0
   -4.1818    1.6043   -0.3331 H   0  0  0  0  0  0  0  0  0  0  0  0
   -1.5470    1.3775   -1.1232 H   0  0  0  0  0  0  0  0  0  0  0  0
   -2.9028    0.2548   -1.7553 H   0  0  0  0  0  0  0  0  0  0  0  0
  1  2  2  0
  2  3  1  0
  3  4  1  0
  4  5  1  0
  5  6  1  0
  6  7  1  0
  2  8  1  0
  8  9  1  0
  8 10  1  0
 10 11  1  0
 11 12  1  0
 12 13  1  0
 13 10  1  0
  3 14  1  0
  5 15  1  0
  5 16  1  0
  6 17  1  0
  6 18  1  0
  7 19  1  0
  8 20  1  1
 10 21  1  0
 11 22  1  0
 11 23  1  0
 12 24  1  0
 13 25  1  0
 13 26  1  0
M  END
$$$$

     RDKit          3D

 26 26  0  0  0  0  0  0  0  0999 V2000
   -0.5217   -1.3068    1.2633 O   0  0  0  0  0  0  0  0  0  0  0  0
   -0.2951   -0.9530    0.1124 C   0  0  0  0  0  0  0  0  0  0  0  0
    0.9758   -0.6992   -0.4721 N   0  0  0  0  0  0  0  0  0  0  0  0
    2.0605   -0.5869    0.2994 O   0  0  0  0  0  0  0  0  0  0  0  0
    3.2801   -0.7602   -0.3345 C   0  0  0  0  0  0  0  0  0  0  0  0
    4.0760    0.5133   -0.0674 C   0  0  0  0  0  0  0  0  0  0  0  0
    4.2394    0.7749    1.2579 O   0  0  0  0  0  0  0  0  0  0  0  0
   -1.4432   -0.6623   -0.8687 C   0  0  2  0  0  0  0  0  0  0  0  0
   -1.1933    0.4682   -1.5782 F   0  0  0  0  0  0  0  0  0  0  0  0
   -2.6957   -0.5541    0.0158 C   0  0  0  0  0  0  0  0  0  0  0  0
   -2.5113    0.2273    1.2756 C   0  0  0  0  0  0  0  0  0  0  0  0
   -3.5058    1.1774    0.8684 N   0  0  0  0  0  0  0  0  0  0  0  0
   -3.4195    0.7606   -0.5295 C   0  0  0  0  0  0  0  0  0  0  0  0
    1.0956   -0.6884   -1.5605 H   0  0  0  0  0  0  0  0  0  0  0  0
    3.2816   -1.0812   -1.3768 H   0  0  0  0  0  0  0  0  0  0  0  0
    3.8310   -1.5443    0.2934 H   0  0  0  0  0  0  0  0  0  0  0  0
    5.0025    0.4408   -0.6298 H   0  0  0  0  0  0  0  0  0  0  0  0
    3.4833    1.3598   -0.5595 H   0  0  0  0  0  0  0  0  0  0  0  0
    3.9630    1.7470    1.4788 H   0  0  0  0  0  0  0  0  0  0  0  0
   -1.4774   -1.5322   -1.5148 H   0  0  0  0  0  0  0  0  0  0  0  0
   -3.3682   -1.3871   -0.0207 H   0  0  0  0  0  0  0  0  0  0  0  0
   -1.5237    0.6260    1.4989 H   0  0  0  0  0  0  0  0  0  0  0  0
   -2.9300   -0.4100    2.1373 H   0  0  0  0  0  0  0  0  0  0  0  0
   -3.2991    2.1683    1.0695 H   0  0  0  0  0  0  0  0  0  0  0  0
   -2.7037    1.3633   -1.1294 H   0  0  0  0  0  0  0  0  0  0  0  0
   -4.4010    0.5386   -0.9287 H   0  0  0  0  0  0  0  0  0  0  0  0
  1  2  2  0
  2  3  1  0
  3  4  1  0
  4  5  1  0
  5  6  1  0
  6  7  1  0
  2  8  1  0
  8  9  1  0
  8 10  1  0
 10 11  1  0
 11 12  1  0
 12 13  1  0
 13 10  1  0
  3 14  1  0
  5 15  1  0
  5 16  1  0
  6 17  1  0
  6 18  1  0
  7 19  1  0
  8 20  1  6
 10 21  1  0
 11 22  1  0
 11 23  1  0
 12 24  1  0
 13 25  1  0
 13 26  1  0
M  END
$$$$

     RDKit          3D

 26 26  0  0  0  0  0  0  0  0999 V2000
    0.1629   -0.6747   -2.2857 O   0  0  0  0  0  0  0  0  0  0  0  0
   -0.0057    0.1893   -1.3711 C   0  0  0  0  0  0  0  0  0  0  0  0
    1.0925    0.6131   -0.5852 N   0  0  0  0  0  0  0  0  0  0  0  0
    2.3031    0.1022   -0.8199 O   0  0  0  0  0  0  0  0  0  0  0  0
    2.6839   -0.7004    0.2321 C   0  0  0  0  0  0  0  0  0  0  0  0
    4.0851   -1.2218   -0.1309 C   0  0  0  0  0  0  0  0  0  0  0  0
    4.8946   -0.0751   -0.2695 O   0  0  0  0  0  0  0  0  0  0  0  0
   -1.3306    0.7886   -1.0842 C   0  0  2  0  0  0  0  0  0  0  0  0
   -1.3104    2.1628   -1.2558 F   0  0  0  0  0  0  0  0  0  0  0  0
   -1.8046    0.4732    0.2899 C   0  0  0  0  0  0  0  0  0  0  0  0
   -3.1739    1.1363    0.5113 C   0  0  0  0  0  0  0  0  0  0  0  0
   -3.6962    0.0890   -0.3471 N   0  0  0  0  0  0  0  0  0  0  0  0
   -2.6941   -0.7806    0.2932 C   0  0  0  0  0  0  0  0  0  0  0  0
    0.9318    1.3299    0.1775 H   0  0  0  0  0  0  0  0  0  0  0  0
    2.7665   -0.1985    1.2067 H   0  0  0  0  0  0  0  0  0  0  0  0
    2.0201   -1.6031    0.3155 H   0  0  0  0  0  0  0  0  0  0  0  0
    4.0115   -1.7168   -1.1271 H   0  0  0  0  0  0  0  0  0  0  0  0
    4.4906   -1.8982    0.6281 H   0  0  0  0  0  0  0  0  0  0  0  0
    4.3063    0.6252   -0.6579 H   0  0  0  0  0  0  0  0  0  0  0  0
   -2.0505    0.3238   -1.8097 H   0  0  0  0  0  0  0  0  0  0  0  0
   -1.1114    0.5271    1.1290 H   0  0  0  0  0  0  0  0  0  0  0  0
   -3.1571    2.1533    0.0558 H   0  0  0  0  0  0  0  0  0  0  0  0
   -3.5229    1.1222    1.5522 H   0  0  0  0  0  0  0  0  0  0  0  0
   -4.6725   -0.1780   -0.1873 H   0  0  0  0  0  0  0  0  0  0  0  0
   -2.2728   -1.5564   -0.3413 H   0  0  0  0  0  0  0  0  0  0  0  0
   -2.9464   -1.0324    1.3394 H   0  0  0  0  0  0  0  0  0  0  0  0
  1  2  2  0
  2  3  1  0
  3  4  1  0
  4  5  1  0
  5  6  1  0
  6  7  1  0
  2  8  1  0
  8  9  1  0
  8 10  1  0
 10 11  1  0
 11 12  1  0
 12 13  1  0
 13 10  1  0
  3 14  1  0
  5 15  1  0
  5 16  1  0
  6 17  1  0
  6 18  1  0
  7 19  1  0
  8 20  1  6
 10 21  1  0
 11 22  1  0
 11 23  1  0
 12 24  1  0
 13 25  1  0
 13 26  1  0
M  END
$$$$
