
     RDKit          3D

 21 21  0  0  0  0  0  0  0  0999 V2000
   -3.2341    1.5962    0.3908 N   0  0  0  0  0  0  0  0  0  0  0  0
   -2.4859    0.5868    0.8181 O   0  0  0  0  0  0  0  0  0  0  0  0
   -2.8616   -0.5557    0.0687 C   0  0  0  0  0  0  0  0  0  0  0  0
   -1.5769   -0.9663   -0.5933 C   0  0  0  0  0  0  0  0  0  0  0  0
   -1.7072   -1.5381   -1.7376 O   0  0  0  0  0  0  0  0  0  0  0  0
   -0.3466   -0.7427   -0.0473 N   0  0  0  0  0  0  0  0  0  0  0  0
    0.8378   -1.1017   -0.8776 C   0  0  0  0  0  0  0  0  0  0  0  0
    2.0107   -0.6676   -0.1137 C   0  0  0  0  0  0  0  0  0  0  0  0
    2.5522   -1.1452    0.9904 N   0  0  0  0  0  0  0  0  0  0  0  0
    3.5923   -0.3487    1.3098 N   0  0  0  0  0  0  0  0  0  0  0  0
    3.6844    0.5846    0.4083 C   0  0  0  0  0  0  0  0  0  0  0  0
    4.6500    1.6265    0.3773 O   0  0  0  0  0  0  0  0  0  0  0  0
    2.7440    0.4507   -0.4969 O   0  0  0  0  0  0  0  0  0  0  0  0
   -4.0733    1.9156    0.7211 H   0  0  0  0  0  0  0  0  0  0  0  0
   -2.5067    2.3706    0.1141 H   0  0  0  0  0  0  0  0  0  0  0  0
   -3.6867   -0.3944   -0.5341 H   0  0  0  0  0  0  0  0  0  0  0  0
   -3.1308   -1.4010    0.8180 H   0  0  0  0  0  0  0  0  0  0  0  0
   -0.1604   -0.3750    0.9313 H   0  0  0  0  0  0  0  0  0  0  0  0
    0.7960   -2.1072   -1.2213 H   0  0  0  0  0  0  0  0  0  0  0  0
    0.7046   -0.3622   -1.7505 H   0  0  0  0  0  0  0  0  0  0  0  0
    4.1984    2.5750    0.4245 H   0  0  0  0  0  0  0  0  0  0  0  0
  1  2  1  0
  2  3  1  0
  3  4  1  0
  4  5  2  0
  4  6  1  0
  6  7  1  0
  7  8  1  0
  8  9  2  0
  9 10  1  0
 10 11  2  0
 11 12  1  0
 11 13  1  0
 13  8  1  0
  1 14  1  0
  1 15  1  0
  3 16  1  0
  3 17  1  0
  6 18  1  0
  7 19  1  0
  7 20  1  0
 12 21  1  0
M  END
$$$$

     RDKit          3D

 21 21  0  0  0  0  0  0  0  0999 V2000
   -4.1845    0.6345    0.8673 N   0  0  0  0  0  0  0  0  0  0  0  0
   -2.8645    0.4062    0.6050 O   0  0  0  0  0  0  0  0  0  0  0  0
   -2.7945   -0.7570   -0.1313 C   0  0  0  0  0  0  0  0  0  0  0  0
   -1.4099   -1.1075   -0.4760 C   0  0  0  0  0  0  0  0  0  0  0  0
   -1.2424   -2.1734   -1.1601 O   0  0  0  0  0  0  0  0  0  0  0  0
   -0.2784   -0.3352   -0.0933 N   0  0  0  0  0  0  0  0  0  0  0  0
    1.0158   -0.7855   -0.4925 C   0  0  0  0  0  0  0  0  0  0  0  0
    2.0769    0.1607    0.0059 C   0  0  0  0  0  0  0  0  0  0  0  0
    1.8568    1.2673    0.7205 N   0  0  0  0  0  0  0  0  0  0  0  0
    3.0288    1.8543    0.9835 N   0  0  0  0  0  0  0  0  0  0  0  0
    3.9725    1.0776    0.4107 C   0  0  0  0  0  0  0  0  0  0  0  0
    5.3526    1.3443    0.4537 O   0  0  0  0  0  0  0  0  0  0  0  0
    3.3660    0.0742   -0.1646 O   0  0  0  0  0  0  0  0  0  0  0  0
   -4.3611    1.5518    1.2822 H   0  0  0  0  0  0  0  0  0  0  0  0
   -4.5353   -0.1797    1.3857 H   0  0  0  0  0  0  0  0  0  0  0  0
   -3.3572   -0.6499   -1.0991 H   0  0  0  0  0  0  0  0  0  0  0  0
   -3.2465   -1.6203    0.3969 H   0  0  0  0  0  0  0  0  0  0  0  0
   -0.4688    0.5266    0.4648 H   0  0  0  0  0  0  0  0  0  0  0  0
    1.2033   -1.7669   -0.0074 H   0  0  0  0  0  0  0  0  0  0  0  0
    1.0542   -0.8223   -1.5928 H   0  0  0  0  0  0  0  0  0  0  0  0
    5.8164    1.3002   -0.4584 H   0  0  0  0  0  0  0  0  0  0  0  0
  1  2  1  0
  2  3  1  0
  3  4  1  0
  4  5  2  0
  4  6  1  0
  6  7  1  0
  7  8  1  0
  8  9  2  0
  9 10  1  0
 10 11  2  0
 11 12  1  0
 11 13  1  0
 13  8  1  0
  1 14  1  0
  1 15  1  0
  3 16  1  0
  3 17  1  0
  6 18  1  0
  7 19  1  0
  7 20  1  0
 12 21  1  0
M  END
$$$$

     RDKit          3D

 21 21  0  0  0  0  0  0  0  0999 V2000
    4.0520   -0.8595   -0.4390 N   0  0  0  0  0  0  0  0  0  0  0  0
    2.8302   -0.6259    0.0916 O   0  0  0  0  0  0  0  0  0  0  0  0
    2.3288    0.6153   -0.2689 C   0  0  0  0  0  0  0  0  0  0  0  0
    0.9917    0.7637    0.3659 C   0  0  0  0  0  0  0  0  0  0  0  0
    0.2937    1.8157    0.2053 O   0  0  0  0  0  0  0  0  0  0  0  0
    0.4249   -0.2559    1.1815 N   0  0  0  0  0  0  0  0  0  0  0  0
   -0.8652   -0.0873    1.7811 C   0  0  0  0  0  0  0  0  0  0  0  0
   -1.9511    0.1186    0.7849 C   0  0  0  0  0  0  0  0  0  0  0  0
   -2.3539    1.3169    0.3114 N   0  0  0  0  0  0  0  0  0  0  0  0
   -3.3310    1.1047   -0.5480 N   0  0  0  0  0  0  0  0  0  0  0  0
   -3.5555   -0.2026   -0.6288 C   0  0  0  0  0  0  0  0  0  0  0  0
   -4.5111   -0.8121   -1.4321 O   0  0  0  0  0  0  0  0  0  0  0  0
   -2.6932   -0.7631    0.1991 O   0  0  0  0  0  0  0  0  0  0  0  0
    4.6009   -1.5424    0.1320 H   0  0  0  0  0  0  0  0  0  0  0  0
    4.5763    0.0472   -0.5374 H   0  0  0  0  0  0  0  0  0  0  0  0
    2.2713    0.7336   -1.3827 H   0  0  0  0  0  0  0  0  0  0  0  0
    3.0053    1.3818    0.1547 H   0  0  0  0  0  0  0  0  0  0  0  0
    1.0173   -1.1241    1.3053 H   0  0  0  0  0  0  0  0  0  0  0  0
   -0.8646    0.7578    2.5028 H   0  0  0  0  0  0  0  0  0  0  0  0
   -1.0575   -1.0024    2.4117 H   0  0  0  0  0  0  0  0  0  0  0  0
   -5.2095   -1.3799   -0.9613 H   0  0  0  0  0  0  0  0  0  0  0  0
  1  2  1  0
  2  3  1  0
  3  4  1  0
  4  5  2  0
  4  6  1  0
  6  7  1  0
  7  8  1  0
  8  9  2  0
  9 10  1  0
 10 11  2  0
 11 12  1  0
 11 13  1  0
 13  8  1  0
  1 14  1  0
  1 15  1  0
  3 16  1  0
  3 17  1  0
  6 18  1  0
  7 19  1  0
  7 20  1  0
 12 21  1  0
M  END
$$$$

     RDKit          3D

 21 21  0  0  0  0  0  0  0  0999 V2000
    4.3876    1.0486   -0.1719 N   0  0  0  0  0  0  0  0  0  0  0  0
    3.1358    0.8075   -0.5514 O   0  0  0  0  0  0  0  0  0  0  0  0
    2.4843   -0.1156    0.2287 C   0  0  0  0  0  0  0  0  0  0  0  0
    1.0967   -0.3396   -0.2449 C   0  0  0  0  0  0  0  0  0  0  0  0
    0.7012    0.3006   -1.2427 O   0  0  0  0  0  0  0  0  0  0  0  0
    0.2476   -1.2633    0.4293 N   0  0  0  0  0  0  0  0  0  0  0  0
   -1.0928   -1.5113    0.0106 C   0  0  0  0  0  0  0  0  0  0  0  0
   -1.9570   -0.3172    0.0307 C   0  0  0  0  0  0  0  0  0  0  0  0
   -1.6743    0.9514    0.3796 N   0  0  0  0  0  0  0  0  0  0  0  0
   -2.7417    1.7110    0.2512 N   0  0  0  0  0  0  0  0  0  0  0  0
   -3.7210    0.9035   -0.1888 C   0  0  0  0  0  0  0  0  0  0  0  0
   -5.0477    1.2236   -0.4821 O   0  0  0  0  0  0  0  0  0  0  0  0
   -3.2228   -0.2898   -0.3086 O   0  0  0  0  0  0  0  0  0  0  0  0
    4.5795    2.0425    0.0798 H   0  0  0  0  0  0  0  0  0  0  0  0
    5.0337    0.7442   -0.9167 H   0  0  0  0  0  0  0  0  0  0  0  0
    2.4885    0.1558    1.3048 H   0  0  0  0  0  0  0  0  0  0  0  0
    3.0583   -1.0811    0.1700 H   0  0  0  0  0  0  0  0  0  0  0  0
    0.6638   -1.7518    1.2524 H   0  0  0  0  0  0  0  0  0  0  0  0
   -1.1577   -1.9777   -1.0040 H   0  0  0  0  0  0  0  0  0  0  0  0
   -1.5448   -2.2598    0.6979 H   0  0  0  0  0  0  0  0  0  0  0  0
   -5.7173    1.0801    0.2761 H   0  0  0  0  0  0  0  0  0  0  0  0
  1  2  1  0
  2  3  1  0
  3  4  1  0
  4  5  2  0
  4  6  1  0
  6  7  1  0
  7  8  1  0
  8  9  2  0
  9 10  1  0
 10 11  2  0
 11 12  1  0
 11 13  1  0
 13  8  1  0
  1 14  1  0
  1 15  1  0
  3 16  1  0
  3 17  1  0
  6 18  1  0
  7 19  1  0
  7 20  1  0
 12 21  1  0
M  END
$$$$

     RDKit          3D

 21 21  0  0  0  0  0  0  0  0999 V2000
   -3.8151   -0.2765   -0.7433 N   0  0  0  0  0  0  0  0  0  0  0  0
   -2.6823   -0.8796   -1.0916 O   0  0  0  0  0  0  0  0  0  0  0  0
   -1.9068   -0.0083   -1.9240 C   0  0  0  0  0  0  0  0  0  0  0  0
   -0.7552    0.4275   -1.0403 C   0  0  0  0  0  0  0  0  0  0  0  0
    0.0788    1.2303   -1.4385 O   0  0  0  0  0  0  0  0  0  0  0  0
   -0.7760   -0.1413    0.2585 N   0  0  0  0  0  0  0  0  0  0  0  0
    0.1312    0.2235    1.2769 C   0  0  0  0  0  0  0  0  0  0  0  0
    1.5205   -0.1618    1.0168 C   0  0  0  0  0  0  0  0  0  0  0  0
    2.0097   -1.2540    0.3751 N   0  0  0  0  0  0  0  0  0  0  0  0
    3.3341   -1.1085    0.4184 N   0  0  0  0  0  0  0  0  0  0  0  0
    3.6505    0.0304    1.0669 C   0  0  0  0  0  0  0  0  0  0  0  0
    4.9329    0.5575    1.3393 O   0  0  0  0  0  0  0  0  0  0  0  0
    2.5350    0.5530    1.4067 O   0  0  0  0  0  0  0  0  0  0  0  0
   -3.7633   -0.0521    0.3286 H   0  0  0  0  0  0  0  0  0  0  0  0
   -4.6411   -0.7575   -0.9381 H   0  0  0  0  0  0  0  0  0  0  0  0
   -1.4278   -0.6425   -2.6838 H   0  0  0  0  0  0  0  0  0  0  0  0
   -2.4287    0.8092   -2.3249 H   0  0  0  0  0  0  0  0  0  0  0  0
   -1.4829   -0.9146    0.4413 H   0  0  0  0  0  0  0  0  0  0  0  0
   -0.2155   -0.0986    2.2928 H   0  0  0  0  0  0  0  0  0  0  0  0
    0.0745    1.3875    1.3255 H   0  0  0  0  0  0  0  0  0  0  0  0
    5.6275    0.7365    0.6377 H   0  0  0  0  0  0  0  0  0  0  0  0
  1  2  1  0
  2  3  1  0
  3  4  1  0
  4  5  2  0
  4  6  1  0
  6  7  1  0
  7  8  1  0
  8  9  2  0
  9 10  1  0
 10 11  2  0
 11 12  1  0
 11 13  1  0
 13  8  1  0
  1 14  1  0
  1 15  1  0
  3 16  1  0
  3 17  1  0
  6 18  1  0
  7 19  1  0
  7 20  1  0
 12 21  1  0
M  END
$$$$

     RDKit          3D

 21 21  0  0  0  0  0  0  0  0999 V2000
    3.9719    1.2323    0.1494 N   0  0  0  0  0  0  0  0  0  0  0  0
    2.7357    0.9285   -0.3114 O   0  0  0  0  0  0  0  0  0  0  0  0
    2.2605   -0.1376    0.4331 C   0  0  0  0  0  0  0  0  0  0  0  0
    0.9067   -0.4924   -0.0499 C   0  0  0  0  0  0  0  0  0  0  0  0
    0.3653    0.1385   -0.9934 O   0  0  0  0  0  0  0  0  0  0  0  0
    0.1812   -1.5700    0.5526 N   0  0  0  0  0  0  0  0  0  0  0  0
   -1.1439   -1.8763    0.0400 C   0  0  0  0  0  0  0  0  0  0  0  0
   -2.0658   -0.7169    0.1722 C   0  0  0  0  0  0  0  0  0  0  0  0
   -2.8574   -0.4591    1.2402 N   0  0  0  0  0  0  0  0  0  0  0  0
   -3.5273    0.6405    1.0036 N   0  0  0  0  0  0  0  0  0  0  0  0
   -3.1735    1.0995   -0.2166 C   0  0  0  0  0  0  0  0  0  0  0  0
   -3.6841    2.2408   -0.7891 O   0  0  0  0  0  0  0  0  0  0  0  0
   -2.2846    0.2397   -0.6780 O   0  0  0  0  0  0  0  0  0  0  0  0
    4.4435    1.9025   -0.5052 H   0  0  0  0  0  0  0  0  0  0  0  0
    3.9626    1.5540    1.1347 H   0  0  0  0  0  0  0  0  0  0  0  0
    2.9101   -1.0264    0.3736 H   0  0  0  0  0  0  0  0  0  0  0  0
    2.1992    0.2065    1.4881 H   0  0  0  0  0  0  0  0  0  0  0  0
    0.6017   -2.1274    1.3507 H   0  0  0  0  0  0  0  0  0  0  0  0
   -1.0240   -2.1869   -1.0298 H   0  0  0  0  0  0  0  0  0  0  0  0
   -1.5474   -2.7287    0.6013 H   0  0  0  0  0  0  0  0  0  0  0  0
   -3.2304    3.1389   -0.8128 H   0  0  0  0  0  0  0  0  0  0  0  0
  1  2  1  0
  2  3  1  0
  3  4  1  0
  4  5  2  0
  4  6  1  0
  6  7  1  0
  7  8  1  0
  8  9  2  0
  9 10  1  0
 10 11  2  0
 11 12  1  0
 11 13  1  0
 13  8  1  0
  1 14  1  0
  1 15  1  0
  3 16  1  0
  3 17  1  0
  6 18  1  0
  7 19  1  0
  7 20  1  0
 12 21  1  0
M  END
$$$$

     RDKit          3D

 21 21  0  0  0  0  0  0  0  0999 V2000
    3.8776   -0.4552    1.5645 N   0  0  0  0  0  0  0  0  0  0  0  0
    2.7843   -0.5880    0.7781 O   0  0  0  0  0  0  0  0  0  0  0  0
    2.1687    0.6613    0.6385 C   0  0  0  0  0  0  0  0  0  0  0  0
    0.9646    0.5223   -0.2260 C   0  0  0  0  0  0  0  0  0  0  0  0
    0.2841    1.5621   -0.4585 O   0  0  0  0  0  0  0  0  0  0  0  0
    0.6104   -0.7370   -0.7592 N   0  0  0  0  0  0  0  0  0  0  0  0
   -0.5570   -0.8562   -1.5937 C   0  0  0  0  0  0  0  0  0  0  0  0
   -1.7839   -0.4420   -0.8561 C   0  0  0  0  0  0  0  0  0  0  0  0
   -2.2613    0.8150   -0.8319 N   0  0  0  0  0  0  0  0  0  0  0  0
   -3.3541    0.8794   -0.1018 N   0  0  0  0  0  0  0  0  0  0  0  0
   -3.5663   -0.3786    0.3448 C   0  0  0  0  0  0  0  0  0  0  0  0
   -4.6273   -0.7687    1.1622 O   0  0  0  0  0  0  0  0  0  0  0  0
   -2.5997   -1.1509   -0.1294 O   0  0  0  0  0  0  0  0  0  0  0  0
    4.7011   -0.9477    1.1041 H   0  0  0  0  0  0  0  0  0  0  0  0
    4.1484    0.5528    1.5730 H   0  0  0  0  0  0  0  0  0  0  0  0
    2.8702    1.4216    0.2360 H   0  0  0  0  0  0  0  0  0  0  0  0
    1.8737    0.9618    1.6803 H   0  0  0  0  0  0  0  0  0  0  0  0
    1.1782   -1.5775   -0.5590 H   0  0  0  0  0  0  0  0  0  0  0  0
   -0.6641   -1.8806   -2.0148 H   0  0  0  0  0  0  0  0  0  0  0  0
   -0.4708   -0.1889   -2.5022 H   0  0  0  0  0  0  0  0  0  0  0  0
   -5.5769   -0.4332    0.9509 H   0  0  0  0  0  0  0  0  0  0  0  0
  1  2  1  0
  2  3  1  0
  3  4  1  0
  4  5  2  0
  4  6  1  0
  6  7  1  0
  7  8  1  0
  8  9  2  0
  9 10  1  0
 10 11  2  0
 11 12  1  0
 11 13  1  0
 13  8  1  0
  1 14  1  0
  1 15  1  0
  3 16  1  0
  3 17  1  0
  6 18  1  0
  7 19  1  0
  7 20  1  0
 12 21  1  0
M  END
$$$$

     RDKit          3D

 21 21  0  0  0  0  0  0  0  0999 V2000
    3.4498    1.4151    1.2096 N   0  0  0  0  0  0  0  0  0  0  0  0
    2.3086    0.8044    0.8140 O   0  0  0  0  0  0  0  0  0  0  0  0
    2.6504   -0.4576    0.3497 C   0  0  0  0  0  0  0  0  0  0  0  0
    1.4614   -1.2193   -0.1130 C   0  0  0  0  0  0  0  0  0  0  0  0
    1.6407   -2.3783   -0.5572 O   0  0  0  0  0  0  0  0  0  0  0  0
    0.1488   -0.7079   -0.0784 N   0  0  0  0  0  0  0  0  0  0  0  0
   -1.0089   -1.4604   -0.5333 C   0  0  0  0  0  0  0  0  0  0  0  0
   -2.2215   -0.5918   -0.3413 C   0  0  0  0  0  0  0  0  0  0  0  0
   -3.4848   -0.9138   -0.6365 N   0  0  0  0  0  0  0  0  0  0  0  0
   -4.2533    0.1118   -0.3231 N   0  0  0  0  0  0  0  0  0  0  0  0
   -3.4770    1.0985    0.1766 C   0  0  0  0  0  0  0  0  0  0  0  0
   -3.8978    2.3481    0.6259 O   0  0  0  0  0  0  0  0  0  0  0  0
   -2.2544    0.6244    0.1452 O   0  0  0  0  0  0  0  0  0  0  0  0
    4.2674    0.9718    0.7338 H   0  0  0  0  0  0  0  0  0  0  0  0
    3.4031    2.4005    0.8099 H   0  0  0  0  0  0  0  0  0  0  0  0
    3.2309   -1.0527    1.0787 H   0  0  0  0  0  0  0  0  0  0  0  0
    3.3328   -0.3175   -0.5306 H   0  0  0  0  0  0  0  0  0  0  0  0
    0.0480    0.2786    0.3065 H   0  0  0  0  0  0  0  0  0  0  0  0
   -0.9593   -1.6868   -1.6171 H   0  0  0  0  0  0  0  0  0  0  0  0
   -1.1124   -2.4145    0.0253 H   0  0  0  0  0  0  0  0  0  0  0  0
   -3.2725    3.1474    0.5985 H   0  0  0  0  0  0  0  0  0  0  0  0
  1  2  1  0
  2  3  1  0
  3  4  1  0
  4  5  2  0
  4  6  1  0
  6  7  1  0
  7  8  1  0
  8  9  2  0
  9 10  1  0
 10 11  2  0
 11 12  1  0
 11 13  1  0
 13  8  1  0
  1 14  1  0
  1 15  1  0
  3 16  1  0
  3 17  1  0
  6 18  1  0
  7 19  1  0
  7 20  1  0
 12 21  1  0
M  END
$$$$
