
     RDKit          3D

 29 29  0  0  0  0  0  0  0  0999 V2000
    3.9773    1.4095    0.3278 C   0  0  0  0  0  0  0  0  0  0  0  0
    2.9570    0.5587    0.8241 O   0  0  0  0  0  0  0  0  0  0  0  0
    2.2991   -0.3679    0.0386 C   0  0  0  0  0  0  0  0  0  0  0  0
    2.6292   -0.4496   -1.1663 O   0  0  0  0  0  0  0  0  0  0  0  0
    1.2547   -1.2292    0.5755 C   0  0  2  0  0  0  0  0  0  0  0  0
    0.7324   -2.1093   -0.4703 N   0  0  0  0  0  0  0  0  0  0  0  0
    0.1061   -0.4804    1.2056 C   0  0  0  0  0  0  0  0  0  0  0  0
   -0.5876    0.4345    0.2273 C   0  0  2  0  0  0  0  0  0  0  0  0
   -1.7106    1.1359    0.9331 C   0  0  0  0  0  0  0  0  0  0  0  0
   -2.8721    1.3468    0.1453 N   0  0  0  0  0  0  0  0  0  0  0  0
   -3.2896    0.2409   -0.6559 C   0  0  0  0  0  0  0  0  0  0  0  0
   -2.1778   -0.7088   -1.0118 C   0  0  0  0  0  0  0  0  0  0  0  0
   -0.9299   -0.1657   -0.9455 O   0  0  0  0  0  0  0  0  0  0  0  0
    4.7950    1.3973    1.0918 H   0  0  0  0  0  0  0  0  0  0  0  0
    3.6205    2.4479    0.2124 H   0  0  0  0  0  0  0  0  0  0  0  0
    4.3987    1.0205   -0.6410 H   0  0  0  0  0  0  0  0  0  0  0  0
    1.7102   -1.9017    1.3307 H   0  0  0  0  0  0  0  0  0  0  0  0
    1.3989   -2.2393   -1.2490 H   0  0  0  0  0  0  0  0  0  0  0  0
    0.4143   -3.0070   -0.0435 H   0  0  0  0  0  0  0  0  0  0  0  0
   -0.5676   -1.2205    1.6594 H   0  0  0  0  0  0  0  0  0  0  0  0
    0.5309    0.1164    2.0387 H   0  0  0  0  0  0  0  0  0  0  0  0
    0.1690    1.2348   -0.0313 H   0  0  0  0  0  0  0  0  0  0  0  0
   -2.0120    0.5232    1.8336 H   0  0  0  0  0  0  0  0  0  0  0  0
   -1.3938    2.1163    1.3517 H   0  0  0  0  0  0  0  0  0  0  0  0
   -2.9523    2.2749   -0.3044 H   0  0  0  0  0  0  0  0  0  0  0  0
   -3.8200    0.6455   -1.5441 H   0  0  0  0  0  0  0  0  0  0  0  0
   -4.0561   -0.3383   -0.0838 H   0  0  0  0  0  0  0  0  0  0  0  0
   -2.2739   -1.6894   -0.4621 H   0  0  0  0  0  0  0  0  0  0  0  0
   -2.3498   -0.9961   -2.0917 H   0  0  0  0  0  0  0  0  0  0  0  0
  1  2  1  0
  2  3  1  0
  3  4  2  0
  3  5  1  0
  5  6  1  0
  5  7  1  0
  7  8  1  0
  8  9  1  0
  9 10  1  0
 10 11  1  0
 11 12  1  0
 12 13  1  0
 13  8  1  0
  1 14  1  0
  1 15  1  0
  1 16  1  0
  5 17  1  1
  6 18  1  0
  6 19  1  0
  7 20  1  0
  7 21  1  0
  8 22  1  6
  9 23  1  0
  9 24  1  0
 10 25  1  0
 11 26  1  0
 11 27  1  0
 12 28  1  0
 12 29  1  0
M  END
$$$$

     RDKit          3D

 29 29  0  0  0  0  0  0  0  0999 V2000
   -3.3657    1.6090    0.7315 C   0  0  0  0  0  0  0  0  0  0  0  0
   -2.8655    0.3037    0.5850 O   0  0  0  0  0  0  0  0  0  0  0  0
   -2.0031    0.0391   -0.4835 C   0  0  0  0  0  0  0  0  0  0  0  0
   -1.7166    0.9869   -1.2639 O   0  0  0  0  0  0  0  0  0  0  0  0
   -1.4298   -1.2877   -0.7229 C   0  0  2  0  0  0  0  0  0  0  0  0
   -1.9233   -2.1803    0.2929 N   0  0  0  0  0  0  0  0  0  0  0  0
    0.0317   -1.3308   -0.9270 C   0  0  0  0  0  0  0  0  0  0  0  0
    0.9041   -0.8497    0.1687 C   0  0  2  0  0  0  0  0  0  0  0  0
    0.7229    0.5921    0.5700 C   0  0  0  0  0  0  0  0  0  0  0  0
    1.7980    0.8835    1.5153 N   0  0  0  0  0  0  0  0  0  0  0  0
    3.0085    1.0010    0.7497 C   0  0  0  0  0  0  0  0  0  0  0  0
    3.0518   -0.1035   -0.2607 C   0  0  0  0  0  0  0  0  0  0  0  0
    2.2420   -1.1800   -0.0034 O   0  0  0  0  0  0  0  0  0  0  0  0
   -3.6859    1.7696    1.7812 H   0  0  0  0  0  0  0  0  0  0  0  0
   -2.5740    2.3455    0.4667 H   0  0  0  0  0  0  0  0  0  0  0  0
   -4.1974    1.7823    0.0346 H   0  0  0  0  0  0  0  0  0  0  0  0
   -1.9026   -1.6544   -1.6846 H   0  0  0  0  0  0  0  0  0  0  0  0
   -1.4191   -3.0806    0.3426 H   0  0  0  0  0  0  0  0  0  0  0  0
   -2.0755   -1.7292    1.2167 H   0  0  0  0  0  0  0  0  0  0  0  0
    0.3857   -2.3315   -1.2546 H   0  0  0  0  0  0  0  0  0  0  0  0
    0.2513   -0.6700   -1.8227 H   0  0  0  0  0  0  0  0  0  0  0  0
    0.5966   -1.4367    1.0895 H   0  0  0  0  0  0  0  0  0  0  0  0
    0.8273    1.2431   -0.3328 H   0  0  0  0  0  0  0  0  0  0  0  0
   -0.2342    0.8237    1.0380 H   0  0  0  0  0  0  0  0  0  0  0  0
    1.5980    1.6834    2.1241 H   0  0  0  0  0  0  0  0  0  0  0  0
    3.8821    0.9920    1.4385 H   0  0  0  0  0  0  0  0  0  0  0  0
    3.0612    1.9779    0.2160 H   0  0  0  0  0  0  0  0  0  0  0  0
    4.1100   -0.4966   -0.2559 H   0  0  0  0  0  0  0  0  0  0  0  0
    2.9214    0.2981   -1.3016 H   0  0  0  0  0  0  0  0  0  0  0  0
  1  2  1  0
  2  3  1  0
  3  4  2  0
  3  5  1  0
  5  6  1  0
  5  7  1  0
  7  8  1  0
  8  9  1  0
  9 10  1  0
 10 11  1  0
 11 12  1  0
 12 13  1  0
 13  8  1  0
  1 14  1  0
  1 15  1  0
  1 16  1  0
  5 17  1  6
  6 18  1  0
  6 19  1  0
  7 20  1  0
  7 21  1  0
  8 22  1  1
  9 23  1  0
  9 24  1  0
 10 25  1  0
 11 26  1  0
 11 27  1  0
 12 28  1  0
 12 29  1  0
M  END
$$$$

     RDKit          3D

 29 29  0  0  0  0  0  0  0  0999 V2000
    4.8395   -0.4483    0.6349 C   0  0  0  0  0  0  0  0  0  0  0  0
    3.5113    0.0103    0.8160 O   0  0  0  0  0  0  0  0  0  0  0  0
    2.6487    0.2161   -0.2446 C   0  0  0  0  0  0  0  0  0  0  0  0
    3.0714   -0.0159   -1.4054 O   0  0  0  0  0  0  0  0  0  0  0  0
    1.2519    0.6953   -0.0937 C   0  0  2  0  0  0  0  0  0  0  0  0
    1.0398    0.8787    1.3494 N   0  0  0  0  0  0  0  0  0  0  0  0
    0.3040   -0.3811   -0.5659 C   0  0  0  0  0  0  0  0  0  0  0  0
   -1.1315    0.0086   -0.4537 C   0  0  2  0  0  0  0  0  0  0  0  0
   -1.5696    0.3244    0.9322 C   0  0  0  0  0  0  0  0  0  0  0  0
   -2.9356    0.1691    1.2190 N   0  0  0  0  0  0  0  0  0  0  0  0
   -3.7901   -0.2954    0.2065 C   0  0  0  0  0  0  0  0  0  0  0  0
   -3.1737   -0.6258   -1.1005 C   0  0  0  0  0  0  0  0  0  0  0  0
   -1.8828   -1.1068   -0.8936 O   0  0  0  0  0  0  0  0  0  0  0  0
    4.8467   -1.5574    0.7911 H   0  0  0  0  0  0  0  0  0  0  0  0
    5.4637    0.0566    1.3951 H   0  0  0  0  0  0  0  0  0  0  0  0
    5.1899   -0.1858   -0.3938 H   0  0  0  0  0  0  0  0  0  0  0  0
    1.0834    1.6566   -0.5779 H   0  0  0  0  0  0  0  0  0  0  0  0
    1.7021    1.6699    1.6103 H   0  0  0  0  0  0  0  0  0  0  0  0
    1.3773    0.0300    1.8503 H   0  0  0  0  0  0  0  0  0  0  0  0
    0.5128   -0.5688   -1.6542 H   0  0  0  0  0  0  0  0  0  0  0  0
    0.4625   -1.3143   -0.0276 H   0  0  0  0  0  0  0  0  0  0  0  0
   -1.3953    0.8737   -1.1058 H   0  0  0  0  0  0  0  0  0  0  0  0
   -0.9838   -0.3396    1.6318 H   0  0  0  0  0  0  0  0  0  0  0  0
   -1.2771    1.3864    1.1771 H   0  0  0  0  0  0  0  0  0  0  0  0
   -3.3448    0.8532    1.8867 H   0  0  0  0  0  0  0  0  0  0  0  0
   -4.6119    0.4542    0.0129 H   0  0  0  0  0  0  0  0  0  0  0  0
   -4.3257   -1.2082    0.5748 H   0  0  0  0  0  0  0  0  0  0  0  0
   -3.7365   -1.4466   -1.5984 H   0  0  0  0  0  0  0  0  0  0  0  0
   -3.1466    0.2110   -1.8196 H   0  0  0  0  0  0  0  0  0  0  0  0
  1  2  1  0
  2  3  1  0
  3  4  2  0
  3  5  1  0
  5  6  1  0
  5  7  1  0
  7  8  1  0
  8  9  1  0
  9 10  1  0
 10 11  1  0
 11 12  1  0
 12 13  1  0
 13  8  1  0
  1 14  1  0
  1 15  1  0
  1 16  1  0
  5 17  1  6
  6 18  1  0
  6 19  1  0
  7 20  1  0
  7 21  1  0
  8 22  1  6
  9 23  1  0
  9 24  1  0
 10 25  1  0
 11 26  1  0
 11 27  1  0
 12 28  1  0
 12 29  1  0
M  END
$$$$

     RDKit          3D

 29 29  0  0  0  0  0  0  0  0999 V2000
   -4.4405    1.2494   -0.6136 C   0  0  0  0  0  0  0  0  0  0  0  0
   -3.0915    0.7943   -0.7081 O   0  0  0  0  0  0  0  0  0  0  0  0
   -2.7105   -0.4057   -0.1350 C   0  0  0  0  0  0  0  0  0  0  0  0
   -3.5781   -1.0761    0.4649 O   0  0  0  0  0  0  0  0  0  0  0  0
   -1.3285   -0.9180   -0.2060 C   0  0  2  0  0  0  0  0  0  0  0  0
   -1.2471   -2.1678    0.4726 N   0  0  0  0  0  0  0  0  0  0  0  0
   -0.4037    0.1378    0.3145 C   0  0  0  0  0  0  0  0  0  0  0  0
    1.0394   -0.2456    0.3021 C   0  0  2  0  0  0  0  0  0  0  0  0
    1.8155    0.9412    0.8610 C   0  0  0  0  0  0  0  0  0  0  0  0
    3.2427    0.7259    0.7853 N   0  0  0  0  0  0  0  0  0  0  0  0
    3.7046    0.3497   -0.5139 C   0  0  0  0  0  0  0  0  0  0  0  0
    2.8218   -0.7099   -1.0861 C   0  0  0  0  0  0  0  0  0  0  0  0
    1.4687   -0.4209   -1.0041 O   0  0  0  0  0  0  0  0  0  0  0  0
   -4.8639    1.3613   -1.6144 H   0  0  0  0  0  0  0  0  0  0  0  0
   -5.0131    0.5279    0.0184 H   0  0  0  0  0  0  0  0  0  0  0  0
   -4.4591    2.2403   -0.1202 H   0  0  0  0  0  0  0  0  0  0  0  0
   -1.1169   -1.1235   -1.2962 H   0  0  0  0  0  0  0  0  0  0  0  0
   -2.1724   -2.6509    0.3770 H   0  0  0  0  0  0  0  0  0  0  0  0
   -1.0746   -2.0934    1.5022 H   0  0  0  0  0  0  0  0  0  0  0  0
   -0.7483    0.4787    1.3122 H   0  0  0  0  0  0  0  0  0  0  0  0
   -0.5129    1.0316   -0.3542 H   0  0  0  0  0  0  0  0  0  0  0  0
    1.2698   -1.1582    0.8638 H   0  0  0  0  0  0  0  0  0  0  0  0
    1.4793    1.8237    0.3020 H   0  0  0  0  0  0  0  0  0  0  0  0
    1.5466    1.0079    1.9338 H   0  0  0  0  0  0  0  0  0  0  0  0
    3.6960    1.6307    1.0453 H   0  0  0  0  0  0  0  0  0  0  0  0
    4.7277   -0.0712   -0.4156 H   0  0  0  0  0  0  0  0  0  0  0  0
    3.8056    1.2368   -1.1933 H   0  0  0  0  0  0  0  0  0  0  0  0
    3.0662   -0.8126   -2.1633 H   0  0  0  0  0  0  0  0  0  0  0  0
    3.0773   -1.6834   -0.6154 H   0  0  0  0  0  0  0  0  0  0  0  0
  1  2  1  0
  2  3  1  0
  3  4  2  0
  3  5  1  0
  5  6  1  0
  5  7  1  0
  7  8  1  0
  8  9  1  0
  9 10  1  0
 10 11  1  0
 11 12  1  0
 12 13  1  0
 13  8  1  0
  1 14  1  0
  1 15  1  0
  1 16  1  0
  5 17  1  6
  6 18  1  0
  6 19  1  0
  7 20  1  0
  7 21  1  0
  8 22  1  1
  9 23  1  0
  9 24  1  0
 10 25  1  0
 11 26  1  0
 11 27  1  0
 12 28  1  0
 12 29  1  0
M  END
$$$$

     RDKit          3D

 29 29  0  0  0  0  0  0  0  0999 V2000
    4.9133    0.2645   -0.2133 C   0  0  0  0  0  0  0  0  0  0  0  0
    3.5868    0.0991   -0.7104 O   0  0  0  0  0  0  0  0  0  0  0  0
    2.6101   -0.2826    0.1639 C   0  0  0  0  0  0  0  0  0  0  0  0
    2.8852   -0.4808    1.3760 O   0  0  0  0  0  0  0  0  0  0  0  0
    1.1760   -0.4929   -0.2235 C   0  0  2  0  0  0  0  0  0  0  0  0
    1.0775   -0.2195   -1.6241 N   0  0  0  0  0  0  0  0  0  0  0  0
    0.3628    0.3988    0.6431 C   0  0  0  0  0  0  0  0  0  0  0  0
   -1.1137    0.3341    0.4073 C   0  0  2  0  0  0  0  0  0  0  0  0
   -1.7097   -1.0189    0.6240 C   0  0  0  0  0  0  0  0  0  0  0  0
   -3.1541   -0.8800    0.5599 N   0  0  0  0  0  0  0  0  0  0  0  0
   -3.5846    0.4513    0.2611 C   0  0  0  0  0  0  0  0  0  0  0  0
   -2.8300    1.1011   -0.8631 C   0  0  0  0  0  0  0  0  0  0  0  0
   -1.4780    0.7755   -0.8586 O   0  0  0  0  0  0  0  0  0  0  0  0
    5.2825    1.2496   -0.5956 H   0  0  0  0  0  0  0  0  0  0  0  0
    4.9103    0.3742    0.9024 H   0  0  0  0  0  0  0  0  0  0  0  0
    5.5889   -0.5320   -0.5273 H   0  0  0  0  0  0  0  0  0  0  0  0
    0.9797   -1.5714   -0.0716 H   0  0  0  0  0  0  0  0  0  0  0  0
    0.1958   -0.4860   -2.0679 H   0  0  0  0  0  0  0  0  0  0  0  0
    1.5059    0.6507   -1.9416 H   0  0  0  0  0  0  0  0  0  0  0  0
    0.5570    0.1365    1.6983 H   0  0  0  0  0  0  0  0  0  0  0  0
    0.6885    1.4409    0.4792 H   0  0  0  0  0  0  0  0  0  0  0  0
   -1.5939    1.0305    1.1337 H   0  0  0  0  0  0  0  0  0  0  0  0
   -1.4345   -1.7469   -0.1757 H   0  0  0  0  0  0  0  0  0  0  0  0
   -1.3973   -1.4913    1.5793 H   0  0  0  0  0  0  0  0  0  0  0  0
   -3.5604   -1.1452    1.4923 H   0  0  0  0  0  0  0  0  0  0  0  0
   -4.6578    0.3756   -0.0825 H   0  0  0  0  0  0  0  0  0  0  0  0
   -3.6349    1.1162    1.1624 H   0  0  0  0  0  0  0  0  0  0  0  0
   -3.2948    0.9364   -1.8515 H   0  0  0  0  0  0  0  0  0  0  0  0
   -2.8766    2.2122   -0.6762 H   0  0  0  0  0  0  0  0  0  0  0  0
  1  2  1  0
  2  3  1  0
  3  4  2  0
  3  5  1  0
  5  6  1  0
  5  7  1  0
  7  8  1  0
  8  9  1  0
  9 10  1  0
 10 11  1  0
 11 12  1  0
 12 13  1  0
 13  8  1  0
  1 14  1  0
  1 15  1  0
  1 16  1  0
  5 17  1  6
  6 18  1  0
  6 19  1  0
  7 20  1  0
  7 21  1  0
  8 22  1  1
  9 23  1  0
  9 24  1  0
 10 25  1  0
 11 26  1  0
 11 27  1  0
 12 28  1  0
 12 29  1  0
M  END
$$$$

     RDKit          3D

 29 29  0  0  0  0  0  0  0  0999 V2000
    4.8712    0.1506   -0.2409 C   0  0  0  0  0  0  0  0  0  0  0  0
    3.5080   -0.1735   -0.2701 O   0  0  0  0  0  0  0  0  0  0  0  0
    2.5526    0.3447    0.5659 C   0  0  0  0  0  0  0  0  0  0  0  0
    2.9072    1.1847    1.4418 O   0  0  0  0  0  0  0  0  0  0  0  0
    1.1433   -0.0882    0.4233 C   0  0  2  0  0  0  0  0  0  0  0  0
    1.0529   -1.0319   -0.6388 N   0  0  0  0  0  0  0  0  0  0  0  0
    0.2738    1.1320    0.2438 C   0  0  0  0  0  0  0  0  0  0  0  0
   -1.1741    0.8320    0.0881 C   0  0  2  0  0  0  0  0  0  0  0  0
   -1.8022    0.1163    1.2326 C   0  0  0  0  0  0  0  0  0  0  0  0
   -2.7287   -0.9301    0.7708 N   0  0  0  0  0  0  0  0  0  0  0  0
   -3.6211   -0.3842   -0.2313 C   0  0  0  0  0  0  0  0  0  0  0  0
   -2.8398    0.2918   -1.3359 C   0  0  0  0  0  0  0  0  0  0  0  0
   -1.4634    0.2020   -1.1418 O   0  0  0  0  0  0  0  0  0  0  0  0
    5.0364    1.2145   -0.4947 H   0  0  0  0  0  0  0  0  0  0  0  0
    5.4103   -0.5182   -0.9427 H   0  0  0  0  0  0  0  0  0  0  0  0
    5.2462   -0.0874    0.7900 H   0  0  0  0  0  0  0  0  0  0  0  0
    0.8608   -0.5229    1.4168 H   0  0  0  0  0  0  0  0  0  0  0  0
    1.6507   -0.8224   -1.4534 H   0  0  0  0  0  0  0  0  0  0  0  0
    0.1435   -1.4586   -0.8171 H   0  0  0  0  0  0  0  0  0  0  0  0
    0.4076    1.7631    1.1330 H   0  0  0  0  0  0  0  0  0  0  0  0
    0.5899    1.7275   -0.6489 H   0  0  0  0  0  0  0  0  0  0  0  0
   -1.6920    1.8334    0.0016 H   0  0  0  0  0  0  0  0  0  0  0  0
   -2.4234    0.8029    1.8636 H   0  0  0  0  0  0  0  0  0  0  0  0
   -1.1091   -0.3815    1.9179 H   0  0  0  0  0  0  0  0  0  0  0  0
   -2.1255   -1.7037    0.3608 H   0  0  0  0  0  0  0  0  0  0  0  0
   -4.1856   -1.2423   -0.6605 H   0  0  0  0  0  0  0  0  0  0  0  0
   -4.3055    0.3135    0.2885 H   0  0  0  0  0  0  0  0  0  0  0  0
   -3.1059    1.3737   -1.3491 H   0  0  0  0  0  0  0  0  0  0  0  0
   -3.0782   -0.1287   -2.3135 H   0  0  0  0  0  0  0  0  0  0  0  0
  1  2  1  0
  2  3  1  0
  3  4  2  0
  3  5  1  0
  5  6  1  0
  5  7  1  0
  7  8  1  0
  8  9  1  0
  9 10  1  0
 10 11  1  0
 11 12  1  0
 12 13  1  0
 13  8  1  0
  1 14  1  0
  1 15  1  0
  1 16  1  0
  5 17  1  1
  6 18  1  0
  6 19  1  0
  7 20  1  0
  7 21  1  0
  8 22  1  6
  9 23  1  0
  9 24  1  0
 10 25  1  0
 11 26  1  0
 11 27  1  0
 12 28  1  0
 12 29  1  0
M  END
$$$$

     RDKit          3D

 29 29  0  0  0  0  0  0  0  0999 V2000
   -4.7748    0.4864   -0.5639 C   0  0  0  0  0  0  0  0  0  0  0  0
   -3.4699    0.6174   -0.0501 O   0  0  0  0  0  0  0  0  0  0  0  0
   -2.6263   -0.4734    0.0549 C   0  0  0  0  0  0  0  0  0  0  0  0
   -3.0900   -1.5812   -0.3329 O   0  0  0  0  0  0  0  0  0  0  0  0
   -1.2818   -0.2784    0.5960 C   0  0  2  0  0  0  0  0  0  0  0  0
   -1.1139    1.1159    0.9284 N   0  0  0  0  0  0  0  0  0  0  0  0
   -0.2243   -0.8326   -0.3101 C   0  0  0  0  0  0  0  0  0  0  0  0
    1.1611   -0.6325    0.2564 C   0  0  2  0  0  0  0  0  0  0  0  0
    1.4756    0.7851    0.4502 C   0  0  0  0  0  0  0  0  0  0  0  0
    2.8425    1.1689    0.2927 N   0  0  0  0  0  0  0  0  0  0  0  0
    3.7855    0.1383    0.1458 C   0  0  0  0  0  0  0  0  0  0  0  0
    3.3283   -1.1210   -0.4745 C   0  0  0  0  0  0  0  0  0  0  0  0
    2.0115   -1.3878   -0.4813 O   0  0  0  0  0  0  0  0  0  0  0  0
   -4.7721    0.3120   -1.6573 H   0  0  0  0  0  0  0  0  0  0  0  0
   -5.2653   -0.3385   -0.0034 H   0  0  0  0  0  0  0  0  0  0  0  0
   -5.3483    1.4285   -0.3228 H   0  0  0  0  0  0  0  0  0  0  0  0
   -1.2349   -0.9184    1.5310 H   0  0  0  0  0  0  0  0  0  0  0  0
   -1.5800    1.6619    0.1574 H   0  0  0  0  0  0  0  0  0  0  0  0
   -1.7144    1.2847    1.7912 H   0  0  0  0  0  0  0  0  0  0  0  0
   -0.3073   -0.3518   -1.3249 H   0  0  0  0  0  0  0  0  0  0  0  0
   -0.4548   -1.8976   -0.4734 H   0  0  0  0  0  0  0  0  0  0  0  0
    1.1226   -1.1114    1.2841 H   0  0  0  0  0  0  0  0  0  0  0  0
    0.8988    1.4274   -0.2585 H   0  0  0  0  0  0  0  0  0  0  0  0
    1.1801    1.1558    1.4687 H   0  0  0  0  0  0  0  0  0  0  0  0
    3.0054    2.0415   -0.2177 H   0  0  0  0  0  0  0  0  0  0  0  0
    4.6395    0.5423   -0.4755 H   0  0  0  0  0  0  0  0  0  0  0  0
    4.2632   -0.0489    1.1531 H   0  0  0  0  0  0  0  0  0  0  0  0
    3.7004   -1.2178   -1.5364 H   0  0  0  0  0  0  0  0  0  0  0  0
    3.8435   -1.9747    0.0560 H   0  0  0  0  0  0  0  0  0  0  0  0
  1  2  1  0
  2  3  1  0
  3  4  2  0
  3  5  1  0
  5  6  1  0
  5  7  1  0
  7  8  1  0
  8  9  1  0
  9 10  1  0
 10 11  1  0
 11 12  1  0
 12 13  1  0
 13  8  1  0
  1 14  1  0
  1 15  1  0
  1 16  1  0
  5 17  1  1
  6 18  1  0
  6 19  1  0
  7 20  1  0
  7 21  1  0
  8 22  1  1
  9 23  1  0
  9 24  1  0
 10 25  1  0
 11 26  1  0
 11 27  1  0
 12 28  1  0
 12 29  1  0
M  END
$$$$

     RDKit          3D

 29 29  0  0  0  0  0  0  0  0999 V2000
    4.0797    1.5313   -0.0761 C   0  0  0  0  0  0  0  0  0  0  0  0
    3.3699    0.3253   -0.0352 O   0  0  0  0  0  0  0  0  0  0  0  0
    2.0428    0.2730    0.3503 C   0  0  0  0  0  0  0  0  0  0  0  0
    1.5199    1.3817    0.6606 O   0  0  0  0  0  0  0  0  0  0  0  0
    1.3296   -1.0208    0.3798 C   0  0  2  0  0  0  0  0  0  0  0  0
    2.2731   -2.0645    0.0027 N   0  0  0  0  0  0  0  0  0  0  0  0
    0.1450   -1.0554   -0.5326 C   0  0  0  0  0  0  0  0  0  0  0  0
   -0.9239   -0.0569   -0.2660 C   0  0  2  0  0  0  0  0  0  0  0  0
   -1.4897   -0.2279    1.1173 C   0  0  0  0  0  0  0  0  0  0  0  0
   -2.6159    0.6100    1.3877 N   0  0  0  0  0  0  0  0  0  0  0  0
   -3.2457    1.1206    0.2016 C   0  0  0  0  0  0  0  0  0  0  0  0
   -3.1662    0.0269   -0.8412 C   0  0  0  0  0  0  0  0  0  0  0  0
   -1.8787   -0.1933   -1.2646 O   0  0  0  0  0  0  0  0  0  0  0  0
    4.7795    1.5219    0.8062 H   0  0  0  0  0  0  0  0  0  0  0  0
    3.4029    2.4126   -0.0289 H   0  0  0  0  0  0  0  0  0  0  0  0
    4.7212    1.5512   -0.9767 H   0  0  0  0  0  0  0  0  0  0  0  0
    1.0742   -1.2166    1.4385 H   0  0  0  0  0  0  0  0  0  0  0  0
    1.8295   -2.8390   -0.5185 H   0  0  0  0  0  0  0  0  0  0  0  0
    3.1410   -1.6986   -0.4080 H   0  0  0  0  0  0  0  0  0  0  0  0
    0.5320   -0.8504   -1.5741 H   0  0  0  0  0  0  0  0  0  0  0  0
   -0.2975   -2.0575   -0.5755 H   0  0  0  0  0  0  0  0  0  0  0  0
   -0.5115    0.9661   -0.3606 H   0  0  0  0  0  0  0  0  0  0  0  0
   -1.7551   -1.2996    1.2839 H   0  0  0  0  0  0  0  0  0  0  0  0
   -0.6750    0.1005    1.8276 H   0  0  0  0  0  0  0  0  0  0  0  0
   -3.2921    0.1420    2.0399 H   0  0  0  0  0  0  0  0  0  0  0  0
   -4.3232    1.2905    0.3991 H   0  0  0  0  0  0  0  0  0  0  0  0
   -2.7045    2.0161   -0.1271 H   0  0  0  0  0  0  0  0  0  0  0  0
   -3.8161    0.2406   -1.7115 H   0  0  0  0  0  0  0  0  0  0  0  0
   -3.5450   -0.9299   -0.3962 H   0  0  0  0  0  0  0  0  0  0  0  0
  1  2  1  0
  2  3  1  0
  3  4  2  0
  3  5  1  0
  5  6  1  0
  5  7  1  0
  7  8  1  0
  8  9  1  0
  9 10  1  0
 10 11  1  0
 11 12  1  0
 12 13  1  0
 13  8  1  0
  1 14  1  0
  1 15  1  0
  1 16  1  0
  5 17  1  1
  6 18  1  0
  6 19  1  0
  7 20  1  0
  7 21  1  0
  8 22  1  1
  9 23  1  0
  9 24  1  0
 10 25  1  0
 11 26  1  0
 11 27  1  0
 12 28  1  0
 12 29  1  0
M  END
$$$$
