
     RDKit          3D

 28 29  0  0  0  0  0  0  0  0999 V2000
    2.9203    0.1065   -1.4793 C   0  0  0  0  0  0  0  0  0  0  0  0
    2.6877   -0.4762   -0.1794 N   0  0  0  0  0  0  0  0  0  0  0  0
    3.5869   -1.1611    0.4942 N   0  0  0  0  0  0  0  0  0  0  0  0
    3.0423   -1.5389    1.6242 N   0  0  0  0  0  0  0  0  0  0  0  0
    1.8111   -1.0901    1.6506 N   0  0  0  0  0  0  0  0  0  0  0  0
    1.5576   -0.4132    0.5221 C   0  0  0  0  0  0  0  0  0  0  0  0
    0.2642    0.2432    0.1903 C   0  0  1  0  0  0  0  0  0  0  0  0
   -0.6745   -0.7978   -0.2844 C   0  0  0  0  0  0  0  0  0  0  0  0
   -2.0194   -0.3859   -0.6718 C   0  0  0  0  0  0  0  0  0  0  0  0
   -2.9178    0.2718    0.3027 C   0  0  0  0  0  0  0  0  0  0  0  0
   -3.5289    0.9077   -0.8077 O   0  0  0  0  0  0  0  0  0  0  0  0
   -2.2210    0.9361   -1.3560 C   0  0  0  0  0  0  0  0  0  0  0  0
   -0.1649    0.9520    1.3604 N   0  0  0  0  0  0  0  0  0  0  0  0
   -0.3504    0.1609    2.4770 N   0  0  0  0  0  0  0  0  0  0  0  0
    2.2744    1.0008   -1.6481 H   0  0  0  0  0  0  0  0  0  0  0  0
    3.9805    0.4471   -1.5123 H   0  0  0  0  0  0  0  0  0  0  0  0
    2.8032   -0.6264   -2.3085 H   0  0  0  0  0  0  0  0  0  0  0  0
    0.5085    1.0100   -0.6024 H   0  0  0  0  0  0  0  0  0  0  0  0
   -0.7258   -1.6026    0.4766 H   0  0  0  0  0  0  0  0  0  0  0  0
   -0.1900   -1.2914   -1.1790 H   0  0  0  0  0  0  0  0  0  0  0  0
   -2.5555   -1.1790   -1.2332 H   0  0  0  0  0  0  0  0  0  0  0  0
   -2.5253    1.0454    0.9581 H   0  0  0  0  0  0  0  0  0  0  0  0
   -3.6012   -0.3939    0.8636 H   0  0  0  0  0  0  0  0  0  0  0  0
   -1.6911    1.7938   -0.9000 H   0  0  0  0  0  0  0  0  0  0  0  0
   -2.2757    0.9170   -2.4560 H   0  0  0  0  0  0  0  0  0  0  0  0
    0.4580    1.7376    1.5812 H   0  0  0  0  0  0  0  0  0  0  0  0
   -0.8725   -0.6984    2.2934 H   0  0  0  0  0  0  0  0  0  0  0  0
    0.4192    0.1250    3.1466 H   0  0  0  0  0  0  0  0  0  0  0  0
  1  2  1  0
  2  3  1  0
  3  4  2  0
  4  5  1  0
  5  6  2  0
  6  7  1  0
  7  8  1  0
  8  9  1  0
  9 10  1  0
 10 11  1  0
 11 12  1  0
  7 13  1  0
 13 14  1  0
  6  2  1  0
 12  9  1  0
  1 15  1  0
  1 16  1  0
  1 17  1  0
  7 18  1  6
  8 19  1  0
  8 20  1  0
  9 21  1  0
 10 22  1  0
 10 23  1  0
 12 24  1  0
 12 25  1  0
 13 26  1  0
 14 27  1  0
 14 28  1  0
M  END
$$$$

     RDKit          3D

 28 29  0  0  0  0  0  0  0  0999 V2000
   -2.4120   -1.9025    0.1420 C   0  0  0  0  0  0  0  0  0  0  0  0
   -1.7786   -1.1943   -0.9380 N   0  0  0  0  0  0  0  0  0  0  0  0
   -1.8536   -1.5692   -2.2004 N   0  0  0  0  0  0  0  0  0  0  0  0
   -1.1727   -0.7207   -2.9449 N   0  0  0  0  0  0  0  0  0  0  0  0
   -0.6417    0.2210   -2.1887 N   0  0  0  0  0  0  0  0  0  0  0  0
   -1.0211   -0.0723   -0.9172 C   0  0  0  0  0  0  0  0  0  0  0  0
   -0.7147    0.6965    0.2756 C   0  0  1  0  0  0  0  0  0  0  0  0
    0.5152    0.2368    0.9717 C   0  0  0  0  0  0  0  0  0  0  0  0
    1.7809    0.2768    0.2108 C   0  0  0  0  0  0  0  0  0  0  0  0
    1.9427   -0.5328   -1.0254 C   0  0  0  0  0  0  0  0  0  0  0  0
    3.2118   -0.9918   -0.5948 O   0  0  0  0  0  0  0  0  0  0  0  0
    2.8544   -0.6746    0.7365 C   0  0  0  0  0  0  0  0  0  0  0  0
   -0.6479    2.1232   -0.0863 N   0  0  0  0  0  0  0  0  0  0  0  0
   -0.3503    2.8681    1.0677 N   0  0  0  0  0  0  0  0  0  0  0  0
   -1.9830   -1.7061    1.1261 H   0  0  0  0  0  0  0  0  0  0  0  0
   -3.4877   -1.5951    0.1586 H   0  0  0  0  0  0  0  0  0  0  0  0
   -2.3762   -2.9807   -0.0748 H   0  0  0  0  0  0  0  0  0  0  0  0
   -1.5712    0.6375    1.0268 H   0  0  0  0  0  0  0  0  0  0  0  0
    0.3663   -0.8376    1.3042 H   0  0  0  0  0  0  0  0  0  0  0  0
    0.6560    0.8591    1.9185 H   0  0  0  0  0  0  0  0  0  0  0  0
    2.2627    1.2867    0.1340 H   0  0  0  0  0  0  0  0  0  0  0  0
    2.0873   -0.0119   -1.9740 H   0  0  0  0  0  0  0  0  0  0  0  0
    1.2359   -1.3996   -1.0720 H   0  0  0  0  0  0  0  0  0  0  0  0
    3.6784   -0.1955    1.2713 H   0  0  0  0  0  0  0  0  0  0  0  0
    2.4430   -1.5304    1.2848 H   0  0  0  0  0  0  0  0  0  0  0  0
   -1.5600    2.4356   -0.4726 H   0  0  0  0  0  0  0  0  0  0  0  0
   -0.7473    2.4270    1.9192 H   0  0  0  0  0  0  0  0  0  0  0  0
   -0.7165    3.8467    0.9416 H   0  0  0  0  0  0  0  0  0  0  0  0
  1  2  1  0
  2  3  1  0
  3  4  2  0
  4  5  1  0
  5  6  2  0
  6  7  1  0
  7  8  1  0
  8  9  1  0
  9 10  1  0
 10 11  1  0
 11 12  1  0
  7 13  1  0
 13 14  1  0
  6  2  1  0
 12  9  1  0
  1 15  1  0
  1 16  1  0
  1 17  1  0
  7 18  1  1
  8 19  1  0
  8 20  1  0
  9 21  1  0
 10 22  1  0
 10 23  1  0
 12 24  1  0
 12 25  1  0
 13 26  1  0
 14 27  1  0
 14 28  1  0
M  END
$$$$

     RDKit          3D

 28 29  0  0  0  0  0  0  0  0999 V2000
    3.2913   -0.3874   -0.3192 C   0  0  0  0  0  0  0  0  0  0  0  0
    2.3723   -0.9720    0.6115 N   0  0  0  0  0  0  0  0  0  0  0  0
    2.6180   -1.9283    1.4832 N   0  0  0  0  0  0  0  0  0  0  0  0
    1.5216   -2.2043    2.1688 N   0  0  0  0  0  0  0  0  0  0  0  0
    0.5876   -1.4100    1.7162 N   0  0  0  0  0  0  0  0  0  0  0  0
    1.0474   -0.6182    0.7479 C   0  0  0  0  0  0  0  0  0  0  0  0
    0.4680    0.4561   -0.0569 C   0  0  1  0  0  0  0  0  0  0  0  0
   -0.9950    0.6099    0.0404 C   0  0  0  0  0  0  0  0  0  0  0  0
   -1.7655   -0.5529   -0.4381 C   0  0  0  0  0  0  0  0  0  0  0  0
   -3.2843   -0.1320   -0.3127 C   0  0  0  0  0  0  0  0  0  0  0  0
   -3.0960   -0.4967    1.0429 O   0  0  0  0  0  0  0  0  0  0  0  0
   -2.3494   -1.5709    0.4813 C   0  0  0  0  0  0  0  0  0  0  0  0
    1.1912    1.7129    0.1412 N   0  0  0  0  0  0  0  0  0  0  0  0
    0.5826    2.6697   -0.6508 N   0  0  0  0  0  0  0  0  0  0  0  0
    4.1168   -1.1024   -0.5508 H   0  0  0  0  0  0  0  0  0  0  0  0
    2.8071   -0.1014   -1.2937 H   0  0  0  0  0  0  0  0  0  0  0  0
    3.7457    0.5726    0.0612 H   0  0  0  0  0  0  0  0  0  0  0  0
    0.6938    0.2442   -1.1751 H   0  0  0  0  0  0  0  0  0  0  0  0
   -1.2529    1.5586   -0.5258 H   0  0  0  0  0  0  0  0  0  0  0  0
   -1.3163    0.8879    1.0952 H   0  0  0  0  0  0  0  0  0  0  0  0
   -1.5583   -0.9038   -1.4709 H   0  0  0  0  0  0  0  0  0  0  0  0
   -3.4414    0.9210   -0.5118 H   0  0  0  0  0  0  0  0  0  0  0  0
   -3.9160   -0.8873   -0.7954 H   0  0  0  0  0  0  0  0  0  0  0  0
   -1.7773   -2.1422    1.1705 H   0  0  0  0  0  0  0  0  0  0  0  0
   -3.1132   -2.1755   -0.0993 H   0  0  0  0  0  0  0  0  0  0  0  0
    1.1463    2.0236    1.1206 H   0  0  0  0  0  0  0  0  0  0  0  0
    0.5595    2.3700   -1.6616 H   0  0  0  0  0  0  0  0  0  0  0  0
    1.1167    3.5584   -0.5958 H   0  0  0  0  0  0  0  0  0  0  0  0
  1  2  1  0
  2  3  1  0
  3  4  2  0
  4  5  1  0
  5  6  2  0
  6  7  1  0
  7  8  1  0
  8  9  1  0
  9 10  1  0
 10 11  1  0
 11 12  1  0
  7 13  1  0
 13 14  1  0
  6  2  1  0
 12  9  1  0
  1 15  1  0
  1 16  1  0
  1 17  1  0
  7 18  1  6
  8 19  1  0
  8 20  1  0
  9 21  1  0
 10 22  1  0
 10 23  1  0
 12 24  1  0
 12 25  1  0
 13 26  1  0
 14 27  1  0
 14 28  1  0
M  END
$$$$

     RDKit          3D

 28 29  0  0  0  0  0  0  0  0999 V2000
   -1.7007   -2.1256   -0.1047 C   0  0  0  0  0  0  0  0  0  0  0  0
   -1.7117   -0.9967   -1.0166 N   0  0  0  0  0  0  0  0  0  0  0  0
   -2.1885   -1.0216   -2.2647 N   0  0  0  0  0  0  0  0  0  0  0  0
   -2.0228    0.1833   -2.7655 N   0  0  0  0  0  0  0  0  0  0  0  0
   -1.4586    0.9657   -1.8768 N   0  0  0  0  0  0  0  0  0  0  0  0
   -1.2507    0.2361   -0.7540 C   0  0  0  0  0  0  0  0  0  0  0  0
   -0.6450    0.6800    0.5091 C   0  0  1  0  0  0  0  0  0  0  0  0
    0.8365    0.8381    0.3971 C   0  0  0  0  0  0  0  0  0  0  0  0
    1.5074   -0.4638    0.0179 C   0  0  0  0  0  0  0  0  0  0  0  0
    3.0063   -0.3756   -0.1126 C   0  0  0  0  0  0  0  0  0  0  0  0
    3.0723   -0.4557    1.2921 O   0  0  0  0  0  0  0  0  0  0  0  0
    1.9435   -1.3044    1.2054 C   0  0  0  0  0  0  0  0  0  0  0  0
   -1.2147    1.9672    0.8618 N   0  0  0  0  0  0  0  0  0  0  0  0
   -0.9924    2.9458   -0.0854 N   0  0  0  0  0  0  0  0  0  0  0  0
   -2.1619   -3.0070   -0.5690 H   0  0  0  0  0  0  0  0  0  0  0  0
   -0.6801   -2.3531    0.2462 H   0  0  0  0  0  0  0  0  0  0  0  0
   -2.3244   -1.8653    0.7790 H   0  0  0  0  0  0  0  0  0  0  0  0
   -0.8918   -0.0306    1.3103 H   0  0  0  0  0  0  0  0  0  0  0  0
    1.2283    1.1757    1.3674 H   0  0  0  0  0  0  0  0  0  0  0  0
    1.0671    1.5661   -0.3853 H   0  0  0  0  0  0  0  0  0  0  0  0
    1.0360   -1.0324   -0.7894 H   0  0  0  0  0  0  0  0  0  0  0  0
    3.4000    0.5526   -0.5451 H   0  0  0  0  0  0  0  0  0  0  0  0
    3.3999   -1.3225   -0.5283 H   0  0  0  0  0  0  0  0  0  0  0  0
    2.2746   -2.2928    0.8763 H   0  0  0  0  0  0  0  0  0  0  0  0
    1.3007   -1.2525    2.0875 H   0  0  0  0  0  0  0  0  0  0  0  0
   -2.1927    1.8901    1.1733 H   0  0  0  0  0  0  0  0  0  0  0  0
   -0.8635    3.8559    0.4332 H   0  0  0  0  0  0  0  0  0  0  0  0
   -1.7732    3.0431   -0.7591 H   0  0  0  0  0  0  0  0  0  0  0  0
  1  2  1  0
  2  3  1  0
  3  4  2  0
  4  5  1  0
  5  6  2  0
  6  7  1  0
  7  8  1  0
  8  9  1  0
  9 10  1  0
 10 11  1  0
 11 12  1  0
  7 13  1  0
 13 14  1  0
  6  2  1  0
 12  9  1  0
  1 15  1  0
  1 16  1  0
  1 17  1  0
  7 18  1  1
  8 19  1  0
  8 20  1  0
  9 21  1  0
 10 22  1  0
 10 23  1  0
 12 24  1  0
 12 25  1  0
 13 26  1  0
 14 27  1  0
 14 28  1  0
M  END
$$$$

     RDKit          3D

 28 29  0  0  0  0  0  0  0  0999 V2000
    3.4145    0.4909   -0.0576 C   0  0  0  0  0  0  0  0  0  0  0  0
    2.7438   -0.4109    0.8619 N   0  0  0  0  0  0  0  0  0  0  0  0
    3.3657   -0.9949    1.8997 N   0  0  0  0  0  0  0  0  0  0  0  0
    2.4523   -1.7310    2.4912 N   0  0  0  0  0  0  0  0  0  0  0  0
    1.2928   -1.6310    1.8691 N   0  0  0  0  0  0  0  0  0  0  0  0
    1.4633   -0.7866    0.8204 C   0  0  0  0  0  0  0  0  0  0  0  0
    0.4196   -0.3709   -0.1663 C   0  0  1  0  0  0  0  0  0  0  0  0
   -0.9262   -0.9519    0.2022 C   0  0  0  0  0  0  0  0  0  0  0  0
   -1.9377   -0.5062   -0.8182 C   0  0  0  0  0  0  0  0  0  0  0  0
   -3.3413   -1.0057   -0.5915 C   0  0  0  0  0  0  0  0  0  0  0  0
   -3.7889    0.2159   -1.1343 O   0  0  0  0  0  0  0  0  0  0  0  0
   -2.6352    0.7885   -0.5477 C   0  0  0  0  0  0  0  0  0  0  0  0
    0.3870    1.0302   -0.4153 N   0  0  0  0  0  0  0  0  0  0  0  0
    0.1407    1.8432    0.6613 N   0  0  0  0  0  0  0  0  0  0  0  0
    3.1637    0.2044   -1.1059 H   0  0  0  0  0  0  0  0  0  0  0  0
    3.1248    1.5376    0.1637 H   0  0  0  0  0  0  0  0  0  0  0  0
    4.5340    0.4172    0.0644 H   0  0  0  0  0  0  0  0  0  0  0  0
    0.7446   -0.8553   -1.1352 H   0  0  0  0  0  0  0  0  0  0  0  0
   -1.2251   -0.7294    1.2287 H   0  0  0  0  0  0  0  0  0  0  0  0
   -0.8263   -2.0668    0.1268 H   0  0  0  0  0  0  0  0  0  0  0  0
   -1.6477   -0.5920   -1.8621 H   0  0  0  0  0  0  0  0  0  0  0  0
   -3.5951   -1.8840   -1.1853 H   0  0  0  0  0  0  0  0  0  0  0  0
   -3.6195   -1.0392    0.4795 H   0  0  0  0  0  0  0  0  0  0  0  0
   -2.8718    0.9992    0.5127 H   0  0  0  0  0  0  0  0  0  0  0  0
   -2.3254    1.6609   -1.1515 H   0  0  0  0  0  0  0  0  0  0  0  0
    1.0862    1.3924   -1.0890 H   0  0  0  0  0  0  0  0  0  0  0  0
    1.0023    2.3902    0.8720 H   0  0  0  0  0  0  0  0  0  0  0  0
   -0.5949    2.5852    0.4547 H   0  0  0  0  0  0  0  0  0  0  0  0
  1  2  1  0
  2  3  1  0
  3  4  2  0
  4  5  1  0
  5  6  2  0
  6  7  1  0
  7  8  1  0
  8  9  1  0
  9 10  1  0
 10 11  1  0
 11 12  1  0
  7 13  1  0
 13 14  1  0
  6  2  1  0
 12  9  1  0
  1 15  1  0
  1 16  1  0
  1 17  1  0
  7 18  1  6
  8 19  1  0
  8 20  1  0
  9 21  1  0
 10 22  1  0
 10 23  1  0
 12 24  1  0
 12 25  1  0
 13 26  1  0
 14 27  1  0
 14 28  1  0
M  END
$$$$

     RDKit          3D

 28 29  0  0  0  0  0  0  0  0999 V2000
    2.6330    1.6249    0.4280 C   0  0  0  0  0  0  0  0  0  0  0  0
    2.6804    0.2595   -0.0937 N   0  0  0  0  0  0  0  0  0  0  0  0
    3.7573   -0.3966   -0.4868 N   0  0  0  0  0  0  0  0  0  0  0  0
    3.3660   -1.5869   -0.8833 N   0  0  0  0  0  0  0  0  0  0  0  0
    2.0678   -1.6775   -0.7422 N   0  0  0  0  0  0  0  0  0  0  0  0
    1.6089   -0.5379   -0.2500 C   0  0  0  0  0  0  0  0  0  0  0  0
    0.1703   -0.2128    0.0670 C   0  0  1  0  0  0  0  0  0  0  0  0
   -0.5723   -0.0072   -1.1922 C   0  0  0  0  0  0  0  0  0  0  0  0
   -1.9948    0.3223   -1.0997 C   0  0  0  0  0  0  0  0  0  0  0  0
   -2.3603    1.5975   -0.3502 C   0  0  0  0  0  0  0  0  0  0  0  0
   -3.6075    0.9648   -0.1187 O   0  0  0  0  0  0  0  0  0  0  0  0
   -2.8408   -0.2265   -0.0146 C   0  0  0  0  0  0  0  0  0  0  0  0
   -0.3661   -1.3656    0.7634 N   0  0  0  0  0  0  0  0  0  0  0  0
    0.2985   -1.6603    1.9361 N   0  0  0  0  0  0  0  0  0  0  0  0
    3.6633    1.9423    0.6596 H   0  0  0  0  0  0  0  0  0  0  0  0
    2.0394    1.7006    1.3511 H   0  0  0  0  0  0  0  0  0  0  0  0
    2.2366    2.2930   -0.3723 H   0  0  0  0  0  0  0  0  0  0  0  0
    0.1966    0.6223    0.7574 H   0  0  0  0  0  0  0  0  0  0  0  0
   -0.0558    0.8119   -1.7763 H   0  0  0  0  0  0  0  0  0  0  0  0
   -0.4602   -0.9080   -1.8406 H   0  0  0  0  0  0  0  0  0  0  0  0
   -2.5401    0.3170   -2.0614 H   0  0  0  0  0  0  0  0  0  0  0  0
   -2.4184    2.4890   -0.9673 H   0  0  0  0  0  0  0  0  0  0  0  0
   -1.8290    1.6616    0.6118 H   0  0  0  0  0  0  0  0  0  0  0  0
   -3.4417   -1.1435   -0.2774 H   0  0  0  0  0  0  0  0  0  0  0  0
   -2.4558   -0.2706    1.0032 H   0  0  0  0  0  0  0  0  0  0  0  0
   -0.5625   -2.1644    0.1488 H   0  0  0  0  0  0  0  0  0  0  0  0
   -0.3499   -2.1834    2.5652 H   0  0  0  0  0  0  0  0  0  0  0  0
    1.1371   -2.2654    1.8132 H   0  0  0  0  0  0  0  0  0  0  0  0
  1  2  1  0
  2  3  1  0
  3  4  2  0
  4  5  1  0
  5  6  2  0
  6  7  1  0
  7  8  1  0
  8  9  1  0
  9 10  1  0
 10 11  1  0
 11 12  1  0
  7 13  1  0
 13 14  1  0
  6  2  1  0
 12  9  1  0
  1 15  1  0
  1 16  1  0
  1 17  1  0
  7 18  1  1
  8 19  1  0
  8 20  1  0
  9 21  1  0
 10 22  1  0
 10 23  1  0
 12 24  1  0
 12 25  1  0
 13 26  1  0
 14 27  1  0
 14 28  1  0
M  END
$$$$

     RDKit          3D

 28 29  0  0  0  0  0  0  0  0999 V2000
    3.0745    1.1829    0.9661 C   0  0  0  0  0  0  0  0  0  0  0  0
    2.8530    0.1023    0.0467 N   0  0  0  0  0  0  0  0  0  0  0  0
    3.8134   -0.4421   -0.7217 N   0  0  0  0  0  0  0  0  0  0  0  0
    3.2783   -1.3950   -1.4358 N   0  0  0  0  0  0  0  0  0  0  0  0
    1.9877   -1.4580   -1.1258 N   0  0  0  0  0  0  0  0  0  0  0  0
    1.6953   -0.5316   -0.2003 C   0  0  0  0  0  0  0  0  0  0  0  0
    0.3582   -0.2576    0.4294 C   0  0  1  0  0  0  0  0  0  0  0  0
   -0.4659    0.6527   -0.4126 C   0  0  0  0  0  0  0  0  0  0  0  0
   -1.7859    0.9724    0.1592 C   0  0  0  0  0  0  0  0  0  0  0  0
   -2.7807   -0.0897    0.4361 C   0  0  0  0  0  0  0  0  0  0  0  0
   -3.8120    0.7873    0.0176 O   0  0  0  0  0  0  0  0  0  0  0  0
   -2.8531    1.2866   -0.8970 C   0  0  0  0  0  0  0  0  0  0  0  0
   -0.2276   -1.4967    0.7823 N   0  0  0  0  0  0  0  0  0  0  0  0
   -0.4279   -2.4258   -0.1887 N   0  0  0  0  0  0  0  0  0  0  0  0
    2.4899    1.0175    1.8886 H   0  0  0  0  0  0  0  0  0  0  0  0
    2.7993    2.1626    0.5162 H   0  0  0  0  0  0  0  0  0  0  0  0
    4.1546    1.2580    1.2194 H   0  0  0  0  0  0  0  0  0  0  0  0
    0.5629    0.2879    1.3994 H   0  0  0  0  0  0  0  0  0  0  0  0
   -0.5367    0.3035   -1.4658 H   0  0  0  0  0  0  0  0  0  0  0  0
    0.1054    1.6263   -0.4852 H   0  0  0  0  0  0  0  0  0  0  0  0
   -1.7423    1.7666    0.9390 H   0  0  0  0  0  0  0  0  0  0  0  0
   -2.7341   -0.9191   -0.2839 H   0  0  0  0  0  0  0  0  0  0  0  0
   -2.9207   -0.3954    1.4947 H   0  0  0  0  0  0  0  0  0  0  0  0
   -2.9751    2.3676   -1.0976 H   0  0  0  0  0  0  0  0  0  0  0  0
   -2.8026    0.6181   -1.7608 H   0  0  0  0  0  0  0  0  0  0  0  0
   -0.8303   -1.5243    1.5914 H   0  0  0  0  0  0  0  0  0  0  0  0
   -0.3463   -2.1273   -1.1610 H   0  0  0  0  0  0  0  0  0  0  0  0
    0.0685   -3.3296   -0.0634 H   0  0  0  0  0  0  0  0  0  0  0  0
  1  2  1  0
  2  3  1  0
  3  4  2  0
  4  5  1  0
  5  6  2  0
  6  7  1  0
  7  8  1  0
  8  9  1  0
  9 10  1  0
 10 11  1  0
 11 12  1  0
  7 13  1  0
 13 14  1  0
  6  2  1  0
 12  9  1  0
  1 15  1  0
  1 16  1  0
  1 17  1  0
  7 18  1  1
  8 19  1  0
  8 20  1  0
  9 21  1  0
 10 22  1  0
 10 23  1  0
 12 24  1  0
 12 25  1  0
 13 26  1  0
 14 27  1  0
 14 28  1  0
M  END
$$$$

     RDKit          3D

 28 29  0  0  0  0  0  0  0  0999 V2000
   -2.7952   -1.7325    1.1869 C   0  0  0  0  0  0  0  0  0  0  0  0
   -2.7879   -0.4281    0.5746 N   0  0  0  0  0  0  0  0  0  0  0  0
   -3.9047    0.2061    0.2136 N   0  0  0  0  0  0  0  0  0  0  0  0
   -3.5770    1.3601   -0.3099 N   0  0  0  0  0  0  0  0  0  0  0  0
   -2.2439    1.4656   -0.2841 N   0  0  0  0  0  0  0  0  0  0  0  0
   -1.7375    0.3514    0.2679 C   0  0  0  0  0  0  0  0  0  0  0  0
   -0.3132   -0.0147    0.5212 C   0  0  1  0  0  0  0  0  0  0  0  0
    0.3930   -0.4084   -0.7341 C   0  0  0  0  0  0  0  0  0  0  0  0
    1.8154   -0.8090   -0.5927 C   0  0  0  0  0  0  0  0  0  0  0  0
    2.8171    0.1395   -0.0579 C   0  0  0  0  0  0  0  0  0  0  0  0
    2.9265    0.7745   -1.3006 O   0  0  0  0  0  0  0  0  0  0  0  0
    2.6002   -0.4841   -1.8643 C   0  0  0  0  0  0  0  0  0  0  0  0
    0.3764    1.1378    1.0969 N   0  0  0  0  0  0  0  0  0  0  0  0
    0.3214    2.2347    0.2027 N   0  0  0  0  0  0  0  0  0  0  0  0
   -3.4760   -1.7503    2.0751 H   0  0  0  0  0  0  0  0  0  0  0  0
   -1.8024   -2.1339    1.3848 H   0  0  0  0  0  0  0  0  0  0  0  0
   -3.2831   -2.4296    0.4495 H   0  0  0  0  0  0  0  0  0  0  0  0
   -0.2278   -0.8316    1.2624 H   0  0  0  0  0  0  0  0  0  0  0  0
    0.3663    0.4483   -1.4798 H   0  0  0  0  0  0  0  0  0  0  0  0
   -0.1680   -1.2143   -1.2952 H   0  0  0  0  0  0  0  0  0  0  0  0
    1.9938   -1.8652   -0.2762 H   0  0  0  0  0  0  0  0  0  0  0  0
    3.7970   -0.4046    0.1140 H   0  0  0  0  0  0  0  0  0  0  0  0
    2.6162    0.7519    0.8088 H   0  0  0  0  0  0  0  0  0  0  0  0
    3.5029   -1.0883   -1.9586 H   0  0  0  0  0  0  0  0  0  0  0  0
    1.9677   -0.3400   -2.7414 H   0  0  0  0  0  0  0  0  0  0  0  0
   -0.0372    1.4577    1.9803 H   0  0  0  0  0  0  0  0  0  0  0  0
   -0.4210    2.9162    0.4975 H   0  0  0  0  0  0  0  0  0  0  0  0
    1.2809    2.6909    0.2586 H   0  0  0  0  0  0  0  0  0  0  0  0
  1  2  1  0
  2  3  1  0
  3  4  2  0
  4  5  1  0
  5  6  2  0
  6  7  1  0
  7  8  1  0
  8  9  1  0
  9 10  1  0
 10 11  1  0
 11 12  1  0
  7 13  1  0
 13 14  1  0
  6  2  1  0
 12  9  1  0
  1 15  1  0
  1 16  1  0
  1 17  1  0
  7 18  1  1
  8 19  1  0
  8 20  1  0
  9 21  1  0
 10 22  1  0
 10 23  1  0
 12 24  1  0
 12 25  1  0
 13 26  1  0
 14 27  1  0
 14 28  1  0
M  END
$$$$
