
     RDKit          3D

 26 27  0  0  0  0  0  0  0  0999 V2000
    4.8443   -1.0593    1.0283 N   0  0  0  0  0  0  0  0  0  0  0  0
    3.6682   -0.5757    0.7458 C   0  0  0  0  0  0  0  0  0  0  0  0
    3.4409    0.5968    0.1633 N   0  0  0  0  0  0  0  0  0  0  0  0
    2.1342    0.7314    0.0464 N   0  0  0  0  0  0  0  0  0  0  0  0
    1.5035   -0.3465    0.5490 C   0  0  0  0  0  0  0  0  0  0  0  0
    0.2354   -0.5743    0.6109 N   0  0  0  0  0  0  0  0  0  0  0  0
   -0.6631    0.4075    0.0955 C   0  0  0  0  0  0  0  0  0  0  0  0
   -2.0283   -0.0951   -0.1986 C   0  0  0  0  0  0  0  0  0  0  0  0
   -2.9932    0.9020   -0.7381 C   0  0  0  0  0  0  0  0  0  0  0  0
   -2.5447    2.2244   -0.9252 N   0  0  0  0  0  0  0  0  0  0  0  0
   -4.1679    0.5240   -1.0045 O   0  0  0  0  0  0  0  0  0  0  0  0
   -2.0384   -1.4876   -0.8549 C   0  0  0  0  0  0  0  0  0  0  0  0
   -2.6005   -1.2807    0.4819 C   0  0  0  0  0  0  0  0  0  0  0  0
    2.4811   -1.1610    0.9857 N   0  0  0  0  0  0  0  0  0  0  0  0
    5.7034   -0.5188    0.7974 H   0  0  0  0  0  0  0  0  0  0  0  0
    4.1681    1.2890   -0.1469 H   0  0  0  0  0  0  0  0  0  0  0  0
    1.6920    1.5787   -0.3855 H   0  0  0  0  0  0  0  0  0  0  0  0
   -0.1922    0.8605   -0.8174 H   0  0  0  0  0  0  0  0  0  0  0  0
   -0.7030    1.2505    0.8352 H   0  0  0  0  0  0  0  0  0  0  0  0
   -2.7083    2.9389   -0.2026 H   0  0  0  0  0  0  0  0  0  0  0  0
   -2.0498    2.4751   -1.7922 H   0  0  0  0  0  0  0  0  0  0  0  0
   -1.0785   -2.0459   -0.9085 H   0  0  0  0  0  0  0  0  0  0  0  0
   -2.6880   -1.5579   -1.7250 H   0  0  0  0  0  0  0  0  0  0  0  0
   -2.0967   -1.6472    1.4004 H   0  0  0  0  0  0  0  0  0  0  0  0
   -3.7047   -1.3198    0.5642 H   0  0  0  0  0  0  0  0  0  0  0  0
    2.3862   -2.1091    1.4458 H   0  0  0  0  0  0  0  0  0  0  0  0
  1  2  2  3
  2  3  1  0
  3  4  1  0
  4  5  1  0
  5  6  2  3
  6  7  1  0
  7  8  1  0
  8  9  1  0
  9 10  1  0
  9 11  2  0
  8 12  1  0
 12 13  1  0
  5 14  1  0
 14  2  1  0
 13  8  1  0
  1 15  1  0
  3 16  1  0
  4 17  1  0
  7 18  1  0
  7 19  1  0
 10 20  1  0
 10 21  1  0
 12 22  1  0
 12 23  1  0
 13 24  1  0
 13 25  1  0
 14 26  1  0
M  END
$$$$

     RDKit          3D

 26 27  0  0  0  0  0  0  0  0999 V2000
    4.9444   -0.9000   -0.2814 N   0  0  0  0  0  0  0  0  0  0  0  0
    3.8920   -0.1562   -0.2184 C   0  0  0  0  0  0  0  0  0  0  0  0
    3.7783    1.1863   -0.2461 N   0  0  0  0  0  0  0  0  0  0  0  0
    2.5124    1.5042   -0.1541 N   0  0  0  0  0  0  0  0  0  0  0  0
    1.7652    0.3757   -0.0645 C   0  0  0  0  0  0  0  0  0  0  0  0
    0.4993    0.3843    0.0368 N   0  0  0  0  0  0  0  0  0  0  0  0
   -0.3773   -0.7347    0.1354 C   0  0  0  0  0  0  0  0  0  0  0  0
   -1.8425   -0.2836    0.1399 C   0  0  0  0  0  0  0  0  0  0  0  0
   -2.3134    0.4643   -1.0500 C   0  0  0  0  0  0  0  0  0  0  0  0
   -3.6976    0.6474   -1.2855 N   0  0  0  0  0  0  0  0  0  0  0  0
   -1.4753    0.9380   -1.8522 O   0  0  0  0  0  0  0  0  0  0  0  0
   -2.4487    0.0937    1.4600 C   0  0  0  0  0  0  0  0  0  0  0  0
   -2.7738   -1.2480    0.8193 C   0  0  0  0  0  0  0  0  0  0  0  0
    2.6399   -0.6409   -0.1061 N   0  0  0  0  0  0  0  0  0  0  0  0
    5.8880   -0.4164   -0.3686 H   0  0  0  0  0  0  0  0  0  0  0  0
    4.6034    1.8369   -0.3290 H   0  0  0  0  0  0  0  0  0  0  0  0
    2.1594    2.4891   -0.1537 H   0  0  0  0  0  0  0  0  0  0  0  0
   -0.2566   -1.3466   -0.7953 H   0  0  0  0  0  0  0  0  0  0  0  0
   -0.2246   -1.4031    0.9798 H   0  0  0  0  0  0  0  0  0  0  0  0
   -4.2757    0.0490   -1.8945 H   0  0  0  0  0  0  0  0  0  0  0  0
   -4.1777    1.4531   -0.8046 H   0  0  0  0  0  0  0  0  0  0  0  0
   -1.7282    0.0832    2.3088 H   0  0  0  0  0  0  0  0  0  0  0  0
   -3.2640    0.8273    1.4503 H   0  0  0  0  0  0  0  0  0  0  0  0
   -2.3830   -2.1772    1.2884 H   0  0  0  0  0  0  0  0  0  0  0  0
   -3.8049   -1.3799    0.4211 H   0  0  0  0  0  0  0  0  0  0  0  0
    2.3610   -1.6458   -0.0588 H   0  0  0  0  0  0  0  0  0  0  0  0
  1  2  2  3
  2  3  1  0
  3  4  1  0
  4  5  1  0
  5  6  2  3
  6  7  1  0
  7  8  1  0
  8  9  1  0
  9 10  1  0
  9 11  2  0
  8 12  1  0
 12 13  1  0
  5 14  1  0
 14  2  1  0
 13  8  1  0
  1 15  1  0
  3 16  1  0
  4 17  1  0
  7 18  1  0
  7 19  1  0
 10 20  1  0
 10 21  1  0
 12 22  1  0
 12 23  1  0
 13 24  1  0
 13 25  1  0
 14 26  1  0
M  END
$$$$

     RDKit          3D

 26 27  0  0  0  0  0  0  0  0999 V2000
    4.4240   -0.1844   -1.9183 N   0  0  0  0  0  0  0  0  0  0  0  0
    3.4359   -0.0868   -1.0933 C   0  0  0  0  0  0  0  0  0  0  0  0
    3.4794   -0.2269    0.2517 N   0  0  0  0  0  0  0  0  0  0  0  0
    2.2396   -0.0461    0.6928 N   0  0  0  0  0  0  0  0  0  0  0  0
    1.4197    0.2030   -0.3326 C   0  0  0  0  0  0  0  0  0  0  0  0
    0.1831    0.4223   -0.2897 N   0  0  0  0  0  0  0  0  0  0  0  0
   -0.6662    0.4635    0.8525 C   0  0  0  0  0  0  0  0  0  0  0  0
   -2.0781    0.1833    0.3744 C   0  0  0  0  0  0  0  0  0  0  0  0
   -2.2631   -1.1142   -0.2776 C   0  0  0  0  0  0  0  0  0  0  0  0
   -1.1845   -2.0203   -0.4361 N   0  0  0  0  0  0  0  0  0  0  0  0
   -3.4230   -1.4029   -0.6977 O   0  0  0  0  0  0  0  0  0  0  0  0
   -2.7017    1.3956   -0.3668 C   0  0  0  0  0  0  0  0  0  0  0  0
   -3.2296    0.9183    0.9413 C   0  0  0  0  0  0  0  0  0  0  0  0
    2.1670    0.1770   -1.4428 N   0  0  0  0  0  0  0  0  0  0  0  0
    5.3834   -0.3945   -1.5452 H   0  0  0  0  0  0  0  0  0  0  0  0
    4.3516   -0.4343    0.7567 H   0  0  0  0  0  0  0  0  0  0  0  0
    1.9800   -0.0981    1.6987 H   0  0  0  0  0  0  0  0  0  0  0  0
   -0.3826   -0.2683    1.6425 H   0  0  0  0  0  0  0  0  0  0  0  0
   -0.6978    1.4543    1.3514 H   0  0  0  0  0  0  0  0  0  0  0  0
   -1.0014   -2.7896    0.2380 H   0  0  0  0  0  0  0  0  0  0  0  0
   -0.5608   -1.9078   -1.2528 H   0  0  0  0  0  0  0  0  0  0  0  0
   -2.1557    2.3354   -0.3701 H   0  0  0  0  0  0  0  0  0  0  0  0
   -3.2220    1.1639   -1.3128 H   0  0  0  0  0  0  0  0  0  0  0  0
   -3.1523    1.5523    1.8314 H   0  0  0  0  0  0  0  0  0  0  0  0
   -4.2157    0.3765    0.8498 H   0  0  0  0  0  0  0  0  0  0  0  0
    1.8707    0.3289   -2.4431 H   0  0  0  0  0  0  0  0  0  0  0  0
  1  2  2  3
  2  3  1  0
  3  4  1  0
  4  5  1  0
  5  6  2  3
  6  7  1  0
  7  8  1  0
  8  9  1  0
  9 10  1  0
  9 11  2  0
  8 12  1  0
 12 13  1  0
  5 14  1  0
 14  2  1  0
 13  8  1  0
  1 15  1  0
  3 16  1  0
  4 17  1  0
  7 18  1  0
  7 19  1  0
 10 20  1  0
 10 21  1  0
 12 22  1  0
 12 23  1  0
 13 24  1  0
 13 25  1  0
 14 26  1  0
M  END
$$$$

     RDKit          3D

 26 27  0  0  0  0  0  0  0  0999 V2000
    4.6422   -1.1627   -1.3645 N   0  0  0  0  0  0  0  0  0  0  0  0
    3.5623   -0.8215   -0.7473 C   0  0  0  0  0  0  0  0  0  0  0  0
    3.3471   -0.8729    0.5730 N   0  0  0  0  0  0  0  0  0  0  0  0
    2.1208   -0.4404    0.8220 N   0  0  0  0  0  0  0  0  0  0  0  0
    1.5127   -0.0988   -0.3277 C   0  0  0  0  0  0  0  0  0  0  0  0
    0.3140    0.3624   -0.4693 N   0  0  0  0  0  0  0  0  0  0  0  0
   -0.5053    0.5498    0.7143 C   0  0  0  0  0  0  0  0  0  0  0  0
   -1.9569    0.6331    0.4218 C   0  0  0  0  0  0  0  0  0  0  0  0
   -2.5513   -0.5574   -0.2379 C   0  0  0  0  0  0  0  0  0  0  0  0
   -1.7176   -1.6626   -0.5362 N   0  0  0  0  0  0  0  0  0  0  0  0
   -3.7812   -0.5614   -0.5186 O   0  0  0  0  0  0  0  0  0  0  0  0
   -2.5928    1.9270    0.0631 C   0  0  0  0  0  0  0  0  0  0  0  0
   -2.7686    1.3832    1.4290 C   0  0  0  0  0  0  0  0  0  0  0  0
    2.4141   -0.3383   -1.2975 N   0  0  0  0  0  0  0  0  0  0  0  0
    4.6645   -1.0679   -2.3976 H   0  0  0  0  0  0  0  0  0  0  0  0
    4.0334   -1.2023    1.3086 H   0  0  0  0  0  0  0  0  0  0  0  0
    1.6896   -0.3738    1.7663 H   0  0  0  0  0  0  0  0  0  0  0  0
   -0.1133    1.4614    1.2183 H   0  0  0  0  0  0  0  0  0  0  0  0
   -0.3097   -0.3590    1.3552 H   0  0  0  0  0  0  0  0  0  0  0  0
   -1.0283   -1.6619   -1.3087 H   0  0  0  0  0  0  0  0  0  0  0  0
   -1.8101   -2.5087    0.0538 H   0  0  0  0  0  0  0  0  0  0  0  0
   -1.9434    2.8077   -0.0962 H   0  0  0  0  0  0  0  0  0  0  0  0
   -3.5003    1.9384   -0.5658 H   0  0  0  0  0  0  0  0  0  0  0  0
   -3.7154    0.9091    1.7484 H   0  0  0  0  0  0  0  0  0  0  0  0
   -2.2446    1.8896    2.2663 H   0  0  0  0  0  0  0  0  0  0  0  0
    2.2382   -0.1721   -2.3057 H   0  0  0  0  0  0  0  0  0  0  0  0
  1  2  2  3
  2  3  1  0
  3  4  1  0
  4  5  1  0
  5  6  2  3
  6  7  1  0
  7  8  1  0
  8  9  1  0
  9 10  1  0
  9 11  2  0
  8 12  1  0
 12 13  1  0
  5 14  1  0
 14  2  1  0
 13  8  1  0
  1 15  1  0
  3 16  1  0
  4 17  1  0
  7 18  1  0
  7 19  1  0
 10 20  1  0
 10 21  1  0
 12 22  1  0
 12 23  1  0
 13 24  1  0
 13 25  1  0
 14 26  1  0
M  END
$$$$

     RDKit          3D

 26 27  0  0  0  0  0  0  0  0999 V2000
    4.7053   -0.4437    1.4683 N   0  0  0  0  0  0  0  0  0  0  0  0
    3.5184   -0.0440    1.1564 C   0  0  0  0  0  0  0  0  0  0  0  0
    2.8626    1.0061    1.6688 N   0  0  0  0  0  0  0  0  0  0  0  0
    1.6614    1.0831    1.0827 N   0  0  0  0  0  0  0  0  0  0  0  0
    1.5373    0.0902    0.1959 C   0  0  0  0  0  0  0  0  0  0  0  0
    0.5373   -0.1817   -0.5695 N   0  0  0  0  0  0  0  0  0  0  0  0
   -0.6231    0.6818   -0.4841 C   0  0  0  0  0  0  0  0  0  0  0  0
   -1.8948   -0.0579   -0.8646 C   0  0  0  0  0  0  0  0  0  0  0  0
   -2.2374   -1.2300   -0.0440 C   0  0  0  0  0  0  0  0  0  0  0  0
   -1.4061   -1.6165    1.0303 N   0  0  0  0  0  0  0  0  0  0  0  0
   -3.2682   -1.8832   -0.3016 O   0  0  0  0  0  0  0  0  0  0  0  0
   -3.0216    0.8691   -1.2591 C   0  0  0  0  0  0  0  0  0  0  0  0
   -2.3723   -0.0054   -2.2720 C   0  0  0  0  0  0  0  0  0  0  0  0
    2.6849   -0.6036    0.2437 N   0  0  0  0  0  0  0  0  0  0  0  0
    5.0930   -1.2753    0.9914 H   0  0  0  0  0  0  0  0  0  0  0  0
    3.2027    1.6797    2.4088 H   0  0  0  0  0  0  0  0  0  0  0  0
    0.9579    1.8244    1.3143 H   0  0  0  0  0  0  0  0  0  0  0  0
   -0.4465    1.5586   -1.1114 H   0  0  0  0  0  0  0  0  0  0  0  0
   -0.7424    0.9400    0.6014 H   0  0  0  0  0  0  0  0  0  0  0  0
   -0.6647   -2.3354    0.9756 H   0  0  0  0  0  0  0  0  0  0  0  0
   -1.5452   -1.1453    1.9507 H   0  0  0  0  0  0  0  0  0  0  0  0
   -2.8380    1.9641   -1.3086 H   0  0  0  0  0  0  0  0  0  0  0  0
   -4.0543    0.6361   -0.9228 H   0  0  0  0  0  0  0  0  0  0  0  0
   -2.8959   -0.9099   -2.6418 H   0  0  0  0  0  0  0  0  0  0  0  0
   -1.6824    0.4678   -2.9897 H   0  0  0  0  0  0  0  0  0  0  0  0
    2.9321   -1.4471   -0.3191 H   0  0  0  0  0  0  0  0  0  0  0  0
  1  2  2  3
  2  3  1  0
  3  4  1  0
  4  5  1  0
  5  6  2  3
  6  7  1  0
  7  8  1  0
  8  9  1  0
  9 10  1  0
  9 11  2  0
  8 12  1  0
 12 13  1  0
  5 14  1  0
 14  2  1  0
 13  8  1  0
  1 15  1  0
  3 16  1  0
  4 17  1  0
  7 18  1  0
  7 19  1  0
 10 20  1  0
 10 21  1  0
 12 22  1  0
 12 23  1  0
 13 24  1  0
 13 25  1  0
 14 26  1  0
M  END
$$$$

     RDKit          3D

 26 27  0  0  0  0  0  0  0  0999 V2000
    4.6535    1.4480    0.0599 N   0  0  0  0  0  0  0  0  0  0  0  0
    3.6996    0.5629    0.0031 C   0  0  0  0  0  0  0  0  0  0  0  0
    3.8598   -0.7606    0.1049 N   0  0  0  0  0  0  0  0  0  0  0  0
    2.6780   -1.3299    0.0027 N   0  0  0  0  0  0  0  0  0  0  0  0
    1.7830   -0.3606   -0.1622 C   0  0  0  0  0  0  0  0  0  0  0  0
    0.5173   -0.5477   -0.2934 N   0  0  0  0  0  0  0  0  0  0  0  0
   -0.4075    0.5409   -0.4700 C   0  0  0  0  0  0  0  0  0  0  0  0
   -1.8146    0.0802   -0.1356 C   0  0  0  0  0  0  0  0  0  0  0  0
   -2.8377    1.1371   -0.2966 C   0  0  0  0  0  0  0  0  0  0  0  0
   -4.2051    0.8025   -0.4559 N   0  0  0  0  0  0  0  0  0  0  0  0
   -2.4618    2.3304   -0.2896 O   0  0  0  0  0  0  0  0  0  0  0  0
   -2.1981   -1.3458   -0.3629 C   0  0  0  0  0  0  0  0  0  0  0  0
   -2.0036   -0.8500    1.0192 C   0  0  0  0  0  0  0  0  0  0  0  0
    2.3905    0.8521   -0.1675 N   0  0  0  0  0  0  0  0  0  0  0  0
    5.6385    1.1664    0.1940 H   0  0  0  0  0  0  0  0  0  0  0  0
    4.7801   -1.2365    0.2437 H   0  0  0  0  0  0  0  0  0  0  0  0
    2.5202   -2.3468    0.0484 H   0  0  0  0  0  0  0  0  0  0  0  0
   -0.1457    1.3990    0.1865 H   0  0  0  0  0  0  0  0  0  0  0  0
   -0.4078    0.8742   -1.5113 H   0  0  0  0  0  0  0  0  0  0  0  0
   -4.6179    0.1983    0.2883 H   0  0  0  0  0  0  0  0  0  0  0  0
   -4.7629    1.1413   -1.2706 H   0  0  0  0  0  0  0  0  0  0  0  0
   -1.4056   -1.9545   -0.8641 H   0  0  0  0  0  0  0  0  0  0  0  0
   -3.2282   -1.6144   -0.6445 H   0  0  0  0  0  0  0  0  0  0  0  0
   -1.1212   -1.2689    1.5447 H   0  0  0  0  0  0  0  0  0  0  0  0
   -2.8606   -0.6980    1.6896 H   0  0  0  0  0  0  0  0  0  0  0  0
    1.9577    1.7804   -0.2757 H   0  0  0  0  0  0  0  0  0  0  0  0
  1  2  2  3
  2  3  1  0
  3  4  1  0
  4  5  1  0
  5  6  2  3
  6  7  1  0
  7  8  1  0
  8  9  1  0
  9 10  1  0
  9 11  2  0
  8 12  1  0
 12 13  1  0
  5 14  1  0
 14  2  1  0
 13  8  1  0
  1 15  1  0
  3 16  1  0
  4 17  1  0
  7 18  1  0
  7 19  1  0
 10 20  1  0
 10 21  1  0
 12 22  1  0
 12 23  1  0
 13 24  1  0
 13 25  1  0
 14 26  1  0
M  END
$$$$

     RDKit          3D

 26 27  0  0  0  0  0  0  0  0999 V2000
    4.8217   -0.4713    1.3748 N   0  0  0  0  0  0  0  0  0  0  0  0
    3.6878   -0.0873    0.8706 C   0  0  0  0  0  0  0  0  0  0  0  0
    3.3797    1.0809    0.2978 N   0  0  0  0  0  0  0  0  0  0  0  0
    2.1212    1.0537   -0.0760 N   0  0  0  0  0  0  0  0  0  0  0  0
    1.5751   -0.1534    0.2515 C   0  0  0  0  0  0  0  0  0  0  0  0
    0.3646   -0.5601    0.0479 N   0  0  0  0  0  0  0  0  0  0  0  0
   -0.5491    0.3563   -0.6070 C   0  0  0  0  0  0  0  0  0  0  0  0
   -1.9543   -0.1467   -0.6345 C   0  0  0  0  0  0  0  0  0  0  0  0
   -2.5945   -0.4041    0.6717 C   0  0  0  0  0  0  0  0  0  0  0  0
   -1.9264   -0.1912    1.9072 N   0  0  0  0  0  0  0  0  0  0  0  0
   -3.7812   -0.8302    0.7095 O   0  0  0  0  0  0  0  0  0  0  0  0
   -2.8581    0.5467   -1.6511 C   0  0  0  0  0  0  0  0  0  0  0  0
   -2.4559   -0.8659   -1.8568 C   0  0  0  0  0  0  0  0  0  0  0  0
    2.5722   -0.8383    0.8371 N   0  0  0  0  0  0  0  0  0  0  0  0
    4.9248   -1.4197    1.7949 H   0  0  0  0  0  0  0  0  0  0  0  0
    4.0237    1.8777    0.1683 H   0  0  0  0  0  0  0  0  0  0  0  0
    1.5483    1.7934   -0.5544 H   0  0  0  0  0  0  0  0  0  0  0  0
   -0.5352    1.3203   -0.0185 H   0  0  0  0  0  0  0  0  0  0  0  0
   -0.1783    0.6263   -1.6093 H   0  0  0  0  0  0  0  0  0  0  0  0
   -0.9125   -0.3348    2.0435 H   0  0  0  0  0  0  0  0  0  0  0  0
   -2.4868    0.1279    2.7246 H   0  0  0  0  0  0  0  0  0  0  0  0
   -3.8989    0.8079   -1.3275 H   0  0  0  0  0  0  0  0  0  0  0  0
   -2.4148    1.3441   -2.2803 H   0  0  0  0  0  0  0  0  0  0  0  0
   -3.1950   -1.6753   -1.6469 H   0  0  0  0  0  0  0  0  0  0  0  0
   -1.7393   -1.1315   -2.6450 H   0  0  0  0  0  0  0  0  0  0  0  0
    2.4612   -1.8255    1.2077 H   0  0  0  0  0  0  0  0  0  0  0  0
  1  2  2  3
  2  3  1  0
  3  4  1  0
  4  5  1  0
  5  6  2  3
  6  7  1  0
  7  8  1  0
  8  9  1  0
  9 10  1  0
  9 11  2  0
  8 12  1  0
 12 13  1  0
  5 14  1  0
 14  2  1  0
 13  8  1  0
  1 15  1  0
  3 16  1  0
  4 17  1  0
  7 18  1  0
  7 19  1  0
 10 20  1  0
 10 21  1  0
 12 22  1  0
 12 23  1  0
 13 24  1  0
 13 25  1  0
 14 26  1  0
M  END
$$$$

     RDKit          3D

 26 27  0  0  0  0  0  0  0  0999 V2000
    4.4953    1.1745   -0.5730 N   0  0  0  0  0  0  0  0  0  0  0  0
    3.3678    0.6539   -0.1956 C   0  0  0  0  0  0  0  0  0  0  0  0
    3.0663   -0.6129    0.0794 N   0  0  0  0  0  0  0  0  0  0  0  0
    1.7887   -0.7012    0.4297 N   0  0  0  0  0  0  0  0  0  0  0  0
    1.2745    0.5409    0.3735 C   0  0  0  0  0  0  0  0  0  0  0  0
    0.0817    0.8905    0.6339 N   0  0  0  0  0  0  0  0  0  0  0  0
   -0.9641   -0.0539    1.0554 C   0  0  0  0  0  0  0  0  0  0  0  0
   -1.7366   -0.4485   -0.1044 C   0  0  0  0  0  0  0  0  0  0  0  0
   -2.3034    0.7205   -0.6435 C   0  0  0  0  0  0  0  0  0  0  0  0
   -2.1459    2.0301   -0.0416 N   0  0  0  0  0  0  0  0  0  0  0  0
   -3.0095    0.7741   -1.7027 O   0  0  0  0  0  0  0  0  0  0  0  0
   -1.4135   -1.8450   -0.2692 C   0  0  0  0  0  0  0  0  0  0  0  0
   -2.6797   -1.4408   -0.5844 C   0  0  0  0  0  0  0  0  0  0  0  0
    2.2447    1.3696   -0.0101 N   0  0  0  0  0  0  0  0  0  0  0  0
    5.3605    0.6407   -0.7186 H   0  0  0  0  0  0  0  0  0  0  0  0
    3.7619   -1.4136    0.0197 H   0  0  0  0  0  0  0  0  0  0  0  0
    1.3150   -1.5969    0.6928 H   0  0  0  0  0  0  0  0  0  0  0  0
   -1.6134    0.5472    1.7639 H   0  0  0  0  0  0  0  0  0  0  0  0
   -0.4553   -0.7500    1.7159 H   0  0  0  0  0  0  0  0  0  0  0  0
   -1.5265    2.7524   -0.4674 H   0  0  0  0  0  0  0  0  0  0  0  0
   -2.6556    2.2757    0.8383 H   0  0  0  0  0  0  0  0  0  0  0  0
   -1.2688   -2.5775    0.5561 H   0  0  0  0  0  0  0  0  0  0  0  0
   -0.6338   -2.0575   -1.0682 H   0  0  0  0  0  0  0  0  0  0  0  0
   -2.9506   -1.4720   -1.6613 H   0  0  0  0  0  0  0  0  0  0  0  0
   -3.5534   -1.8203    0.0294 H   0  0  0  0  0  0  0  0  0  0  0  0
    2.1536    2.4200   -0.1482 H   0  0  0  0  0  0  0  0  0  0  0  0
  1  2  2  3
  2  3  1  0
  3  4  1  0
  4  5  1  0
  5  6  2  3
  6  7  1  0
  7  8  1  0
  8  9  1  0
  9 10  1  0
  9 11  2  0
  8 12  1  0
 12 13  1  0
  5 14  1  0
 14  2  1  0
 13  8  1  0
  1 15  1  0
  3 16  1  0
  4 17  1  0
  7 18  1  0
  7 19  1  0
 10 20  1  0
 10 21  1  0
 12 22  1  0
 12 23  1  0
 13 24  1  0
 13 25  1  0
 14 26  1  0
M  END
$$$$
