
     RDKit          3D

 29 29  0  0  0  0  0  0  0  0999 V2000
    2.3885    0.2214    2.2077 C   0  0  0  0  0  0  0  0  0  0  0  0
    1.5358    0.7945    1.1027 C   0  0  1  0  0  0  0  0  0  0  0  0
    2.3594    1.4429    0.0587 C   0  0  0  0  0  0  0  0  0  0  0  0
    2.3118    1.0502   -1.2947 N   0  0  0  0  0  0  0  0  0  0  0  0
    3.1348    2.3808    0.3813 O   0  0  0  0  0  0  0  0  0  0  0  0
    0.7031   -0.2162    0.4635 N   0  0  0  0  0  0  0  0  0  0  0  0
    1.2974   -1.3363   -0.2170 C   0  0  0  0  0  0  0  0  0  0  0  0
   -0.7072   -0.1046    0.5359 C   0  0  0  0  0  0  0  0  0  0  0  0
   -1.2247    0.8679    1.1952 O   0  0  0  0  0  0  0  0  0  0  0  0
   -1.6726   -1.0249   -0.0893 C   0  0  2  0  0  0  0  0  0  0  0  0
   -1.7311   -0.6759   -1.5583 C   0  0  0  0  0  0  0  0  0  0  0  0
   -2.7496    0.1504   -1.7801 C   0  0  0  0  0  0  0  0  0  0  0  0
   -3.4532    0.4203   -0.4855 C   0  0  0  0  0  0  0  0  0  0  0  0
   -3.0017   -0.6376    0.3567 N   0  0  0  0  0  0  0  0  0  0  0  0
    3.0887    1.0257    2.5137 H   0  0  0  0  0  0  0  0  0  0  0  0
    1.7263    0.0091    3.0704 H   0  0  0  0  0  0  0  0  0  0  0  0
    2.9769   -0.6488    1.9213 H   0  0  0  0  0  0  0  0  0  0  0  0
    0.8708    1.5390    1.5708 H   0  0  0  0  0  0  0  0  0  0  0  0
    1.4113    0.7732   -1.7125 H   0  0  0  0  0  0  0  0  0  0  0  0
    3.1691    1.0389   -1.8654 H   0  0  0  0  0  0  0  0  0  0  0  0
    2.3825   -1.1676   -0.4130 H   0  0  0  0  0  0  0  0  0  0  0  0
    0.8334   -1.5667   -1.1866 H   0  0  0  0  0  0  0  0  0  0  0  0
    1.2499   -2.2475    0.4504 H   0  0  0  0  0  0  0  0  0  0  0  0
   -1.4543   -2.0953    0.0580 H   0  0  0  0  0  0  0  0  0  0  0  0
   -1.0894   -1.0094   -2.3504 H   0  0  0  0  0  0  0  0  0  0  0  0
   -3.0808    0.5983   -2.7154 H   0  0  0  0  0  0  0  0  0  0  0  0
   -3.0806    1.3840   -0.1136 H   0  0  0  0  0  0  0  0  0  0  0  0
   -4.5508    0.4444   -0.6287 H   0  0  0  0  0  0  0  0  0  0  0  0
   -3.6434   -1.4103    0.5246 H   0  0  0  0  0  0  0  0  0  0  0  0
  1  2  1  0
  2  3  1  0
  3  4  1  0
  3  5  2  0
  2  6  1  0
  6  7  1  0
  6  8  1  0
  8  9  2  0
  8 10  1  0
 10 11  1  0
 11 12  2  0
 12 13  1  0
 13 14  1  0
 14 10  1  0
  1 15  1  0
  1 16  1  0
  1 17  1  0
  2 18  1  1
  4 19  1  0
  4 20  1  0
  7 21  1  0
  7 22  1  0
  7 23  1  0
 10 24  1  6
 11 25  1  0
 12 26  1  0
 13 27  1  0
 13 28  1  0
 14 29  1  0
M  END
$$$$

     RDKit          3D

 29 29  0  0  0  0  0  0  0  0999 V2000
   -1.9825    0.0222    1.2302 C   0  0  0  0  0  0  0  0  0  0  0  0
   -1.1365   -0.7709    0.2280 C   0  0  1  0  0  0  0  0  0  0  0  0
   -2.0036   -1.8756   -0.2330 C   0  0  0  0  0  0  0  0  0  0  0  0
   -2.4835   -2.8206    0.6939 N   0  0  0  0  0  0  0  0  0  0  0  0
   -2.3137   -1.9788   -1.4325 O   0  0  0  0  0  0  0  0  0  0  0  0
   -0.7335    0.1028   -0.8382 N   0  0  0  0  0  0  0  0  0  0  0  0
   -1.7432    0.6555   -1.6981 C   0  0  0  0  0  0  0  0  0  0  0  0
    0.6126    0.4163   -1.0448 C   0  0  0  0  0  0  0  0  0  0  0  0
    0.9002    1.1675   -2.0244 O   0  0  0  0  0  0  0  0  0  0  0  0
    1.7670   -0.0360   -0.2369 C   0  0  2  0  0  0  0  0  0  0  0  0
    1.8014    0.4991    1.1189 C   0  0  0  0  0  0  0  0  0  0  0  0
    2.6387    1.5152    1.1818 C   0  0  0  0  0  0  0  0  0  0  0  0
    3.2267    1.7221   -0.1614 C   0  0  0  0  0  0  0  0  0  0  0  0
    3.0283    0.4177   -0.8175 N   0  0  0  0  0  0  0  0  0  0  0  0
   -1.9452   -0.5284    2.1814 H   0  0  0  0  0  0  0  0  0  0  0  0
   -1.6394    1.0719    1.3137 H   0  0  0  0  0  0  0  0  0  0  0  0
   -3.0211    0.0093    0.8496 H   0  0  0  0  0  0  0  0  0  0  0  0
   -0.2705   -1.1490    0.8186 H   0  0  0  0  0  0  0  0  0  0  0  0
   -2.3708   -3.8426    0.5564 H   0  0  0  0  0  0  0  0  0  0  0  0
   -2.9838   -2.5224    1.5768 H   0  0  0  0  0  0  0  0  0  0  0  0
   -1.7544    0.1761   -2.6843 H   0  0  0  0  0  0  0  0  0  0  0  0
   -1.4823    1.7481   -1.8203 H   0  0  0  0  0  0  0  0  0  0  0  0
   -2.7626    0.5960   -1.2676 H   0  0  0  0  0  0  0  0  0  0  0  0
    1.7579   -1.1392   -0.2007 H   0  0  0  0  0  0  0  0  0  0  0  0
    1.2500    0.1640    2.0061 H   0  0  0  0  0  0  0  0  0  0  0  0
    2.8778    2.1284    2.0832 H   0  0  0  0  0  0  0  0  0  0  0  0
    4.3052    1.9871   -0.1154 H   0  0  0  0  0  0  0  0  0  0  0  0
    2.6335    2.4453   -0.7409 H   0  0  0  0  0  0  0  0  0  0  0  0
    3.8273   -0.1813   -0.5224 H   0  0  0  0  0  0  0  0  0  0  0  0
  1  2  1  0
  2  3  1  0
  3  4  1  0
  3  5  2  0
  2  6  1  0
  6  7  1  0
  6  8  1  0
  8  9  2  0
  8 10  1  0
 10 11  1  0
 11 12  2  0
 12 13  1  0
 13 14  1  0
 14 10  1  0
  1 15  1  0
  1 16  1  0
  1 17  1  0
  2 18  1  1
  4 19  1  0
  4 20  1  0
  7 21  1  0
  7 22  1  0
  7 23  1  0
 10 24  1  1
 11 25  1  0
 12 26  1  0
 13 27  1  0
 13 28  1  0
 14 29  1  0
M  END
$$$$

     RDKit          3D

 29 29  0  0  0  0  0  0  0  0999 V2000
    2.3636    1.4097    0.2027 C   0  0  0  0  0  0  0  0  0  0  0  0
    2.1210   -0.0390   -0.2758 C   0  0  1  0  0  0  0  0  0  0  0  0
    2.6078   -0.9986    0.7137 C   0  0  0  0  0  0  0  0  0  0  0  0
    4.0191   -0.9966    0.9913 N   0  0  0  0  0  0  0  0  0  0  0  0
    1.9075   -1.8225    1.3410 O   0  0  0  0  0  0  0  0  0  0  0  0
    0.7061   -0.0490   -0.5670 N   0  0  0  0  0  0  0  0  0  0  0  0
    0.3197   -0.2421   -1.9827 C   0  0  0  0  0  0  0  0  0  0  0  0
   -0.3323    0.0417    0.3994 C   0  0  0  0  0  0  0  0  0  0  0  0
   -0.0272   -0.1717    1.6053 O   0  0  0  0  0  0  0  0  0  0  0  0
   -1.7025    0.3628    0.1090 C   0  0  2  0  0  0  0  0  0  0  0  0
   -2.5373    0.1119    1.3954 C   0  0  0  0  0  0  0  0  0  0  0  0
   -3.7631   -0.0023    0.9473 C   0  0  0  0  0  0  0  0  0  0  0  0
   -3.7501    0.1834   -0.5927 C   0  0  0  0  0  0  0  0  0  0  0  0
   -2.4462   -0.5140   -0.7808 N   0  0  0  0  0  0  0  0  0  0  0  0
    1.5730    2.0701   -0.2570 H   0  0  0  0  0  0  0  0  0  0  0  0
    2.2783    1.5096    1.2972 H   0  0  0  0  0  0  0  0  0  0  0  0
    3.3879    1.7175   -0.1370 H   0  0  0  0  0  0  0  0  0  0  0  0
    2.7504   -0.1935   -1.2034 H   0  0  0  0  0  0  0  0  0  0  0  0
    4.6274   -1.7161    0.5721 H   0  0  0  0  0  0  0  0  0  0  0  0
    4.4122   -0.2584    1.6430 H   0  0  0  0  0  0  0  0  0  0  0  0
    1.1782   -0.0753   -2.6435 H   0  0  0  0  0  0  0  0  0  0  0  0
    0.1497   -1.3780   -2.0648 H   0  0  0  0  0  0  0  0  0  0  0  0
   -0.5445    0.3437   -2.2595 H   0  0  0  0  0  0  0  0  0  0  0  0
   -1.9087    1.4068   -0.1463 H   0  0  0  0  0  0  0  0  0  0  0  0
   -2.0848    0.0711    2.3679 H   0  0  0  0  0  0  0  0  0  0  0  0
   -4.5994   -0.2192    1.5672 H   0  0  0  0  0  0  0  0  0  0  0  0
   -3.5808    1.2353   -0.7848 H   0  0  0  0  0  0  0  0  0  0  0  0
   -4.5652   -0.3325   -1.0769 H   0  0  0  0  0  0  0  0  0  0  0  0
   -2.5597   -1.4548   -0.3805 H   0  0  0  0  0  0  0  0  0  0  0  0
  1  2  1  0
  2  3  1  0
  3  4  1  0
  3  5  2  0
  2  6  1  0
  6  7  1  0
  6  8  1  0
  8  9  2  0
  8 10  1  0
 10 11  1  0
 11 12  2  0
 12 13  1  0
 13 14  1  0
 14 10  1  0
  1 15  1  0
  1 16  1  0
  1 17  1  0
  2 18  1  6
  4 19  1  0
  4 20  1  0
  7 21  1  0
  7 22  1  0
  7 23  1  0
 10 24  1  6
 11 25  1  0
 12 26  1  0
 13 27  1  0
 13 28  1  0
 14 29  1  0
M  END
$$$$

     RDKit          3D

 29 29  0  0  0  0  0  0  0  0999 V2000
   -2.7069   -0.3852   -1.2956 C   0  0  0  0  0  0  0  0  0  0  0  0
   -1.8192    0.5469   -0.4661 C   0  0  1  0  0  0  0  0  0  0  0  0
   -2.5821    1.0522    0.6742 C   0  0  0  0  0  0  0  0  0  0  0  0
   -3.7776    1.7952    0.5079 N   0  0  0  0  0  0  0  0  0  0  0  0
   -2.1897    0.8362    1.8474 O   0  0  0  0  0  0  0  0  0  0  0  0
   -0.6428   -0.1806   -0.1178 N   0  0  0  0  0  0  0  0  0  0  0  0
   -0.7115   -1.3229    0.7516 C   0  0  0  0  0  0  0  0  0  0  0  0
    0.6157    0.2138   -0.6268 C   0  0  0  0  0  0  0  0  0  0  0  0
    0.6730    1.2223   -1.3948 O   0  0  0  0  0  0  0  0  0  0  0  0
    1.8742   -0.4940   -0.3070 C   0  0  2  0  0  0  0  0  0  0  0  0
    2.2345   -0.4185    1.1319 C   0  0  0  0  0  0  0  0  0  0  0  0
    3.5385   -0.2384    1.2138 C   0  0  0  0  0  0  0  0  0  0  0  0
    4.0944   -0.1872   -0.1596 C   0  0  0  0  0  0  0  0  0  0  0  0
    2.9639    0.1635   -0.9908 N   0  0  0  0  0  0  0  0  0  0  0  0
   -3.2768   -1.0245   -0.6004 H   0  0  0  0  0  0  0  0  0  0  0  0
   -3.4696    0.2741   -1.7930 H   0  0  0  0  0  0  0  0  0  0  0  0
   -2.1148   -0.9521   -2.0224 H   0  0  0  0  0  0  0  0  0  0  0  0
   -1.5950    1.4073   -1.1511 H   0  0  0  0  0  0  0  0  0  0  0  0
   -4.3503    1.6999   -0.3568 H   0  0  0  0  0  0  0  0  0  0  0  0
   -4.1090    2.4475    1.2380 H   0  0  0  0  0  0  0  0  0  0  0  0
    0.1581   -1.9722    0.5546 H   0  0  0  0  0  0  0  0  0  0  0  0
   -1.6133   -1.9557    0.5235 H   0  0  0  0  0  0  0  0  0  0  0  0
   -0.7809   -1.0274    1.8196 H   0  0  0  0  0  0  0  0  0  0  0  0
    1.7909   -1.5265   -0.6674 H   0  0  0  0  0  0  0  0  0  0  0  0
    1.5528   -0.4969    1.9517 H   0  0  0  0  0  0  0  0  0  0  0  0
    4.1096   -0.1433    2.1435 H   0  0  0  0  0  0  0  0  0  0  0  0
    4.8445    0.6405   -0.2624 H   0  0  0  0  0  0  0  0  0  0  0  0
    4.5111   -1.1695   -0.4593 H   0  0  0  0  0  0  0  0  0  0  0  0
    2.7781    1.1955   -0.9397 H   0  0  0  0  0  0  0  0  0  0  0  0
  1  2  1  0
  2  3  1  0
  3  4  1  0
  3  5  2  0
  2  6  1  0
  6  7  1  0
  6  8  1  0
  8  9  2  0
  8 10  1  0
 10 11  1  0
 11 12  2  0
 12 13  1  0
 13 14  1  0
 14 10  1  0
  1 15  1  0
  1 16  1  0
  1 17  1  0
  2 18  1  6
  4 19  1  0
  4 20  1  0
  7 21  1  0
  7 22  1  0
  7 23  1  0
 10 24  1  6
 11 25  1  0
 12 26  1  0
 13 27  1  0
 13 28  1  0
 14 29  1  0
M  END
$$$$

     RDKit          3D

 29 29  0  0  0  0  0  0  0  0999 V2000
   -1.6103    1.3221   -1.4636 C   0  0  0  0  0  0  0  0  0  0  0  0
   -1.2547    0.6346   -0.1447 C   0  0  1  0  0  0  0  0  0  0  0  0
   -2.4236    0.7076    0.7631 C   0  0  0  0  0  0  0  0  0  0  0  0
   -3.0395   -0.4442    1.2970 N   0  0  0  0  0  0  0  0  0  0  0  0
   -2.8810    1.8273    1.0673 O   0  0  0  0  0  0  0  0  0  0  0  0
   -0.8447   -0.7252   -0.3986 N   0  0  0  0  0  0  0  0  0  0  0  0
   -1.7427   -1.7281   -0.9373 C   0  0  0  0  0  0  0  0  0  0  0  0
    0.4841   -1.1093   -0.1151 C   0  0  0  0  0  0  0  0  0  0  0  0
    0.8500   -2.2966   -0.3164 O   0  0  0  0  0  0  0  0  0  0  0  0
    1.5053   -0.1725    0.4216 C   0  0  2  0  0  0  0  0  0  0  0  0
    1.9028    0.8177   -0.6209 C   0  0  0  0  0  0  0  0  0  0  0  0
    3.1757    1.1048   -0.4008 C   0  0  0  0  0  0  0  0  0  0  0  0
    3.6521    0.3165    0.7847 C   0  0  0  0  0  0  0  0  0  0  0  0
    2.7670   -0.8614    0.6674 N   0  0  0  0  0  0  0  0  0  0  0  0
   -1.5240    0.5610   -2.2653 H   0  0  0  0  0  0  0  0  0  0  0  0
   -2.6628    1.7083   -1.4034 H   0  0  0  0  0  0  0  0  0  0  0  0
   -0.9230    2.1488   -1.6442 H   0  0  0  0  0  0  0  0  0  0  0  0
   -0.3818    1.1895    0.2688 H   0  0  0  0  0  0  0  0  0  0  0  0
   -3.9486   -0.8127    0.9416 H   0  0  0  0  0  0  0  0  0  0  0  0
   -2.5985   -0.9757    2.0790 H   0  0  0  0  0  0  0  0  0  0  0  0
   -2.7231   -1.2949   -1.2258 H   0  0  0  0  0  0  0  0  0  0  0  0
   -1.3307   -2.1770   -1.8821 H   0  0  0  0  0  0  0  0  0  0  0  0
   -1.8866   -2.5809   -0.2321 H   0  0  0  0  0  0  0  0  0  0  0  0
    1.1730    0.2940    1.3539 H   0  0  0  0  0  0  0  0  0  0  0  0
    1.2835    1.2369   -1.4224 H   0  0  0  0  0  0  0  0  0  0  0  0
    3.7582    1.7966   -0.9900 H   0  0  0  0  0  0  0  0  0  0  0  0
    4.6769   -0.0328    0.6381 H   0  0  0  0  0  0  0  0  0  0  0  0
    3.5092    0.8415    1.7296 H   0  0  0  0  0  0  0  0  0  0  0  0
    3.0380   -1.2959   -0.2646 H   0  0  0  0  0  0  0  0  0  0  0  0
  1  2  1  0
  2  3  1  0
  3  4  1  0
  3  5  2  0
  2  6  1  0
  6  7  1  0
  6  8  1  0
  8  9  2  0
  8 10  1  0
 10 11  1  0
 11 12  2  0
 12 13  1  0
 13 14  1  0
 14 10  1  0
  1 15  1  0
  1 16  1  0
  1 17  1  0
  2 18  1  1
  4 19  1  0
  4 20  1  0
  7 21  1  0
  7 22  1  0
  7 23  1  0
 10 24  1  1
 11 25  1  0
 12 26  1  0
 13 27  1  0
 13 28  1  0
 14 29  1  0
M  END
$$$$

     RDKit          3D

 29 29  0  0  0  0  0  0  0  0999 V2000
    1.2300   -1.2907    1.7966 C   0  0  0  0  0  0  0  0  0  0  0  0
    1.1131   -0.1542    0.8170 C   0  0  1  0  0  0  0  0  0  0  0  0
    2.3291    0.6862    0.7609 C   0  0  0  0  0  0  0  0  0  0  0  0
    3.0475    0.9657   -0.4197 N   0  0  0  0  0  0  0  0  0  0  0  0
    2.7219    1.1678    1.8537 O   0  0  0  0  0  0  0  0  0  0  0  0
    0.8373   -0.6007   -0.5226 N   0  0  0  0  0  0  0  0  0  0  0  0
    1.7826   -1.4660   -1.1978 C   0  0  0  0  0  0  0  0  0  0  0  0
   -0.3445   -0.2097   -1.1970 C   0  0  0  0  0  0  0  0  0  0  0  0
   -0.5637   -0.5957   -2.3585 O   0  0  0  0  0  0  0  0  0  0  0  0
   -1.3067    0.6564   -0.5078 C   0  0  2  0  0  0  0  0  0  0  0  0
   -2.0315   -0.0632    0.5873 C   0  0  0  0  0  0  0  0  0  0  0  0
   -3.2384    0.4859    0.6614 C   0  0  0  0  0  0  0  0  0  0  0  0
   -3.3302    1.5743   -0.3819 C   0  0  0  0  0  0  0  0  0  0  0  0
   -2.4456    0.9663   -1.3936 N   0  0  0  0  0  0  0  0  0  0  0  0
    0.6957   -2.1751    1.3840 H   0  0  0  0  0  0  0  0  0  0  0  0
    2.2567   -1.5912    2.0164 H   0  0  0  0  0  0  0  0  0  0  0  0
    0.7389   -1.0556    2.7661 H   0  0  0  0  0  0  0  0  0  0  0  0
    0.3009    0.5046    1.1981 H   0  0  0  0  0  0  0  0  0  0  0  0
    2.8185    1.7814   -1.0265 H   0  0  0  0  0  0  0  0  0  0  0  0
    3.8526    0.3730   -0.7582 H   0  0  0  0  0  0  0  0  0  0  0  0
    2.5650   -1.7980   -0.4906 H   0  0  0  0  0  0  0  0  0  0  0  0
    1.2880   -2.3721   -1.5761 H   0  0  0  0  0  0  0  0  0  0  0  0
    2.2463   -0.9217   -2.0454 H   0  0  0  0  0  0  0  0  0  0  0  0
   -0.8885    1.5970   -0.1323 H   0  0  0  0  0  0  0  0  0  0  0  0
   -1.6464   -0.8692    1.1926 H   0  0  0  0  0  0  0  0  0  0  0  0
   -4.0024    0.1904    1.3527 H   0  0  0  0  0  0  0  0  0  0  0  0
   -2.8075    2.4665   -0.0282 H   0  0  0  0  0  0  0  0  0  0  0  0
   -4.3419    1.7196   -0.7466 H   0  0  0  0  0  0  0  0  0  0  0  0
   -2.8767    0.0281   -1.6036 H   0  0  0  0  0  0  0  0  0  0  0  0
  1  2  1  0
  2  3  1  0
  3  4  1  0
  3  5  2  0
  2  6  1  0
  6  7  1  0
  6  8  1  0
  8  9  2  0
  8 10  1  0
 10 11  1  0
 11 12  2  0
 12 13  1  0
 13 14  1  0
 14 10  1  0
  1 15  1  0
  1 16  1  0
  1 17  1  0
  2 18  1  1
  4 19  1  0
  4 20  1  0
  7 21  1  0
  7 22  1  0
  7 23  1  0
 10 24  1  1
 11 25  1  0
 12 26  1  0
 13 27  1  0
 13 28  1  0
 14 29  1  0
M  END
$$$$

     RDKit          3D

 29 29  0  0  0  0  0  0  0  0999 V2000
    1.9589    1.1252   -1.5136 C   0  0  0  0  0  0  0  0  0  0  0  0
    2.0218   -0.1064   -0.6305 C   0  0  1  0  0  0  0  0  0  0  0  0
    2.7222    0.2781    0.6135 C   0  0  0  0  0  0  0  0  0  0  0  0
    4.0292    0.8127    0.5649 N   0  0  0  0  0  0  0  0  0  0  0  0
    2.1369    0.1213    1.7068 O   0  0  0  0  0  0  0  0  0  0  0  0
    0.7077   -0.6263   -0.3520 N   0  0  0  0  0  0  0  0  0  0  0  0
    0.3786   -1.9832   -0.7527 C   0  0  0  0  0  0  0  0  0  0  0  0
   -0.2652    0.1695    0.3070 C   0  0  0  0  0  0  0  0  0  0  0  0
    0.0579    1.3366    0.6372 O   0  0  0  0  0  0  0  0  0  0  0  0
   -1.6332   -0.3348    0.6109 C   0  0  2  0  0  0  0  0  0  0  0  0
   -2.3876   -0.6529   -0.6319 C   0  0  0  0  0  0  0  0  0  0  0  0
   -3.6041   -0.1421   -0.4954 C   0  0  0  0  0  0  0  0  0  0  0  0
   -3.7689    0.5405    0.8055 C   0  0  0  0  0  0  0  0  0  0  0  0
   -2.4123    0.6820    1.2846 N   0  0  0  0  0  0  0  0  0  0  0  0
    1.9088    2.0269   -0.8461 H   0  0  0  0  0  0  0  0  0  0  0  0
    1.1456    1.0931   -2.2394 H   0  0  0  0  0  0  0  0  0  0  0  0
    2.9168    1.1725   -2.0728 H   0  0  0  0  0  0  0  0  0  0  0  0
    2.6384   -0.8628   -1.1449 H   0  0  0  0  0  0  0  0  0  0  0  0
    4.3241    1.5418   -0.1158 H   0  0  0  0  0  0  0  0  0  0  0  0
    4.7702    0.4821    1.2350 H   0  0  0  0  0  0  0  0  0  0  0  0
    1.2767   -2.6177   -0.5328 H   0  0  0  0  0  0  0  0  0  0  0  0
    0.1920   -2.0380   -1.8429 H   0  0  0  0  0  0  0  0  0  0  0  0
   -0.4508   -2.4127   -0.1578 H   0  0  0  0  0  0  0  0  0  0  0  0
   -1.6015   -1.2298    1.2718 H   0  0  0  0  0  0  0  0  0  0  0  0
   -2.0291   -1.1974   -1.4962 H   0  0  0  0  0  0  0  0  0  0  0  0
   -4.3744   -0.2294   -1.2677 H   0  0  0  0  0  0  0  0  0  0  0  0
   -4.2574    1.5425    0.7111 H   0  0  0  0  0  0  0  0  0  0  0  0
   -4.3349   -0.1006    1.5201 H   0  0  0  0  0  0  0  0  0  0  0  0
   -2.0665    1.6093    0.8959 H   0  0  0  0  0  0  0  0  0  0  0  0
  1  2  1  0
  2  3  1  0
  3  4  1  0
  3  5  2  0
  2  6  1  0
  6  7  1  0
  6  8  1  0
  8  9  2  0
  8 10  1  0
 10 11  1  0
 11 12  2  0
 12 13  1  0
 13 14  1  0
 14 10  1  0
  1 15  1  0
  1 16  1  0
  1 17  1  0
  2 18  1  6
  4 19  1  0
  4 20  1  0
  7 21  1  0
  7 22  1  0
  7 23  1  0
 10 24  1  1
 11 25  1  0
 12 26  1  0
 13 27  1  0
 13 28  1  0
 14 29  1  0
M  END
$$$$

     RDKit          3D

 29 29  0  0  0  0  0  0  0  0999 V2000
   -1.5809    0.7468   -1.9165 C   0  0  0  0  0  0  0  0  0  0  0  0
   -1.2740    0.2748   -0.5142 C   0  0  1  0  0  0  0  0  0  0  0  0
   -2.5359    0.3364    0.2757 C   0  0  0  0  0  0  0  0  0  0  0  0
   -3.2727    1.5340    0.3941 N   0  0  0  0  0  0  0  0  0  0  0  0
   -2.9929   -0.6931    0.8721 O   0  0  0  0  0  0  0  0  0  0  0  0
   -0.6952   -1.0443   -0.4961 N   0  0  0  0  0  0  0  0  0  0  0  0
   -1.4577   -2.1635   -0.9891 C   0  0  0  0  0  0  0  0  0  0  0  0
    0.5923   -1.2452   -0.0068 C   0  0  0  0  0  0  0  0  0  0  0  0
    1.0727   -2.4209   -0.0035 O   0  0  0  0  0  0  0  0  0  0  0  0
    1.4811   -0.1918    0.5251 C   0  0  2  0  0  0  0  0  0  0  0  0
    1.9211    0.6314   -0.6642 C   0  0  0  0  0  0  0  0  0  0  0  0
    3.1632    1.0475   -0.4557 C   0  0  0  0  0  0  0  0  0  0  0  0
    3.5598    0.5097    0.8667 C   0  0  0  0  0  0  0  0  0  0  0  0
    2.7602   -0.6934    0.9687 N   0  0  0  0  0  0  0  0  0  0  0  0
   -0.8390    1.4768   -2.2992 H   0  0  0  0  0  0  0  0  0  0  0  0
   -2.6110    1.0842   -1.9860 H   0  0  0  0  0  0  0  0  0  0  0  0
   -1.4584   -0.1584   -2.5809 H   0  0  0  0  0  0  0  0  0  0  0  0
   -0.5438    1.0198   -0.0963 H   0  0  0  0  0  0  0  0  0  0  0  0
   -2.7748    2.4323    0.4998 H   0  0  0  0  0  0  0  0  0  0  0  0
   -4.3057    1.5292    0.3769 H   0  0  0  0  0  0  0  0  0  0  0  0
   -2.5298   -1.9034   -1.1729 H   0  0  0  0  0  0  0  0  0  0  0  0
   -1.0798   -2.4989   -1.9994 H   0  0  0  0  0  0  0  0  0  0  0  0
   -1.3571   -3.0653   -0.3435 H   0  0  0  0  0  0  0  0  0  0  0  0
    1.0537    0.4512    1.2867 H   0  0  0  0  0  0  0  0  0  0  0  0
    1.3560    0.8656   -1.5515 H   0  0  0  0  0  0  0  0  0  0  0  0
    3.7457    1.6643   -1.1475 H   0  0  0  0  0  0  0  0  0  0  0  0
    4.6426    0.3104    0.9453 H   0  0  0  0  0  0  0  0  0  0  0  0
    3.1943    1.2110    1.6434 H   0  0  0  0  0  0  0  0  0  0  0  0
    2.7659   -1.0474    1.9357 H   0  0  0  0  0  0  0  0  0  0  0  0
  1  2  1  0
  2  3  1  0
  3  4  1  0
  3  5  2  0
  2  6  1  0
  6  7  1  0
  6  8  1  0
  8  9  2  0
  8 10  1  0
 10 11  1  0
 11 12  2  0
 12 13  1  0
 13 14  1  0
 14 10  1  0
  1 15  1  0
  1 16  1  0
  1 17  1  0
  2 18  1  1
  4 19  1  0
  4 20  1  0
  7 21  1  0
  7 22  1  0
  7 23  1  0
 10 24  1  1
 11 25  1  0
 12 26  1  0
 13 27  1  0
 13 28  1  0
 14 29  1  0
M  END
$$$$
