
     RDKit          3D

 25 25  0  0  0  0  0  0  0  0999 V2000
    1.9947   -2.0402    0.7150 O   0  0  0  0  0  0  0  0  0  0  0  0
    1.6695   -0.8554    0.4161 C   0  0  0  0  0  0  0  0  0  0  0  0
    2.7705    0.1060    0.0710 C   0  0  0  0  0  0  0  0  0  0  0  0
    4.0094   -0.5260    0.1474 O   0  0  0  0  0  0  0  0  0  0  0  0
    0.3138   -0.4717    0.4131 N   0  0  0  0  0  0  0  0  0  0  0  0
   -0.7893   -1.3394    0.7315 C   0  0  0  0  0  0  0  0  0  0  0  0
   -2.0022   -0.7164    0.0680 C   0  0  2  0  0  0  0  0  0  0  0  0
   -2.3422   -1.5429   -1.0087 O   0  0  0  0  0  0  0  0  0  0  0  0
   -1.5871    0.6467   -0.4312 C   0  0  2  0  0  0  0  0  0  0  0  0
   -1.6051    0.6529   -1.8258 O   0  0  0  0  0  0  0  0  0  0  0  0
   -0.1792    0.8303    0.0951 C   0  0  1  0  0  0  0  0  0  0  0  0
   -0.2562    1.7412    1.3046 C   0  0  0  0  0  0  0  0  0  0  0  0
   -0.7338    2.9545    0.9105 F   0  0  0  0  0  0  0  0  0  0  0  0
    2.7541    0.9449    0.7861 H   0  0  0  0  0  0  0  0  0  0  0  0
    2.5964    0.4630   -0.9639 H   0  0  0  0  0  0  0  0  0  0  0  0
    3.9084   -1.5081    0.2422 H   0  0  0  0  0  0  0  0  0  0  0  0
   -0.9627   -1.3832    1.8443 H   0  0  0  0  0  0  0  0  0  0  0  0
   -0.6020   -2.3740    0.3904 H   0  0  0  0  0  0  0  0  0  0  0  0
   -2.8675   -0.6575    0.7334 H   0  0  0  0  0  0  0  0  0  0  0  0
   -2.8057   -2.3518   -0.6807 H   0  0  0  0  0  0  0  0  0  0  0  0
   -2.2593    1.4337   -0.0395 H   0  0  0  0  0  0  0  0  0  0  0  0
   -1.2933    1.5492   -2.1380 H   0  0  0  0  0  0  0  0  0  0  0  0
    0.4548    1.3085   -0.6488 H   0  0  0  0  0  0  0  0  0  0  0  0
   -0.9323    1.3303    2.0810 H   0  0  0  0  0  0  0  0  0  0  0  0
    0.7462    1.8054    1.7710 H   0  0  0  0  0  0  0  0  0  0  0  0
  1  2  2  0
  2  3  1  0
  3  4  1  0
  2  5  1  0
  5  6  1  0
  6  7  1  0
  7  8  1  0
  7  9  1  0
  9 10  1  0
  9 11  1  0
 11 12  1  0
 12 13  1  0
 11  5  1  0
  3 14  1  0
  3 15  1  0
  4 16  1  0
  6 17  1  0
  6 18  1  0
  7 19  1  1
  8 20  1  0
  9 21  1  1
 10 22  1  0
 11 23  1  6
 12 24  1  0
 12 25  1  0
M  END
$$$$

     RDKit          3D

 25 25  0  0  0  0  0  0  0  0999 V2000
    2.3261    1.6489    0.0969 O   0  0  0  0  0  0  0  0  0  0  0  0
    1.7822    0.4837    0.1990 C   0  0  0  0  0  0  0  0  0  0  0  0
    2.6977   -0.6519    0.3705 C   0  0  0  0  0  0  0  0  0  0  0  0
    4.0413   -0.1815    0.3983 O   0  0  0  0  0  0  0  0  0  0  0  0
    0.3911    0.4242    0.1362 N   0  0  0  0  0  0  0  0  0  0  0  0
   -0.4278    1.6539   -0.0436 C   0  0  0  0  0  0  0  0  0  0  0  0
   -1.7138    1.1785   -0.6531 C   0  0  2  0  0  0  0  0  0  0  0  0
   -2.8082    1.6142    0.0815 O   0  0  0  0  0  0  0  0  0  0  0  0
   -1.6556   -0.3241   -0.7354 C   0  0  2  0  0  0  0  0  0  0  0  0
   -2.8027   -0.9368   -0.2545 O   0  0  0  0  0  0  0  0  0  0  0  0
   -0.5091   -0.6618    0.2150 C   0  0  1  0  0  0  0  0  0  0  0  0
    0.0383   -1.9903   -0.1737 C   0  0  0  0  0  0  0  0  0  0  0  0
   -1.0285   -2.9131   -0.0459 F   0  0  0  0  0  0  0  0  0  0  0  0
    2.6108   -1.3672   -0.4678 H   0  0  0  0  0  0  0  0  0  0  0  0
    2.5922   -1.1723    1.3430 H   0  0  0  0  0  0  0  0  0  0  0  0
    4.0383    0.7581    0.1065 H   0  0  0  0  0  0  0  0  0  0  0  0
   -0.5578    2.1341    0.9287 H   0  0  0  0  0  0  0  0  0  0  0  0
    0.0684    2.3512   -0.7309 H   0  0  0  0  0  0  0  0  0  0  0  0
   -1.8153    1.5617   -1.7038 H   0  0  0  0  0  0  0  0  0  0  0  0
   -2.6321    2.5195    0.4385 H   0  0  0  0  0  0  0  0  0  0  0  0
   -1.3898   -0.7013   -1.7377 H   0  0  0  0  0  0  0  0  0  0  0  0
   -3.5257   -0.2908   -0.0250 H   0  0  0  0  0  0  0  0  0  0  0  0
   -0.9285   -0.7430    1.2607 H   0  0  0  0  0  0  0  0  0  0  0  0
    0.4177   -1.9955   -1.1902 H   0  0  0  0  0  0  0  0  0  0  0  0
    0.7909   -2.3984    0.5393 H   0  0  0  0  0  0  0  0  0  0  0  0
  1  2  2  0
  2  3  1  0
  3  4  1  0
  2  5  1  0
  5  6  1  0
  6  7  1  0
  7  8  1  0
  7  9  1  0
  9 10  1  0
  9 11  1  0
 11 12  1  0
 12 13  1  0
 11  5  1  0
  3 14  1  0
  3 15  1  0
  4 16  1  0
  6 17  1  0
  6 18  1  0
  7 19  1  6
  8 20  1  0
  9 21  1  6
 10 22  1  0
 11 23  1  1
 12 24  1  0
 12 25  1  0
M  END
$$$$

     RDKit          3D

 25 25  0  0  0  0  0  0  0  0999 V2000
    2.1839    1.2804   -1.2719 O   0  0  0  0  0  0  0  0  0  0  0  0
    1.7249    0.5121   -0.3596 C   0  0  0  0  0  0  0  0  0  0  0  0
    2.6649    0.0240    0.6845 C   0  0  0  0  0  0  0  0  0  0  0  0
    3.9586    0.5474    0.4581 O   0  0  0  0  0  0  0  0  0  0  0  0
    0.3640    0.1747   -0.3949 N   0  0  0  0  0  0  0  0  0  0  0  0
   -0.5998    0.6118   -1.3631 C   0  0  0  0  0  0  0  0  0  0  0  0
   -1.9618    0.4498   -0.7205 C   0  0  2  0  0  0  0  0  0  0  0  0
   -2.6400    1.6661   -0.6515 O   0  0  0  0  0  0  0  0  0  0  0  0
   -1.7196   -0.1319    0.6584 C   0  0  2  0  0  0  0  0  0  0  0  0
   -1.8551    0.8211    1.6442 O   0  0  0  0  0  0  0  0  0  0  0  0
   -0.3052   -0.6829    0.5615 C   0  0  1  0  0  0  0  0  0  0  0  0
   -0.4244   -2.0972    0.0048 C   0  0  0  0  0  0  0  0  0  0  0  0
    0.7740   -2.6707   -0.2753 F   0  0  0  0  0  0  0  0  0  0  0  0
    2.2899    0.2846    1.6862 H   0  0  0  0  0  0  0  0  0  0  0  0
    2.7344   -1.0775    0.6225 H   0  0  0  0  0  0  0  0  0  0  0  0
    3.8574    1.4740    0.0868 H   0  0  0  0  0  0  0  0  0  0  0  0
   -0.3930    1.6582   -1.6343 H   0  0  0  0  0  0  0  0  0  0  0  0
   -0.5027   -0.0179   -2.2697 H   0  0  0  0  0  0  0  0  0  0  0  0
   -2.5923   -0.2344   -1.3247 H   0  0  0  0  0  0  0  0  0  0  0  0
   -2.1418    2.3451   -0.1221 H   0  0  0  0  0  0  0  0  0  0  0  0
   -2.4478   -0.9406    0.8516 H   0  0  0  0  0  0  0  0  0  0  0  0
   -1.0717    1.4111    1.7361 H   0  0  0  0  0  0  0  0  0  0  0  0
    0.1558   -0.7078    1.5530 H   0  0  0  0  0  0  0  0  0  0  0  0
   -1.0137   -2.6691    0.7661 H   0  0  0  0  0  0  0  0  0  0  0  0
   -1.0387   -2.0303   -0.9262 H   0  0  0  0  0  0  0  0  0  0  0  0
  1  2  2  0
  2  3  1  0
  3  4  1  0
  2  5  1  0
  5  6  1  0
  6  7  1  0
  7  8  1  0
  7  9  1  0
  9 10  1  0
  9 11  1  0
 11 12  1  0
 12 13  1  0
 11  5  1  0
  3 14  1  0
  3 15  1  0
  4 16  1  0
  6 17  1  0
  6 18  1  0
  7 19  1  6
  8 20  1  0
  9 21  1  1
 10 22  1  0
 11 23  1  1
 12 24  1  0
 12 25  1  0
M  END
$$$$

     RDKit          3D

 25 25  0  0  0  0  0  0  0  0999 V2000
    1.7323   -2.0857    0.2685 O   0  0  0  0  0  0  0  0  0  0  0  0
    1.6311   -0.8447    0.0282 C   0  0  0  0  0  0  0  0  0  0  0  0
    2.8848   -0.1160   -0.3057 C   0  0  0  0  0  0  0  0  0  0  0  0
    3.9772   -0.9445   -0.2953 O   0  0  0  0  0  0  0  0  0  0  0  0
    0.3682   -0.2138    0.0839 N   0  0  0  0  0  0  0  0  0  0  0  0
    0.1434    1.1932   -0.1724 C   0  0  0  0  0  0  0  0  0  0  0  0
   -1.3315    1.4020   -0.2374 C   0  0  2  0  0  0  0  0  0  0  0  0
   -1.6742    2.5833    0.4237 O   0  0  0  0  0  0  0  0  0  0  0  0
   -1.9040    0.2557    0.5387 C   0  0  2  0  0  0  0  0  0  0  0  0
   -1.9700    0.6172    1.9019 O   0  0  0  0  0  0  0  0  0  0  0  0
   -0.8743   -0.8479    0.3968 C   0  0  1  0  0  0  0  0  0  0  0  0
   -1.3476   -1.7671   -0.7094 C   0  0  0  0  0  0  0  0  0  0  0  0
   -0.4466   -2.7686   -0.9605 F   0  0  0  0  0  0  0  0  0  0  0  0
    3.0466    0.7076    0.4272 H   0  0  0  0  0  0  0  0  0  0  0  0
    2.7473    0.3862   -1.2917 H   0  0  0  0  0  0  0  0  0  0  0  0
    4.7607   -0.4343    0.0216 H   0  0  0  0  0  0  0  0  0  0  0  0
    0.5597    1.7539    0.7007 H   0  0  0  0  0  0  0  0  0  0  0  0
    0.6770    1.5253   -1.0884 H   0  0  0  0  0  0  0  0  0  0  0  0
   -1.6865    1.4254   -1.3028 H   0  0  0  0  0  0  0  0  0  0  0  0
   -1.8504    3.2605   -0.2613 H   0  0  0  0  0  0  0  0  0  0  0  0
   -2.9046   -0.0701    0.1636 H   0  0  0  0  0  0  0  0  0  0  0  0
   -1.8379   -0.2148    2.4294 H   0  0  0  0  0  0  0  0  0  0  0  0
   -0.8626   -1.4387    1.3336 H   0  0  0  0  0  0  0  0  0  0  0  0
   -2.3271   -2.1773   -0.4337 H   0  0  0  0  0  0  0  0  0  0  0  0
   -1.5111   -1.1868   -1.6594 H   0  0  0  0  0  0  0  0  0  0  0  0
  1  2  2  0
  2  3  1  0
  3  4  1  0
  2  5  1  0
  5  6  1  0
  6  7  1  0
  7  8  1  0
  7  9  1  0
  9 10  1  0
  9 11  1  0
 11 12  1  0
 12 13  1  0
 11  5  1  0
  3 14  1  0
  3 15  1  0
  4 16  1  0
  6 17  1  0
  6 18  1  0
  7 19  1  6
  8 20  1  0
  9 21  1  6
 10 22  1  0
 11 23  1  1
 12 24  1  0
 12 25  1  0
M  END
$$$$

     RDKit          3D

 25 25  0  0  0  0  0  0  0  0999 V2000
    2.5122    1.1185   -0.2956 O   0  0  0  0  0  0  0  0  0  0  0  0
    1.8101    0.1259    0.0803 C   0  0  0  0  0  0  0  0  0  0  0  0
    2.5287   -1.1231    0.3716 C   0  0  0  0  0  0  0  0  0  0  0  0
    3.9142   -0.8789    0.1951 O   0  0  0  0  0  0  0  0  0  0  0  0
    0.4079    0.3320    0.1797 N   0  0  0  0  0  0  0  0  0  0  0  0
   -0.2044    1.6528   -0.1302 C   0  0  0  0  0  0  0  0  0  0  0  0
   -1.3445    1.2457   -1.0054 C   0  0  2  0  0  0  0  0  0  0  0  0
   -2.2947    2.2410   -1.0858 O   0  0  0  0  0  0  0  0  0  0  0  0
   -1.8685    0.0317   -0.2584 C   0  0  2  0  0  0  0  0  0  0  0  0
   -2.8894    0.3854    0.6005 O   0  0  0  0  0  0  0  0  0  0  0  0
   -0.6898   -0.4854    0.5519 C   0  0  1  0  0  0  0  0  0  0  0  0
   -0.5420   -1.9514    0.3020 C   0  0  0  0  0  0  0  0  0  0  0  0
   -0.3465   -2.1414   -1.0548 F   0  0  0  0  0  0  0  0  0  0  0  0
    2.3647   -1.4133    1.4420 H   0  0  0  0  0  0  0  0  0  0  0  0
    2.1994   -1.9044   -0.3480 H   0  0  0  0  0  0  0  0  0  0  0  0
    4.2958   -0.4916    1.0220 H   0  0  0  0  0  0  0  0  0  0  0  0
    0.5082    2.3258   -0.5963 H   0  0  0  0  0  0  0  0  0  0  0  0
   -0.6247    2.0254    0.8375 H   0  0  0  0  0  0  0  0  0  0  0  0
   -0.9961    0.9399   -2.0102 H   0  0  0  0  0  0  0  0  0  0  0  0
   -1.9177    3.1392   -1.1997 H   0  0  0  0  0  0  0  0  0  0  0  0
   -2.1901   -0.7403   -0.9733 H   0  0  0  0  0  0  0  0  0  0  0  0
   -2.4875    0.6834    1.4680 H   0  0  0  0  0  0  0  0  0  0  0  0
   -0.8936   -0.3481    1.6429 H   0  0  0  0  0  0  0  0  0  0  0  0
    0.2689   -2.3467    0.9218 H   0  0  0  0  0  0  0  0  0  0  0  0
   -1.5205   -2.4218    0.5942 H   0  0  0  0  0  0  0  0  0  0  0  0
  1  2  2  0
  2  3  1  0
  3  4  1  0
  2  5  1  0
  5  6  1  0
  6  7  1  0
  7  8  1  0
  7  9  1  0
  9 10  1  0
  9 11  1  0
 11 12  1  0
 12 13  1  0
 11  5  1  0
  3 14  1  0
  3 15  1  0
  4 16  1  0
  6 17  1  0
  6 18  1  0
  7 19  1  6
  8 20  1  0
  9 21  1  6
 10 22  1  0
 11 23  1  1
 12 24  1  0
 12 25  1  0
M  END
$$$$

     RDKit          3D

 25 25  0  0  0  0  0  0  0  0999 V2000
    1.4690    2.3577   -0.2742 O   0  0  0  0  0  0  0  0  0  0  0  0
    1.5869    1.1120   -0.3344 C   0  0  0  0  0  0  0  0  0  0  0  0
    2.9428    0.5496   -0.4471 C   0  0  0  0  0  0  0  0  0  0  0  0
    2.9652   -0.8285   -0.5138 O   0  0  0  0  0  0  0  0  0  0  0  0
    0.4420    0.2958   -0.2939 N   0  0  0  0  0  0  0  0  0  0  0  0
    0.4879   -1.1650   -0.3556 C   0  0  0  0  0  0  0  0  0  0  0  0
   -0.9562   -1.6383   -0.1426 C   0  0  2  0  0  0  0  0  0  0  0  0
   -1.6217   -1.6504   -1.3564 O   0  0  0  0  0  0  0  0  0  0  0  0
   -1.4707   -0.4643    0.7026 C   0  0  2  0  0  0  0  0  0  0  0  0
   -2.8393   -0.4713    0.8180 O   0  0  0  0  0  0  0  0  0  0  0  0
   -0.9581    0.6592   -0.1916 C   0  0  1  0  0  0  0  0  0  0  0  0
   -1.2343    1.9664    0.4540 C   0  0  0  0  0  0  0  0  0  0  0  0
   -2.6324    2.1127    0.4515 F   0  0  0  0  0  0  0  0  0  0  0  0
    3.4998    0.9459   -1.3229 H   0  0  0  0  0  0  0  0  0  0  0  0
    3.5392    0.8975    0.4479 H   0  0  0  0  0  0  0  0  0  0  0  0
    3.4351   -1.1914    0.2719 H   0  0  0  0  0  0  0  0  0  0  0  0
    0.9005   -1.5503   -1.2858 H   0  0  0  0  0  0  0  0  0  0  0  0
    1.0415   -1.5418    0.5541 H   0  0  0  0  0  0  0  0  0  0  0  0
   -1.0095   -2.5756    0.4064 H   0  0  0  0  0  0  0  0  0  0  0  0
   -2.5315   -1.9885   -1.2187 H   0  0  0  0  0  0  0  0  0  0  0  0
   -0.9202   -0.4204    1.6417 H   0  0  0  0  0  0  0  0  0  0  0  0
   -3.0595   -0.8204    1.7291 H   0  0  0  0  0  0  0  0  0  0  0  0
   -1.3773    0.5894   -1.2091 H   0  0  0  0  0  0  0  0  0  0  0  0
   -0.9223    1.9806    1.5140 H   0  0  0  0  0  0  0  0  0  0  0  0
   -0.7771    2.8393   -0.0451 H   0  0  0  0  0  0  0  0  0  0  0  0
  1  2  2  0
  2  3  1  0
  3  4  1  0
  2  5  1  0
  5  6  1  0
  6  7  1  0
  7  8  1  0
  7  9  1  0
  9 10  1  0
  9 11  1  0
 11 12  1  0
 12 13  1  0
 11  5  1  0
  3 14  1  0
  3 15  1  0
  4 16  1  0
  6 17  1  0
  6 18  1  0
  7 19  1  1
  8 20  1  0
  9 21  1  1
 10 22  1  0
 11 23  1  6
 12 24  1  0
 12 25  1  0
M  END
$$$$

     RDKit          3D

 25 25  0  0  0  0  0  0  0  0999 V2000
    2.4259    1.0863   -0.9032 O   0  0  0  0  0  0  0  0  0  0  0  0
    1.8092    0.1671   -0.3098 C   0  0  0  0  0  0  0  0  0  0  0  0
    2.5841   -0.9475    0.3187 C   0  0  0  0  0  0  0  0  0  0  0  0
    3.9432   -0.7246    0.1094 O   0  0  0  0  0  0  0  0  0  0  0  0
    0.3970    0.2059   -0.2481 N   0  0  0  0  0  0  0  0  0  0  0  0
   -0.4184    1.2617   -0.8324 C   0  0  0  0  0  0  0  0  0  0  0  0
   -1.7862    1.1312   -0.2434 C   0  0  2  0  0  0  0  0  0  0  0  0
   -2.2080    2.3688    0.2485 O   0  0  0  0  0  0  0  0  0  0  0  0
   -1.5738    0.1954    0.9239 C   0  0  2  0  0  0  0  0  0  0  0  0
   -1.0288    0.8711    2.0086 O   0  0  0  0  0  0  0  0  0  0  0  0
   -0.5019   -0.7525    0.3838 C   0  0  1  0  0  0  0  0  0  0  0  0
   -1.0857   -1.6710   -0.6626 C   0  0  0  0  0  0  0  0  0  0  0  0
   -0.0717   -2.3348   -1.2819 F   0  0  0  0  0  0  0  0  0  0  0  0
    2.2906   -1.9242   -0.0661 H   0  0  0  0  0  0  0  0  0  0  0  0
    2.3710   -0.9092    1.4265 H   0  0  0  0  0  0  0  0  0  0  0  0
    4.0996   -0.1949   -0.7013 H   0  0  0  0  0  0  0  0  0  0  0  0
   -0.4200    1.0964   -1.9364 H   0  0  0  0  0  0  0  0  0  0  0  0
    0.0331    2.2298   -0.5490 H   0  0  0  0  0  0  0  0  0  0  0  0
   -2.5393    0.7029   -0.9331 H   0  0  0  0  0  0  0  0  0  0  0  0
   -1.6569    3.0694   -0.1780 H   0  0  0  0  0  0  0  0  0  0  0  0
   -2.5029   -0.3473    1.1874 H   0  0  0  0  0  0  0  0  0  0  0  0
   -0.7413    0.1857    2.6619 H   0  0  0  0  0  0  0  0  0  0  0  0
   -0.0281   -1.3294    1.1779 H   0  0  0  0  0  0  0  0  0  0  0  0
   -1.7715   -2.3872   -0.1778 H   0  0  0  0  0  0  0  0  0  0  0  0
   -1.6193   -1.0491   -1.4236 H   0  0  0  0  0  0  0  0  0  0  0  0
  1  2  2  0
  2  3  1  0
  3  4  1  0
  2  5  1  0
  5  6  1  0
  6  7  1  0
  7  8  1  0
  7  9  1  0
  9 10  1  0
  9 11  1  0
 11 12  1  0
 12 13  1  0
 11  5  1  0
  3 14  1  0
  3 15  1  0
  4 16  1  0
  6 17  1  0
  6 18  1  0
  7 19  1  6
  8 20  1  0
  9 21  1  1
 10 22  1  0
 11 23  1  1
 12 24  1  0
 12 25  1  0
M  END
$$$$

     RDKit          3D

 25 25  0  0  0  0  0  0  0  0999 V2000
    2.0148    1.6741    0.5287 O   0  0  0  0  0  0  0  0  0  0  0  0
    1.7555    0.5912   -0.0525 C   0  0  0  0  0  0  0  0  0  0  0  0
    2.8782   -0.2774   -0.4846 C   0  0  0  0  0  0  0  0  0  0  0  0
    4.1051    0.2561   -0.1696 O   0  0  0  0  0  0  0  0  0  0  0  0
    0.4083    0.2613   -0.2622 N   0  0  0  0  0  0  0  0  0  0  0  0
   -0.0584   -0.9663   -0.9257 C   0  0  0  0  0  0  0  0  0  0  0  0
   -1.0838   -1.3959    0.1032 C   0  0  2  0  0  0  0  0  0  0  0  0
   -1.8424   -2.4694   -0.3276 O   0  0  0  0  0  0  0  0  0  0  0  0
   -1.8853   -0.1147    0.2093 C   0  0  2  0  0  0  0  0  0  0  0  0
   -2.7184    0.0000   -0.8863 O   0  0  0  0  0  0  0  0  0  0  0  0
   -0.8071    0.9518    0.0729 C   0  0  1  0  0  0  0  0  0  0  0  0
   -0.7165    1.7395    1.3478 C   0  0  0  0  0  0  0  0  0  0  0  0
   -0.4274    0.9774    2.4447 F   0  0  0  0  0  0  0  0  0  0  0  0
    2.8614   -0.4003   -1.6071 H   0  0  0  0  0  0  0  0  0  0  0  0
    2.8246   -1.2928   -0.0247 H   0  0  0  0  0  0  0  0  0  0  0  0
    4.6332    0.5522   -0.9468 H   0  0  0  0  0  0  0  0  0  0  0  0
   -0.6152   -0.6319   -1.8221 H   0  0  0  0  0  0  0  0  0  0  0  0
    0.7274   -1.6797   -1.1030 H   0  0  0  0  0  0  0  0  0  0  0  0
   -0.5611   -1.5846    1.0633 H   0  0  0  0  0  0  0  0  0  0  0  0
   -2.6089   -2.5514    0.3083 H   0  0  0  0  0  0  0  0  0  0  0  0
   -2.4190   -0.0352    1.1742 H   0  0  0  0  0  0  0  0  0  0  0  0
   -3.6820   -0.0314   -0.6553 H   0  0  0  0  0  0  0  0  0  0  0  0
   -1.0365    1.6611   -0.7455 H   0  0  0  0  0  0  0  0  0  0  0  0
   -0.0175    2.5829    1.2391 H   0  0  0  0  0  0  0  0  0  0  0  0
   -1.7289    2.1833    1.5218 H   0  0  0  0  0  0  0  0  0  0  0  0
  1  2  2  0
  2  3  1  0
  3  4  1  0
  2  5  1  0
  5  6  1  0
  6  7  1  0
  7  8  1  0
  7  9  1  0
  9 10  1  0
  9 11  1  0
 11 12  1  0
 12 13  1  0
 11  5  1  0
  3 14  1  0
  3 15  1  0
  4 16  1  0
  6 17  1  0
  6 18  1  0
  7 19  1  1
  8 20  1  0
  9 21  1  1
 10 22  1  0
 11 23  1  6
 12 24  1  0
 12 25  1  0
M  END
$$$$
