
     RDKit          3D

 27 29  0  0  0  0  0  0  0  0999 V2000
    2.7857   -1.1612   -0.0508 C   0  0  0  0  0  0  0  0  0  0  0  0
    2.5366    0.2368   -0.1883 N   0  0  0  0  0  0  0  0  0  0  0  0
    3.5296    1.1363   -0.4345 N   0  0  0  0  0  0  0  0  0  0  0  0
    2.9724    2.3099   -0.6203 N   0  0  0  0  0  0  0  0  0  0  0  0
    1.6846    2.1694   -0.4991 N   0  0  0  0  0  0  0  0  0  0  0  0
    1.3730    0.8664   -0.2236 C   0  0  0  0  0  0  0  0  0  0  0  0
    0.0185    0.4019    0.1166 C   0  0  2  0  0  0  0  0  0  0  0  0
   -0.6506    1.4558    0.7984 O   0  0  0  0  0  0  0  0  0  0  0  0
   -0.1021   -0.7854    0.9858 C   0  0  0  0  0  0  0  0  0  0  0  0
   -1.5625   -0.7763    1.4714 C   0  0  0  0  0  0  0  0  0  0  0  0
   -2.4802   -0.8079    0.4092 N   0  0  0  0  0  0  0  0  0  0  0  0
   -2.1023   -0.5103   -0.8830 C   0  0  1  0  0  0  0  0  0  0  0  0
   -2.0718    0.9511   -1.3778 C   0  0  0  0  0  0  0  0  0  0  0  0
   -0.8069    0.1411   -1.1194 C   0  0  1  0  0  0  0  0  0  0  0  0
    2.4126   -1.7720   -0.8794 H   0  0  0  0  0  0  0  0  0  0  0  0
    3.8842   -1.3772    0.0527 H   0  0  0  0  0  0  0  0  0  0  0  0
    2.4217   -1.5257    0.9512 H   0  0  0  0  0  0  0  0  0  0  0  0
   -0.0862    2.2679    0.8267 H   0  0  0  0  0  0  0  0  0  0  0  0
    0.0231   -1.7269    0.5002 H   0  0  0  0  0  0  0  0  0  0  0  0
    0.4550   -0.5964    1.9167 H   0  0  0  0  0  0  0  0  0  0  0  0
   -1.6946    0.0609    2.1745 H   0  0  0  0  0  0  0  0  0  0  0  0
   -1.6955   -1.7174    2.0978 H   0  0  0  0  0  0  0  0  0  0  0  0
   -3.4762   -0.7596    0.6661 H   0  0  0  0  0  0  0  0  0  0  0  0
   -2.4704   -1.1907   -1.6752 H   0  0  0  0  0  0  0  0  0  0  0  0
   -2.3595    1.1945   -2.3934 H   0  0  0  0  0  0  0  0  0  0  0  0
   -2.3086    1.7133   -0.5987 H   0  0  0  0  0  0  0  0  0  0  0  0
   -0.2296   -0.1984   -2.0239 H   0  0  0  0  0  0  0  0  0  0  0  0
  1  2  1  0
  2  3  1  0
  3  4  2  0
  4  5  1  0
  5  6  2  0
  6  7  1  0
  7  8  1  1
  7  9  1  0
  9 10  1  0
 10 11  1  0
 11 12  1  0
 12 13  1  0
 13 14  1  0
  6  2  1  0
 14  7  1  0
 14 12  1  0
  1 15  1  0
  1 16  1  0
  1 17  1  0
  8 18  1  0
  9 19  1  0
  9 20  1  0
 10 21  1  0
 10 22  1  0
 11 23  1  0
 12 24  1  6
 13 25  1  0
 13 26  1  0
 14 27  1  6
M  END
$$$$

     RDKit          3D

 27 29  0  0  0  0  0  0  0  0999 V2000
    2.8058    0.8746    1.1689 C   0  0  0  0  0  0  0  0  0  0  0  0
    2.4091   -0.3917    0.7393 N   0  0  0  0  0  0  0  0  0  0  0  0
    3.2070   -1.4660    0.8901 N   0  0  0  0  0  0  0  0  0  0  0  0
    2.6073   -2.5257    0.4082 N   0  0  0  0  0  0  0  0  0  0  0  0
    1.4509   -2.1466   -0.0421 N   0  0  0  0  0  0  0  0  0  0  0  0
    1.3143   -0.7940    0.1626 C   0  0  0  0  0  0  0  0  0  0  0  0
    0.1185   -0.1279   -0.2503 C   0  0  2  0  0  0  0  0  0  0  0  0
   -0.0689   -0.3963   -1.6366 O   0  0  0  0  0  0  0  0  0  0  0  0
   -0.0904    1.2936   -0.0748 C   0  0  0  0  0  0  0  0  0  0  0  0
   -1.4629    1.6631   -0.6527 C   0  0  0  0  0  0  0  0  0  0  0  0
   -2.2449    0.5317   -1.0283 N   0  0  0  0  0  0  0  0  0  0  0  0
   -2.3590   -0.4795   -0.0125 C   0  0  1  0  0  0  0  0  0  0  0  0
   -1.8269   -1.8765   -0.3649 C   0  0  0  0  0  0  0  0  0  0  0  0
   -1.0386   -0.8560    0.4668 C   0  0  1  0  0  0  0  0  0  0  0  0
    3.8032    1.0849    0.6607 H   0  0  0  0  0  0  0  0  0  0  0  0
    2.2268    1.7478    1.0129 H   0  0  0  0  0  0  0  0  0  0  0  0
    3.1147    0.9118    2.2627 H   0  0  0  0  0  0  0  0  0  0  0  0
    0.0699    0.3994   -2.1730 H   0  0  0  0  0  0  0  0  0  0  0  0
   -0.1333    1.5917    0.9748 H   0  0  0  0  0  0  0  0  0  0  0  0
    0.6255    1.8639   -0.7126 H   0  0  0  0  0  0  0  0  0  0  0  0
   -2.0732    2.2584    0.0879 H   0  0  0  0  0  0  0  0  0  0  0  0
   -1.3919    2.3268   -1.5388 H   0  0  0  0  0  0  0  0  0  0  0  0
   -3.2110    0.8796   -1.2223 H   0  0  0  0  0  0  0  0  0  0  0  0
   -3.2191   -0.5117    0.6736 H   0  0  0  0  0  0  0  0  0  0  0  0
   -1.5103   -1.9827   -1.4362 H   0  0  0  0  0  0  0  0  0  0  0  0
   -2.2611   -2.7457    0.1181 H   0  0  0  0  0  0  0  0  0  0  0  0
   -0.8615   -1.1268    1.5187 H   0  0  0  0  0  0  0  0  0  0  0  0
  1  2  1  0
  2  3  1  0
  3  4  2  0
  4  5  1  0
  5  6  2  0
  6  7  1  0
  7  8  1  6
  7  9  1  0
  9 10  1  0
 10 11  1  0
 11 12  1  0
 12 13  1  0
 13 14  1  0
  6  2  1  0
 14  7  1  0
 14 12  1  0
  1 15  1  0
  1 16  1  0
  1 17  1  0
  8 18  1  0
  9 19  1  0
  9 20  1  0
 10 21  1  0
 10 22  1  0
 11 23  1  0
 12 24  1  1
 13 25  1  0
 13 26  1  0
 14 27  1  1
M  END
$$$$

     RDKit          3D

 27 29  0  0  0  0  0  0  0  0999 V2000
    3.2586   -0.1846    0.1812 C   0  0  0  0  0  0  0  0  0  0  0  0
    2.3728    0.0737   -0.9297 N   0  0  0  0  0  0  0  0  0  0  0  0
    2.7046    0.4514   -2.1435 N   0  0  0  0  0  0  0  0  0  0  0  0
    1.6455    0.5924   -2.8937 N   0  0  0  0  0  0  0  0  0  0  0  0
    0.6057    0.2926   -2.1254 N   0  0  0  0  0  0  0  0  0  0  0  0
    1.0342   -0.0328   -0.9001 C   0  0  0  0  0  0  0  0  0  0  0  0
    0.1318   -0.4225    0.2123 C   0  0  2  0  0  0  0  0  0  0  0  0
    0.8699   -0.7958    1.3457 O   0  0  0  0  0  0  0  0  0  0  0  0
   -0.6279   -1.6484   -0.2330 C   0  0  0  0  0  0  0  0  0  0  0  0
   -1.8779   -1.1830   -0.9523 C   0  0  0  0  0  0  0  0  0  0  0  0
   -2.7262   -0.5961    0.0620 N   0  0  0  0  0  0  0  0  0  0  0  0
   -2.1446    0.6159    0.5131 C   0  0  1  0  0  0  0  0  0  0  0  0
   -1.4817    0.5700    1.8841 C   0  0  0  0  0  0  0  0  0  0  0  0
   -0.7136    0.7323    0.5693 C   0  0  1  0  0  0  0  0  0  0  0  0
    3.0828   -1.1413    0.6835 H   0  0  0  0  0  0  0  0  0  0  0  0
    4.3104   -0.2468   -0.2253 H   0  0  0  0  0  0  0  0  0  0  0  0
    3.2508    0.6822    0.8914 H   0  0  0  0  0  0  0  0  0  0  0  0
    1.0960    0.0463    1.8525 H   0  0  0  0  0  0  0  0  0  0  0  0
   -0.9811   -2.1532    0.6989 H   0  0  0  0  0  0  0  0  0  0  0  0
   -0.0201   -2.3128   -0.8553 H   0  0  0  0  0  0  0  0  0  0  0  0
   -1.6662   -0.4247   -1.7181 H   0  0  0  0  0  0  0  0  0  0  0  0
   -2.4166   -2.0216   -1.4308 H   0  0  0  0  0  0  0  0  0  0  0  0
   -3.7084   -0.5221   -0.1990 H   0  0  0  0  0  0  0  0  0  0  0  0
   -2.7423    1.5420    0.3604 H   0  0  0  0  0  0  0  0  0  0  0  0
   -1.5612    1.4194    2.5592 H   0  0  0  0  0  0  0  0  0  0  0  0
   -1.4544   -0.4104    2.3881 H   0  0  0  0  0  0  0  0  0  0  0  0
   -0.2411    1.7309    0.4045 H   0  0  0  0  0  0  0  0  0  0  0  0
  1  2  1  0
  2  3  1  0
  3  4  2  0
  4  5  1  0
  5  6  2  0
  6  7  1  0
  7  8  1  1
  7  9  1  0
  9 10  1  0
 10 11  1  0
 11 12  1  0
 12 13  1  0
 13 14  1  0
  6  2  1  0
 14  7  1  0
 14 12  1  0
  1 15  1  0
  1 16  1  0
  1 17  1  0
  8 18  1  0
  9 19  1  0
  9 20  1  0
 10 21  1  0
 10 22  1  0
 11 23  1  0
 12 24  1  1
 13 25  1  0
 13 26  1  0
 14 27  1  1
M  END
$$$$

     RDKit          3D

 27 29  0  0  0  0  0  0  0  0999 V2000
    2.9632   -0.3709   -1.0441 C   0  0  0  0  0  0  0  0  0  0  0  0
    2.5942    0.2891    0.1975 N   0  0  0  0  0  0  0  0  0  0  0  0
    3.4326    0.7600    1.1266 N   0  0  0  0  0  0  0  0  0  0  0  0
    2.7579    1.2858    2.1243 N   0  0  0  0  0  0  0  0  0  0  0  0
    1.4865    1.1347    1.7979 N   0  0  0  0  0  0  0  0  0  0  0  0
    1.3713    0.5281    0.6243 C   0  0  0  0  0  0  0  0  0  0  0  0
    0.0909    0.2002   -0.0402 C   0  0  2  0  0  0  0  0  0  0  0  0
    0.3086    0.1660   -1.4368 O   0  0  0  0  0  0  0  0  0  0  0  0
   -0.8298    1.3901    0.1882 C   0  0  0  0  0  0  0  0  0  0  0  0
   -2.1770    0.9891   -0.3441 C   0  0  0  0  0  0  0  0  0  0  0  0
   -2.7357   -0.0103    0.4859 N   0  0  0  0  0  0  0  0  0  0  0  0
   -1.8858   -1.0697    0.8753 C   0  0  1  0  0  0  0  0  0  0  0  0
   -1.4005   -1.9357   -0.2792 C   0  0  0  0  0  0  0  0  0  0  0  0
   -0.4824   -1.0826    0.4723 C   0  0  1  0  0  0  0  0  0  0  0  0
    3.0268    0.4142   -1.8227 H   0  0  0  0  0  0  0  0  0  0  0  0
    2.2250   -1.1363   -1.3028 H   0  0  0  0  0  0  0  0  0  0  0  0
    3.9608   -0.8480   -0.9061 H   0  0  0  0  0  0  0  0  0  0  0  0
    0.3424    1.1160   -1.7417 H   0  0  0  0  0  0  0  0  0  0  0  0
   -0.4068    2.2593   -0.3440 H   0  0  0  0  0  0  0  0  0  0  0  0
   -0.8935    1.5594    1.2767 H   0  0  0  0  0  0  0  0  0  0  0  0
   -2.0440    0.7056   -1.4026 H   0  0  0  0  0  0  0  0  0  0  0  0
   -2.8267    1.8926   -0.3241 H   0  0  0  0  0  0  0  0  0  0  0  0
   -3.7141   -0.3075    0.2059 H   0  0  0  0  0  0  0  0  0  0  0  0
   -2.1739   -1.5874    1.8310 H   0  0  0  0  0  0  0  0  0  0  0  0
   -1.4367   -3.0165   -0.0581 H   0  0  0  0  0  0  0  0  0  0  0  0
   -1.7714   -1.6998   -1.3058 H   0  0  0  0  0  0  0  0  0  0  0  0
    0.2182   -1.6254    1.1463 H   0  0  0  0  0  0  0  0  0  0  0  0
  1  2  1  0
  2  3  1  0
  3  4  2  0
  4  5  1  0
  5  6  2  0
  6  7  1  0
  7  8  1  6
  7  9  1  0
  9 10  1  0
 10 11  1  0
 11 12  1  0
 12 13  1  0
 13 14  1  0
  6  2  1  0
 14  7  1  0
 14 12  1  0
  1 15  1  0
  1 16  1  0
  1 17  1  0
  8 18  1  0
  9 19  1  0
  9 20  1  0
 10 21  1  0
 10 22  1  0
 11 23  1  0
 12 24  1  1
 13 25  1  0
 13 26  1  0
 14 27  1  1
M  END
$$$$

     RDKit          3D

 27 29  0  0  0  0  0  0  0  0999 V2000
    2.9042    1.2780    0.2024 C   0  0  0  0  0  0  0  0  0  0  0  0
    2.5249   -0.0486    0.3338 N   0  0  0  0  0  0  0  0  0  0  0  0
    3.4149   -1.0067    0.6710 N   0  0  0  0  0  0  0  0  0  0  0  0
    2.8582   -2.1621    0.7131 N   0  0  0  0  0  0  0  0  0  0  0  0
    1.5866   -1.9853    0.4007 N   0  0  0  0  0  0  0  0  0  0  0  0
    1.3781   -0.6577    0.1628 C   0  0  0  0  0  0  0  0  0  0  0  0
    0.0816   -0.1753   -0.1590 C   0  0  2  0  0  0  0  0  0  0  0  0
   -0.2382   -0.7112   -1.4359 O   0  0  0  0  0  0  0  0  0  0  0  0
   -0.2363    1.2398   -0.2181 C   0  0  0  0  0  0  0  0  0  0  0  0
   -1.7462    1.4205   -0.3958 C   0  0  0  0  0  0  0  0  0  0  0  0
   -2.4334    0.1754   -0.6527 N   0  0  0  0  0  0  0  0  0  0  0  0
   -2.3144   -0.7315    0.4686 C   0  0  1  0  0  0  0  0  0  0  0  0
   -1.6215   -2.0558    0.3166 C   0  0  0  0  0  0  0  0  0  0  0  0
   -0.8998   -0.8213    0.8376 C   0  0  1  0  0  0  0  0  0  0  0  0
    3.8049    1.4040   -0.5160 H   0  0  0  0  0  0  0  0  0  0  0  0
    3.4274    1.6029    1.1515 H   0  0  0  0  0  0  0  0  0  0  0  0
    2.2139    2.0458   -0.0411 H   0  0  0  0  0  0  0  0  0  0  0  0
   -0.3269   -0.0194   -2.1022 H   0  0  0  0  0  0  0  0  0  0  0  0
    0.0006    1.7672    0.7113 H   0  0  0  0  0  0  0  0  0  0  0  0
    0.1961    1.6859   -1.1373 H   0  0  0  0  0  0  0  0  0  0  0  0
   -1.9834    2.0808   -1.2842 H   0  0  0  0  0  0  0  0  0  0  0  0
   -2.2269    1.9426    0.4332 H   0  0  0  0  0  0  0  0  0  0  0  0
   -3.4421    0.4516   -0.7460 H   0  0  0  0  0  0  0  0  0  0  0  0
   -3.0444   -0.6620    1.2979 H   0  0  0  0  0  0  0  0  0  0  0  0
   -1.8287   -2.8553    1.0064 H   0  0  0  0  0  0  0  0  0  0  0  0
   -1.4397   -2.3809   -0.7311 H   0  0  0  0  0  0  0  0  0  0  0  0
   -0.6094   -0.8213    1.8811 H   0  0  0  0  0  0  0  0  0  0  0  0
  1  2  1  0
  2  3  1  0
  3  4  2  0
  4  5  1  0
  5  6  2  0
  6  7  1  0
  7  8  1  6
  7  9  1  0
  9 10  1  0
 10 11  1  0
 11 12  1  0
 12 13  1  0
 13 14  1  0
  6  2  1  0
 14  7  1  0
 14 12  1  0
  1 15  1  0
  1 16  1  0
  1 17  1  0
  8 18  1  0
  9 19  1  0
  9 20  1  0
 10 21  1  0
 10 22  1  0
 11 23  1  0
 12 24  1  1
 13 25  1  0
 13 26  1  0
 14 27  1  1
M  END
$$$$

     RDKit          3D

 27 29  0  0  0  0  0  0  0  0999 V2000
    3.0016   -0.4714    1.0515 C   0  0  0  0  0  0  0  0  0  0  0  0
    2.5930    0.2268   -0.1775 N   0  0  0  0  0  0  0  0  0  0  0  0
    3.4314    0.8069   -1.0760 N   0  0  0  0  0  0  0  0  0  0  0  0
    2.6854    1.3060   -2.0263 N   0  0  0  0  0  0  0  0  0  0  0  0
    1.4421    1.0457   -1.7614 N   0  0  0  0  0  0  0  0  0  0  0  0
    1.3642    0.3456   -0.5690 C   0  0  0  0  0  0  0  0  0  0  0  0
    0.0649   -0.0040    0.0482 C   0  0  2  0  0  0  0  0  0  0  0  0
    0.1073   -0.2831    1.3322 O   0  0  0  0  0  0  0  0  0  0  0  0
   -0.3547   -1.2813   -0.7310 C   0  0  0  0  0  0  0  0  0  0  0  0
   -1.7701   -1.6321   -0.3547 C   0  0  0  0  0  0  0  0  0  0  0  0
   -2.3052   -0.6373    0.5674 N   0  0  0  0  0  0  0  0  0  0  0  0
   -2.3198    0.6557   -0.0988 C   0  0  1  0  0  0  0  0  0  0  0  0
   -1.7108    1.7697    0.6621 C   0  0  0  0  0  0  0  0  0  0  0  0
   -0.9338    1.0871   -0.3469 C   0  0  1  0  0  0  0  0  0  0  0  0
    4.0041   -0.0502    1.3039 H   0  0  0  0  0  0  0  0  0  0  0  0
    2.3275   -0.4082    1.8753 H   0  0  0  0  0  0  0  0  0  0  0  0
    3.1871   -1.5435    0.7054 H   0  0  0  0  0  0  0  0  0  0  0  0
    0.0402    0.4633    1.9592 H   0  0  0  0  0  0  0  0  0  0  0  0
   -0.1912   -1.1332   -1.7992 H   0  0  0  0  0  0  0  0  0  0  0  0
    0.3161   -2.0796   -0.2784 H   0  0  0  0  0  0  0  0  0  0  0  0
   -2.3748   -1.6606   -1.2690 H   0  0  0  0  0  0  0  0  0  0  0  0
   -1.8178   -2.5981    0.1728 H   0  0  0  0  0  0  0  0  0  0  0  0
   -3.2763   -0.9014    0.8210 H   0  0  0  0  0  0  0  0  0  0  0  0
   -3.0788    0.8710   -0.8681 H   0  0  0  0  0  0  0  0  0  0  0  0
   -2.1271    2.7856    0.3953 H   0  0  0  0  0  0  0  0  0  0  0  0
   -1.5900    1.6680    1.7523 H   0  0  0  0  0  0  0  0  0  0  0  0
   -0.7145    1.6526   -1.2899 H   0  0  0  0  0  0  0  0  0  0  0  0
  1  2  1  0
  2  3  1  0
  3  4  2  0
  4  5  1  0
  5  6  2  0
  6  7  1  0
  7  8  1  1
  7  9  1  0
  9 10  1  0
 10 11  1  0
 11 12  1  0
 12 13  1  0
 13 14  1  0
  6  2  1  0
 14  7  1  0
 14 12  1  0
  1 15  1  0
  1 16  1  0
  1 17  1  0
  8 18  1  0
  9 19  1  0
  9 20  1  0
 10 21  1  0
 10 22  1  0
 11 23  1  0
 12 24  1  6
 13 25  1  0
 13 26  1  0
 14 27  1  6
M  END
$$$$

     RDKit          3D

 27 29  0  0  0  0  0  0  0  0999 V2000
    2.7366    1.0694   -0.0638 C   0  0  0  0  0  0  0  0  0  0  0  0
    2.5202   -0.3058   -0.4075 N   0  0  0  0  0  0  0  0  0  0  0  0
    3.4358   -1.1440   -0.8405 N   0  0  0  0  0  0  0  0  0  0  0  0
    2.8733   -2.3045   -1.0351 N   0  0  0  0  0  0  0  0  0  0  0  0
    1.6063   -2.2156   -0.7306 N   0  0  0  0  0  0  0  0  0  0  0  0
    1.3554   -0.9351   -0.3225 C   0  0  0  0  0  0  0  0  0  0  0  0
    0.0122   -0.5236    0.0827 C   0  0  2  0  0  0  0  0  0  0  0  0
   -0.3485   -1.2751    1.1832 O   0  0  0  0  0  0  0  0  0  0  0  0
   -0.9343   -0.9595   -1.0516 C   0  0  0  0  0  0  0  0  0  0  0  0
   -2.2869   -1.0794   -0.3784 C   0  0  0  0  0  0  0  0  0  0  0  0
   -2.4613   -0.0032    0.5593 N   0  0  0  0  0  0  0  0  0  0  0  0
   -1.7054    1.1878    0.2644 C   0  0  1  0  0  0  0  0  0  0  0  0
   -0.7732    1.6125    1.3716 C   0  0  0  0  0  0  0  0  0  0  0  0
   -0.2005    0.9371    0.2043 C   0  0  1  0  0  0  0  0  0  0  0  0
    2.1866    1.4150    0.8124 H   0  0  0  0  0  0  0  0  0  0  0  0
    3.8277    1.1836    0.1971 H   0  0  0  0  0  0  0  0  0  0  0  0
    2.6145    1.7125   -0.9784 H   0  0  0  0  0  0  0  0  0  0  0  0
   -0.6941   -0.7930    1.9436 H   0  0  0  0  0  0  0  0  0  0  0  0
   -1.0021   -0.1509   -1.7956 H   0  0  0  0  0  0  0  0  0  0  0  0
   -0.5725   -1.8581   -1.5343 H   0  0  0  0  0  0  0  0  0  0  0  0
   -3.1053   -1.2280   -1.0801 H   0  0  0  0  0  0  0  0  0  0  0  0
   -2.1904   -2.0129    0.2578 H   0  0  0  0  0  0  0  0  0  0  0  0
   -3.4735    0.2666    0.5238 H   0  0  0  0  0  0  0  0  0  0  0  0
   -2.1668    1.9422   -0.3830 H   0  0  0  0  0  0  0  0  0  0  0  0
   -0.6370    2.7239    1.4125 H   0  0  0  0  0  0  0  0  0  0  0  0
   -0.8808    1.1801    2.3727 H   0  0  0  0  0  0  0  0  0  0  0  0
    0.2640    1.5582   -0.5840 H   0  0  0  0  0  0  0  0  0  0  0  0
  1  2  1  0
  2  3  1  0
  3  4  2  0
  4  5  1  0
  5  6  2  0
  6  7  1  0
  7  8  1  1
  7  9  1  0
  9 10  1  0
 10 11  1  0
 11 12  1  0
 12 13  1  0
 13 14  1  0
  6  2  1  0
 14  7  1  0
 14 12  1  0
  1 15  1  0
  1 16  1  0
  1 17  1  0
  8 18  1  0
  9 19  1  0
  9 20  1  0
 10 21  1  0
 10 22  1  0
 11 23  1  0
 12 24  1  6
 13 25  1  0
 13 26  1  0
 14 27  1  6
M  END
$$$$

     RDKit          3D

 27 29  0  0  0  0  0  0  0  0999 V2000
    3.0985   -0.3575    0.3520 C   0  0  0  0  0  0  0  0  0  0  0  0
    2.5032    0.7776   -0.3142 N   0  0  0  0  0  0  0  0  0  0  0  0
    3.1387    1.8497   -0.7489 N   0  0  0  0  0  0  0  0  0  0  0  0
    2.2666    2.6665   -1.3067 N   0  0  0  0  0  0  0  0  0  0  0  0
    1.0734    2.1128   -1.2266 N   0  0  0  0  0  0  0  0  0  0  0  0
    1.2012    0.9294   -0.6095 C   0  0  0  0  0  0  0  0  0  0  0  0
    0.0665    0.0049   -0.3428 C   0  0  2  0  0  0  0  0  0  0  0  0
    0.5621   -1.3209   -0.4341 O   0  0  0  0  0  0  0  0  0  0  0  0
   -0.9241    0.1742   -1.4629 C   0  0  0  0  0  0  0  0  0  0  0  0
   -2.2442   -0.4314   -1.1036 C   0  0  0  0  0  0  0  0  0  0  0  0
   -2.7943    0.0146    0.1277 N   0  0  0  0  0  0  0  0  0  0  0  0
   -1.9145    0.2923    1.1865 C   0  0  1  0  0  0  0  0  0  0  0  0
   -1.1557   -0.8870    1.7879 C   0  0  0  0  0  0  0  0  0  0  0  0
   -0.4906    0.2557    1.0172 C   0  0  1  0  0  0  0  0  0  0  0  0
    4.1431   -0.1481    0.6238 H   0  0  0  0  0  0  0  0  0  0  0  0
    2.9851   -1.2489   -0.2796 H   0  0  0  0  0  0  0  0  0  0  0  0
    2.5270   -0.5226    1.3013 H   0  0  0  0  0  0  0  0  0  0  0  0
    0.6566   -1.7485    0.4278 H   0  0  0  0  0  0  0  0  0  0  0  0
   -0.5259   -0.4244   -2.3368 H   0  0  0  0  0  0  0  0  0  0  0  0
   -1.0316    1.2257   -1.7772 H   0  0  0  0  0  0  0  0  0  0  0  0
   -2.9673   -0.1513   -1.9180 H   0  0  0  0  0  0  0  0  0  0  0  0
   -2.1721   -1.5501   -1.1704 H   0  0  0  0  0  0  0  0  0  0  0  0
   -3.5565   -0.6293    0.4203 H   0  0  0  0  0  0  0  0  0  0  0  0
   -2.3331    0.9689    1.9848 H   0  0  0  0  0  0  0  0  0  0  0  0
   -1.0075   -0.9248    2.8781 H   0  0  0  0  0  0  0  0  0  0  0  0
   -1.2325   -1.8550    1.2497 H   0  0  0  0  0  0  0  0  0  0  0  0
    0.1281    0.9277    1.6744 H   0  0  0  0  0  0  0  0  0  0  0  0
  1  2  1  0
  2  3  1  0
  3  4  2  0
  4  5  1  0
  5  6  2  0
  6  7  1  0
  7  8  1  1
  7  9  1  0
  9 10  1  0
 10 11  1  0
 11 12  1  0
 12 13  1  0
 13 14  1  0
  6  2  1  0
 14  7  1  0
 14 12  1  0
  1 15  1  0
  1 16  1  0
  1 17  1  0
  8 18  1  0
  9 19  1  0
  9 20  1  0
 10 21  1  0
 10 22  1  0
 11 23  1  0
 12 24  1  1
 13 25  1  0
 13 26  1  0
 14 27  1  1
M  END
$$$$
