
     RDKit          3D

 26 28  0  0  0  0  0  0  0  0999 V2000
    3.9985   -1.5771    0.2474 O   0  0  0  0  0  0  0  0  0  0  0  0
    3.1041   -0.7087    0.1401 C   0  0  0  0  0  0  0  0  0  0  0  0
    1.6400   -1.0610    0.2064 C   0  0  0  0  0  0  0  0  0  0  0  0
    0.9179    0.1530    0.1959 N   0  0  0  0  0  0  0  0  0  0  0  0
   -0.3883    0.1454    0.7239 C   0  0  2  0  0  0  0  0  0  0  0  0
   -1.3880   -0.7145    0.0427 C   0  0  1  0  0  0  0  0  0  0  0  0
   -2.6459   -1.1782    0.7291 C   0  0  0  0  0  0  0  0  0  0  0  0
   -3.5441    0.0243    0.5253 C   0  0  0  0  0  0  0  0  0  0  0  0
   -2.6528    1.0585    0.8916 O   0  0  0  0  0  0  0  0  0  0  0  0
   -1.5409    0.8094    0.1208 C   0  0  1  0  0  0  0  0  0  0  0  0
    1.2287    1.0614   -0.8358 C   0  0  0  0  0  0  0  0  0  0  0  0
    2.5973    1.5813   -0.5868 C   0  0  0  0  0  0  0  0  0  0  0  0
    2.8685    2.7768   -0.8488 O   0  0  0  0  0  0  0  0  0  0  0  0
    3.5327    0.6562   -0.0519 N   0  0  0  0  0  0  0  0  0  0  0  0
    1.4068   -1.6197    1.1329 H   0  0  0  0  0  0  0  0  0  0  0  0
    1.4129   -1.6770   -0.6973 H   0  0  0  0  0  0  0  0  0  0  0  0
   -0.4161    0.0745    1.8511 H   0  0  0  0  0  0  0  0  0  0  0  0
   -1.1149   -1.1654   -0.9341 H   0  0  0  0  0  0  0  0  0  0  0  0
   -2.5165   -1.3069    1.8361 H   0  0  0  0  0  0  0  0  0  0  0  0
   -3.0538   -2.0937    0.2816 H   0  0  0  0  0  0  0  0  0  0  0  0
   -4.4367    0.0084    1.1648 H   0  0  0  0  0  0  0  0  0  0  0  0
   -3.7499    0.1827   -0.5466 H   0  0  0  0  0  0  0  0  0  0  0  0
   -1.5346    1.3052   -0.8572 H   0  0  0  0  0  0  0  0  0  0  0  0
    1.3205    0.4651   -1.7942 H   0  0  0  0  0  0  0  0  0  0  0  0
    0.4743    1.8249   -1.0234 H   0  0  0  0  0  0  0  0  0  0  0  0
    4.4803    0.9751    0.1842 H   0  0  0  0  0  0  0  0  0  0  0  0
  1  2  2  0
  2  3  1  0
  3  4  1  0
  4  5  1  0
  5  6  1  0
  6  7  1  0
  7  8  1  0
  8  9  1  0
  9 10  1  0
  4 11  1  0
 11 12  1  0
 12 13  2  0
 12 14  1  0
 14  2  1  0
 10  5  1  0
 10  6  1  0
  3 15  1  0
  3 16  1  0
  5 17  1  1
  6 18  1  6
  7 19  1  0
  7 20  1  0
  8 21  1  0
  8 22  1  0
 10 23  1  6
 11 24  1  0
 11 25  1  0
 14 26  1  0
M  END
$$$$

     RDKit          3D

 26 28  0  0  0  0  0  0  0  0999 V2000
   -4.0589   -1.2579   -1.1359 O   0  0  0  0  0  0  0  0  0  0  0  0
   -3.2127   -0.4370   -0.6890 C   0  0  0  0  0  0  0  0  0  0  0  0
   -1.8193   -0.3757   -1.1434 C   0  0  0  0  0  0  0  0  0  0  0  0
   -0.8796   -0.1847   -0.1374 N   0  0  0  0  0  0  0  0  0  0  0  0
    0.4581   -0.5296   -0.3738 C   0  0  2  0  0  0  0  0  0  0  0  0
    1.5669   -0.1872    0.5270 C   0  0  1  0  0  0  0  0  0  0  0  0
    2.9232   -0.7951    0.3425 C   0  0  0  0  0  0  0  0  0  0  0  0
    3.5227    0.0710   -0.7553 C   0  0  0  0  0  0  0  0  0  0  0  0
    2.4136    0.2588   -1.6014 O   0  0  0  0  0  0  0  0  0  0  0  0
    1.3861    0.6039   -0.7296 C   0  0  1  0  0  0  0  0  0  0  0  0
   -1.2548    0.3169    1.1055 C   0  0  0  0  0  0  0  0  0  0  0  0
   -2.5522    1.0308    1.1169 C   0  0  0  0  0  0  0  0  0  0  0  0
   -2.7503    2.0723    1.7900 O   0  0  0  0  0  0  0  0  0  0  0  0
   -3.6149    0.5055    0.3272 N   0  0  0  0  0  0  0  0  0  0  0  0
   -1.6051   -1.3147   -1.7271 H   0  0  0  0  0  0  0  0  0  0  0  0
   -1.7458    0.4354   -1.9223 H   0  0  0  0  0  0  0  0  0  0  0  0
    0.5925   -1.5223   -0.9007 H   0  0  0  0  0  0  0  0  0  0  0  0
    1.4129    0.3002    1.5154 H   0  0  0  0  0  0  0  0  0  0  0  0
    3.5483   -0.7214    1.2611 H   0  0  0  0  0  0  0  0  0  0  0  0
    2.8599   -1.8421    0.0174 H   0  0  0  0  0  0  0  0  0  0  0  0
    4.3484   -0.4030   -1.2877 H   0  0  0  0  0  0  0  0  0  0  0  0
    3.8082    1.0401   -0.2904 H   0  0  0  0  0  0  0  0  0  0  0  0
    1.0051    1.6241   -0.6821 H   0  0  0  0  0  0  0  0  0  0  0  0
   -0.4928    1.0564    1.4686 H   0  0  0  0  0  0  0  0  0  0  0  0
   -1.2494   -0.5107    1.8548 H   0  0  0  0  0  0  0  0  0  0  0  0
   -4.6100    0.7659    0.4520 H   0  0  0  0  0  0  0  0  0  0  0  0
  1  2  2  0
  2  3  1  0
  3  4  1  0
  4  5  1  0
  5  6  1  0
  6  7  1  0
  7  8  1  0
  8  9  1  0
  9 10  1  0
  4 11  1  0
 11 12  1  0
 12 13  2  0
 12 14  1  0
 14  2  1  0
 10  5  1  0
 10  6  1  0
  3 15  1  0
  3 16  1  0
  5 17  1  6
  6 18  1  1
  7 19  1  0
  7 20  1  0
  8 21  1  0
  8 22  1  0
 10 23  1  1
 11 24  1  0
 11 25  1  0
 14 26  1  0
M  END
$$$$

     RDKit          3D

 26 28  0  0  0  0  0  0  0  0999 V2000
   -3.8100   -1.8093   -0.7733 O   0  0  0  0  0  0  0  0  0  0  0  0
   -3.0360   -0.8744   -0.4310 C   0  0  0  0  0  0  0  0  0  0  0  0
   -1.6001   -1.0786   -0.4432 C   0  0  0  0  0  0  0  0  0  0  0  0
   -0.8250   -0.0571    0.0965 N   0  0  0  0  0  0  0  0  0  0  0  0
    0.5676   -0.0627   -0.1388 C   0  0  2  0  0  0  0  0  0  0  0  0
    1.5419   -1.0577    0.2662 C   0  0  1  0  0  0  0  0  0  0  0  0
    2.9670   -0.8660   -0.2434 C   0  0  0  0  0  0  0  0  0  0  0  0
    3.2377    0.5745    0.0721 C   0  0  0  0  0  0  0  0  0  0  0  0
    2.4789    0.8672    1.1745 O   0  0  0  0  0  0  0  0  0  0  0  0
    1.3694    0.0631    1.1896 C   0  0  1  0  0  0  0  0  0  0  0  0
   -1.3219    1.2556    0.1842 C   0  0  0  0  0  0  0  0  0  0  0  0
   -2.7588    1.4509    0.1446 C   0  0  0  0  0  0  0  0  0  0  0  0
   -3.1983    2.6273    0.2812 O   0  0  0  0  0  0  0  0  0  0  0  0
   -3.6355    0.3677   -0.0396 N   0  0  0  0  0  0  0  0  0  0  0  0
   -1.2790   -1.2697   -1.5021 H   0  0  0  0  0  0  0  0  0  0  0  0
   -1.3902   -2.0395    0.1142 H   0  0  0  0  0  0  0  0  0  0  0  0
    0.8858    0.6706   -0.9388 H   0  0  0  0  0  0  0  0  0  0  0  0
    1.2981   -2.1035    0.4852 H   0  0  0  0  0  0  0  0  0  0  0  0
    3.6320   -1.4794    0.3983 H   0  0  0  0  0  0  0  0  0  0  0  0
    3.0760   -1.1004   -1.3037 H   0  0  0  0  0  0  0  0  0  0  0  0
    4.3126    0.7154    0.3544 H   0  0  0  0  0  0  0  0  0  0  0  0
    3.0506    1.2659   -0.7726 H   0  0  0  0  0  0  0  0  0  0  0  0
    0.8582   -0.1419    2.1332 H   0  0  0  0  0  0  0  0  0  0  0  0
   -0.8644    1.8472   -0.6649 H   0  0  0  0  0  0  0  0  0  0  0  0
   -0.9072    1.7341    1.1011 H   0  0  0  0  0  0  0  0  0  0  0  0
   -4.6495    0.5008    0.1086 H   0  0  0  0  0  0  0  0  0  0  0  0
  1  2  2  0
  2  3  1  0
  3  4  1  0
  4  5  1  0
  5  6  1  0
  6  7  1  0
  7  8  1  0
  8  9  1  0
  9 10  1  0
  4 11  1  0
 11 12  1  0
 12 13  2  0
 12 14  1  0
 14  2  1  0
 10  5  1  0
 10  6  1  0
  3 15  1  0
  3 16  1  0
  5 17  1  6
  6 18  1  1
  7 19  1  0
  7 20  1  0
  8 21  1  0
  8 22  1  0
 10 23  1  1
 11 24  1  0
 11 25  1  0
 14 26  1  0
M  END
$$$$

     RDKit          3D

 26 28  0  0  0  0  0  0  0  0999 V2000
   -3.7230    1.5057   -1.1789 O   0  0  0  0  0  0  0  0  0  0  0  0
   -2.9684    0.8064   -0.4627 C   0  0  0  0  0  0  0  0  0  0  0  0
   -1.4836    0.9560   -0.4168 C   0  0  0  0  0  0  0  0  0  0  0  0
   -0.9339   -0.3543   -0.7059 N   0  0  0  0  0  0  0  0  0  0  0  0
    0.4855   -0.3628   -0.8935 C   0  0  2  0  0  0  0  0  0  0  0  0
    1.2565    0.0633    0.3323 C   0  0  1  0  0  0  0  0  0  0  0  0
    2.6397   -0.4852    0.4619 C   0  0  0  0  0  0  0  0  0  0  0  0
    3.4373    0.5459   -0.3471 C   0  0  0  0  0  0  0  0  0  0  0  0
    2.6068    0.6613   -1.4764 O   0  0  0  0  0  0  0  0  0  0  0  0
    1.3237    0.8336   -0.9866 C   0  0  1  0  0  0  0  0  0  0  0  0
   -1.2120   -1.2096    0.4323 C   0  0  0  0  0  0  0  0  0  0  0  0
   -2.5974   -1.1604    0.9022 C   0  0  0  0  0  0  0  0  0  0  0  0
   -2.9564   -1.9706    1.7732 O   0  0  0  0  0  0  0  0  0  0  0  0
   -3.5158   -0.2066    0.3750 N   0  0  0  0  0  0  0  0  0  0  0  0
   -1.2373    1.2729    0.6282 H   0  0  0  0  0  0  0  0  0  0  0  0
   -1.2036    1.7360   -1.1243 H   0  0  0  0  0  0  0  0  0  0  0  0
    0.8533   -1.2927   -1.4017 H   0  0  0  0  0  0  0  0  0  0  0  0
    0.7820    0.6373    1.1280 H   0  0  0  0  0  0  0  0  0  0  0  0
    3.0016   -0.5742    1.4913 H   0  0  0  0  0  0  0  0  0  0  0  0
    2.7033   -1.4336   -0.1149 H   0  0  0  0  0  0  0  0  0  0  0  0
    3.4337    1.4650    0.2535 H   0  0  0  0  0  0  0  0  0  0  0  0
    4.4157    0.1392   -0.5833 H   0  0  0  0  0  0  0  0  0  0  0  0
    0.8717    1.8221   -1.0669 H   0  0  0  0  0  0  0  0  0  0  0  0
   -0.5632   -0.9020    1.2971 H   0  0  0  0  0  0  0  0  0  0  0  0
   -0.8851   -2.2249    0.1440 H   0  0  0  0  0  0  0  0  0  0  0  0
   -4.5311   -0.2678    0.6056 H   0  0  0  0  0  0  0  0  0  0  0  0
  1  2  2  0
  2  3  1  0
  3  4  1  0
  4  5  1  0
  5  6  1  0
  6  7  1  0
  7  8  1  0
  8  9  1  0
  9 10  1  0
  4 11  1  0
 11 12  1  0
 12 13  2  0
 12 14  1  0
 14  2  1  0
 10  5  1  0
 10  6  1  0
  3 15  1  0
  3 16  1  0
  5 17  1  6
  6 18  1  1
  7 19  1  0
  7 20  1  0
  8 21  1  0
  8 22  1  0
 10 23  1  1
 11 24  1  0
 11 25  1  0
 14 26  1  0
M  END
$$$$

     RDKit          3D

 26 28  0  0  0  0  0  0  0  0999 V2000
   -3.2073   -2.1735   -0.4352 O   0  0  0  0  0  0  0  0  0  0  0  0
   -2.8477   -1.1322    0.1203 C   0  0  0  0  0  0  0  0  0  0  0  0
   -1.5645   -0.9587    0.8750 C   0  0  0  0  0  0  0  0  0  0  0  0
   -0.8160    0.1794    0.4971 N   0  0  0  0  0  0  0  0  0  0  0  0
    0.4425   -0.0511   -0.1178 C   0  0  2  0  0  0  0  0  0  0  0  0
    1.5836   -0.7135    0.4853 C   0  0  1  0  0  0  0  0  0  0  0  0
    2.7858   -1.0089   -0.3778 C   0  0  0  0  0  0  0  0  0  0  0  0
    3.5852    0.2830   -0.3063 C   0  0  0  0  0  0  0  0  0  0  0  0
    2.5825    1.2438   -0.3029 O   0  0  0  0  0  0  0  0  0  0  0  0
    1.5758    0.7903    0.5162 C   0  0  1  0  0  0  0  0  0  0  0  0
   -1.5300    1.2957   -0.0047 C   0  0  0  0  0  0  0  0  0  0  0  0
   -2.9629    1.2736    0.3503 C   0  0  0  0  0  0  0  0  0  0  0  0
   -3.5931    2.2333    0.8593 O   0  0  0  0  0  0  0  0  0  0  0  0
   -3.6723    0.0532    0.0852 N   0  0  0  0  0  0  0  0  0  0  0  0
   -1.0302   -1.9023    0.8208 H   0  0  0  0  0  0  0  0  0  0  0  0
   -1.8777   -0.8273    1.9441 H   0  0  0  0  0  0  0  0  0  0  0  0
    0.4321    0.0280   -1.2342 H   0  0  0  0  0  0  0  0  0  0  0  0
    1.6015   -1.2035    1.4607 H   0  0  0  0  0  0  0  0  0  0  0  0
    2.5369   -1.2936   -1.4061 H   0  0  0  0  0  0  0  0  0  0  0  0
    3.4360   -1.8055    0.0527 H   0  0  0  0  0  0  0  0  0  0  0  0
    4.1963    0.4125   -1.2180 H   0  0  0  0  0  0  0  0  0  0  0  0
    4.1979    0.3124    0.6188 H   0  0  0  0  0  0  0  0  0  0  0  0
    1.3780    1.3244    1.4513 H   0  0  0  0  0  0  0  0  0  0  0  0
   -1.4607    1.4086   -1.1224 H   0  0  0  0  0  0  0  0  0  0  0  0
   -1.1001    2.2240    0.4590 H   0  0  0  0  0  0  0  0  0  0  0  0
   -4.6717    0.0079   -0.1127 H   0  0  0  0  0  0  0  0  0  0  0  0
  1  2  2  0
  2  3  1  0
  3  4  1  0
  4  5  1  0
  5  6  1  0
  6  7  1  0
  7  8  1  0
  8  9  1  0
  9 10  1  0
  4 11  1  0
 11 12  1  0
 12 13  2  0
 12 14  1  0
 14  2  1  0
 10  5  1  0
 10  6  1  0
  3 15  1  0
  3 16  1  0
  5 17  1  6
  6 18  1  1
  7 19  1  0
  7 20  1  0
  8 21  1  0
  8 22  1  0
 10 23  1  1
 11 24  1  0
 11 25  1  0
 14 26  1  0
M  END
$$$$

     RDKit          3D

 26 28  0  0  0  0  0  0  0  0999 V2000
   -2.2334    2.3152    0.0348 O   0  0  0  0  0  0  0  0  0  0  0  0
   -2.2626    1.0867    0.1391 C   0  0  0  0  0  0  0  0  0  0  0  0
   -1.4671    0.2819    1.1020 C   0  0  0  0  0  0  0  0  0  0  0  0
   -0.7049   -0.7461    0.4709 N   0  0  0  0  0  0  0  0  0  0  0  0
    0.5766   -0.4260   -0.0146 C   0  0  2  0  0  0  0  0  0  0  0  0
    1.7081    0.0290    0.8026 C   0  0  1  0  0  0  0  0  0  0  0  0
    3.0769    0.0215    0.1770 C   0  0  0  0  0  0  0  0  0  0  0  0
    2.7863    0.5314   -1.2141 C   0  0  0  0  0  0  0  0  0  0  0  0
    1.7797    1.4445   -1.0558 O   0  0  0  0  0  0  0  0  0  0  0  0
    0.9667    1.0326   -0.0019 C   0  0  1  0  0  0  0  0  0  0  0  0
   -1.4491   -1.5300   -0.4594 C   0  0  0  0  0  0  0  0  0  0  0  0
   -2.8498   -1.1058   -0.6695 C   0  0  0  0  0  0  0  0  0  0  0  0
   -3.8144   -1.9055   -0.8134 O   0  0  0  0  0  0  0  0  0  0  0  0
   -3.1168    0.2912   -0.7108 N   0  0  0  0  0  0  0  0  0  0  0  0
   -0.9525    0.9370    1.7850 H   0  0  0  0  0  0  0  0  0  0  0  0
   -2.2445   -0.2569    1.7270 H   0  0  0  0  0  0  0  0  0  0  0  0
    0.8741   -1.0044   -0.9411 H   0  0  0  0  0  0  0  0  0  0  0  0
    1.7153    0.0366    1.8937 H   0  0  0  0  0  0  0  0  0  0  0  0
    3.6813    0.7973    0.6890 H   0  0  0  0  0  0  0  0  0  0  0  0
    3.5489   -0.9750    0.1769 H   0  0  0  0  0  0  0  0  0  0  0  0
    3.7010    1.0354   -1.6426 H   0  0  0  0  0  0  0  0  0  0  0  0
    2.5633   -0.2999   -1.8835 H   0  0  0  0  0  0  0  0  0  0  0  0
    0.4096    1.7782    0.5649 H   0  0  0  0  0  0  0  0  0  0  0  0
   -0.9460   -1.4605   -1.4567 H   0  0  0  0  0  0  0  0  0  0  0  0
   -1.4836   -2.6186   -0.2006 H   0  0  0  0  0  0  0  0  0  0  0  0
   -3.8630    0.7103   -1.3002 H   0  0  0  0  0  0  0  0  0  0  0  0
  1  2  2  0
  2  3  1  0
  3  4  1  0
  4  5  1  0
  5  6  1  0
  6  7  1  0
  7  8  1  0
  8  9  1  0
  9 10  1  0
  4 11  1  0
 11 12  1  0
 12 13  2  0
 12 14  1  0
 14  2  1  0
 10  5  1  0
 10  6  1  0
  3 15  1  0
  3 16  1  0
  5 17  1  6
  6 18  1  1
  7 19  1  0
  7 20  1  0
  8 21  1  0
  8 22  1  0
 10 23  1  1
 11 24  1  0
 11 25  1  0
 14 26  1  0
M  END
$$$$

     RDKit          3D

 26 28  0  0  0  0  0  0  0  0999 V2000
   -2.6764    0.4739    2.8054 O   0  0  0  0  0  0  0  0  0  0  0  0
   -2.5301    0.4814    1.5830 C   0  0  0  0  0  0  0  0  0  0  0  0
   -1.2861    0.9340    0.8726 C   0  0  0  0  0  0  0  0  0  0  0  0
   -0.8463   -0.0032   -0.0786 N   0  0  0  0  0  0  0  0  0  0  0  0
    0.4996   -0.4335    0.0029 C   0  0  2  0  0  0  0  0  0  0  0  0
    1.5265    0.6754   -0.2021 C   0  0  1  0  0  0  0  0  0  0  0  0
    2.8754    0.4526    0.4394 C   0  0  0  0  0  0  0  0  0  0  0  0
    3.5608   -0.4193   -0.6013 C   0  0  0  0  0  0  0  0  0  0  0  0
    2.5485   -1.1621   -1.1971 O   0  0  0  0  0  0  0  0  0  0  0  0
    1.4083   -0.3938   -1.1929 C   0  0  1  0  0  0  0  0  0  0  0  0
   -1.7670   -0.8417   -0.7135 C   0  0  0  0  0  0  0  0  0  0  0  0
   -3.1481   -0.3800   -0.5925 C   0  0  0  0  0  0  0  0  0  0  0  0
   -3.9844   -0.3243   -1.5431 O   0  0  0  0  0  0  0  0  0  0  0  0
   -3.5776    0.0420    0.7222 N   0  0  0  0  0  0  0  0  0  0  0  0
   -0.4765    1.1676    1.5781 H   0  0  0  0  0  0  0  0  0  0  0  0
   -1.5853    1.8726    0.3342 H   0  0  0  0  0  0  0  0  0  0  0  0
    0.7186   -1.2050    0.7405 H   0  0  0  0  0  0  0  0  0  0  0  0
    1.1951    1.6767   -0.4652 H   0  0  0  0  0  0  0  0  0  0  0  0
    3.4132    1.3890    0.6354 H   0  0  0  0  0  0  0  0  0  0  0  0
    2.7142   -0.0905    1.3841 H   0  0  0  0  0  0  0  0  0  0  0  0
    4.2008   -1.1368   -0.0527 H   0  0  0  0  0  0  0  0  0  0  0  0
    4.1295    0.1962   -1.3043 H   0  0  0  0  0  0  0  0  0  0  0  0
    0.8505   -0.2370   -2.1620 H   0  0  0  0  0  0  0  0  0  0  0  0
   -1.4855   -1.0485   -1.7836 H   0  0  0  0  0  0  0  0  0  0  0  0
   -1.7188   -1.8592   -0.2255 H   0  0  0  0  0  0  0  0  0  0  0  0
   -4.5588    0.0268    1.0165 H   0  0  0  0  0  0  0  0  0  0  0  0
  1  2  2  0
  2  3  1  0
  3  4  1  0
  4  5  1  0
  5  6  1  0
  6  7  1  0
  7  8  1  0
  8  9  1  0
  9 10  1  0
  4 11  1  0
 11 12  1  0
 12 13  2  0
 12 14  1  0
 14  2  1  0
 10  5  1  0
 10  6  1  0
  3 15  1  0
  3 16  1  0
  5 17  1  1
  6 18  1  6
  7 19  1  0
  7 20  1  0
  8 21  1  0
  8 22  1  0
 10 23  1  6
 11 24  1  0
 11 25  1  0
 14 26  1  0
M  END
$$$$

     RDKit          3D

 26 28  0  0  0  0  0  0  0  0999 V2000
    2.5846   -0.9792    2.4245 O   0  0  0  0  0  0  0  0  0  0  0  0
    2.4378   -0.6886    1.1941 C   0  0  0  0  0  0  0  0  0  0  0  0
    1.3639   -1.3129    0.3602 C   0  0  0  0  0  0  0  0  0  0  0  0
    0.8274   -0.4479   -0.5614 N   0  0  0  0  0  0  0  0  0  0  0  0
   -0.5552   -0.2488   -0.6797 C   0  0  2  0  0  0  0  0  0  0  0  0
   -1.2286    0.3435    0.5492 C   0  0  1  0  0  0  0  0  0  0  0  0
   -2.4326    1.2243    0.2973 C   0  0  0  0  0  0  0  0  0  0  0  0
   -3.5218    0.1902    0.1011 C   0  0  0  0  0  0  0  0  0  0  0  0
   -2.9131   -0.8960   -0.4834 O   0  0  0  0  0  0  0  0  0  0  0  0
   -1.6124   -0.9750    0.0285 C   0  0  1  0  0  0  0  0  0  0  0  0
    1.6310    0.4373   -1.2940 C   0  0  0  0  0  0  0  0  0  0  0  0
    2.9751    0.6808   -0.7348 C   0  0  0  0  0  0  0  0  0  0  0  0
    3.8106    1.2821   -1.4613 O   0  0  0  0  0  0  0  0  0  0  0  0
    3.3051    0.2513    0.5698 N   0  0  0  0  0  0  0  0  0  0  0  0
    1.8801   -2.1677   -0.1697 H   0  0  0  0  0  0  0  0  0  0  0  0
    0.5796   -1.7565    1.0112 H   0  0  0  0  0  0  0  0  0  0  0  0
   -0.8580    0.2287   -1.6548 H   0  0  0  0  0  0  0  0  0  0  0  0
   -0.6796    0.4236    1.4922 H   0  0  0  0  0  0  0  0  0  0  0  0
   -2.2349    1.7906   -0.6577 H   0  0  0  0  0  0  0  0  0  0  0  0
   -2.6436    1.9037    1.1239 H   0  0  0  0  0  0  0  0  0  0  0  0
   -4.3265    0.6024   -0.5298 H   0  0  0  0  0  0  0  0  0  0  0  0
   -3.9072   -0.0860    1.1019 H   0  0  0  0  0  0  0  0  0  0  0  0
   -1.4546   -1.8646    0.6469 H   0  0  0  0  0  0  0  0  0  0  0  0
    1.7289    0.0432   -2.3418 H   0  0  0  0  0  0  0  0  0  0  0  0
    1.1092    1.4141   -1.3899 H   0  0  0  0  0  0  0  0  0  0  0  0
    4.1348    0.6073    1.0573 H   0  0  0  0  0  0  0  0  0  0  0  0
  1  2  2  0
  2  3  1  0
  3  4  1  0
  4  5  1  0
  5  6  1  0
  6  7  1  0
  7  8  1  0
  8  9  1  0
  9 10  1  0
  4 11  1  0
 11 12  1  0
 12 13  2  0
 12 14  1  0
 14  2  1  0
 10  5  1  0
 10  6  1  0
  3 15  1  0
  3 16  1  0
  5 17  1  6
  6 18  1  1
  7 19  1  0
  7 20  1  0
  8 21  1  0
  8 22  1  0
 10 23  1  1
 11 24  1  0
 11 25  1  0
 14 26  1  0
M  END
$$$$
