
     RDKit          3D

 25 26  0  0  0  0  0  0  0  0999 V2000
    0.0936    0.3802   -1.1466 O   0  0  0  0  0  0  0  0  0  0  0  0
   -0.1907    0.1527    0.0732 C   0  0  0  0  0  0  0  0  0  0  0  0
    0.6830    0.5184    1.1185 N   0  0  0  0  0  0  0  0  0  0  0  0
    1.9426    1.1663    0.8754 C   0  0  0  0  0  0  0  0  0  0  0  0
    2.8524    0.3503    0.0450 C   0  0  0  0  0  0  0  0  0  0  0  0
    2.6658   -0.9295   -0.4272 C   0  0  0  0  0  0  0  0  0  0  0  0
    3.7663   -1.2230   -1.1254 N   0  0  0  0  0  0  0  0  0  0  0  0
    4.6033   -0.1930   -1.0997 N   0  0  0  0  0  0  0  0  0  0  0  0
    4.0523    0.7698   -0.3877 N   0  0  0  0  0  0  0  0  0  0  0  0
   -1.4597   -0.5040    0.3621 C   0  0  1  0  0  0  0  0  0  0  0  0
   -2.4345    0.4031    1.0741 C   0  0  0  0  0  0  0  0  0  0  0  0
   -3.6594    0.0225    0.7211 C   0  0  0  0  0  0  0  0  0  0  0  0
   -3.5065   -1.1150   -0.2071 C   0  0  0  0  0  0  0  0  0  0  0  0
   -2.2315   -0.8082   -0.8325 N   0  0  0  0  0  0  0  0  0  0  0  0
    0.4066    0.3123    2.0962 H   0  0  0  0  0  0  0  0  0  0  0  0
    1.7238    2.0923    0.2958 H   0  0  0  0  0  0  0  0  0  0  0  0
    2.4322    1.4207    1.8361 H   0  0  0  0  0  0  0  0  0  0  0  0
    1.8026   -1.5780   -0.2690 H   0  0  0  0  0  0  0  0  0  0  0  0
    4.5401    1.6883   -0.2313 H   0  0  0  0  0  0  0  0  0  0  0  0
   -1.3571   -1.4751    0.9098 H   0  0  0  0  0  0  0  0  0  0  0  0
   -2.1476    1.2144    1.7493 H   0  0  0  0  0  0  0  0  0  0  0  0
   -4.5852    0.4763    1.0628 H   0  0  0  0  0  0  0  0  0  0  0  0
   -3.3482   -2.0425    0.3948 H   0  0  0  0  0  0  0  0  0  0  0  0
   -4.3278   -1.2144   -0.9325 H   0  0  0  0  0  0  0  0  0  0  0  0
   -2.3166    0.1150   -1.3495 H   0  0  0  0  0  0  0  0  0  0  0  0
  1  2  2  0
  2  3  1  0
  3  4  1  0
  4  5  1  0
  5  6  2  0
  6  7  1  0
  7  8  2  0
  8  9  1  0
  2 10  1  0
 10 11  1  0
 11 12  2  0
 12 13  1  0
 13 14  1  0
  9  5  1  0
 14 10  1  0
  3 15  1  0
  4 16  1  0
  4 17  1  0
  6 18  1  0
  9 19  1  0
 10 20  1  1
 11 21  1  0
 12 22  1  0
 13 23  1  0
 13 24  1  0
 14 25  1  0
M  END
$$$$

     RDKit          3D

 25 26  0  0  0  0  0  0  0  0999 V2000
   -0.6028   -1.1505   -1.7918 O   0  0  0  0  0  0  0  0  0  0  0  0
   -0.5054   -0.6803   -0.6353 C   0  0  0  0  0  0  0  0  0  0  0  0
    0.7283   -0.1009   -0.2555 N   0  0  0  0  0  0  0  0  0  0  0  0
    1.8723   -0.0339   -1.1513 C   0  0  0  0  0  0  0  0  0  0  0  0
    2.9925    0.6254   -0.4531 C   0  0  0  0  0  0  0  0  0  0  0  0
    3.3183    1.9604   -0.3980 C   0  0  0  0  0  0  0  0  0  0  0  0
    4.4224    2.0845    0.3582 N   0  0  0  0  0  0  0  0  0  0  0  0
    4.7861    0.8837    0.7679 N   0  0  0  0  0  0  0  0  0  0  0  0
    3.9381   -0.0031    0.2896 N   0  0  0  0  0  0  0  0  0  0  0  0
   -1.6470   -0.7417    0.2729 C   0  0  1  0  0  0  0  0  0  0  0  0
   -2.1514    0.6232    0.5888 C   0  0  0  0  0  0  0  0  0  0  0  0
   -3.4567    0.5132    0.8106 C   0  0  0  0  0  0  0  0  0  0  0  0
   -3.8516   -0.9349    0.6462 C   0  0  0  0  0  0  0  0  0  0  0  0
   -2.8106   -1.3690   -0.2998 N   0  0  0  0  0  0  0  0  0  0  0  0
    0.7879    0.2856    0.7142 H   0  0  0  0  0  0  0  0  0  0  0  0
    1.6503    0.5468   -2.0726 H   0  0  0  0  0  0  0  0  0  0  0  0
    2.1578   -1.0587   -1.5161 H   0  0  0  0  0  0  0  0  0  0  0  0
    2.7866    2.7568   -0.8729 H   0  0  0  0  0  0  0  0  0  0  0  0
    3.9791   -1.0320    0.4514 H   0  0  0  0  0  0  0  0  0  0  0  0
   -1.4062   -1.2133    1.2502 H   0  0  0  0  0  0  0  0  0  0  0  0
   -1.5842    1.5456    0.6354 H   0  0  0  0  0  0  0  0  0  0  0  0
   -4.0949    1.3531    1.0652 H   0  0  0  0  0  0  0  0  0  0  0  0
   -4.8505   -1.0373    0.2164 H   0  0  0  0  0  0  0  0  0  0  0  0
   -3.6981   -1.4097    1.6177 H   0  0  0  0  0  0  0  0  0  0  0  0
   -2.7603   -2.4131   -0.2383 H   0  0  0  0  0  0  0  0  0  0  0  0
  1  2  2  0
  2  3  1  0
  3  4  1  0
  4  5  1  0
  5  6  2  0
  6  7  1  0
  7  8  2  0
  8  9  1  0
  2 10  1  0
 10 11  1  0
 11 12  2  0
 12 13  1  0
 13 14  1  0
  9  5  1  0
 14 10  1  0
  3 15  1  0
  4 16  1  0
  4 17  1  0
  6 18  1  0
  9 19  1  0
 10 20  1  1
 11 21  1  0
 12 22  1  0
 13 23  1  0
 13 24  1  0
 14 25  1  0
M  END
$$$$

     RDKit          3D

 25 26  0  0  0  0  0  0  0  0999 V2000
    0.1325   -1.8631    0.9596 O   0  0  0  0  0  0  0  0  0  0  0  0
   -0.4171   -0.9121    0.3145 C   0  0  0  0  0  0  0  0  0  0  0  0
    0.4146   -0.2308   -0.6435 N   0  0  0  0  0  0  0  0  0  0  0  0
    1.7446   -0.4517   -0.9610 C   0  0  0  0  0  0  0  0  0  0  0  0
    2.8777    0.1252   -0.2740 C   0  0  0  0  0  0  0  0  0  0  0  0
    3.1443    1.2014    0.4932 C   0  0  0  0  0  0  0  0  0  0  0  0
    4.4274    1.2806    0.8501 N   0  0  0  0  0  0  0  0  0  0  0  0
    4.9848    0.2077    0.2787 N   0  0  0  0  0  0  0  0  0  0  0  0
    4.1255   -0.5094   -0.3839 N   0  0  0  0  0  0  0  0  0  0  0  0
   -1.8082   -0.5708    0.5443 C   0  0  1  0  0  0  0  0  0  0  0  0
   -2.3323    0.5465    1.2666 C   0  0  0  0  0  0  0  0  0  0  0  0
   -3.3465    1.0665    0.5507 C   0  0  0  0  0  0  0  0  0  0  0  0
   -3.5602    0.3029   -0.7156 C   0  0  0  0  0  0  0  0  0  0  0  0
   -2.6206   -0.8052   -0.6614 N   0  0  0  0  0  0  0  0  0  0  0  0
   -0.1932    0.5303   -1.1534 H   0  0  0  0  0  0  0  0  0  0  0  0
    1.9189   -0.3776   -2.0774 H   0  0  0  0  0  0  0  0  0  0  0  0
    1.9465   -1.6249   -0.8662 H   0  0  0  0  0  0  0  0  0  0  0  0
    2.3385    1.9237    0.7520 H   0  0  0  0  0  0  0  0  0  0  0  0
    4.3426   -1.3803   -0.8833 H   0  0  0  0  0  0  0  0  0  0  0  0
   -2.1907   -1.5155    1.1961 H   0  0  0  0  0  0  0  0  0  0  0  0
   -2.0414    0.9895    2.2291 H   0  0  0  0  0  0  0  0  0  0  0  0
   -3.9880    1.8988    0.7990 H   0  0  0  0  0  0  0  0  0  0  0  0
   -3.3235    0.9661   -1.6137 H   0  0  0  0  0  0  0  0  0  0  0  0
   -4.5690   -0.0755   -0.8463 H   0  0  0  0  0  0  0  0  0  0  0  0
   -2.0072   -0.7226   -1.4979 H   0  0  0  0  0  0  0  0  0  0  0  0
  1  2  2  0
  2  3  1  0
  3  4  1  0
  4  5  1  0
  5  6  2  0
  6  7  1  0
  7  8  2  0
  8  9  1  0
  2 10  1  0
 10 11  1  0
 11 12  2  0
 12 13  1  0
 13 14  1  0
  9  5  1  0
 14 10  1  0
  3 15  1  0
  4 16  1  0
  4 17  1  0
  6 18  1  0
  9 19  1  0
 10 20  1  1
 11 21  1  0
 12 22  1  0
 13 23  1  0
 13 24  1  0
 14 25  1  0
M  END
$$$$

     RDKit          3D

 25 26  0  0  0  0  0  0  0  0999 V2000
    0.5061    0.9185    0.9177 O   0  0  0  0  0  0  0  0  0  0  0  0
   -0.2191    0.7012   -0.0960 C   0  0  0  0  0  0  0  0  0  0  0  0
    0.4172    0.5366   -1.3257 N   0  0  0  0  0  0  0  0  0  0  0  0
    1.8348    0.6009   -1.4904 C   0  0  0  0  0  0  0  0  0  0  0  0
    2.5800   -0.4143   -0.7149 C   0  0  0  0  0  0  0  0  0  0  0  0
    3.9522   -0.4769   -0.6631 C   0  0  0  0  0  0  0  0  0  0  0  0
    4.2970   -1.5119    0.1238 N   0  0  0  0  0  0  0  0  0  0  0  0
    3.1733   -2.0615    0.5376 N   0  0  0  0  0  0  0  0  0  0  0  0
    2.1294   -1.4214    0.0483 N   0  0  0  0  0  0  0  0  0  0  0  0
   -1.6769    0.6437    0.1300 C   0  0  1  0  0  0  0  0  0  0  0  0
   -2.3030   -0.6059   -0.2818 C   0  0  0  0  0  0  0  0  0  0  0  0
   -3.1444   -0.9782    0.6680 C   0  0  0  0  0  0  0  0  0  0  0  0
   -3.1426   -0.0136    1.7738 C   0  0  0  0  0  0  0  0  0  0  0  0
   -2.0215    0.8547    1.5227 N   0  0  0  0  0  0  0  0  0  0  0  0
   -0.1884    0.3563   -2.1696 H   0  0  0  0  0  0  0  0  0  0  0  0
    2.2623    1.5931   -1.1998 H   0  0  0  0  0  0  0  0  0  0  0  0
    2.1200    0.4541   -2.5630 H   0  0  0  0  0  0  0  0  0  0  0  0
    4.6805    0.1816   -1.1609 H   0  0  0  0  0  0  0  0  0  0  0  0
    1.1103   -1.6674    0.2309 H   0  0  0  0  0  0  0  0  0  0  0  0
   -2.1370    1.4745   -0.4442 H   0  0  0  0  0  0  0  0  0  0  0  0
   -2.1308   -1.1503   -1.1896 H   0  0  0  0  0  0  0  0  0  0  0  0
   -3.7870   -1.8826    0.6805 H   0  0  0  0  0  0  0  0  0  0  0  0
   -4.0736    0.5978    1.8253 H   0  0  0  0  0  0  0  0  0  0  0  0
   -3.0358   -0.5840    2.7217 H   0  0  0  0  0  0  0  0  0  0  0  0
   -1.2029    0.6242    2.1185 H   0  0  0  0  0  0  0  0  0  0  0  0
  1  2  2  0
  2  3  1  0
  3  4  1  0
  4  5  1  0
  5  6  2  0
  6  7  1  0
  7  8  2  0
  8  9  1  0
  2 10  1  0
 10 11  1  0
 11 12  2  0
 12 13  1  0
 13 14  1  0
  9  5  1  0
 14 10  1  0
  3 15  1  0
  4 16  1  0
  4 17  1  0
  6 18  1  0
  9 19  1  0
 10 20  1  6
 11 21  1  0
 12 22  1  0
 13 23  1  0
 13 24  1  0
 14 25  1  0
M  END
$$$$

     RDKit          3D

 25 26  0  0  0  0  0  0  0  0999 V2000
   -0.5324   -0.8405   -1.9118 O   0  0  0  0  0  0  0  0  0  0  0  0
   -0.4784   -0.5888   -0.6876 C   0  0  0  0  0  0  0  0  0  0  0  0
    0.7435   -0.1195   -0.1211 N   0  0  0  0  0  0  0  0  0  0  0  0
    1.9411    0.0896   -0.8697 C   0  0  0  0  0  0  0  0  0  0  0  0
    3.0133    0.5777    0.0238 C   0  0  0  0  0  0  0  0  0  0  0  0
    3.2907    1.8967    0.3111 C   0  0  0  0  0  0  0  0  0  0  0  0
    4.3483    1.8492    1.1676 N   0  0  0  0  0  0  0  0  0  0  0  0
    4.6639    0.5668    1.3636 N   0  0  0  0  0  0  0  0  0  0  0  0
    3.8676   -0.2208    0.6801 N   0  0  0  0  0  0  0  0  0  0  0  0
   -1.6356   -0.7558    0.2176 C   0  0  1  0  0  0  0  0  0  0  0  0
   -2.1133    0.5853    0.7039 C   0  0  0  0  0  0  0  0  0  0  0  0
   -3.4163    0.5438    0.8405 C   0  0  0  0  0  0  0  0  0  0  0  0
   -3.8655   -0.8216    0.4530 C   0  0  0  0  0  0  0  0  0  0  0  0
   -2.8137   -1.2335   -0.4591 N   0  0  0  0  0  0  0  0  0  0  0  0
    0.7615    0.0854    0.9157 H   0  0  0  0  0  0  0  0  0  0  0  0
    2.2285   -0.8599   -1.3622 H   0  0  0  0  0  0  0  0  0  0  0  0
    1.7215    0.8938   -1.6275 H   0  0  0  0  0  0  0  0  0  0  0  0
    2.8027    2.8023   -0.0427 H   0  0  0  0  0  0  0  0  0  0  0  0
    3.8807   -1.2687    0.6415 H   0  0  0  0  0  0  0  0  0  0  0  0
   -1.3922   -1.4334    1.0533 H   0  0  0  0  0  0  0  0  0  0  0  0
   -1.4537    1.4179    0.8959 H   0  0  0  0  0  0  0  0  0  0  0  0
   -4.0170    1.3889    1.1814 H   0  0  0  0  0  0  0  0  0  0  0  0
   -3.8518   -1.4779    1.3445 H   0  0  0  0  0  0  0  0  0  0  0  0
   -4.8600   -0.8107   -0.0345 H   0  0  0  0  0  0  0  0  0  0  0  0
   -2.8335   -2.2662   -0.5819 H   0  0  0  0  0  0  0  0  0  0  0  0
  1  2  2  0
  2  3  1  0
  3  4  1  0
  4  5  1  0
  5  6  2  0
  6  7  1  0
  7  8  2  0
  8  9  1  0
  2 10  1  0
 10 11  1  0
 11 12  2  0
 12 13  1  0
 13 14  1  0
  9  5  1  0
 14 10  1  0
  3 15  1  0
  4 16  1  0
  4 17  1  0
  6 18  1  0
  9 19  1  0
 10 20  1  1
 11 21  1  0
 12 22  1  0
 13 23  1  0
 13 24  1  0
 14 25  1  0
M  END
$$$$

     RDKit          3D

 25 26  0  0  0  0  0  0  0  0999 V2000
   -0.6032    0.0199    1.9293 O   0  0  0  0  0  0  0  0  0  0  0  0
   -0.5611    0.2792    0.7011 C   0  0  0  0  0  0  0  0  0  0  0  0
    0.7114    0.2624    0.0585 N   0  0  0  0  0  0  0  0  0  0  0  0
    1.8582   -0.0476    0.8492 C   0  0  0  0  0  0  0  0  0  0  0  0
    3.1193   -0.0416    0.1081 C   0  0  0  0  0  0  0  0  0  0  0  0
    3.6538   -1.1409   -0.5228 C   0  0  0  0  0  0  0  0  0  0  0  0
    4.8124   -0.7756   -1.1003 N   0  0  0  0  0  0  0  0  0  0  0  0
    4.9833    0.5035   -0.8333 N   0  0  0  0  0  0  0  0  0  0  0  0
    3.9787    0.9685   -0.1079 N   0  0  0  0  0  0  0  0  0  0  0  0
   -1.8054    0.5840   -0.0104 C   0  0  1  0  0  0  0  0  0  0  0  0
   -2.0724   -0.5560   -0.9489 C   0  0  0  0  0  0  0  0  0  0  0  0
   -3.3485   -0.9073   -0.8303 C   0  0  0  0  0  0  0  0  0  0  0  0
   -4.0103   -0.0358    0.1828 C   0  0  0  0  0  0  0  0  0  0  0  0
   -2.9105    0.5213    0.9064 N   0  0  0  0  0  0  0  0  0  0  0  0
    0.7611    0.4803   -0.9820 H   0  0  0  0  0  0  0  0  0  0  0  0
    1.9346    0.7451    1.6437 H   0  0  0  0  0  0  0  0  0  0  0  0
    1.7208   -1.0452    1.3139 H   0  0  0  0  0  0  0  0  0  0  0  0
    3.2551   -2.1528   -0.5788 H   0  0  0  0  0  0  0  0  0  0  0  0
    3.8912    1.9641    0.2298 H   0  0  0  0  0  0  0  0  0  0  0  0
   -1.7581    1.5468   -0.5618 H   0  0  0  0  0  0  0  0  0  0  0  0
   -1.3900   -1.0514   -1.6294 H   0  0  0  0  0  0  0  0  0  0  0  0
   -3.8696   -1.6917   -1.3608 H   0  0  0  0  0  0  0  0  0  0  0  0
   -4.5996    0.7755   -0.2966 H   0  0  0  0  0  0  0  0  0  0  0  0
   -4.6404   -0.6166    0.8675 H   0  0  0  0  0  0  0  0  0  0  0  0
   -3.1109    1.4115    1.3944 H   0  0  0  0  0  0  0  0  0  0  0  0
  1  2  2  0
  2  3  1  0
  3  4  1  0
  4  5  1  0
  5  6  2  0
  6  7  1  0
  7  8  2  0
  8  9  1  0
  2 10  1  0
 10 11  1  0
 11 12  2  0
 12 13  1  0
 13 14  1  0
  9  5  1  0
 14 10  1  0
  3 15  1  0
  4 16  1  0
  4 17  1  0
  6 18  1  0
  9 19  1  0
 10 20  1  6
 11 21  1  0
 12 22  1  0
 13 23  1  0
 13 24  1  0
 14 25  1  0
M  END
$$$$

     RDKit          3D

 25 26  0  0  0  0  0  0  0  0999 V2000
   -0.3681   -0.8769    1.6267 O   0  0  0  0  0  0  0  0  0  0  0  0
    0.3161   -0.2290    0.7641 C   0  0  0  0  0  0  0  0  0  0  0  0
   -0.4281    0.7480    0.0254 N   0  0  0  0  0  0  0  0  0  0  0  0
   -1.8280    0.9690    0.2209 C   0  0  0  0  0  0  0  0  0  0  0  0
   -2.8076    0.0854   -0.4316 C   0  0  0  0  0  0  0  0  0  0  0  0
   -3.1070   -1.1856   -0.2011 C   0  0  0  0  0  0  0  0  0  0  0  0
   -4.1270   -1.5021   -1.0163 N   0  0  0  0  0  0  0  0  0  0  0  0
   -4.4540   -0.4378   -1.7487 N   0  0  0  0  0  0  0  0  0  0  0  0
   -3.6790    0.5608   -1.4199 N   0  0  0  0  0  0  0  0  0  0  0  0
    1.7090   -0.5122    0.6558 C   0  0  1  0  0  0  0  0  0  0  0  0
    2.3501   -1.3449   -0.3273 C   0  0  0  0  0  0  0  0  0  0  0  0
    3.3618   -0.6625   -0.8894 C   0  0  0  0  0  0  0  0  0  0  0  0
    3.4511    0.6886   -0.3241 C   0  0  0  0  0  0  0  0  0  0  0  0
    2.5827    0.6418    0.8548 N   0  0  0  0  0  0  0  0  0  0  0  0
    0.1375    1.2828   -0.7250 H   0  0  0  0  0  0  0  0  0  0  0  0
   -2.1293    2.0577    0.0530 H   0  0  0  0  0  0  0  0  0  0  0  0
   -2.1123    0.8477    1.3529 H   0  0  0  0  0  0  0  0  0  0  0  0
   -2.7025   -1.9281    0.5519 H   0  0  0  0  0  0  0  0  0  0  0  0
   -3.6438    1.4870   -1.8044 H   0  0  0  0  0  0  0  0  0  0  0  0
    1.9623   -1.1276    1.6891 H   0  0  0  0  0  0  0  0  0  0  0  0
    2.0869   -2.3914   -0.6377 H   0  0  0  0  0  0  0  0  0  0  0  0
    4.0259   -1.0727   -1.6312 H   0  0  0  0  0  0  0  0  0  0  0  0
    4.4689    1.0066   -0.0443 H   0  0  0  0  0  0  0  0  0  0  0  0
    2.9804    1.3705   -1.0959 H   0  0  0  0  0  0  0  0  0  0  0  0
    1.9539    1.5250    0.8901 H   0  0  0  0  0  0  0  0  0  0  0  0
  1  2  2  0
  2  3  1  0
  3  4  1  0
  4  5  1  0
  5  6  2  0
  6  7  1  0
  7  8  2  0
  8  9  1  0
  2 10  1  0
 10 11  1  0
 11 12  2  0
 12 13  1  0
 13 14  1  0
  9  5  1  0
 14 10  1  0
  3 15  1  0
  4 16  1  0
  4 17  1  0
  6 18  1  0
  9 19  1  0
 10 20  1  1
 11 21  1  0
 12 22  1  0
 13 23  1  0
 13 24  1  0
 14 25  1  0
M  END
$$$$

     RDKit          3D

 25 26  0  0  0  0  0  0  0  0999 V2000
   -1.1280    1.5321    0.5402 O   0  0  0  0  0  0  0  0  0  0  0  0
   -0.7485    0.6402   -0.2763 C   0  0  0  0  0  0  0  0  0  0  0  0
    0.6098    0.2453   -0.2945 N   0  0  0  0  0  0  0  0  0  0  0  0
    1.5295    0.8684    0.6178 C   0  0  0  0  0  0  0  0  0  0  0  0
    2.9031    0.3569    0.4829 C   0  0  0  0  0  0  0  0  0  0  0  0
    3.9204    0.8119   -0.3247 C   0  0  0  0  0  0  0  0  0  0  0  0
    4.9985    0.0192   -0.0986 N   0  0  0  0  0  0  0  0  0  0  0  0
    4.6672   -0.8929    0.8126 N   0  0  0  0  0  0  0  0  0  0  0  0
    3.4069   -0.6842    1.1575 N   0  0  0  0  0  0  0  0  0  0  0  0
   -1.7179    0.0282   -1.1914 C   0  0  1  0  0  0  0  0  0  0  0  0
   -1.9416   -1.4044   -0.8524 C   0  0  0  0  0  0  0  0  0  0  0  0
   -3.0363   -1.5265   -0.1124 C   0  0  0  0  0  0  0  0  0  0  0  0
   -3.6148   -0.1861    0.0914 C   0  0  0  0  0  0  0  0  0  0  0  0
   -3.0391    0.5927   -0.9863 N   0  0  0  0  0  0  0  0  0  0  0  0
    0.9391   -0.4858   -0.9585 H   0  0  0  0  0  0  0  0  0  0  0  0
    1.5051    1.9806    0.4578 H   0  0  0  0  0  0  0  0  0  0  0  0
    1.1173    0.7156    1.6512 H   0  0  0  0  0  0  0  0  0  0  0  0
    3.8360    1.6548   -1.0050 H   0  0  0  0  0  0  0  0  0  0  0  0
    2.8791   -1.2462    1.8532 H   0  0  0  0  0  0  0  0  0  0  0  0
   -1.3969    0.0930   -2.2310 H   0  0  0  0  0  0  0  0  0  0  0  0
   -1.3236   -2.2517   -1.1479 H   0  0  0  0  0  0  0  0  0  0  0  0
   -3.4265   -2.4740    0.2718 H   0  0  0  0  0  0  0  0  0  0  0  0
   -3.2363    0.1907    1.0696 H   0  0  0  0  0  0  0  0  0  0  0  0
   -4.7212   -0.1805    0.0578 H   0  0  0  0  0  0  0  0  0  0  0  0
   -2.9814    1.6028   -0.7871 H   0  0  0  0  0  0  0  0  0  0  0  0
  1  2  2  0
  2  3  1  0
  3  4  1  0
  4  5  1  0
  5  6  2  0
  6  7  1  0
  7  8  2  0
  8  9  1  0
  2 10  1  0
 10 11  1  0
 11 12  2  0
 12 13  1  0
 13 14  1  0
  9  5  1  0
 14 10  1  0
  3 15  1  0
  4 16  1  0
  4 17  1  0
  6 18  1  0
  9 19  1  0
 10 20  1  6
 11 21  1  0
 12 22  1  0
 13 23  1  0
 13 24  1  0
 14 25  1  0
M  END
$$$$
