
     RDKit          3D

 29 29  0  0  0  0  0  0  0  0999 V2000
    2.7522   -1.7717    1.4929 C   0  0  0  0  0  0  0  0  0  0  0  0
    2.3133   -0.5490    0.7694 C   0  0  0  0  0  0  0  0  0  0  0  0
    3.2644    0.3280    0.3337 C   0  0  0  0  0  0  0  0  0  0  0  0
    2.8704    1.4639   -0.3374 C   0  0  0  0  0  0  0  0  0  0  0  0
    3.7734    2.2910   -0.7479 N   0  0  0  0  0  0  0  0  0  0  0  0
    1.5575    1.6667   -0.5389 N   0  0  0  0  0  0  0  0  0  0  0  0
    0.6026    0.8166   -0.1188 C   0  0  0  0  0  0  0  0  0  0  0  0
   -0.7788    1.0728   -0.3552 N   0  0  0  0  0  0  0  0  0  0  0  0
   -1.8368    0.2107    0.0649 C   0  0  2  0  0  0  0  0  0  0  0  0
   -1.7499   -1.1756   -0.5262 C   0  0  0  0  0  0  0  0  0  0  0  0
   -2.8614   -1.9763   -0.0447 N   0  0  0  0  0  0  0  0  0  0  0  0
   -3.2030    0.7896   -0.1688 C   0  0  0  0  0  0  0  0  0  0  0  0
   -3.4332    1.0561   -1.5168 O   0  0  0  0  0  0  0  0  0  0  0  0
    1.0266   -0.2832    0.5338 N   0  0  0  0  0  0  0  0  0  0  0  0
    3.7485   -1.6424    1.9577 H   0  0  0  0  0  0  0  0  0  0  0  0
    2.7853   -2.6032    0.7720 H   0  0  0  0  0  0  0  0  0  0  0  0
    2.0444   -1.9568    2.3414 H   0  0  0  0  0  0  0  0  0  0  0  0
    4.3278    0.1651    0.4962 H   0  0  0  0  0  0  0  0  0  0  0  0
    3.5230    3.1647   -1.2607 H   0  0  0  0  0  0  0  0  0  0  0  0
    1.2827    2.5330   -1.0491 H   0  0  0  0  0  0  0  0  0  0  0  0
   -1.0362    1.9461   -0.8682 H   0  0  0  0  0  0  0  0  0  0  0  0
   -1.7339    0.0863    1.1791 H   0  0  0  0  0  0  0  0  0  0  0  0
   -1.8936   -1.0938   -1.6351 H   0  0  0  0  0  0  0  0  0  0  0  0
   -0.8277   -1.6959   -0.2739 H   0  0  0  0  0  0  0  0  0  0  0  0
   -2.9822   -1.8028    0.9875 H   0  0  0  0  0  0  0  0  0  0  0  0
   -2.6886   -2.9872   -0.1806 H   0  0  0  0  0  0  0  0  0  0  0  0
   -3.3347    1.7144    0.4555 H   0  0  0  0  0  0  0  0  0  0  0  0
   -3.9433    0.0620    0.2055 H   0  0  0  0  0  0  0  0  0  0  0  0
   -3.5691    0.1712   -1.9668 H   0  0  0  0  0  0  0  0  0  0  0  0
  1  2  1  0
  2  3  2  0
  3  4  1  0
  4  5  2  3
  4  6  1  0
  6  7  1  0
  7  8  1  0
  8  9  1  0
  9 10  1  0
 10 11  1  0
  9 12  1  0
 12 13  1  0
  7 14  2  0
 14  2  1  0
  1 15  1  0
  1 16  1  0
  1 17  1  0
  3 18  1  0
  5 19  1  0
  6 20  1  0
  8 21  1  0
  9 22  1  1
 10 23  1  0
 10 24  1  0
 11 25  1  0
 11 26  1  0
 12 27  1  0
 12 28  1  0
 13 29  1  0
M  END
$$$$

     RDKit          3D

 29 29  0  0  0  0  0  0  0  0999 V2000
    2.7867   -2.0288    1.1914 C   0  0  0  0  0  0  0  0  0  0  0  0
    2.3209   -0.7441    0.6177 C   0  0  0  0  0  0  0  0  0  0  0  0
    3.2265    0.1082    0.0268 C   0  0  0  0  0  0  0  0  0  0  0  0
    2.7431    1.2920   -0.4924 C   0  0  0  0  0  0  0  0  0  0  0  0
    3.5221    2.1332   -1.0558 N   0  0  0  0  0  0  0  0  0  0  0  0
    1.4171    1.6050   -0.4222 N   0  0  0  0  0  0  0  0  0  0  0  0
    0.5615    0.7563    0.1582 C   0  0  0  0  0  0  0  0  0  0  0  0
   -0.8079    1.0882    0.2264 N   0  0  0  0  0  0  0  0  0  0  0  0
   -1.8247    0.2416    0.8301 C   0  0  2  0  0  0  0  0  0  0  0  0
   -1.8987   -1.0263    0.0265 C   0  0  0  0  0  0  0  0  0  0  0  0
   -2.8941   -1.9448    0.5498 N   0  0  0  0  0  0  0  0  0  0  0  0
   -3.1310    1.0043    0.7938 C   0  0  0  0  0  0  0  0  0  0  0  0
   -3.4979    1.3152   -0.5002 O   0  0  0  0  0  0  0  0  0  0  0  0
    1.0180   -0.3863    0.6612 N   0  0  0  0  0  0  0  0  0  0  0  0
    2.9608   -2.7411    0.3699 H   0  0  0  0  0  0  0  0  0  0  0  0
    1.9737   -2.4165    1.8393 H   0  0  0  0  0  0  0  0  0  0  0  0
    3.7052   -1.8274    1.7761 H   0  0  0  0  0  0  0  0  0  0  0  0
    4.2726   -0.1457   -0.0251 H   0  0  0  0  0  0  0  0  0  0  0  0
    4.5330    1.9257   -1.1252 H   0  0  0  0  0  0  0  0  0  0  0  0
    1.1027    2.5175   -0.8325 H   0  0  0  0  0  0  0  0  0  0  0  0
   -1.0918    2.0267   -0.2001 H   0  0  0  0  0  0  0  0  0  0  0  0
   -1.5830    0.0331    1.9045 H   0  0  0  0  0  0  0  0  0  0  0  0
   -0.9298   -1.5341    0.0713 H   0  0  0  0  0  0  0  0  0  0  0  0
   -2.1727   -0.7509   -1.0087 H   0  0  0  0  0  0  0  0  0  0  0  0
   -3.0416   -2.6711   -0.1925 H   0  0  0  0  0  0  0  0  0  0  0  0
   -2.5589   -2.3782    1.4386 H   0  0  0  0  0  0  0  0  0  0  0  0
   -3.0918    1.8885    1.4546 H   0  0  0  0  0  0  0  0  0  0  0  0
   -3.9544    0.3610    1.2095 H   0  0  0  0  0  0  0  0  0  0  0  0
   -3.6653    2.2990   -0.5465 H   0  0  0  0  0  0  0  0  0  0  0  0
  1  2  1  0
  2  3  2  0
  3  4  1  0
  4  5  2  3
  4  6  1  0
  6  7  1  0
  7  8  1  0
  8  9  1  0
  9 10  1  0
 10 11  1  0
  9 12  1  0
 12 13  1  0
  7 14  2  0
 14  2  1  0
  1 15  1  0
  1 16  1  0
  1 17  1  0
  3 18  1  0
  5 19  1  0
  6 20  1  0
  8 21  1  0
  9 22  1  1
 10 23  1  0
 10 24  1  0
 11 25  1  0
 11 26  1  0
 12 27  1  0
 12 28  1  0
 13 29  1  0
M  END
$$$$

     RDKit          3D

 29 29  0  0  0  0  0  0  0  0999 V2000
    4.1564    1.1878   -1.0658 C   0  0  0  0  0  0  0  0  0  0  0  0
    3.0004    0.3826   -0.5526 C   0  0  0  0  0  0  0  0  0  0  0  0
    3.1576   -0.9401   -0.1997 C   0  0  0  0  0  0  0  0  0  0  0  0
    2.0848   -1.6654    0.2705 C   0  0  0  0  0  0  0  0  0  0  0  0
    2.2266   -2.9029    0.6020 N   0  0  0  0  0  0  0  0  0  0  0  0
    0.8927   -1.0209    0.3648 N   0  0  0  0  0  0  0  0  0  0  0  0
    0.7006    0.2517    0.0343 C   0  0  0  0  0  0  0  0  0  0  0  0
   -0.5411    0.9014    0.1624 N   0  0  0  0  0  0  0  0  0  0  0  0
   -1.7610    0.3296    0.6080 C   0  0  2  0  0  0  0  0  0  0  0  0
   -2.3924   -0.5889   -0.3795 C   0  0  0  0  0  0  0  0  0  0  0  0
   -2.7098    0.0947   -1.6392 N   0  0  0  0  0  0  0  0  0  0  0  0
   -2.7676    1.3778    1.0471 C   0  0  0  0  0  0  0  0  0  0  0  0
   -3.9148    0.6995    1.4596 O   0  0  0  0  0  0  0  0  0  0  0  0
    1.7950    0.9352   -0.4284 N   0  0  0  0  0  0  0  0  0  0  0  0
    4.1107    2.1941   -0.6429 H   0  0  0  0  0  0  0  0  0  0  0  0
    5.0954    0.7086   -0.6762 H   0  0  0  0  0  0  0  0  0  0  0  0
    4.1517    1.2356   -2.1661 H   0  0  0  0  0  0  0  0  0  0  0  0
    4.1553   -1.3730   -0.3100 H   0  0  0  0  0  0  0  0  0  0  0  0
    1.4319   -3.4694    0.9589 H   0  0  0  0  0  0  0  0  0  0  0  0
    0.0873   -1.5901    0.7416 H   0  0  0  0  0  0  0  0  0  0  0  0
   -0.5723    1.9345   -0.1031 H   0  0  0  0  0  0  0  0  0  0  0  0
   -1.5317   -0.2661    1.5327 H   0  0  0  0  0  0  0  0  0  0  0  0
   -1.7545   -1.4485   -0.6255 H   0  0  0  0  0  0  0  0  0  0  0  0
   -3.3533   -0.9970    0.0342 H   0  0  0  0  0  0  0  0  0  0  0  0
   -3.1471   -0.6117   -2.2732 H   0  0  0  0  0  0  0  0  0  0  0  0
   -3.4701    0.8107   -1.4487 H   0  0  0  0  0  0  0  0  0  0  0  0
   -2.4158    1.9708    1.8907 H   0  0  0  0  0  0  0  0  0  0  0  0
   -3.0406    2.0186    0.1694 H   0  0  0  0  0  0  0  0  0  0  0  0
   -3.6740   -0.1592    1.8878 H   0  0  0  0  0  0  0  0  0  0  0  0
  1  2  1  0
  2  3  2  0
  3  4  1  0
  4  5  2  3
  4  6  1  0
  6  7  1  0
  7  8  1  0
  8  9  1  0
  9 10  1  0
 10 11  1  0
  9 12  1  0
 12 13  1  0
  7 14  2  0
 14  2  1  0
  1 15  1  0
  1 16  1  0
  1 17  1  0
  3 18  1  0
  5 19  1  0
  6 20  1  0
  8 21  1  0
  9 22  1  1
 10 23  1  0
 10 24  1  0
 11 25  1  0
 11 26  1  0
 12 27  1  0
 12 28  1  0
 13 29  1  0
M  END
$$$$

     RDKit          3D

 29 29  0  0  0  0  0  0  0  0999 V2000
    4.0705    0.2192   -1.3193 C   0  0  0  0  0  0  0  0  0  0  0  0
    2.8645    0.1296   -0.4587 C   0  0  0  0  0  0  0  0  0  0  0  0
    3.0538   -0.1265    0.8836 C   0  0  0  0  0  0  0  0  0  0  0  0
    1.9213   -0.2090    1.6843 C   0  0  0  0  0  0  0  0  0  0  0  0
    2.0699   -0.4446    2.9269 N   0  0  0  0  0  0  0  0  0  0  0  0
    0.6825   -0.0384    1.1337 N   0  0  0  0  0  0  0  0  0  0  0  0
    0.5220    0.2071   -0.1621 C   0  0  0  0  0  0  0  0  0  0  0  0
   -0.7645    0.3946   -0.6963 N   0  0  0  0  0  0  0  0  0  0  0  0
   -2.0197    0.3366   -0.0415 C   0  0  2  0  0  0  0  0  0  0  0  0
   -2.4910   -0.9948    0.4133 C   0  0  0  0  0  0  0  0  0  0  0  0
   -2.6413   -1.9549   -0.6619 N   0  0  0  0  0  0  0  0  0  0  0  0
   -3.0551    1.0559   -0.8966 C   0  0  0  0  0  0  0  0  0  0  0  0
   -2.6107    2.3717   -1.0248 O   0  0  0  0  0  0  0  0  0  0  0  0
    1.6313    0.2889   -0.9507 N   0  0  0  0  0  0  0  0  0  0  0  0
    4.8195   -0.5563   -1.1041 H   0  0  0  0  0  0  0  0  0  0  0  0
    4.5621    1.2057   -1.0942 H   0  0  0  0  0  0  0  0  0  0  0  0
    3.8021    0.2699   -2.3995 H   0  0  0  0  0  0  0  0  0  0  0  0
    4.0360   -0.2627    1.3249 H   0  0  0  0  0  0  0  0  0  0  0  0
    3.0125   -0.5739    3.3427 H   0  0  0  0  0  0  0  0  0  0  0  0
   -0.1314   -0.0970    1.7634 H   0  0  0  0  0  0  0  0  0  0  0  0
   -0.8003    0.6087   -1.7474 H   0  0  0  0  0  0  0  0  0  0  0  0
   -1.9405    0.9844    0.8815 H   0  0  0  0  0  0  0  0  0  0  0  0
   -3.5146   -0.8249    0.8670 H   0  0  0  0  0  0  0  0  0  0  0  0
   -1.9151   -1.4729    1.2137 H   0  0  0  0  0  0  0  0  0  0  0  0
   -3.3022   -2.6969   -0.2882 H   0  0  0  0  0  0  0  0  0  0  0  0
   -1.7300   -2.4591   -0.7887 H   0  0  0  0  0  0  0  0  0  0  0  0
   -3.0002    0.6099   -1.9126 H   0  0  0  0  0  0  0  0  0  0  0  0
   -4.0574    1.0378   -0.4546 H   0  0  0  0  0  0  0  0  0  0  0  0
   -3.0741    2.9920   -0.4340 H   0  0  0  0  0  0  0  0  0  0  0  0
  1  2  1  0
  2  3  2  0
  3  4  1  0
  4  5  2  3
  4  6  1  0
  6  7  1  0
  7  8  1  0
  8  9  1  0
  9 10  1  0
 10 11  1  0
  9 12  1  0
 12 13  1  0
  7 14  2  0
 14  2  1  0
  1 15  1  0
  1 16  1  0
  1 17  1  0
  3 18  1  0
  5 19  1  0
  6 20  1  0
  8 21  1  0
  9 22  1  1
 10 23  1  0
 10 24  1  0
 11 25  1  0
 11 26  1  0
 12 27  1  0
 12 28  1  0
 13 29  1  0
M  END
$$$$

     RDKit          3D

 29 29  0  0  0  0  0  0  0  0999 V2000
    2.3578   -0.3615    3.7712 C   0  0  0  0  0  0  0  0  0  0  0  0
    1.9409   -0.0030    2.3827 C   0  0  0  0  0  0  0  0  0  0  0  0
    2.8724    0.6106    1.5751 C   0  0  0  0  0  0  0  0  0  0  0  0
    2.5296    0.9539    0.3006 C   0  0  0  0  0  0  0  0  0  0  0  0
    3.3855    1.5255   -0.4632 N   0  0  0  0  0  0  0  0  0  0  0  0
    1.2587    0.6711   -0.1288 N   0  0  0  0  0  0  0  0  0  0  0  0
    0.3606    0.0737    0.6628 C   0  0  0  0  0  0  0  0  0  0  0  0
   -0.9597   -0.1940    0.2428 N   0  0  0  0  0  0  0  0  0  0  0  0
   -1.5083    0.0681   -1.0633 C   0  0  2  0  0  0  0  0  0  0  0  0
   -3.0409    0.1406   -0.9820 C   0  0  0  0  0  0  0  0  0  0  0  0
   -3.5770    0.4034   -2.2960 N   0  0  0  0  0  0  0  0  0  0  0  0
   -1.1925   -1.1582   -1.9326 C   0  0  0  0  0  0  0  0  0  0  0  0
    0.1473   -1.3481   -1.9951 O   0  0  0  0  0  0  0  0  0  0  0  0
    0.7212   -0.2549    1.9154 N   0  0  0  0  0  0  0  0  0  0  0  0
    1.6278   -0.9769    4.2954 H   0  0  0  0  0  0  0  0  0  0  0  0
    2.5198    0.5603    4.3529 H   0  0  0  0  0  0  0  0  0  0  0  0
    3.3569   -0.8679    3.6744 H   0  0  0  0  0  0  0  0  0  0  0  0
    3.8870    0.8377    1.9141 H   0  0  0  0  0  0  0  0  0  0  0  0
    3.0948    1.7767   -1.4337 H   0  0  0  0  0  0  0  0  0  0  0  0
    1.0063    0.9620   -1.1085 H   0  0  0  0  0  0  0  0  0  0  0  0
   -1.6122   -0.6314    0.9601 H   0  0  0  0  0  0  0  0  0  0  0  0
   -1.1399    0.9536   -1.5716 H   0  0  0  0  0  0  0  0  0  0  0  0
   -3.3943   -0.8717   -0.6801 H   0  0  0  0  0  0  0  0  0  0  0  0
   -3.3425    0.9315   -0.2822 H   0  0  0  0  0  0  0  0  0  0  0  0
   -4.2725   -0.3170   -2.6090 H   0  0  0  0  0  0  0  0  0  0  0  0
   -4.0750    1.3273   -2.3239 H   0  0  0  0  0  0  0  0  0  0  0  0
   -1.6886   -1.0281   -2.9155 H   0  0  0  0  0  0  0  0  0  0  0  0
   -1.7211   -2.0071   -1.4099 H   0  0  0  0  0  0  0  0  0  0  0  0
    0.4580   -1.7762   -2.8519 H   0  0  0  0  0  0  0  0  0  0  0  0
  1  2  1  0
  2  3  2  0
  3  4  1  0
  4  5  2  3
  4  6  1  0
  6  7  1  0
  7  8  1  0
  8  9  1  0
  9 10  1  0
 10 11  1  0
  9 12  1  0
 12 13  1  0
  7 14  2  0
 14  2  1  0
  1 15  1  0
  1 16  1  0
  1 17  1  0
  3 18  1  0
  5 19  1  0
  6 20  1  0
  8 21  1  0
  9 22  1  6
 10 23  1  0
 10 24  1  0
 11 25  1  0
 11 26  1  0
 12 27  1  0
 12 28  1  0
 13 29  1  0
M  END
$$$$

     RDKit          3D

 29 29  0  0  0  0  0  0  0  0999 V2000
    2.9446   -2.2017   -0.4156 C   0  0  0  0  0  0  0  0  0  0  0  0
    2.3730   -0.8343   -0.1935 C   0  0  0  0  0  0  0  0  0  0  0  0
    3.2154    0.2508   -0.3109 C   0  0  0  0  0  0  0  0  0  0  0  0
    2.6681    1.5008   -0.1023 C   0  0  0  0  0  0  0  0  0  0  0  0
    3.4640    2.5120   -0.2142 N   0  0  0  0  0  0  0  0  0  0  0  0
    1.3684    1.6098    0.1997 N   0  0  0  0  0  0  0  0  0  0  0  0
    0.5422    0.5577    0.3158 C   0  0  0  0  0  0  0  0  0  0  0  0
   -0.8455    0.7325    0.6421 N   0  0  0  0  0  0  0  0  0  0  0  0
   -1.7582   -0.3546    0.7754 C   0  0  2  0  0  0  0  0  0  0  0  0
   -1.8925   -1.1744   -0.4894 C   0  0  0  0  0  0  0  0  0  0  0  0
   -2.3612   -0.4065   -1.5998 N   0  0  0  0  0  0  0  0  0  0  0  0
   -3.1152    0.1500    1.1929 C   0  0  0  0  0  0  0  0  0  0  0  0
   -3.6559    1.0375    0.2763 O   0  0  0  0  0  0  0  0  0  0  0  0
    1.0690   -0.6637    0.1137 N   0  0  0  0  0  0  0  0  0  0  0  0
    2.2661   -2.8278   -1.0386 H   0  0  0  0  0  0  0  0  0  0  0  0
    3.8872   -2.1132   -0.9989 H   0  0  0  0  0  0  0  0  0  0  0  0
    3.1109   -2.7357    0.5388 H   0  0  0  0  0  0  0  0  0  0  0  0
    4.2600    0.0907   -0.5586 H   0  0  0  0  0  0  0  0  0  0  0  0
    3.0396    3.4617   -0.0537 H   0  0  0  0  0  0  0  0  0  0  0  0
    0.9693    2.5629    0.3547 H   0  0  0  0  0  0  0  0  0  0  0  0
   -1.1863    1.7068    0.7853 H   0  0  0  0  0  0  0  0  0  0  0  0
   -1.3848   -1.0055    1.5999 H   0  0  0  0  0  0  0  0  0  0  0  0
   -0.9557   -1.7327   -0.7074 H   0  0  0  0  0  0  0  0  0  0  0  0
   -2.6575   -1.9602   -0.2692 H   0  0  0  0  0  0  0  0  0  0  0  0
   -1.9807    0.5430   -1.6701 H   0  0  0  0  0  0  0  0  0  0  0  0
   -3.3874   -0.4739   -1.7604 H   0  0  0  0  0  0  0  0  0  0  0  0
   -3.8243   -0.7015    1.2749 H   0  0  0  0  0  0  0  0  0  0  0  0
   -3.0798    0.6700    2.1717 H   0  0  0  0  0  0  0  0  0  0  0  0
   -3.0928    1.7993    0.0630 H   0  0  0  0  0  0  0  0  0  0  0  0
  1  2  1  0
  2  3  2  0
  3  4  1  0
  4  5  2  3
  4  6  1  0
  6  7  1  0
  7  8  1  0
  8  9  1  0
  9 10  1  0
 10 11  1  0
  9 12  1  0
 12 13  1  0
  7 14  2  0
 14  2  1  0
  1 15  1  0
  1 16  1  0
  1 17  1  0
  3 18  1  0
  5 19  1  0
  6 20  1  0
  8 21  1  0
  9 22  1  1
 10 23  1  0
 10 24  1  0
 11 25  1  0
 11 26  1  0
 12 27  1  0
 12 28  1  0
 13 29  1  0
M  END
$$$$

     RDKit          3D

 29 29  0  0  0  0  0  0  0  0999 V2000
    3.9928    1.4614    0.8748 C   0  0  0  0  0  0  0  0  0  0  0  0
    2.9278    0.5031    0.4650 C   0  0  0  0  0  0  0  0  0  0  0  0
    3.1956   -0.8306    0.2190 C   0  0  0  0  0  0  0  0  0  0  0  0
    2.1261   -1.6161   -0.1538 C   0  0  0  0  0  0  0  0  0  0  0  0
    2.3099   -2.8626   -0.3960 N   0  0  0  0  0  0  0  0  0  0  0  0
    0.8716   -1.1280   -0.2785 N   0  0  0  0  0  0  0  0  0  0  0  0
    0.6288    0.1620   -0.0367 C   0  0  0  0  0  0  0  0  0  0  0  0
   -0.6322    0.7839   -0.1619 N   0  0  0  0  0  0  0  0  0  0  0  0
   -1.8362    0.0994   -0.5181 C   0  0  2  0  0  0  0  0  0  0  0  0
   -2.8936    1.1121   -1.0031 C   0  0  0  0  0  0  0  0  0  0  0  0
   -4.1071    0.4279   -1.3627 N   0  0  0  0  0  0  0  0  0  0  0  0
   -2.4414   -0.3974    0.8102 C   0  0  0  0  0  0  0  0  0  0  0  0
   -1.5331   -1.2247    1.4213 O   0  0  0  0  0  0  0  0  0  0  0  0
    1.6935    0.9351    0.3320 N   0  0  0  0  0  0  0  0  0  0  0  0
    3.7371    1.8070    1.8975 H   0  0  0  0  0  0  0  0  0  0  0  0
    3.9290    2.3295    0.1935 H   0  0  0  0  0  0  0  0  0  0  0  0
    4.9940    1.0277    0.7957 H   0  0  0  0  0  0  0  0  0  0  0  0
    4.1997   -1.1962    0.3245 H   0  0  0  0  0  0  0  0  0  0  0  0
    3.2080   -3.3595   -0.3394 H   0  0  0  0  0  0  0  0  0  0  0  0
    0.0913   -1.7523   -0.5805 H   0  0  0  0  0  0  0  0  0  0  0  0
   -0.6975    1.8199    0.0177 H   0  0  0  0  0  0  0  0  0  0  0  0
   -1.7006   -0.6819   -1.2455 H   0  0  0  0  0  0  0  0  0  0  0  0
   -2.4603    1.6172   -1.8690 H   0  0  0  0  0  0  0  0  0  0  0  0
   -3.0821    1.8467   -0.2164 H   0  0  0  0  0  0  0  0  0  0  0  0
   -4.8932    1.0864   -1.4184 H   0  0  0  0  0  0  0  0  0  0  0  0
   -3.9389   -0.1473   -2.2024 H   0  0  0  0  0  0  0  0  0  0  0  0
   -2.6652    0.4730    1.4378 H   0  0  0  0  0  0  0  0  0  0  0  0
   -3.3657   -0.9715    0.5991 H   0  0  0  0  0  0  0  0  0  0  0  0
   -1.6577   -1.3241    2.3941 H   0  0  0  0  0  0  0  0  0  0  0  0
  1  2  1  0
  2  3  2  0
  3  4  1  0
  4  5  2  3
  4  6  1  0
  6  7  1  0
  7  8  1  0
  8  9  1  0
  9 10  1  0
 10 11  1  0
  9 12  1  0
 12 13  1  0
  7 14  2  0
 14  2  1  0
  1 15  1  0
  1 16  1  0
  1 17  1  0
  3 18  1  0
  5 19  1  0
  6 20  1  0
  8 21  1  0
  9 22  1  6
 10 23  1  0
 10 24  1  0
 11 25  1  0
 11 26  1  0
 12 27  1  0
 12 28  1  0
 13 29  1  0
M  END
$$$$

     RDKit          3D

 29 29  0  0  0  0  0  0  0  0999 V2000
    2.8263   -1.9353   -0.0676 C   0  0  0  0  0  0  0  0  0  0  0  0
    2.3309   -0.5578   -0.2452 C   0  0  0  0  0  0  0  0  0  0  0  0
    3.1475    0.4806   -0.6594 C   0  0  0  0  0  0  0  0  0  0  0  0
    2.6226    1.7337   -0.8034 C   0  0  0  0  0  0  0  0  0  0  0  0
    3.3683    2.7103   -1.1877 N   0  0  0  0  0  0  0  0  0  0  0  0
    1.3286    1.9624   -0.5474 N   0  0  0  0  0  0  0  0  0  0  0  0
    0.5278    0.9608   -0.1447 C   0  0  0  0  0  0  0  0  0  0  0  0
   -0.8317    1.1809    0.1286 N   0  0  0  0  0  0  0  0  0  0  0  0
   -1.7221    0.1311    0.5604 C   0  0  2  0  0  0  0  0  0  0  0  0
   -1.8634   -0.9517   -0.4827 C   0  0  0  0  0  0  0  0  0  0  0  0
   -2.7615   -2.0027   -0.0430 N   0  0  0  0  0  0  0  0  0  0  0  0
   -3.0413    0.7407    0.9334 C   0  0  0  0  0  0  0  0  0  0  0  0
   -3.9509   -0.2237    1.3612 O   0  0  0  0  0  0  0  0  0  0  0  0
    1.0484   -0.2609   -0.0064 N   0  0  0  0  0  0  0  0  0  0  0  0
    3.9315   -1.9131   -0.1360 H   0  0  0  0  0  0  0  0  0  0  0  0
    2.4488   -2.5389   -0.9367 H   0  0  0  0  0  0  0  0  0  0  0  0
    2.4609   -2.3935    0.8730 H   0  0  0  0  0  0  0  0  0  0  0  0
    4.1769    0.2645   -0.8558 H   0  0  0  0  0  0  0  0  0  0  0  0
    4.3810    2.5532   -1.3927 H   0  0  0  0  0  0  0  0  0  0  0  0
    0.9730    2.9412   -0.6727 H   0  0  0  0  0  0  0  0  0  0  0  0
   -1.2247    2.1576    0.0134 H   0  0  0  0  0  0  0  0  0  0  0  0
   -1.2927   -0.3632    1.4704 H   0  0  0  0  0  0  0  0  0  0  0  0
   -2.2056   -0.5797   -1.4583 H   0  0  0  0  0  0  0  0  0  0  0  0
   -0.8832   -1.4368   -0.6477 H   0  0  0  0  0  0  0  0  0  0  0  0
   -3.1711   -2.5387   -0.8130 H   0  0  0  0  0  0  0  0  0  0  0  0
   -2.4220   -2.5357    0.7633 H   0  0  0  0  0  0  0  0  0  0  0  0
   -3.4482    1.3882    0.1534 H   0  0  0  0  0  0  0  0  0  0  0  0
   -2.8526    1.3953    1.8295 H   0  0  0  0  0  0  0  0  0  0  0  0
   -3.9014   -0.3689    2.3403 H   0  0  0  0  0  0  0  0  0  0  0  0
  1  2  1  0
  2  3  2  0
  3  4  1  0
  4  5  2  3
  4  6  1  0
  6  7  1  0
  7  8  1  0
  8  9  1  0
  9 10  1  0
 10 11  1  0
  9 12  1  0
 12 13  1  0
  7 14  2  0
 14  2  1  0
  1 15  1  0
  1 16  1  0
  1 17  1  0
  3 18  1  0
  5 19  1  0
  6 20  1  0
  8 21  1  0
  9 22  1  1
 10 23  1  0
 10 24  1  0
 11 25  1  0
 11 26  1  0
 12 27  1  0
 12 28  1  0
 13 29  1  0
M  END
$$$$
