
     RDKit          3D

 31 32  0  0  0  0  0  0  0  0999 V2000
    3.7864    0.0738   -0.0885 C   0  0  0  0  0  0  0  0  0  0  0  0
    2.3762    0.2224   -0.5712 C   0  0  2  0  0  0  0  0  0  0  0  0
    1.9922    1.6480   -0.6272 N   0  0  0  0  0  0  0  0  0  0  0  0
    1.7533    1.5192    0.8108 C   0  0  0  0  0  0  0  0  0  0  0  0
    1.2977    0.1116    0.4968 C   0  0  1  0  0  0  0  0  0  0  0  0
    0.0160    0.0116   -0.1199 N   0  0  0  0  0  0  0  0  0  0  0  0
   -0.1545   -1.1546   -0.9079 C   0  0  0  0  0  0  0  0  0  0  0  0
   -1.6684   -1.2436   -1.0968 C   0  0  0  0  0  0  0  0  0  0  0  0
   -2.1729   -0.7769    0.2483 C   0  0  2  0  0  0  0  0  0  0  0  0
   -2.1910   -1.8221    1.1542 O   0  0  0  0  0  0  0  0  0  0  0  0
   -3.4946   -0.1159    0.1048 C   0  0  0  0  0  0  0  0  0  0  0  0
   -3.6415    0.9480   -0.7969 N   0  0  0  0  0  0  0  0  0  0  0  0
   -4.4599   -0.5094    0.7829 O   0  0  0  0  0  0  0  0  0  0  0  0
   -1.1154    0.2214    0.7081 C   0  0  0  0  0  0  0  0  0  0  0  0
    3.8524   -0.4331    0.8730 H   0  0  0  0  0  0  0  0  0  0  0  0
    4.2703    1.0830    0.0116 H   0  0  0  0  0  0  0  0  0  0  0  0
    4.3598   -0.4338   -0.8971 H   0  0  0  0  0  0  0  0  0  0  0  0
    2.1475   -0.3207   -1.4877 H   0  0  0  0  0  0  0  0  0  0  0  0
    2.7647    2.2703   -0.8766 H   0  0  0  0  0  0  0  0  0  0  0  0
    2.7426    1.4646    1.3233 H   0  0  0  0  0  0  0  0  0  0  0  0
    1.0242    2.1958    1.2403 H   0  0  0  0  0  0  0  0  0  0  0  0
    1.5243   -0.6346    1.2890 H   0  0  0  0  0  0  0  0  0  0  0  0
    0.3058   -1.0306   -1.9083 H   0  0  0  0  0  0  0  0  0  0  0  0
    0.2466   -2.0853   -0.4659 H   0  0  0  0  0  0  0  0  0  0  0  0
   -1.9018   -0.5056   -1.8978 H   0  0  0  0  0  0  0  0  0  0  0  0
   -2.0140   -2.2465   -1.3650 H   0  0  0  0  0  0  0  0  0  0  0  0
   -1.7940   -2.6279    0.7799 H   0  0  0  0  0  0  0  0  0  0  0  0
   -3.4298    1.9330   -0.4806 H   0  0  0  0  0  0  0  0  0  0  0  0
   -3.9524    0.8652   -1.7906 H   0  0  0  0  0  0  0  0  0  0  0  0
   -0.9722    0.1133    1.7864 H   0  0  0  0  0  0  0  0  0  0  0  0
   -1.4976    1.2593    0.4837 H   0  0  0  0  0  0  0  0  0  0  0  0
  1  2  1  0
  2  3  1  0
  3  4  1  0
  4  5  1  0
  5  6  1  0
  6  7  1  0
  7  8  1  0
  8  9  1  0
  9 10  1  1
  9 11  1  0
 11 12  1  0
 11 13  2  0
  9 14  1  0
  5  2  1  0
 14  6  1  0
  1 15  1  0
  1 16  1  0
  1 17  1  0
  2 18  1  6
  3 19  1  0
  4 20  1  0
  4 21  1  0
  5 22  1  1
  7 23  1  0
  7 24  1  0
  8 25  1  0
  8 26  1  0
 10 27  1  0
 12 28  1  0
 12 29  1  0
 14 30  1  0
 14 31  1  0
M  END
$$$$

     RDKit          3D

 31 32  0  0  0  0  0  0  0  0999 V2000
   -3.4168    1.3963    0.2416 C   0  0  0  0  0  0  0  0  0  0  0  0
   -2.1371    0.9447   -0.4287 C   0  0  2  0  0  0  0  0  0  0  0  0
   -2.4187   -0.0527   -1.4453 N   0  0  0  0  0  0  0  0  0  0  0  0
   -2.5795   -0.9959   -0.3346 C   0  0  0  0  0  0  0  0  0  0  0  0
   -1.5018   -0.1597    0.3811 C   0  0  1  0  0  0  0  0  0  0  0  0
   -0.2224   -0.6136   -0.0623 N   0  0  0  0  0  0  0  0  0  0  0  0
    0.3372   -1.4829    0.9293 C   0  0  0  0  0  0  0  0  0  0  0  0
    1.8383   -1.3861    0.7863 C   0  0  0  0  0  0  0  0  0  0  0  0
    2.0582   -0.2303   -0.1303 C   0  0  2  0  0  0  0  0  0  0  0  0
    2.6801   -0.6980   -1.2794 O   0  0  0  0  0  0  0  0  0  0  0  0
    2.9315    0.8095    0.4698 C   0  0  0  0  0  0  0  0  0  0  0  0
    4.1672    1.1767   -0.1149 N   0  0  0  0  0  0  0  0  0  0  0  0
    2.5292    1.3593    1.5293 O   0  0  0  0  0  0  0  0  0  0  0  0
    0.7074    0.3862   -0.4266 C   0  0  0  0  0  0  0  0  0  0  0  0
   -3.4550    1.1139    1.3206 H   0  0  0  0  0  0  0  0  0  0  0  0
   -3.5161    2.5105    0.2293 H   0  0  0  0  0  0  0  0  0  0  0  0
   -4.3194    1.0189   -0.2762 H   0  0  0  0  0  0  0  0  0  0  0  0
   -1.4547    1.7624   -0.7250 H   0  0  0  0  0  0  0  0  0  0  0  0
   -3.2445    0.1043   -2.0276 H   0  0  0  0  0  0  0  0  0  0  0  0
   -2.2537   -2.0114   -0.5926 H   0  0  0  0  0  0  0  0  0  0  0  0
   -3.5515   -0.9014    0.1876 H   0  0  0  0  0  0  0  0  0  0  0  0
   -1.6735   -0.0526    1.4550 H   0  0  0  0  0  0  0  0  0  0  0  0
    0.0451   -1.1160    1.9548 H   0  0  0  0  0  0  0  0  0  0  0  0
   -0.0679   -2.4870    0.8009 H   0  0  0  0  0  0  0  0  0  0  0  0
    2.3454   -1.2596    1.7651 H   0  0  0  0  0  0  0  0  0  0  0  0
    2.1973   -2.3532    0.3574 H   0  0  0  0  0  0  0  0  0  0  0  0
    3.4456   -1.2568   -0.9869 H   0  0  0  0  0  0  0  0  0  0  0  0
    4.7469    0.4354   -0.5778 H   0  0  0  0  0  0  0  0  0  0  0  0
    4.5171    2.1623   -0.0980 H   0  0  0  0  0  0  0  0  0  0  0  0
    0.6563    0.5252   -1.5345 H   0  0  0  0  0  0  0  0  0  0  0  0
    0.6098    1.3516    0.0818 H   0  0  0  0  0  0  0  0  0  0  0  0
  1  2  1  0
  2  3  1  0
  3  4  1  0
  4  5  1  0
  5  6  1  0
  6  7  1  0
  7  8  1  0
  8  9  1  0
  9 10  1  6
  9 11  1  0
 11 12  1  0
 11 13  2  0
  9 14  1  0
  5  2  1  0
 14  6  1  0
  1 15  1  0
  1 16  1  0
  1 17  1  0
  2 18  1  6
  3 19  1  0
  4 20  1  0
  4 21  1  0
  5 22  1  1
  7 23  1  0
  7 24  1  0
  8 25  1  0
  8 26  1  0
 10 27  1  0
 12 28  1  0
 12 29  1  0
 14 30  1  0
 14 31  1  0
M  END
$$$$

     RDKit          3D

 31 32  0  0  0  0  0  0  0  0999 V2000
   -3.3594   -0.7957   -0.4140 C   0  0  0  0  0  0  0  0  0  0  0  0
   -2.6016   -0.0249    0.6119 C   0  0  2  0  0  0  0  0  0  0  0  0
   -3.1298    1.2883    0.9362 N   0  0  0  0  0  0  0  0  0  0  0  0
   -1.7509    1.7388    1.0789 C   0  0  0  0  0  0  0  0  0  0  0  0
   -1.3510    0.6486    0.1285 C   0  0  1  0  0  0  0  0  0  0  0  0
   -0.1745   -0.0366    0.5331 N   0  0  0  0  0  0  0  0  0  0  0  0
   -0.0003   -1.3566    0.0255 C   0  0  0  0  0  0  0  0  0  0  0  0
    1.4434   -1.5240   -0.3745 C   0  0  0  0  0  0  0  0  0  0  0  0
    1.9351   -0.1218   -0.5040 C   0  0  2  0  0  0  0  0  0  0  0  0
    1.7293    0.3197   -1.7973 O   0  0  0  0  0  0  0  0  0  0  0  0
    3.3611    0.0101   -0.0935 C   0  0  0  0  0  0  0  0  0  0  0  0
    4.2715    0.5435   -1.0224 N   0  0  0  0  0  0  0  0  0  0  0  0
    3.7823   -0.3252    1.0200 O   0  0  0  0  0  0  0  0  0  0  0  0
    1.0530    0.6681    0.4088 C   0  0  0  0  0  0  0  0  0  0  0  0
   -4.4342   -0.7890   -0.1028 H   0  0  0  0  0  0  0  0  0  0  0  0
   -3.0379   -1.8576   -0.3683 H   0  0  0  0  0  0  0  0  0  0  0  0
   -3.2349   -0.4115   -1.4485 H   0  0  0  0  0  0  0  0  0  0  0  0
   -2.4440   -0.6406    1.5163 H   0  0  0  0  0  0  0  0  0  0  0  0
   -3.5961    1.7213    0.1012 H   0  0  0  0  0  0  0  0  0  0  0  0
   -1.3686    1.6481    2.0982 H   0  0  0  0  0  0  0  0  0  0  0  0
   -1.6543    2.7721    0.6827 H   0  0  0  0  0  0  0  0  0  0  0  0
   -1.3885    0.9996   -0.9250 H   0  0  0  0  0  0  0  0  0  0  0  0
   -0.2205   -2.1061    0.8400 H   0  0  0  0  0  0  0  0  0  0  0  0
   -0.6968   -1.6096   -0.8016 H   0  0  0  0  0  0  0  0  0  0  0  0
    1.5228   -2.1038   -1.3240 H   0  0  0  0  0  0  0  0  0  0  0  0
    1.9880   -2.0852    0.4155 H   0  0  0  0  0  0  0  0  0  0  0  0
    1.6341   -0.4656   -2.3828 H   0  0  0  0  0  0  0  0  0  0  0  0
    4.8032    1.3967   -0.7934 H   0  0  0  0  0  0  0  0  0  0  0  0
    4.4107    0.0833   -1.9343 H   0  0  0  0  0  0  0  0  0  0  0  0
    0.9443    1.7351    0.1219 H   0  0  0  0  0  0  0  0  0  0  0  0
    1.5646    0.6805    1.4131 H   0  0  0  0  0  0  0  0  0  0  0  0
  1  2  1  0
  2  3  1  0
  3  4  1  0
  4  5  1  0
  5  6  1  0
  6  7  1  0
  7  8  1  0
  8  9  1  0
  9 10  1  6
  9 11  1  0
 11 12  1  0
 11 13  2  0
  9 14  1  0
  5  2  1  0
 14  6  1  0
  1 15  1  0
  1 16  1  0
  1 17  1  0
  2 18  1  1
  3 19  1  0
  4 20  1  0
  4 21  1  0
  5 22  1  6
  7 23  1  0
  7 24  1  0
  8 25  1  0
  8 26  1  0
 10 27  1  0
 12 28  1  0
 12 29  1  0
 14 30  1  0
 14 31  1  0
M  END
$$$$

     RDKit          3D

 31 32  0  0  0  0  0  0  0  0999 V2000
    2.8024    1.3762    0.1576 C   0  0  0  0  0  0  0  0  0  0  0  0
    2.2885    0.0032    0.4070 C   0  0  2  0  0  0  0  0  0  0  0  0
    3.3386   -0.9744    0.0610 N   0  0  0  0  0  0  0  0  0  0  0  0
    2.2058   -1.8917   -0.1682 C   0  0  0  0  0  0  0  0  0  0  0  0
    1.4804   -0.6611   -0.6635 C   0  0  1  0  0  0  0  0  0  0  0  0
    0.1025   -0.6913   -0.6207 N   0  0  0  0  0  0  0  0  0  0  0  0
   -0.5983   -1.3383    0.4106 C   0  0  0  0  0  0  0  0  0  0  0  0
   -1.3034   -0.1759    1.0996 C   0  0  0  0  0  0  0  0  0  0  0  0
   -1.7677    0.6264   -0.1167 C   0  0  2  0  0  0  0  0  0  0  0  0
   -1.9088    1.9627    0.2728 O   0  0  0  0  0  0  0  0  0  0  0  0
   -3.0612    0.1514   -0.6195 C   0  0  0  0  0  0  0  0  0  0  0  0
   -4.2120    1.0147   -0.6365 N   0  0  0  0  0  0  0  0  0  0  0  0
   -3.2568   -1.0088   -1.0596 O   0  0  0  0  0  0  0  0  0  0  0  0
   -0.6276    0.4399   -1.0743 C   0  0  0  0  0  0  0  0  0  0  0  0
    3.0904    1.8038    1.1635 H   0  0  0  0  0  0  0  0  0  0  0  0
    2.1180    2.0453   -0.3816 H   0  0  0  0  0  0  0  0  0  0  0  0
    3.7658    1.3815   -0.4208 H   0  0  0  0  0  0  0  0  0  0  0  0
    1.9933   -0.1921    1.4439 H   0  0  0  0  0  0  0  0  0  0  0  0
    3.9407   -1.2189    0.8518 H   0  0  0  0  0  0  0  0  0  0  0  0
    2.4029   -2.6708   -0.9232 H   0  0  0  0  0  0  0  0  0  0  0  0
    1.9131   -2.2684    0.8318 H   0  0  0  0  0  0  0  0  0  0  0  0
    1.8857   -0.3887   -1.6583 H   0  0  0  0  0  0  0  0  0  0  0  0
   -0.0568   -1.9699    1.1026 H   0  0  0  0  0  0  0  0  0  0  0  0
   -1.3805   -1.9979   -0.0664 H   0  0  0  0  0  0  0  0  0  0  0  0
   -2.1332   -0.5048    1.7226 H   0  0  0  0  0  0  0  0  0  0  0  0
   -0.5414    0.4395    1.5942 H   0  0  0  0  0  0  0  0  0  0  0  0
   -2.0886    2.4630   -0.5853 H   0  0  0  0  0  0  0  0  0  0  0  0
   -4.0866    2.0309   -0.6525 H   0  0  0  0  0  0  0  0  0  0  0  0
   -5.1894    0.6404   -0.6334 H   0  0  0  0  0  0  0  0  0  0  0  0
   -1.0551    0.1897   -2.0704 H   0  0  0  0  0  0  0  0  0  0  0  0
   -0.0605    1.3844   -1.1057 H   0  0  0  0  0  0  0  0  0  0  0  0
  1  2  1  0
  2  3  1  0
  3  4  1  0
  4  5  1  0
  5  6  1  0
  6  7  1  0
  7  8  1  0
  8  9  1  0
  9 10  1  1
  9 11  1  0
 11 12  1  0
 11 13  2  0
  9 14  1  0
  5  2  1  0
 14  6  1  0
  1 15  1  0
  1 16  1  0
  1 17  1  0
  2 18  1  1
  3 19  1  0
  4 20  1  0
  4 21  1  0
  5 22  1  6
  7 23  1  0
  7 24  1  0
  8 25  1  0
  8 26  1  0
 10 27  1  0
 12 28  1  0
 12 29  1  0
 14 30  1  0
 14 31  1  0
M  END
$$$$

     RDKit          3D

 31 32  0  0  0  0  0  0  0  0999 V2000
   -3.9317   -0.0756   -0.5529 C   0  0  0  0  0  0  0  0  0  0  0  0
   -2.5847   -0.7012   -0.3240 C   0  0  2  0  0  0  0  0  0  0  0  0
   -2.4938   -1.0804    1.0954 N   0  0  0  0  0  0  0  0  0  0  0  0
   -1.9045    0.1968    1.3514 C   0  0  0  0  0  0  0  0  0  0  0  0
   -1.4525    0.2787   -0.0422 C   0  0  1  0  0  0  0  0  0  0  0  0
   -0.1794   -0.0757   -0.4530 N   0  0  0  0  0  0  0  0  0  0  0  0
    0.5782    0.9818   -1.1019 C   0  0  0  0  0  0  0  0  0  0  0  0
    1.5369    1.3874   -0.0197 C   0  0  0  0  0  0  0  0  0  0  0  0
    1.9932    0.0025    0.4965 C   0  0  2  0  0  0  0  0  0  0  0  0
    2.5184    0.1532    1.7658 O   0  0  0  0  0  0  0  0  0  0  0  0
    2.9936   -0.5274   -0.4694 C   0  0  0  0  0  0  0  0  0  0  0  0
    4.3618   -0.3252   -0.2024 N   0  0  0  0  0  0  0  0  0  0  0  0
    2.6703   -1.1314   -1.5059 O   0  0  0  0  0  0  0  0  0  0  0  0
    0.7187   -0.7546    0.4146 C   0  0  0  0  0  0  0  0  0  0  0  0
   -4.5837   -0.0659    0.3702 H   0  0  0  0  0  0  0  0  0  0  0  0
   -4.4963   -0.6982   -1.2856 H   0  0  0  0  0  0  0  0  0  0  0  0
   -3.8318    0.9820   -0.8440 H   0  0  0  0  0  0  0  0  0  0  0  0
   -2.2719   -1.4803   -1.0270 H   0  0  0  0  0  0  0  0  0  0  0  0
   -1.9201   -1.9173    1.2865 H   0  0  0  0  0  0  0  0  0  0  0  0
   -2.7321    0.9299    1.5594 H   0  0  0  0  0  0  0  0  0  0  0  0
   -1.1698    0.2808    2.1728 H   0  0  0  0  0  0  0  0  0  0  0  0
   -1.7570    1.2577   -0.5312 H   0  0  0  0  0  0  0  0  0  0  0  0
   -0.0538    1.7953   -1.4565 H   0  0  0  0  0  0  0  0  0  0  0  0
    1.1999    0.5788   -1.9343 H   0  0  0  0  0  0  0  0  0  0  0  0
    0.9872    1.8424    0.8334 H   0  0  0  0  0  0  0  0  0  0  0  0
    2.4038    1.9702   -0.3446 H   0  0  0  0  0  0  0  0  0  0  0  0
    2.4418   -0.7242    2.2040 H   0  0  0  0  0  0  0  0  0  0  0  0
    4.7633    0.6176   -0.5490 H   0  0  0  0  0  0  0  0  0  0  0  0
    4.9654   -0.9690    0.2929 H   0  0  0  0  0  0  0  0  0  0  0  0
    0.3319   -0.9392    1.4290 H   0  0  0  0  0  0  0  0  0  0  0  0
    0.8988   -1.7893   -0.0002 H   0  0  0  0  0  0  0  0  0  0  0  0
  1  2  1  0
  2  3  1  0
  3  4  1  0
  4  5  1  0
  5  6  1  0
  6  7  1  0
  7  8  1  0
  8  9  1  0
  9 10  1  1
  9 11  1  0
 11 12  1  0
 11 13  2  0
  9 14  1  0
  5  2  1  0
 14  6  1  0
  1 15  1  0
  1 16  1  0
  1 17  1  0
  2 18  1  6
  3 19  1  0
  4 20  1  0
  4 21  1  0
  5 22  1  6
  7 23  1  0
  7 24  1  0
  8 25  1  0
  8 26  1  0
 10 27  1  0
 12 28  1  0
 12 29  1  0
 14 30  1  0
 14 31  1  0
M  END
$$$$

     RDKit          3D

 31 32  0  0  0  0  0  0  0  0999 V2000
   -3.8228    0.8862   -0.1620 C   0  0  0  0  0  0  0  0  0  0  0  0
   -2.5120    0.2285   -0.5923 C   0  0  2  0  0  0  0  0  0  0  0  0
   -2.4723   -1.1351   -0.0582 N   0  0  0  0  0  0  0  0  0  0  0  0
   -2.0817   -0.5326    1.2088 C   0  0  0  0  0  0  0  0  0  0  0  0
   -1.3832    0.5273    0.3801 C   0  0  1  0  0  0  0  0  0  0  0  0
   -0.1229    0.1945   -0.1771 N   0  0  0  0  0  0  0  0  0  0  0  0
    0.1099   -1.1698   -0.4999 C   0  0  0  0  0  0  0  0  0  0  0  0
    1.6093   -1.2255   -0.7969 C   0  0  0  0  0  0  0  0  0  0  0  0
    2.1541    0.0490   -0.2493 C   0  0  2  0  0  0  0  0  0  0  0  0
    2.3446    0.9857   -1.2609 O   0  0  0  0  0  0  0  0  0  0  0  0
    3.3621   -0.1075    0.5892 C   0  0  0  0  0  0  0  0  0  0  0  0
    4.4930    0.6963    0.2962 N   0  0  0  0  0  0  0  0  0  0  0  0
    3.3612   -0.9322    1.5258 O   0  0  0  0  0  0  0  0  0  0  0  0
    1.0042    0.5629    0.6256 C   0  0  0  0  0  0  0  0  0  0  0  0
   -4.5836    0.1231    0.0425 H   0  0  0  0  0  0  0  0  0  0  0  0
   -4.2047    1.5659   -0.9270 H   0  0  0  0  0  0  0  0  0  0  0  0
   -3.6505    1.5007    0.7684 H   0  0  0  0  0  0  0  0  0  0  0  0
   -2.2735    0.3394   -1.6482 H   0  0  0  0  0  0  0  0  0  0  0  0
   -3.3622   -1.6387   -0.0500 H   0  0  0  0  0  0  0  0  0  0  0  0
   -1.4235   -1.1532    1.8439 H   0  0  0  0  0  0  0  0  0  0  0  0
   -2.9060   -0.1058    1.7811 H   0  0  0  0  0  0  0  0  0  0  0  0
   -1.3988    1.5428    0.8035 H   0  0  0  0  0  0  0  0  0  0  0  0
   -0.0667   -1.8913    0.3213 H   0  0  0  0  0  0  0  0  0  0  0  0
   -0.3980   -1.5244   -1.4264 H   0  0  0  0  0  0  0  0  0  0  0  0
    1.7980   -1.3029   -1.8905 H   0  0  0  0  0  0  0  0  0  0  0  0
    2.0981   -2.0936   -0.3063 H   0  0  0  0  0  0  0  0  0  0  0  0
    2.2809    1.8869   -0.8875 H   0  0  0  0  0  0  0  0  0  0  0  0
    4.7121    1.5843    0.8205 H   0  0  0  0  0  0  0  0  0  0  0  0
    5.1619    0.4385   -0.4574 H   0  0  0  0  0  0  0  0  0  0  0  0
    1.0590    0.0568    1.6005 H   0  0  0  0  0  0  0  0  0  0  0  0
    1.1141    1.6438    0.7093 H   0  0  0  0  0  0  0  0  0  0  0  0
  1  2  1  0
  2  3  1  0
  3  4  1  0
  4  5  1  0
  5  6  1  0
  6  7  1  0
  7  8  1  0
  8  9  1  0
  9 10  1  6
  9 11  1  0
 11 12  1  0
 11 13  2  0
  9 14  1  0
  5  2  1  0
 14  6  1  0
  1 15  1  0
  1 16  1  0
  1 17  1  0
  2 18  1  6
  3 19  1  0
  4 20  1  0
  4 21  1  0
  5 22  1  1
  7 23  1  0
  7 24  1  0
  8 25  1  0
  8 26  1  0
 10 27  1  0
 12 28  1  0
 12 29  1  0
 14 30  1  0
 14 31  1  0
M  END
$$$$

     RDKit          3D

 31 32  0  0  0  0  0  0  0  0999 V2000
   -2.4431    1.7189    0.8437 C   0  0  0  0  0  0  0  0  0  0  0  0
   -2.0455    0.6413   -0.1245 C   0  0  2  0  0  0  0  0  0  0  0  0
   -3.2195   -0.1290   -0.5721 N   0  0  0  0  0  0  0  0  0  0  0  0
   -2.2834   -1.2604   -0.6858 C   0  0  0  0  0  0  0  0  0  0  0  0
   -1.5571   -0.6382    0.4996 C   0  0  1  0  0  0  0  0  0  0  0  0
   -0.1664   -0.8850    0.5341 N   0  0  0  0  0  0  0  0  0  0  0  0
    0.5368    0.1187    1.3325 C   0  0  0  0  0  0  0  0  0  0  0  0
    1.9624   -0.3896    1.2030 C   0  0  0  0  0  0  0  0  0  0  0  0
    1.9858   -0.8261   -0.2686 C   0  0  2  0  0  0  0  0  0  0  0  0
    2.5029   -2.1235   -0.3480 O   0  0  0  0  0  0  0  0  0  0  0  0
    2.8074    0.1062   -1.0392 C   0  0  0  0  0  0  0  0  0  0  0  0
    2.4935    1.4841   -1.1284 N   0  0  0  0  0  0  0  0  0  0  0  0
    3.8206   -0.3121   -1.6432 O   0  0  0  0  0  0  0  0  0  0  0  0
    0.5178   -0.8113   -0.7073 C   0  0  0  0  0  0  0  0  0  0  0  0
   -2.0757    1.4341    1.8592 H   0  0  0  0  0  0  0  0  0  0  0  0
   -1.9386    2.6877    0.6060 H   0  0  0  0  0  0  0  0  0  0  0  0
   -3.5287    1.8925    0.8488 H   0  0  0  0  0  0  0  0  0  0  0  0
   -1.5010    0.9680   -1.0332 H   0  0  0  0  0  0  0  0  0  0  0  0
   -3.5685    0.1231   -1.5073 H   0  0  0  0  0  0  0  0  0  0  0  0
   -2.7289   -2.2387   -0.5198 H   0  0  0  0  0  0  0  0  0  0  0  0
   -1.6495   -1.1609   -1.5935 H   0  0  0  0  0  0  0  0  0  0  0  0
   -2.1146   -0.8601    1.4163 H   0  0  0  0  0  0  0  0  0  0  0  0
    0.2213    0.0911    2.3924 H   0  0  0  0  0  0  0  0  0  0  0  0
    0.4693    1.1136    0.8749 H   0  0  0  0  0  0  0  0  0  0  0  0
    2.0945   -1.2940    1.8342 H   0  0  0  0  0  0  0  0  0  0  0  0
    2.7124    0.3906    1.3950 H   0  0  0  0  0  0  0  0  0  0  0  0
    3.2706   -2.1673    0.2793 H   0  0  0  0  0  0  0  0  0  0  0  0
    2.3714    1.9006   -2.0762 H   0  0  0  0  0  0  0  0  0  0  0  0
    2.3770    2.1075   -0.3096 H   0  0  0  0  0  0  0  0  0  0  0  0
    0.2900    0.0482   -1.3351 H   0  0  0  0  0  0  0  0  0  0  0  0
    0.3870   -1.7300   -1.3399 H   0  0  0  0  0  0  0  0  0  0  0  0
  1  2  1  0
  2  3  1  0
  3  4  1  0
  4  5  1  0
  5  6  1  0
  6  7  1  0
  7  8  1  0
  8  9  1  0
  9 10  1  1
  9 11  1  0
 11 12  1  0
 11 13  2  0
  9 14  1  0
  5  2  1  0
 14  6  1  0
  1 15  1  0
  1 16  1  0
  1 17  1  0
  2 18  1  6
  3 19  1  0
  4 20  1  0
  4 21  1  0
  5 22  1  1
  7 23  1  0
  7 24  1  0
  8 25  1  0
  8 26  1  0
 10 27  1  0
 12 28  1  0
 12 29  1  0
 14 30  1  0
 14 31  1  0
M  END
$$$$

     RDKit          3D

 31 32  0  0  0  0  0  0  0  0999 V2000
   -3.1129    1.5673    0.1419 C   0  0  0  0  0  0  0  0  0  0  0  0
   -2.6513    0.1478   -0.0556 C   0  0  2  0  0  0  0  0  0  0  0  0
   -3.1969   -0.8134    0.9193 N   0  0  0  0  0  0  0  0  0  0  0  0
   -1.8590   -1.4377    0.8427 C   0  0  0  0  0  0  0  0  0  0  0  0
   -1.3232   -0.0502    0.6947 C   0  0  1  0  0  0  0  0  0  0  0  0
   -0.2359    0.2389   -0.1309 N   0  0  0  0  0  0  0  0  0  0  0  0
    0.0041   -0.5176   -1.2884 C   0  0  0  0  0  0  0  0  0  0  0  0
    1.5314   -0.5908   -1.4219 C   0  0  0  0  0  0  0  0  0  0  0  0
    1.9954    0.5223   -0.4877 C   0  0  2  0  0  0  0  0  0  0  0  0
    1.8530    1.7764   -1.0611 O   0  0  0  0  0  0  0  0  0  0  0  0
    3.3298    0.2815    0.0765 C   0  0  0  0  0  0  0  0  0  0  0  0
    3.5893   -0.9733    0.6927 N   0  0  0  0  0  0  0  0  0  0  0  0
    4.2429    1.1417    0.0326 O   0  0  0  0  0  0  0  0  0  0  0  0
    0.9735    0.3989    0.6289 C   0  0  0  0  0  0  0  0  0  0  0  0
   -4.1041    1.7776   -0.2794 H   0  0  0  0  0  0  0  0  0  0  0  0
   -2.3757    2.2230   -0.3660 H   0  0  0  0  0  0  0  0  0  0  0  0
   -3.0327    1.7939    1.2222 H   0  0  0  0  0  0  0  0  0  0  0  0
   -2.6740   -0.2595   -1.0648 H   0  0  0  0  0  0  0  0  0  0  0  0
   -3.2517   -0.3119    1.8484 H   0  0  0  0  0  0  0  0  0  0  0  0
   -1.8691   -2.0547   -0.0761 H   0  0  0  0  0  0  0  0  0  0  0  0
   -1.5963   -1.9879    1.7775 H   0  0  0  0  0  0  0  0  0  0  0  0
   -1.3972    0.4842    1.6677 H   0  0  0  0  0  0  0  0  0  0  0  0
   -0.4462   -1.4987   -1.3881 H   0  0  0  0  0  0  0  0  0  0  0  0
   -0.3153    0.0830   -2.1905 H   0  0  0  0  0  0  0  0  0  0  0  0
    1.9306   -1.5336   -0.9810 H   0  0  0  0  0  0  0  0  0  0  0  0
    1.8750   -0.3755   -2.4323 H   0  0  0  0  0  0  0  0  0  0  0  0
    2.6085    1.9099   -1.7121 H   0  0  0  0  0  0  0  0  0  0  0  0
    3.3252   -1.0659    1.7121 H   0  0  0  0  0  0  0  0  0  0  0  0
    4.0147   -1.7364    0.1458 H   0  0  0  0  0  0  0  0  0  0  0  0
    0.9508    1.3195    1.2579 H   0  0  0  0  0  0  0  0  0  0  0  0
    1.2172   -0.4588    1.2751 H   0  0  0  0  0  0  0  0  0  0  0  0
  1  2  1  0
  2  3  1  0
  3  4  1  0
  4  5  1  0
  5  6  1  0
  6  7  1  0
  7  8  1  0
  8  9  1  0
  9 10  1  6
  9 11  1  0
 11 12  1  0
 11 13  2  0
  9 14  1  0
  5  2  1  0
 14  6  1  0
  1 15  1  0
  1 16  1  0
  1 17  1  0
  2 18  1  6
  3 19  1  0
  4 20  1  0
  4 21  1  0
  5 22  1  1
  7 23  1  0
  7 24  1  0
  8 25  1  0
  8 26  1  0
 10 27  1  0
 12 28  1  0
 12 29  1  0
 14 30  1  0
 14 31  1  0
M  END
$$$$
