
     RDKit          3D

 27 28  0  0  0  0  0  0  0  0999 V2000
    3.3938    0.8170    1.2402 O   0  0  0  0  0  0  0  0  0  0  0  0
    2.4663    0.6945    0.4038 C   0  0  0  0  0  0  0  0  0  0  0  0
    2.2904    1.7152   -0.5126 O   0  0  0  0  0  0  0  0  0  0  0  0
    1.6094   -0.5059    0.4195 C   0  0  2  0  0  0  0  0  0  0  0  0
    2.4288   -1.7349    0.1046 C   0  0  0  0  0  0  0  0  0  0  0  0
    1.4954   -2.5602   -0.6305 N   0  0  0  0  0  0  0  0  0  0  0  0
    0.6615   -1.6788   -1.3778 C   0  0  0  0  0  0  0  0  0  0  0  0
    0.1305   -1.9317   -2.4894 O   0  0  0  0  0  0  0  0  0  0  0  0
    0.5757   -0.4754   -0.5857 N   0  0  0  0  0  0  0  0  0  0  0  0
   -0.4068    0.5625   -0.7995 C   0  0  0  0  0  0  0  0  0  0  0  0
   -1.6655    0.3246   -0.0032 C   0  0  2  0  0  0  0  0  0  0  0  0
   -2.7319    1.3822   -0.1883 C   0  0  0  0  0  0  0  0  0  0  0  0
   -3.0334    1.0448    1.2771 C   0  0  0  0  0  0  0  0  0  0  0  0
   -1.6073    0.6976    1.3855 N   0  0  0  0  0  0  0  0  0  0  0  0
    2.8055    2.6026   -0.4554 H   0  0  0  0  0  0  0  0  0  0  0  0
    1.1543   -0.6230    1.4372 H   0  0  0  0  0  0  0  0  0  0  0  0
    2.8038   -2.2444    1.0076 H   0  0  0  0  0  0  0  0  0  0  0  0
    3.2542   -1.4255   -0.5790 H   0  0  0  0  0  0  0  0  0  0  0  0
    1.4287   -3.6227   -0.6280 H   0  0  0  0  0  0  0  0  0  0  0  0
   -0.0221    1.5675   -0.5987 H   0  0  0  0  0  0  0  0  0  0  0  0
   -0.6862    0.5406   -1.8728 H   0  0  0  0  0  0  0  0  0  0  0  0
   -2.1025   -0.6846   -0.1053 H   0  0  0  0  0  0  0  0  0  0  0  0
   -2.3325    2.4209   -0.2174 H   0  0  0  0  0  0  0  0  0  0  0  0
   -3.5354    1.1463   -0.8892 H   0  0  0  0  0  0  0  0  0  0  0  0
   -3.3412    1.8890    1.8912 H   0  0  0  0  0  0  0  0  0  0  0  0
   -3.6439    0.1185    1.3518 H   0  0  0  0  0  0  0  0  0  0  0  0
   -1.3897   -0.0366    2.0649 H   0  0  0  0  0  0  0  0  0  0  0  0
  1  2  2  0
  2  3  1  0
  2  4  1  0
  4  5  1  0
  5  6  1  0
  6  7  1  0
  7  8  2  0
  7  9  1  0
  9 10  1  0
 10 11  1  0
 11 12  1  0
 12 13  1  0
 13 14  1  0
  9  4  1  0
 14 11  1  0
  3 15  1  0
  4 16  1  1
  5 17  1  0
  5 18  1  0
  6 19  1  0
 10 20  1  0
 10 21  1  0
 11 22  1  1
 12 23  1  0
 12 24  1  0
 13 25  1  0
 13 26  1  0
 14 27  1  0
M  END
$$$$

     RDKit          3D

 27 28  0  0  0  0  0  0  0  0999 V2000
   -3.8415   -0.9406   -1.5511 O   0  0  0  0  0  0  0  0  0  0  0  0
   -2.7375   -0.3565   -1.3925 C   0  0  0  0  0  0  0  0  0  0  0  0
   -2.5875    0.8444   -2.0900 O   0  0  0  0  0  0  0  0  0  0  0  0
   -1.6580   -0.8746   -0.5392 C   0  0  2  0  0  0  0  0  0  0  0  0
   -2.0791   -0.6169    0.9144 C   0  0  0  0  0  0  0  0  0  0  0  0
   -2.1325    0.8315    0.9050 N   0  0  0  0  0  0  0  0  0  0  0  0
   -1.0470    1.2232    0.0420 C   0  0  0  0  0  0  0  0  0  0  0  0
   -0.5954    2.3938   -0.1481 O   0  0  0  0  0  0  0  0  0  0  0  0
   -0.5274    0.0664   -0.5970 N   0  0  0  0  0  0  0  0  0  0  0  0
    0.7714   -0.1703   -1.1659 C   0  0  0  0  0  0  0  0  0  0  0  0
    1.7766   -0.7516   -0.2262 C   0  0  2  0  0  0  0  0  0  0  0  0
    2.0325    0.1209    0.9532 C   0  0  0  0  0  0  0  0  0  0  0  0
    3.3962    0.3402    0.2875 C   0  0  0  0  0  0  0  0  0  0  0  0
    3.1454   -0.6767   -0.6883 N   0  0  0  0  0  0  0  0  0  0  0  0
   -3.3867    1.4196   -2.3512 H   0  0  0  0  0  0  0  0  0  0  0  0
   -1.3660   -1.8983   -0.7193 H   0  0  0  0  0  0  0  0  0  0  0  0
   -3.0200   -1.0954    1.1670 H   0  0  0  0  0  0  0  0  0  0  0  0
   -1.2213   -0.9269    1.5418 H   0  0  0  0  0  0  0  0  0  0  0  0
   -2.7739    1.4851    1.3837 H   0  0  0  0  0  0  0  0  0  0  0  0
    0.6384   -0.9236   -1.9970 H   0  0  0  0  0  0  0  0  0  0  0  0
    1.1640    0.7529   -1.6502 H   0  0  0  0  0  0  0  0  0  0  0  0
    1.5654   -1.8336    0.0256 H   0  0  0  0  0  0  0  0  0  0  0  0
    1.4616    1.0436    1.0302 H   0  0  0  0  0  0  0  0  0  0  0  0
    2.0915   -0.4951    1.8815 H   0  0  0  0  0  0  0  0  0  0  0  0
    4.1829    0.1399    1.0360 H   0  0  0  0  0  0  0  0  0  0  0  0
    3.4602    1.3334   -0.2029 H   0  0  0  0  0  0  0  0  0  0  0  0
    3.2877   -0.4350   -1.6806 H   0  0  0  0  0  0  0  0  0  0  0  0
  1  2  2  0
  2  3  1  0
  2  4  1  0
  4  5  1  0
  5  6  1  0
  6  7  1  0
  7  8  2  0
  7  9  1  0
  9 10  1  0
 10 11  1  0
 11 12  1  0
 12 13  1  0
 13 14  1  0
  9  4  1  0
 14 11  1  0
  3 15  1  0
  4 16  1  1
  5 17  1  0
  5 18  1  0
  6 19  1  0
 10 20  1  0
 10 21  1  0
 11 22  1  1
 12 23  1  0
 12 24  1  0
 13 25  1  0
 13 26  1  0
 14 27  1  0
M  END
$$$$

     RDKit          3D

 27 28  0  0  0  0  0  0  0  0999 V2000
   -1.4602   -0.8202    3.0123 O   0  0  0  0  0  0  0  0  0  0  0  0
   -1.1960   -0.7121    1.7993 C   0  0  0  0  0  0  0  0  0  0  0  0
   -1.0552   -1.8304    1.0081 O   0  0  0  0  0  0  0  0  0  0  0  0
   -1.0285    0.6248    1.1870 C   0  0  2  0  0  0  0  0  0  0  0  0
   -2.4574    1.2059    1.0876 C   0  0  0  0  0  0  0  0  0  0  0  0
   -3.0225    0.2850    0.1130 N   0  0  0  0  0  0  0  0  0  0  0  0
   -1.9452    0.0211   -0.8103 C   0  0  0  0  0  0  0  0  0  0  0  0
   -2.0917   -0.5556   -1.9159 O   0  0  0  0  0  0  0  0  0  0  0  0
   -0.7256    0.5306   -0.2312 N   0  0  0  0  0  0  0  0  0  0  0  0
    0.4487    0.8459   -0.9918 C   0  0  0  0  0  0  0  0  0  0  0  0
    1.3996   -0.2914   -1.1470 C   0  0  2  0  0  0  0  0  0  0  0  0
    1.9984   -0.8981    0.0726 C   0  0  0  0  0  0  0  0  0  0  0  0
    3.1297    0.0849   -0.1731 C   0  0  0  0  0  0  0  0  0  0  0  0
    2.7259    0.1620   -1.5404 N   0  0  0  0  0  0  0  0  0  0  0  0
   -1.4364   -2.7464    1.2775 H   0  0  0  0  0  0  0  0  0  0  0  0
   -0.3684    1.2943    1.7356 H   0  0  0  0  0  0  0  0  0  0  0  0
   -2.4394    2.2427    0.7280 H   0  0  0  0  0  0  0  0  0  0  0  0
   -2.9468    1.1682    2.0601 H   0  0  0  0  0  0  0  0  0  0  0  0
   -3.9824   -0.1193    0.0553 H   0  0  0  0  0  0  0  0  0  0  0  0
    0.9828    1.7416   -0.5894 H   0  0  0  0  0  0  0  0  0  0  0  0
    0.1477    1.1741   -2.0320 H   0  0  0  0  0  0  0  0  0  0  0  0
    1.0458   -1.0176   -1.9204 H   0  0  0  0  0  0  0  0  0  0  0  0
    2.3177   -1.9407   -0.1290 H   0  0  0  0  0  0  0  0  0  0  0  0
    1.5651   -0.6996    1.0501 H   0  0  0  0  0  0  0  0  0  0  0  0
    4.1409   -0.2919    0.0428 H   0  0  0  0  0  0  0  0  0  0  0  0
    2.9918    1.0540    0.3790 H   0  0  0  0  0  0  0  0  0  0  0  0
    3.2615   -0.5117   -2.1277 H   0  0  0  0  0  0  0  0  0  0  0  0
  1  2  2  0
  2  3  1  0
  2  4  1  0
  4  5  1  0
  5  6  1  0
  6  7  1  0
  7  8  2  0
  7  9  1  0
  9 10  1  0
 10 11  1  0
 11 12  1  0
 12 13  1  0
 13 14  1  0
  9  4  1  0
 14 11  1  0
  3 15  1  0
  4 16  1  1
  5 17  1  0
  5 18  1  0
  6 19  1  0
 10 20  1  0
 10 21  1  0
 11 22  1  6
 12 23  1  0
 12 24  1  0
 13 25  1  0
 13 26  1  0
 14 27  1  0
M  END
$$$$

     RDKit          3D

 27 28  0  0  0  0  0  0  0  0999 V2000
   -1.7577    1.9150    1.5738 O   0  0  0  0  0  0  0  0  0  0  0  0
   -2.2586    1.5949    0.4954 C   0  0  0  0  0  0  0  0  0  0  0  0
   -3.3173    2.3163   -0.0265 O   0  0  0  0  0  0  0  0  0  0  0  0
   -1.7446    0.4303   -0.2748 C   0  0  2  0  0  0  0  0  0  0  0  0
   -2.7840   -0.6500   -0.3800 C   0  0  0  0  0  0  0  0  0  0  0  0
   -2.0010   -1.8597   -0.4659 N   0  0  0  0  0  0  0  0  0  0  0  0
   -0.8715   -1.5929    0.3790 C   0  0  0  0  0  0  0  0  0  0  0  0
   -0.2821   -2.5115    1.0273 O   0  0  0  0  0  0  0  0  0  0  0  0
   -0.5976   -0.1968    0.3226 N   0  0  0  0  0  0  0  0  0  0  0  0
    0.6444    0.4048    0.7927 C   0  0  0  0  0  0  0  0  0  0  0  0
    1.6855    0.4741   -0.2921 C   0  0  2  0  0  0  0  0  0  0  0  0
    2.1411   -0.7863   -0.9204 C   0  0  0  0  0  0  0  0  0  0  0  0
    3.5882   -0.4613   -0.5263 C   0  0  0  0  0  0  0  0  0  0  0  0
    3.0150    0.5859    0.3266 N   0  0  0  0  0  0  0  0  0  0  0  0
   -3.5486    3.2555    0.2673 H   0  0  0  0  0  0  0  0  0  0  0  0
   -1.5342    0.7397   -1.3409 H   0  0  0  0  0  0  0  0  0  0  0  0
   -3.3547   -0.7207    0.5791 H   0  0  0  0  0  0  0  0  0  0  0  0
   -3.4584   -0.5181   -1.2480 H   0  0  0  0  0  0  0  0  0  0  0  0
   -2.1627   -2.7359   -0.9896 H   0  0  0  0  0  0  0  0  0  0  0  0
    0.4214    1.4574    1.0535 H   0  0  0  0  0  0  0  0  0  0  0  0
    1.0248   -0.0782    1.7112 H   0  0  0  0  0  0  0  0  0  0  0  0
    1.5339    1.3152   -0.9823 H   0  0  0  0  0  0  0  0  0  0  0  0
    1.8671   -1.7419   -0.4952 H   0  0  0  0  0  0  0  0  0  0  0  0
    2.0269   -0.7967   -2.0358 H   0  0  0  0  0  0  0  0  0  0  0  0
    4.1036   -1.2678    0.0203 H   0  0  0  0  0  0  0  0  0  0  0  0
    4.1648   -0.0798   -1.3817 H   0  0  0  0  0  0  0  0  0  0  0  0
    3.4562    1.5085    0.2484 H   0  0  0  0  0  0  0  0  0  0  0  0
  1  2  2  0
  2  3  1  0
  2  4  1  0
  4  5  1  0
  5  6  1  0
  6  7  1  0
  7  8  2  0
  7  9  1  0
  9 10  1  0
 10 11  1  0
 11 12  1  0
 12 13  1  0
 13 14  1  0
  9  4  1  0
 14 11  1  0
  3 15  1  0
  4 16  1  6
  5 17  1  0
  5 18  1  0
  6 19  1  0
 10 20  1  0
 10 21  1  0
 11 22  1  6
 12 23  1  0
 12 24  1  0
 13 25  1  0
 13 26  1  0
 14 27  1  0
M  END
$$$$

     RDKit          3D

 27 28  0  0  0  0  0  0  0  0999 V2000
    1.4433    0.2415    1.8332 O   0  0  0  0  0  0  0  0  0  0  0  0
    2.1415   -0.5289    1.1309 C   0  0  0  0  0  0  0  0  0  0  0  0
    3.2513   -1.1151    1.7246 O   0  0  0  0  0  0  0  0  0  0  0  0
    1.7642   -0.7812   -0.2808 C   0  0  2  0  0  0  0  0  0  0  0  0
    2.7955   -0.0648   -1.1440 C   0  0  0  0  0  0  0  0  0  0  0  0
    2.4636    1.3324   -0.8238 N   0  0  0  0  0  0  0  0  0  0  0  0
    1.0282    1.3204   -0.7499 C   0  0  0  0  0  0  0  0  0  0  0  0
    0.3314    2.3715   -0.8063 O   0  0  0  0  0  0  0  0  0  0  0  0
    0.5757   -0.0380   -0.6084 N   0  0  0  0  0  0  0  0  0  0  0  0
   -0.7846   -0.4228   -0.7827 C   0  0  0  0  0  0  0  0  0  0  0  0
   -1.6039   -0.3727    0.4720 C   0  0  2  0  0  0  0  0  0  0  0  0
   -3.0470   -0.7772    0.3084 C   0  0  0  0  0  0  0  0  0  0  0  0
   -3.2451    0.6901    0.0148 C   0  0  0  0  0  0  0  0  0  0  0  0
   -2.0637    0.9568    0.8077 N   0  0  0  0  0  0  0  0  0  0  0  0
    3.4879   -0.8623    2.6707 H   0  0  0  0  0  0  0  0  0  0  0  0
    1.6973   -1.8540   -0.5171 H   0  0  0  0  0  0  0  0  0  0  0  0
    2.5343   -0.2923   -2.1901 H   0  0  0  0  0  0  0  0  0  0  0  0
    3.8237   -0.3106   -0.8759 H   0  0  0  0  0  0  0  0  0  0  0  0
    3.1086    2.1262   -0.6864 H   0  0  0  0  0  0  0  0  0  0  0  0
   -1.2423    0.2151   -1.5638 H   0  0  0  0  0  0  0  0  0  0  0  0
   -0.8900   -1.4756   -1.1814 H   0  0  0  0  0  0  0  0  0  0  0  0
   -1.1841   -0.9002    1.3472 H   0  0  0  0  0  0  0  0  0  0  0  0
   -3.5410   -1.0542    1.2530 H   0  0  0  0  0  0  0  0  0  0  0  0
   -3.2486   -1.4602   -0.5450 H   0  0  0  0  0  0  0  0  0  0  0  0
   -4.1838    1.1200    0.4244 H   0  0  0  0  0  0  0  0  0  0  0  0
   -3.0696    0.9218   -1.0620 H   0  0  0  0  0  0  0  0  0  0  0  0
   -2.3426    1.0141    1.8306 H   0  0  0  0  0  0  0  0  0  0  0  0
  1  2  2  0
  2  3  1  0
  2  4  1  0
  4  5  1  0
  5  6  1  0
  6  7  1  0
  7  8  2  0
  7  9  1  0
  9 10  1  0
 10 11  1  0
 11 12  1  0
 12 13  1  0
 13 14  1  0
  9  4  1  0
 14 11  1  0
  3 15  1  0
  4 16  1  6
  5 17  1  0
  5 18  1  0
  6 19  1  0
 10 20  1  0
 10 21  1  0
 11 22  1  1
 12 23  1  0
 12 24  1  0
 13 25  1  0
 13 26  1  0
 14 27  1  0
M  END
$$$$

     RDKit          3D

 27 28  0  0  0  0  0  0  0  0999 V2000
   -1.5670    1.4226   -0.9610 O   0  0  0  0  0  0  0  0  0  0  0  0
   -2.0775    0.2770   -1.0495 C   0  0  0  0  0  0  0  0  0  0  0  0
   -3.1068    0.1066   -1.9630 O   0  0  0  0  0  0  0  0  0  0  0  0
   -1.6232   -0.8722   -0.2254 C   0  0  2  0  0  0  0  0  0  0  0  0
   -2.7465   -1.1476    0.7825 C   0  0  0  0  0  0  0  0  0  0  0  0
   -2.5848   -0.0175    1.6776 N   0  0  0  0  0  0  0  0  0  0  0  0
   -1.1689    0.2127    1.7322 C   0  0  0  0  0  0  0  0  0  0  0  0
   -0.5358    0.9185    2.5754 O   0  0  0  0  0  0  0  0  0  0  0  0
   -0.5432   -0.4906    0.6632 N   0  0  0  0  0  0  0  0  0  0  0  0
    0.8593   -0.7912    0.4532 C   0  0  0  0  0  0  0  0  0  0  0  0
    1.5513    0.2866   -0.3244 C   0  0  2  0  0  0  0  0  0  0  0  0
    3.0225   -0.0876   -0.5123 C   0  0  0  0  0  0  0  0  0  0  0  0
    3.3701    1.2996   -0.0249 C   0  0  0  0  0  0  0  0  0  0  0  0
    2.0060    1.4221    0.4573 N   0  0  0  0  0  0  0  0  0  0  0  0
   -3.7506    0.8609   -2.2175 H   0  0  0  0  0  0  0  0  0  0  0  0
   -1.3893   -1.7655   -0.8234 H   0  0  0  0  0  0  0  0  0  0  0  0
   -2.5510   -2.1184    1.3252 H   0  0  0  0  0  0  0  0  0  0  0  0
   -3.7384   -1.1577    0.2866 H   0  0  0  0  0  0  0  0  0  0  0  0
   -3.3141    0.5283    2.1846 H   0  0  0  0  0  0  0  0  0  0  0  0
    1.4065   -0.9279    1.4086 H   0  0  0  0  0  0  0  0  0  0  0  0
    0.9672   -1.7647   -0.1017 H   0  0  0  0  0  0  0  0  0  0  0  0
    1.0801    0.5600   -1.2880 H   0  0  0  0  0  0  0  0  0  0  0  0
    3.3094   -0.2703   -1.5714 H   0  0  0  0  0  0  0  0  0  0  0  0
    3.3672   -0.8920    0.1651 H   0  0  0  0  0  0  0  0  0  0  0  0
    4.1391    1.2645    0.7564 H   0  0  0  0  0  0  0  0  0  0  0  0
    3.6486    1.9648   -0.8510 H   0  0  0  0  0  0  0  0  0  0  0  0
    1.9699    1.1792    1.4716 H   0  0  0  0  0  0  0  0  0  0  0  0
  1  2  2  0
  2  3  1  0
  2  4  1  0
  4  5  1  0
  5  6  1  0
  6  7  1  0
  7  8  2  0
  7  9  1  0
  9 10  1  0
 10 11  1  0
 11 12  1  0
 12 13  1  0
 13 14  1  0
  9  4  1  0
 14 11  1  0
  3 15  1  0
  4 16  1  6
  5 17  1  0
  5 18  1  0
  6 19  1  0
 10 20  1  0
 10 21  1  0
 11 22  1  6
 12 23  1  0
 12 24  1  0
 13 25  1  0
 13 26  1  0
 14 27  1  0
M  END
$$$$

     RDKit          3D

 27 28  0  0  0  0  0  0  0  0999 V2000
    1.3275   -0.6497    1.7632 O   0  0  0  0  0  0  0  0  0  0  0  0
    2.1332   -0.7712    0.8205 C   0  0  0  0  0  0  0  0  0  0  0  0
    3.3182   -1.4381    1.0449 O   0  0  0  0  0  0  0  0  0  0  0  0
    1.8327   -0.2166   -0.5084 C   0  0  2  0  0  0  0  0  0  0  0  0
    2.8297    0.9189   -0.7359 C   0  0  0  0  0  0  0  0  0  0  0  0
    2.1511    1.9948   -0.0368 N   0  0  0  0  0  0  0  0  0  0  0  0
    0.7392    1.7653   -0.2318 C   0  0  0  0  0  0  0  0  0  0  0  0
   -0.1119    2.6976   -0.0742 O   0  0  0  0  0  0  0  0  0  0  0  0
    0.5383    0.4115   -0.5992 N   0  0  0  0  0  0  0  0  0  0  0  0
   -0.7020   -0.1838   -0.9863 C   0  0  0  0  0  0  0  0  0  0  0  0
   -1.5158   -0.7715    0.1190 C   0  0  2  0  0  0  0  0  0  0  0  0
   -2.8225   -1.3760   -0.4229 C   0  0  0  0  0  0  0  0  0  0  0  0
   -3.3688    0.0017   -0.1103 C   0  0  0  0  0  0  0  0  0  0  0  0
   -2.3319    0.1130    0.8993 N   0  0  0  0  0  0  0  0  0  0  0  0
    3.4437   -2.1467    1.7586 H   0  0  0  0  0  0  0  0  0  0  0  0
    1.9982   -0.9959   -1.2582 H   0  0  0  0  0  0  0  0  0  0  0  0
    2.8641    1.1511   -1.8035 H   0  0  0  0  0  0  0  0  0  0  0  0
    3.7908    0.7276   -0.2596 H   0  0  0  0  0  0  0  0  0  0  0  0
    2.5651    2.7841    0.5030 H   0  0  0  0  0  0  0  0  0  0  0  0
   -1.3668    0.5377   -1.5407 H   0  0  0  0  0  0  0  0  0  0  0  0
   -0.5523   -1.0130   -1.7431 H   0  0  0  0  0  0  0  0  0  0  0  0
   -0.9933   -1.5808    0.6759 H   0  0  0  0  0  0  0  0  0  0  0  0
   -3.2622   -2.1139    0.2818 H   0  0  0  0  0  0  0  0  0  0  0  0
   -2.7930   -1.6589   -1.4740 H   0  0  0  0  0  0  0  0  0  0  0  0
   -4.3600   -0.0025    0.3871 H   0  0  0  0  0  0  0  0  0  0  0  0
   -3.3050    0.7263   -0.9345 H   0  0  0  0  0  0  0  0  0  0  0  0
   -2.0465    1.0891    1.0143 H   0  0  0  0  0  0  0  0  0  0  0  0
  1  2  2  0
  2  3  1  0
  2  4  1  0
  4  5  1  0
  5  6  1  0
  6  7  1  0
  7  8  2  0
  7  9  1  0
  9 10  1  0
 10 11  1  0
 11 12  1  0
 12 13  1  0
 13 14  1  0
  9  4  1  0
 14 11  1  0
  3 15  1  0
  4 16  1  6
  5 17  1  0
  5 18  1  0
  6 19  1  0
 10 20  1  0
 10 21  1  0
 11 22  1  1
 12 23  1  0
 12 24  1  0
 13 25  1  0
 13 26  1  0
 14 27  1  0
M  END
$$$$

     RDKit          3D

 27 28  0  0  0  0  0  0  0  0999 V2000
   -2.4194    1.8159    0.8232 O   0  0  0  0  0  0  0  0  0  0  0  0
   -2.6597    1.0536   -0.1601 C   0  0  0  0  0  0  0  0  0  0  0  0
   -3.8534    1.1882   -0.8288 O   0  0  0  0  0  0  0  0  0  0  0  0
   -1.6690    0.0324   -0.5828 C   0  0  2  0  0  0  0  0  0  0  0  0
   -2.2127   -1.3417   -0.3833 C   0  0  0  0  0  0  0  0  0  0  0  0
   -1.4855   -1.9301    0.7227 N   0  0  0  0  0  0  0  0  0  0  0  0
   -0.6629   -0.8892    1.2912 C   0  0  0  0  0  0  0  0  0  0  0  0
   -0.2005   -0.8972    2.4447 O   0  0  0  0  0  0  0  0  0  0  0  0
   -0.5027    0.1050    0.2902 N   0  0  0  0  0  0  0  0  0  0  0  0
    0.6057    1.0132    0.1605 C   0  0  0  0  0  0  0  0  0  0  0  0
    1.6951    0.4718   -0.7013 C   0  0  2  0  0  0  0  0  0  0  0  0
    2.2700   -0.8025   -0.1840 C   0  0  0  0  0  0  0  0  0  0  0  0
    3.3693    0.0649    0.4055 C   0  0  0  0  0  0  0  0  0  0  0  0
    2.9936    1.1057   -0.5378 N   0  0  0  0  0  0  0  0  0  0  0  0
   -4.3055    2.0996   -0.9089 H   0  0  0  0  0  0  0  0  0  0  0  0
   -1.3925    0.2219   -1.6380 H   0  0  0  0  0  0  0  0  0  0  0  0
   -2.1123   -1.9704   -1.3064 H   0  0  0  0  0  0  0  0  0  0  0  0
   -3.3028   -1.2987   -0.1255 H   0  0  0  0  0  0  0  0  0  0  0  0
   -1.5690   -2.9266    1.0219 H   0  0  0  0  0  0  0  0  0  0  0  0
    0.2842    1.9842   -0.2721 H   0  0  0  0  0  0  0  0  0  0  0  0
    0.9561    1.2355    1.2007 H   0  0  0  0  0  0  0  0  0  0  0  0
    1.4275    0.4411   -1.7773 H   0  0  0  0  0  0  0  0  0  0  0  0
    2.6476   -1.4259   -1.0452 H   0  0  0  0  0  0  0  0  0  0  0  0
    1.7022   -1.3784    0.5421 H   0  0  0  0  0  0  0  0  0  0  0  0
    3.1413    0.3479    1.4358 H   0  0  0  0  0  0  0  0  0  0  0  0
    4.3649   -0.3778    0.2311 H   0  0  0  0  0  0  0  0  0  0  0  0
    2.8904    2.0576   -0.1181 H   0  0  0  0  0  0  0  0  0  0  0  0
  1  2  2  0
  2  3  1  0
  2  4  1  0
  4  5  1  0
  5  6  1  0
  6  7  1  0
  7  8  2  0
  7  9  1  0
  9 10  1  0
 10 11  1  0
 11 12  1  0
 12 13  1  0
 13 14  1  0
  9  4  1  0
 14 11  1  0
  3 15  1  0
  4 16  1  6
  5 17  1  0
  5 18  1  0
  6 19  1  0
 10 20  1  0
 10 21  1  0
 11 22  1  6
 12 23  1  0
 12 24  1  0
 13 25  1  0
 13 26  1  0
 14 27  1  0
M  END
$$$$
