
     RDKit          3D

 27 28  0  0  0  0  0  0  0  0999 V2000
    4.6970    1.0232    0.0678 O   0  0  0  0  0  0  0  0  0  0  0  0
    3.6112    0.3994    0.0988 C   0  0  0  0  0  0  0  0  0  0  0  0
    2.3646    0.9407    0.6581 C   0  0  0  0  0  0  0  0  0  0  0  0
    1.3020    0.0448    0.2433 N   0  0  0  0  0  0  0  0  0  0  0  0
   -0.0929    0.3197    0.3607 C   0  0  2  0  0  0  0  0  0  0  0  0
   -0.8373   -0.7030    1.2024 C   0  0  0  0  0  0  0  0  0  0  0  0
   -2.1317   -0.0924    1.5111 N   0  0  0  0  0  0  0  0  0  0  0  0
   -2.8963   -0.0828    0.3051 C   0  0  0  0  0  0  0  0  0  0  0  0
   -2.2404    0.6593   -0.8304 C   0  0  0  0  0  0  0  0  0  0  0  0
   -0.7896    0.3284   -1.0001 C   0  0  2  0  0  0  0  0  0  0  0  0
   -0.6494   -0.8794   -1.6617 O   0  0  0  0  0  0  0  0  0  0  0  0
    1.9320   -1.1080   -0.2790 C   0  0  0  0  0  0  0  0  0  0  0  0
    1.3915   -2.1882   -0.6306 O   0  0  0  0  0  0  0  0  0  0  0  0
    3.3435   -0.8964   -0.3694 N   0  0  0  0  0  0  0  0  0  0  0  0
    2.3635    1.0099    1.7586 H   0  0  0  0  0  0  0  0  0  0  0  0
    2.1045    1.9418    0.2465 H   0  0  0  0  0  0  0  0  0  0  0  0
   -0.3018    1.3065    0.8098 H   0  0  0  0  0  0  0  0  0  0  0  0
   -0.3114   -0.9717    2.1219 H   0  0  0  0  0  0  0  0  0  0  0  0
   -1.0502   -1.5745    0.5400 H   0  0  0  0  0  0  0  0  0  0  0  0
   -1.9284    0.8798    1.8385 H   0  0  0  0  0  0  0  0  0  0  0  0
   -3.1757   -1.1161    0.0522 H   0  0  0  0  0  0  0  0  0  0  0  0
   -3.8584    0.4506    0.5205 H   0  0  0  0  0  0  0  0  0  0  0  0
   -2.3504    1.7432   -0.6683 H   0  0  0  0  0  0  0  0  0  0  0  0
   -2.7671    0.3454   -1.7622 H   0  0  0  0  0  0  0  0  0  0  0  0
   -0.3197    1.1384   -1.5933 H   0  0  0  0  0  0  0  0  0  0  0  0
   -1.4945   -1.3644   -1.7653 H   0  0  0  0  0  0  0  0  0  0  0  0
    4.0854   -1.5539   -0.7139 H   0  0  0  0  0  0  0  0  0  0  0  0
  1  2  2  0
  2  3  1  0
  3  4  1  0
  4  5  1  0
  5  6  1  0
  6  7  1  0
  7  8  1  0
  8  9  1  0
  9 10  1  0
 10 11  1  0
  4 12  1  0
 12 13  2  0
 12 14  1  0
 14  2  1  0
 10  5  1  0
  3 15  1  0
  3 16  1  0
  5 17  1  1
  6 18  1  0
  6 19  1  0
  7 20  1  0
  8 21  1  0
  8 22  1  0
  9 23  1  0
  9 24  1  0
 10 25  1  6
 11 26  1  0
 14 27  1  0
M  END
$$$$

     RDKit          3D

 27 28  0  0  0  0  0  0  0  0999 V2000
    4.6363   -0.3794    0.1112 O   0  0  0  0  0  0  0  0  0  0  0  0
    3.4741    0.0134   -0.1534 C   0  0  0  0  0  0  0  0  0  0  0  0
    2.4266   -0.7695   -0.8156 C   0  0  0  0  0  0  0  0  0  0  0  0
    1.1975   -0.1024   -0.4182 N   0  0  0  0  0  0  0  0  0  0  0  0
   -0.1309   -0.6577   -0.4177 C   0  0  2  0  0  0  0  0  0  0  0  0
   -1.0280    0.0596   -1.4062 C   0  0  0  0  0  0  0  0  0  0  0  0
   -2.3540   -0.5246   -1.2614 N   0  0  0  0  0  0  0  0  0  0  0  0
   -2.9427    0.0977   -0.0791 C   0  0  0  0  0  0  0  0  0  0  0  0
   -1.9621    0.2578    1.0396 C   0  0  0  0  0  0  0  0  0  0  0  0
   -0.7780   -0.6867    0.9274 C   0  0  2  0  0  0  0  0  0  0  0  0
    0.1329   -0.3365    1.9305 O   0  0  0  0  0  0  0  0  0  0  0  0
    1.5421    1.2133   -0.0248 C   0  0  0  0  0  0  0  0  0  0  0  0
    0.8004    2.2143    0.1717 O   0  0  0  0  0  0  0  0  0  0  0  0
    2.9616    1.2939    0.1427 N   0  0  0  0  0  0  0  0  0  0  0  0
    2.5624   -0.6440   -1.9168 H   0  0  0  0  0  0  0  0  0  0  0  0
    2.4054   -1.8284   -0.5285 H   0  0  0  0  0  0  0  0  0  0  0  0
   -0.0735   -1.7239   -0.7840 H   0  0  0  0  0  0  0  0  0  0  0  0
   -1.0765    1.1217   -1.1610 H   0  0  0  0  0  0  0  0  0  0  0  0
   -0.6398   -0.0655   -2.4394 H   0  0  0  0  0  0  0  0  0  0  0  0
   -2.3116   -1.5481   -1.1727 H   0  0  0  0  0  0  0  0  0  0  0  0
   -3.8312   -0.4359    0.2662 H   0  0  0  0  0  0  0  0  0  0  0  0
   -3.2711    1.1184   -0.4223 H   0  0  0  0  0  0  0  0  0  0  0  0
   -2.4297    0.0294    2.0415 H   0  0  0  0  0  0  0  0  0  0  0  0
   -1.6146    1.3098    1.1269 H   0  0  0  0  0  0  0  0  0  0  0  0
   -1.1838   -1.7045    1.1783 H   0  0  0  0  0  0  0  0  0  0  0  0
   -0.0506    0.5627    2.2929 H   0  0  0  0  0  0  0  0  0  0  0  0
    3.5391    2.1151    0.4254 H   0  0  0  0  0  0  0  0  0  0  0  0
  1  2  2  0
  2  3  1  0
  3  4  1  0
  4  5  1  0
  5  6  1  0
  6  7  1  0
  7  8  1  0
  8  9  1  0
  9 10  1  0
 10 11  1  0
  4 12  1  0
 12 13  2  0
 12 14  1  0
 14  2  1  0
 10  5  1  0
  3 15  1  0
  3 16  1  0
  5 17  1  6
  6 18  1  0
  6 19  1  0
  7 20  1  0
  8 21  1  0
  8 22  1  0
  9 23  1  0
  9 24  1  0
 10 25  1  1
 11 26  1  0
 14 27  1  0
M  END
$$$$

     RDKit          3D

 27 28  0  0  0  0  0  0  0  0999 V2000
    4.0983   -2.1331    0.3031 O   0  0  0  0  0  0  0  0  0  0  0  0
    3.3118   -1.1858    0.1113 C   0  0  0  0  0  0  0  0  0  0  0  0
    1.8763   -1.2374   -0.3000 C   0  0  0  0  0  0  0  0  0  0  0  0
    1.3385    0.0554   -0.0030 N   0  0  0  0  0  0  0  0  0  0  0  0
   -0.0327    0.4537    0.0938 C   0  0  2  0  0  0  0  0  0  0  0  0
   -0.7953   -0.2779    1.1770 C   0  0  0  0  0  0  0  0  0  0  0  0
   -2.0816    0.3041    1.3382 N   0  0  0  0  0  0  0  0  0  0  0  0
   -2.8511    0.4562    0.1550 C   0  0  0  0  0  0  0  0  0  0  0  0
   -2.1005    1.0519   -0.9960 C   0  0  0  0  0  0  0  0  0  0  0  0
   -0.8040    0.2565   -1.1960 C   0  0  2  0  0  0  0  0  0  0  0  0
   -1.0890   -1.0927   -1.4015 O   0  0  0  0  0  0  0  0  0  0  0  0
    2.4723    0.9179    0.1885 C   0  0  0  0  0  0  0  0  0  0  0  0
    2.3860    2.1837    0.2803 O   0  0  0  0  0  0  0  0  0  0  0  0
    3.6621    0.1787    0.2582 N   0  0  0  0  0  0  0  0  0  0  0  0
    1.8857   -1.4351   -1.4014 H   0  0  0  0  0  0  0  0  0  0  0  0
    1.3741   -2.0637    0.2317 H   0  0  0  0  0  0  0  0  0  0  0  0
   -0.1073    1.5414    0.3419 H   0  0  0  0  0  0  0  0  0  0  0  0
   -0.2200   -0.0845    2.1307 H   0  0  0  0  0  0  0  0  0  0  0  0
   -0.7813   -1.3712    1.0492 H   0  0  0  0  0  0  0  0  0  0  0  0
   -2.6493   -0.1221    2.0784 H   0  0  0  0  0  0  0  0  0  0  0  0
   -3.3850   -0.4801   -0.1607 H   0  0  0  0  0  0  0  0  0  0  0  0
   -3.6912    1.1751    0.3923 H   0  0  0  0  0  0  0  0  0  0  0  0
   -2.7108    1.0910   -1.8903 H   0  0  0  0  0  0  0  0  0  0  0  0
   -1.7685    2.0768   -0.6825 H   0  0  0  0  0  0  0  0  0  0  0  0
   -0.2502    0.6080   -2.0847 H   0  0  0  0  0  0  0  0  0  0  0  0
   -1.7095   -1.4749   -0.7645 H   0  0  0  0  0  0  0  0  0  0  0  0
    4.6221    0.6082    0.3964 H   0  0  0  0  0  0  0  0  0  0  0  0
  1  2  2  0
  2  3  1  0
  3  4  1  0
  4  5  1  0
  5  6  1  0
  6  7  1  0
  7  8  1  0
  8  9  1  0
  9 10  1  0
 10 11  1  0
  4 12  1  0
 12 13  2  0
 12 14  1  0
 14  2  1  0
 10  5  1  0
  3 15  1  0
  3 16  1  0
  5 17  1  1
  6 18  1  0
  6 19  1  0
  7 20  1  0
  8 21  1  0
  8 22  1  0
  9 23  1  0
  9 24  1  0
 10 25  1  6
 11 26  1  0
 14 27  1  0
M  END
$$$$

     RDKit          3D

 27 28  0  0  0  0  0  0  0  0999 V2000
    4.5591    0.5417   -0.1699 O   0  0  0  0  0  0  0  0  0  0  0  0
    3.3847    0.3491    0.2447 C   0  0  0  0  0  0  0  0  0  0  0  0
    2.4945   -0.7069   -0.2861 C   0  0  0  0  0  0  0  0  0  0  0  0
    1.1301   -0.2371   -0.0309 N   0  0  0  0  0  0  0  0  0  0  0  0
   -0.0443   -0.6191   -0.7426 C   0  0  2  0  0  0  0  0  0  0  0  0
   -0.6220    0.5313   -1.5688 C   0  0  0  0  0  0  0  0  0  0  0  0
   -1.1875    1.4591   -0.6518 N   0  0  0  0  0  0  0  0  0  0  0  0
   -2.3486    0.9594    0.0412 C   0  0  0  0  0  0  0  0  0  0  0  0
   -2.1751   -0.4023    0.6228 C   0  0  0  0  0  0  0  0  0  0  0  0
   -1.1160   -1.2483    0.0480 C   0  0  2  0  0  0  0  0  0  0  0  0
   -0.4946   -2.0227    1.0608 O   0  0  0  0  0  0  0  0  0  0  0  0
    1.2882    0.6634    1.0693 C   0  0  0  0  0  0  0  0  0  0  0  0
    0.3726    1.0913    1.7952 O   0  0  0  0  0  0  0  0  0  0  0  0
    2.6495    1.0207    1.2399 N   0  0  0  0  0  0  0  0  0  0  0  0
    2.6128   -0.8229   -1.3796 H   0  0  0  0  0  0  0  0  0  0  0  0
    2.6247   -1.6498    0.2775 H   0  0  0  0  0  0  0  0  0  0  0  0
    0.2725   -1.3559   -1.5433 H   0  0  0  0  0  0  0  0  0  0  0  0
    0.1702    1.0453   -2.1453 H   0  0  0  0  0  0  0  0  0  0  0  0
   -1.3661    0.0750   -2.2454 H   0  0  0  0  0  0  0  0  0  0  0  0
   -1.4478    2.3219   -1.1778 H   0  0  0  0  0  0  0  0  0  0  0  0
   -3.1922    0.9880   -0.6907 H   0  0  0  0  0  0  0  0  0  0  0  0
   -2.6049    1.7188    0.8109 H   0  0  0  0  0  0  0  0  0  0  0  0
   -3.1903   -0.9024    0.5778 H   0  0  0  0  0  0  0  0  0  0  0  0
   -2.0005   -0.2909    1.7218 H   0  0  0  0  0  0  0  0  0  0  0  0
   -1.6299   -2.0287   -0.5918 H   0  0  0  0  0  0  0  0  0  0  0  0
   -1.1945   -2.1366    1.7550 H   0  0  0  0  0  0  0  0  0  0  0  0
    3.0555    1.6587    1.9593 H   0  0  0  0  0  0  0  0  0  0  0  0
  1  2  2  0
  2  3  1  0
  3  4  1  0
  4  5  1  0
  5  6  1  0
  6  7  1  0
  7  8  1  0
  8  9  1  0
  9 10  1  0
 10 11  1  0
  4 12  1  0
 12 13  2  0
 12 14  1  0
 14  2  1  0
 10  5  1  0
  3 15  1  0
  3 16  1  0
  5 17  1  6
  6 18  1  0
  6 19  1  0
  7 20  1  0
  8 21  1  0
  8 22  1  0
  9 23  1  0
  9 24  1  0
 10 25  1  6
 11 26  1  0
 14 27  1  0
M  END
$$$$

     RDKit          3D

 27 28  0  0  0  0  0  0  0  0999 V2000
    4.4612   -0.7212   -0.4447 O   0  0  0  0  0  0  0  0  0  0  0  0
    3.3780   -0.2457   -0.0009 C   0  0  0  0  0  0  0  0  0  0  0  0
    2.2581   -0.9618    0.6593 C   0  0  0  0  0  0  0  0  0  0  0  0
    1.1106   -0.2218    0.1761 N   0  0  0  0  0  0  0  0  0  0  0  0
   -0.1992   -0.7389   -0.1249 C   0  0  2  0  0  0  0  0  0  0  0  0
   -0.5862   -0.6308   -1.5449 C   0  0  0  0  0  0  0  0  0  0  0  0
   -1.3978    0.5018   -1.9098 N   0  0  0  0  0  0  0  0  0  0  0  0
   -2.6104    0.5397   -1.1081 C   0  0  0  0  0  0  0  0  0  0  0  0
   -2.1541    0.8237    0.3061 C   0  0  0  0  0  0  0  0  0  0  0  0
   -1.2944   -0.2985    0.7686 C   0  0  2  0  0  0  0  0  0  0  0  0
   -0.8762   -0.1247    2.0994 O   0  0  0  0  0  0  0  0  0  0  0  0
    1.5541    1.1058    0.0688 C   0  0  0  0  0  0  0  0  0  0  0  0
    0.9080    2.1703    0.0610 O   0  0  0  0  0  0  0  0  0  0  0  0
    2.9984    1.1175   -0.0451 N   0  0  0  0  0  0  0  0  0  0  0  0
    2.3832   -0.8121    1.7509 H   0  0  0  0  0  0  0  0  0  0  0  0
    2.2274   -2.0304    0.3888 H   0  0  0  0  0  0  0  0  0  0  0  0
   -0.1562   -1.8916    0.0681 H   0  0  0  0  0  0  0  0  0  0  0  0
    0.2574   -0.6912   -2.2622 H   0  0  0  0  0  0  0  0  0  0  0  0
   -1.2256   -1.5286   -1.8030 H   0  0  0  0  0  0  0  0  0  0  0  0
   -0.9304    1.4071   -1.8476 H   0  0  0  0  0  0  0  0  0  0  0  0
   -3.2557    1.3356   -1.4845 H   0  0  0  0  0  0  0  0  0  0  0  0
   -3.0687   -0.4756   -1.2006 H   0  0  0  0  0  0  0  0  0  0  0  0
   -1.6952    1.8105    0.3284 H   0  0  0  0  0  0  0  0  0  0  0  0
   -3.0831    0.8003    0.9584 H   0  0  0  0  0  0  0  0  0  0  0  0
   -2.0155   -1.1849    0.8600 H   0  0  0  0  0  0  0  0  0  0  0  0
   -0.6233   -0.9893    2.4953 H   0  0  0  0  0  0  0  0  0  0  0  0
    3.6356    1.9348   -0.1393 H   0  0  0  0  0  0  0  0  0  0  0  0
  1  2  2  0
  2  3  1  0
  3  4  1  0
  4  5  1  0
  5  6  1  0
  6  7  1  0
  7  8  1  0
  8  9  1  0
  9 10  1  0
 10 11  1  0
  4 12  1  0
 12 13  2  0
 12 14  1  0
 14  2  1  0
 10  5  1  0
  3 15  1  0
  3 16  1  0
  5 17  1  1
  6 18  1  0
  6 19  1  0
  7 20  1  0
  8 21  1  0
  8 22  1  0
  9 23  1  0
  9 24  1  0
 10 25  1  1
 11 26  1  0
 14 27  1  0
M  END
$$$$

     RDKit          3D

 27 28  0  0  0  0  0  0  0  0999 V2000
   -3.7358    1.6879    0.7825 O   0  0  0  0  0  0  0  0  0  0  0  0
   -3.0110    0.6452    0.7008 C   0  0  0  0  0  0  0  0  0  0  0  0
   -1.5651    0.5330    1.0252 C   0  0  0  0  0  0  0  0  0  0  0  0
   -1.1136   -0.5373    0.1802 N   0  0  0  0  0  0  0  0  0  0  0  0
    0.1828   -0.8126   -0.3811 C   0  0  2  0  0  0  0  0  0  0  0  0
    1.1041   -1.1307    0.7831 C   0  0  0  0  0  0  0  0  0  0  0  0
    2.4665   -0.9632    0.3155 N   0  0  0  0  0  0  0  0  0  0  0  0
    2.7266    0.4472    0.2522 C   0  0  0  0  0  0  0  0  0  0  0  0
    1.6766    1.2026   -0.5117 C   0  0  0  0  0  0  0  0  0  0  0  0
    0.7093    0.2949   -1.2376 C   0  0  2  0  0  0  0  0  0  0  0  0
   -0.2847    1.0917   -1.7905 O   0  0  0  0  0  0  0  0  0  0  0  0
   -2.2472   -1.3606   -0.0373 C   0  0  0  0  0  0  0  0  0  0  0  0
   -2.2863   -2.5632   -0.4505 O   0  0  0  0  0  0  0  0  0  0  0  0
   -3.4240   -0.6338    0.2834 N   0  0  0  0  0  0  0  0  0  0  0  0
   -1.1114    1.5129    0.7868 H   0  0  0  0  0  0  0  0  0  0  0  0
   -1.4851    0.3172    2.1025 H   0  0  0  0  0  0  0  0  0  0  0  0
    0.1304   -1.7389   -0.9820 H   0  0  0  0  0  0  0  0  0  0  0  0
    0.9750   -2.2065    1.0832 H   0  0  0  0  0  0  0  0  0  0  0  0
    0.9186   -0.4518    1.6329 H   0  0  0  0  0  0  0  0  0  0  0  0
    2.6121   -1.3805   -0.6241 H   0  0  0  0  0  0  0  0  0  0  0  0
    2.7431    0.8518    1.2878 H   0  0  0  0  0  0  0  0  0  0  0  0
    3.7474    0.5875   -0.1511 H   0  0  0  0  0  0  0  0  0  0  0  0
    1.1407    1.9562    0.0876 H   0  0  0  0  0  0  0  0  0  0  0  0
    2.2289    1.7935   -1.3011 H   0  0  0  0  0  0  0  0  0  0  0  0
    1.2719   -0.1469   -2.0870 H   0  0  0  0  0  0  0  0  0  0  0  0
    0.0429    2.0074   -1.9641 H   0  0  0  0  0  0  0  0  0  0  0  0
   -4.4128   -1.0030    0.2144 H   0  0  0  0  0  0  0  0  0  0  0  0
  1  2  2  0
  2  3  1  0
  3  4  1  0
  4  5  1  0
  5  6  1  0
  6  7  1  0
  7  8  1  0
  8  9  1  0
  9 10  1  0
 10 11  1  0
  4 12  1  0
 12 13  2  0
 12 14  1  0
 14  2  1  0
 10  5  1  0
  3 15  1  0
  3 16  1  0
  5 17  1  6
  6 18  1  0
  6 19  1  0
  7 20  1  0
  8 21  1  0
  8 22  1  0
  9 23  1  0
  9 24  1  0
 10 25  1  6
 11 26  1  0
 14 27  1  0
M  END
$$$$

     RDKit          3D

 27 28  0  0  0  0  0  0  0  0999 V2000
    3.5157    0.3226    2.1754 O   0  0  0  0  0  0  0  0  0  0  0  0
    3.0522    0.0725    1.0398 C   0  0  0  0  0  0  0  0  0  0  0  0
    2.0219    0.8227    0.2354 C   0  0  0  0  0  0  0  0  0  0  0  0
    1.2465   -0.2811   -0.2925 N   0  0  0  0  0  0  0  0  0  0  0  0
   -0.1831   -0.4283   -0.4546 C   0  0  2  0  0  0  0  0  0  0  0  0
   -0.6704    0.6716   -1.3287 C   0  0  0  0  0  0  0  0  0  0  0  0
   -2.0850    0.5501   -1.5324 N   0  0  0  0  0  0  0  0  0  0  0  0
   -2.9089    0.4052   -0.4042 C   0  0  0  0  0  0  0  0  0  0  0  0
   -2.3887   -0.3840    0.7400 C   0  0  0  0  0  0  0  0  0  0  0  0
   -0.8989   -0.4375    0.8710 C   0  0  2  0  0  0  0  0  0  0  0  0
   -0.4314    0.6368    1.6157 O   0  0  0  0  0  0  0  0  0  0  0  0
    2.2529   -1.2539   -0.6679 C   0  0  0  0  0  0  0  0  0  0  0  0
    2.1241   -2.1231   -1.5698 O   0  0  0  0  0  0  0  0  0  0  0  0
    3.3847   -1.0197    0.1800 N   0  0  0  0  0  0  0  0  0  0  0  0
    1.4746    1.5532    0.8185 H   0  0  0  0  0  0  0  0  0  0  0  0
    2.5961    1.3088   -0.6104 H   0  0  0  0  0  0  0  0  0  0  0  0
   -0.3537   -1.4217   -0.9518 H   0  0  0  0  0  0  0  0  0  0  0  0
   -0.3428    1.6562   -0.9829 H   0  0  0  0  0  0  0  0  0  0  0  0
   -0.1904    0.5262   -2.3391 H   0  0  0  0  0  0  0  0  0  0  0  0
   -2.3833    1.3624   -2.1172 H   0  0  0  0  0  0  0  0  0  0  0  0
   -3.2271    1.4323   -0.0613 H   0  0  0  0  0  0  0  0  0  0  0  0
   -3.8700   -0.0661   -0.7447 H   0  0  0  0  0  0  0  0  0  0  0  0
   -2.7692   -1.4284    0.7320 H   0  0  0  0  0  0  0  0  0  0  0  0
   -2.7867    0.0597    1.6805 H   0  0  0  0  0  0  0  0  0  0  0  0
   -0.5633   -1.3568    1.3958 H   0  0  0  0  0  0  0  0  0  0  0  0
    0.0862    0.3696    2.3948 H   0  0  0  0  0  0  0  0  0  0  0  0
    4.2980   -1.5493    0.1786 H   0  0  0  0  0  0  0  0  0  0  0  0
  1  2  2  0
  2  3  1  0
  3  4  1  0
  4  5  1  0
  5  6  1  0
  6  7  1  0
  7  8  1  0
  8  9  1  0
  9 10  1  0
 10 11  1  0
  4 12  1  0
 12 13  2  0
 12 14  1  0
 14  2  1  0
 10  5  1  0
  3 15  1  0
  3 16  1  0
  5 17  1  6
  6 18  1  0
  6 19  1  0
  7 20  1  0
  8 21  1  0
  8 22  1  0
  9 23  1  0
  9 24  1  0
 10 25  1  1
 11 26  1  0
 14 27  1  0
M  END
$$$$

     RDKit          3D

 27 28  0  0  0  0  0  0  0  0999 V2000
   -3.7665   -0.7026   -1.9647 O   0  0  0  0  0  0  0  0  0  0  0  0
   -3.1661   -0.4438   -0.8647 C   0  0  0  0  0  0  0  0  0  0  0  0
   -1.8697   -1.0007   -0.3986 C   0  0  0  0  0  0  0  0  0  0  0  0
   -1.2930    0.1440    0.2863 N   0  0  0  0  0  0  0  0  0  0  0  0
    0.0970    0.4642    0.3037 C   0  0  2  0  0  0  0  0  0  0  0  0
    0.6161    0.6959   -1.1202 C   0  0  0  0  0  0  0  0  0  0  0  0
    1.9783    1.1290   -1.0777 N   0  0  0  0  0  0  0  0  0  0  0  0
    2.8430    0.2713   -0.3284 C   0  0  0  0  0  0  0  0  0  0  0  0
    2.3434   -0.0608    1.0462 C   0  0  0  0  0  0  0  0  0  0  0  0
    0.9481   -0.6726    0.8707 C   0  0  2  0  0  0  0  0  0  0  0  0
    1.0588   -1.6941   -0.0598 O   0  0  0  0  0  0  0  0  0  0  0  0
   -2.4153    0.7987    0.8841 C   0  0  0  0  0  0  0  0  0  0  0  0
   -2.3120    1.5608    1.8801 O   0  0  0  0  0  0  0  0  0  0  0  0
   -3.5970    0.4347    0.1670 N   0  0  0  0  0  0  0  0  0  0  0  0
   -2.0967   -1.8154    0.3427 H   0  0  0  0  0  0  0  0  0  0  0  0
   -1.2462   -1.3634   -1.2310 H   0  0  0  0  0  0  0  0  0  0  0  0
    0.3605    1.3616    0.8676 H   0  0  0  0  0  0  0  0  0  0  0  0
    0.0138    1.5638   -1.5209 H   0  0  0  0  0  0  0  0  0  0  0  0
    0.5036   -0.1957   -1.7441 H   0  0  0  0  0  0  0  0  0  0  0  0
    2.0759    2.1315   -0.8990 H   0  0  0  0  0  0  0  0  0  0  0  0
    3.8447    0.7821   -0.2772 H   0  0  0  0  0  0  0  0  0  0  0  0
    2.9675   -0.6847   -0.8799 H   0  0  0  0  0  0  0  0  0  0  0  0
    2.1892    0.8848    1.6087 H   0  0  0  0  0  0  0  0  0  0  0  0
    3.0403   -0.7574    1.5181 H   0  0  0  0  0  0  0  0  0  0  0  0
    0.5779   -1.0139    1.8492 H   0  0  0  0  0  0  0  0  0  0  0  0
    0.8794   -2.5611    0.3872 H   0  0  0  0  0  0  0  0  0  0  0  0
   -4.5751    0.7437    0.3535 H   0  0  0  0  0  0  0  0  0  0  0  0
  1  2  2  0
  2  3  1  0
  3  4  1  0
  4  5  1  0
  5  6  1  0
  6  7  1  0
  7  8  1  0
  8  9  1  0
  9 10  1  0
 10 11  1  0
  4 12  1  0
 12 13  2  0
 12 14  1  0
 14  2  1  0
 10  5  1  0
  3 15  1  0
  3 16  1  0
  5 17  1  1
  6 18  1  0
  6 19  1  0
  7 20  1  0
  8 21  1  0
  8 22  1  0
  9 23  1  0
  9 24  1  0
 10 25  1  1
 11 26  1  0
 14 27  1  0
M  END
$$$$
