
     RDKit          3D

 28 29  0  0  0  0  0  0  0  0999 V2000
    4.5833    0.3862    0.4889 C   0  0  0  0  0  0  0  0  0  0  0  0
    3.2388    0.2664   -0.1594 C   0  0  0  0  0  0  0  0  0  0  0  0
    2.0687    0.0311    0.4793 N   0  0  0  0  0  0  0  0  0  0  0  0
    1.0623   -0.0147   -0.4082 C   0  0  0  0  0  0  0  0  0  0  0  0
   -0.3474   -0.2570   -0.0191 C   0  0  2  0  0  0  0  0  0  0  0  0
   -0.9825   -1.2306   -0.9137 N   0  0  0  0  0  0  0  0  0  0  0  0
   -2.2239   -1.6120   -0.3222 C   0  0  0  0  0  0  0  0  0  0  0  0
   -2.6739   -0.7853    0.8215 C   0  0  0  0  0  0  0  0  0  0  0  0
   -2.4565    0.6833    0.6837 C   0  0  1  0  0  0  0  0  0  0  0  0
   -2.1632    1.1880    1.9699 O   0  0  0  0  0  0  0  0  0  0  0  0
   -1.2018    0.9887   -0.1477 C   0  0  2  0  0  0  0  0  0  0  0  0
   -1.6492    1.1279   -1.4765 O   0  0  0  0  0  0  0  0  0  0  0  0
    1.5967    0.1917   -1.6068 N   0  0  0  0  0  0  0  0  0  0  0  0
    2.9153    0.3618   -1.4549 N   0  0  0  0  0  0  0  0  0  0  0  0
    5.0919    1.2705    0.0530 H   0  0  0  0  0  0  0  0  0  0  0  0
    4.4176    0.5510    1.5843 H   0  0  0  0  0  0  0  0  0  0  0  0
    5.1928   -0.5218    0.3093 H   0  0  0  0  0  0  0  0  0  0  0  0
   -0.4229   -0.7014    0.9953 H   0  0  0  0  0  0  0  0  0  0  0  0
   -0.3576   -1.9958   -1.1788 H   0  0  0  0  0  0  0  0  0  0  0  0
   -2.0951   -2.6695    0.0536 H   0  0  0  0  0  0  0  0  0  0  0  0
   -3.0285   -1.7029   -1.1044 H   0  0  0  0  0  0  0  0  0  0  0  0
   -3.7860   -0.9416    0.9398 H   0  0  0  0  0  0  0  0  0  0  0  0
   -2.2447   -1.1982    1.7762 H   0  0  0  0  0  0  0  0  0  0  0  0
   -3.3267    1.2504    0.3252 H   0  0  0  0  0  0  0  0  0  0  0  0
   -1.5383    1.9626    1.8905 H   0  0  0  0  0  0  0  0  0  0  0  0
   -0.6998    1.8961    0.2069 H   0  0  0  0  0  0  0  0  0  0  0  0
   -2.5937    0.9315   -1.5833 H   0  0  0  0  0  0  0  0  0  0  0  0
    3.6243    0.5437   -2.2022 H   0  0  0  0  0  0  0  0  0  0  0  0
  1  2  1  0
  2  3  2  0
  3  4  1  0
  4  5  1  0
  5  6  1  0
  6  7  1  0
  7  8  1  0
  8  9  1  0
  9 10  1  0
  9 11  1  0
 11 12  1  0
  4 13  2  0
 13 14  1  0
 14  2  1  0
 11  5  1  0
  1 15  1  0
  1 16  1  0
  1 17  1  0
  5 18  1  1
  6 19  1  0
  7 20  1  0
  7 21  1  0
  8 22  1  0
  8 23  1  0
  9 24  1  6
 10 25  1  0
 11 26  1  1
 12 27  1  0
 14 28  1  0
M  END
$$$$

     RDKit          3D

 28 29  0  0  0  0  0  0  0  0999 V2000
    4.4654   -0.0512   -0.6619 C   0  0  0  0  0  0  0  0  0  0  0  0
    3.0125   -0.3213   -0.4269 C   0  0  0  0  0  0  0  0  0  0  0  0
    2.1268    0.4902    0.1728 N   0  0  0  0  0  0  0  0  0  0  0  0
    0.9124   -0.0711    0.2122 C   0  0  0  0  0  0  0  0  0  0  0  0
   -0.3602    0.4921    0.7922 C   0  0  2  0  0  0  0  0  0  0  0  0
   -1.0167   -0.5072    1.5581 N   0  0  0  0  0  0  0  0  0  0  0  0
   -1.8718   -1.3485    0.7521 C   0  0  0  0  0  0  0  0  0  0  0  0
   -3.0050   -0.4307    0.2705 C   0  0  0  0  0  0  0  0  0  0  0  0
   -2.3676    0.4952   -0.7388 C   0  0  1  0  0  0  0  0  0  0  0  0
   -3.3184    1.4308   -1.1431 O   0  0  0  0  0  0  0  0  0  0  0  0
   -1.1591    1.1908   -0.2402 C   0  0  2  0  0  0  0  0  0  0  0  0
   -0.3113    1.4053   -1.3538 O   0  0  0  0  0  0  0  0  0  0  0  0
    1.0378   -1.2712   -0.3802 N   0  0  0  0  0  0  0  0  0  0  0  0
    2.3150   -1.4186   -0.7668 N   0  0  0  0  0  0  0  0  0  0  0  0
    4.5574    0.4070   -1.6518 H   0  0  0  0  0  0  0  0  0  0  0  0
    5.0301   -0.9974   -0.5414 H   0  0  0  0  0  0  0  0  0  0  0  0
    4.8676    0.6578    0.0905 H   0  0  0  0  0  0  0  0  0  0  0  0
   -0.0218    1.2812    1.5316 H   0  0  0  0  0  0  0  0  0  0  0  0
   -0.3264   -1.0296    2.1067 H   0  0  0  0  0  0  0  0  0  0  0  0
   -2.2720   -2.2091    1.3044 H   0  0  0  0  0  0  0  0  0  0  0  0
   -1.2969   -1.6413   -0.1501 H   0  0  0  0  0  0  0  0  0  0  0  0
   -3.8074   -0.9868   -0.2122 H   0  0  0  0  0  0  0  0  0  0  0  0
   -3.3690    0.2132    1.1164 H   0  0  0  0  0  0  0  0  0  0  0  0
   -2.1075   -0.1134   -1.6299 H   0  0  0  0  0  0  0  0  0  0  0  0
   -3.2727    2.2422   -0.5479 H   0  0  0  0  0  0  0  0  0  0  0  0
   -1.4470    2.2363    0.0760 H   0  0  0  0  0  0  0  0  0  0  0  0
    0.3285    2.1277   -1.1776 H   0  0  0  0  0  0  0  0  0  0  0  0
    2.6773   -2.2725   -1.2562 H   0  0  0  0  0  0  0  0  0  0  0  0
  1  2  1  0
  2  3  2  0
  3  4  1  0
  4  5  1  0
  5  6  1  0
  6  7  1  0
  7  8  1  0
  8  9  1  0
  9 10  1  0
  9 11  1  0
 11 12  1  0
  4 13  2  0
 13 14  1  0
 14  2  1  0
 11  5  1  0
  1 15  1  0
  1 16  1  0
  1 17  1  0
  5 18  1  1
  6 19  1  0
  7 20  1  0
  7 21  1  0
  8 22  1  0
  8 23  1  0
  9 24  1  6
 10 25  1  0
 11 26  1  1
 12 27  1  0
 14 28  1  0
M  END
$$$$

     RDKit          3D

 28 29  0  0  0  0  0  0  0  0999 V2000
    4.5466    1.0979   -0.0893 C   0  0  0  0  0  0  0  0  0  0  0  0
    3.2671    0.3415   -0.0432 C   0  0  0  0  0  0  0  0  0  0  0  0
    2.0689    0.8007   -0.4398 N   0  0  0  0  0  0  0  0  0  0  0  0
    1.1407   -0.1593   -0.2515 C   0  0  0  0  0  0  0  0  0  0  0  0
   -0.3085   -0.0135   -0.5768 C   0  0  2  0  0  0  0  0  0  0  0  0
   -0.7187    1.2815   -0.0781 N   0  0  0  0  0  0  0  0  0  0  0  0
   -2.1062    1.4626   -0.5383 C   0  0  0  0  0  0  0  0  0  0  0  0
   -2.9360    0.5351    0.3252 C   0  0  0  0  0  0  0  0  0  0  0  0
   -2.5363   -0.8865    0.1968 C   0  0  1  0  0  0  0  0  0  0  0  0
   -3.3602   -1.5027   -0.7716 O   0  0  0  0  0  0  0  0  0  0  0  0
   -1.1090   -1.1489   -0.0584 C   0  0  2  0  0  0  0  0  0  0  0  0
   -0.4632   -1.6664    1.0844 O   0  0  0  0  0  0  0  0  0  0  0  0
    1.7941   -1.2124    0.2671 N   0  0  0  0  0  0  0  0  0  0  0  0
    3.0813   -0.9254    0.3992 N   0  0  0  0  0  0  0  0  0  0  0  0
    5.3865    0.3941   -0.2124 H   0  0  0  0  0  0  0  0  0  0  0  0
    4.5080    1.8616   -0.8844 H   0  0  0  0  0  0  0  0  0  0  0  0
    4.6396    1.6277    0.8888 H   0  0  0  0  0  0  0  0  0  0  0  0
   -0.3736    0.0449   -1.6922 H   0  0  0  0  0  0  0  0  0  0  0  0
   -0.7418    1.2980    0.9741 H   0  0  0  0  0  0  0  0  0  0  0  0
   -2.4324    2.4938   -0.4284 H   0  0  0  0  0  0  0  0  0  0  0  0
   -2.1542    1.0642   -1.5704 H   0  0  0  0  0  0  0  0  0  0  0  0
   -3.9976    0.7004    0.0247 H   0  0  0  0  0  0  0  0  0  0  0  0
   -2.8304    0.9273    1.3762 H   0  0  0  0  0  0  0  0  0  0  0  0
   -2.8167   -1.4033    1.1623 H   0  0  0  0  0  0  0  0  0  0  0  0
   -3.7478   -0.8048   -1.3549 H   0  0  0  0  0  0  0  0  0  0  0  0
   -1.0384   -1.9841   -0.8162 H   0  0  0  0  0  0  0  0  0  0  0  0
   -0.5781   -2.6614    1.1284 H   0  0  0  0  0  0  0  0  0  0  0  0
    3.8165   -1.5628    0.7764 H   0  0  0  0  0  0  0  0  0  0  0  0
  1  2  1  0
  2  3  2  0
  3  4  1  0
  4  5  1  0
  5  6  1  0
  6  7  1  0
  7  8  1  0
  8  9  1  0
  9 10  1  0
  9 11  1  0
 11 12  1  0
  4 13  2  0
 13 14  1  0
 14  2  1  0
 11  5  1  0
  1 15  1  0
  1 16  1  0
  1 17  1  0
  5 18  1  6
  6 19  1  0
  7 20  1  0
  7 21  1  0
  8 22  1  0
  8 23  1  0
  9 24  1  1
 10 25  1  0
 11 26  1  6
 12 27  1  0
 14 28  1  0
M  END
$$$$

     RDKit          3D

 28 29  0  0  0  0  0  0  0  0999 V2000
    4.6505   -0.1907    0.2222 C   0  0  0  0  0  0  0  0  0  0  0  0
    3.1931   -0.1262    0.5012 C   0  0  0  0  0  0  0  0  0  0  0  0
    2.1851   -0.5227   -0.2955 N   0  0  0  0  0  0  0  0  0  0  0  0
    1.0172   -0.2871    0.3410 C   0  0  0  0  0  0  0  0  0  0  0  0
   -0.3461   -0.5743   -0.1778 C   0  0  2  0  0  0  0  0  0  0  0  0
   -0.4209   -0.1240   -1.5617 N   0  0  0  0  0  0  0  0  0  0  0  0
   -1.7086   -0.4431   -2.1333 C   0  0  0  0  0  0  0  0  0  0  0  0
   -2.7268   -0.8236   -1.0853 C   0  0  0  0  0  0  0  0  0  0  0  0
   -2.6975    0.1897    0.0335 C   0  0  1  0  0  0  0  0  0  0  0  0
   -3.7258   -0.0407    0.9419 O   0  0  0  0  0  0  0  0  0  0  0  0
   -1.3489    0.1193    0.6936 C   0  0  2  0  0  0  0  0  0  0  0  0
   -0.9078    1.3974    1.0560 O   0  0  0  0  0  0  0  0  0  0  0  0
    1.3605    0.2530    1.5214 N   0  0  0  0  0  0  0  0  0  0  0  0
    2.6549    0.3570    1.6354 N   0  0  0  0  0  0  0  0  0  0  0  0
    4.8198   -0.2104   -0.8755 H   0  0  0  0  0  0  0  0  0  0  0  0
    5.0453   -1.1374    0.6542 H   0  0  0  0  0  0  0  0  0  0  0  0
    5.1292    0.6661    0.7145 H   0  0  0  0  0  0  0  0  0  0  0  0
   -0.5315   -1.6704   -0.1825 H   0  0  0  0  0  0  0  0  0  0  0  0
   -0.2180    0.8987   -1.6259 H   0  0  0  0  0  0  0  0  0  0  0  0
   -2.0977    0.4043   -2.7119 H   0  0  0  0  0  0  0  0  0  0  0  0
   -1.5768   -1.3224   -2.8272 H   0  0  0  0  0  0  0  0  0  0  0  0
   -2.5086   -1.8174   -0.6726 H   0  0  0  0  0  0  0  0  0  0  0  0
   -3.7204   -0.7901   -1.5799 H   0  0  0  0  0  0  0  0  0  0  0  0
   -2.8800    1.2174   -0.3804 H   0  0  0  0  0  0  0  0  0  0  0  0
   -3.3116   -0.5008    1.7180 H   0  0  0  0  0  0  0  0  0  0  0  0
   -1.4494   -0.4956    1.6283 H   0  0  0  0  0  0  0  0  0  0  0  0
   -1.0875    1.5870    1.9957 H   0  0  0  0  0  0  0  0  0  0  0  0
    3.2084    0.7441    2.4529 H   0  0  0  0  0  0  0  0  0  0  0  0
  1  2  1  0
  2  3  2  0
  3  4  1  0
  4  5  1  0
  5  6  1  0
  6  7  1  0
  7  8  1  0
  8  9  1  0
  9 10  1  0
  9 11  1  0
 11 12  1  0
  4 13  2  0
 13 14  1  0
 14  2  1  0
 11  5  1  0
  1 15  1  0
  1 16  1  0
  1 17  1  0
  5 18  1  6
  6 19  1  0
  7 20  1  0
  7 21  1  0
  8 22  1  0
  8 23  1  0
  9 24  1  6
 10 25  1  0
 11 26  1  1
 12 27  1  0
 14 28  1  0
M  END
$$$$

     RDKit          3D

 28 29  0  0  0  0  0  0  0  0999 V2000
    4.5932    0.3948   -0.4064 C   0  0  0  0  0  0  0  0  0  0  0  0
    3.2099   -0.0896   -0.1596 C   0  0  0  0  0  0  0  0  0  0  0  0
    2.0480    0.4213   -0.6468 N   0  0  0  0  0  0  0  0  0  0  0  0
    0.9954   -0.2894   -0.2002 C   0  0  0  0  0  0  0  0  0  0  0  0
   -0.4537   -0.0621   -0.4978 C   0  0  2  0  0  0  0  0  0  0  0  0
   -0.7179    1.3215   -0.3742 N   0  0  0  0  0  0  0  0  0  0  0  0
   -1.8616    1.7068    0.3541 C   0  0  0  0  0  0  0  0  0  0  0  0
   -3.0256    0.7751    0.2817 C   0  0  0  0  0  0  0  0  0  0  0  0
   -2.6576   -0.6490    0.5600 C   0  0  1  0  0  0  0  0  0  0  0  0
   -3.4681   -1.4746   -0.2512 O   0  0  0  0  0  0  0  0  0  0  0  0
   -1.2329   -0.9759    0.3565 C   0  0  2  0  0  0  0  0  0  0  0  0
   -0.5655   -1.0939    1.5971 O   0  0  0  0  0  0  0  0  0  0  0  0
    1.5425   -1.2601    0.5817 N   0  0  0  0  0  0  0  0  0  0  0  0
    2.8555   -1.1355    0.6012 N   0  0  0  0  0  0  0  0  0  0  0  0
    4.6316    0.8539   -1.3945 H   0  0  0  0  0  0  0  0  0  0  0  0
    5.2757   -0.4903   -0.3146 H   0  0  0  0  0  0  0  0  0  0  0  0
    4.8970    1.1125    0.4066 H   0  0  0  0  0  0  0  0  0  0  0  0
   -0.6253   -0.3502   -1.5762 H   0  0  0  0  0  0  0  0  0  0  0  0
    0.0881    1.9134   -0.0946 H   0  0  0  0  0  0  0  0  0  0  0  0
   -2.2177    2.7022   -0.0458 H   0  0  0  0  0  0  0  0  0  0  0  0
   -1.5903    1.9368    1.4238 H   0  0  0  0  0  0  0  0  0  0  0  0
   -3.5317    0.8609   -0.7038 H   0  0  0  0  0  0  0  0  0  0  0  0
   -3.7593    1.0905    1.0633 H   0  0  0  0  0  0  0  0  0  0  0  0
   -2.9282   -0.9298    1.6205 H   0  0  0  0  0  0  0  0  0  0  0  0
   -3.6378   -2.3207    0.2189 H   0  0  0  0  0  0  0  0  0  0  0  0
   -1.1642   -2.0119   -0.0890 H   0  0  0  0  0  0  0  0  0  0  0  0
   -0.2246   -0.2151    1.8853 H   0  0  0  0  0  0  0  0  0  0  0  0
    3.5250   -1.7415    1.1178 H   0  0  0  0  0  0  0  0  0  0  0  0
  1  2  1  0
  2  3  2  0
  3  4  1  0
  4  5  1  0
  5  6  1  0
  6  7  1  0
  7  8  1  0
  8  9  1  0
  9 10  1  0
  9 11  1  0
 11 12  1  0
  4 13  2  0
 13 14  1  0
 14  2  1  0
 11  5  1  0
  1 15  1  0
  1 16  1  0
  1 17  1  0
  5 18  1  6
  6 19  1  0
  7 20  1  0
  7 21  1  0
  8 22  1  0
  8 23  1  0
  9 24  1  1
 10 25  1  0
 11 26  1  6
 12 27  1  0
 14 28  1  0
M  END
$$$$

     RDKit          3D

 28 29  0  0  0  0  0  0  0  0999 V2000
    4.5858    0.5633    0.7691 C   0  0  0  0  0  0  0  0  0  0  0  0
    3.2880    0.4114    0.0686 C   0  0  0  0  0  0  0  0  0  0  0  0
    2.1391    0.0973    0.6988 N   0  0  0  0  0  0  0  0  0  0  0  0
    1.1329    0.0294   -0.1920 C   0  0  0  0  0  0  0  0  0  0  0  0
   -0.2606   -0.2940    0.1696 C   0  0  2  0  0  0  0  0  0  0  0  0
   -0.8499   -1.2617   -0.7534 N   0  0  0  0  0  0  0  0  0  0  0  0
   -2.0859   -1.7475   -0.2096 C   0  0  0  0  0  0  0  0  0  0  0  0
   -3.0370   -0.7121    0.2466 C   0  0  0  0  0  0  0  0  0  0  0  0
   -2.4330    0.5031    0.8533 C   0  0  1  0  0  0  0  0  0  0  0  0
   -2.0033    0.1629    2.1551 O   0  0  0  0  0  0  0  0  0  0  0  0
   -1.1758    0.9144    0.1040 C   0  0  2  0  0  0  0  0  0  0  0  0
   -1.4984    1.1335   -1.2413 O   0  0  0  0  0  0  0  0  0  0  0  0
    1.6826    0.3066   -1.3763 N   0  0  0  0  0  0  0  0  0  0  0  0
    2.9874    0.5397   -1.2315 N   0  0  0  0  0  0  0  0  0  0  0  0
    5.1285   -0.4066    0.7493 H   0  0  0  0  0  0  0  0  0  0  0  0
    5.1802    1.3904    0.3215 H   0  0  0  0  0  0  0  0  0  0  0  0
    4.4139    0.8485    1.8249 H   0  0  0  0  0  0  0  0  0  0  0  0
   -0.3197   -0.7656    1.1725 H   0  0  0  0  0  0  0  0  0  0  0  0
   -0.9470   -0.8665   -1.7112 H   0  0  0  0  0  0  0  0  0  0  0  0
   -1.8528   -2.4966    0.5777 H   0  0  0  0  0  0  0  0  0  0  0  0
   -2.5831   -2.3421   -1.0298 H   0  0  0  0  0  0  0  0  0  0  0  0
   -3.7681   -0.3948   -0.5533 H   0  0  0  0  0  0  0  0  0  0  0  0
   -3.7008   -1.1804    1.0336 H   0  0  0  0  0  0  0  0  0  0  0  0
   -3.1594    1.3283    0.8920 H   0  0  0  0  0  0  0  0  0  0  0  0
   -1.4942    0.9400    2.4992 H   0  0  0  0  0  0  0  0  0  0  0  0
   -0.7250    1.8170    0.5398 H   0  0  0  0  0  0  0  0  0  0  0  0
   -2.3289    0.6971   -1.5166 H   0  0  0  0  0  0  0  0  0  0  0  0
    3.6847    0.7849   -1.9940 H   0  0  0  0  0  0  0  0  0  0  0  0
  1  2  1  0
  2  3  2  0
  3  4  1  0
  4  5  1  0
  5  6  1  0
  6  7  1  0
  7  8  1  0
  8  9  1  0
  9 10  1  0
  9 11  1  0
 11 12  1  0
  4 13  2  0
 13 14  1  0
 14  2  1  0
 11  5  1  0
  1 15  1  0
  1 16  1  0
  1 17  1  0
  5 18  1  1
  6 19  1  0
  7 20  1  0
  7 21  1  0
  8 22  1  0
  8 23  1  0
  9 24  1  1
 10 25  1  0
 11 26  1  1
 12 27  1  0
 14 28  1  0
M  END
$$$$

     RDKit          3D

 28 29  0  0  0  0  0  0  0  0999 V2000
   -4.5072   -1.2188    0.0661 C   0  0  0  0  0  0  0  0  0  0  0  0
   -3.1799   -0.5412    0.0467 C   0  0  0  0  0  0  0  0  0  0  0  0
   -1.9652   -1.0649   -0.2015 N   0  0  0  0  0  0  0  0  0  0  0  0
   -1.0530   -0.0794   -0.1101 C   0  0  0  0  0  0  0  0  0  0  0  0
    0.4199   -0.1569   -0.2992 C   0  0  2  0  0  0  0  0  0  0  0  0
    0.9968   -1.2903    0.3658 N   0  0  0  0  0  0  0  0  0  0  0  0
    2.2440   -1.0868    0.9815 C   0  0  0  0  0  0  0  0  0  0  0  0
    3.1655   -0.1179    0.3222 C   0  0  0  0  0  0  0  0  0  0  0  0
    2.5116    1.1663   -0.0960 C   0  0  1  0  0  0  0  0  0  0  0  0
    2.7837    1.4347   -1.4455 O   0  0  0  0  0  0  0  0  0  0  0  0
    1.0252    1.1451    0.0852 C   0  0  2  0  0  0  0  0  0  0  0  0
    0.6649    1.4524    1.3968 O   0  0  0  0  0  0  0  0  0  0  0  0
   -1.7466    1.0129    0.1915 N   0  0  0  0  0  0  0  0  0  0  0  0
   -3.0429    0.7750    0.2959 N   0  0  0  0  0  0  0  0  0  0  0  0
   -4.4347   -2.2895   -0.1511 H   0  0  0  0  0  0  0  0  0  0  0  0
   -5.1703   -0.6758   -0.6494 H   0  0  0  0  0  0  0  0  0  0  0  0
   -4.9475   -1.0203    1.0782 H   0  0  0  0  0  0  0  0  0  0  0  0
    0.5767   -0.3185   -1.4054 H   0  0  0  0  0  0  0  0  0  0  0  0
    0.8483   -2.1675   -0.1377 H   0  0  0  0  0  0  0  0  0  0  0  0
    2.7855   -2.0776    1.0100 H   0  0  0  0  0  0  0  0  0  0  0  0
    2.1271   -0.8188    2.0699 H   0  0  0  0  0  0  0  0  0  0  0  0
    3.9558    0.1513    1.0840 H   0  0  0  0  0  0  0  0  0  0  0  0
    3.7341   -0.5462   -0.5343 H   0  0  0  0  0  0  0  0  0  0  0  0
    2.8962    2.0531    0.4731 H   0  0  0  0  0  0  0  0  0  0  0  0
    2.2885    2.2104   -1.7636 H   0  0  0  0  0  0  0  0  0  0  0  0
    0.5600    1.9368   -0.5517 H   0  0  0  0  0  0  0  0  0  0  0  0
    0.2539    0.6649    1.8248 H   0  0  0  0  0  0  0  0  0  0  0  0
   -3.7906    1.4676    0.5233 H   0  0  0  0  0  0  0  0  0  0  0  0
  1  2  1  0
  2  3  2  0
  3  4  1  0
  4  5  1  0
  5  6  1  0
  6  7  1  0
  7  8  1  0
  8  9  1  0
  9 10  1  0
  9 11  1  0
 11 12  1  0
  4 13  2  0
 13 14  1  0
 14  2  1  0
 11  5  1  0
  1 15  1  0
  1 16  1  0
  1 17  1  0
  5 18  1  6
  6 19  1  0
  7 20  1  0
  7 21  1  0
  8 22  1  0
  8 23  1  0
  9 24  1  1
 10 25  1  0
 11 26  1  6
 12 27  1  0
 14 28  1  0
M  END
$$$$

     RDKit          3D

 28 29  0  0  0  0  0  0  0  0999 V2000
    4.2060    0.6893    1.3721 C   0  0  0  0  0  0  0  0  0  0  0  0
    2.8478    0.5430    0.7628 C   0  0  0  0  0  0  0  0  0  0  0  0
    2.1098   -0.5893    0.7172 N   0  0  0  0  0  0  0  0  0  0  0  0
    0.9570   -0.2988    0.0876 C   0  0  0  0  0  0  0  0  0  0  0  0
   -0.1731   -1.2210   -0.2023 C   0  0  2  0  0  0  0  0  0  0  0  0
   -0.6248   -1.0549   -1.5261 N   0  0  0  0  0  0  0  0  0  0  0  0
   -1.7254   -0.2166   -1.7553 C   0  0  0  0  0  0  0  0  0  0  0  0
   -2.0796    0.7573   -0.7127 C   0  0  0  0  0  0  0  0  0  0  0  0
   -1.7789    0.3762    0.6864 C   0  0  1  0  0  0  0  0  0  0  0  0
   -2.8987    0.4926    1.5343 O   0  0  0  0  0  0  0  0  0  0  0  0
   -1.3151   -1.0418    0.7631 C   0  0  2  0  0  0  0  0  0  0  0  0
   -0.9746   -1.4113    2.0599 O   0  0  0  0  0  0  0  0  0  0  0  0
    1.0222    0.9930   -0.2316 N   0  0  0  0  0  0  0  0  0  0  0  0
    2.1733    1.5223    0.1749 N   0  0  0  0  0  0  0  0  0  0  0  0
    4.7587   -0.2629    1.2892 H   0  0  0  0  0  0  0  0  0  0  0  0
    4.7917    1.4450    0.7891 H   0  0  0  0  0  0  0  0  0  0  0  0
    4.1187    0.9802    2.4309 H   0  0  0  0  0  0  0  0  0  0  0  0
    0.1808   -2.2850   -0.0679 H   0  0  0  0  0  0  0  0  0  0  0  0
   -0.6089   -1.8752   -2.1359 H   0  0  0  0  0  0  0  0  0  0  0  0
   -2.6248   -0.8553   -1.9965 H   0  0  0  0  0  0  0  0  0  0  0  0
   -1.5450    0.3508   -2.7170 H   0  0  0  0  0  0  0  0  0  0  0  0
   -3.1895    0.9581   -0.7803 H   0  0  0  0  0  0  0  0  0  0  0  0
   -1.6054    1.7397   -0.9309 H   0  0  0  0  0  0  0  0  0  0  0  0
   -1.0080    1.0633    1.1417 H   0  0  0  0  0  0  0  0  0  0  0  0
   -3.6991    0.3918    0.9846 H   0  0  0  0  0  0  0  0  0  0  0  0
   -2.1419   -1.6932    0.4130 H   0  0  0  0  0  0  0  0  0  0  0  0
   -1.6469   -2.0007    2.4829 H   0  0  0  0  0  0  0  0  0  0  0  0
    2.4736    2.5036    0.0523 H   0  0  0  0  0  0  0  0  0  0  0  0
  1  2  1  0
  2  3  2  0
  3  4  1  0
  4  5  1  0
  5  6  1  0
  6  7  1  0
  7  8  1  0
  8  9  1  0
  9 10  1  0
  9 11  1  0
 11 12  1  0
  4 13  2  0
 13 14  1  0
 14  2  1  0
 11  5  1  0
  1 15  1  0
  1 16  1  0
  1 17  1  0
  5 18  1  6
  6 19  1  0
  7 20  1  0
  7 21  1  0
  8 22  1  0
  8 23  1  0
  9 24  1  1
 10 25  1  0
 11 26  1  6
 12 27  1  0
 14 28  1  0
M  END
$$$$
