
     RDKit          3D

 26 27  0  0  0  0  0  0  0  0999 V2000
    4.8495    1.1866   -0.5608 N   0  0  0  0  0  0  0  0  0  0  0  0
    3.8641    0.3967   -0.2407 C   0  0  0  0  0  0  0  0  0  0  0  0
    4.0781   -0.9168    0.0133 N   0  0  0  0  0  0  0  0  0  0  0  0
    3.1133   -1.7464    0.3389 N   0  0  0  0  0  0  0  0  0  0  0  0
    1.8706   -1.3040    0.4292 C   0  0  0  0  0  0  0  0  0  0  0  0
    1.5620    0.0221    0.1867 C   0  0  0  0  0  0  0  0  0  0  0  0
    0.2398    0.5224    0.2763 N   0  0  0  0  0  0  0  0  0  0  0  0
   -0.8014   -0.3124    0.6145 N   0  0  0  0  0  0  0  0  0  0  0  0
   -1.7905    0.2516    1.4642 C   0  0  0  0  0  0  0  0  0  0  0  0
   -3.0771    0.6148    0.7655 C   0  0  0  0  0  0  0  0  0  0  0  0
   -3.5018   -0.4725   -0.0065 O   0  0  0  0  0  0  0  0  0  0  0  0
   -2.5882   -0.5926   -1.0524 C   0  0  0  0  0  0  0  0  0  0  0  0
   -1.2943   -1.0805   -0.4823 C   0  0  0  0  0  0  0  0  0  0  0  0
    2.5936    0.8238   -0.1429 N   0  0  0  0  0  0  0  0  0  0  0  0
    4.6022    2.1827   -0.7407 H   0  0  0  0  0  0  0  0  0  0  0  0
    1.0290   -1.9620    0.6990 H   0  0  0  0  0  0  0  0  0  0  0  0
    0.0711    1.5258    0.0831 H   0  0  0  0  0  0  0  0  0  0  0  0
   -1.9612   -0.4358    2.3238 H   0  0  0  0  0  0  0  0  0  0  0  0
   -1.3570    1.1810    1.9227 H   0  0  0  0  0  0  0  0  0  0  0  0
   -3.8204    0.9271    1.5011 H   0  0  0  0  0  0  0  0  0  0  0  0
   -2.8212    1.4277    0.0333 H   0  0  0  0  0  0  0  0  0  0  0  0
   -2.4427    0.4008   -1.5414 H   0  0  0  0  0  0  0  0  0  0  0  0
   -2.9278   -1.3564   -1.7972 H   0  0  0  0  0  0  0  0  0  0  0  0
   -1.3938   -2.1266   -0.1634 H   0  0  0  0  0  0  0  0  0  0  0  0
   -0.5300   -1.0055   -1.3108 H   0  0  0  0  0  0  0  0  0  0  0  0
    2.4340    1.8485   -0.3422 H   0  0  0  0  0  0  0  0  0  0  0  0
  1  2  2  3
  2  3  1  0
  3  4  2  0
  4  5  1  0
  5  6  2  0
  6  7  1  0
  7  8  1  0
  8  9  1  0
  9 10  1  0
 10 11  1  0
 11 12  1  0
 12 13  1  0
  6 14  1  0
 14  2  1  0
 13  8  1  0
  1 15  1  0
  5 16  1  0
  7 17  1  0
  9 18  1  0
  9 19  1  0
 10 20  1  0
 10 21  1  0
 12 22  1  0
 12 23  1  0
 13 24  1  0
 13 25  1  0
 14 26  1  0
M  END
$$$$

     RDKit          3D

 26 27  0  0  0  0  0  0  0  0999 V2000
    4.3280   -1.3326    0.0067 N   0  0  0  0  0  0  0  0  0  0  0  0
    3.6442   -0.2341   -0.0864 C   0  0  0  0  0  0  0  0  0  0  0  0
    4.3317    0.9169   -0.2584 N   0  0  0  0  0  0  0  0  0  0  0  0
    3.6502    2.0352   -0.3564 N   0  0  0  0  0  0  0  0  0  0  0  0
    2.3195    2.0514   -0.2900 C   0  0  0  0  0  0  0  0  0  0  0  0
    1.5643    0.8837   -0.1126 C   0  0  0  0  0  0  0  0  0  0  0  0
    0.1696    1.0249   -0.0355 N   0  0  0  0  0  0  0  0  0  0  0  0
   -0.8157    0.2046   -0.5582 N   0  0  0  0  0  0  0  0  0  0  0  0
   -0.8433   -1.0966   -0.0696 C   0  0  0  0  0  0  0  0  0  0  0  0
   -2.1912   -1.7743   -0.0213 C   0  0  0  0  0  0  0  0  0  0  0  0
   -3.0679   -1.1656   -0.9164 O   0  0  0  0  0  0  0  0  0  0  0  0
   -3.2844    0.1216   -0.3764 C   0  0  0  0  0  0  0  0  0  0  0  0
   -2.0601    0.9111   -0.6878 C   0  0  0  0  0  0  0  0  0  0  0  0
    2.2825   -0.2351   -0.0163 N   0  0  0  0  0  0  0  0  0  0  0  0
    3.9029   -2.2780    0.1404 H   0  0  0  0  0  0  0  0  0  0  0  0
    1.7859    2.9833   -0.3694 H   0  0  0  0  0  0  0  0  0  0  0  0
   -0.2169    1.8759    0.5088 H   0  0  0  0  0  0  0  0  0  0  0  0
   -0.4250   -1.1108    0.9555 H   0  0  0  0  0  0  0  0  0  0  0  0
   -0.2465   -1.7448   -0.7847 H   0  0  0  0  0  0  0  0  0  0  0  0
   -2.1408   -2.8596   -0.2312 H   0  0  0  0  0  0  0  0  0  0  0  0
   -2.6662   -1.6584    0.9866 H   0  0  0  0  0  0  0  0  0  0  0  0
   -3.4726   -0.0065    0.7222 H   0  0  0  0  0  0  0  0  0  0  0  0
   -4.2092    0.5050   -0.8006 H   0  0  0  0  0  0  0  0  0  0  0  0
   -2.0257    1.7581    0.0677 H   0  0  0  0  0  0  0  0  0  0  0  0
   -2.1447    1.3682   -1.6886 H   0  0  0  0  0  0  0  0  0  0  0  0
    1.8315   -1.1435    0.1206 H   0  0  0  0  0  0  0  0  0  0  0  0
  1  2  2  3
  2  3  1  0
  3  4  2  0
  4  5  1  0
  5  6  2  0
  6  7  1  0
  7  8  1  0
  8  9  1  0
  9 10  1  0
 10 11  1  0
 11 12  1  0
 12 13  1  0
  6 14  1  0
 14  2  1  0
 13  8  1  0
  1 15  1  0
  5 16  1  0
  7 17  1  0
  9 18  1  0
  9 19  1  0
 10 20  1  0
 10 21  1  0
 12 22  1  0
 12 23  1  0
 13 24  1  0
 13 25  1  0
 14 26  1  0
M  END
$$$$

     RDKit          3D

 26 27  0  0  0  0  0  0  0  0999 V2000
    4.2784    1.1157    0.1114 N   0  0  0  0  0  0  0  0  0  0  0  0
    3.5630    0.0798   -0.1935 C   0  0  0  0  0  0  0  0  0  0  0  0
    4.0963   -1.0600   -0.6575 N   0  0  0  0  0  0  0  0  0  0  0  0
    3.4094   -2.1298   -0.9774 N   0  0  0  0  0  0  0  0  0  0  0  0
    2.0645   -2.0758   -0.8270 C   0  0  0  0  0  0  0  0  0  0  0  0
    1.4491   -0.9390   -0.3562 C   0  0  0  0  0  0  0  0  0  0  0  0
    0.0227   -0.9089   -0.2065 N   0  0  0  0  0  0  0  0  0  0  0  0
   -0.6374    0.2285    0.2689 N   0  0  0  0  0  0  0  0  0  0  0  0
   -1.1441    1.0440   -0.8154 C   0  0  0  0  0  0  0  0  0  0  0  0
   -2.5214    0.6010   -1.2447 C   0  0  0  0  0  0  0  0  0  0  0  0
   -3.4573    0.6961   -0.2329 O   0  0  0  0  0  0  0  0  0  0  0  0
   -2.8790    0.8671    1.0217 C   0  0  0  0  0  0  0  0  0  0  0  0
   -1.7281   -0.1215    1.1721 C   0  0  0  0  0  0  0  0  0  0  0  0
    2.2159    0.1153   -0.0496 N   0  0  0  0  0  0  0  0  0  0  0  0
    5.3125    1.0289   -0.0206 H   0  0  0  0  0  0  0  0  0  0  0  0
    1.4286   -2.9234   -1.0716 H   0  0  0  0  0  0  0  0  0  0  0  0
   -0.5708   -1.7311   -0.4460 H   0  0  0  0  0  0  0  0  0  0  0  0
   -1.1568    2.0810   -0.4773 H   0  0  0  0  0  0  0  0  0  0  0  0
   -0.4754    0.8943   -1.7002 H   0  0  0  0  0  0  0  0  0  0  0  0
   -2.8403    1.2670   -2.0735 H   0  0  0  0  0  0  0  0  0  0  0  0
   -2.5153   -0.4248   -1.6277 H   0  0  0  0  0  0  0  0  0  0  0  0
   -2.5127    1.9053    1.1734 H   0  0  0  0  0  0  0  0  0  0  0  0
   -3.6438    0.5716    1.7696 H   0  0  0  0  0  0  0  0  0  0  0  0
   -1.3973   -0.0590    2.2460 H   0  0  0  0  0  0  0  0  0  0  0  0
   -2.1483   -1.1193    0.9291 H   0  0  0  0  0  0  0  0  0  0  0  0
    1.7876    0.9972    0.3109 H   0  0  0  0  0  0  0  0  0  0  0  0
  1  2  2  3
  2  3  1  0
  3  4  2  0
  4  5  1  0
  5  6  2  0
  6  7  1  0
  7  8  1  0
  8  9  1  0
  9 10  1  0
 10 11  1  0
 11 12  1  0
 12 13  1  0
  6 14  1  0
 14  2  1  0
 13  8  1  0
  1 15  1  0
  5 16  1  0
  7 17  1  0
  9 18  1  0
  9 19  1  0
 10 20  1  0
 10 21  1  0
 12 22  1  0
 12 23  1  0
 13 24  1  0
 13 25  1  0
 14 26  1  0
M  END
$$$$

     RDKit          3D

 26 27  0  0  0  0  0  0  0  0999 V2000
    4.3144    1.6772   -0.2363 N   0  0  0  0  0  0  0  0  0  0  0  0
    3.6351    0.5835   -0.0842 C   0  0  0  0  0  0  0  0  0  0  0  0
    4.1415   -0.6401   -0.3236 N   0  0  0  0  0  0  0  0  0  0  0  0
    3.4455   -1.7547   -0.1666 N   0  0  0  0  0  0  0  0  0  0  0  0
    2.1506   -1.7254    0.2548 C   0  0  0  0  0  0  0  0  0  0  0  0
    1.6053   -0.5040    0.5063 C   0  0  0  0  0  0  0  0  0  0  0  0
    0.2586   -0.3512    0.9716 N   0  0  0  0  0  0  0  0  0  0  0  0
   -0.8587   -0.7403    0.2613 N   0  0  0  0  0  0  0  0  0  0  0  0
   -2.0187   -0.6416    1.1305 C   0  0  0  0  0  0  0  0  0  0  0  0
   -2.6062    0.7614    1.0250 C   0  0  0  0  0  0  0  0  0  0  0  0
   -3.1042    1.0036   -0.2354 O   0  0  0  0  0  0  0  0  0  0  0  0
   -2.6331    0.0669   -1.1455 C   0  0  0  0  0  0  0  0  0  0  0  0
   -1.1206   -0.0107   -0.9422 C   0  0  0  0  0  0  0  0  0  0  0  0
    2.3510    0.5994    0.3330 N   0  0  0  0  0  0  0  0  0  0  0  0
    3.8307    2.5748   -0.0252 H   0  0  0  0  0  0  0  0  0  0  0  0
    1.5729   -2.6227    0.3855 H   0  0  0  0  0  0  0  0  0  0  0  0
    0.1577    0.0970    1.9321 H   0  0  0  0  0  0  0  0  0  0  0  0
   -2.7524   -1.4349    1.0019 H   0  0  0  0  0  0  0  0  0  0  0  0
   -1.6542   -0.7180    2.1996 H   0  0  0  0  0  0  0  0  0  0  0  0
   -3.4272    0.8576    1.7564 H   0  0  0  0  0  0  0  0  0  0  0  0
   -1.7793    1.4709    1.3058 H   0  0  0  0  0  0  0  0  0  0  0  0
   -2.9078    0.3513   -2.1736 H   0  0  0  0  0  0  0  0  0  0  0  0
   -3.1163   -0.9018   -0.9301 H   0  0  0  0  0  0  0  0  0  0  0  0
   -0.7249   -0.5648   -1.8471 H   0  0  0  0  0  0  0  0  0  0  0  0
   -0.7175    1.0119   -0.8959 H   0  0  0  0  0  0  0  0  0  0  0  0
    1.9581    1.5544    0.5211 H   0  0  0  0  0  0  0  0  0  0  0  0
  1  2  2  3
  2  3  1  0
  3  4  2  0
  4  5  1  0
  5  6  2  0
  6  7  1  0
  7  8  1  0
  8  9  1  0
  9 10  1  0
 10 11  1  0
 11 12  1  0
 12 13  1  0
  6 14  1  0
 14  2  1  0
 13  8  1  0
  1 15  1  0
  5 16  1  0
  7 17  1  0
  9 18  1  0
  9 19  1  0
 10 20  1  0
 10 21  1  0
 12 22  1  0
 12 23  1  0
 13 24  1  0
 13 25  1  0
 14 26  1  0
M  END
$$$$

     RDKit          3D

 26 27  0  0  0  0  0  0  0  0999 V2000
    4.7057    0.9696    0.5021 N   0  0  0  0  0  0  0  0  0  0  0  0
    3.7712    0.1087    0.2670 C   0  0  0  0  0  0  0  0  0  0  0  0
    4.0410   -1.1055   -0.2467 N   0  0  0  0  0  0  0  0  0  0  0  0
    3.0981   -1.9871   -0.4777 N   0  0  0  0  0  0  0  0  0  0  0  0
    1.8286   -1.6881   -0.2005 C   0  0  0  0  0  0  0  0  0  0  0  0
    1.5193   -0.4585    0.3239 C   0  0  0  0  0  0  0  0  0  0  0  0
    0.1544   -0.1506    0.6497 N   0  0  0  0  0  0  0  0  0  0  0  0
   -0.7151    0.1603   -0.3731 N   0  0  0  0  0  0  0  0  0  0  0  0
   -1.3834    1.4258   -0.2176 C   0  0  0  0  0  0  0  0  0  0  0  0
   -2.8693    1.3473   -0.1925 C   0  0  0  0  0  0  0  0  0  0  0  0
   -3.3765    0.3920    0.6609 O   0  0  0  0  0  0  0  0  0  0  0  0
   -2.6375   -0.7873    0.6764 C   0  0  0  0  0  0  0  0  0  0  0  0
   -1.7565   -0.8446   -0.5352 C   0  0  0  0  0  0  0  0  0  0  0  0
    2.4920    0.4299    0.5538 N   0  0  0  0  0  0  0  0  0  0  0  0
    5.6932    0.6924    0.2781 H   0  0  0  0  0  0  0  0  0  0  0  0
    1.0663   -2.4059   -0.3935 H   0  0  0  0  0  0  0  0  0  0  0  0
   -0.0818   -0.1851    1.6620 H   0  0  0  0  0  0  0  0  0  0  0  0
   -1.0357    1.9323    0.7082 H   0  0  0  0  0  0  0  0  0  0  0  0
   -1.1066    2.0609   -1.0989 H   0  0  0  0  0  0  0  0  0  0  0  0
   -3.2399    2.3374    0.2084 H   0  0  0  0  0  0  0  0  0  0  0  0
   -3.3172    1.2411   -1.2038 H   0  0  0  0  0  0  0  0  0  0  0  0
   -2.0508   -0.8323    1.6076 H   0  0  0  0  0  0  0  0  0  0  0  0
   -3.3752   -1.6143    0.6110 H   0  0  0  0  0  0  0  0  0  0  0  0
   -2.3519   -0.5470   -1.4184 H   0  0  0  0  0  0  0  0  0  0  0  0
   -1.3296   -1.8593   -0.6834 H   0  0  0  0  0  0  0  0  0  0  0  0
    2.2572    1.3680    0.9532 H   0  0  0  0  0  0  0  0  0  0  0  0
  1  2  2  3
  2  3  1  0
  3  4  2  0
  4  5  1  0
  5  6  2  0
  6  7  1  0
  7  8  1  0
  8  9  1  0
  9 10  1  0
 10 11  1  0
 11 12  1  0
 12 13  1  0
  6 14  1  0
 14  2  1  0
 13  8  1  0
  1 15  1  0
  5 16  1  0
  7 17  1  0
  9 18  1  0
  9 19  1  0
 10 20  1  0
 10 21  1  0
 12 22  1  0
 12 23  1  0
 13 24  1  0
 13 25  1  0
 14 26  1  0
M  END
$$$$

     RDKit          3D

 26 27  0  0  0  0  0  0  0  0999 V2000
    4.4169    0.7313    1.2842 N   0  0  0  0  0  0  0  0  0  0  0  0
    3.6553    0.0599    0.4868 C   0  0  0  0  0  0  0  0  0  0  0  0
    4.2029   -0.6532   -0.5239 N   0  0  0  0  0  0  0  0  0  0  0  0
    3.4781   -1.3563   -1.3678 N   0  0  0  0  0  0  0  0  0  0  0  0
    2.1310   -1.3695   -1.2228 C   0  0  0  0  0  0  0  0  0  0  0  0
    1.5201   -0.6623   -0.2122 C   0  0  0  0  0  0  0  0  0  0  0  0
    0.1114   -0.6654   -0.0464 N   0  0  0  0  0  0  0  0  0  0  0  0
   -0.7564    0.2345   -0.6343 N   0  0  0  0  0  0  0  0  0  0  0  0
   -1.1139    1.2993    0.2368 C   0  0  0  0  0  0  0  0  0  0  0  0
   -2.4645    1.2759    0.8174 C   0  0  0  0  0  0  0  0  0  0  0  0
   -3.3584    0.3847    0.3151 O   0  0  0  0  0  0  0  0  0  0  0  0
   -2.8434   -0.7861   -0.1682 C   0  0  0  0  0  0  0  0  0  0  0  0
   -1.8760   -0.3943   -1.2885 C   0  0  0  0  0  0  0  0  0  0  0  0
    2.3146    0.0344    0.6148 N   0  0  0  0  0  0  0  0  0  0  0  0
    3.9911    1.2734    2.0537 H   0  0  0  0  0  0  0  0  0  0  0  0
    1.5334   -1.9456   -1.9138 H   0  0  0  0  0  0  0  0  0  0  0  0
   -0.3038   -1.4105    0.5720 H   0  0  0  0  0  0  0  0  0  0  0  0
   -0.3594    1.3149    1.0773 H   0  0  0  0  0  0  0  0  0  0  0  0
   -0.9034    2.2634   -0.3158 H   0  0  0  0  0  0  0  0  0  0  0  0
   -2.4350    1.1307    1.9383 H   0  0  0  0  0  0  0  0  0  0  0  0
   -2.9144    2.3071    0.7030 H   0  0  0  0  0  0  0  0  0  0  0  0
   -2.3459   -1.4207    0.5901 H   0  0  0  0  0  0  0  0  0  0  0  0
   -3.6470   -1.3726   -0.6348 H   0  0  0  0  0  0  0  0  0  0  0  0
   -2.4012    0.3922   -1.8774 H   0  0  0  0  0  0  0  0  0  0  0  0
   -1.5365   -1.2454   -1.8709 H   0  0  0  0  0  0  0  0  0  0  0  0
    1.9043    0.5802    1.3873 H   0  0  0  0  0  0  0  0  0  0  0  0
  1  2  2  3
  2  3  1  0
  3  4  2  0
  4  5  1  0
  5  6  2  0
  6  7  1  0
  7  8  1  0
  8  9  1  0
  9 10  1  0
 10 11  1  0
 11 12  1  0
 12 13  1  0
  6 14  1  0
 14  2  1  0
 13  8  1  0
  1 15  1  0
  5 16  1  0
  7 17  1  0
  9 18  1  0
  9 19  1  0
 10 20  1  0
 10 21  1  0
 12 22  1  0
 12 23  1  0
 13 24  1  0
 13 25  1  0
 14 26  1  0
M  END
$$$$

     RDKit          3D

 26 27  0  0  0  0  0  0  0  0999 V2000
    4.5315    1.0170    0.0476 N   0  0  0  0  0  0  0  0  0  0  0  0
    3.6770    0.0552   -0.0414 C   0  0  0  0  0  0  0  0  0  0  0  0
    4.0682   -1.2300    0.1650 N   0  0  0  0  0  0  0  0  0  0  0  0
    3.1697   -2.1929    0.0656 N   0  0  0  0  0  0  0  0  0  0  0  0
    1.8832   -1.9608   -0.2305 C   0  0  0  0  0  0  0  0  0  0  0  0
    1.5090   -0.6511   -0.4351 C   0  0  0  0  0  0  0  0  0  0  0  0
    0.1669   -0.2711   -0.7587 N   0  0  0  0  0  0  0  0  0  0  0  0
   -0.7180   -0.0776    0.2915 N   0  0  0  0  0  0  0  0  0  0  0  0
   -1.2164    1.2298    0.4687 C   0  0  0  0  0  0  0  0  0  0  0  0
   -2.6104    1.4995    0.0799 C   0  0  0  0  0  0  0  0  0  0  0  0
   -3.4106    0.4275   -0.1737 O   0  0  0  0  0  0  0  0  0  0  0  0
   -2.7231   -0.5918   -0.8392 C   0  0  0  0  0  0  0  0  0  0  0  0
   -1.7198   -1.1153    0.1970 C   0  0  0  0  0  0  0  0  0  0  0  0
    2.4071    0.3453   -0.3392 N   0  0  0  0  0  0  0  0  0  0  0  0
    4.2377    1.9992   -0.1075 H   0  0  0  0  0  0  0  0  0  0  0  0
    1.1266   -2.7237   -0.3203 H   0  0  0  0  0  0  0  0  0  0  0  0
   -0.0709   -0.1607   -1.7590 H   0  0  0  0  0  0  0  0  0  0  0  0
   -0.5373    1.9372   -0.0923 H   0  0  0  0  0  0  0  0  0  0  0  0
   -1.0553    1.5197    1.5484 H   0  0  0  0  0  0  0  0  0  0  0  0
   -2.6587    2.1676   -0.8299 H   0  0  0  0  0  0  0  0  0  0  0  0
   -3.1251    2.1120    0.8800 H   0  0  0  0  0  0  0  0  0  0  0  0
   -3.3676   -1.3751   -1.2286 H   0  0  0  0  0  0  0  0  0  0  0  0
   -2.1844   -0.0936   -1.6842 H   0  0  0  0  0  0  0  0  0  0  0  0
   -2.2397   -1.1756    1.1843 H   0  0  0  0  0  0  0  0  0  0  0  0
   -1.2380   -2.0413   -0.1079 H   0  0  0  0  0  0  0  0  0  0  0  0
    2.0982    1.3505   -0.5023 H   0  0  0  0  0  0  0  0  0  0  0  0
  1  2  2  3
  2  3  1  0
  3  4  2  0
  4  5  1  0
  5  6  2  0
  6  7  1  0
  7  8  1  0
  8  9  1  0
  9 10  1  0
 10 11  1  0
 11 12  1  0
 12 13  1  0
  6 14  1  0
 14  2  1  0
 13  8  1  0
  1 15  1  0
  5 16  1  0
  7 17  1  0
  9 18  1  0
  9 19  1  0
 10 20  1  0
 10 21  1  0
 12 22  1  0
 12 23  1  0
 13 24  1  0
 13 25  1  0
 14 26  1  0
M  END
$$$$

     RDKit          3D

 26 27  0  0  0  0  0  0  0  0999 V2000
    4.6273   -0.2427   -1.2927 N   0  0  0  0  0  0  0  0  0  0  0  0
    3.7924    0.0423   -0.3815 C   0  0  0  0  0  0  0  0  0  0  0  0
    4.1646    0.8028    0.6786 N   0  0  0  0  0  0  0  0  0  0  0  0
    3.3086    1.0998    1.6194 N   0  0  0  0  0  0  0  0  0  0  0  0
    2.0397    0.6595    1.5594 C   0  0  0  0  0  0  0  0  0  0  0  0
    1.5906   -0.1209    0.5078 C   0  0  0  0  0  0  0  0  0  0  0  0
    0.2532   -0.5909    0.4347 N   0  0  0  0  0  0  0  0  0  0  0  0
   -0.7854    0.0533   -0.2184 N   0  0  0  0  0  0  0  0  0  0  0  0
   -1.5127    0.9630    0.5805 C   0  0  0  0  0  0  0  0  0  0  0  0
   -2.9780    1.0374    0.1963 C   0  0  0  0  0  0  0  0  0  0  0  0
   -3.4645   -0.2617    0.3223 O   0  0  0  0  0  0  0  0  0  0  0  0
   -2.9360   -1.0901   -0.6360 C   0  0  0  0  0  0  0  0  0  0  0  0
   -1.5434   -0.8405   -1.0278 C   0  0  0  0  0  0  0  0  0  0  0  0
    2.5122   -0.3978   -0.4346 N   0  0  0  0  0  0  0  0  0  0  0  0
    5.6041    0.0624   -1.3051 H   0  0  0  0  0  0  0  0  0  0  0  0
    1.3785    0.9398    2.3702 H   0  0  0  0  0  0  0  0  0  0  0  0
    0.0074   -1.5101    0.9124 H   0  0  0  0  0  0  0  0  0  0  0  0
   -1.4116    0.7243    1.6604 H   0  0  0  0  0  0  0  0  0  0  0  0
   -1.1142    2.0077    0.4636 H   0  0  0  0  0  0  0  0  0  0  0  0
   -3.5020    1.6810    0.9144 H   0  0  0  0  0  0  0  0  0  0  0  0
   -3.0725    1.4360   -0.8335 H   0  0  0  0  0  0  0  0  0  0  0  0
   -3.6245   -1.0204   -1.5300 H   0  0  0  0  0  0  0  0  0  0  0  0
   -3.0932   -2.1432   -0.2752 H   0  0  0  0  0  0  0  0  0  0  0  0
   -1.5022   -0.4774   -2.0791 H   0  0  0  0  0  0  0  0  0  0  0  0
   -0.9879   -1.8255   -1.0496 H   0  0  0  0  0  0  0  0  0  0  0  0
    2.2495   -0.9882   -1.2712 H   0  0  0  0  0  0  0  0  0  0  0  0
  1  2  2  3
  2  3  1  0
  3  4  2  0
  4  5  1  0
  5  6  2  0
  6  7  1  0
  7  8  1  0
  8  9  1  0
  9 10  1  0
 10 11  1  0
 11 12  1  0
 12 13  1  0
  6 14  1  0
 14  2  1  0
 13  8  1  0
  1 15  1  0
  5 16  1  0
  7 17  1  0
  9 18  1  0
  9 19  1  0
 10 20  1  0
 10 21  1  0
 12 22  1  0
 12 23  1  0
 13 24  1  0
 13 25  1  0
 14 26  1  0
M  END
$$$$
