
     RDKit          3D

 28 28  0  0  0  0  0  0  0  0999 V2000
   -4.9571    0.2351   -0.1181 N   0  0  0  0  0  0  0  0  0  0  0  0
   -3.7067    0.8307   -0.5269 C   0  0  0  0  0  0  0  0  0  0  0  0
   -2.5997   -0.2084   -0.6444 C   0  0  0  0  0  0  0  0  0  0  0  0
   -1.3499    0.5254   -1.0745 C   0  0  1  0  0  0  0  0  0  0  0  0
   -1.0733    1.4686   -0.0885 O   0  0  0  0  0  0  0  0  0  0  0  0
   -0.1820   -0.3752   -1.1873 C   0  0  0  0  0  0  0  0  0  0  0  0
   -0.2002   -1.3151   -2.0206 O   0  0  0  0  0  0  0  0  0  0  0  0
    0.9568   -0.1875   -0.3641 N   0  0  0  0  0  0  0  0  0  0  0  0
    2.1280   -1.0624   -0.4524 C   0  0  0  0  0  0  0  0  0  0  0  0
    3.1227   -0.5887    0.5378 C   0  0  0  0  0  0  0  0  0  0  0  0
    4.1095    0.3601    0.2614 C   0  0  0  0  0  0  0  0  0  0  0  0
    4.8194    0.5388    1.3864 N   0  0  0  0  0  0  0  0  0  0  0  0
    4.3382   -0.2424    2.3585 C   0  0  0  0  0  0  0  0  0  0  0  0
    3.3037   -0.9222    1.8208 N   0  0  0  0  0  0  0  0  0  0  0  0
   -5.1701   -0.6505   -0.6179 H   0  0  0  0  0  0  0  0  0  0  0  0
   -5.0469    0.1544    0.9193 H   0  0  0  0  0  0  0  0  0  0  0  0
   -3.4423    1.6274    0.1891 H   0  0  0  0  0  0  0  0  0  0  0  0
   -3.8671    1.3085   -1.5118 H   0  0  0  0  0  0  0  0  0  0  0  0
   -2.4805   -0.7930    0.2688 H   0  0  0  0  0  0  0  0  0  0  0  0
   -2.8668   -0.8939   -1.4761 H   0  0  0  0  0  0  0  0  0  0  0  0
   -1.5707    1.0050   -2.0537 H   0  0  0  0  0  0  0  0  0  0  0  0
   -1.2616    1.0294    0.7823 H   0  0  0  0  0  0  0  0  0  0  0  0
    0.9236    0.6114    0.3161 H   0  0  0  0  0  0  0  0  0  0  0  0
    1.8801   -2.1113   -0.2444 H   0  0  0  0  0  0  0  0  0  0  0  0
    2.5218   -1.0092   -1.4870 H   0  0  0  0  0  0  0  0  0  0  0  0
    4.2579    0.8523   -0.6989 H   0  0  0  0  0  0  0  0  0  0  0  0
    4.6957   -0.3307    3.3937 H   0  0  0  0  0  0  0  0  0  0  0  0
    2.7176   -1.6179    2.3325 H   0  0  0  0  0  0  0  0  0  0  0  0
  1  2  1  0
  2  3  1  0
  3  4  1  0
  4  5  1  0
  4  6  1  0
  6  7  2  0
  6  8  1  0
  8  9  1  0
  9 10  1  0
 10 11  2  0
 11 12  1  0
 12 13  2  0
 13 14  1  0
 14 10  1  0
  1 15  1  0
  1 16  1  0
  2 17  1  0
  2 18  1  0
  3 19  1  0
  3 20  1  0
  4 21  1  6
  5 22  1  0
  8 23  1  0
  9 24  1  0
  9 25  1  0
 11 26  1  0
 13 27  1  0
 14 28  1  0
M  END
$$$$

     RDKit          3D

 28 28  0  0  0  0  0  0  0  0999 V2000
   -4.1541   -0.5249   -0.7198 N   0  0  0  0  0  0  0  0  0  0  0  0
   -3.5154   -0.5916    0.5712 C   0  0  0  0  0  0  0  0  0  0  0  0
   -1.9988   -0.7466    0.3985 C   0  0  0  0  0  0  0  0  0  0  0  0
   -1.5012    0.4574   -0.3676 C   0  0  1  0  0  0  0  0  0  0  0  0
   -1.7925    1.5951    0.3451 O   0  0  0  0  0  0  0  0  0  0  0  0
   -0.0714    0.3527   -0.7100 C   0  0  0  0  0  0  0  0  0  0  0  0
    0.3330   -0.6430   -1.3631 O   0  0  0  0  0  0  0  0  0  0  0  0
    0.8139    1.3793   -0.2936 N   0  0  0  0  0  0  0  0  0  0  0  0
    2.2146    1.3453   -0.5893 C   0  0  0  0  0  0  0  0  0  0  0  0
    2.9273    0.1667   -0.0341 C   0  0  0  0  0  0  0  0  0  0  0  0
    3.2108   -0.9984   -0.7122 C   0  0  0  0  0  0  0  0  0  0  0  0
    3.8713   -1.8372    0.1356 N   0  0  0  0  0  0  0  0  0  0  0  0
    4.0030   -1.2200    1.3197 C   0  0  0  0  0  0  0  0  0  0  0  0
    3.4288   -0.0127    1.2014 N   0  0  0  0  0  0  0  0  0  0  0  0
   -4.2305    0.4573   -1.0265 H   0  0  0  0  0  0  0  0  0  0  0  0
   -5.0000   -1.0949   -0.8120 H   0  0  0  0  0  0  0  0  0  0  0  0
   -3.9227   -1.4873    1.1050 H   0  0  0  0  0  0  0  0  0  0  0  0
   -3.7496    0.2783    1.2101 H   0  0  0  0  0  0  0  0  0  0  0  0
   -1.5411   -0.7679    1.4086 H   0  0  0  0  0  0  0  0  0  0  0  0
   -1.7741   -1.7051   -0.0972 H   0  0  0  0  0  0  0  0  0  0  0  0
   -2.0871    0.5053   -1.3239 H   0  0  0  0  0  0  0  0  0  0  0  0
   -1.7957    1.4287    1.3213 H   0  0  0  0  0  0  0  0  0  0  0  0
    0.4085    2.1743    0.2440 H   0  0  0  0  0  0  0  0  0  0  0  0
    2.3726    1.4008   -1.7069 H   0  0  0  0  0  0  0  0  0  0  0  0
    2.6993    2.2864   -0.2119 H   0  0  0  0  0  0  0  0  0  0  0  0
    2.9781   -1.2557   -1.7305 H   0  0  0  0  0  0  0  0  0  0  0  0
    4.4859   -1.6197    2.2158 H   0  0  0  0  0  0  0  0  0  0  0  0
    3.3870    0.6775    1.9719 H   0  0  0  0  0  0  0  0  0  0  0  0
  1  2  1  0
  2  3  1  0
  3  4  1  0
  4  5  1  0
  4  6  1  0
  6  7  2  0
  6  8  1  0
  8  9  1  0
  9 10  1  0
 10 11  2  0
 11 12  1  0
 12 13  2  0
 13 14  1  0
 14 10  1  0
  1 15  1  0
  1 16  1  0
  2 17  1  0
  2 18  1  0
  3 19  1  0
  3 20  1  0
  4 21  1  6
  5 22  1  0
  8 23  1  0
  9 24  1  0
  9 25  1  0
 11 26  1  0
 13 27  1  0
 14 28  1  0
M  END
$$$$

     RDKit          3D

 28 28  0  0  0  0  0  0  0  0999 V2000
    3.9099    1.4515    0.0308 N   0  0  0  0  0  0  0  0  0  0  0  0
    3.5106    0.2109   -0.5918 C   0  0  0  0  0  0  0  0  0  0  0  0
    2.0306    0.0850   -0.5065 C   0  0  0  0  0  0  0  0  0  0  0  0
    1.5270    0.0811    0.9277 C   0  0  1  0  0  0  0  0  0  0  0  0
    1.8681    1.2458    1.5818 O   0  0  0  0  0  0  0  0  0  0  0  0
    0.0432   -0.1484    0.9533 C   0  0  0  0  0  0  0  0  0  0  0  0
   -0.7035    0.6732    1.5225 O   0  0  0  0  0  0  0  0  0  0  0  0
   -0.5444   -1.2867    0.3417 N   0  0  0  0  0  0  0  0  0  0  0  0
   -1.9403   -1.5641    0.3286 C   0  0  0  0  0  0  0  0  0  0  0  0
   -2.7671   -0.5293   -0.3373 C   0  0  0  0  0  0  0  0  0  0  0  0
   -2.3877    0.6100   -0.9907 C   0  0  0  0  0  0  0  0  0  0  0  0
   -3.5064    1.2119   -1.4160 N   0  0  0  0  0  0  0  0  0  0  0  0
   -4.5571    0.4635   -1.0356 C   0  0  0  0  0  0  0  0  0  0  0  0
   -4.1068   -0.6103   -0.3707 N   0  0  0  0  0  0  0  0  0  0  0  0
    4.6973    1.8391   -0.5237 H   0  0  0  0  0  0  0  0  0  0  0  0
    4.1372    1.2697    1.0216 H   0  0  0  0  0  0  0  0  0  0  0  0
    3.9692   -0.6233   -0.0267 H   0  0  0  0  0  0  0  0  0  0  0  0
    3.8000    0.2170   -1.6532 H   0  0  0  0  0  0  0  0  0  0  0  0
    1.7119   -0.9059   -0.9368 H   0  0  0  0  0  0  0  0  0  0  0  0
    1.4770    0.8444   -1.0794 H   0  0  0  0  0  0  0  0  0  0  0  0
    2.0398   -0.7654    1.4445 H   0  0  0  0  0  0  0  0  0  0  0  0
    1.8334    2.0495    1.0328 H   0  0  0  0  0  0  0  0  0  0  0  0
    0.1080   -1.9534   -0.1247 H   0  0  0  0  0  0  0  0  0  0  0  0
   -2.1572   -2.5186   -0.1520 H   0  0  0  0  0  0  0  0  0  0  0  0
   -2.3303   -1.6420    1.3747 H   0  0  0  0  0  0  0  0  0  0  0  0
   -1.3465    0.9510   -1.1307 H   0  0  0  0  0  0  0  0  0  0  0  0
   -5.5978    0.7192   -1.2507 H   0  0  0  0  0  0  0  0  0  0  0  0
   -4.7182   -1.3759    0.0466 H   0  0  0  0  0  0  0  0  0  0  0  0
  1  2  1  0
  2  3  1  0
  3  4  1  0
  4  5  1  0
  4  6  1  0
  6  7  2  0
  6  8  1  0
  8  9  1  0
  9 10  1  0
 10 11  2  0
 11 12  1  0
 12 13  2  0
 13 14  1  0
 14 10  1  0
  1 15  1  0
  1 16  1  0
  2 17  1  0
  2 18  1  0
  3 19  1  0
  3 20  1  0
  4 21  1  1
  5 22  1  0
  8 23  1  0
  9 24  1  0
  9 25  1  0
 11 26  1  0
 13 27  1  0
 14 28  1  0
M  END
$$$$

     RDKit          3D

 28 28  0  0  0  0  0  0  0  0999 V2000
    3.1253    0.8432   -0.9926 N   0  0  0  0  0  0  0  0  0  0  0  0
    3.6457    0.3404    0.2302 C   0  0  0  0  0  0  0  0  0  0  0  0
    2.6815   -0.0238    1.2892 C   0  0  0  0  0  0  0  0  0  0  0  0
    1.7005   -1.1092    0.9825 C   0  0  1  0  0  0  0  0  0  0  0  0
    0.9283   -1.2335    2.1881 O   0  0  0  0  0  0  0  0  0  0  0  0
    0.7730   -0.7591   -0.1114 C   0  0  0  0  0  0  0  0  0  0  0  0
    1.1187   -0.7121   -1.2977 O   0  0  0  0  0  0  0  0  0  0  0  0
   -0.6130   -0.4511    0.1861 N   0  0  0  0  0  0  0  0  0  0  0  0
   -1.5050   -0.1104   -0.9010 C   0  0  0  0  0  0  0  0  0  0  0  0
   -2.8506    0.1526   -0.2885 C   0  0  0  0  0  0  0  0  0  0  0  0
   -3.8238   -0.7858   -0.0861 C   0  0  0  0  0  0  0  0  0  0  0  0
   -4.8669   -0.1746    0.4754 N   0  0  0  0  0  0  0  0  0  0  0  0
   -4.5523    1.1194    0.6212 C   0  0  0  0  0  0  0  0  0  0  0  0
   -3.3078    1.3361    0.1528 N   0  0  0  0  0  0  0  0  0  0  0  0
    3.8777    1.2969   -1.5408 H   0  0  0  0  0  0  0  0  0  0  0  0
    2.4520    1.6285   -0.7486 H   0  0  0  0  0  0  0  0  0  0  0  0
    4.3388    1.1261    0.6588 H   0  0  0  0  0  0  0  0  0  0  0  0
    4.3473   -0.4982   -0.0199 H   0  0  0  0  0  0  0  0  0  0  0  0
    3.2870   -0.3133    2.1969 H   0  0  0  0  0  0  0  0  0  0  0  0
    2.1257    0.9141    1.5855 H   0  0  0  0  0  0  0  0  0  0  0  0
    2.1562   -2.0815    0.7998 H   0  0  0  0  0  0  0  0  0  0  0  0
    0.3554   -2.0433    2.0945 H   0  0  0  0  0  0  0  0  0  0  0  0
   -0.9060   -0.4894    1.1784 H   0  0  0  0  0  0  0  0  0  0  0  0
   -1.1492    0.7651   -1.4681 H   0  0  0  0  0  0  0  0  0  0  0  0
   -1.5880   -0.9934   -1.5501 H   0  0  0  0  0  0  0  0  0  0  0  0
   -3.7544   -1.8372   -0.3389 H   0  0  0  0  0  0  0  0  0  0  0  0
   -5.2239    1.8609    1.0569 H   0  0  0  0  0  0  0  0  0  0  0  0
   -2.7720    2.2327    0.1224 H   0  0  0  0  0  0  0  0  0  0  0  0
  1  2  1  0
  2  3  1  0
  3  4  1  0
  4  5  1  0
  4  6  1  0
  6  7  2  0
  6  8  1  0
  8  9  1  0
  9 10  1  0
 10 11  2  0
 11 12  1  0
 12 13  2  0
 13 14  1  0
 14 10  1  0
  1 15  1  0
  1 16  1  0
  2 17  1  0
  2 18  1  0
  3 19  1  0
  3 20  1  0
  4 21  1  6
  5 22  1  0
  8 23  1  0
  9 24  1  0
  9 25  1  0
 11 26  1  0
 13 27  1  0
 14 28  1  0
M  END
$$$$

     RDKit          3D

 28 28  0  0  0  0  0  0  0  0999 V2000
    2.3488    1.1351    1.3416 N   0  0  0  0  0  0  0  0  0  0  0  0
    2.1311    1.0726   -0.0699 C   0  0  0  0  0  0  0  0  0  0  0  0
    2.4552   -0.2607   -0.6827 C   0  0  0  0  0  0  0  0  0  0  0  0
    1.6321   -1.3803   -0.1039 C   0  0  1  0  0  0  0  0  0  0  0  0
    1.8397   -1.5070    1.2724 O   0  0  0  0  0  0  0  0  0  0  0  0
    0.1986   -1.2610   -0.4188 C   0  0  0  0  0  0  0  0  0  0  0  0
   -0.1593   -1.1396   -1.6098 O   0  0  0  0  0  0  0  0  0  0  0  0
   -0.7428   -1.2865    0.6375 N   0  0  0  0  0  0  0  0  0  0  0  0
   -2.1576   -1.1792    0.4573 C   0  0  0  0  0  0  0  0  0  0  0  0
   -2.4627    0.1242   -0.1973 C   0  0  0  0  0  0  0  0  0  0  0  0
   -2.6956    0.2954   -1.5406 C   0  0  0  0  0  0  0  0  0  0  0  0
   -2.9305    1.6301   -1.7200 N   0  0  0  0  0  0  0  0  0  0  0  0
   -2.8465    2.2533   -0.5425 C   0  0  0  0  0  0  0  0  0  0  0  0
   -2.5629    1.3412    0.3818 N   0  0  0  0  0  0  0  0  0  0  0  0
    3.0240    0.4618    1.7202 H   0  0  0  0  0  0  0  0  0  0  0  0
    2.6216    2.1008    1.5957 H   0  0  0  0  0  0  0  0  0  0  0  0
    2.8061    1.8208   -0.5532 H   0  0  0  0  0  0  0  0  0  0  0  0
    1.1004    1.3842   -0.2975 H   0  0  0  0  0  0  0  0  0  0  0  0
    2.2496   -0.2084   -1.7567 H   0  0  0  0  0  0  0  0  0  0  0  0
    3.5245   -0.4957   -0.4513 H   0  0  0  0  0  0  0  0  0  0  0  0
    1.9951   -2.3232   -0.5703 H   0  0  0  0  0  0  0  0  0  0  0  0
    2.3258   -2.3250    1.5047 H   0  0  0  0  0  0  0  0  0  0  0  0
   -0.3634   -1.3918    1.6109 H   0  0  0  0  0  0  0  0  0  0  0  0
   -2.5658   -2.0224   -0.1437 H   0  0  0  0  0  0  0  0  0  0  0  0
   -2.6484   -1.1798    1.4484 H   0  0  0  0  0  0  0  0  0  0  0  0
   -2.7047   -0.4407   -2.3342 H   0  0  0  0  0  0  0  0  0  0  0  0
   -2.9877    3.3153   -0.3873 H   0  0  0  0  0  0  0  0  0  0  0  0
   -2.4247    1.4664    1.4090 H   0  0  0  0  0  0  0  0  0  0  0  0
  1  2  1  0
  2  3  1  0
  3  4  1  0
  4  5  1  0
  4  6  1  0
  6  7  2  0
  6  8  1  0
  8  9  1  0
  9 10  1  0
 10 11  2  0
 11 12  1  0
 12 13  2  0
 13 14  1  0
 14 10  1  0
  1 15  1  0
  1 16  1  0
  2 17  1  0
  2 18  1  0
  3 19  1  0
  3 20  1  0
  4 21  1  6
  5 22  1  0
  8 23  1  0
  9 24  1  0
  9 25  1  0
 11 26  1  0
 13 27  1  0
 14 28  1  0
M  END
$$$$

     RDKit          3D

 28 28  0  0  0  0  0  0  0  0999 V2000
   -3.1034    1.9872   -0.2544 N   0  0  0  0  0  0  0  0  0  0  0  0
   -2.1168    1.0040    0.2366 C   0  0  0  0  0  0  0  0  0  0  0  0
   -2.6961   -0.3535   -0.0092 C   0  0  0  0  0  0  0  0  0  0  0  0
   -1.8660   -1.5080    0.4388 C   0  0  1  0  0  0  0  0  0  0  0  0
   -2.6122   -2.6688    0.0946 O   0  0  0  0  0  0  0  0  0  0  0  0
   -0.5674   -1.6621   -0.2110 C   0  0  0  0  0  0  0  0  0  0  0  0
   -0.3168   -2.5895   -1.0590 O   0  0  0  0  0  0  0  0  0  0  0  0
    0.5329   -0.7896    0.0493 N   0  0  0  0  0  0  0  0  0  0  0  0
    1.8199   -0.9751   -0.6268 C   0  0  0  0  0  0  0  0  0  0  0  0
    2.7348    0.0840   -0.1391 C   0  0  0  0  0  0  0  0  0  0  0  0
    3.5773    0.0168    0.9446 C   0  0  0  0  0  0  0  0  0  0  0  0
    4.2561    1.1886    1.0716 N   0  0  0  0  0  0  0  0  0  0  0  0
    3.8378    1.9818    0.0710 C   0  0  0  0  0  0  0  0  0  0  0  0
    2.9270    1.3192   -0.6530 N   0  0  0  0  0  0  0  0  0  0  0  0
   -4.0043    1.7046    0.2221 H   0  0  0  0  0  0  0  0  0  0  0  0
   -2.7975    2.9188    0.1252 H   0  0  0  0  0  0  0  0  0  0  0  0
   -1.2406    1.1282   -0.4538 H   0  0  0  0  0  0  0  0  0  0  0  0
   -1.9039    1.2409    1.2748 H   0  0  0  0  0  0  0  0  0  0  0  0
   -3.6495   -0.4031    0.5914 H   0  0  0  0  0  0  0  0  0  0  0  0
   -3.0070   -0.4571   -1.0680 H   0  0  0  0  0  0  0  0  0  0  0  0
   -1.8356   -1.5062    1.5434 H   0  0  0  0  0  0  0  0  0  0  0  0
   -2.6862   -2.6050   -0.9079 H   0  0  0  0  0  0  0  0  0  0  0  0
    0.4031   -0.0209    0.7419 H   0  0  0  0  0  0  0  0  0  0  0  0
    1.7085   -0.9052   -1.7255 H   0  0  0  0  0  0  0  0  0  0  0  0
    2.2786   -1.9488   -0.3373 H   0  0  0  0  0  0  0  0  0  0  0  0
    3.7151   -0.8191    1.6240 H   0  0  0  0  0  0  0  0  0  0  0  0
    4.2024    2.9831   -0.0871 H   0  0  0  0  0  0  0  0  0  0  0  0
    2.4099    1.6548   -1.4972 H   0  0  0  0  0  0  0  0  0  0  0  0
  1  2  1  0
  2  3  1  0
  3  4  1  0
  4  5  1  0
  4  6  1  0
  6  7  2  0
  6  8  1  0
  8  9  1  0
  9 10  1  0
 10 11  2  0
 11 12  1  0
 12 13  2  0
 13 14  1  0
 14 10  1  0
  1 15  1  0
  1 16  1  0
  2 17  1  0
  2 18  1  0
  3 19  1  0
  3 20  1  0
  4 21  1  1
  5 22  1  0
  8 23  1  0
  9 24  1  0
  9 25  1  0
 11 26  1  0
 13 27  1  0
 14 28  1  0
M  END
$$$$

     RDKit          3D

 28 28  0  0  0  0  0  0  0  0999 V2000
   -4.2812   -0.4111   -0.5238 N   0  0  0  0  0  0  0  0  0  0  0  0
   -3.4137   -0.9672    0.4774 C   0  0  0  0  0  0  0  0  0  0  0  0
   -1.9664   -0.9335    0.0999 C   0  0  0  0  0  0  0  0  0  0  0  0
   -1.5628    0.4980   -0.1182 C   0  0  1  0  0  0  0  0  0  0  0  0
   -1.7400    1.2732    1.0151 O   0  0  0  0  0  0  0  0  0  0  0  0
   -0.1276    0.6202   -0.5175 C   0  0  0  0  0  0  0  0  0  0  0  0
    0.3420    0.0263   -1.5176 O   0  0  0  0  0  0  0  0  0  0  0  0
    0.7853    1.4265    0.2278 N   0  0  0  0  0  0  0  0  0  0  0  0
    2.1752    1.5896   -0.0968 C   0  0  0  0  0  0  0  0  0  0  0  0
    2.9309    0.3263   -0.0842 C   0  0  0  0  0  0  0  0  0  0  0  0
    3.4439   -0.2823    1.0367 C   0  0  0  0  0  0  0  0  0  0  0  0
    4.0508   -1.3867    0.6102 N   0  0  0  0  0  0  0  0  0  0  0  0
    3.9365   -1.4891   -0.7240 C   0  0  0  0  0  0  0  0  0  0  0  0
    3.2318   -0.4098   -1.1556 N   0  0  0  0  0  0  0  0  0  0  0  0
   -4.2765    0.6259   -0.5653 H   0  0  0  0  0  0  0  0  0  0  0  0
   -5.2708   -0.6715   -0.2399 H   0  0  0  0  0  0  0  0  0  0  0  0
   -3.7640   -2.0203    0.6574 H   0  0  0  0  0  0  0  0  0  0  0  0
   -3.6048   -0.4324    1.4388 H   0  0  0  0  0  0  0  0  0  0  0  0
   -1.3795   -1.4310    0.8821 H   0  0  0  0  0  0  0  0  0  0  0  0
   -1.8496   -1.4745   -0.8588 H   0  0  0  0  0  0  0  0  0  0  0  0
   -2.1674    0.8727   -0.9864 H   0  0  0  0  0  0  0  0  0  0  0  0
   -1.4925    0.7079    1.7922 H   0  0  0  0  0  0  0  0  0  0  0  0
    0.4018    1.9345    1.0762 H   0  0  0  0  0  0  0  0  0  0  0  0
    2.6122    2.3250    0.6333 H   0  0  0  0  0  0  0  0  0  0  0  0
    2.3301    2.0691   -1.0882 H   0  0  0  0  0  0  0  0  0  0  0  0
    3.3516    0.0964    2.0620 H   0  0  0  0  0  0  0  0  0  0  0  0
    4.3115   -2.2560   -1.3723 H   0  0  0  0  0  0  0  0  0  0  0  0
    2.9930   -0.2263   -2.1474 H   0  0  0  0  0  0  0  0  0  0  0  0
  1  2  1  0
  2  3  1  0
  3  4  1  0
  4  5  1  0
  4  6  1  0
  6  7  2  0
  6  8  1  0
  8  9  1  0
  9 10  1  0
 10 11  2  0
 11 12  1  0
 12 13  2  0
 13 14  1  0
 14 10  1  0
  1 15  1  0
  1 16  1  0
  2 17  1  0
  2 18  1  0
  3 19  1  0
  3 20  1  0
  4 21  1  6
  5 22  1  0
  8 23  1  0
  9 24  1  0
  9 25  1  0
 11 26  1  0
 13 27  1  0
 14 28  1  0
M  END
$$$$

     RDKit          3D

 28 28  0  0  0  0  0  0  0  0999 V2000
   -4.6161    0.9184   -0.4880 N   0  0  0  0  0  0  0  0  0  0  0  0
   -4.0100   -0.1378    0.2836 C   0  0  0  0  0  0  0  0  0  0  0  0
   -2.6947   -0.5871   -0.2656 C   0  0  0  0  0  0  0  0  0  0  0  0
   -1.6710    0.5284   -0.3142 C   0  0  1  0  0  0  0  0  0  0  0  0
   -1.4643    0.9996    0.9594 O   0  0  0  0  0  0  0  0  0  0  0  0
   -0.4291    0.0095   -0.9429 C   0  0  0  0  0  0  0  0  0  0  0  0
   -0.5177   -0.4458   -2.1146 O   0  0  0  0  0  0  0  0  0  0  0  0
    0.8256   -0.0034   -0.3141 N   0  0  0  0  0  0  0  0  0  0  0  0
    1.9769   -0.5390   -1.0316 C   0  0  0  0  0  0  0  0  0  0  0  0
    3.2097   -0.4748   -0.2241 C   0  0  0  0  0  0  0  0  0  0  0  0
    3.6587   -1.4784    0.6353 C   0  0  0  0  0  0  0  0  0  0  0  0
    4.8016   -1.0148    1.1613 N   0  0  0  0  0  0  0  0  0  0  0  0
    5.0786    0.2006    0.6815 C   0  0  0  0  0  0  0  0  0  0  0  0
    4.0957    0.5308   -0.1720 N   0  0  0  0  0  0  0  0  0  0  0  0
   -4.0389    1.7722   -0.5221 H   0  0  0  0  0  0  0  0  0  0  0  0
   -5.5457    1.1264   -0.0725 H   0  0  0  0  0  0  0  0  0  0  0  0
   -3.8576    0.1338    1.3482 H   0  0  0  0  0  0  0  0  0  0  0  0
   -4.6992   -1.0064    0.2542 H   0  0  0  0  0  0  0  0  0  0  0  0
   -2.7988   -1.0148   -1.2821 H   0  0  0  0  0  0  0  0  0  0  0  0
   -2.3114   -1.3937    0.3931 H   0  0  0  0  0  0  0  0  0  0  0  0
   -2.0529    1.3337   -0.9897 H   0  0  0  0  0  0  0  0  0  0  0  0
   -0.7881    1.6980    1.0326 H   0  0  0  0  0  0  0  0  0  0  0  0
    0.8987    0.3760    0.6618 H   0  0  0  0  0  0  0  0  0  0  0  0
    1.7097   -1.5563   -1.3579 H   0  0  0  0  0  0  0  0  0  0  0  0
    2.1257    0.1384   -1.9174 H   0  0  0  0  0  0  0  0  0  0  0  0
    3.1362   -2.4125    0.7923 H   0  0  0  0  0  0  0  0  0  0  0  0
    5.9241    0.8520    0.9009 H   0  0  0  0  0  0  0  0  0  0  0  0
    4.0541    1.4470   -0.7049 H   0  0  0  0  0  0  0  0  0  0  0  0
  1  2  1  0
  2  3  1  0
  3  4  1  0
  4  5  1  0
  4  6  1  0
  6  7  2  0
  6  8  1  0
  8  9  1  0
  9 10  1  0
 10 11  2  0
 11 12  1  0
 12 13  2  0
 13 14  1  0
 14 10  1  0
  1 15  1  0
  1 16  1  0
  2 17  1  0
  2 18  1  0
  3 19  1  0
  3 20  1  0
  4 21  1  6
  5 22  1  0
  8 23  1  0
  9 24  1  0
  9 25  1  0
 11 26  1  0
 13 27  1  0
 14 28  1  0
M  END
$$$$
