
     RDKit          3D

 31 32  0  0  0  0  0  0  0  0999 V2000
   -0.8928    2.6797   -0.2984 C   0  0  0  0  0  0  0  0  0  0  0  0
   -0.9237    1.6782   -1.2269 O   0  0  0  0  0  0  0  0  0  0  0  0
   -0.8775    0.4306   -0.7646 N   0  0  0  0  0  0  0  0  0  0  0  0
    0.2150   -0.3365   -1.0930 C   0  0  0  0  0  0  0  0  0  0  0  0
    1.2178   -0.6932   -0.0093 C   0  0  2  0  0  0  0  0  0  0  0  0
    1.8505    0.5186    0.5907 C   0  0  0  0  0  0  0  0  0  0  0  0
    3.2699    0.0846    0.8421 C   0  0  0  0  0  0  0  0  0  0  0  0
    3.5624   -0.6931   -0.3579 N   0  0  0  0  0  0  0  0  0  0  0  0
    2.3792   -1.4188   -0.6232 C   0  0  0  0  0  0  0  0  0  0  0  0
    2.3032   -2.4828   -1.2599 O   0  0  0  0  0  0  0  0  0  0  0  0
   -1.9779    0.0599   -0.0486 C   0  0  0  0  0  0  0  0  0  0  0  0
   -2.9039   -1.0152   -0.5804 C   0  0  0  0  0  0  0  0  0  0  0  0
   -3.4043   -1.1027    0.8096 N   0  0  0  0  0  0  0  0  0  0  0  0
   -1.9936   -0.7497    1.1928 C   0  0  0  0  0  0  0  0  0  0  0  0
   -1.6796    2.6785    0.4715 H   0  0  0  0  0  0  0  0  0  0  0  0
    0.0654    2.7691    0.2547 H   0  0  0  0  0  0  0  0  0  0  0  0
   -1.0395    3.6436   -0.8649 H   0  0  0  0  0  0  0  0  0  0  0  0
    0.0185   -1.3073   -1.6073 H   0  0  0  0  0  0  0  0  0  0  0  0
    0.8469    0.2324   -1.8544 H   0  0  0  0  0  0  0  0  0  0  0  0
    0.7697   -1.2811    0.7967 H   0  0  0  0  0  0  0  0  0  0  0  0
    1.9274    1.3578   -0.1682 H   0  0  0  0  0  0  0  0  0  0  0  0
    1.3754    0.8576    1.5362 H   0  0  0  0  0  0  0  0  0  0  0  0
    3.9611    0.9469    0.9310 H   0  0  0  0  0  0  0  0  0  0  0  0
    3.3533   -0.6059    1.7033 H   0  0  0  0  0  0  0  0  0  0  0  0
    4.4704   -0.6743   -0.8695 H   0  0  0  0  0  0  0  0  0  0  0  0
   -2.6603    0.9627    0.1290 H   0  0  0  0  0  0  0  0  0  0  0  0
   -3.6938   -0.6414   -1.2226 H   0  0  0  0  0  0  0  0  0  0  0  0
   -2.4733   -1.9501   -0.9072 H   0  0  0  0  0  0  0  0  0  0  0  0
   -3.6253   -2.0820    1.0850 H   0  0  0  0  0  0  0  0  0  0  0  0
   -2.0425   -0.2066    2.1664 H   0  0  0  0  0  0  0  0  0  0  0  0
   -1.3982   -1.6594    1.2474 H   0  0  0  0  0  0  0  0  0  0  0  0
  1  2  1  0
  2  3  1  0
  3  4  1  0
  4  5  1  0
  5  6  1  0
  6  7  1  0
  7  8  1  0
  8  9  1  0
  9 10  2  0
  3 11  1  0
 11 12  1  0
 12 13  1  0
 13 14  1  0
  9  5  1  0
 14 11  1  0
  1 15  1  0
  1 16  1  0
  1 17  1  0
  4 18  1  0
  4 19  1  0
  5 20  1  1
  6 21  1  0
  6 22  1  0
  7 23  1  0
  7 24  1  0
  8 25  1  0
 11 26  1  0
 12 27  1  0
 12 28  1  0
 13 29  1  0
 14 30  1  0
 14 31  1  0
M  END
$$$$

     RDKit          3D

 31 32  0  0  0  0  0  0  0  0999 V2000
   -0.9171   -2.5227   -1.0875 C   0  0  0  0  0  0  0  0  0  0  0  0
   -0.4313   -1.6138   -0.1718 O   0  0  0  0  0  0  0  0  0  0  0  0
   -0.7083   -0.3649   -0.5408 N   0  0  0  0  0  0  0  0  0  0  0  0
    0.4776    0.4073   -0.6377 C   0  0  0  0  0  0  0  0  0  0  0  0
    1.2178    0.6412    0.6380 C   0  0  2  0  0  0  0  0  0  0  0  0
    2.4699    1.4941    0.3585 C   0  0  0  0  0  0  0  0  0  0  0  0
    3.5258    0.4507    0.0553 C   0  0  0  0  0  0  0  0  0  0  0  0
    3.2264   -0.6073    0.9948 N   0  0  0  0  0  0  0  0  0  0  0  0
    1.8252   -0.5807    1.2188 C   0  0  0  0  0  0  0  0  0  0  0  0
    1.2223   -1.5117    1.8448 O   0  0  0  0  0  0  0  0  0  0  0  0
   -1.7972    0.2303    0.1594 C   0  0  0  0  0  0  0  0  0  0  0  0
   -2.3485    1.4993   -0.4477 C   0  0  0  0  0  0  0  0  0  0  0  0
   -3.6617    1.0692    0.0335 N   0  0  0  0  0  0  0  0  0  0  0  0
   -3.1749   -0.2980   -0.1844 C   0  0  0  0  0  0  0  0  0  0  0  0
   -0.5043   -3.5537   -0.9029 H   0  0  0  0  0  0  0  0  0  0  0  0
   -2.0334   -2.5808   -0.9569 H   0  0  0  0  0  0  0  0  0  0  0  0
   -0.6922   -2.2708   -2.1417 H   0  0  0  0  0  0  0  0  0  0  0  0
    1.1577   -0.1195   -1.3654 H   0  0  0  0  0  0  0  0  0  0  0  0
    0.3195    1.4147   -1.1077 H   0  0  0  0  0  0  0  0  0  0  0  0
    0.6088    1.1725    1.3751 H   0  0  0  0  0  0  0  0  0  0  0  0
    2.7821    2.0577    1.2415 H   0  0  0  0  0  0  0  0  0  0  0  0
    2.2982    2.1078   -0.5340 H   0  0  0  0  0  0  0  0  0  0  0  0
    4.5505    0.8231    0.1640 H   0  0  0  0  0  0  0  0  0  0  0  0
    3.3420    0.0215   -0.9612 H   0  0  0  0  0  0  0  0  0  0  0  0
    3.9288   -1.2754    1.4303 H   0  0  0  0  0  0  0  0  0  0  0  0
   -1.6939    0.3193    1.2576 H   0  0  0  0  0  0  0  0  0  0  0  0
   -1.9432    2.3840    0.0579 H   0  0  0  0  0  0  0  0  0  0  0  0
   -2.3683    1.5041   -1.5476 H   0  0  0  0  0  0  0  0  0  0  0  0
   -3.8143    1.2985    1.0417 H   0  0  0  0  0  0  0  0  0  0  0  0
   -3.5928   -1.0406    0.4951 H   0  0  0  0  0  0  0  0  0  0  0  0
   -3.2711   -0.5552   -1.2732 H   0  0  0  0  0  0  0  0  0  0  0  0
  1  2  1  0
  2  3  1  0
  3  4  1  0
  4  5  1  0
  5  6  1  0
  6  7  1  0
  7  8  1  0
  8  9  1  0
  9 10  2  0
  3 11  1  0
 11 12  1  0
 12 13  1  0
 13 14  1  0
  9  5  1  0
 14 11  1  0
  1 15  1  0
  1 16  1  0
  1 17  1  0
  4 18  1  0
  4 19  1  0
  5 20  1  1
  6 21  1  0
  6 22  1  0
  7 23  1  0
  7 24  1  0
  8 25  1  0
 11 26  1  0
 12 27  1  0
 12 28  1  0
 13 29  1  0
 14 30  1  0
 14 31  1  0
M  END
$$$$

     RDKit          3D

 31 32  0  0  0  0  0  0  0  0999 V2000
    1.1084   -2.0897    1.2009 C   0  0  0  0  0  0  0  0  0  0  0  0
    0.7045   -0.7940    1.5098 O   0  0  0  0  0  0  0  0  0  0  0  0
    0.6264   -0.0421    0.4509 N   0  0  0  0  0  0  0  0  0  0  0  0
   -0.5016    0.7602    0.2528 C   0  0  0  0  0  0  0  0  0  0  0  0
   -1.2943    0.3449   -0.9580 C   0  0  2  0  0  0  0  0  0  0  0  0
   -2.5122    1.2596   -1.1257 C   0  0  0  0  0  0  0  0  0  0  0  0
   -3.5419    0.6678   -0.1824 C   0  0  0  0  0  0  0  0  0  0  0  0
   -3.3381   -0.7535   -0.3203 N   0  0  0  0  0  0  0  0  0  0  0  0
   -1.9833   -0.9586   -0.6827 C   0  0  0  0  0  0  0  0  0  0  0  0
   -1.4853   -2.1263   -0.7457 O   0  0  0  0  0  0  0  0  0  0  0  0
    1.6872    0.0254   -0.4609 C   0  0  0  0  0  0  0  0  0  0  0  0
    2.3946    1.3559   -0.5841 C   0  0  0  0  0  0  0  0  0  0  0  0
    3.6284    0.6131   -0.7683 N   0  0  0  0  0  0  0  0  0  0  0  0
    3.0250   -0.4056    0.1080 C   0  0  0  0  0  0  0  0  0  0  0  0
    1.1354   -2.2863    0.1273 H   0  0  0  0  0  0  0  0  0  0  0  0
    2.0540   -2.3772    1.7066 H   0  0  0  0  0  0  0  0  0  0  0  0
    0.3165   -2.7812    1.6160 H   0  0  0  0  0  0  0  0  0  0  0  0
   -1.1861    0.6323    1.1425 H   0  0  0  0  0  0  0  0  0  0  0  0
   -0.2159    1.8275    0.2272 H   0  0  0  0  0  0  0  0  0  0  0  0
   -0.6777    0.2907   -1.8556 H   0  0  0  0  0  0  0  0  0  0  0  0
   -2.8368    1.1463   -2.1661 H   0  0  0  0  0  0  0  0  0  0  0  0
   -2.2391    2.2858   -0.8320 H   0  0  0  0  0  0  0  0  0  0  0  0
   -4.5766    0.9266   -0.4526 H   0  0  0  0  0  0  0  0  0  0  0  0
   -3.3229    1.0029    0.8580 H   0  0  0  0  0  0  0  0  0  0  0  0
   -4.0643   -1.5096   -0.1779 H   0  0  0  0  0  0  0  0  0  0  0  0
    1.5359   -0.4263   -1.4436 H   0  0  0  0  0  0  0  0  0  0  0  0
    2.4658    1.9351    0.3560 H   0  0  0  0  0  0  0  0  0  0  0  0
    2.1718    1.9305   -1.4969 H   0  0  0  0  0  0  0  0  0  0  0  0
    4.4841    1.0494   -0.4115 H   0  0  0  0  0  0  0  0  0  0  0  0
    3.3519   -1.4230   -0.0965 H   0  0  0  0  0  0  0  0  0  0  0  0
    3.0863   -0.0806    1.1857 H   0  0  0  0  0  0  0  0  0  0  0  0
  1  2  1  0
  2  3  1  0
  3  4  1  0
  4  5  1  0
  5  6  1  0
  6  7  1  0
  7  8  1  0
  8  9  1  0
  9 10  2  0
  3 11  1  0
 11 12  1  0
 12 13  1  0
 13 14  1  0
  9  5  1  0
 14 11  1  0
  1 15  1  0
  1 16  1  0
  1 17  1  0
  4 18  1  0
  4 19  1  0
  5 20  1  6
  6 21  1  0
  6 22  1  0
  7 23  1  0
  7 24  1  0
  8 25  1  0
 11 26  1  0
 12 27  1  0
 12 28  1  0
 13 29  1  0
 14 30  1  0
 14 31  1  0
M  END
$$$$

     RDKit          3D

 31 32  0  0  0  0  0  0  0  0999 V2000
   -1.1572    2.4969   -0.7610 C   0  0  0  0  0  0  0  0  0  0  0  0
   -0.7090    1.6666    0.2539 O   0  0  0  0  0  0  0  0  0  0  0  0
   -0.7954    0.3930    0.0196 N   0  0  0  0  0  0  0  0  0  0  0  0
    0.1705   -0.5198    0.4356 C   0  0  0  0  0  0  0  0  0  0  0  0
    1.3580    0.0477    1.1358 C   0  0  2  0  0  0  0  0  0  0  0  0
    2.1645    1.0437    0.3552 C   0  0  0  0  0  0  0  0  0  0  0  0
    3.0058    0.1869   -0.5491 C   0  0  0  0  0  0  0  0  0  0  0  0
    3.3500   -0.8984    0.3300 N   0  0  0  0  0  0  0  0  0  0  0  0
    2.3804   -1.0468    1.3544 C   0  0  0  0  0  0  0  0  0  0  0  0
    2.4090   -1.9213    2.2302 O   0  0  0  0  0  0  0  0  0  0  0  0
   -2.0322   -0.0460   -0.4868 C   0  0  0  0  0  0  0  0  0  0  0  0
   -2.8315   -0.7478    0.5871 C   0  0  0  0  0  0  0  0  0  0  0  0
   -2.5996   -1.9944   -0.0581 N   0  0  0  0  0  0  0  0  0  0  0  0
   -2.1218   -1.3310   -1.2022 C   0  0  0  0  0  0  0  0  0  0  0  0
   -1.0443    2.0696   -1.7743 H   0  0  0  0  0  0  0  0  0  0  0  0
   -0.5105    3.4241   -0.7482 H   0  0  0  0  0  0  0  0  0  0  0  0
   -2.1826    2.8827   -0.6130 H   0  0  0  0  0  0  0  0  0  0  0  0
   -0.2963   -1.2492    1.1725 H   0  0  0  0  0  0  0  0  0  0  0  0
    0.4931   -1.1010   -0.4911 H   0  0  0  0  0  0  0  0  0  0  0  0
    1.1321    0.3967    2.1682 H   0  0  0  0  0  0  0  0  0  0  0  0
    1.5713    1.7918   -0.1952 H   0  0  0  0  0  0  0  0  0  0  0  0
    2.8719    1.5164    1.0746 H   0  0  0  0  0  0  0  0  0  0  0  0
    3.8867    0.7334   -0.9489 H   0  0  0  0  0  0  0  0  0  0  0  0
    2.4512   -0.1793   -1.4314 H   0  0  0  0  0  0  0  0  0  0  0  0
    4.2093   -1.4960    0.2280 H   0  0  0  0  0  0  0  0  0  0  0  0
   -2.6510    0.7494   -1.0021 H   0  0  0  0  0  0  0  0  0  0  0  0
   -2.4058   -0.6432    1.6132 H   0  0  0  0  0  0  0  0  0  0  0  0
   -3.9288   -0.4935    0.5531 H   0  0  0  0  0  0  0  0  0  0  0  0
   -2.0565   -2.6960    0.4399 H   0  0  0  0  0  0  0  0  0  0  0  0
   -1.2088   -1.7241   -1.6924 H   0  0  0  0  0  0  0  0  0  0  0  0
   -2.9225   -1.3110   -1.9973 H   0  0  0  0  0  0  0  0  0  0  0  0
  1  2  1  0
  2  3  1  0
  3  4  1  0
  4  5  1  0
  5  6  1  0
  6  7  1  0
  7  8  1  0
  8  9  1  0
  9 10  2  0
  3 11  1  0
 11 12  1  0
 12 13  1  0
 13 14  1  0
  9  5  1  0
 14 11  1  0
  1 15  1  0
  1 16  1  0
  1 17  1  0
  4 18  1  0
  4 19  1  0
  5 20  1  1
  6 21  1  0
  6 22  1  0
  7 23  1  0
  7 24  1  0
  8 25  1  0
 11 26  1  0
 12 27  1  0
 12 28  1  0
 13 29  1  0
 14 30  1  0
 14 31  1  0
M  END
$$$$

     RDKit          3D

 31 32  0  0  0  0  0  0  0  0999 V2000
   -1.6465    2.7326    0.2785 C   0  0  0  0  0  0  0  0  0  0  0  0
   -1.1510    1.4780    0.5986 O   0  0  0  0  0  0  0  0  0  0  0  0
   -0.9846    0.6906   -0.4950 N   0  0  0  0  0  0  0  0  0  0  0  0
    0.2786    0.7502   -1.0719 C   0  0  0  0  0  0  0  0  0  0  0  0
    1.5028    0.2551   -0.4870 C   0  0  2  0  0  0  0  0  0  0  0  0
    1.7221   -1.1463   -0.0787 C   0  0  0  0  0  0  0  0  0  0  0  0
    3.2600   -1.0299    0.2387 C   0  0  0  0  0  0  0  0  0  0  0  0
    3.2290    0.2240    1.0145 N   0  0  0  0  0  0  0  0  0  0  0  0
    2.0761    0.9877    0.6755 C   0  0  0  0  0  0  0  0  0  0  0  0
    1.6634    1.9975    1.2088 O   0  0  0  0  0  0  0  0  0  0  0  0
   -1.7118   -0.4893   -0.5174 C   0  0  0  0  0  0  0  0  0  0  0  0
   -1.2773   -1.7584    0.1440 C   0  0  0  0  0  0  0  0  0  0  0  0
   -2.7428   -2.0577    0.2500 N   0  0  0  0  0  0  0  0  0  0  0  0
   -2.8368   -0.6051    0.5266 C   0  0  0  0  0  0  0  0  0  0  0  0
   -0.9003    3.5433    0.4707 H   0  0  0  0  0  0  0  0  0  0  0  0
   -2.4736    2.9403    0.9749 H   0  0  0  0  0  0  0  0  0  0  0  0
   -2.0469    2.7845   -0.7600 H   0  0  0  0  0  0  0  0  0  0  0  0
    0.2151    0.2687   -2.1291 H   0  0  0  0  0  0  0  0  0  0  0  0
    0.5170    1.8333   -1.4193 H   0  0  0  0  0  0  0  0  0  0  0  0
    2.3395    0.4310   -1.2943 H   0  0  0  0  0  0  0  0  0  0  0  0
    1.3358   -1.3620    0.9615 H   0  0  0  0  0  0  0  0  0  0  0  0
    1.5247   -1.9327   -0.7883 H   0  0  0  0  0  0  0  0  0  0  0  0
    3.7360   -0.8763   -0.7203 H   0  0  0  0  0  0  0  0  0  0  0  0
    3.5595   -1.8853    0.8425 H   0  0  0  0  0  0  0  0  0  0  0  0
    3.9854    0.4430    1.6876 H   0  0  0  0  0  0  0  0  0  0  0  0
   -2.2215   -0.7284   -1.5139 H   0  0  0  0  0  0  0  0  0  0  0  0
   -0.7669   -2.5084   -0.5024 H   0  0  0  0  0  0  0  0  0  0  0  0
   -0.9352   -1.6588    1.1763 H   0  0  0  0  0  0  0  0  0  0  0  0
   -2.9522   -2.6789    1.0380 H   0  0  0  0  0  0  0  0  0  0  0  0
   -2.4935   -0.4552    1.5550 H   0  0  0  0  0  0  0  0  0  0  0  0
   -3.8044   -0.1872    0.2244 H   0  0  0  0  0  0  0  0  0  0  0  0
  1  2  1  0
  2  3  1  0
  3  4  1  0
  4  5  1  0
  5  6  1  0
  6  7  1  0
  7  8  1  0
  8  9  1  0
  9 10  2  0
  3 11  1  0
 11 12  1  0
 12 13  1  0
 13 14  1  0
  9  5  1  0
 14 11  1  0
  1 15  1  0
  1 16  1  0
  1 17  1  0
  4 18  1  0
  4 19  1  0
  5 20  1  6
  6 21  1  0
  6 22  1  0
  7 23  1  0
  7 24  1  0
  8 25  1  0
 11 26  1  0
 12 27  1  0
 12 28  1  0
 13 29  1  0
 14 30  1  0
 14 31  1  0
M  END
$$$$

     RDKit          3D

 31 32  0  0  0  0  0  0  0  0999 V2000
   -1.9960    2.6067   -0.0895 C   0  0  0  0  0  0  0  0  0  0  0  0
   -1.6298    1.7699    0.9355 O   0  0  0  0  0  0  0  0  0  0  0  0
   -0.9319    0.6573    0.4892 N   0  0  0  0  0  0  0  0  0  0  0  0
    0.3623    0.7556    0.8704 C   0  0  0  0  0  0  0  0  0  0  0  0
    1.5021    0.5843   -0.0959 C   0  0  2  0  0  0  0  0  0  0  0  0
    1.6417   -0.7189   -0.7785 C   0  0  0  0  0  0  0  0  0  0  0  0
    3.1433   -0.9339   -0.9878 C   0  0  0  0  0  0  0  0  0  0  0  0
    3.6462   -0.4324    0.2955 N   0  0  0  0  0  0  0  0  0  0  0  0
    2.8253    0.6614    0.6321 C   0  0  0  0  0  0  0  0  0  0  0  0
    3.1257    1.5813    1.4220 O   0  0  0  0  0  0  0  0  0  0  0  0
   -1.7904   -0.2853    0.0999 C   0  0  0  0  0  0  0  0  0  0  0  0
   -2.1963   -1.4332    1.0155 C   0  0  0  0  0  0  0  0  0  0  0  0
   -2.8022   -1.9952   -0.2191 N   0  0  0  0  0  0  0  0  0  0  0  0
   -1.5721   -1.4154   -0.8545 C   0  0  0  0  0  0  0  0  0  0  0  0
   -3.0909    2.5475   -0.3238 H   0  0  0  0  0  0  0  0  0  0  0  0
   -1.8633    3.6628    0.2932 H   0  0  0  0  0  0  0  0  0  0  0  0
   -1.3726    2.5271   -0.9944 H   0  0  0  0  0  0  0  0  0  0  0  0
    0.5951    1.8002    1.3275 H   0  0  0  0  0  0  0  0  0  0  0  0
    0.6141    0.1340    1.8260 H   0  0  0  0  0  0  0  0  0  0  0  0
    1.4961    1.4168   -0.8563 H   0  0  0  0  0  0  0  0  0  0  0  0
    1.3685   -1.5130   -0.0252 H   0  0  0  0  0  0  0  0  0  0  0  0
    1.0863   -0.8710   -1.6988 H   0  0  0  0  0  0  0  0  0  0  0  0
    3.4870   -0.3380   -1.8310 H   0  0  0  0  0  0  0  0  0  0  0  0
    3.3034   -2.0064   -1.1142 H   0  0  0  0  0  0  0  0  0  0  0  0
    4.4602   -0.8578    0.7996 H   0  0  0  0  0  0  0  0  0  0  0  0
   -2.8349    0.1584   -0.2252 H   0  0  0  0  0  0  0  0  0  0  0  0
   -2.9015   -1.1749    1.8003 H   0  0  0  0  0  0  0  0  0  0  0  0
   -1.4226   -2.1209    1.3337 H   0  0  0  0  0  0  0  0  0  0  0  0
   -3.6425   -1.4258   -0.4411 H   0  0  0  0  0  0  0  0  0  0  0  0
   -1.8338   -1.2096   -1.9149 H   0  0  0  0  0  0  0  0  0  0  0  0
   -0.7764   -2.1316   -0.6898 H   0  0  0  0  0  0  0  0  0  0  0  0
  1  2  1  0
  2  3  1  0
  3  4  1  0
  4  5  1  0
  5  6  1  0
  6  7  1  0
  7  8  1  0
  8  9  1  0
  9 10  2  0
  3 11  1  0
 11 12  1  0
 12 13  1  0
 13 14  1  0
  9  5  1  0
 14 11  1  0
  1 15  1  0
  1 16  1  0
  1 17  1  0
  4 18  1  0
  4 19  1  0
  5 20  1  6
  6 21  1  0
  6 22  1  0
  7 23  1  0
  7 24  1  0
  8 25  1  0
 11 26  1  0
 12 27  1  0
 12 28  1  0
 13 29  1  0
 14 30  1  0
 14 31  1  0
M  END
$$$$

     RDKit          3D

 31 32  0  0  0  0  0  0  0  0999 V2000
   -1.9052   -1.2155   -1.9183 C   0  0  0  0  0  0  0  0  0  0  0  0
   -0.7547   -0.7893   -1.2779 O   0  0  0  0  0  0  0  0  0  0  0  0
   -0.8672   -0.7758    0.0666 N   0  0  0  0  0  0  0  0  0  0  0  0
    0.3258   -0.2023    0.5968 C   0  0  0  0  0  0  0  0  0  0  0  0
    1.5472   -0.9808    0.2087 C   0  0  2  0  0  0  0  0  0  0  0  0
    2.7814   -0.2932    0.8312 C   0  0  0  0  0  0  0  0  0  0  0  0
    3.0657    0.7833   -0.1890 C   0  0  0  0  0  0  0  0  0  0  0  0
    2.8661    0.1093   -1.4447 N   0  0  0  0  0  0  0  0  0  0  0  0
    1.9170   -0.9236   -1.2165 C   0  0  0  0  0  0  0  0  0  0  0  0
    1.4838   -1.6603   -2.1305 O   0  0  0  0  0  0  0  0  0  0  0  0
   -2.0741   -0.1100    0.4939 C   0  0  0  0  0  0  0  0  0  0  0  0
   -2.2179    1.3159    0.0911 C   0  0  0  0  0  0  0  0  0  0  0  0
   -1.4882    1.6614    1.3239 N   0  0  0  0  0  0  0  0  0  0  0  0
   -2.0296    0.4474    1.8845 C   0  0  0  0  0  0  0  0  0  0  0  0
   -2.0818   -2.3059   -1.7937 H   0  0  0  0  0  0  0  0  0  0  0  0
   -2.7905   -0.6186   -1.6956 H   0  0  0  0  0  0  0  0  0  0  0  0
   -1.7125   -1.0804   -3.0199 H   0  0  0  0  0  0  0  0  0  0  0  0
    0.3415   -0.1347    1.7021 H   0  0  0  0  0  0  0  0  0  0  0  0
    0.4667    0.8569    0.2273 H   0  0  0  0  0  0  0  0  0  0  0  0
    1.4960   -2.0244    0.5936 H   0  0  0  0  0  0  0  0  0  0  0  0
    3.6178   -0.9990    0.8997 H   0  0  0  0  0  0  0  0  0  0  0  0
    2.4827    0.1462    1.7916 H   0  0  0  0  0  0  0  0  0  0  0  0
    2.3183    1.5981   -0.0823 H   0  0  0  0  0  0  0  0  0  0  0  0
    4.0990    1.1870   -0.0868 H   0  0  0  0  0  0  0  0  0  0  0  0
    3.3574    0.3642   -2.3573 H   0  0  0  0  0  0  0  0  0  0  0  0
   -2.9647   -0.7550    0.3759 H   0  0  0  0  0  0  0  0  0  0  0  0
   -1.7101    1.6352   -0.8277 H   0  0  0  0  0  0  0  0  0  0  0  0
   -3.2728    1.6509    0.2212 H   0  0  0  0  0  0  0  0  0  0  0  0
   -1.7859    2.5362    1.7795 H   0  0  0  0  0  0  0  0  0  0  0  0
   -3.0531    0.6579    2.3132 H   0  0  0  0  0  0  0  0  0  0  0  0
   -1.4580   -0.0813    2.6394 H   0  0  0  0  0  0  0  0  0  0  0  0
  1  2  1  0
  2  3  1  0
  3  4  1  0
  4  5  1  0
  5  6  1  0
  6  7  1  0
  7  8  1  0
  8  9  1  0
  9 10  2  0
  3 11  1  0
 11 12  1  0
 12 13  1  0
 13 14  1  0
  9  5  1  0
 14 11  1  0
  1 15  1  0
  1 16  1  0
  1 17  1  0
  4 18  1  0
  4 19  1  0
  5 20  1  1
  6 21  1  0
  6 22  1  0
  7 23  1  0
  7 24  1  0
  8 25  1  0
 11 26  1  0
 12 27  1  0
 12 28  1  0
 13 29  1  0
 14 30  1  0
 14 31  1  0
M  END
$$$$

     RDKit          3D

 31 32  0  0  0  0  0  0  0  0999 V2000
   -0.5496    0.5454   -2.5914 C   0  0  0  0  0  0  0  0  0  0  0  0
   -1.4242    0.6186   -1.5096 O   0  0  0  0  0  0  0  0  0  0  0  0
   -0.8372   -0.0530   -0.4891 N   0  0  0  0  0  0  0  0  0  0  0  0
    0.3167    0.6467    0.0228 C   0  0  0  0  0  0  0  0  0  0  0  0
    1.2269   -0.3595    0.7269 C   0  0  2  0  0  0  0  0  0  0  0  0
    2.4298    0.3725    1.2285 C   0  0  0  0  0  0  0  0  0  0  0  0
    3.3221    0.4498   -0.0011 C   0  0  0  0  0  0  0  0  0  0  0  0
    2.9492   -0.7417   -0.7776 N   0  0  0  0  0  0  0  0  0  0  0  0
    1.7824   -1.3279   -0.2360 C   0  0  0  0  0  0  0  0  0  0  0  0
    1.3355   -2.4556   -0.5450 O   0  0  0  0  0  0  0  0  0  0  0  0
   -1.7505   -0.5541    0.4686 C   0  0  0  0  0  0  0  0  0  0  0  0
   -2.5282    0.4101    1.3090 C   0  0  0  0  0  0  0  0  0  0  0  0
   -3.6522    0.2895    0.3616 N   0  0  0  0  0  0  0  0  0  0  0  0
   -3.0652   -0.9689   -0.0894 C   0  0  0  0  0  0  0  0  0  0  0  0
    0.1711   -0.2924   -2.4794 H   0  0  0  0  0  0  0  0  0  0  0  0
   -1.1772    0.3484   -3.4767 H   0  0  0  0  0  0  0  0  0  0  0  0
    0.0444    1.4755   -2.6551 H   0  0  0  0  0  0  0  0  0  0  0  0
    0.0763    1.4492    0.7159 H   0  0  0  0  0  0  0  0  0  0  0  0
    0.8801    1.0294   -0.8536 H   0  0  0  0  0  0  0  0  0  0  0  0
    0.6732   -0.8645    1.5403 H   0  0  0  0  0  0  0  0  0  0  0  0
    2.1464    1.3945    1.5031 H   0  0  0  0  0  0  0  0  0  0  0  0
    2.9583   -0.1307    2.0736 H   0  0  0  0  0  0  0  0  0  0  0  0
    3.1740    1.3784   -0.5768 H   0  0  0  0  0  0  0  0  0  0  0  0
    4.3935    0.3604    0.2810 H   0  0  0  0  0  0  0  0  0  0  0  0
    3.4761   -1.0895   -1.6085 H   0  0  0  0  0  0  0  0  0  0  0  0
   -1.2548   -1.3415    1.0793 H   0  0  0  0  0  0  0  0  0  0  0  0
   -2.8494   -0.0725    2.2535 H   0  0  0  0  0  0  0  0  0  0  0  0
   -2.1445    1.4343    1.3844 H   0  0  0  0  0  0  0  0  0  0  0  0
   -3.5677    1.0197   -0.4070 H   0  0  0  0  0  0  0  0  0  0  0  0
   -3.4706   -1.8678    0.4418 H   0  0  0  0  0  0  0  0  0  0  0  0
   -3.0847   -1.1028   -1.1921 H   0  0  0  0  0  0  0  0  0  0  0  0
  1  2  1  0
  2  3  1  0
  3  4  1  0
  4  5  1  0
  5  6  1  0
  6  7  1  0
  7  8  1  0
  8  9  1  0
  9 10  2  0
  3 11  1  0
 11 12  1  0
 12 13  1  0
 13 14  1  0
  9  5  1  0
 14 11  1  0
  1 15  1  0
  1 16  1  0
  1 17  1  0
  4 18  1  0
  4 19  1  0
  5 20  1  1
  6 21  1  0
  6 22  1  0
  7 23  1  0
  7 24  1  0
  8 25  1  0
 11 26  1  0
 12 27  1  0
 12 28  1  0
 13 29  1  0
 14 30  1  0
 14 31  1  0
M  END
$$$$
