
     RDKit          3D

 30 30  0  0  0  0  0  0  0  0999 V2000
   -3.4136   -0.6557   -0.3165 C   0  0  0  0  0  0  0  0  0  0  0  0
   -2.1685   -0.0571    0.2836 C   0  0  1  0  0  0  0  0  0  0  0  0
   -0.9178   -0.8355   -0.1343 C   0  0  0  0  0  0  0  0  0  0  0  0
    0.1582    0.1211    0.3123 C   0  0  1  0  0  0  0  0  0  0  0  0
    0.4726   -0.1800    1.6883 N   0  0  0  0  0  0  0  0  0  0  0  0
    1.3390    0.1692   -0.5757 C   0  0  0  0  0  0  0  0  0  0  0  0
    2.3278    1.1625   -0.0026 C   0  0  0  0  0  0  0  0  0  0  0  0
    2.7209    0.7682    1.2823 O   0  0  0  0  0  0  0  0  0  0  0  0
    2.0697   -1.1341   -0.7315 C   0  0  0  0  0  0  0  0  0  0  0  0
    1.2923   -2.1422   -1.2554 O   0  0  0  0  0  0  0  0  0  0  0  0
   -0.5253    1.4728    0.2796 C   0  0  0  0  0  0  0  0  0  0  0  0
   -1.8692    1.2499   -0.2213 N   0  0  0  0  0  0  0  0  0  0  0  0
   -3.2471   -1.6325   -0.7920 H   0  0  0  0  0  0  0  0  0  0  0  0
   -4.1771   -0.7885    0.4768 H   0  0  0  0  0  0  0  0  0  0  0  0
   -3.8379    0.0310   -1.0739 H   0  0  0  0  0  0  0  0  0  0  0  0
   -2.2045    0.0068    1.3908 H   0  0  0  0  0  0  0  0  0  0  0  0
   -0.8506   -1.7926    0.4214 H   0  0  0  0  0  0  0  0  0  0  0  0
   -0.9680   -0.9843   -1.2084 H   0  0  0  0  0  0  0  0  0  0  0  0
    0.2477   -1.1768    1.9057 H   0  0  0  0  0  0  0  0  0  0  0  0
   -0.0073    0.4574    2.3531 H   0  0  0  0  0  0  0  0  0  0  0  0
    1.0466    0.5415   -1.5708 H   0  0  0  0  0  0  0  0  0  0  0  0
    3.2373    1.0937   -0.6690 H   0  0  0  0  0  0  0  0  0  0  0  0
    1.9703    2.1908    0.0128 H   0  0  0  0  0  0  0  0  0  0  0  0
    2.7218    1.5576    1.8714 H   0  0  0  0  0  0  0  0  0  0  0  0
    2.8899   -0.9344   -1.4799 H   0  0  0  0  0  0  0  0  0  0  0  0
    2.5729   -1.4127    0.2141 H   0  0  0  0  0  0  0  0  0  0  0  0
    1.6319   -2.5052   -2.1077 H   0  0  0  0  0  0  0  0  0  0  0  0
   -0.6260    1.9068    1.2987 H   0  0  0  0  0  0  0  0  0  0  0  0
   -0.0205    2.1947   -0.3946 H   0  0  0  0  0  0  0  0  0  0  0  0
   -1.8654    1.3076   -1.2573 H   0  0  0  0  0  0  0  0  0  0  0  0
  1  2  1  0
  2  3  1  0
  3  4  1  0
  4  5  1  1
  4  6  1  0
  6  7  1  0
  7  8  1  0
  6  9  1  0
  9 10  1  0
  4 11  1  0
 11 12  1  0
 12  2  1  0
  1 13  1  0
  1 14  1  0
  1 15  1  0
  2 16  1  1
  3 17  1  0
  3 18  1  0
  5 19  1  0
  5 20  1  0
  6 21  1  0
  7 22  1  0
  7 23  1  0
  8 24  1  0
  9 25  1  0
  9 26  1  0
 10 27  1  0
 11 28  1  0
 11 29  1  0
 12 30  1  0
M  END
$$$$

     RDKit          3D

 30 30  0  0  0  0  0  0  0  0999 V2000
    3.1233   -0.1161    0.8831 C   0  0  0  0  0  0  0  0  0  0  0  0
    2.2346    0.0502   -0.3401 C   0  0  1  0  0  0  0  0  0  0  0  0
    1.0437   -0.8484   -0.2579 C   0  0  0  0  0  0  0  0  0  0  0  0
   -0.1345    0.1017   -0.1746 C   0  0  1  0  0  0  0  0  0  0  0  0
   -0.6786    0.3555   -1.4920 N   0  0  0  0  0  0  0  0  0  0  0  0
   -1.1585   -0.4240    0.7905 C   0  0  0  0  0  0  0  0  0  0  0  0
   -1.6302   -1.7912    0.2903 C   0  0  0  0  0  0  0  0  0  0  0  0
   -2.1799   -1.5747   -0.9779 O   0  0  0  0  0  0  0  0  0  0  0  0
   -2.3891    0.4460    0.8340 C   0  0  0  0  0  0  0  0  0  0  0  0
   -2.0365    1.7256    1.2328 O   0  0  0  0  0  0  0  0  0  0  0  0
    0.5187    1.3598    0.3582 C   0  0  0  0  0  0  0  0  0  0  0  0
    1.7564    1.4021   -0.4036 N   0  0  0  0  0  0  0  0  0  0  0  0
    3.0511   -1.1486    1.3039 H   0  0  0  0  0  0  0  0  0  0  0  0
    2.8550    0.5937    1.6707 H   0  0  0  0  0  0  0  0  0  0  0  0
    4.1925    0.0985    0.6161 H   0  0  0  0  0  0  0  0  0  0  0  0
    2.8593   -0.1788   -1.2406 H   0  0  0  0  0  0  0  0  0  0  0  0
    0.9605   -1.5736   -1.0765 H   0  0  0  0  0  0  0  0  0  0  0  0
    1.0609   -1.4076    0.7103 H   0  0  0  0  0  0  0  0  0  0  0  0
   -0.3849   -0.3774   -2.1857 H   0  0  0  0  0  0  0  0  0  0  0  0
   -0.2836    1.2522   -1.8555 H   0  0  0  0  0  0  0  0  0  0  0  0
   -0.6886   -0.5158    1.7743 H   0  0  0  0  0  0  0  0  0  0  0  0
   -2.4470   -2.1425    0.9529 H   0  0  0  0  0  0  0  0  0  0  0  0
   -0.7792   -2.4763    0.2615 H   0  0  0  0  0  0  0  0  0  0  0  0
   -3.1256   -1.3553   -0.9275 H   0  0  0  0  0  0  0  0  0  0  0  0
   -3.1832    0.0167    1.4553 H   0  0  0  0  0  0  0  0  0  0  0  0
   -2.7845    0.5224   -0.2066 H   0  0  0  0  0  0  0  0  0  0  0  0
   -2.7796    2.3666    1.0549 H   0  0  0  0  0  0  0  0  0  0  0  0
    0.6972    1.2798    1.4488 H   0  0  0  0  0  0  0  0  0  0  0  0
   -0.0788    2.2611    0.0983 H   0  0  0  0  0  0  0  0  0  0  0  0
    2.3888    2.0986    0.0360 H   0  0  0  0  0  0  0  0  0  0  0  0
  1  2  1  0
  2  3  1  0
  3  4  1  0
  4  5  1  6
  4  6  1  0
  6  7  1  0
  7  8  1  0
  6  9  1  0
  9 10  1  0
  4 11  1  0
 11 12  1  0
 12  2  1  0
  1 13  1  0
  1 14  1  0
  1 15  1  0
  2 16  1  6
  3 17  1  0
  3 18  1  0
  5 19  1  0
  5 20  1  0
  6 21  1  0
  7 22  1  0
  7 23  1  0
  8 24  1  0
  9 25  1  0
  9 26  1  0
 10 27  1  0
 11 28  1  0
 11 29  1  0
 12 30  1  0
M  END
$$$$

     RDKit          3D

 30 30  0  0  0  0  0  0  0  0999 V2000
    3.0707    0.3114    1.1832 C   0  0  0  0  0  0  0  0  0  0  0  0
    2.2423   -0.4279    0.1389 C   0  0  1  0  0  0  0  0  0  0  0  0
    0.8725   -0.7639    0.6282 C   0  0  0  0  0  0  0  0  0  0  0  0
   -0.0235   -0.0429   -0.3574 C   0  0  1  0  0  0  0  0  0  0  0  0
   -0.1215   -0.8433   -1.5473 N   0  0  0  0  0  0  0  0  0  0  0  0
   -1.3392    0.2706    0.2755 C   0  0  0  0  0  0  0  0  0  0  0  0
   -1.9779   -1.0470    0.6924 C   0  0  0  0  0  0  0  0  0  0  0  0
   -2.1286   -1.7952   -0.4768 O   0  0  0  0  0  0  0  0  0  0  0  0
   -2.2929    0.9672   -0.6348 C   0  0  0  0  0  0  0  0  0  0  0  0
   -1.8044    2.1763   -1.0908 O   0  0  0  0  0  0  0  0  0  0  0  0
    0.8182    1.1621   -0.6551 C   0  0  0  0  0  0  0  0  0  0  0  0
    2.0884    0.4913   -0.9821 N   0  0  0  0  0  0  0  0  0  0  0  0
    2.4998    1.1808    1.5976 H   0  0  0  0  0  0  0  0  0  0  0  0
    3.9403    0.7476    0.6124 H   0  0  0  0  0  0  0  0  0  0  0  0
    3.4155   -0.3569    1.9735 H   0  0  0  0  0  0  0  0  0  0  0  0
    2.8029   -1.3374   -0.1400 H   0  0  0  0  0  0  0  0  0  0  0  0
    0.6773   -0.3100    1.6212 H   0  0  0  0  0  0  0  0  0  0  0  0
    0.6284   -1.8426    0.5981 H   0  0  0  0  0  0  0  0  0  0  0  0
    0.0408   -1.8432   -1.4098 H   0  0  0  0  0  0  0  0  0  0  0  0
   -0.8846   -0.5903   -2.1787 H   0  0  0  0  0  0  0  0  0  0  0  0
   -1.1719    0.8650    1.1767 H   0  0  0  0  0  0  0  0  0  0  0  0
   -2.9603   -0.8267    1.1579 H   0  0  0  0  0  0  0  0  0  0  0  0
   -1.3588   -1.5769    1.4314 H   0  0  0  0  0  0  0  0  0  0  0  0
   -3.0356   -2.1686   -0.5426 H   0  0  0  0  0  0  0  0  0  0  0  0
   -3.2153    1.1968   -0.0279 H   0  0  0  0  0  0  0  0  0  0  0  0
   -2.5792    0.3227   -1.5036 H   0  0  0  0  0  0  0  0  0  0  0  0
   -1.5013    2.7253   -0.3351 H   0  0  0  0  0  0  0  0  0  0  0  0
    0.4607    1.7688   -1.4987 H   0  0  0  0  0  0  0  0  0  0  0  0
    0.9816    1.7153    0.2753 H   0  0  0  0  0  0  0  0  0  0  0  0
    1.8557   -0.1288   -1.8133 H   0  0  0  0  0  0  0  0  0  0  0  0
  1  2  1  0
  2  3  1  0
  3  4  1  0
  4  5  1  6
  4  6  1  0
  6  7  1  0
  7  8  1  0
  6  9  1  0
  9 10  1  0
  4 11  1  0
 11 12  1  0
 12  2  1  0
  1 13  1  0
  1 14  1  0
  1 15  1  0
  2 16  1  6
  3 17  1  0
  3 18  1  0
  5 19  1  0
  5 20  1  0
  6 21  1  0
  7 22  1  0
  7 23  1  0
  8 24  1  0
  9 25  1  0
  9 26  1  0
 10 27  1  0
 11 28  1  0
 11 29  1  0
 12 30  1  0
M  END
$$$$

     RDKit          3D

 30 30  0  0  0  0  0  0  0  0999 V2000
    2.9819    0.8228    1.0037 C   0  0  0  0  0  0  0  0  0  0  0  0
    2.0814    0.0337    0.1087 C   0  0  1  0  0  0  0  0  0  0  0  0
    0.6697   -0.1093    0.7109 C   0  0  0  0  0  0  0  0  0  0  0  0
   -0.1091   -0.2335   -0.5409 C   0  0  1  0  0  0  0  0  0  0  0  0
    0.3431   -1.4733   -1.1986 N   0  0  0  0  0  0  0  0  0  0  0  0
   -1.5621   -0.2636   -0.4957 C   0  0  0  0  0  0  0  0  0  0  0  0
   -2.2378    0.9388    0.1012 C   0  0  0  0  0  0  0  0  0  0  0  0
   -1.8803    1.1772    1.4131 O   0  0  0  0  0  0  0  0  0  0  0  0
   -2.0586   -1.5004    0.2003 C   0  0  0  0  0  0  0  0  0  0  0  0
   -1.5786   -1.5108    1.4981 O   0  0  0  0  0  0  0  0  0  0  0  0
    0.4934    0.8879   -1.3609 C   0  0  0  0  0  0  0  0  0  0  0  0
    1.9092    0.6114   -1.2019 N   0  0  0  0  0  0  0  0  0  0  0  0
    2.6334    0.8179    2.0597 H   0  0  0  0  0  0  0  0  0  0  0  0
    3.1532    1.8440    0.6415 H   0  0  0  0  0  0  0  0  0  0  0  0
    3.9829    0.3049    1.0204 H   0  0  0  0  0  0  0  0  0  0  0  0
    2.4520   -1.0310    0.0420 H   0  0  0  0  0  0  0  0  0  0  0  0
    0.5174    0.8598    1.2456 H   0  0  0  0  0  0  0  0  0  0  0  0
    0.6412   -0.9784    1.3958 H   0  0  0  0  0  0  0  0  0  0  0  0
   -0.3403   -1.6878   -1.9567 H   0  0  0  0  0  0  0  0  0  0  0  0
    1.2737   -1.3081   -1.6491 H   0  0  0  0  0  0  0  0  0  0  0  0
   -1.9401   -0.3319   -1.5430 H   0  0  0  0  0  0  0  0  0  0  0  0
   -3.3422    0.6965    0.1227 H   0  0  0  0  0  0  0  0  0  0  0  0
   -2.1633    1.8350   -0.5508 H   0  0  0  0  0  0  0  0  0  0  0  0
   -2.5547    1.8133    1.7835 H   0  0  0  0  0  0  0  0  0  0  0  0
   -1.6709   -2.4318   -0.2959 H   0  0  0  0  0  0  0  0  0  0  0  0
   -3.1658   -1.5537    0.2357 H   0  0  0  0  0  0  0  0  0  0  0  0
   -1.5479   -2.4043    1.8890 H   0  0  0  0  0  0  0  0  0  0  0  0
    0.2040    0.8540   -2.4119 H   0  0  0  0  0  0  0  0  0  0  0  0
    0.3112    1.8858   -0.8878 H   0  0  0  0  0  0  0  0  0  0  0  0
    2.5042    1.4350   -1.3785 H   0  0  0  0  0  0  0  0  0  0  0  0
  1  2  1  0
  2  3  1  0
  3  4  1  0
  4  5  1  6
  4  6  1  0
  6  7  1  0
  7  8  1  0
  6  9  1  0
  9 10  1  0
  4 11  1  0
 11 12  1  0
 12  2  1  0
  1 13  1  0
  1 14  1  0
  1 15  1  0
  2 16  1  6
  3 17  1  0
  3 18  1  0
  5 19  1  0
  5 20  1  0
  6 21  1  0
  7 22  1  0
  7 23  1  0
  8 24  1  0
  9 25  1  0
  9 26  1  0
 10 27  1  0
 11 28  1  0
 11 29  1  0
 12 30  1  0
M  END
$$$$

     RDKit          3D

 30 30  0  0  0  0  0  0  0  0999 V2000
    3.4136    0.5037   -0.7325 C   0  0  0  0  0  0  0  0  0  0  0  0
    2.1552    0.3002    0.0338 C   0  0  1  0  0  0  0  0  0  0  0  0
    0.9126    0.2960   -0.8694 C   0  0  0  0  0  0  0  0  0  0  0  0
   -0.1208   -0.1871    0.1242 C   0  0  1  0  0  0  0  0  0  0  0  0
   -0.4712    0.9212    0.9894 N   0  0  0  0  0  0  0  0  0  0  0  0
   -1.3677   -0.6935   -0.5242 C   0  0  0  0  0  0  0  0  0  0  0  0
   -2.3059   -1.1404    0.5830 C   0  0  0  0  0  0  0  0  0  0  0  0
   -2.5395    0.0113    1.3691 O   0  0  0  0  0  0  0  0  0  0  0  0
   -2.0330    0.4498   -1.2410 C   0  0  0  0  0  0  0  0  0  0  0  0
   -2.3473    1.4594   -0.3057 O   0  0  0  0  0  0  0  0  0  0  0  0
    0.6426   -1.2415    0.8808 C   0  0  0  0  0  0  0  0  0  0  0  0
    2.0438   -1.0355    0.6144 N   0  0  0  0  0  0  0  0  0  0  0  0
    3.6383    1.6092   -0.7510 H   0  0  0  0  0  0  0  0  0  0  0  0
    4.2533    0.0750   -0.1125 H   0  0  0  0  0  0  0  0  0  0  0  0
    3.3970    0.0799   -1.7357 H   0  0  0  0  0  0  0  0  0  0  0  0
    1.9595    1.0835    0.7912 H   0  0  0  0  0  0  0  0  0  0  0  0
    1.0997   -0.4419   -1.6717 H   0  0  0  0  0  0  0  0  0  0  0  0
    0.6741    1.2970   -1.2397 H   0  0  0  0  0  0  0  0  0  0  0  0
   -0.0525    1.8274    0.6250 H   0  0  0  0  0  0  0  0  0  0  0  0
   -0.0652    0.7420    1.9166 H   0  0  0  0  0  0  0  0  0  0  0  0
   -1.1842   -1.5048   -1.2555 H   0  0  0  0  0  0  0  0  0  0  0  0
   -3.2287   -1.5890    0.2199 H   0  0  0  0  0  0  0  0  0  0  0  0
   -1.7173   -1.8232    1.2439 H   0  0  0  0  0  0  0  0  0  0  0  0
   -3.5018    0.1938    1.4582 H   0  0  0  0  0  0  0  0  0  0  0  0
   -3.0288    0.0763   -1.6187 H   0  0  0  0  0  0  0  0  0  0  0  0
   -1.4578    0.8434   -2.0773 H   0  0  0  0  0  0  0  0  0  0  0  0
   -2.1341    2.3423   -0.7436 H   0  0  0  0  0  0  0  0  0  0  0  0
    0.2782   -2.2416    0.5839 H   0  0  0  0  0  0  0  0  0  0  0  0
    0.4585   -1.0855    1.9758 H   0  0  0  0  0  0  0  0  0  0  0  0
    2.6294   -1.1273    1.4692 H   0  0  0  0  0  0  0  0  0  0  0  0
  1  2  1  0
  2  3  1  0
  3  4  1  0
  4  5  1  1
  4  6  1  0
  6  7  1  0
  7  8  1  0
  6  9  1  0
  9 10  1  0
  4 11  1  0
 11 12  1  0
 12  2  1  0
  1 13  1  0
  1 14  1  0
  1 15  1  0
  2 16  1  1
  3 17  1  0
  3 18  1  0
  5 19  1  0
  5 20  1  0
  6 21  1  0
  7 22  1  0
  7 23  1  0
  8 24  1  0
  9 25  1  0
  9 26  1  0
 10 27  1  0
 11 28  1  0
 11 29  1  0
 12 30  1  0
M  END
$$$$

     RDKit          3D

 30 30  0  0  0  0  0  0  0  0999 V2000
    3.5137   -0.3921   -0.4868 C   0  0  0  0  0  0  0  0  0  0  0  0
    2.2587    0.0628    0.1809 C   0  0  1  0  0  0  0  0  0  0  0  0
    1.0817    0.1373   -0.8033 C   0  0  0  0  0  0  0  0  0  0  0  0
   -0.0356    0.3946    0.1738 C   0  0  1  0  0  0  0  0  0  0  0  0
   -0.0602    1.8480    0.3956 N   0  0  0  0  0  0  0  0  0  0  0  0
   -1.3812    0.0040   -0.3104 C   0  0  0  0  0  0  0  0  0  0  0  0
   -1.5069   -1.4622   -0.6434 C   0  0  0  0  0  0  0  0  0  0  0  0
   -2.7850   -1.7726   -1.0909 O   0  0  0  0  0  0  0  0  0  0  0  0
   -2.3774    0.3147    0.7874 C   0  0  0  0  0  0  0  0  0  0  0  0
   -3.6741   -0.0181    0.4265 O   0  0  0  0  0  0  0  0  0  0  0  0
    0.4142   -0.3399    1.3936 C   0  0  0  0  0  0  0  0  0  0  0  0
    1.7234   -0.9064    1.1193 N   0  0  0  0  0  0  0  0  0  0  0  0
    3.6604    0.1848   -1.4102 H   0  0  0  0  0  0  0  0  0  0  0  0
    4.3627   -0.1632    0.1817 H   0  0  0  0  0  0  0  0  0  0  0  0
    3.4843   -1.4833   -0.6506 H   0  0  0  0  0  0  0  0  0  0  0  0
    2.3420    1.0162    0.7125 H   0  0  0  0  0  0  0  0  0  0  0  0
    0.9912   -0.7916   -1.3639 H   0  0  0  0  0  0  0  0  0  0  0  0
    1.2805    1.0097   -1.4656 H   0  0  0  0  0  0  0  0  0  0  0  0
   -0.7660    2.2675   -0.2504 H   0  0  0  0  0  0  0  0  0  0  0  0
    0.8570    2.2837    0.1220 H   0  0  0  0  0  0  0  0  0  0  0  0
   -1.6570    0.6196   -1.1767 H   0  0  0  0  0  0  0  0  0  0  0  0
   -0.8151   -1.7281   -1.4809 H   0  0  0  0  0  0  0  0  0  0  0  0
   -1.2657   -2.1219    0.1868 H   0  0  0  0  0  0  0  0  0  0  0  0
   -3.0846   -1.0745   -1.7390 H   0  0  0  0  0  0  0  0  0  0  0  0
   -2.3798    1.4216    0.9997 H   0  0  0  0  0  0  0  0  0  0  0  0
   -2.0947   -0.1613    1.7469 H   0  0  0  0  0  0  0  0  0  0  0  0
   -4.0334    0.7415   -0.0987 H   0  0  0  0  0  0  0  0  0  0  0  0
    0.5793    0.4207    2.2027 H   0  0  0  0  0  0  0  0  0  0  0  0
   -0.2984   -1.1241    1.7285 H   0  0  0  0  0  0  0  0  0  0  0  0
    1.6662   -1.8185    0.6127 H   0  0  0  0  0  0  0  0  0  0  0  0
  1  2  1  0
  2  3  1  0
  3  4  1  0
  4  5  1  1
  4  6  1  0
  6  7  1  0
  7  8  1  0
  6  9  1  0
  9 10  1  0
  4 11  1  0
 11 12  1  0
 12  2  1  0
  1 13  1  0
  1 14  1  0
  1 15  1  0
  2 16  1  1
  3 17  1  0
  3 18  1  0
  5 19  1  0
  5 20  1  0
  6 21  1  0
  7 22  1  0
  7 23  1  0
  8 24  1  0
  9 25  1  0
  9 26  1  0
 10 27  1  0
 11 28  1  0
 11 29  1  0
 12 30  1  0
M  END
$$$$

     RDKit          3D

 30 30  0  0  0  0  0  0  0  0999 V2000
    3.4184    0.4830   -0.2478 C   0  0  0  0  0  0  0  0  0  0  0  0
    2.1734   -0.2660    0.1658 C   0  0  1  0  0  0  0  0  0  0  0  0
    0.9698    0.6850    0.2657 C   0  0  0  0  0  0  0  0  0  0  0  0
   -0.1604   -0.3236    0.2220 C   0  0  1  0  0  0  0  0  0  0  0  0
   -0.6906   -0.5697    1.5576 N   0  0  0  0  0  0  0  0  0  0  0  0
   -1.2983    0.2224   -0.6026 C   0  0  0  0  0  0  0  0  0  0  0  0
   -2.4469   -0.7675   -0.6643 C   0  0  0  0  0  0  0  0  0  0  0  0
   -2.9263   -1.0388    0.6106 O   0  0  0  0  0  0  0  0  0  0  0  0
   -1.8498    1.4681    0.0855 C   0  0  0  0  0  0  0  0  0  0  0  0
   -0.8556    2.4092    0.1894 O   0  0  0  0  0  0  0  0  0  0  0  0
    0.4232   -1.5760   -0.3789 C   0  0  0  0  0  0  0  0  0  0  0  0
    1.6842   -1.1393   -0.8968 N   0  0  0  0  0  0  0  0  0  0  0  0
    3.1458    1.5175   -0.5632 H   0  0  0  0  0  0  0  0  0  0  0  0
    4.1522    0.5795    0.5816 H   0  0  0  0  0  0  0  0  0  0  0  0
    3.9404   -0.0588   -1.0648 H   0  0  0  0  0  0  0  0  0  0  0  0
    2.3391   -0.8081    1.1060 H   0  0  0  0  0  0  0  0  0  0  0  0
    0.9982    1.2892   -0.6665 H   0  0  0  0  0  0  0  0  0  0  0  0
    1.0156    1.2624    1.1896 H   0  0  0  0  0  0  0  0  0  0  0  0
   -0.4554    0.1909    2.2217 H   0  0  0  0  0  0  0  0  0  0  0  0
   -0.4004   -1.4925    1.9292 H   0  0  0  0  0  0  0  0  0  0  0  0
   -0.9770    0.5043   -1.6145 H   0  0  0  0  0  0  0  0  0  0  0  0
   -2.1913   -1.6670   -1.2308 H   0  0  0  0  0  0  0  0  0  0  0  0
   -3.2719   -0.2703   -1.2528 H   0  0  0  0  0  0  0  0  0  0  0  0
   -3.5801   -0.3822    0.9049 H   0  0  0  0  0  0  0  0  0  0  0  0
   -2.6949    1.8106   -0.5598 H   0  0  0  0  0  0  0  0  0  0  0  0
   -2.2388    1.1445    1.0887 H   0  0  0  0  0  0  0  0  0  0  0  0
   -0.9779    3.0723   -0.5339 H   0  0  0  0  0  0  0  0  0  0  0  0
   -0.2022   -2.0467   -1.1513 H   0  0  0  0  0  0  0  0  0  0  0  0
    0.6111   -2.3404    0.4331 H   0  0  0  0  0  0  0  0  0  0  0  0
    2.3464   -1.8920   -1.1236 H   0  0  0  0  0  0  0  0  0  0  0  0
  1  2  1  0
  2  3  1  0
  3  4  1  0
  4  5  1  1
  4  6  1  0
  6  7  1  0
  7  8  1  0
  6  9  1  0
  9 10  1  0
  4 11  1  0
 11 12  1  0
 12  2  1  0
  1 13  1  0
  1 14  1  0
  1 15  1  0
  2 16  1  1
  3 17  1  0
  3 18  1  0
  5 19  1  0
  5 20  1  0
  6 21  1  0
  7 22  1  0
  7 23  1  0
  8 24  1  0
  9 25  1  0
  9 26  1  0
 10 27  1  0
 11 28  1  0
 11 29  1  0
 12 30  1  0
M  END
$$$$

     RDKit          3D

 30 30  0  0  0  0  0  0  0  0999 V2000
    2.7349   -0.8539    1.5833 C   0  0  0  0  0  0  0  0  0  0  0  0
    1.9969   -1.1111    0.2948 C   0  0  1  0  0  0  0  0  0  0  0  0
    0.4946   -1.0731    0.4599 C   0  0  0  0  0  0  0  0  0  0  0  0
   -0.0212   -0.0537   -0.5096 C   0  0  1  0  0  0  0  0  0  0  0  0
   -0.4433   -0.6375   -1.7639 N   0  0  0  0  0  0  0  0  0  0  0  0
   -1.1824    0.6807    0.0745 C   0  0  0  0  0  0  0  0  0  0  0  0
   -2.3193   -0.2613    0.4089 C   0  0  0  0  0  0  0  0  0  0  0  0
   -1.9416   -1.2290    1.3321 O   0  0  0  0  0  0  0  0  0  0  0  0
   -1.6624    1.8183   -0.7770 C   0  0  0  0  0  0  0  0  0  0  0  0
   -2.7521    2.4023   -0.0911 O   0  0  0  0  0  0  0  0  0  0  0  0
    1.1738    0.7989   -0.7712 C   0  0  0  0  0  0  0  0  0  0  0  0
    2.2960   -0.1501   -0.7226 N   0  0  0  0  0  0  0  0  0  0  0  0
    2.0850   -1.1720    2.4351 H   0  0  0  0  0  0  0  0  0  0  0  0
    3.6670   -1.4340    1.6801 H   0  0  0  0  0  0  0  0  0  0  0  0
    2.9232    0.2343    1.7376 H   0  0  0  0  0  0  0  0  0  0  0  0
    2.2502   -2.1553   -0.0110 H   0  0  0  0  0  0  0  0  0  0  0  0
    0.3226   -0.7048    1.5136 H   0  0  0  0  0  0  0  0  0  0  0  0
    0.0274   -2.0535    0.3836 H   0  0  0  0  0  0  0  0  0  0  0  0
   -0.4652   -1.6787   -1.7347 H   0  0  0  0  0  0  0  0  0  0  0  0
    0.0756   -0.2625   -2.5820 H   0  0  0  0  0  0  0  0  0  0  0  0
   -0.8815    1.1392    1.0632 H   0  0  0  0  0  0  0  0  0  0  0  0
   -3.1332    0.3280    0.8518 H   0  0  0  0  0  0  0  0  0  0  0  0
   -2.6767   -0.7981   -0.4923 H   0  0  0  0  0  0  0  0  0  0  0  0
   -2.3216   -2.1145    1.1308 H   0  0  0  0  0  0  0  0  0  0  0  0
   -1.9633    1.5020   -1.7921 H   0  0  0  0  0  0  0  0  0  0  0  0
   -0.8739    2.5995   -0.7870 H   0  0  0  0  0  0  0  0  0  0  0  0
   -3.1699    3.1193   -0.6172 H   0  0  0  0  0  0  0  0  0  0  0  0
    1.1988    1.2441   -1.7882 H   0  0  0  0  0  0  0  0  0  0  0  0
    1.3737    1.5503    0.0179 H   0  0  0  0  0  0  0  0  0  0  0  0
    3.1878    0.3266   -0.5269 H   0  0  0  0  0  0  0  0  0  0  0  0
  1  2  1  0
  2  3  1  0
  3  4  1  0
  4  5  1  6
  4  6  1  0
  6  7  1  0
  7  8  1  0
  6  9  1  0
  9 10  1  0
  4 11  1  0
 11 12  1  0
 12  2  1  0
  1 13  1  0
  1 14  1  0
  1 15  1  0
  2 16  1  6
  3 17  1  0
  3 18  1  0
  5 19  1  0
  5 20  1  0
  6 21  1  0
  7 22  1  0
  7 23  1  0
  8 24  1  0
  9 25  1  0
  9 26  1  0
 10 27  1  0
 11 28  1  0
 11 29  1  0
 12 30  1  0
M  END
$$$$
