
     RDKit          3D

 27 29  0  0  0  0  0  0  0  0999 V2000
    2.4989    1.2332   -0.5874 C   0  0  0  0  0  0  0  0  0  0  0  0
    2.4413   -0.1473   -0.3033 N   0  0  0  0  0  0  0  0  0  0  0  0
    3.4872   -0.9662   -0.5457 N   0  0  0  0  0  0  0  0  0  0  0  0
    3.1713   -2.1670   -0.2209 N   0  0  0  0  0  0  0  0  0  0  0  0
    1.9312   -2.1232    0.2235 N   0  0  0  0  0  0  0  0  0  0  0  0
    1.4445   -0.8759    0.1877 C   0  0  0  0  0  0  0  0  0  0  0  0
    0.1464   -0.3948    0.6525 C   0  0  2  0  0  0  0  0  0  0  0  0
    0.1774    0.3316    1.8807 O   0  0  0  0  0  0  0  0  0  0  0  0
   -0.7316   -1.6588    0.9790 C   0  0  0  0  0  0  0  0  0  0  0  0
   -1.2027   -1.4907   -0.3887 N   0  0  0  0  0  0  0  0  0  0  0  0
   -0.9993   -0.0925   -0.1252 C   0  0  0  0  0  0  0  0  0  0  0  0
   -2.1675    0.3887    0.7635 C   0  0  0  0  0  0  0  0  0  0  0  0
   -2.4238    1.4782   -0.2034 C   0  0  0  0  0  0  0  0  0  0  0  0
   -1.2802    0.9143   -1.0656 C   0  0  0  0  0  0  0  0  0  0  0  0
    1.5523    1.7262   -0.7984 H   0  0  0  0  0  0  0  0  0  0  0  0
    3.0753    1.3363   -1.5685 H   0  0  0  0  0  0  0  0  0  0  0  0
    3.0756    1.8724    0.1252 H   0  0  0  0  0  0  0  0  0  0  0  0
    0.6965   -0.2174    2.5617 H   0  0  0  0  0  0  0  0  0  0  0  0
   -1.5106   -1.4797    1.7124 H   0  0  0  0  0  0  0  0  0  0  0  0
   -0.1516   -2.5933    1.0559 H   0  0  0  0  0  0  0  0  0  0  0  0
   -0.4818   -1.8190   -1.0808 H   0  0  0  0  0  0  0  0  0  0  0  0
   -2.9657   -0.3405    0.8914 H   0  0  0  0  0  0  0  0  0  0  0  0
   -1.7766    0.7653    1.7420 H   0  0  0  0  0  0  0  0  0  0  0  0
   -2.2336    2.4937    0.2132 H   0  0  0  0  0  0  0  0  0  0  0  0
   -3.4175    1.4669   -0.6922 H   0  0  0  0  0  0  0  0  0  0  0  0
   -0.6188    1.7687   -1.3022 H   0  0  0  0  0  0  0  0  0  0  0  0
   -1.7365    0.5911   -2.0493 H   0  0  0  0  0  0  0  0  0  0  0  0
  1  2  1  0
  2  3  1  0
  3  4  2  0
  4  5  1  0
  5  6  2  0
  6  7  1  0
  7  8  1  1
  7  9  1  0
  9 10  1  0
 10 11  1  0
 11 12  1  0
 12 13  1  0
 13 14  1  0
  6  2  1  0
 11  7  1  0
 14 11  1  0
  1 15  1  0
  1 16  1  0
  1 17  1  0
  8 18  1  0
  9 19  1  0
  9 20  1  0
 10 21  1  0
 12 22  1  0
 12 23  1  0
 13 24  1  0
 13 25  1  0
 14 26  1  0
 14 27  1  0
M  END
$$$$

     RDKit          3D

 27 29  0  0  0  0  0  0  0  0999 V2000
    2.5523    1.4416   -0.6578 C   0  0  0  0  0  0  0  0  0  0  0  0
    2.3223    0.0401   -0.8262 N   0  0  0  0  0  0  0  0  0  0  0  0
    3.0789   -0.7526   -1.6027 N   0  0  0  0  0  0  0  0  0  0  0  0
    2.6543   -1.9700   -1.5284 N   0  0  0  0  0  0  0  0  0  0  0  0
    1.5822   -1.9797   -0.6747 N   0  0  0  0  0  0  0  0  0  0  0  0
    1.3758   -0.7190   -0.2325 C   0  0  0  0  0  0  0  0  0  0  0  0
    0.2829   -0.2902    0.6701 C   0  0  2  0  0  0  0  0  0  0  0  0
    0.5276    0.8480    1.4556 O   0  0  0  0  0  0  0  0  0  0  0  0
   -0.2711   -1.4871    1.4718 C   0  0  0  0  0  0  0  0  0  0  0  0
   -1.1135   -1.7642    0.3399 N   0  0  0  0  0  0  0  0  0  0  0  0
   -1.0789   -0.3775    0.1014 C   0  0  0  0  0  0  0  0  0  0  0  0
   -2.1471    0.4401    0.8341 C   0  0  0  0  0  0  0  0  0  0  0  0
   -2.2854    1.2794   -0.4235 C   0  0  0  0  0  0  0  0  0  0  0  0
   -1.4818    0.1962   -1.1720 C   0  0  0  0  0  0  0  0  0  0  0  0
    1.7986    2.0706   -1.1464 H   0  0  0  0  0  0  0  0  0  0  0  0
    3.5540    1.7373   -1.0323 H   0  0  0  0  0  0  0  0  0  0  0  0
    2.5702    1.6826    0.4409 H   0  0  0  0  0  0  0  0  0  0  0  0
    1.2084    0.4951    2.1171 H   0  0  0  0  0  0  0  0  0  0  0  0
    0.5160   -2.2475    1.6656 H   0  0  0  0  0  0  0  0  0  0  0  0
   -0.8426   -1.0951    2.3231 H   0  0  0  0  0  0  0  0  0  0  0  0
   -2.0161   -2.2308    0.5935 H   0  0  0  0  0  0  0  0  0  0  0  0
   -1.7009    0.9404    1.6960 H   0  0  0  0  0  0  0  0  0  0  0  0
   -3.0704   -0.1686    1.0601 H   0  0  0  0  0  0  0  0  0  0  0  0
   -1.7179    2.2106   -0.3028 H   0  0  0  0  0  0  0  0  0  0  0  0
   -3.3359    1.3817   -0.7155 H   0  0  0  0  0  0  0  0  0  0  0  0
   -2.2242   -0.3481   -1.8279 H   0  0  0  0  0  0  0  0  0  0  0  0
   -0.7378    0.6667   -1.8535 H   0  0  0  0  0  0  0  0  0  0  0  0
  1  2  1  0
  2  3  1  0
  3  4  2  0
  4  5  1  0
  5  6  2  0
  6  7  1  0
  7  8  1  1
  7  9  1  0
  9 10  1  0
 10 11  1  0
 11 12  1  0
 12 13  1  0
 13 14  1  0
  6  2  1  0
 11  7  1  0
 14 11  1  0
  1 15  1  0
  1 16  1  0
  1 17  1  0
  8 18  1  0
  9 19  1  0
  9 20  1  0
 10 21  1  0
 12 22  1  0
 12 23  1  0
 13 24  1  0
 13 25  1  0
 14 26  1  0
 14 27  1  0
M  END
$$$$

     RDKit          3D

 27 29  0  0  0  0  0  0  0  0999 V2000
   -2.8263    0.0247    1.0667 C   0  0  0  0  0  0  0  0  0  0  0  0
   -2.2037   -0.9201    0.1260 N   0  0  0  0  0  0  0  0  0  0  0  0
   -2.6468   -2.1225   -0.1695 N   0  0  0  0  0  0  0  0  0  0  0  0
   -1.8321   -2.6601   -1.0410 N   0  0  0  0  0  0  0  0  0  0  0  0
   -0.8416   -1.8003   -1.3178 N   0  0  0  0  0  0  0  0  0  0  0  0
   -1.0615   -0.7010   -0.5908 C   0  0  0  0  0  0  0  0  0  0  0  0
   -0.2848    0.5481   -0.5150 C   0  0  2  0  0  0  0  0  0  0  0  0
   -0.9322    1.6514   -0.0178 O   0  0  0  0  0  0  0  0  0  0  0  0
    0.3932    0.9624   -1.8353 C   0  0  0  0  0  0  0  0  0  0  0  0
    1.5151    1.4032   -0.9849 N   0  0  0  0  0  0  0  0  0  0  0  0
    1.1210    0.3742   -0.0941 C   0  0  0  0  0  0  0  0  0  0  0  0
    1.7866   -0.9380   -0.1865 C   0  0  0  0  0  0  0  0  0  0  0  0
    2.5466   -0.5788    1.0905 C   0  0  0  0  0  0  0  0  0  0  0  0
    1.4742    0.4803    1.3398 C   0  0  0  0  0  0  0  0  0  0  0  0
   -2.1232    0.6348    1.6223 H   0  0  0  0  0  0  0  0  0  0  0  0
   -3.5784    0.6764    0.5728 H   0  0  0  0  0  0  0  0  0  0  0  0
   -3.3706   -0.5857    1.8396 H   0  0  0  0  0  0  0  0  0  0  0  0
   -1.3678    2.1596   -0.7454 H   0  0  0  0  0  0  0  0  0  0  0  0
    0.7505    0.1028   -2.4415 H   0  0  0  0  0  0  0  0  0  0  0  0
   -0.1223    1.7585   -2.3732 H   0  0  0  0  0  0  0  0  0  0  0  0
    1.3768    2.3635   -0.6339 H   0  0  0  0  0  0  0  0  0  0  0  0
    2.4353   -0.9811   -1.0878 H   0  0  0  0  0  0  0  0  0  0  0  0
    1.1364   -1.8177   -0.0905 H   0  0  0  0  0  0  0  0  0  0  0  0
    3.5276   -0.1313    0.9178 H   0  0  0  0  0  0  0  0  0  0  0  0
    2.5091   -1.4332    1.7781 H   0  0  0  0  0  0  0  0  0  0  0  0
    1.8712    1.4595    1.6976 H   0  0  0  0  0  0  0  0  0  0  0  0
    0.7475    0.0705    2.0736 H   0  0  0  0  0  0  0  0  0  0  0  0
  1  2  1  0
  2  3  1  0
  3  4  2  0
  4  5  1  0
  5  6  2  0
  6  7  1  0
  7  8  1  1
  7  9  1  0
  9 10  1  0
 10 11  1  0
 11 12  1  0
 12 13  1  0
 13 14  1  0
  6  2  1  0
 11  7  1  0
 14 11  1  0
  1 15  1  0
  1 16  1  0
  1 17  1  0
  8 18  1  0
  9 19  1  0
  9 20  1  0
 10 21  1  0
 12 22  1  0
 12 23  1  0
 13 24  1  0
 13 25  1  0
 14 26  1  0
 14 27  1  0
M  END
$$$$

     RDKit          3D

 27 29  0  0  0  0  0  0  0  0999 V2000
    2.9045   -1.0555    0.0724 C   0  0  0  0  0  0  0  0  0  0  0  0
    2.3085    0.0408    0.7527 N   0  0  0  0  0  0  0  0  0  0  0  0
    2.8526    0.6820    1.7653 N   0  0  0  0  0  0  0  0  0  0  0  0
    2.0429    1.6285    2.1853 N   0  0  0  0  0  0  0  0  0  0  0  0
    0.9670    1.5932    1.4379 N   0  0  0  0  0  0  0  0  0  0  0  0
    1.1140    0.6028    0.5220 C   0  0  0  0  0  0  0  0  0  0  0  0
    0.1533    0.2907   -0.5140 C   0  0  2  0  0  0  0  0  0  0  0  0
    0.4072   -0.7333   -1.4076 O   0  0  0  0  0  0  0  0  0  0  0  0
   -0.2326    1.5469   -1.3029 C   0  0  0  0  0  0  0  0  0  0  0  0
   -1.3876    1.6998   -0.4056 N   0  0  0  0  0  0  0  0  0  0  0  0
   -1.2944    0.3122   -0.1473 C   0  0  0  0  0  0  0  0  0  0  0  0
   -1.6833   -0.2502    1.1731 C   0  0  0  0  0  0  0  0  0  0  0  0
   -1.9829   -1.5476    0.4156 C   0  0  0  0  0  0  0  0  0  0  0  0
   -2.1944   -0.6539   -0.8150 C   0  0  0  0  0  0  0  0  0  0  0  0
    4.0193   -0.7906    0.0299 H   0  0  0  0  0  0  0  0  0  0  0  0
    2.8760   -1.9228    0.7875 H   0  0  0  0  0  0  0  0  0  0  0  0
    2.6432   -1.2216   -0.9528 H   0  0  0  0  0  0  0  0  0  0  0  0
    0.3269   -0.4881   -2.3329 H   0  0  0  0  0  0  0  0  0  0  0  0
    0.4787    2.3589   -1.2371 H   0  0  0  0  0  0  0  0  0  0  0  0
   -0.6176    1.3448   -2.3331 H   0  0  0  0  0  0  0  0  0  0  0  0
   -1.0979    2.2712    0.4140 H   0  0  0  0  0  0  0  0  0  0  0  0
   -0.9261   -0.3307    1.9486 H   0  0  0  0  0  0  0  0  0  0  0  0
   -2.6675    0.1703    1.4774 H   0  0  0  0  0  0  0  0  0  0  0  0
   -1.0393   -2.1124    0.3222 H   0  0  0  0  0  0  0  0  0  0  0  0
   -2.8611   -2.0797    0.7504 H   0  0  0  0  0  0  0  0  0  0  0  0
   -3.2584   -0.2781   -0.8384 H   0  0  0  0  0  0  0  0  0  0  0  0
   -1.8512   -1.0778   -1.7675 H   0  0  0  0  0  0  0  0  0  0  0  0
  1  2  1  0
  2  3  1  0
  3  4  2  0
  4  5  1  0
  5  6  2  0
  6  7  1  0
  7  8  1  6
  7  9  1  0
  9 10  1  0
 10 11  1  0
 11 12  1  0
 12 13  1  0
 13 14  1  0
  6  2  1  0
 11  7  1  0
 14 11  1  0
  1 15  1  0
  1 16  1  0
  1 17  1  0
  8 18  1  0
  9 19  1  0
  9 20  1  0
 10 21  1  0
 12 22  1  0
 12 23  1  0
 13 24  1  0
 13 25  1  0
 14 26  1  0
 14 27  1  0
M  END
$$$$

     RDKit          3D

 27 29  0  0  0  0  0  0  0  0999 V2000
   -2.4786    1.3755   -0.4382 C   0  0  0  0  0  0  0  0  0  0  0  0
   -2.3064    0.2326    0.4377 N   0  0  0  0  0  0  0  0  0  0  0  0
   -3.1503   -0.0247    1.4156 N   0  0  0  0  0  0  0  0  0  0  0  0
   -2.6905   -1.1336    2.0211 N   0  0  0  0  0  0  0  0  0  0  0  0
   -1.5916   -1.5286    1.4125 N   0  0  0  0  0  0  0  0  0  0  0  0
   -1.3397   -0.6777    0.4142 C   0  0  0  0  0  0  0  0  0  0  0  0
   -0.2244   -0.7397   -0.5269 C   0  0  2  0  0  0  0  0  0  0  0  0
   -0.5902   -0.6104   -1.8862 O   0  0  0  0  0  0  0  0  0  0  0  0
    0.5981   -2.0439   -0.4232 C   0  0  0  0  0  0  0  0  0  0  0  0
    1.7125   -1.2295   -0.8981 N   0  0  0  0  0  0  0  0  0  0  0  0
    1.0707   -0.1382   -0.2174 C   0  0  0  0  0  0  0  0  0  0  0  0
    1.5331    0.1389    1.1427 C   0  0  0  0  0  0  0  0  0  0  0  0
    2.1428    1.4445    0.6211 C   0  0  0  0  0  0  0  0  0  0  0  0
    1.3808    1.2378   -0.6784 C   0  0  0  0  0  0  0  0  0  0  0  0
   -3.5387    1.6940   -0.5042 H   0  0  0  0  0  0  0  0  0  0  0  0
   -1.8630    2.2364   -0.0552 H   0  0  0  0  0  0  0  0  0  0  0  0
   -2.1295    1.1902   -1.4616 H   0  0  0  0  0  0  0  0  0  0  0  0
   -0.9181   -1.4901   -2.2392 H   0  0  0  0  0  0  0  0  0  0  0  0
    0.6926   -2.3282    0.6358 H   0  0  0  0  0  0  0  0  0  0  0  0
    0.2637   -2.8351   -1.1024 H   0  0  0  0  0  0  0  0  0  0  0  0
    2.6266   -1.4879   -0.4682 H   0  0  0  0  0  0  0  0  0  0  0  0
    2.3854   -0.5310    1.4112 H   0  0  0  0  0  0  0  0  0  0  0  0
    0.8145    0.2590    1.9677 H   0  0  0  0  0  0  0  0  0  0  0  0
    3.2280    1.4487    0.4982 H   0  0  0  0  0  0  0  0  0  0  0  0
    1.7745    2.2799    1.2431 H   0  0  0  0  0  0  0  0  0  0  0  0
    0.5596    1.9761   -0.7489 H   0  0  0  0  0  0  0  0  0  0  0  0
    2.0384    1.2850   -1.5731 H   0  0  0  0  0  0  0  0  0  0  0  0
  1  2  1  0
  2  3  1  0
  3  4  2  0
  4  5  1  0
  5  6  2  0
  6  7  1  0
  7  8  1  6
  7  9  1  0
  9 10  1  0
 10 11  1  0
 11 12  1  0
 12 13  1  0
 13 14  1  0
  6  2  1  0
 11  7  1  0
 14 11  1  0
  1 15  1  0
  1 16  1  0
  1 17  1  0
  8 18  1  0
  9 19  1  0
  9 20  1  0
 10 21  1  0
 12 22  1  0
 12 23  1  0
 13 24  1  0
 13 25  1  0
 14 26  1  0
 14 27  1  0
M  END
$$$$

     RDKit          3D

 27 29  0  0  0  0  0  0  0  0999 V2000
    3.2924   -0.2909   -0.5543 C   0  0  0  0  0  0  0  0  0  0  0  0
    2.3735    0.7643   -0.1695 N   0  0  0  0  0  0  0  0  0  0  0  0
    2.8184    2.0586   -0.0978 N   0  0  0  0  0  0  0  0  0  0  0  0
    1.7453    2.7750    0.3140 N   0  0  0  0  0  0  0  0  0  0  0  0
    0.7062    1.9981    0.4946 N   0  0  0  0  0  0  0  0  0  0  0  0
    1.1291    0.7542    0.1887 C   0  0  0  0  0  0  0  0  0  0  0  0
    0.2378   -0.4296    0.2906 C   0  0  2  0  0  0  0  0  0  0  0  0
    0.3964   -1.0499    1.4983 O   0  0  0  0  0  0  0  0  0  0  0  0
    0.2359   -1.3602   -0.9226 C   0  0  0  0  0  0  0  0  0  0  0  0
   -1.1875   -1.2377   -1.0947 N   0  0  0  0  0  0  0  0  0  0  0  0
   -1.1825   -0.2268   -0.0820 C   0  0  0  0  0  0  0  0  0  0  0  0
   -2.2024   -0.3721    1.0008 C   0  0  0  0  0  0  0  0  0  0  0  0
   -2.9870    0.7236    0.3467 C   0  0  0  0  0  0  0  0  0  0  0  0
   -1.7706    1.0247   -0.5247 C   0  0  0  0  0  0  0  0  0  0  0  0
    2.8021   -1.2227   -0.8065 H   0  0  0  0  0  0  0  0  0  0  0  0
    3.9970   -0.5341    0.3003 H   0  0  0  0  0  0  0  0  0  0  0  0
    3.9417    0.0943   -1.3573 H   0  0  0  0  0  0  0  0  0  0  0  0
    1.2816   -1.5115    1.5680 H   0  0  0  0  0  0  0  0  0  0  0  0
    0.7203   -1.0183   -1.8355 H   0  0  0  0  0  0  0  0  0  0  0  0
    0.4910   -2.4015   -0.5593 H   0  0  0  0  0  0  0  0  0  0  0  0
   -1.7359   -2.0570   -0.8768 H   0  0  0  0  0  0  0  0  0  0  0  0
   -2.7167   -1.3405    0.9459 H   0  0  0  0  0  0  0  0  0  0  0  0
   -1.8427   -0.1124    2.0406 H   0  0  0  0  0  0  0  0  0  0  0  0
   -3.8310    0.3643   -0.3126 H   0  0  0  0  0  0  0  0  0  0  0  0
   -3.2763    1.5632    1.0285 H   0  0  0  0  0  0  0  0  0  0  0  0
   -2.0399    1.0368   -1.6381 H   0  0  0  0  0  0  0  0  0  0  0  0
   -1.3962    2.0080   -0.2652 H   0  0  0  0  0  0  0  0  0  0  0  0
  1  2  1  0
  2  3  1  0
  3  4  2  0
  4  5  1  0
  5  6  2  0
  6  7  1  0
  7  8  1  1
  7  9  1  0
  9 10  1  0
 10 11  1  0
 11 12  1  0
 12 13  1  0
 13 14  1  0
  6  2  1  0
 11  7  1  0
 14 11  1  0
  1 15  1  0
  1 16  1  0
  1 17  1  0
  8 18  1  0
  9 19  1  0
  9 20  1  0
 10 21  1  0
 12 22  1  0
 12 23  1  0
 13 24  1  0
 13 25  1  0
 14 26  1  0
 14 27  1  0
M  END
$$$$

     RDKit          3D

 27 29  0  0  0  0  0  0  0  0999 V2000
    3.0874   -0.4550    1.2100 C   0  0  0  0  0  0  0  0  0  0  0  0
    2.5631    0.4781    0.2408 N   0  0  0  0  0  0  0  0  0  0  0  0
    3.1818    1.5019   -0.2841 N   0  0  0  0  0  0  0  0  0  0  0  0
    2.4072    2.1159   -1.1047 N   0  0  0  0  0  0  0  0  0  0  0  0
    1.2417    1.4553   -1.1146 N   0  0  0  0  0  0  0  0  0  0  0  0
    1.3153    0.4228   -0.2742 C   0  0  0  0  0  0  0  0  0  0  0  0
    0.2082   -0.5240   -0.0199 C   0  0  2  0  0  0  0  0  0  0  0  0
    0.2642   -1.2373    1.1436 O   0  0  0  0  0  0  0  0  0  0  0  0
   -0.0069   -1.3646   -1.2902 C   0  0  0  0  0  0  0  0  0  0  0  0
   -0.7141   -0.1916   -1.8097 N   0  0  0  0  0  0  0  0  0  0  0  0
   -1.1120    0.0295   -0.4578 C   0  0  0  0  0  0  0  0  0  0  0  0
   -1.5177    1.3660   -0.0319 C   0  0  0  0  0  0  0  0  0  0  0  0
   -2.6057    0.7145    0.8120 C   0  0  0  0  0  0  0  0  0  0  0  0
   -2.3582   -0.5726    0.0416 C   0  0  0  0  0  0  0  0  0  0  0  0
    3.0581   -1.4767    0.8305 H   0  0  0  0  0  0  0  0  0  0  0  0
    2.5019   -0.2958    2.1529 H   0  0  0  0  0  0  0  0  0  0  0  0
    4.1511   -0.1862    1.4363 H   0  0  0  0  0  0  0  0  0  0  0  0
   -0.3696   -1.0052    1.8401 H   0  0  0  0  0  0  0  0  0  0  0  0
    0.9051   -1.6550   -1.7950 H   0  0  0  0  0  0  0  0  0  0  0  0
   -0.7761   -2.1414   -1.0797 H   0  0  0  0  0  0  0  0  0  0  0  0
   -1.4361   -0.4527   -2.4992 H   0  0  0  0  0  0  0  0  0  0  0  0
   -1.9156    1.9979   -0.8686 H   0  0  0  0  0  0  0  0  0  0  0  0
   -0.7053    1.8622    0.5591 H   0  0  0  0  0  0  0  0  0  0  0  0
   -3.5880    1.1704    0.6117 H   0  0  0  0  0  0  0  0  0  0  0  0
   -2.3391    0.6522    1.8885 H   0  0  0  0  0  0  0  0  0  0  0  0
   -2.3200   -1.4970    0.6454 H   0  0  0  0  0  0  0  0  0  0  0  0
   -3.1205   -0.7115   -0.7830 H   0  0  0  0  0  0  0  0  0  0  0  0
  1  2  1  0
  2  3  1  0
  3  4  2  0
  4  5  1  0
  5  6  2  0
  6  7  1  0
  7  8  1  1
  7  9  1  0
  9 10  1  0
 10 11  1  0
 11 12  1  0
 12 13  1  0
 13 14  1  0
  6  2  1  0
 11  7  1  0
 14 11  1  0
  1 15  1  0
  1 16  1  0
  1 17  1  0
  8 18  1  0
  9 19  1  0
  9 20  1  0
 10 21  1  0
 12 22  1  0
 12 23  1  0
 13 24  1  0
 13 25  1  0
 14 26  1  0
 14 27  1  0
M  END
$$$$

     RDKit          3D

 27 29  0  0  0  0  0  0  0  0999 V2000
    2.4040    0.9044    0.7241 C   0  0  0  0  0  0  0  0  0  0  0  0
    2.2016   -0.5269    0.7104 N   0  0  0  0  0  0  0  0  0  0  0  0
    2.9118   -1.4357    1.3056 N   0  0  0  0  0  0  0  0  0  0  0  0
    2.4979   -2.6162    1.0883 N   0  0  0  0  0  0  0  0  0  0  0  0
    1.4152   -2.4617    0.2791 N   0  0  0  0  0  0  0  0  0  0  0  0
    1.2048   -1.1721    0.0316 C   0  0  0  0  0  0  0  0  0  0  0  0
    0.1241   -0.6475   -0.7690 C   0  0  2  0  0  0  0  0  0  0  0  0
   -0.6502   -1.6951   -1.3434 O   0  0  0  0  0  0  0  0  0  0  0  0
    0.4135    0.3744   -1.8074 C   0  0  0  0  0  0  0  0  0  0  0  0
   -0.1114    1.4016   -0.8843 N   0  0  0  0  0  0  0  0  0  0  0  0
   -0.7856    0.3543   -0.2150 C   0  0  0  0  0  0  0  0  0  0  0  0
   -2.2343    0.2954   -0.5858 C   0  0  0  0  0  0  0  0  0  0  0  0
   -2.5596    0.3206    0.9103 C   0  0  0  0  0  0  0  0  0  0  0  0
   -1.0783    0.4009    1.2153 C   0  0  0  0  0  0  0  0  0  0  0  0
    1.6003    1.4267    1.3178 H   0  0  0  0  0  0  0  0  0  0  0  0
    3.3187    1.0942    1.3220 H   0  0  0  0  0  0  0  0  0  0  0  0
    2.6024    1.3879   -0.2333 H   0  0  0  0  0  0  0  0  0  0  0  0
   -0.9897   -2.2974   -0.6255 H   0  0  0  0  0  0  0  0  0  0  0  0
   -0.2762    0.3234   -2.6995 H   0  0  0  0  0  0  0  0  0  0  0  0
    1.4334    0.5123   -2.1573 H   0  0  0  0  0  0  0  0  0  0  0  0
   -0.6737    2.1081   -1.3778 H   0  0  0  0  0  0  0  0  0  0  0  0
   -2.4597   -0.6401   -1.0958 H   0  0  0  0  0  0  0  0  0  0  0  0
   -2.5956    1.2001   -1.0976 H   0  0  0  0  0  0  0  0  0  0  0  0
   -3.0235   -0.6392    1.2097 H   0  0  0  0  0  0  0  0  0  0  0  0
   -3.1129    1.2387    1.1911 H   0  0  0  0  0  0  0  0  0  0  0  0
   -0.7436   -0.5123    1.7831 H   0  0  0  0  0  0  0  0  0  0  0  0
   -0.8333    1.3011    1.8033 H   0  0  0  0  0  0  0  0  0  0  0  0
  1  2  1  0
  2  3  1  0
  3  4  2  0
  4  5  1  0
  5  6  2  0
  6  7  1  0
  7  8  1  6
  7  9  1  0
  9 10  1  0
 10 11  1  0
 11 12  1  0
 12 13  1  0
 13 14  1  0
  6  2  1  0
 11  7  1  0
 14 11  1  0
  1 15  1  0
  1 16  1  0
  1 17  1  0
  8 18  1  0
  9 19  1  0
  9 20  1  0
 10 21  1  0
 12 22  1  0
 12 23  1  0
 13 24  1  0
 13 25  1  0
 14 26  1  0
 14 27  1  0
M  END
$$$$
