
     RDKit          3D

 27 28  0  0  0  0  0  0  0  0999 V2000
    2.4756    0.1276    1.3484 C   0  0  0  0  0  0  0  0  0  0  0  0
    2.1968    0.0160   -0.0226 N   0  0  0  0  0  0  0  0  0  0  0  0
    3.1548   -0.1073   -0.9589 N   0  0  0  0  0  0  0  0  0  0  0  0
    2.5483   -0.2373   -2.1044 N   0  0  0  0  0  0  0  0  0  0  0  0
    1.2775   -0.2005   -1.9370 N   0  0  0  0  0  0  0  0  0  0  0  0
    1.0187   -0.0343   -0.5899 C   0  0  0  0  0  0  0  0  0  0  0  0
   -0.3619    0.0467   -0.2256 C   0  0  2  0  0  0  0  0  0  0  0  0
   -1.0462    1.1100   -1.0577 C   0  0  0  0  0  0  0  0  0  0  0  0
   -0.5186    2.4411   -0.8602 N   0  0  0  0  0  0  0  0  0  0  0  0
   -0.7708    0.2583    1.1563 C   0  0  0  0  0  0  0  0  0  0  0  0
   -0.6064   -0.9783    1.7648 O   0  0  0  0  0  0  0  0  0  0  0  0
   -1.3436   -1.7712    0.8931 C   0  0  0  0  0  0  0  0  0  0  0  0
   -1.0388   -1.2686   -0.5274 C   0  0  1  0  0  0  0  0  0  0  0  0
   -2.2278   -1.1084   -1.2231 O   0  0  0  0  0  0  0  0  0  0  0  0
    2.8767   -0.8510    1.7178 H   0  0  0  0  0  0  0  0  0  0  0  0
    1.7380    0.4565    2.0397 H   0  0  0  0  0  0  0  0  0  0  0  0
    3.3428    0.8436    1.4727 H   0  0  0  0  0  0  0  0  0  0  0  0
   -2.1342    1.1719   -0.8887 H   0  0  0  0  0  0  0  0  0  0  0  0
   -0.8507    0.8984   -2.1527 H   0  0  0  0  0  0  0  0  0  0  0  0
   -0.8540    2.9395   -0.0455 H   0  0  0  0  0  0  0  0  0  0  0  0
    0.4592    2.5674   -1.1267 H   0  0  0  0  0  0  0  0  0  0  0  0
   -1.9111    0.3568    1.1304 H   0  0  0  0  0  0  0  0  0  0  0  0
   -0.4539    1.1217    1.7014 H   0  0  0  0  0  0  0  0  0  0  0  0
   -1.1389   -2.8244    1.0043 H   0  0  0  0  0  0  0  0  0  0  0  0
   -2.4598   -1.6279    1.0955 H   0  0  0  0  0  0  0  0  0  0  0  0
   -0.3681   -2.0194   -0.9661 H   0  0  0  0  0  0  0  0  0  0  0  0
   -3.0038   -1.3270   -0.6379 H   0  0  0  0  0  0  0  0  0  0  0  0
  1  2  1  0
  2  3  1  0
  3  4  2  0
  4  5  1  0
  5  6  2  0
  6  7  1  0
  7  8  1  6
  8  9  1  0
  7 10  1  0
 10 11  1  0
 11 12  1  0
 12 13  1  0
 13 14  1  0
  6  2  1  0
 13  7  1  0
  1 15  1  0
  1 16  1  0
  1 17  1  0
  8 18  1  0
  8 19  1  0
  9 20  1  0
  9 21  1  0
 10 22  1  0
 10 23  1  0
 12 24  1  0
 12 25  1  0
 13 26  1  6
 14 27  1  0
M  END
$$$$

     RDKit          3D

 27 28  0  0  0  0  0  0  0  0999 V2000
    2.8247    0.1837    0.7334 C   0  0  0  0  0  0  0  0  0  0  0  0
    2.2230   -0.1465   -0.5162 N   0  0  0  0  0  0  0  0  0  0  0  0
    2.8554   -0.3899   -1.6648 N   0  0  0  0  0  0  0  0  0  0  0  0
    2.0033   -0.6705   -2.6336 N   0  0  0  0  0  0  0  0  0  0  0  0
    0.7923   -0.6179   -2.1320 N   0  0  0  0  0  0  0  0  0  0  0  0
    0.9118   -0.2940   -0.8071 C   0  0  0  0  0  0  0  0  0  0  0  0
   -0.2430   -0.1478    0.0935 C   0  0  2  0  0  0  0  0  0  0  0  0
   -0.4498    1.2682    0.5903 C   0  0  0  0  0  0  0  0  0  0  0  0
   -0.6577    2.2124   -0.4765 N   0  0  0  0  0  0  0  0  0  0  0  0
   -0.2160   -1.1115    1.2462 C   0  0  0  0  0  0  0  0  0  0  0  0
   -1.3263   -1.9143    1.1836 O   0  0  0  0  0  0  0  0  0  0  0  0
   -2.2892   -1.3022    0.4099 C   0  0  0  0  0  0  0  0  0  0  0  0
   -1.5055   -0.5717   -0.6330 C   0  0  1  0  0  0  0  0  0  0  0  0
   -2.2087    0.4558   -1.1837 O   0  0  0  0  0  0  0  0  0  0  0  0
    2.6181   -0.5407    1.5377 H   0  0  0  0  0  0  0  0  0  0  0  0
    3.9532    0.0866    0.5943 H   0  0  0  0  0  0  0  0  0  0  0  0
    2.6901    1.1846    1.1062 H   0  0  0  0  0  0  0  0  0  0  0  0
    0.4118    1.5865    1.1922 H   0  0  0  0  0  0  0  0  0  0  0  0
   -1.4040    1.2647    1.2029 H   0  0  0  0  0  0  0  0  0  0  0  0
   -1.6051    2.6812   -0.4083 H   0  0  0  0  0  0  0  0  0  0  0  0
    0.0130    3.0397   -0.3898 H   0  0  0  0  0  0  0  0  0  0  0  0
   -0.2348   -0.5299    2.1789 H   0  0  0  0  0  0  0  0  0  0  0  0
    0.6619   -1.8158    1.1814 H   0  0  0  0  0  0  0  0  0  0  0  0
   -2.8810   -0.5958    1.0121 H   0  0  0  0  0  0  0  0  0  0  0  0
   -2.9439   -2.1037   -0.0426 H   0  0  0  0  0  0  0  0  0  0  0  0
   -1.2318   -1.2815   -1.4499 H   0  0  0  0  0  0  0  0  0  0  0  0
   -2.7619    0.0702   -1.9251 H   0  0  0  0  0  0  0  0  0  0  0  0
  1  2  1  0
  2  3  1  0
  3  4  2  0
  4  5  1  0
  5  6  2  0
  6  7  1  0
  7  8  1  1
  8  9  1  0
  7 10  1  0
 10 11  1  0
 11 12  1  0
 12 13  1  0
 13 14  1  0
  6  2  1  0
 13  7  1  0
  1 15  1  0
  1 16  1  0
  1 17  1  0
  8 18  1  0
  8 19  1  0
  9 20  1  0
  9 21  1  0
 10 22  1  0
 10 23  1  0
 12 24  1  0
 12 25  1  0
 13 26  1  6
 14 27  1  0
M  END
$$$$

     RDKit          3D

 27 28  0  0  0  0  0  0  0  0999 V2000
    2.8158    0.3365    0.2101 C   0  0  0  0  0  0  0  0  0  0  0  0
    1.8883    0.3928   -0.9050 N   0  0  0  0  0  0  0  0  0  0  0  0
    2.2550    0.5909   -2.1326 N   0  0  0  0  0  0  0  0  0  0  0  0
    1.2351    0.5065   -2.8881 N   0  0  0  0  0  0  0  0  0  0  0  0
    0.1970    0.2196   -2.1935 N   0  0  0  0  0  0  0  0  0  0  0  0
    0.5978    0.1396   -0.8726 C   0  0  0  0  0  0  0  0  0  0  0  0
   -0.2791   -0.0154    0.2686 C   0  0  2  0  0  0  0  0  0  0  0  0
   -0.6106    1.3659    0.8321 C   0  0  0  0  0  0  0  0  0  0  0  0
   -1.3720    2.0512   -0.1673 N   0  0  0  0  0  0  0  0  0  0  0  0
    0.0497   -1.0335    1.2859 C   0  0  0  0  0  0  0  0  0  0  0  0
   -0.2976   -2.2678    0.7460 O   0  0  0  0  0  0  0  0  0  0  0  0
   -1.1978   -2.0587   -0.2802 C   0  0  0  0  0  0  0  0  0  0  0  0
   -1.6199   -0.5995   -0.2207 C   0  0  1  0  0  0  0  0  0  0  0  0
   -2.5882   -0.4484    0.7696 O   0  0  0  0  0  0  0  0  0  0  0  0
    3.8194    0.7215   -0.0658 H   0  0  0  0  0  0  0  0  0  0  0  0
    3.0140   -0.7791    0.3846 H   0  0  0  0  0  0  0  0  0  0  0  0
    2.5014    0.8272    1.1217 H   0  0  0  0  0  0  0  0  0  0  0  0
    0.3944    1.9296    0.8654 H   0  0  0  0  0  0  0  0  0  0  0  0
   -1.0456    1.3310    1.7996 H   0  0  0  0  0  0  0  0  0  0  0  0
   -1.7777    2.9520    0.1817 H   0  0  0  0  0  0  0  0  0  0  0  0
   -0.9345    2.0773   -1.0889 H   0  0  0  0  0  0  0  0  0  0  0  0
   -0.6812   -0.8859    2.1360 H   0  0  0  0  0  0  0  0  0  0  0  0
    1.0484   -0.9877    1.7338 H   0  0  0  0  0  0  0  0  0  0  0  0
   -0.6094   -2.1354   -1.2405 H   0  0  0  0  0  0  0  0  0  0  0  0
   -2.0762   -2.7105   -0.2648 H   0  0  0  0  0  0  0  0  0  0  0  0
   -1.9167   -0.1858   -1.1802 H   0  0  0  0  0  0  0  0  0  0  0  0
   -2.8097   -1.3343    1.1649 H   0  0  0  0  0  0  0  0  0  0  0  0
  1  2  1  0
  2  3  1  0
  3  4  2  0
  4  5  1  0
  5  6  2  0
  6  7  1  0
  7  8  1  1
  8  9  1  0
  7 10  1  0
 10 11  1  0
 11 12  1  0
 12 13  1  0
 13 14  1  0
  6  2  1  0
 13  7  1  0
  1 15  1  0
  1 16  1  0
  1 17  1  0
  8 18  1  0
  8 19  1  0
  9 20  1  0
  9 21  1  0
 10 22  1  0
 10 23  1  0
 12 24  1  0
 12 25  1  0
 13 26  1  6
 14 27  1  0
M  END
$$$$

     RDKit          3D

 27 28  0  0  0  0  0  0  0  0999 V2000
    2.6608    0.1586    0.1272 C   0  0  0  0  0  0  0  0  0  0  0  0
    1.8281   -0.2507   -0.9516 N   0  0  0  0  0  0  0  0  0  0  0  0
    2.2306   -0.7092   -2.1243 N   0  0  0  0  0  0  0  0  0  0  0  0
    1.1835   -0.9926   -2.8714 N   0  0  0  0  0  0  0  0  0  0  0  0
    0.1228   -0.6978   -2.1435 N   0  0  0  0  0  0  0  0  0  0  0  0
    0.4652   -0.2280   -0.9377 C   0  0  0  0  0  0  0  0  0  0  0  0
   -0.4295    0.1868    0.1243 C   0  0  2  0  0  0  0  0  0  0  0  0
   -1.0810    1.5088   -0.1221 C   0  0  0  0  0  0  0  0  0  0  0  0
   -0.1132    2.6030   -0.2549 N   0  0  0  0  0  0  0  0  0  0  0  0
   -0.0835   -0.1689    1.4962 C   0  0  0  0  0  0  0  0  0  0  0  0
    0.0697   -1.5488    1.4103 O   0  0  0  0  0  0  0  0  0  0  0  0
   -0.8436   -2.0191    0.5126 C   0  0  0  0  0  0  0  0  0  0  0  0
   -1.6255   -0.8277   -0.0082 C   0  0  1  0  0  0  0  0  0  0  0  0
   -2.6621   -0.4489    0.8023 O   0  0  0  0  0  0  0  0  0  0  0  0
    2.3944    1.1919    0.4879 H   0  0  0  0  0  0  0  0  0  0  0  0
    3.7224    0.2610   -0.1721 H   0  0  0  0  0  0  0  0  0  0  0  0
    2.6853   -0.5877    0.9545 H   0  0  0  0  0  0  0  0  0  0  0  0
   -1.7547    1.4917   -0.9953 H   0  0  0  0  0  0  0  0  0  0  0  0
   -1.6724    1.8031    0.8082 H   0  0  0  0  0  0  0  0  0  0  0  0
   -0.5673    3.5213   -0.1452 H   0  0  0  0  0  0  0  0  0  0  0  0
    0.2873    2.5052   -1.2360 H   0  0  0  0  0  0  0  0  0  0  0  0
    0.6934    0.3728    1.9901 H   0  0  0  0  0  0  0  0  0  0  0  0
   -1.0239    0.0156    2.1081 H   0  0  0  0  0  0  0  0  0  0  0  0
   -0.3554   -2.4700   -0.3779 H   0  0  0  0  0  0  0  0  0  0  0  0
   -1.5194   -2.7638    0.9718 H   0  0  0  0  0  0  0  0  0  0  0  0
   -1.8854   -0.9168   -1.0815 H   0  0  0  0  0  0  0  0  0  0  0  0
   -2.7265   -0.9895    1.6283 H   0  0  0  0  0  0  0  0  0  0  0  0
  1  2  1  0
  2  3  1  0
  3  4  2  0
  4  5  1  0
  5  6  2  0
  6  7  1  0
  7  8  1  1
  8  9  1  0
  7 10  1  0
 10 11  1  0
 11 12  1  0
 12 13  1  0
 13 14  1  0
  6  2  1  0
 13  7  1  0
  1 15  1  0
  1 16  1  0
  1 17  1  0
  8 18  1  0
  8 19  1  0
  9 20  1  0
  9 21  1  0
 10 22  1  0
 10 23  1  0
 12 24  1  0
 12 25  1  0
 13 26  1  6
 14 27  1  0
M  END
$$$$

     RDKit          3D

 27 28  0  0  0  0  0  0  0  0999 V2000
    2.7420    0.4650    0.4962 C   0  0  0  0  0  0  0  0  0  0  0  0
    2.1315   -0.2678   -0.5513 N   0  0  0  0  0  0  0  0  0  0  0  0
    2.7544   -0.8972   -1.4933 N   0  0  0  0  0  0  0  0  0  0  0  0
    1.9754   -1.4598   -2.3712 N   0  0  0  0  0  0  0  0  0  0  0  0
    0.7511   -1.1576   -1.9188 N   0  0  0  0  0  0  0  0  0  0  0  0
    0.8024   -0.4469   -0.8022 C   0  0  0  0  0  0  0  0  0  0  0  0
   -0.2997    0.0238    0.0480 C   0  0  2  0  0  0  0  0  0  0  0  0
   -1.0238    1.2004   -0.5731 C   0  0  0  0  0  0  0  0  0  0  0  0
   -0.1506    2.2732   -0.9448 N   0  0  0  0  0  0  0  0  0  0  0  0
   -0.0912    0.0803    1.4947 C   0  0  0  0  0  0  0  0  0  0  0  0
   -1.1821   -0.4560    2.1712 O   0  0  0  0  0  0  0  0  0  0  0  0
   -1.9338   -1.1877    1.3082 C   0  0  0  0  0  0  0  0  0  0  0  0
   -1.3469   -1.1232   -0.0511 C   0  0  1  0  0  0  0  0  0  0  0  0
   -2.3122   -0.8690   -0.9934 O   0  0  0  0  0  0  0  0  0  0  0  0
    2.1819    1.2682    0.9652 H   0  0  0  0  0  0  0  0  0  0  0  0
    3.6797    0.9456    0.0736 H   0  0  0  0  0  0  0  0  0  0  0  0
    3.1834   -0.2591    1.2649 H   0  0  0  0  0  0  0  0  0  0  0  0
   -1.7277    0.9156   -1.3453 H   0  0  0  0  0  0  0  0  0  0  0  0
   -1.7041    1.5684    0.2891 H   0  0  0  0  0  0  0  0  0  0  0  0
   -0.4634    2.6184   -1.8931 H   0  0  0  0  0  0  0  0  0  0  0  0
   -0.1902    3.0535   -0.2917 H   0  0  0  0  0  0  0  0  0  0  0  0
   -0.0402    1.1340    1.8249 H   0  0  0  0  0  0  0  0  0  0  0  0
    0.7865   -0.5293    1.7906 H   0  0  0  0  0  0  0  0  0  0  0  0
   -1.9685   -2.2557    1.6904 H   0  0  0  0  0  0  0  0  0  0  0  0
   -2.9904   -0.8374    1.3479 H   0  0  0  0  0  0  0  0  0  0  0  0
   -0.8193   -2.0738   -0.2903 H   0  0  0  0  0  0  0  0  0  0  0  0
   -2.7442   -1.7263   -1.2453 H   0  0  0  0  0  0  0  0  0  0  0  0
  1  2  1  0
  2  3  1  0
  3  4  2  0
  4  5  1  0
  5  6  2  0
  6  7  1  0
  7  8  1  6
  8  9  1  0
  7 10  1  0
 10 11  1  0
 11 12  1  0
 12 13  1  0
 13 14  1  0
  6  2  1  0
 13  7  1  0
  1 15  1  0
  1 16  1  0
  1 17  1  0
  8 18  1  0
  8 19  1  0
  9 20  1  0
  9 21  1  0
 10 22  1  0
 10 23  1  0
 12 24  1  0
 12 25  1  0
 13 26  1  6
 14 27  1  0
M  END
$$$$

     RDKit          3D

 27 28  0  0  0  0  0  0  0  0999 V2000
    2.8718    0.1072    0.7605 C   0  0  0  0  0  0  0  0  0  0  0  0
    2.2514    0.5552   -0.4649 N   0  0  0  0  0  0  0  0  0  0  0  0
    2.8246    0.9935   -1.5806 N   0  0  0  0  0  0  0  0  0  0  0  0
    1.9894    1.3166   -2.4986 N   0  0  0  0  0  0  0  0  0  0  0  0
    0.8506    1.0657   -2.0150 N   0  0  0  0  0  0  0  0  0  0  0  0
    0.9251    0.5837   -0.7338 C   0  0  0  0  0  0  0  0  0  0  0  0
   -0.2280    0.1830    0.0035 C   0  0  2  0  0  0  0  0  0  0  0  0
   -0.9063    1.4490    0.4849 C   0  0  0  0  0  0  0  0  0  0  0  0
   -2.1110    1.1095    1.1585 N   0  0  0  0  0  0  0  0  0  0  0  0
   -0.0712   -0.8506    1.0061 C   0  0  0  0  0  0  0  0  0  0  0  0
    0.2227   -1.9701    0.2406 O   0  0  0  0  0  0  0  0  0  0  0  0
   -0.8756   -1.9776   -0.6275 C   0  0  0  0  0  0  0  0  0  0  0  0
   -1.1906   -0.5234   -0.9625 C   0  0  1  0  0  0  0  0  0  0  0  0
   -2.5278   -0.3096   -0.5804 O   0  0  0  0  0  0  0  0  0  0  0  0
    3.9685    0.2500    0.6905 H   0  0  0  0  0  0  0  0  0  0  0  0
    2.7371   -1.0215    0.8078 H   0  0  0  0  0  0  0  0  0  0  0  0
    2.5827    0.6302    1.6679 H   0  0  0  0  0  0  0  0  0  0  0  0
   -0.1932    2.0308    1.1232 H   0  0  0  0  0  0  0  0  0  0  0  0
   -1.1366    2.0790   -0.3751 H   0  0  0  0  0  0  0  0  0  0  0  0
   -2.9491    1.7004    0.9214 H   0  0  0  0  0  0  0  0  0  0  0  0
   -2.0863    0.6959    2.0955 H   0  0  0  0  0  0  0  0  0  0  0  0
   -1.0707   -1.0536    1.4498 H   0  0  0  0  0  0  0  0  0  0  0  0
    0.6039   -0.6809    1.8339 H   0  0  0  0  0  0  0  0  0  0  0  0
   -0.6798   -2.5472   -1.5578 H   0  0  0  0  0  0  0  0  0  0  0  0
   -1.6987   -2.4597   -0.0518 H   0  0  0  0  0  0  0  0  0  0  0  0
   -1.0235   -0.2739   -2.0124 H   0  0  0  0  0  0  0  0  0  0  0  0
   -3.0792   -1.0818   -0.7836 H   0  0  0  0  0  0  0  0  0  0  0  0
  1  2  1  0
  2  3  1  0
  3  4  2  0
  4  5  1  0
  5  6  2  0
  6  7  1  0
  7  8  1  1
  8  9  1  0
  7 10  1  0
 10 11  1  0
 11 12  1  0
 12 13  1  0
 13 14  1  0
  6  2  1  0
 13  7  1  0
  1 15  1  0
  1 16  1  0
  1 17  1  0
  8 18  1  0
  8 19  1  0
  9 20  1  0
  9 21  1  0
 10 22  1  0
 10 23  1  0
 12 24  1  0
 12 25  1  0
 13 26  1  6
 14 27  1  0
M  END
$$$$

     RDKit          3D

 27 28  0  0  0  0  0  0  0  0999 V2000
    2.7848   -0.1348   -0.2224 C   0  0  0  0  0  0  0  0  0  0  0  0
    1.9152   -0.0935    0.9317 N   0  0  0  0  0  0  0  0  0  0  0  0
    2.2823   -0.0654    2.1972 N   0  0  0  0  0  0  0  0  0  0  0  0
    1.2254   -0.0159    2.9781 N   0  0  0  0  0  0  0  0  0  0  0  0
    0.1858   -0.0132    2.1669 N   0  0  0  0  0  0  0  0  0  0  0  0
    0.5671   -0.0626    0.8808 C   0  0  0  0  0  0  0  0  0  0  0  0
   -0.3610   -0.0934   -0.2522 C   0  0  2  0  0  0  0  0  0  0  0  0
   -0.6366   -1.5055   -0.7195 C   0  0  0  0  0  0  0  0  0  0  0  0
   -1.2074   -2.2150    0.4268 N   0  0  0  0  0  0  0  0  0  0  0  0
   -0.0567    0.8429   -1.3763 C   0  0  0  0  0  0  0  0  0  0  0  0
   -0.2690    2.1179   -0.8569 O   0  0  0  0  0  0  0  0  0  0  0  0
   -1.1105    2.0149    0.2385 C   0  0  0  0  0  0  0  0  0  0  0  0
   -1.6504    0.5875    0.2185 C   0  0  1  0  0  0  0  0  0  0  0  0
   -2.6227    0.4387   -0.7606 O   0  0  0  0  0  0  0  0  0  0  0  0
    2.4945   -0.8519   -0.9814 H   0  0  0  0  0  0  0  0  0  0  0  0
    3.7680   -0.5160    0.1491 H   0  0  0  0  0  0  0  0  0  0  0  0
    2.9376    0.9170   -0.5825 H   0  0  0  0  0  0  0  0  0  0  0  0
   -1.2655   -1.5973   -1.6033 H   0  0  0  0  0  0  0  0  0  0  0  0
    0.3501   -1.9842   -0.8990 H   0  0  0  0  0  0  0  0  0  0  0  0
   -0.4703   -2.5616    1.0698 H   0  0  0  0  0  0  0  0  0  0  0  0
   -1.8052   -2.9891    0.1361 H   0  0  0  0  0  0  0  0  0  0  0  0
    0.9189    0.7033   -1.8338 H   0  0  0  0  0  0  0  0  0  0  0  0
   -0.8372    0.6844   -2.1558 H   0  0  0  0  0  0  0  0  0  0  0  0
   -1.8760    2.7821    0.2752 H   0  0  0  0  0  0  0  0  0  0  0  0
   -0.4336    2.0575    1.1570 H   0  0  0  0  0  0  0  0  0  0  0  0
   -1.9699    0.2589    1.2063 H   0  0  0  0  0  0  0  0  0  0  0  0
   -2.8577    1.2946   -1.2230 H   0  0  0  0  0  0  0  0  0  0  0  0
  1  2  1  0
  2  3  1  0
  3  4  2  0
  4  5  1  0
  5  6  2  0
  6  7  1  0
  7  8  1  6
  8  9  1  0
  7 10  1  0
 10 11  1  0
 11 12  1  0
 12 13  1  0
 13 14  1  0
  6  2  1  0
 13  7  1  0
  1 15  1  0
  1 16  1  0
  1 17  1  0
  8 18  1  0
  8 19  1  0
  9 20  1  0
  9 21  1  0
 10 22  1  0
 10 23  1  0
 12 24  1  0
 12 25  1  0
 13 26  1  1
 14 27  1  0
M  END
$$$$

     RDKit          3D

 27 28  0  0  0  0  0  0  0  0999 V2000
    2.5827   -0.7303   -0.7549 C   0  0  0  0  0  0  0  0  0  0  0  0
    2.1901   -0.2352    0.5166 N   0  0  0  0  0  0  0  0  0  0  0  0
    2.9996   -0.0365    1.5358 N   0  0  0  0  0  0  0  0  0  0  0  0
    2.3611    0.4222    2.5780 N   0  0  0  0  0  0  0  0  0  0  0  0
    1.1011    0.5200    2.2018 N   0  0  0  0  0  0  0  0  0  0  0  0
    0.9558    0.1173    0.9147 C   0  0  0  0  0  0  0  0  0  0  0  0
   -0.2950    0.0672    0.1607 C   0  0  2  0  0  0  0  0  0  0  0  0
   -0.3165    0.8095   -1.1300 C   0  0  0  0  0  0  0  0  0  0  0  0
   -0.0856    2.2360   -0.9099 N   0  0  0  0  0  0  0  0  0  0  0  0
   -1.3105    0.8768    1.0287 C   0  0  0  0  0  0  0  0  0  0  0  0
   -2.4477    0.6504    0.2897 O   0  0  0  0  0  0  0  0  0  0  0  0
   -2.4747   -0.6814   -0.0437 C   0  0  0  0  0  0  0  0  0  0  0  0
   -1.0489   -1.2155    0.1966 C   0  0  1  0  0  0  0  0  0  0  0  0
   -0.7112   -2.1631   -0.7199 O   0  0  0  0  0  0  0  0  0  0  0  0
    3.4723   -1.4257   -0.5731 H   0  0  0  0  0  0  0  0  0  0  0  0
    2.9680    0.0325   -1.4543 H   0  0  0  0  0  0  0  0  0  0  0  0
    1.8498   -1.4114   -1.2313 H   0  0  0  0  0  0  0  0  0  0  0  0
   -1.3305    0.7057   -1.5835 H   0  0  0  0  0  0  0  0  0  0  0  0
    0.4428    0.4938   -1.8685 H   0  0  0  0  0  0  0  0  0  0  0  0
    0.4745    2.6684   -1.6884 H   0  0  0  0  0  0  0  0  0  0  0  0
   -1.0296    2.7185   -0.8141 H   0  0  0  0  0  0  0  0  0  0  0  0
   -1.4182    0.4039    2.0092 H   0  0  0  0  0  0  0  0  0  0  0  0
   -0.9972    1.9235    1.0590 H   0  0  0  0  0  0  0  0  0  0  0  0
   -2.6598   -0.8460   -1.1289 H   0  0  0  0  0  0  0  0  0  0  0  0
   -3.2158   -1.2633    0.5197 H   0  0  0  0  0  0  0  0  0  0  0  0
   -1.0515   -1.5792    1.2447 H   0  0  0  0  0  0  0  0  0  0  0  0
   -1.0053   -3.0580   -0.3547 H   0  0  0  0  0  0  0  0  0  0  0  0
  1  2  1  0
  2  3  1  0
  3  4  2  0
  4  5  1  0
  5  6  2  0
  6  7  1  0
  7  8  1  6
  8  9  1  0
  7 10  1  0
 10 11  1  0
 11 12  1  0
 12 13  1  0
 13 14  1  0
  6  2  1  0
 13  7  1  0
  1 15  1  0
  1 16  1  0
  1 17  1  0
  8 18  1  0
  8 19  1  0
  9 20  1  0
  9 21  1  0
 10 22  1  0
 10 23  1  0
 12 24  1  0
 12 25  1  0
 13 26  1  1
 14 27  1  0
M  END
$$$$
