
     RDKit          3D

 29 30  0  0  0  0  0  0  0  0999 V2000
    3.2160   -0.0438    0.8266 C   0  0  0  0  0  0  0  0  0  0  0  0
    2.4470    0.2624   -0.4257 C   0  0  1  0  0  0  0  0  0  0  0  0
    1.4149   -0.7444   -0.7795 C   0  0  0  0  0  0  0  0  0  0  0  0
    0.1020   -0.2838   -0.1283 C   0  0  1  0  0  0  0  0  0  0  0  0
    0.5600    0.9618    0.5822 C   0  0  0  0  0  0  0  0  0  0  0  0
    1.6834    1.4676   -0.2237 N   0  0  0  0  0  0  0  0  0  0  0  0
   -0.8377    0.0380   -1.1315 N   0  0  0  0  0  0  0  0  0  0  0  0
   -2.2131    0.0608   -0.7973 C   0  0  2  0  0  0  0  0  0  0  0  0
   -2.6492    1.2766   -0.0089 C   0  0  0  0  0  0  0  0  0  0  0  0
   -2.6742   -1.1250   -0.0579 C   0  0  0  0  0  0  0  0  0  0  0  0
   -3.8456   -1.5063   -0.1703 O   0  0  0  0  0  0  0  0  0  0  0  0
   -1.7470   -1.7943    0.7658 N   0  0  0  0  0  0  0  0  0  0  0  0
   -0.3808   -1.3353    0.7500 C   0  0  0  0  0  0  0  0  0  0  0  0
    0.3955   -1.8998    1.5510 O   0  0  0  0  0  0  0  0  0  0  0  0
    3.0319    0.7361    1.6170 H   0  0  0  0  0  0  0  0  0  0  0  0
    4.3250   -0.0205    0.6671 H   0  0  0  0  0  0  0  0  0  0  0  0
    2.9844   -1.0115    1.2691 H   0  0  0  0  0  0  0  0  0  0  0  0
    3.1961    0.4054   -1.2418 H   0  0  0  0  0  0  0  0  0  0  0  0
    1.2882   -0.7545   -1.8841 H   0  0  0  0  0  0  0  0  0  0  0  0
    1.6681   -1.7778   -0.4722 H   0  0  0  0  0  0  0  0  0  0  0  0
   -0.1861    1.7760    0.5773 H   0  0  0  0  0  0  0  0  0  0  0  0
    0.8727    0.7720    1.6150 H   0  0  0  0  0  0  0  0  0  0  0  0
    1.2988    1.7491   -1.1590 H   0  0  0  0  0  0  0  0  0  0  0  0
   -0.5387    0.6089   -1.9132 H   0  0  0  0  0  0  0  0  0  0  0  0
   -2.7919    0.0944   -1.7474 H   0  0  0  0  0  0  0  0  0  0  0  0
   -3.7782    1.2871   -0.0836 H   0  0  0  0  0  0  0  0  0  0  0  0
   -2.4511    1.1677    1.0835 H   0  0  0  0  0  0  0  0  0  0  0  0
   -2.3159    2.2231   -0.4330 H   0  0  0  0  0  0  0  0  0  0  0  0
   -2.0748   -2.5899    1.3527 H   0  0  0  0  0  0  0  0  0  0  0  0
  1  2  1  0
  2  3  1  0
  3  4  1  0
  4  5  1  0
  5  6  1  0
  4  7  1  6
  7  8  1  0
  8  9  1  0
  8 10  1  0
 10 11  2  0
 10 12  1  0
 12 13  1  0
 13 14  2  0
  6  2  1  0
 13  4  1  0
  1 15  1  0
  1 16  1  0
  1 17  1  0
  2 18  1  6
  3 19  1  0
  3 20  1  0
  5 21  1  0
  5 22  1  0
  6 23  1  0
  7 24  1  0
  8 25  1  6
  9 26  1  0
  9 27  1  0
  9 28  1  0
 12 29  1  0
M  END
$$$$

     RDKit          3D

 29 30  0  0  0  0  0  0  0  0999 V2000
   -2.8306   -0.2300    1.2707 C   0  0  0  0  0  0  0  0  0  0  0  0
   -2.3086    0.1341   -0.1040 C   0  0  1  0  0  0  0  0  0  0  0  0
   -0.9061    0.6694    0.0793 C   0  0  0  0  0  0  0  0  0  0  0  0
   -0.0520   -0.3527   -0.6307 C   0  0  1  0  0  0  0  0  0  0  0  0
   -0.9716   -0.8500   -1.6924 C   0  0  0  0  0  0  0  0  0  0  0  0
   -2.2132   -1.0097   -0.9665 N   0  0  0  0  0  0  0  0  0  0  0  0
    1.1688    0.2272   -1.1460 N   0  0  0  0  0  0  0  0  0  0  0  0
    1.8073    0.9303   -0.0503 C   0  0  2  0  0  0  0  0  0  0  0  0
    3.2161    1.3779   -0.4408 C   0  0  0  0  0  0  0  0  0  0  0  0
    1.9775    0.0467    1.1406 C   0  0  0  0  0  0  0  0  0  0  0  0
    2.7883    0.3379    2.0460 O   0  0  0  0  0  0  0  0  0  0  0  0
    1.2303   -1.1587    1.2992 N   0  0  0  0  0  0  0  0  0  0  0  0
    0.3381   -1.4847    0.2419 C   0  0  0  0  0  0  0  0  0  0  0  0
   -0.0826   -2.6498    0.0687 O   0  0  0  0  0  0  0  0  0  0  0  0
   -2.0163   -0.3051    2.0207 H   0  0  0  0  0  0  0  0  0  0  0  0
   -3.3351   -1.2202    1.2689 H   0  0  0  0  0  0  0  0  0  0  0  0
   -3.5077    0.5802    1.6122 H   0  0  0  0  0  0  0  0  0  0  0  0
   -2.9800    0.8918   -0.5755 H   0  0  0  0  0  0  0  0  0  0  0  0
   -0.7772    1.6307   -0.4777 H   0  0  0  0  0  0  0  0  0  0  0  0
   -0.6402    0.8223    1.1278 H   0  0  0  0  0  0  0  0  0  0  0  0
   -1.1674   -0.0821   -2.4818 H   0  0  0  0  0  0  0  0  0  0  0  0
   -0.6058   -1.7999   -2.1235 H   0  0  0  0  0  0  0  0  0  0  0  0
   -2.2260   -1.9172   -0.4555 H   0  0  0  0  0  0  0  0  0  0  0  0
    0.9449    0.9342   -1.8810 H   0  0  0  0  0  0  0  0  0  0  0  0
    1.1676    1.7824    0.2304 H   0  0  0  0  0  0  0  0  0  0  0  0
    3.6828    0.5649   -1.0281 H   0  0  0  0  0  0  0  0  0  0  0  0
    3.1739    2.3391   -0.9822 H   0  0  0  0  0  0  0  0  0  0  0  0
    3.7970    1.5601    0.4932 H   0  0  0  0  0  0  0  0  0  0  0  0
    1.3275   -1.7690    2.1366 H   0  0  0  0  0  0  0  0  0  0  0  0
  1  2  1  0
  2  3  1  0
  3  4  1  0
  4  5  1  0
  5  6  1  0
  4  7  1  6
  7  8  1  0
  8  9  1  0
  8 10  1  0
 10 11  2  0
 10 12  1  0
 12 13  1  0
 13 14  2  0
  6  2  1  0
 13  4  1  0
  1 15  1  0
  1 16  1  0
  1 17  1  0
  2 18  1  6
  3 19  1  0
  3 20  1  0
  5 21  1  0
  5 22  1  0
  6 23  1  0
  7 24  1  0
  8 25  1  1
  9 26  1  0
  9 27  1  0
  9 28  1  0
 12 29  1  0
M  END
$$$$

     RDKit          3D

 29 30  0  0  0  0  0  0  0  0999 V2000
   -3.1510    0.7400    1.0706 C   0  0  0  0  0  0  0  0  0  0  0  0
   -2.2348    0.4723   -0.0783 C   0  0  1  0  0  0  0  0  0  0  0  0
   -0.7978    0.6095    0.3645 C   0  0  0  0  0  0  0  0  0  0  0  0
   -0.0590   -0.4751   -0.3497 C   0  0  1  0  0  0  0  0  0  0  0  0
   -1.0767   -0.9778   -1.3455 C   0  0  0  0  0  0  0  0  0  0  0  0
   -2.3092   -0.8945   -0.5548 N   0  0  0  0  0  0  0  0  0  0  0  0
    1.0979    0.1034   -1.0064 N   0  0  0  0  0  0  0  0  0  0  0  0
    2.0690    0.4000    0.0134 C   0  0  2  0  0  0  0  0  0  0  0  0
    3.1014    1.3974   -0.4158 C   0  0  0  0  0  0  0  0  0  0  0  0
    2.6572   -0.8856    0.4603 C   0  0  0  0  0  0  0  0  0  0  0  0
    3.8935   -1.0815    0.5314 O   0  0  0  0  0  0  0  0  0  0  0  0
    1.7100   -1.8876    0.8051 N   0  0  0  0  0  0  0  0  0  0  0  0
    0.3399   -1.5900    0.5429 C   0  0  0  0  0  0  0  0  0  0  0  0
   -0.5403   -2.2917    1.0834 O   0  0  0  0  0  0  0  0  0  0  0  0
   -2.6443    0.6241    2.0376 H   0  0  0  0  0  0  0  0  0  0  0  0
   -4.0342    0.0475    1.0662 H   0  0  0  0  0  0  0  0  0  0  0  0
   -3.5695    1.7683    0.9836 H   0  0  0  0  0  0  0  0  0  0  0  0
   -2.4924    1.1381   -0.9247 H   0  0  0  0  0  0  0  0  0  0  0  0
   -0.4462    1.6255    0.0716 H   0  0  0  0  0  0  0  0  0  0  0  0
   -0.6943    0.5561    1.4689 H   0  0  0  0  0  0  0  0  0  0  0  0
   -1.2048   -0.2917   -2.1923 H   0  0  0  0  0  0  0  0  0  0  0  0
   -0.9003   -2.0174   -1.6384 H   0  0  0  0  0  0  0  0  0  0  0  0
   -3.1420   -1.0943   -1.1229 H   0  0  0  0  0  0  0  0  0  0  0  0
    0.8502    0.9858   -1.4752 H   0  0  0  0  0  0  0  0  0  0  0  0
    1.5336    0.8256    0.8940 H   0  0  0  0  0  0  0  0  0  0  0  0
    2.6428    2.4073   -0.3259 H   0  0  0  0  0  0  0  0  0  0  0  0
    3.4278    1.2687   -1.4644 H   0  0  0  0  0  0  0  0  0  0  0  0
    3.9612    1.3131    0.2710 H   0  0  0  0  0  0  0  0  0  0  0  0
    2.0124   -2.7957    1.2298 H   0  0  0  0  0  0  0  0  0  0  0  0
  1  2  1  0
  2  3  1  0
  3  4  1  0
  4  5  1  0
  5  6  1  0
  4  7  1  6
  7  8  1  0
  8  9  1  0
  8 10  1  0
 10 11  2  0
 10 12  1  0
 12 13  1  0
 13 14  2  0
  6  2  1  0
 13  4  1  0
  1 15  1  0
  1 16  1  0
  1 17  1  0
  2 18  1  6
  3 19  1  0
  3 20  1  0
  5 21  1  0
  5 22  1  0
  6 23  1  0
  7 24  1  0
  8 25  1  1
  9 26  1  0
  9 27  1  0
  9 28  1  0
 12 29  1  0
M  END
$$$$

     RDKit          3D

 29 30  0  0  0  0  0  0  0  0999 V2000
   -3.2855    0.4646    0.4748 C   0  0  0  0  0  0  0  0  0  0  0  0
   -2.3861    0.1114   -0.7091 C   0  0  1  0  0  0  0  0  0  0  0  0
   -1.1203    0.9042   -0.6904 C   0  0  0  0  0  0  0  0  0  0  0  0
   -0.0239   -0.0312   -0.1613 C   0  0  1  0  0  0  0  0  0  0  0  0
   -0.8503   -1.2275    0.2436 C   0  0  0  0  0  0  0  0  0  0  0  0
   -1.9821   -1.2773   -0.6651 N   0  0  0  0  0  0  0  0  0  0  0  0
    0.9082   -0.2935   -1.1967 N   0  0  0  0  0  0  0  0  0  0  0  0
    2.2880   -0.1390   -0.8918 C   0  0  2  0  0  0  0  0  0  0  0  0
    2.8027   -1.1135    0.1376 C   0  0  0  0  0  0  0  0  0  0  0  0
    2.4701    1.2323   -0.3057 C   0  0  0  0  0  0  0  0  0  0  0  0
    3.2291    2.0907   -0.7658 O   0  0  0  0  0  0  0  0  0  0  0  0
    1.6733    1.4775    0.8624 N   0  0  0  0  0  0  0  0  0  0  0  0
    0.5445    0.6359    1.0275 C   0  0  0  0  0  0  0  0  0  0  0  0
    0.0328    0.4527    2.1381 O   0  0  0  0  0  0  0  0  0  0  0  0
   -2.9502   -0.0923    1.3769 H   0  0  0  0  0  0  0  0  0  0  0  0
   -4.3182    0.1580    0.2405 H   0  0  0  0  0  0  0  0  0  0  0  0
   -3.2051    1.5629    0.6717 H   0  0  0  0  0  0  0  0  0  0  0  0
   -2.9708    0.2655   -1.6496 H   0  0  0  0  0  0  0  0  0  0  0  0
   -1.2483    1.7942   -0.0786 H   0  0  0  0  0  0  0  0  0  0  0  0
   -0.8784    1.2129   -1.7408 H   0  0  0  0  0  0  0  0  0  0  0  0
   -1.2007   -1.1430    1.2927 H   0  0  0  0  0  0  0  0  0  0  0  0
   -0.3002   -2.1875    0.0998 H   0  0  0  0  0  0  0  0  0  0  0  0
   -1.6270   -1.5374   -1.6154 H   0  0  0  0  0  0  0  0  0  0  0  0
    0.6822   -1.1144   -1.7930 H   0  0  0  0  0  0  0  0  0  0  0  0
    2.8761   -0.2701   -1.8004 H   0  0  0  0  0  0  0  0  0  0  0  0
    2.0368   -1.8075    0.4910 H   0  0  0  0  0  0  0  0  0  0  0  0
    3.6415   -1.7449   -0.2724 H   0  0  0  0  0  0  0  0  0  0  0  0
    3.2323   -0.6171    1.0317 H   0  0  0  0  0  0  0  0  0  0  0  0
    1.9297    2.2335    1.5337 H   0  0  0  0  0  0  0  0  0  0  0  0
  1  2  1  0
  2  3  1  0
  3  4  1  0
  4  5  1  0
  5  6  1  0
  4  7  1  6
  7  8  1  0
  8  9  1  0
  8 10  1  0
 10 11  2  0
 10 12  1  0
 12 13  1  0
 13 14  2  0
  6  2  1  0
 13  4  1  0
  1 15  1  0
  1 16  1  0
  1 17  1  0
  2 18  1  6
  3 19  1  0
  3 20  1  0
  5 21  1  0
  5 22  1  0
  6 23  1  0
  7 24  1  0
  8 25  1  6
  9 26  1  0
  9 27  1  0
  9 28  1  0
 12 29  1  0
M  END
$$$$

     RDKit          3D

 29 30  0  0  0  0  0  0  0  0999 V2000
   -3.5334   -0.0074   -0.3685 C   0  0  0  0  0  0  0  0  0  0  0  0
   -2.1341   -0.5284   -0.6401 C   0  0  1  0  0  0  0  0  0  0  0  0
   -1.2100    0.5501   -1.1457 C   0  0  0  0  0  0  0  0  0  0  0  0
   -0.0690    0.4971   -0.1602 C   0  0  1  0  0  0  0  0  0  0  0  0
   -0.8255    0.0682    1.1090 C   0  0  0  0  0  0  0  0  0  0  0  0
   -1.6031   -1.0209    0.5949 N   0  0  0  0  0  0  0  0  0  0  0  0
    0.8494   -0.5447   -0.4559 N   0  0  0  0  0  0  0  0  0  0  0  0
    2.2167   -0.3047   -0.1678 C   0  0  2  0  0  0  0  0  0  0  0  0
    2.9548   -1.6159   -0.0480 C   0  0  0  0  0  0  0  0  0  0  0  0
    2.3880    0.5577    1.0021 C   0  0  0  0  0  0  0  0  0  0  0  0
    3.1004    0.2941    1.9986 O   0  0  0  0  0  0  0  0  0  0  0  0
    1.6688    1.8029    0.9800 N   0  0  0  0  0  0  0  0  0  0  0  0
    0.5178    1.8079    0.1262 C   0  0  0  0  0  0  0  0  0  0  0  0
    0.0971    2.9048   -0.3100 O   0  0  0  0  0  0  0  0  0  0  0  0
   -3.6675    0.1975    0.7083 H   0  0  0  0  0  0  0  0  0  0  0  0
   -3.7257    0.9050   -0.9707 H   0  0  0  0  0  0  0  0  0  0  0  0
   -4.2389   -0.8297   -0.6197 H   0  0  0  0  0  0  0  0  0  0  0  0
   -2.1495   -1.3433   -1.3912 H   0  0  0  0  0  0  0  0  0  0  0  0
   -0.9037    0.3628   -2.1863 H   0  0  0  0  0  0  0  0  0  0  0  0
   -1.7561    1.5132   -1.0579 H   0  0  0  0  0  0  0  0  0  0  0  0
   -1.5029    0.8899    1.3700 H   0  0  0  0  0  0  0  0  0  0  0  0
   -0.1299   -0.2106    1.9059 H   0  0  0  0  0  0  0  0  0  0  0  0
   -1.1000   -1.9124    0.5275 H   0  0  0  0  0  0  0  0  0  0  0  0
    0.6542   -1.0961   -1.2915 H   0  0  0  0  0  0  0  0  0  0  0  0
    2.6642    0.2344   -1.0454 H   0  0  0  0  0  0  0  0  0  0  0  0
    3.5074   -1.5962    0.9147 H   0  0  0  0  0  0  0  0  0  0  0  0
    2.2403   -2.4624   -0.0711 H   0  0  0  0  0  0  0  0  0  0  0  0
    3.7273   -1.7446   -0.8472 H   0  0  0  0  0  0  0  0  0  0  0  0
    1.9630    2.6316    1.5399 H   0  0  0  0  0  0  0  0  0  0  0  0
  1  2  1  0
  2  3  1  0
  3  4  1  0
  4  5  1  0
  5  6  1  0
  4  7  1  6
  7  8  1  0
  8  9  1  0
  8 10  1  0
 10 11  2  0
 10 12  1  0
 12 13  1  0
 13 14  2  0
  6  2  1  0
 13  4  1  0
  1 15  1  0
  1 16  1  0
  1 17  1  0
  2 18  1  6
  3 19  1  0
  3 20  1  0
  5 21  1  0
  5 22  1  0
  6 23  1  0
  7 24  1  0
  8 25  1  6
  9 26  1  0
  9 27  1  0
  9 28  1  0
 12 29  1  0
M  END
$$$$

     RDKit          3D

 29 30  0  0  0  0  0  0  0  0999 V2000
    3.6061    0.0823   -0.2455 C   0  0  0  0  0  0  0  0  0  0  0  0
    2.2108    0.4009    0.2387 C   0  0  1  0  0  0  0  0  0  0  0  0
    1.2306   -0.0794   -0.7853 C   0  0  0  0  0  0  0  0  0  0  0  0
   -0.0518   -0.1731    0.0320 C   0  0  1  0  0  0  0  0  0  0  0  0
    0.4784   -0.7010    1.3418 C   0  0  0  0  0  0  0  0  0  0  0  0
    1.8932   -0.3806    1.3917 N   0  0  0  0  0  0  0  0  0  0  0  0
   -0.6532    1.0932    0.2640 N   0  0  0  0  0  0  0  0  0  0  0  0
   -2.0744    1.1554    0.1073 C   0  0  2  0  0  0  0  0  0  0  0  0
   -2.8281    0.2321    1.0265 C   0  0  0  0  0  0  0  0  0  0  0  0
   -2.3617    0.6874   -1.2956 C   0  0  0  0  0  0  0  0  0  0  0  0
   -2.9405    1.3685   -2.1465 O   0  0  0  0  0  0  0  0  0  0  0  0
   -1.8975   -0.6414   -1.5654 N   0  0  0  0  0  0  0  0  0  0  0  0
   -0.9163   -1.1476   -0.6721 C   0  0  0  0  0  0  0  0  0  0  0  0
   -0.8037   -2.3698   -0.5019 O   0  0  0  0  0  0  0  0  0  0  0  0
    3.6838    0.1589   -1.3503 H   0  0  0  0  0  0  0  0  0  0  0  0
    4.3303    0.7105    0.2758 H   0  0  0  0  0  0  0  0  0  0  0  0
    3.7962   -0.9798    0.0048 H   0  0  0  0  0  0  0  0  0  0  0  0
    2.0720    1.4891    0.3863 H   0  0  0  0  0  0  0  0  0  0  0  0
    1.1213    0.5941   -1.6491 H   0  0  0  0  0  0  0  0  0  0  0  0
    1.5019   -1.1190   -1.0609 H   0  0  0  0  0  0  0  0  0  0  0  0
    0.0191   -0.1323    2.2037 H   0  0  0  0  0  0  0  0  0  0  0  0
    0.2792   -1.7778    1.4929 H   0  0  0  0  0  0  0  0  0  0  0  0
    2.4349   -1.2725    1.3736 H   0  0  0  0  0  0  0  0  0  0  0  0
   -0.2379    1.8816   -0.2759 H   0  0  0  0  0  0  0  0  0  0  0  0
   -2.4148    2.1746    0.2746 H   0  0  0  0  0  0  0  0  0  0  0  0
   -2.2202   -0.5683    1.4584 H   0  0  0  0  0  0  0  0  0  0  0  0
   -3.3103    0.7757    1.8708 H   0  0  0  0  0  0  0  0  0  0  0  0
   -3.6737   -0.2806    0.4810 H   0  0  0  0  0  0  0  0  0  0  0  0
   -2.2737   -1.1809   -2.3733 H   0  0  0  0  0  0  0  0  0  0  0  0
  1  2  1  0
  2  3  1  0
  3  4  1  0
  4  5  1  0
  5  6  1  0
  4  7  1  1
  7  8  1  0
  8  9  1  0
  8 10  1  0
 10 11  2  0
 10 12  1  0
 12 13  1  0
 13 14  2  0
  6  2  1  0
 13  4  1  0
  1 15  1  0
  1 16  1  0
  1 17  1  0
  2 18  1  1
  3 19  1  0
  3 20  1  0
  5 21  1  0
  5 22  1  0
  6 23  1  0
  7 24  1  0
  8 25  1  6
  9 26  1  0
  9 27  1  0
  9 28  1  0
 12 29  1  0
M  END
$$$$

     RDKit          3D

 29 30  0  0  0  0  0  0  0  0999 V2000
    3.5452    1.0937    0.2723 C   0  0  0  0  0  0  0  0  0  0  0  0
    2.2029    0.5298    0.5751 C   0  0  1  0  0  0  0  0  0  0  0  0
    1.1823    0.7759   -0.5124 C   0  0  0  0  0  0  0  0  0  0  0  0
    0.1077   -0.2524   -0.1351 C   0  0  1  0  0  0  0  0  0  0  0  0
    0.8055   -1.2025    0.8497 C   0  0  0  0  0  0  0  0  0  0  0  0
    2.2127   -0.9408    0.6056 N   0  0  0  0  0  0  0  0  0  0  0  0
   -0.9874    0.4052    0.4869 N   0  0  0  0  0  0  0  0  0  0  0  0
   -2.2579    0.2741   -0.1458 C   0  0  2  0  0  0  0  0  0  0  0  0
   -3.3300    0.9128    0.6572 C   0  0  0  0  0  0  0  0  0  0  0  0
   -2.5107   -1.1524   -0.4537 C   0  0  0  0  0  0  0  0  0  0  0  0
   -3.4907   -1.8170   -0.0769 O   0  0  0  0  0  0  0  0  0  0  0  0
   -1.4969   -1.7700   -1.2646 N   0  0  0  0  0  0  0  0  0  0  0  0
   -0.2468   -1.0901   -1.3089 C   0  0  0  0  0  0  0  0  0  0  0  0
    0.4843   -1.2280   -2.3199 O   0  0  0  0  0  0  0  0  0  0  0  0
    4.3221    0.3520    0.6127 H   0  0  0  0  0  0  0  0  0  0  0  0
    3.7383    1.3311   -0.7722 H   0  0  0  0  0  0  0  0  0  0  0  0
    3.7004    1.9784    0.9532 H   0  0  0  0  0  0  0  0  0  0  0  0
    1.7648    0.8713    1.5318 H   0  0  0  0  0  0  0  0  0  0  0  0
    0.7350    1.7871   -0.4283 H   0  0  0  0  0  0  0  0  0  0  0  0
    1.5837    0.5766   -1.5240 H   0  0  0  0  0  0  0  0  0  0  0  0
    0.6079   -0.8704    1.9027 H   0  0  0  0  0  0  0  0  0  0  0  0
    0.5221   -2.2450    0.6755 H   0  0  0  0  0  0  0  0  0  0  0  0
    2.3830   -1.2350   -0.4030 H   0  0  0  0  0  0  0  0  0  0  0  0
   -0.8071    1.4317    0.6718 H   0  0  0  0  0  0  0  0  0  0  0  0
   -2.2081    0.7981   -1.1411 H   0  0  0  0  0  0  0  0  0  0  0  0
   -3.7473    0.2845    1.4574 H   0  0  0  0  0  0  0  0  0  0  0  0
   -2.9563    1.8796    1.0500 H   0  0  0  0  0  0  0  0  0  0  0  0
   -4.1766    1.1784   -0.0367 H   0  0  0  0  0  0  0  0  0  0  0  0
   -1.6821   -2.6568   -1.7795 H   0  0  0  0  0  0  0  0  0  0  0  0
  1  2  1  0
  2  3  1  0
  3  4  1  0
  4  5  1  0
  5  6  1  0
  4  7  1  1
  7  8  1  0
  8  9  1  0
  8 10  1  0
 10 11  2  0
 10 12  1  0
 12 13  1  0
 13 14  2  0
  6  2  1  0
 13  4  1  0
  1 15  1  0
  1 16  1  0
  1 17  1  0
  2 18  1  1
  3 19  1  0
  3 20  1  0
  5 21  1  0
  5 22  1  0
  6 23  1  0
  7 24  1  0
  8 25  1  6
  9 26  1  0
  9 27  1  0
  9 28  1  0
 12 29  1  0
M  END
$$$$

     RDKit          3D

 29 30  0  0  0  0  0  0  0  0999 V2000
    3.3702   -0.1548   -0.0452 C   0  0  0  0  0  0  0  0  0  0  0  0
    2.2703    0.0457   -1.0684 C   0  0  1  0  0  0  0  0  0  0  0  0
    1.0557   -0.8053   -0.7608 C   0  0  0  0  0  0  0  0  0  0  0  0
    0.0910    0.1098   -0.0125 C   0  0  1  0  0  0  0  0  0  0  0  0
    1.0248    1.2390    0.3713 C   0  0  0  0  0  0  0  0  0  0  0  0
    1.7663    1.3958   -0.8794 N   0  0  0  0  0  0  0  0  0  0  0  0
   -0.9240    0.6415   -0.8531 N   0  0  0  0  0  0  0  0  0  0  0  0
   -2.1909   -0.0055   -0.8346 C   0  0  2  0  0  0  0  0  0  0  0  0
   -3.1927    0.7780    0.0265 C   0  0  0  0  0  0  0  0  0  0  0  0
   -2.1741   -1.3790   -0.2855 C   0  0  0  0  0  0  0  0  0  0  0  0
   -2.7873   -2.2990   -0.8429 O   0  0  0  0  0  0  0  0  0  0  0  0
   -1.4248   -1.5902    0.9060 N   0  0  0  0  0  0  0  0  0  0  0  0
   -0.3839   -0.6542    1.1551 C   0  0  0  0  0  0  0  0  0  0  0  0
    0.1027   -0.4856    2.2934 O   0  0  0  0  0  0  0  0  0  0  0  0
    4.1662   -0.7784   -0.4894 H   0  0  0  0  0  0  0  0  0  0  0  0
    3.8285    0.8039    0.2667 H   0  0  0  0  0  0  0  0  0  0  0  0
    2.9864   -0.7201    0.8442 H   0  0  0  0  0  0  0  0  0  0  0  0
    2.6606   -0.1265   -2.0893 H   0  0  0  0  0  0  0  0  0  0  0  0
    1.4004   -1.6452   -0.1215 H   0  0  0  0  0  0  0  0  0  0  0  0
    0.6145   -1.1853   -1.7059 H   0  0  0  0  0  0  0  0  0  0  0  0
    0.4872    2.1822    0.5603 H   0  0  0  0  0  0  0  0  0  0  0  0
    1.7433    0.9625    1.1429 H   0  0  0  0  0  0  0  0  0  0  0  0
    1.0457    1.5511   -1.6210 H   0  0  0  0  0  0  0  0  0  0  0  0
   -1.0396    1.6595   -0.6518 H   0  0  0  0  0  0  0  0  0  0  0  0
   -2.5720   -0.0020   -1.8982 H   0  0  0  0  0  0  0  0  0  0  0  0
   -2.9779    0.5451    1.0907 H   0  0  0  0  0  0  0  0  0  0  0  0
   -4.2195    0.4487   -0.1972 H   0  0  0  0  0  0  0  0  0  0  0  0
   -3.0975    1.8551   -0.1188 H   0  0  0  0  0  0  0  0  0  0  0  0
   -1.6295   -2.3871    1.5580 H   0  0  0  0  0  0  0  0  0  0  0  0
  1  2  1  0
  2  3  1  0
  3  4  1  0
  4  5  1  0
  5  6  1  0
  4  7  1  6
  7  8  1  0
  8  9  1  0
  8 10  1  0
 10 11  2  0
 10 12  1  0
 12 13  1  0
 13 14  2  0
  6  2  1  0
 13  4  1  0
  1 15  1  0
  1 16  1  0
  1 17  1  0
  2 18  1  6
  3 19  1  0
  3 20  1  0
  5 21  1  0
  5 22  1  0
  6 23  1  0
  7 24  1  0
  8 25  1  6
  9 26  1  0
  9 27  1  0
  9 28  1  0
 12 29  1  0
M  END
$$$$
