
     RDKit          3D

 24 26  0  0  0  0  0  0  0  0999 V2000
    1.0328    0.6862    2.4685 O   0  0  0  0  0  0  0  0  0  0  0  0
    0.9952    0.1234    1.3467 C   0  0  0  0  0  0  0  0  0  0  0  0
    2.0972   -0.8022    1.0334 C   0  0  0  0  0  0  0  0  0  0  0  0
    2.2589   -1.5117   -0.1057 N   0  0  0  0  0  0  0  0  0  0  0  0
    3.3696   -2.2176    0.0114 N   0  0  0  0  0  0  0  0  0  0  0  0
    3.9278   -1.9876    1.1842 N   0  0  0  0  0  0  0  0  0  0  0  0
    3.1508   -1.1260    1.8033 N   0  0  0  0  0  0  0  0  0  0  0  0
   -0.0271    0.3389    0.4117 N   0  0  0  0  0  0  0  0  0  0  0  0
   -0.1553   -0.2590   -0.8964 C   0  0  0  0  0  0  0  0  0  0  0  0
   -1.3455    0.4467   -1.5267 C   0  0  2  0  0  0  0  0  0  0  0  0
   -1.2031    1.8211   -0.8432 C   0  0  0  0  0  0  0  0  0  0  0  0
   -1.1626    1.2096    0.5760 C   0  0  1  0  0  0  0  0  0  0  0  0
   -2.4590    0.4285    0.4961 C   0  0  0  0  0  0  0  0  0  0  0  0
   -2.5249   -0.0510   -0.8937 N   0  0  0  0  0  0  0  0  0  0  0  0
    4.8154   -2.4421    1.4865 H   0  0  0  0  0  0  0  0  0  0  0  0
    0.7233   -0.1527   -1.5290 H   0  0  0  0  0  0  0  0  0  0  0  0
   -0.3771   -1.3410   -0.7350 H   0  0  0  0  0  0  0  0  0  0  0  0
   -1.3392    0.4957   -2.5917 H   0  0  0  0  0  0  0  0  0  0  0  0
   -2.1083    2.4071   -1.0013 H   0  0  0  0  0  0  0  0  0  0  0  0
   -0.2619    2.3027   -1.1004 H   0  0  0  0  0  0  0  0  0  0  0  0
   -1.1052    1.9393    1.3516 H   0  0  0  0  0  0  0  0  0  0  0  0
   -3.2806    1.1757    0.5792 H   0  0  0  0  0  0  0  0  0  0  0  0
   -2.5269   -0.3874    1.2118 H   0  0  0  0  0  0  0  0  0  0  0  0
   -2.4943   -1.0966   -0.9236 H   0  0  0  0  0  0  0  0  0  0  0  0
  1  2  2  0
  2  3  1  0
  3  4  1  0
  4  5  2  0
  5  6  1  0
  6  7  1  0
  2  8  1  0
  8  9  1  0
  9 10  1  0
 10 11  1  0
 11 12  1  0
 12 13  1  0
 13 14  1  0
  7  3  2  0
 12  8  1  0
 14 10  1  0
  6 15  1  0
  9 16  1  0
  9 17  1  0
 10 18  1  6
 11 19  1  0
 11 20  1  0
 12 21  1  1
 13 22  1  0
 13 23  1  0
 14 24  1  0
M  END
$$$$

     RDKit          3D

 24 26  0  0  0  0  0  0  0  0999 V2000
    0.8326    1.9526    1.7072 O   0  0  0  0  0  0  0  0  0  0  0  0
    0.9696    1.0937    0.7979 C   0  0  0  0  0  0  0  0  0  0  0  0
    2.3280    0.7881    0.3661 C   0  0  0  0  0  0  0  0  0  0  0  0
    3.4915    1.3098    0.8152 N   0  0  0  0  0  0  0  0  0  0  0  0
    4.5006    0.7683    0.1655 N   0  0  0  0  0  0  0  0  0  0  0  0
    4.0116   -0.1101   -0.7124 N   0  0  0  0  0  0  0  0  0  0  0  0
    2.6924   -0.0956   -0.5880 N   0  0  0  0  0  0  0  0  0  0  0  0
   -0.1169    0.4415    0.2060 N   0  0  0  0  0  0  0  0  0  0  0  0
   -0.0924   -0.5525   -0.8352 C   0  0  0  0  0  0  0  0  0  0  0  0
   -1.5339   -0.7247   -1.2612 C   0  0  2  0  0  0  0  0  0  0  0  0
   -2.0715    0.6774   -0.9137 C   0  0  0  0  0  0  0  0  0  0  0  0
   -1.5059    0.6346    0.5230 C   0  0  1  0  0  0  0  0  0  0  0  0
   -2.1194   -0.6826    0.9455 C   0  0  0  0  0  0  0  0  0  0  0  0
   -2.1982   -1.5000   -0.2546 N   0  0  0  0  0  0  0  0  0  0  0  0
    4.5680   -0.6980   -1.3731 H   0  0  0  0  0  0  0  0  0  0  0  0
    0.5821   -0.3291   -1.6630 H   0  0  0  0  0  0  0  0  0  0  0  0
    0.2276   -1.5143   -0.3468 H   0  0  0  0  0  0  0  0  0  0  0  0
   -1.6898   -1.0038   -2.2789 H   0  0  0  0  0  0  0  0  0  0  0  0
   -3.1598    0.6984   -0.8753 H   0  0  0  0  0  0  0  0  0  0  0  0
   -1.5895    1.4526   -1.5026 H   0  0  0  0  0  0  0  0  0  0  0  0
   -1.7612    1.4828    1.1093 H   0  0  0  0  0  0  0  0  0  0  0  0
   -3.1434   -0.4898    1.2999 H   0  0  0  0  0  0  0  0  0  0  0  0
   -1.4887   -1.1924    1.6965 H   0  0  0  0  0  0  0  0  0  0  0  0
   -1.7335   -2.4069   -0.1606 H   0  0  0  0  0  0  0  0  0  0  0  0
  1  2  2  0
  2  3  1  0
  3  4  1  0
  4  5  2  0
  5  6  1  0
  6  7  1  0
  2  8  1  0
  8  9  1  0
  9 10  1  0
 10 11  1  0
 11 12  1  0
 12 13  1  0
 13 14  1  0
  7  3  2  0
 12  8  1  0
 14 10  1  0
  6 15  1  0
  9 16  1  0
  9 17  1  0
 10 18  1  6
 11 19  1  0
 11 20  1  0
 12 21  1  1
 13 22  1  0
 13 23  1  0
 14 24  1  0
M  END
$$$$

     RDKit          3D

 24 26  0  0  0  0  0  0  0  0999 V2000
    0.7441   -2.4324    0.9555 O   0  0  0  0  0  0  0  0  0  0  0  0
    0.9779   -1.3297    0.3931 C   0  0  0  0  0  0  0  0  0  0  0  0
    2.2899   -1.0065   -0.1407 C   0  0  0  0  0  0  0  0  0  0  0  0
    3.3478   -1.8332   -0.0848 N   0  0  0  0  0  0  0  0  0  0  0  0
    4.3852   -1.2099   -0.6712 N   0  0  0  0  0  0  0  0  0  0  0  0
    3.9997   -0.0278   -1.0855 N   0  0  0  0  0  0  0  0  0  0  0  0
    2.7261    0.0885   -0.7597 N   0  0  0  0  0  0  0  0  0  0  0  0
   -0.0580   -0.3650    0.2689 N   0  0  0  0  0  0  0  0  0  0  0  0
    0.0592    0.9435   -0.3510 C   0  0  0  0  0  0  0  0  0  0  0  0
   -1.3633    1.4475   -0.2989 C   0  0  2  0  0  0  0  0  0  0  0  0
   -1.7434    0.9327    1.1008 C   0  0  0  0  0  0  0  0  0  0  0  0
   -1.4265   -0.5306    0.7489 C   0  0  1  0  0  0  0  0  0  0  0  0
   -2.2958   -0.6876   -0.4586 C   0  0  0  0  0  0  0  0  0  0  0  0
   -2.1628    0.5920   -1.1301 N   0  0  0  0  0  0  0  0  0  0  0  0
    4.5714    0.6801   -1.5717 H   0  0  0  0  0  0  0  0  0  0  0  0
    0.4733    0.9057   -1.3627 H   0  0  0  0  0  0  0  0  0  0  0  0
    0.6492    1.5824    0.3440 H   0  0  0  0  0  0  0  0  0  0  0  0
   -1.4966    2.4986   -0.4211 H   0  0  0  0  0  0  0  0  0  0  0  0
   -2.7929    1.0829    1.3198 H   0  0  0  0  0  0  0  0  0  0  0  0
   -1.0304    1.3425    1.8186 H   0  0  0  0  0  0  0  0  0  0  0  0
   -1.5584   -1.2166    1.5525 H   0  0  0  0  0  0  0  0  0  0  0  0
   -3.3517   -0.9209   -0.2120 H   0  0  0  0  0  0  0  0  0  0  0  0
   -1.8889   -1.5238   -1.0677 H   0  0  0  0  0  0  0  0  0  0  0  0
   -3.0550    0.9878   -1.4385 H   0  0  0  0  0  0  0  0  0  0  0  0
  1  2  2  0
  2  3  1  0
  3  4  1  0
  4  5  2  0
  5  6  1  0
  6  7  1  0
  2  8  1  0
  8  9  1  0
  9 10  1  0
 10 11  1  0
 11 12  1  0
 12 13  1  0
 13 14  1  0
  7  3  2  0
 12  8  1  0
 14 10  1  0
  6 15  1  0
  9 16  1  0
  9 17  1  0
 10 18  1  1
 11 19  1  0
 11 20  1  0
 12 21  1  1
 13 22  1  0
 13 23  1  0
 14 24  1  0
M  END
$$$$

     RDKit          3D

 24 26  0  0  0  0  0  0  0  0999 V2000
    1.6264    1.3439    1.6506 O   0  0  0  0  0  0  0  0  0  0  0  0
    1.3528    0.5611    0.7070 C   0  0  0  0  0  0  0  0  0  0  0  0
    2.4486   -0.1567    0.0569 C   0  0  0  0  0  0  0  0  0  0  0  0
    2.3215   -1.0247   -0.9613 N   0  0  0  0  0  0  0  0  0  0  0  0
    3.5370   -1.4420   -1.2469 N   0  0  0  0  0  0  0  0  0  0  0  0
    4.4282   -0.8784   -0.4567 N   0  0  0  0  0  0  0  0  0  0  0  0
    3.7620   -0.0799    0.3549 N   0  0  0  0  0  0  0  0  0  0  0  0
    0.0216    0.3671    0.2714 N   0  0  0  0  0  0  0  0  0  0  0  0
   -0.4802   -0.4845   -0.7877 C   0  0  0  0  0  0  0  0  0  0  0  0
   -1.9375   -0.1200   -0.9154 C   0  0  2  0  0  0  0  0  0  0  0  0
   -1.8889    1.3513   -0.4637 C   0  0  0  0  0  0  0  0  0  0  0  0
   -1.1306    1.0215    0.8396 C   0  0  1  0  0  0  0  0  0  0  0  0
   -2.0781   -0.0191    1.3927 C   0  0  0  0  0  0  0  0  0  0  0  0
   -2.6277   -0.7057    0.2138 N   0  0  0  0  0  0  0  0  0  0  0  0
    5.4418   -1.0525   -0.4950 H   0  0  0  0  0  0  0  0  0  0  0  0
    0.0836   -0.4253   -1.7148 H   0  0  0  0  0  0  0  0  0  0  0  0
   -0.4501   -1.5316   -0.3919 H   0  0  0  0  0  0  0  0  0  0  0  0
   -2.3855   -0.2658   -1.8682 H   0  0  0  0  0  0  0  0  0  0  0  0
   -2.9025    1.6919   -0.2689 H   0  0  0  0  0  0  0  0  0  0  0  0
   -1.2866    1.9591   -1.1329 H   0  0  0  0  0  0  0  0  0  0  0  0
   -0.9490    1.8711    1.4574 H   0  0  0  0  0  0  0  0  0  0  0  0
   -2.9032    0.5102    1.9181 H   0  0  0  0  0  0  0  0  0  0  0  0
   -1.5556   -0.7560    2.0120 H   0  0  0  0  0  0  0  0  0  0  0  0
   -2.4480   -1.7351    0.2562 H   0  0  0  0  0  0  0  0  0  0  0  0
  1  2  2  0
  2  3  1  0
  3  4  1  0
  4  5  2  0
  5  6  1  0
  6  7  1  0
  2  8  1  0
  8  9  1  0
  9 10  1  0
 10 11  1  0
 11 12  1  0
 12 13  1  0
 13 14  1  0
  7  3  2  0
 12  8  1  0
 14 10  1  0
  6 15  1  0
  9 16  1  0
  9 17  1  0
 10 18  1  6
 11 19  1  0
 11 20  1  0
 12 21  1  1
 13 22  1  0
 13 23  1  0
 14 24  1  0
M  END
$$$$

     RDKit          3D

 24 26  0  0  0  0  0  0  0  0999 V2000
    1.2483   -2.3130    0.6967 O   0  0  0  0  0  0  0  0  0  0  0  0
    1.2179   -1.1679    0.1286 C   0  0  0  0  0  0  0  0  0  0  0  0
    2.4907   -0.6749   -0.3963 C   0  0  0  0  0  0  0  0  0  0  0  0
    3.6915   -1.2734   -0.3577 N   0  0  0  0  0  0  0  0  0  0  0  0
    4.5973   -0.4824   -0.9521 N   0  0  0  0  0  0  0  0  0  0  0  0
    3.9833    0.6000   -1.3615 N   0  0  0  0  0  0  0  0  0  0  0  0
    2.6949    0.4954   -1.0282 N   0  0  0  0  0  0  0  0  0  0  0  0
    0.0208   -0.4268    0.0176 N   0  0  0  0  0  0  0  0  0  0  0  0
   -0.1788    0.8702   -0.5899 C   0  0  0  0  0  0  0  0  0  0  0  0
   -1.6066    1.2726   -0.2087 C   0  0  2  0  0  0  0  0  0  0  0  0
   -1.7207    0.5127    1.1291 C   0  0  0  0  0  0  0  0  0  0  0  0
   -1.2780   -0.8264    0.5018 C   0  0  1  0  0  0  0  0  0  0  0  0
   -2.2441   -0.8598   -0.6592 C   0  0  0  0  0  0  0  0  0  0  0  0
   -2.5531    0.5283   -0.9833 N   0  0  0  0  0  0  0  0  0  0  0  0
    4.4056    1.4163   -1.8632 H   0  0  0  0  0  0  0  0  0  0  0  0
   -0.2051    0.6969   -1.7053 H   0  0  0  0  0  0  0  0  0  0  0  0
    0.5581    1.6177   -0.3031 H   0  0  0  0  0  0  0  0  0  0  0  0
   -1.7607    2.3243   -0.1167 H   0  0  0  0  0  0  0  0  0  0  0  0
   -2.7514    0.4720    1.4816 H   0  0  0  0  0  0  0  0  0  0  0  0
   -0.9861    0.8638    1.8561 H   0  0  0  0  0  0  0  0  0  0  0  0
   -1.3128   -1.6495    1.1737 H   0  0  0  0  0  0  0  0  0  0  0  0
   -1.6589   -1.2437   -1.5367 H   0  0  0  0  0  0  0  0  0  0  0  0
   -3.1450   -1.4539   -0.4633 H   0  0  0  0  0  0  0  0  0  0  0  0
   -3.5071    0.7017   -0.5439 H   0  0  0  0  0  0  0  0  0  0  0  0
  1  2  2  0
  2  3  1  0
  3  4  1  0
  4  5  2  0
  5  6  1  0
  6  7  1  0
  2  8  1  0
  8  9  1  0
  9 10  1  0
 10 11  1  0
 11 12  1  0
 12 13  1  0
 13 14  1  0
  7  3  2  0
 12  8  1  0
 14 10  1  0
  6 15  1  0
  9 16  1  0
  9 17  1  0
 10 18  1  1
 11 19  1  0
 11 20  1  0
 12 21  1  1
 13 22  1  0
 13 23  1  0
 14 24  1  0
M  END
$$$$

     RDKit          3D

 24 26  0  0  0  0  0  0  0  0999 V2000
    1.2241   -2.1273    1.3823 O   0  0  0  0  0  0  0  0  0  0  0  0
    1.2443   -1.0347    0.7591 C   0  0  0  0  0  0  0  0  0  0  0  0
    2.4976   -0.4108    0.3928 C   0  0  0  0  0  0  0  0  0  0  0  0
    3.7427   -0.8512    0.6335 N   0  0  0  0  0  0  0  0  0  0  0  0
    4.5689    0.0286    0.1249 N   0  0  0  0  0  0  0  0  0  0  0  0
    3.9129    1.0231   -0.4366 N   0  0  0  0  0  0  0  0  0  0  0  0
    2.6363    0.7485   -0.2694 N   0  0  0  0  0  0  0  0  0  0  0  0
    0.0136   -0.4378    0.4292 N   0  0  0  0  0  0  0  0  0  0  0  0
   -0.1554    0.8351   -0.2952 C   0  0  0  0  0  0  0  0  0  0  0  0
   -1.6412    1.0841   -0.2690 C   0  0  2  0  0  0  0  0  0  0  0  0
   -1.9883    0.4262    1.0802 C   0  0  0  0  0  0  0  0  0  0  0  0
   -1.3264   -0.9127    0.7112 C   0  0  1  0  0  0  0  0  0  0  0  0
   -1.9895   -1.1729   -0.6171 C   0  0  0  0  0  0  0  0  0  0  0  0
   -2.2729    0.1517   -1.1762 N   0  0  0  0  0  0  0  0  0  0  0  0
    4.3327    1.8470   -0.9099 H   0  0  0  0  0  0  0  0  0  0  0  0
    0.1864    0.6465   -1.3456 H   0  0  0  0  0  0  0  0  0  0  0  0
    0.3801    1.6562    0.1855 H   0  0  0  0  0  0  0  0  0  0  0  0
   -1.9566    2.1005   -0.3447 H   0  0  0  0  0  0  0  0  0  0  0  0
   -3.0616    0.3285    1.2225 H   0  0  0  0  0  0  0  0  0  0  0  0
   -1.4307    0.8710    1.9027 H   0  0  0  0  0  0  0  0  0  0  0  0
   -1.4189   -1.6686    1.4533 H   0  0  0  0  0  0  0  0  0  0  0  0
   -1.2620   -1.7181   -1.2509 H   0  0  0  0  0  0  0  0  0  0  0  0
   -2.9288   -1.7454   -0.4527 H   0  0  0  0  0  0  0  0  0  0  0  0
   -3.3075    0.3324   -1.1107 H   0  0  0  0  0  0  0  0  0  0  0  0
  1  2  2  0
  2  3  1  0
  3  4  1  0
  4  5  2  0
  5  6  1  0
  6  7  1  0
  2  8  1  0
  8  9  1  0
  9 10  1  0
 10 11  1  0
 11 12  1  0
 12 13  1  0
 13 14  1  0
  7  3  2  0
 12  8  1  0
 14 10  1  0
  6 15  1  0
  9 16  1  0
  9 17  1  0
 10 18  1  1
 11 19  1  0
 11 20  1  0
 12 21  1  1
 13 22  1  0
 13 23  1  0
 14 24  1  0
M  END
$$$$

     RDKit          3D

 24 26  0  0  0  0  0  0  0  0999 V2000
    1.3500   -2.2007   -0.8983 O   0  0  0  0  0  0  0  0  0  0  0  0
    1.1895   -1.0072   -0.4993 C   0  0  0  0  0  0  0  0  0  0  0  0
    2.4210   -0.2107   -0.3663 C   0  0  0  0  0  0  0  0  0  0  0  0
    2.4986    1.0851    0.0418 N   0  0  0  0  0  0  0  0  0  0  0  0
    3.7667    1.4431    0.0305 N   0  0  0  0  0  0  0  0  0  0  0  0
    4.5040    0.4246   -0.3698 N   0  0  0  0  0  0  0  0  0  0  0  0
    3.6861   -0.5660   -0.6063 N   0  0  0  0  0  0  0  0  0  0  0  0
   -0.0833   -0.4723   -0.2009 N   0  0  0  0  0  0  0  0  0  0  0  0
   -0.3394    0.8757    0.2571 C   0  0  0  0  0  0  0  0  0  0  0  0
   -1.8424    0.9909    0.1226 C   0  0  2  0  0  0  0  0  0  0  0  0
   -2.2013   -0.3833    0.7304 C   0  0  0  0  0  0  0  0  0  0  0  0
   -1.3359   -1.1471   -0.2923 C   0  0  1  0  0  0  0  0  0  0  0  0
   -2.0183   -0.6249   -1.5552 C   0  0  0  0  0  0  0  0  0  0  0  0
   -2.2847    0.7713   -1.2361 N   0  0  0  0  0  0  0  0  0  0  0  0
    5.5372    0.4624   -0.4605 H   0  0  0  0  0  0  0  0  0  0  0  0
    0.2095    1.6458   -0.2823 H   0  0  0  0  0  0  0  0  0  0  0  0
   -0.1350    0.9076    1.3643 H   0  0  0  0  0  0  0  0  0  0  0  0
   -2.2985    1.8109    0.6363 H   0  0  0  0  0  0  0  0  0  0  0  0
   -1.8194   -0.4886    1.7414 H   0  0  0  0  0  0  0  0  0  0  0  0
   -3.2583   -0.5829    0.5824 H   0  0  0  0  0  0  0  0  0  0  0  0
   -1.3537   -2.2040   -0.1716 H   0  0  0  0  0  0  0  0  0  0  0  0
   -1.3840   -0.7483   -2.4406 H   0  0  0  0  0  0  0  0  0  0  0  0
   -2.9651   -1.2044   -1.6414 H   0  0  0  0  0  0  0  0  0  0  0  0
   -1.8432    1.4227   -1.9176 H   0  0  0  0  0  0  0  0  0  0  0  0
  1  2  2  0
  2  3  1  0
  3  4  1  0
  4  5  2  0
  5  6  1  0
  6  7  1  0
  2  8  1  0
  8  9  1  0
  9 10  1  0
 10 11  1  0
 11 12  1  0
 12 13  1  0
 13 14  1  0
  7  3  2  0
 12  8  1  0
 14 10  1  0
  6 15  1  0
  9 16  1  0
  9 17  1  0
 10 18  1  1
 11 19  1  0
 11 20  1  0
 12 21  1  1
 13 22  1  0
 13 23  1  0
 14 24  1  0
M  END
$$$$

     RDKit          3D

 24 26  0  0  0  0  0  0  0  0999 V2000
    1.2761   -2.4079   -0.5587 O   0  0  0  0  0  0  0  0  0  0  0  0
    1.2303   -1.1938   -0.2519 C   0  0  0  0  0  0  0  0  0  0  0  0
    2.4962   -0.4830   -0.0871 C   0  0  0  0  0  0  0  0  0  0  0  0
    3.7441   -0.9597   -0.2217 N   0  0  0  0  0  0  0  0  0  0  0  0
    4.6233    0.0103    0.0129 N   0  0  0  0  0  0  0  0  0  0  0  0
    3.9234    1.1019    0.2963 N   0  0  0  0  0  0  0  0  0  0  0  0
    2.6324    0.8077    0.2369 N   0  0  0  0  0  0  0  0  0  0  0  0
    0.0102   -0.5345   -0.0716 N   0  0  0  0  0  0  0  0  0  0  0  0
   -0.1925    0.8678    0.2845 C   0  0  0  0  0  0  0  0  0  0  0  0
   -1.7110    1.0017    0.4058 C   0  0  2  0  0  0  0  0  0  0  0  0
   -2.0180   -0.4037    0.9535 C   0  0  0  0  0  0  0  0  0  0  0  0
   -1.3023   -1.1213   -0.2046 C   0  0  1  0  0  0  0  0  0  0  0  0
   -1.9725   -0.4517   -1.3761 C   0  0  0  0  0  0  0  0  0  0  0  0
   -2.2381    0.9189   -0.9165 N   0  0  0  0  0  0  0  0  0  0  0  0
    4.3724    2.0160    0.5218 H   0  0  0  0  0  0  0  0  0  0  0  0
    0.1395    1.4886   -0.5573 H   0  0  0  0  0  0  0  0  0  0  0  0
    0.3139    1.1286    1.2299 H   0  0  0  0  0  0  0  0  0  0  0  0
   -2.0480    1.7937    1.0278 H   0  0  0  0  0  0  0  0  0  0  0  0
   -3.0853   -0.6057    0.9635 H   0  0  0  0  0  0  0  0  0  0  0  0
   -1.4970   -0.5744    1.9108 H   0  0  0  0  0  0  0  0  0  0  0  0
   -1.3607   -2.1841   -0.1616 H   0  0  0  0  0  0  0  0  0  0  0  0
   -1.2252   -0.4254   -2.2022 H   0  0  0  0  0  0  0  0  0  0  0  0
   -2.8783   -0.9545   -1.7171 H   0  0  0  0  0  0  0  0  0  0  0  0
   -3.2330    1.1648   -1.0196 H   0  0  0  0  0  0  0  0  0  0  0  0
  1  2  2  0
  2  3  1  0
  3  4  1  0
  4  5  2  0
  5  6  1  0
  6  7  1  0
  2  8  1  0
  8  9  1  0
  9 10  1  0
 10 11  1  0
 11 12  1  0
 12 13  1  0
 13 14  1  0
  7  3  2  0
 12  8  1  0
 14 10  1  0
  6 15  1  0
  9 16  1  0
  9 17  1  0
 10 18  1  1
 11 19  1  0
 11 20  1  0
 12 21  1  1
 13 22  1  0
 13 23  1  0
 14 24  1  0
M  END
$$$$
