
     RDKit          3D

 28 29  0  0  0  0  0  0  0  0999 V2000
    4.4689    0.1740   -0.5191 C   0  0  0  0  0  0  0  0  0  0  0  0
    3.4771   -0.6984   -0.1423 O   0  0  0  0  0  0  0  0  0  0  0  0
    2.4875   -0.0250    0.5406 C   0  0  2  0  0  0  0  0  0  0  0  0
    1.8802   -0.6417    1.7530 C   0  0  0  0  0  0  0  0  0  0  0  0
    1.0602   -0.5494    0.5239 C   0  0  1  0  0  0  0  0  0  0  0  0
    0.0232    0.5079    0.3269 C   0  0  0  0  0  0  0  0  0  0  0  0
   -1.3152    0.0325    0.3129 N   0  0  0  0  0  0  0  0  0  0  0  0
   -1.7076   -0.7689   -0.7844 C   0  0  0  0  0  0  0  0  0  0  0  0
   -3.0687   -1.3166   -0.5506 C   0  0  0  0  0  0  0  0  0  0  0  0
   -3.3932   -2.5142   -0.6329 O   0  0  0  0  0  0  0  0  0  0  0  0
   -4.0774   -0.3454   -0.1989 N   0  0  0  0  0  0  0  0  0  0  0  0
   -3.5731    0.9303    0.1756 C   0  0  0  0  0  0  0  0  0  0  0  0
   -4.2904    1.9454    0.0802 O   0  0  0  0  0  0  0  0  0  0  0  0
   -2.2027    1.0827    0.6811 C   0  0  0  0  0  0  0  0  0  0  0  0
    4.0875    0.9781   -1.1767 H   0  0  0  0  0  0  0  0  0  0  0  0
    4.9316    0.5892    0.4044 H   0  0  0  0  0  0  0  0  0  0  0  0
    5.2537   -0.4278   -1.0560 H   0  0  0  0  0  0  0  0  0  0  0  0
    2.6660    1.0716    0.6473 H   0  0  0  0  0  0  0  0  0  0  0  0
    2.2766   -1.6202    2.0713 H   0  0  0  0  0  0  0  0  0  0  0  0
    1.5858    0.0098    2.6103 H   0  0  0  0  0  0  0  0  0  0  0  0
    0.8940   -1.5029   -0.0477 H   0  0  0  0  0  0  0  0  0  0  0  0
    0.1253    1.2284    1.1665 H   0  0  0  0  0  0  0  0  0  0  0  0
    0.2821    1.0993   -0.5974 H   0  0  0  0  0  0  0  0  0  0  0  0
   -1.0264   -1.6395   -0.8710 H   0  0  0  0  0  0  0  0  0  0  0  0
   -1.7128   -0.2698   -1.7738 H   0  0  0  0  0  0  0  0  0  0  0  0
   -5.0948   -0.5565   -0.2169 H   0  0  0  0  0  0  0  0  0  0  0  0
   -1.8292    2.0845    0.3495 H   0  0  0  0  0  0  0  0  0  0  0  0
   -2.2082    1.1428    1.7929 H   0  0  0  0  0  0  0  0  0  0  0  0
  1  2  1  0
  2  3  1  0
  3  4  1  0
  4  5  1  0
  5  6  1  0
  6  7  1  0
  7  8  1  0
  8  9  1  0
  9 10  2  0
  9 11  1  0
 11 12  1  0
 12 13  2  0
 12 14  1  0
  5  3  1  0
 14  7  1  0
  1 15  1  0
  1 16  1  0
  1 17  1  0
  3 18  1  1
  4 19  1  0
  4 20  1  0
  5 21  1  6
  6 22  1  0
  6 23  1  0
  8 24  1  0
  8 25  1  0
 11 26  1  0
 14 27  1  0
 14 28  1  0
M  END
$$$$

     RDKit          3D

 28 29  0  0  0  0  0  0  0  0999 V2000
    3.5899    1.2580   -0.5434 C   0  0  0  0  0  0  0  0  0  0  0  0
    3.0342   -0.0060   -0.7281 O   0  0  0  0  0  0  0  0  0  0  0  0
    1.8691   -0.1666    0.0437 C   0  0  2  0  0  0  0  0  0  0  0  0
    1.8040   -1.5061    0.7833 C   0  0  0  0  0  0  0  0  0  0  0  0
    0.9511   -1.2323   -0.3973 C   0  0  1  0  0  0  0  0  0  0  0  0
   -0.5167   -1.2437   -0.2477 C   0  0  0  0  0  0  0  0  0  0  0  0
   -1.1779   -0.1915   -0.9591 N   0  0  0  0  0  0  0  0  0  0  0  0
   -0.9032    1.0956   -0.4104 C   0  0  0  0  0  0  0  0  0  0  0  0
   -1.2397    1.1558    1.0397 C   0  0  0  0  0  0  0  0  0  0  0  0
   -0.5872    1.6966    1.9300 O   0  0  0  0  0  0  0  0  0  0  0  0
   -2.4804    0.4833    1.3504 N   0  0  0  0  0  0  0  0  0  0  0  0
   -3.2755    0.1009    0.2387 C   0  0  0  0  0  0  0  0  0  0  0  0
   -4.5485    0.2392    0.3246 O   0  0  0  0  0  0  0  0  0  0  0  0
   -2.6349   -0.4361   -0.9630 C   0  0  0  0  0  0  0  0  0  0  0  0
    2.8836    2.0683   -0.8383 H   0  0  0  0  0  0  0  0  0  0  0  0
    3.8525    1.4429    0.5188 H   0  0  0  0  0  0  0  0  0  0  0  0
    4.4751    1.3425   -1.2003 H   0  0  0  0  0  0  0  0  0  0  0  0
    1.6189    0.7127    0.6341 H   0  0  0  0  0  0  0  0  0  0  0  0
    2.6591   -2.2113    0.6064 H   0  0  0  0  0  0  0  0  0  0  0  0
    1.3657   -1.4401    1.7795 H   0  0  0  0  0  0  0  0  0  0  0  0
    1.2560   -1.7668   -1.3837 H   0  0  0  0  0  0  0  0  0  0  0  0
   -0.8434   -1.2411    0.8364 H   0  0  0  0  0  0  0  0  0  0  0  0
   -0.8890   -2.2609   -0.5935 H   0  0  0  0  0  0  0  0  0  0  0  0
   -1.6899    1.7837   -0.8958 H   0  0  0  0  0  0  0  0  0  0  0  0
    0.0341    1.4986   -0.7097 H   0  0  0  0  0  0  0  0  0  0  0  0
   -2.7549    0.3027    2.3363 H   0  0  0  0  0  0  0  0  0  0  0  0
   -2.8107   -1.5284   -0.9927 H   0  0  0  0  0  0  0  0  0  0  0  0
   -3.0415    0.0502   -1.8634 H   0  0  0  0  0  0  0  0  0  0  0  0
  1  2  1  0
  2  3  1  0
  3  4  1  0
  4  5  1  0
  5  6  1  0
  6  7  1  0
  7  8  1  0
  8  9  1  0
  9 10  2  0
  9 11  1  0
 11 12  1  0
 12 13  2  0
 12 14  1  0
  5  3  1  0
 14  7  1  0
  1 15  1  0
  1 16  1  0
  1 17  1  0
  3 18  1  1
  4 19  1  0
  4 20  1  0
  5 21  1  6
  6 22  1  0
  6 23  1  0
  8 24  1  0
  8 25  1  0
 11 26  1  0
 14 27  1  0
 14 28  1  0
M  END
$$$$

     RDKit          3D

 28 29  0  0  0  0  0  0  0  0999 V2000
   -4.4471    0.1564    0.2413 C   0  0  0  0  0  0  0  0  0  0  0  0
   -3.3471   -0.3335    0.9484 O   0  0  0  0  0  0  0  0  0  0  0  0
   -2.3928   -0.8194    0.0799 C   0  0  2  0  0  0  0  0  0  0  0  0
   -1.5499   -1.9874    0.4298 C   0  0  0  0  0  0  0  0  0  0  0  0
   -0.9106   -0.6012    0.4512 C   0  0  1  0  0  0  0  0  0  0  0  0
   -0.0920   -0.1720   -0.7138 C   0  0  0  0  0  0  0  0  0  0  0  0
    1.2991    0.0587   -0.4514 N   0  0  0  0  0  0  0  0  0  0  0  0
    1.5462    1.1967    0.3823 C   0  0  0  0  0  0  0  0  0  0  0  0
    2.9779    1.4825    0.5308 C   0  0  0  0  0  0  0  0  0  0  0  0
    3.3565    2.3570    1.3529 O   0  0  0  0  0  0  0  0  0  0  0  0
    3.9614    0.8055   -0.2237 N   0  0  0  0  0  0  0  0  0  0  0  0
    3.5298    0.0122   -1.3160 C   0  0  0  0  0  0  0  0  0  0  0  0
    4.3775   -0.7027   -1.9519 O   0  0  0  0  0  0  0  0  0  0  0  0
    2.0928    0.0585   -1.6642 C   0  0  0  0  0  0  0  0  0  0  0  0
   -4.0509    0.9771   -0.4094 H   0  0  0  0  0  0  0  0  0  0  0  0
   -5.2171    0.4972    0.9520 H   0  0  0  0  0  0  0  0  0  0  0  0
   -4.8716   -0.6222   -0.4443 H   0  0  0  0  0  0  0  0  0  0  0  0
   -2.6743   -0.7365   -0.9925 H   0  0  0  0  0  0  0  0  0  0  0  0
   -1.2034   -2.6765   -0.3849 H   0  0  0  0  0  0  0  0  0  0  0  0
   -1.7699   -2.4919    1.3817 H   0  0  0  0  0  0  0  0  0  0  0  0
   -0.7994   -0.1047    1.4383 H   0  0  0  0  0  0  0  0  0  0  0  0
   -0.6042    0.6909   -1.2023 H   0  0  0  0  0  0  0  0  0  0  0  0
   -0.1472   -0.9991   -1.4738 H   0  0  0  0  0  0  0  0  0  0  0  0
    1.0566    2.1209    0.0213 H   0  0  0  0  0  0  0  0  0  0  0  0
    1.1525    0.9584    1.4037 H   0  0  0  0  0  0  0  0  0  0  0  0
    4.9870    0.8653   -0.0114 H   0  0  0  0  0  0  0  0  0  0  0  0
    1.8785    0.9051   -2.3359 H   0  0  0  0  0  0  0  0  0  0  0  0
    1.8620   -0.8953   -2.1950 H   0  0  0  0  0  0  0  0  0  0  0  0
  1  2  1  0
  2  3  1  0
  3  4  1  0
  4  5  1  0
  5  6  1  0
  6  7  1  0
  7  8  1  0
  8  9  1  0
  9 10  2  0
  9 11  1  0
 11 12  1  0
 12 13  2  0
 12 14  1  0
  5  3  1  0
 14  7  1  0
  1 15  1  0
  1 16  1  0
  1 17  1  0
  3 18  1  6
  4 19  1  0
  4 20  1  0
  5 21  1  1
  6 22  1  0
  6 23  1  0
  8 24  1  0
  8 25  1  0
 11 26  1  0
 14 27  1  0
 14 28  1  0
M  END
$$$$

     RDKit          3D

 28 29  0  0  0  0  0  0  0  0999 V2000
   -4.2351    1.4093   -0.7408 C   0  0  0  0  0  0  0  0  0  0  0  0
   -3.0663    1.6068   -0.0181 O   0  0  0  0  0  0  0  0  0  0  0  0
   -2.3222    0.4336   -0.0331 C   0  0  2  0  0  0  0  0  0  0  0  0
   -1.6874    0.1179    1.2838 C   0  0  0  0  0  0  0  0  0  0  0  0
   -0.8610    0.3980    0.0609 C   0  0  1  0  0  0  0  0  0  0  0  0
   -0.1272   -0.8287   -0.4579 C   0  0  0  0  0  0  0  0  0  0  0  0
    1.3055   -0.7123   -0.2858 N   0  0  0  0  0  0  0  0  0  0  0  0
    1.9273    0.2737   -1.1424 C   0  0  0  0  0  0  0  0  0  0  0  0
    3.3845   -0.0598   -1.0915 C   0  0  0  0  0  0  0  0  0  0  0  0
    4.0471   -0.3081   -2.1142 O   0  0  0  0  0  0  0  0  0  0  0  0
    3.9317   -0.0680    0.2194 N   0  0  0  0  0  0  0  0  0  0  0  0
    2.9659    0.0980    1.2830 C   0  0  0  0  0  0  0  0  0  0  0  0
    3.3357    0.7349    2.3005 O   0  0  0  0  0  0  0  0  0  0  0  0
    1.6161   -0.4832    1.1138 C   0  0  0  0  0  0  0  0  0  0  0  0
   -3.9829    1.1522   -1.7845 H   0  0  0  0  0  0  0  0  0  0  0  0
   -4.6942    0.4852   -0.3191 H   0  0  0  0  0  0  0  0  0  0  0  0
   -4.9204    2.2714   -0.6572 H   0  0  0  0  0  0  0  0  0  0  0  0
   -2.7951   -0.4030   -0.6065 H   0  0  0  0  0  0  0  0  0  0  0  0
   -1.6569    0.8810    2.0636 H   0  0  0  0  0  0  0  0  0  0  0  0
   -1.8108   -0.9309    1.6319 H   0  0  0  0  0  0  0  0  0  0  0  0
   -0.2845    1.3672    0.0366 H   0  0  0  0  0  0  0  0  0  0  0  0
   -0.4368   -1.7643    0.0572 H   0  0  0  0  0  0  0  0  0  0  0  0
   -0.3499   -0.9587   -1.5213 H   0  0  0  0  0  0  0  0  0  0  0  0
    1.4967    0.2353   -2.1408 H   0  0  0  0  0  0  0  0  0  0  0  0
    1.8324    1.3083   -0.7375 H   0  0  0  0  0  0  0  0  0  0  0  0
    4.9327   -0.1852    0.3903 H   0  0  0  0  0  0  0  0  0  0  0  0
    1.6230   -1.4807    1.5972 H   0  0  0  0  0  0  0  0  0  0  0  0
    0.8324    0.1273    1.6125 H   0  0  0  0  0  0  0  0  0  0  0  0
  1  2  1  0
  2  3  1  0
  3  4  1  0
  4  5  1  0
  5  6  1  0
  6  7  1  0
  7  8  1  0
  8  9  1  0
  9 10  2  0
  9 11  1  0
 11 12  1  0
 12 13  2  0
 12 14  1  0
  5  3  1  0
 14  7  1  0
  1 15  1  0
  1 16  1  0
  1 17  1  0
  3 18  1  6
  4 19  1  0
  4 20  1  0
  5 21  1  1
  6 22  1  0
  6 23  1  0
  8 24  1  0
  8 25  1  0
 11 26  1  0
 14 27  1  0
 14 28  1  0
M  END
$$$$

     RDKit          3D

 28 29  0  0  0  0  0  0  0  0999 V2000
    4.0807    1.2085    1.5178 C   0  0  0  0  0  0  0  0  0  0  0  0
    3.4647    0.6536    0.4050 O   0  0  0  0  0  0  0  0  0  0  0  0
    2.3996   -0.1869    0.7177 C   0  0  2  0  0  0  0  0  0  0  0  0
    2.1177   -1.3692   -0.1486 C   0  0  0  0  0  0  0  0  0  0  0  0
    1.1781   -0.1691   -0.1178 C   0  0  1  0  0  0  0  0  0  0  0  0
   -0.1870   -0.4925    0.4652 C   0  0  0  0  0  0  0  0  0  0  0  0
   -1.1548   -0.3828   -0.5700 N   0  0  0  0  0  0  0  0  0  0  0  0
   -1.4024    0.9271   -1.0398 C   0  0  0  0  0  0  0  0  0  0  0  0
   -2.8297    1.3202   -1.0473 C   0  0  0  0  0  0  0  0  0  0  0  0
   -3.2580    2.2769   -1.7683 O   0  0  0  0  0  0  0  0  0  0  0  0
   -3.7327    0.6027   -0.2263 N   0  0  0  0  0  0  0  0  0  0  0  0
   -3.5103   -0.8058   -0.1039 C   0  0  0  0  0  0  0  0  0  0  0  0
   -4.4182   -1.5501    0.3692 O   0  0  0  0  0  0  0  0  0  0  0  0
   -2.2045   -1.3184   -0.5472 C   0  0  0  0  0  0  0  0  0  0  0  0
    4.9089    1.8477    1.1084 H   0  0  0  0  0  0  0  0  0  0  0  0
    3.4115    1.9395    2.0399 H   0  0  0  0  0  0  0  0  0  0  0  0
    4.5498    0.4799    2.1946 H   0  0  0  0  0  0  0  0  0  0  0  0
    2.2072   -0.2852    1.8115 H   0  0  0  0  0  0  0  0  0  0  0  0
    2.6370   -1.4891   -1.1152 H   0  0  0  0  0  0  0  0  0  0  0  0
    1.7693   -2.3056    0.3327 H   0  0  0  0  0  0  0  0  0  0  0  0
    1.1901    0.5245   -0.9834 H   0  0  0  0  0  0  0  0  0  0  0  0
   -0.3927    0.1809    1.3411 H   0  0  0  0  0  0  0  0  0  0  0  0
   -0.2185   -1.5244    0.9074 H   0  0  0  0  0  0  0  0  0  0  0  0
   -0.9459    1.0472   -2.0459 H   0  0  0  0  0  0  0  0  0  0  0  0
   -0.8956    1.7219   -0.4056 H   0  0  0  0  0  0  0  0  0  0  0  0
   -4.5310    1.0688    0.2718 H   0  0  0  0  0  0  0  0  0  0  0  0
   -2.3496   -1.7315   -1.5811 H   0  0  0  0  0  0  0  0  0  0  0  0
   -1.8837   -2.1888    0.0760 H   0  0  0  0  0  0  0  0  0  0  0  0
  1  2  1  0
  2  3  1  0
  3  4  1  0
  4  5  1  0
  5  6  1  0
  6  7  1  0
  7  8  1  0
  8  9  1  0
  9 10  2  0
  9 11  1  0
 11 12  1  0
 12 13  2  0
 12 14  1  0
  5  3  1  0
 14  7  1  0
  1 15  1  0
  1 16  1  0
  1 17  1  0
  3 18  1  1
  4 19  1  0
  4 20  1  0
  5 21  1  6
  6 22  1  0
  6 23  1  0
  8 24  1  0
  8 25  1  0
 11 26  1  0
 14 27  1  0
 14 28  1  0
M  END
$$$$

     RDKit          3D

 28 29  0  0  0  0  0  0  0  0999 V2000
   -4.4267    0.2243   -0.1318 C   0  0  0  0  0  0  0  0  0  0  0  0
   -3.3657    0.2886    0.7980 O   0  0  0  0  0  0  0  0  0  0  0  0
   -2.3651   -0.5967    0.3493 C   0  0  2  0  0  0  0  0  0  0  0  0
   -1.4735   -1.2627    1.3730 C   0  0  0  0  0  0  0  0  0  0  0  0
   -0.9598   -0.1382    0.5456 C   0  0  1  0  0  0  0  0  0  0  0  0
    0.0071   -0.4499   -0.5505 C   0  0  0  0  0  0  0  0  0  0  0  0
    1.3374   -0.0167   -0.3603 N   0  0  0  0  0  0  0  0  0  0  0  0
    1.6052    1.3639   -0.3634 C   0  0  0  0  0  0  0  0  0  0  0  0
    2.6268    1.8204    0.6023 C   0  0  0  0  0  0  0  0  0  0  0  0
    2.5382    2.9301    1.2158 O   0  0  0  0  0  0  0  0  0  0  0  0
    3.7399    0.9615    0.8303 N   0  0  0  0  0  0  0  0  0  0  0  0
    3.5339   -0.4184    0.5073 C   0  0  0  0  0  0  0  0  0  0  0  0
    4.5003   -1.1817    0.3073 O   0  0  0  0  0  0  0  0  0  0  0  0
    2.1363   -0.8746    0.4275 C   0  0  0  0  0  0  0  0  0  0  0  0
   -5.2311    0.8992    0.1802 H   0  0  0  0  0  0  0  0  0  0  0  0
   -4.7487   -0.8317   -0.2802 H   0  0  0  0  0  0  0  0  0  0  0  0
   -4.0400    0.5349   -1.1430 H   0  0  0  0  0  0  0  0  0  0  0  0
   -2.5759   -1.1466   -0.5832 H   0  0  0  0  0  0  0  0  0  0  0  0
   -1.1649   -2.2872    1.1709 H   0  0  0  0  0  0  0  0  0  0  0  0
   -1.7293   -1.0465    2.4384 H   0  0  0  0  0  0  0  0  0  0  0  0
   -0.8150    0.8311    1.0806 H   0  0  0  0  0  0  0  0  0  0  0  0
   -0.3712   -0.0306   -1.5160 H   0  0  0  0  0  0  0  0  0  0  0  0
    0.0381   -1.5601   -0.7299 H   0  0  0  0  0  0  0  0  0  0  0  0
    0.7003    2.0066   -0.2330 H   0  0  0  0  0  0  0  0  0  0  0  0
    1.9741    1.6386   -1.3961 H   0  0  0  0  0  0  0  0  0  0  0  0
    4.6350    1.3148    1.2058 H   0  0  0  0  0  0  0  0  0  0  0  0
    1.7325   -1.0923    1.4357 H   0  0  0  0  0  0  0  0  0  0  0  0
    2.1615   -1.8800   -0.0886 H   0  0  0  0  0  0  0  0  0  0  0  0
  1  2  1  0
  2  3  1  0
  3  4  1  0
  4  5  1  0
  5  6  1  0
  6  7  1  0
  7  8  1  0
  8  9  1  0
  9 10  2  0
  9 11  1  0
 11 12  1  0
 12 13  2  0
 12 14  1  0
  5  3  1  0
 14  7  1  0
  1 15  1  0
  1 16  1  0
  1 17  1  0
  3 18  1  6
  4 19  1  0
  4 20  1  0
  5 21  1  1
  6 22  1  0
  6 23  1  0
  8 24  1  0
  8 25  1  0
 11 26  1  0
 14 27  1  0
 14 28  1  0
M  END
$$$$

     RDKit          3D

 28 29  0  0  0  0  0  0  0  0999 V2000
    4.3757   -0.4568   -0.4450 C   0  0  0  0  0  0  0  0  0  0  0  0
    3.1243   -1.0261   -0.4458 O   0  0  0  0  0  0  0  0  0  0  0  0
    2.2233   -0.4293    0.4132 C   0  0  2  0  0  0  0  0  0  0  0  0
    1.2124   -1.2195    1.1568 C   0  0  0  0  0  0  0  0  0  0  0  0
    0.7938   -0.2717    0.0547 C   0  0  1  0  0  0  0  0  0  0  0  0
    0.0514    0.9879    0.4670 C   0  0  0  0  0  0  0  0  0  0  0  0
   -1.2762    0.9333    0.0336 N   0  0  0  0  0  0  0  0  0  0  0  0
   -1.5705    0.9909   -1.3372 C   0  0  0  0  0  0  0  0  0  0  0  0
   -2.5952   -0.0752   -1.6328 C   0  0  0  0  0  0  0  0  0  0  0  0
   -2.9727   -0.2666   -2.8196 O   0  0  0  0  0  0  0  0  0  0  0  0
   -3.1554   -0.8816   -0.5982 N   0  0  0  0  0  0  0  0  0  0  0  0
   -3.0953   -0.3802    0.7316 C   0  0  0  0  0  0  0  0  0  0  0  0
   -3.6421   -0.9347    1.6951 O   0  0  0  0  0  0  0  0  0  0  0  0
   -2.3269    0.8855    0.9631 C   0  0  0  0  0  0  0  0  0  0  0  0
    4.9963   -1.0303   -1.1725 H   0  0  0  0  0  0  0  0  0  0  0  0
    4.2896    0.5728   -0.8709 H   0  0  0  0  0  0  0  0  0  0  0  0
    4.8966   -0.4491    0.5052 H   0  0  0  0  0  0  0  0  0  0  0  0
    2.6617    0.4249    0.9728 H   0  0  0  0  0  0  0  0  0  0  0  0
    1.1267   -2.3242    0.9592 H   0  0  0  0  0  0  0  0  0  0  0  0
    0.9821   -0.9535    2.2086 H   0  0  0  0  0  0  0  0  0  0  0  0
    0.4008   -0.6989   -0.8895 H   0  0  0  0  0  0  0  0  0  0  0  0
    0.0607    1.1084    1.5813 H   0  0  0  0  0  0  0  0  0  0  0  0
    0.5627    1.9105    0.0766 H   0  0  0  0  0  0  0  0  0  0  0  0
   -1.9053    1.9726   -1.6877 H   0  0  0  0  0  0  0  0  0  0  0  0
   -0.6833    0.7018   -1.9396 H   0  0  0  0  0  0  0  0  0  0  0  0
   -3.6052   -1.8247   -0.7940 H   0  0  0  0  0  0  0  0  0  0  0  0
   -2.9981    1.7753    0.8278 H   0  0  0  0  0  0  0  0  0  0  0  0
   -1.9318    0.9585    1.9862 H   0  0  0  0  0  0  0  0  0  0  0  0
  1  2  1  0
  2  3  1  0
  3  4  1  0
  4  5  1  0
  5  6  1  0
  6  7  1  0
  7  8  1  0
  8  9  1  0
  9 10  2  0
  9 11  1  0
 11 12  1  0
 12 13  2  0
 12 14  1  0
  5  3  1  0
 14  7  1  0
  1 15  1  0
  1 16  1  0
  1 17  1  0
  3 18  1  1
  4 19  1  0
  4 20  1  0
  5 21  1  6
  6 22  1  0
  6 23  1  0
  8 24  1  0
  8 25  1  0
 11 26  1  0
 14 27  1  0
 14 28  1  0
M  END
$$$$

     RDKit          3D

 28 29  0  0  0  0  0  0  0  0999 V2000
    4.4212   -0.5569   -0.3524 C   0  0  0  0  0  0  0  0  0  0  0  0
    3.2740   -1.1688    0.0873 O   0  0  0  0  0  0  0  0  0  0  0  0
    2.3787   -0.3071    0.7096 C   0  0  2  0  0  0  0  0  0  0  0  0
    1.4807   -0.7906    1.7820 C   0  0  0  0  0  0  0  0  0  0  0  0
    0.9218   -0.5878    0.4114 C   0  0  1  0  0  0  0  0  0  0  0  0
    0.1064    0.6574    0.1247 C   0  0  0  0  0  0  0  0  0  0  0  0
   -1.2567    0.3826   -0.1526 N   0  0  0  0  0  0  0  0  0  0  0  0
   -1.5536   -0.2922   -1.3699 C   0  0  0  0  0  0  0  0  0  0  0  0
   -2.9051   -0.9068   -1.2150 C   0  0  0  0  0  0  0  0  0  0  0  0
   -3.2280   -1.9257   -1.8452 O   0  0  0  0  0  0  0  0  0  0  0  0
   -3.8354   -0.3023   -0.3224 N   0  0  0  0  0  0  0  0  0  0  0  0
   -3.4952    1.0016    0.1658 C   0  0  0  0  0  0  0  0  0  0  0  0
   -4.3068    1.7371    0.7723 O   0  0  0  0  0  0  0  0  0  0  0  0
   -2.1048    1.5476   -0.0415 C   0  0  0  0  0  0  0  0  0  0  0  0
    5.0478   -1.3704   -0.8250 H   0  0  0  0  0  0  0  0  0  0  0  0
    5.0105   -0.0980    0.4499 H   0  0  0  0  0  0  0  0  0  0  0  0
    4.2195    0.1487   -1.2023 H   0  0  0  0  0  0  0  0  0  0  0  0
    2.7276    0.7342    0.7587 H   0  0  0  0  0  0  0  0  0  0  0  0
    1.1443   -0.0717    2.5406 H   0  0  0  0  0  0  0  0  0  0  0  0
    1.5554   -1.8232    2.1746 H   0  0  0  0  0  0  0  0  0  0  0  0
    0.6691   -1.4990   -0.1399 H   0  0  0  0  0  0  0  0  0  0  0  0
    0.1465    1.2758    1.0471 H   0  0  0  0  0  0  0  0  0  0  0  0
    0.6299    1.2504   -0.6569 H   0  0  0  0  0  0  0  0  0  0  0  0
   -1.6684    0.4490   -2.2141 H   0  0  0  0  0  0  0  0  0  0  0  0
   -0.7937   -1.0046   -1.7026 H   0  0  0  0  0  0  0  0  0  0  0  0
   -4.7285   -0.7538   -0.0154 H   0  0  0  0  0  0  0  0  0  0  0  0
   -1.8025    2.1927    0.7882 H   0  0  0  0  0  0  0  0  0  0  0  0
   -2.0546    2.0817   -1.0217 H   0  0  0  0  0  0  0  0  0  0  0  0
  1  2  1  0
  2  3  1  0
  3  4  1  0
  4  5  1  0
  5  6  1  0
  6  7  1  0
  7  8  1  0
  8  9  1  0
  9 10  2  0
  9 11  1  0
 11 12  1  0
 12 13  2  0
 12 14  1  0
  5  3  1  0
 14  7  1  0
  1 15  1  0
  1 16  1  0
  1 17  1  0
  3 18  1  1
  4 19  1  0
  4 20  1  0
  5 21  1  6
  6 22  1  0
  6 23  1  0
  8 24  1  0
  8 25  1  0
 11 26  1  0
 14 27  1  0
 14 28  1  0
M  END
$$$$
