
     RDKit          3D

 24 25  0  0  0  0  0  0  0  0999 V2000
   -3.7975   -0.2250   -0.8935 C   0  0  0  0  0  0  0  0  0  0  0  0
   -2.4882   -0.1891   -0.1673 C   0  0  0  0  0  0  0  0  0  0  0  0
   -1.3841   -0.8867   -0.4954 N   0  0  0  0  0  0  0  0  0  0  0  0
   -0.3936   -0.6141    0.3711 C   0  0  0  0  0  0  0  0  0  0  0  0
    0.9749   -1.1985    0.3266 C   0  0  0  0  0  0  0  0  0  0  0  0
    1.8826   -0.3983   -0.4742 N   0  0  0  0  0  0  0  0  0  0  0  0
    3.1324   -0.3160   -0.1668 C   0  0  0  0  0  0  0  0  0  0  0  0
    3.7794   -0.8982    0.8564 N   0  0  0  0  0  0  0  0  0  0  0  0
    5.0759   -0.5525    0.8152 N   0  0  0  0  0  0  0  0  0  0  0  0
    5.2108    0.2445   -0.2416 N   0  0  0  0  0  0  0  0  0  0  0  0
    4.0419    0.3997   -0.8502 N   0  0  0  0  0  0  0  0  0  0  0  0
   -0.9100    0.2681    1.2429 N   0  0  0  0  0  0  0  0  0  0  0  0
   -2.1710    0.5280    0.9240 N   0  0  0  0  0  0  0  0  0  0  0  0
   -3.0731    1.4284    1.6192 C   0  0  0  0  0  0  0  0  0  0  0  0
   -4.1680    0.7928   -1.1285 H   0  0  0  0  0  0  0  0  0  0  0  0
   -3.6762   -0.8092   -1.8166 H   0  0  0  0  0  0  0  0  0  0  0  0
   -4.5693   -0.7584   -0.2812 H   0  0  0  0  0  0  0  0  0  0  0  0
    1.4068   -1.2684    1.3660 H   0  0  0  0  0  0  0  0  0  0  0  0
    0.9763   -2.2378   -0.0660 H   0  0  0  0  0  0  0  0  0  0  0  0
    6.1019    0.6837   -0.5489 H   0  0  0  0  0  0  0  0  0  0  0  0
    3.9196    0.9907   -1.7089 H   0  0  0  0  0  0  0  0  0  0  0  0
   -3.8425    1.8596    0.9547 H   0  0  0  0  0  0  0  0  0  0  0  0
   -3.5645    0.9129    2.4833 H   0  0  0  0  0  0  0  0  0  0  0  0
   -2.4648    2.2440    2.0776 H   0  0  0  0  0  0  0  0  0  0  0  0
  1  2  1  0
  2  3  2  0
  3  4  1  0
  4  5  1  0
  5  6  1  0
  6  7  2  3
  7  8  1  0
  8  9  2  0
  9 10  1  0
 10 11  1  0
  4 12  2  0
 12 13  1  0
 13 14  1  0
 13  2  1  0
 11  7  1  0
  1 15  1  0
  1 16  1  0
  1 17  1  0
  5 18  1  0
  5 19  1  0
 10 20  1  0
 11 21  1  0
 14 22  1  0
 14 23  1  0
 14 24  1  0
M  END
$$$$

     RDKit          3D

 24 25  0  0  0  0  0  0  0  0999 V2000
    4.0100    0.8953   -0.1185 C   0  0  0  0  0  0  0  0  0  0  0  0
    2.5896    0.4748   -0.0231 C   0  0  0  0  0  0  0  0  0  0  0  0
    1.5339    1.2812    0.1964 N   0  0  0  0  0  0  0  0  0  0  0  0
    0.4253    0.5457    0.2167 C   0  0  0  0  0  0  0  0  0  0  0  0
   -0.9529    1.0581    0.4315 C   0  0  0  0  0  0  0  0  0  0  0  0
   -1.8987   -0.0401    0.3864 N   0  0  0  0  0  0  0  0  0  0  0  0
   -3.1690    0.2060    0.2642 C   0  0  0  0  0  0  0  0  0  0  0  0
   -3.7813    1.3996    0.1668 N   0  0  0  0  0  0  0  0  0  0  0  0
   -5.0779    1.1614    0.0596 N   0  0  0  0  0  0  0  0  0  0  0  0
   -5.3220   -0.1383    0.0844 N   0  0  0  0  0  0  0  0  0  0  0  0
   -4.1418   -0.7195    0.2105 N   0  0  0  0  0  0  0  0  0  0  0  0
    0.8062   -0.7260    0.0072 N   0  0  0  0  0  0  0  0  0  0  0  0
    2.1194   -0.7680   -0.1382 N   0  0  0  0  0  0  0  0  0  0  0  0
    2.9020   -1.9712   -0.3814 C   0  0  0  0  0  0  0  0  0  0  0  0
    4.6565    0.3774    0.6181 H   0  0  0  0  0  0  0  0  0  0  0  0
    4.3948    0.7768   -1.1674 H   0  0  0  0  0  0  0  0  0  0  0  0
    4.0969    1.9791    0.1020 H   0  0  0  0  0  0  0  0  0  0  0  0
   -1.0002    1.5247    1.4549 H   0  0  0  0  0  0  0  0  0  0  0  0
   -1.2454    1.8041   -0.3477 H   0  0  0  0  0  0  0  0  0  0  0  0
   -6.2780   -0.5571    0.0140 H   0  0  0  0  0  0  0  0  0  0  0  0
   -3.9966   -1.7542    0.2605 H   0  0  0  0  0  0  0  0  0  0  0  0
    3.8330   -1.9126    0.2467 H   0  0  0  0  0  0  0  0  0  0  0  0
    2.2916   -2.8539   -0.1101 H   0  0  0  0  0  0  0  0  0  0  0  0
    3.2046   -2.0432   -1.4629 H   0  0  0  0  0  0  0  0  0  0  0  0
  1  2  1  0
  2  3  2  0
  3  4  1  0
  4  5  1  0
  5  6  1  0
  6  7  2  3
  7  8  1  0
  8  9  2  0
  9 10  1  0
 10 11  1  0
  4 12  2  0
 12 13  1  0
 13 14  1  0
 13  2  1  0
 11  7  1  0
  1 15  1  0
  1 16  1  0
  1 17  1  0
  5 18  1  0
  5 19  1  0
 10 20  1  0
 11 21  1  0
 14 22  1  0
 14 23  1  0
 14 24  1  0
M  END
$$$$

     RDKit          3D

 24 25  0  0  0  0  0  0  0  0999 V2000
   -3.6746    1.0251   -0.8106 C   0  0  0  0  0  0  0  0  0  0  0  0
   -2.4374    0.4556   -0.2600 C   0  0  0  0  0  0  0  0  0  0  0  0
   -1.2933    1.1191   -0.0054 N   0  0  0  0  0  0  0  0  0  0  0  0
   -0.3760    0.2730    0.4935 C   0  0  0  0  0  0  0  0  0  0  0  0
    1.0325    0.5678    0.9186 C   0  0  0  0  0  0  0  0  0  0  0  0
    1.8912    0.3853   -0.2184 N   0  0  0  0  0  0  0  0  0  0  0  0
    3.1748    0.3185   -0.1614 C   0  0  0  0  0  0  0  0  0  0  0  0
    4.0166    0.3916    0.8718 N   0  0  0  0  0  0  0  0  0  0  0  0
    5.2682    0.2701    0.4464 N   0  0  0  0  0  0  0  0  0  0  0  0
    5.2150    0.1179   -0.8761 N   0  0  0  0  0  0  0  0  0  0  0  0
    3.9453    0.1466   -1.2511 N   0  0  0  0  0  0  0  0  0  0  0  0
   -0.9780   -0.9296    0.5421 N   0  0  0  0  0  0  0  0  0  0  0  0
   -2.2200   -0.8380    0.0920 N   0  0  0  0  0  0  0  0  0  0  0  0
   -3.2231   -1.8806   -0.0326 C   0  0  0  0  0  0  0  0  0  0  0  0
   -3.4902    1.4277   -1.8396 H   0  0  0  0  0  0  0  0  0  0  0  0
   -4.1028    1.8313   -0.1724 H   0  0  0  0  0  0  0  0  0  0  0  0
   -4.4460    0.2479   -0.9212 H   0  0  0  0  0  0  0  0  0  0  0  0
    1.0829    1.6121    1.2788 H   0  0  0  0  0  0  0  0  0  0  0  0
    1.3576   -0.1004    1.7365 H   0  0  0  0  0  0  0  0  0  0  0  0
    6.0737    0.0004   -1.4589 H   0  0  0  0  0  0  0  0  0  0  0  0
    3.6051    0.0502   -2.2379 H   0  0  0  0  0  0  0  0  0  0  0  0
   -3.6518   -1.8370   -1.0726 H   0  0  0  0  0  0  0  0  0  0  0  0
   -2.7428   -2.8824    0.1092 H   0  0  0  0  0  0  0  0  0  0  0  0
   -4.0269   -1.7722    0.7328 H   0  0  0  0  0  0  0  0  0  0  0  0
  1  2  1  0
  2  3  2  0
  3  4  1  0
  4  5  1  0
  5  6  1  0
  6  7  2  3
  7  8  1  0
  8  9  2  0
  9 10  1  0
 10 11  1  0
  4 12  2  0
 12 13  1  0
 13 14  1  0
 13  2  1  0
 11  7  1  0
  1 15  1  0
  1 16  1  0
  1 17  1  0
  5 18  1  0
  5 19  1  0
 10 20  1  0
 11 21  1  0
 14 22  1  0
 14 23  1  0
 14 24  1  0
M  END
$$$$

     RDKit          3D

 24 25  0  0  0  0  0  0  0  0999 V2000
   -3.4683    1.5481    0.5665 C   0  0  0  0  0  0  0  0  0  0  0  0
   -2.3122    0.7138    0.1283 C   0  0  0  0  0  0  0  0  0  0  0  0
   -1.0064    1.0414    0.1754 N   0  0  0  0  0  0  0  0  0  0  0  0
   -0.2610    0.0262   -0.3108 C   0  0  0  0  0  0  0  0  0  0  0  0
    1.1996   -0.0420   -0.4437 C   0  0  0  0  0  0  0  0  0  0  0  0
    1.8619   -0.5874    0.7186 N   0  0  0  0  0  0  0  0  0  0  0  0
    3.1376   -0.5002    0.7979 C   0  0  0  0  0  0  0  0  0  0  0  0
    3.9279   -0.9541    1.8111 N   0  0  0  0  0  0  0  0  0  0  0  0
    5.1933   -0.6579    1.4914 N   0  0  0  0  0  0  0  0  0  0  0  0
    5.2249   -0.0393    0.3232 N   0  0  0  0  0  0  0  0  0  0  0  0
    3.9674    0.0445   -0.0770 N   0  0  0  0  0  0  0  0  0  0  0  0
   -1.1558   -0.9310   -0.6559 N   0  0  0  0  0  0  0  0  0  0  0  0
   -2.3770   -0.5272   -0.3968 N   0  0  0  0  0  0  0  0  0  0  0  0
   -3.6204   -1.2677   -0.6246 C   0  0  0  0  0  0  0  0  0  0  0  0
   -3.9292    2.0039   -0.3459 H   0  0  0  0  0  0  0  0  0  0  0  0
   -4.2342    0.9568    1.0791 H   0  0  0  0  0  0  0  0  0  0  0  0
   -3.0973    2.4038    1.1666 H   0  0  0  0  0  0  0  0  0  0  0  0
    1.5005   -0.6740   -1.3174 H   0  0  0  0  0  0  0  0  0  0  0  0
    1.6575    0.9746   -0.6144 H   0  0  0  0  0  0  0  0  0  0  0  0
    6.0197    0.3364   -0.2375 H   0  0  0  0  0  0  0  0  0  0  0  0
    3.6417    0.4868   -0.9792 H   0  0  0  0  0  0  0  0  0  0  0  0
   -3.5844   -1.7339   -1.6511 H   0  0  0  0  0  0  0  0  0  0  0  0
   -3.7970   -2.0323    0.1312 H   0  0  0  0  0  0  0  0  0  0  0  0
   -4.4887   -0.5893   -0.6392 H   0  0  0  0  0  0  0  0  0  0  0  0
  1  2  1  0
  2  3  2  0
  3  4  1  0
  4  5  1  0
  5  6  1  0
  6  7  2  3
  7  8  1  0
  8  9  2  0
  9 10  1  0
 10 11  1  0
  4 12  2  0
 12 13  1  0
 13 14  1  0
 13  2  1  0
 11  7  1  0
  1 15  1  0
  1 16  1  0
  1 17  1  0
  5 18  1  0
  5 19  1  0
 10 20  1  0
 11 21  1  0
 14 22  1  0
 14 23  1  0
 14 24  1  0
M  END
$$$$

     RDKit          3D

 24 25  0  0  0  0  0  0  0  0999 V2000
   -3.1460    1.9638   -0.7786 C   0  0  0  0  0  0  0  0  0  0  0  0
   -2.1403    0.8921   -0.5459 C   0  0  0  0  0  0  0  0  0  0  0  0
   -0.7903    0.9864   -0.5555 N   0  0  0  0  0  0  0  0  0  0  0  0
   -0.2612   -0.2142   -0.2994 C   0  0  0  0  0  0  0  0  0  0  0  0
    1.1618   -0.5485   -0.2184 C   0  0  0  0  0  0  0  0  0  0  0  0
    1.7007   -0.4001    1.1339 N   0  0  0  0  0  0  0  0  0  0  0  0
    2.9949   -0.3528    1.2425 C   0  0  0  0  0  0  0  0  0  0  0  0
    3.6755   -0.2194    2.4026 N   0  0  0  0  0  0  0  0  0  0  0  0
    4.9649   -0.2124    2.1038 N   0  0  0  0  0  0  0  0  0  0  0  0
    5.1416   -0.3359    0.7999 N   0  0  0  0  0  0  0  0  0  0  0  0
    3.9234   -0.4204    0.2903 N   0  0  0  0  0  0  0  0  0  0  0  0
   -1.3089   -1.0437   -0.1332 N   0  0  0  0  0  0  0  0  0  0  0  0
   -2.4449   -0.3799   -0.2812 N   0  0  0  0  0  0  0  0  0  0  0  0
   -3.7731   -0.9349   -0.1749 C   0  0  0  0  0  0  0  0  0  0  0  0
   -3.9969    1.5650   -1.3981 H   0  0  0  0  0  0  0  0  0  0  0  0
   -3.4985    2.4298    0.1587 H   0  0  0  0  0  0  0  0  0  0  0  0
   -2.7151    2.7959   -1.3997 H   0  0  0  0  0  0  0  0  0  0  0  0
    1.3943   -1.5631   -0.6137 H   0  0  0  0  0  0  0  0  0  0  0  0
    1.7397    0.1716   -0.8684 H   0  0  0  0  0  0  0  0  0  0  0  0
    6.0318   -0.3646    0.2529 H   0  0  0  0  0  0  0  0  0  0  0  0
    3.7133   -0.5282   -0.7443 H   0  0  0  0  0  0  0  0  0  0  0  0
   -3.7071   -2.0302    0.0631 H   0  0  0  0  0  0  0  0  0  0  0  0
   -4.3439   -0.8279   -1.1089 H   0  0  0  0  0  0  0  0  0  0  0  0
   -4.3157   -0.4283    0.6725 H   0  0  0  0  0  0  0  0  0  0  0  0
  1  2  1  0
  2  3  2  0
  3  4  1  0
  4  5  1  0
  5  6  1  0
  6  7  2  3
  7  8  1  0
  8  9  2  0
  9 10  1  0
 10 11  1  0
  4 12  2  0
 12 13  1  0
 13 14  1  0
 13  2  1  0
 11  7  1  0
  1 15  1  0
  1 16  1  0
  1 17  1  0
  5 18  1  0
  5 19  1  0
 10 20  1  0
 11 21  1  0
 14 22  1  0
 14 23  1  0
 14 24  1  0
M  END
$$$$

     RDKit          3D

 24 25  0  0  0  0  0  0  0  0999 V2000
   -2.6137    1.8713   -0.8689 C   0  0  0  0  0  0  0  0  0  0  0  0
   -1.8524    0.7144   -0.3260 C   0  0  0  0  0  0  0  0  0  0  0  0
   -0.6515    0.7109    0.3004 N   0  0  0  0  0  0  0  0  0  0  0  0
   -0.2966   -0.5319    0.6423 C   0  0  0  0  0  0  0  0  0  0  0  0
    0.9385   -0.9800    1.3427 C   0  0  0  0  0  0  0  0  0  0  0  0
    1.9797   -1.2831    0.3895 N   0  0  0  0  0  0  0  0  0  0  0  0
    2.8323   -0.3993    0.0085 C   0  0  0  0  0  0  0  0  0  0  0  0
    2.8461    0.8677    0.4443 N   0  0  0  0  0  0  0  0  0  0  0  0
    3.8404    1.4996   -0.1408 N   0  0  0  0  0  0  0  0  0  0  0  0
    4.4501    0.6388   -0.9401 N   0  0  0  0  0  0  0  0  0  0  0  0
    3.8444   -0.5311   -0.8607 N   0  0  0  0  0  0  0  0  0  0  0  0
   -1.2983   -1.3289    0.2208 N   0  0  0  0  0  0  0  0  0  0  0  0
   -2.2335   -0.5748   -0.3618 N   0  0  0  0  0  0  0  0  0  0  0  0
   -3.4794   -1.0527   -0.9509 C   0  0  0  0  0  0  0  0  0  0  0  0
   -1.8454    2.6236   -1.2100 H   0  0  0  0  0  0  0  0  0  0  0  0
   -3.2022    2.3753   -0.0915 H   0  0  0  0  0  0  0  0  0  0  0  0
   -3.2337    1.5701   -1.7351 H   0  0  0  0  0  0  0  0  0  0  0  0
    1.2627   -0.2295    2.1077 H   0  0  0  0  0  0  0  0  0  0  0  0
    0.7300   -1.9280    1.8946 H   0  0  0  0  0  0  0  0  0  0  0  0
    5.2829    0.9191   -1.5181 H   0  0  0  0  0  0  0  0  0  0  0  0
    4.1248   -1.4062   -1.3975 H   0  0  0  0  0  0  0  0  0  0  0  0
   -4.3273   -0.3913   -0.6532 H   0  0  0  0  0  0  0  0  0  0  0  0
   -3.6916   -2.0843   -0.5831 H   0  0  0  0  0  0  0  0  0  0  0  0
   -3.4065   -1.0696   -2.0501 H   0  0  0  0  0  0  0  0  0  0  0  0
  1  2  1  0
  2  3  2  0
  3  4  1  0
  4  5  1  0
  5  6  1  0
  6  7  2  3
  7  8  1  0
  8  9  2  0
  9 10  1  0
 10 11  1  0
  4 12  2  0
 12 13  1  0
 13 14  1  0
 13  2  1  0
 11  7  1  0
  1 15  1  0
  1 16  1  0
  1 17  1  0
  5 18  1  0
  5 19  1  0
 10 20  1  0
 11 21  1  0
 14 22  1  0
 14 23  1  0
 14 24  1  0
M  END
$$$$

     RDKit          3D

 24 25  0  0  0  0  0  0  0  0999 V2000
   -2.1933    0.3409    2.2308 C   0  0  0  0  0  0  0  0  0  0  0  0
   -1.5839   -0.1047    0.9262 C   0  0  0  0  0  0  0  0  0  0  0  0
   -0.3200   -0.5107    0.7173 N   0  0  0  0  0  0  0  0  0  0  0  0
   -0.1559   -0.8263   -0.5766 C   0  0  0  0  0  0  0  0  0  0  0  0
    1.0957   -1.3224   -1.2365 C   0  0  0  0  0  0  0  0  0  0  0  0
    1.8829   -0.2105   -1.7234 N   0  0  0  0  0  0  0  0  0  0  0  0
    2.7594    0.3782   -0.9643 C   0  0  0  0  0  0  0  0  0  0  0  0
    3.5245    1.4087   -1.3369 N   0  0  0  0  0  0  0  0  0  0  0  0
    4.2824    1.7397   -0.3234 N   0  0  0  0  0  0  0  0  0  0  0  0
    4.0145    0.9405    0.6855 N   0  0  0  0  0  0  0  0  0  0  0  0
    3.0794    0.0969    0.3075 N   0  0  0  0  0  0  0  0  0  0  0  0
   -1.3434   -0.6077   -1.1651 N   0  0  0  0  0  0  0  0  0  0  0  0
   -2.2081   -0.1723   -0.2625 N   0  0  0  0  0  0  0  0  0  0  0  0
   -3.6057    0.1794   -0.5004 C   0  0  0  0  0  0  0  0  0  0  0  0
   -1.3589    0.7307    2.8749 H   0  0  0  0  0  0  0  0  0  0  0  0
   -2.9095    1.1754    2.0329 H   0  0  0  0  0  0  0  0  0  0  0  0
   -2.6595   -0.5043    2.7641 H   0  0  0  0  0  0  0  0  0  0  0  0
    1.6742   -1.8568   -0.4583 H   0  0  0  0  0  0  0  0  0  0  0  0
    0.8089   -1.9814   -2.0800 H   0  0  0  0  0  0  0  0  0  0  0  0
    4.4777    0.9813    1.6285 H   0  0  0  0  0  0  0  0  0  0  0  0
    2.6482   -0.6651    0.8807 H   0  0  0  0  0  0  0  0  0  0  0  0
   -3.8911   -0.2108   -1.5015 H   0  0  0  0  0  0  0  0  0  0  0  0
   -3.7430    1.2824   -0.5468 H   0  0  0  0  0  0  0  0  0  0  0  0
   -4.2754   -0.2812    0.2419 H   0  0  0  0  0  0  0  0  0  0  0  0
  1  2  1  0
  2  3  2  0
  3  4  1  0
  4  5  1  0
  5  6  1  0
  6  7  2  3
  7  8  1  0
  8  9  2  0
  9 10  1  0
 10 11  1  0
  4 12  2  0
 12 13  1  0
 13 14  1  0
 13  2  1  0
 11  7  1  0
  1 15  1  0
  1 16  1  0
  1 17  1  0
  5 18  1  0
  5 19  1  0
 10 20  1  0
 11 21  1  0
 14 22  1  0
 14 23  1  0
 14 24  1  0
M  END
$$$$

     RDKit          3D

 24 25  0  0  0  0  0  0  0  0999 V2000
   -3.3622    0.3074    1.3483 C   0  0  0  0  0  0  0  0  0  0  0  0
   -2.0703   -0.0904    0.6855 C   0  0  0  0  0  0  0  0  0  0  0  0
   -1.1556   -0.9426    1.1716 N   0  0  0  0  0  0  0  0  0  0  0  0
   -0.1250   -1.0675    0.3209 C   0  0  0  0  0  0  0  0  0  0  0  0
    1.0835   -1.9225    0.5095 C   0  0  0  0  0  0  0  0  0  0  0  0
    1.9601   -1.7891   -0.6155 N   0  0  0  0  0  0  0  0  0  0  0  0
    2.7846   -0.7674   -0.7261 C   0  0  0  0  0  0  0  0  0  0  0  0
    3.6449   -0.5399   -1.7281 N   0  0  0  0  0  0  0  0  0  0  0  0
    4.2796    0.5843   -1.4561 N   0  0  0  0  0  0  0  0  0  0  0  0
    3.8350    1.0633   -0.3074 N   0  0  0  0  0  0  0  0  0  0  0  0
    2.9216    0.2421    0.1435 N   0  0  0  0  0  0  0  0  0  0  0  0
   -0.4279   -0.2610   -0.7178 N   0  0  0  0  0  0  0  0  0  0  0  0
   -1.5930    0.3257   -0.5017 N   0  0  0  0  0  0  0  0  0  0  0  0
   -2.2930    1.2744   -1.3702 C   0  0  0  0  0  0  0  0  0  0  0  0
   -4.1257   -0.4837    1.2438 H   0  0  0  0  0  0  0  0  0  0  0  0
   -3.7276    1.2546    0.9498 H   0  0  0  0  0  0  0  0  0  0  0  0
   -3.1847    0.4321    2.4347 H   0  0  0  0  0  0  0  0  0  0  0  0
    0.8305   -2.9640    0.7273 H   0  0  0  0  0  0  0  0  0  0  0  0
    1.6594   -1.5537    1.4087 H   0  0  0  0  0  0  0  0  0  0  0  0
    4.1596    1.9588    0.1707 H   0  0  0  0  0  0  0  0  0  0  0  0
    2.3669    0.3383    1.0464 H   0  0  0  0  0  0  0  0  0  0  0  0
   -1.9191    1.2375   -2.4034 H   0  0  0  0  0  0  0  0  0  0  0  0
   -2.1656    2.3078   -0.9682 H   0  0  0  0  0  0  0  0  0  0  0  0
   -3.3761    1.0555   -1.3664 H   0  0  0  0  0  0  0  0  0  0  0  0
  1  2  1  0
  2  3  2  0
  3  4  1  0
  4  5  1  0
  5  6  1  0
  6  7  2  3
  7  8  1  0
  8  9  2  0
  9 10  1  0
 10 11  1  0
  4 12  2  0
 12 13  1  0
 13 14  1  0
 13  2  1  0
 11  7  1  0
  1 15  1  0
  1 16  1  0
  1 17  1  0
  5 18  1  0
  5 19  1  0
 10 20  1  0
 11 21  1  0
 14 22  1  0
 14 23  1  0
 14 24  1  0
M  END
$$$$
