
     RDKit          3D

 27 28  0  0  0  0  0  0  0  0999 V2000
    4.9198   -0.2354    0.3540 C   0  0  0  0  0  0  0  0  0  0  0  0
    3.6383   -0.2012   -0.3062 N   0  0  0  0  0  0  0  0  0  0  0  0
    3.4398   -0.4996   -1.6007 C   0  0  0  0  0  0  0  0  0  0  0  0
    2.1207   -0.3526   -1.8223 N   0  0  0  0  0  0  0  0  0  0  0  0
    1.4977    0.0311   -0.6931 C   0  0  0  0  0  0  0  0  0  0  0  0
    0.0254    0.2809   -0.5596 C   0  0  0  0  0  0  0  0  0  0  0  0
   -0.6097   -0.6435    0.3074 N   0  0  0  0  0  0  0  0  0  0  0  0
   -2.0028   -0.4253    0.4113 C   0  0  2  0  0  0  0  0  0  0  0  0
   -2.8031   -0.6161   -0.8341 C   0  0  0  0  0  0  0  0  0  0  0  0
   -4.0687    0.0347   -0.4987 N   0  0  0  0  0  0  0  0  0  0  0  0
   -3.8738    0.8998    0.6002 C   0  0  0  0  0  0  0  0  0  0  0  0
   -4.7443    1.4806    1.2499 O   0  0  0  0  0  0  0  0  0  0  0  0
   -2.4144    0.9738    0.8186 C   0  0  0  0  0  0  0  0  0  0  0  0
    2.4566    0.1195    0.2363 N   0  0  0  0  0  0  0  0  0  0  0  0
    4.8312   -0.6954    1.3629 H   0  0  0  0  0  0  0  0  0  0  0  0
    5.4075    0.7759    0.4138 H   0  0  0  0  0  0  0  0  0  0  0  0
    5.5997   -0.8738   -0.2394 H   0  0  0  0  0  0  0  0  0  0  0  0
    4.2025   -0.8036   -2.3283 H   0  0  0  0  0  0  0  0  0  0  0  0
   -0.0689    1.2976   -0.0852 H   0  0  0  0  0  0  0  0  0  0  0  0
   -0.4565    0.2513   -1.5503 H   0  0  0  0  0  0  0  0  0  0  0  0
   -0.1266   -0.7826    1.2105 H   0  0  0  0  0  0  0  0  0  0  0  0
   -2.4545   -1.0885    1.1945 H   0  0  0  0  0  0  0  0  0  0  0  0
   -2.4032   -0.0866   -1.7095 H   0  0  0  0  0  0  0  0  0  0  0  0
   -2.9705   -1.6912   -1.0819 H   0  0  0  0  0  0  0  0  0  0  0  0
   -4.9638   -0.1355   -1.0115 H   0  0  0  0  0  0  0  0  0  0  0  0
   -2.0537    1.7331    0.0655 H   0  0  0  0  0  0  0  0  0  0  0  0
   -2.1248    1.2524    1.8340 H   0  0  0  0  0  0  0  0  0  0  0  0
  1  2  1  0
  2  3  1  0
  3  4  2  0
  4  5  1  0
  5  6  1  0
  6  7  1  0
  7  8  1  0
  8  9  1  0
  9 10  1  0
 10 11  1  0
 11 12  2  0
 11 13  1  0
  5 14  2  0
 14  2  1  0
 13  8  1  0
  1 15  1  0
  1 16  1  0
  1 17  1  0
  3 18  1  0
  6 19  1  0
  6 20  1  0
  7 21  1  0
  8 22  1  1
  9 23  1  0
  9 24  1  0
 10 25  1  0
 13 26  1  0
 13 27  1  0
M  END
$$$$

     RDKit          3D

 27 28  0  0  0  0  0  0  0  0999 V2000
    5.0071   -0.0245    0.6134 C   0  0  0  0  0  0  0  0  0  0  0  0
    3.5855    0.0494    0.2969 N   0  0  0  0  0  0  0  0  0  0  0  0
    2.9170    1.2175    0.2500 C   0  0  0  0  0  0  0  0  0  0  0  0
    1.6578    0.9006   -0.0503 N   0  0  0  0  0  0  0  0  0  0  0  0
    1.5205   -0.4379   -0.1931 C   0  0  0  0  0  0  0  0  0  0  0  0
    0.2281   -1.0741   -0.5416 C   0  0  0  0  0  0  0  0  0  0  0  0
   -0.8639   -0.1815   -0.4523 N   0  0  0  0  0  0  0  0  0  0  0  0
   -2.1476   -0.6392   -0.8192 C   0  0  2  0  0  0  0  0  0  0  0  0
   -2.8646    0.5463   -1.4990 C   0  0  0  0  0  0  0  0  0  0  0  0
   -3.0922    1.3690   -0.3053 N   0  0  0  0  0  0  0  0  0  0  0  0
   -3.4306    0.5081    0.7716 C   0  0  0  0  0  0  0  0  0  0  0  0
   -3.9762    0.8308    1.8656 O   0  0  0  0  0  0  0  0  0  0  0  0
   -3.0241   -0.8706    0.3829 C   0  0  0  0  0  0  0  0  0  0  0  0
    2.7398   -0.9478    0.0303 N   0  0  0  0  0  0  0  0  0  0  0  0
    5.2109   -0.9111    1.2379 H   0  0  0  0  0  0  0  0  0  0  0  0
    5.3426    0.9097    1.1089 H   0  0  0  0  0  0  0  0  0  0  0  0
    5.6014   -0.1037   -0.3371 H   0  0  0  0  0  0  0  0  0  0  0  0
    3.2785    2.2311    0.4139 H   0  0  0  0  0  0  0  0  0  0  0  0
    0.3358   -1.5591   -1.5252 H   0  0  0  0  0  0  0  0  0  0  0  0
    0.0507   -1.8708    0.2455 H   0  0  0  0  0  0  0  0  0  0  0  0
   -0.6011    0.7814   -0.7242 H   0  0  0  0  0  0  0  0  0  0  0  0
   -2.1422   -1.5164   -1.5099 H   0  0  0  0  0  0  0  0  0  0  0  0
   -3.7901    0.2427   -1.9931 H   0  0  0  0  0  0  0  0  0  0  0  0
   -2.1165    0.9900   -2.1635 H   0  0  0  0  0  0  0  0  0  0  0  0
   -3.0137    2.3998   -0.2501 H   0  0  0  0  0  0  0  0  0  0  0  0
   -2.4895   -1.3870    1.2125 H   0  0  0  0  0  0  0  0  0  0  0  0
   -3.9234   -1.4527    0.1227 H   0  0  0  0  0  0  0  0  0  0  0  0
  1  2  1  0
  2  3  1  0
  3  4  2  0
  4  5  1  0
  5  6  1  0
  6  7  1  0
  7  8  1  0
  8  9  1  0
  9 10  1  0
 10 11  1  0
 11 12  2  0
 11 13  1  0
  5 14  2  0
 14  2  1  0
 13  8  1  0
  1 15  1  0
  1 16  1  0
  1 17  1  0
  3 18  1  0
  6 19  1  0
  6 20  1  0
  7 21  1  0
  8 22  1  6
  9 23  1  0
  9 24  1  0
 10 25  1  0
 13 26  1  0
 13 27  1  0
M  END
$$$$

     RDKit          3D

 27 28  0  0  0  0  0  0  0  0999 V2000
    4.4867    0.7882   -0.5908 C   0  0  0  0  0  0  0  0  0  0  0  0
    3.3872   -0.1071   -0.2462 N   0  0  0  0  0  0  0  0  0  0  0  0
    3.3881   -1.4535   -0.3580 C   0  0  0  0  0  0  0  0  0  0  0  0
    2.1835   -1.8795    0.1808 N   0  0  0  0  0  0  0  0  0  0  0  0
    1.5114   -0.7834    0.5799 C   0  0  0  0  0  0  0  0  0  0  0  0
    0.1434   -0.7096    1.1845 C   0  0  0  0  0  0  0  0  0  0  0  0
   -0.5812    0.3147    0.4676 N   0  0  0  0  0  0  0  0  0  0  0  0
   -1.7549   -0.1507   -0.1672 C   0  0  2  0  0  0  0  0  0  0  0  0
   -2.2922    0.9790   -1.0309 C   0  0  0  0  0  0  0  0  0  0  0  0
   -3.5674    1.3183   -0.4128 N   0  0  0  0  0  0  0  0  0  0  0  0
   -4.0472    0.1787    0.2626 C   0  0  0  0  0  0  0  0  0  0  0  0
   -5.2289   -0.1466    0.4274 O   0  0  0  0  0  0  0  0  0  0  0  0
   -2.8248   -0.5654    0.7572 C   0  0  0  0  0  0  0  0  0  0  0  0
    2.2373    0.2652    0.3085 N   0  0  0  0  0  0  0  0  0  0  0  0
    4.2051    1.8163   -0.3721 H   0  0  0  0  0  0  0  0  0  0  0  0
    4.7260    0.6953   -1.6377 H   0  0  0  0  0  0  0  0  0  0  0  0
    5.3328    0.5252    0.0858 H   0  0  0  0  0  0  0  0  0  0  0  0
    4.1237   -2.0928   -0.7906 H   0  0  0  0  0  0  0  0  0  0  0  0
    0.2796   -0.2846    2.2302 H   0  0  0  0  0  0  0  0  0  0  0  0
   -0.3819   -1.6498    1.2479 H   0  0  0  0  0  0  0  0  0  0  0  0
   -0.1132    1.1220    0.1558 H   0  0  0  0  0  0  0  0  0  0  0  0
   -1.5067   -1.0571   -0.8216 H   0  0  0  0  0  0  0  0  0  0  0  0
   -2.4082    0.7154   -2.0884 H   0  0  0  0  0  0  0  0  0  0  0  0
   -1.5985    1.8714   -0.9977 H   0  0  0  0  0  0  0  0  0  0  0  0
   -4.0142    2.2727   -0.4890 H   0  0  0  0  0  0  0  0  0  0  0  0
   -3.0327   -1.6702    0.6780 H   0  0  0  0  0  0  0  0  0  0  0  0
   -2.6529   -0.3122    1.8061 H   0  0  0  0  0  0  0  0  0  0  0  0
  1  2  1  0
  2  3  1  0
  3  4  2  0
  4  5  1  0
  5  6  1  0
  6  7  1  0
  7  8  1  0
  8  9  1  0
  9 10  1  0
 10 11  1  0
 11 12  2  0
 11 13  1  0
  5 14  2  0
 14  2  1  0
 13  8  1  0
  1 15  1  0
  1 16  1  0
  1 17  1  0
  3 18  1  0
  6 19  1  0
  6 20  1  0
  7 21  1  0
  8 22  1  6
  9 23  1  0
  9 24  1  0
 10 25  1  0
 13 26  1  0
 13 27  1  0
M  END
$$$$

     RDKit          3D

 27 28  0  0  0  0  0  0  0  0999 V2000
    4.9828    0.5956    0.3043 C   0  0  0  0  0  0  0  0  0  0  0  0
    3.6155    0.4174   -0.1040 N   0  0  0  0  0  0  0  0  0  0  0  0
    3.0107    0.7841   -1.2532 C   0  0  0  0  0  0  0  0  0  0  0  0
    1.7132    0.4291   -1.2386 N   0  0  0  0  0  0  0  0  0  0  0  0
    1.4994   -0.1787   -0.0431 C   0  0  0  0  0  0  0  0  0  0  0  0
    0.2190   -0.7534    0.4593 C   0  0  0  0  0  0  0  0  0  0  0  0
   -0.7885   -0.5201   -0.4973 N   0  0  0  0  0  0  0  0  0  0  0  0
   -2.0861   -0.9936   -0.2127 C   0  0  2  0  0  0  0  0  0  0  0  0
   -3.0092   -0.5337   -1.3512 C   0  0  0  0  0  0  0  0  0  0  0  0
   -3.2448    0.8449   -0.9513 N   0  0  0  0  0  0  0  0  0  0  0  0
   -3.4551    0.7987    0.4679 C   0  0  0  0  0  0  0  0  0  0  0  0
   -4.1044    1.6301    1.1788 O   0  0  0  0  0  0  0  0  0  0  0  0
   -2.7659   -0.4184    0.9733 C   0  0  0  0  0  0  0  0  0  0  0  0
    2.6832   -0.1629    0.6129 N   0  0  0  0  0  0  0  0  0  0  0  0
    5.0933    1.5973    0.7762 H   0  0  0  0  0  0  0  0  0  0  0  0
    5.6301    0.5123   -0.5934 H   0  0  0  0  0  0  0  0  0  0  0  0
    5.2324   -0.1717    1.0606 H   0  0  0  0  0  0  0  0  0  0  0  0
    3.5300    1.2953   -2.0601 H   0  0  0  0  0  0  0  0  0  0  0  0
    0.0497   -0.2947    1.4562 H   0  0  0  0  0  0  0  0  0  0  0  0
    0.3623   -1.8509    0.6314 H   0  0  0  0  0  0  0  0  0  0  0  0
   -0.7214    0.3593   -1.0344 H   0  0  0  0  0  0  0  0  0  0  0  0
   -2.1271   -2.1020   -0.2262 H   0  0  0  0  0  0  0  0  0  0  0  0
   -2.4872   -0.5994   -2.3222 H   0  0  0  0  0  0  0  0  0  0  0  0
   -3.9349   -1.1070   -1.3190 H   0  0  0  0  0  0  0  0  0  0  0  0
   -3.2676    1.7129   -1.5226 H   0  0  0  0  0  0  0  0  0  0  0  0
   -3.5197   -1.1340    1.3601 H   0  0  0  0  0  0  0  0  0  0  0  0
   -2.1096   -0.1569    1.8174 H   0  0  0  0  0  0  0  0  0  0  0  0
  1  2  1  0
  2  3  1  0
  3  4  2  0
  4  5  1  0
  5  6  1  0
  6  7  1  0
  7  8  1  0
  8  9  1  0
  9 10  1  0
 10 11  1  0
 11 12  2  0
 11 13  1  0
  5 14  2  0
 14  2  1  0
 13  8  1  0
  1 15  1  0
  1 16  1  0
  1 17  1  0
  3 18  1  0
  6 19  1  0
  6 20  1  0
  7 21  1  0
  8 22  1  1
  9 23  1  0
  9 24  1  0
 10 25  1  0
 13 26  1  0
 13 27  1  0
M  END
$$$$

     RDKit          3D

 27 28  0  0  0  0  0  0  0  0999 V2000
    4.9442   -0.0416   -0.7035 C   0  0  0  0  0  0  0  0  0  0  0  0
    3.5631    0.0226   -0.3110 N   0  0  0  0  0  0  0  0  0  0  0  0
    3.0526    0.4246    0.8371 C   0  0  0  0  0  0  0  0  0  0  0  0
    1.7590    0.3279    0.7640 N   0  0  0  0  0  0  0  0  0  0  0  0
    1.4535   -0.1318   -0.4762 C   0  0  0  0  0  0  0  0  0  0  0  0
    0.0621   -0.4529   -0.9343 C   0  0  0  0  0  0  0  0  0  0  0  0
   -0.8253    0.2673   -0.0782 N   0  0  0  0  0  0  0  0  0  0  0  0
   -1.8469   -0.4614    0.5001 C   0  0  2  0  0  0  0  0  0  0  0  0
   -2.8360   -1.0727   -0.4446 C   0  0  0  0  0  0  0  0  0  0  0  0
   -3.5963    0.1130   -0.8719 N   0  0  0  0  0  0  0  0  0  0  0  0
   -3.3548    1.2154    0.0190 C   0  0  0  0  0  0  0  0  0  0  0  0
   -3.5507    2.3969   -0.1682 O   0  0  0  0  0  0  0  0  0  0  0  0
   -2.7595    0.5238    1.2397 C   0  0  0  0  0  0  0  0  0  0  0  0
    2.5698   -0.3197   -1.1362 N   0  0  0  0  0  0  0  0  0  0  0  0
    5.0703    0.7346   -1.4986 H   0  0  0  0  0  0  0  0  0  0  0  0
    5.6038    0.2863    0.1333 H   0  0  0  0  0  0  0  0  0  0  0  0
    5.1618   -1.0593   -1.0374 H   0  0  0  0  0  0  0  0  0  0  0  0
    3.6361    0.7597    1.7014 H   0  0  0  0  0  0  0  0  0  0  0  0
   -0.0130    0.0115   -1.9680 H   0  0  0  0  0  0  0  0  0  0  0  0
   -0.0994   -1.5174   -0.9238 H   0  0  0  0  0  0  0  0  0  0  0  0
   -0.6365    1.2310    0.1384 H   0  0  0  0  0  0  0  0  0  0  0  0
   -1.4734   -1.2127    1.2576 H   0  0  0  0  0  0  0  0  0  0  0  0
   -2.4151   -1.6137   -1.2904 H   0  0  0  0  0  0  0  0  0  0  0  0
   -3.5884   -1.7001    0.1356 H   0  0  0  0  0  0  0  0  0  0  0  0
   -4.1891    0.0874   -1.7025 H   0  0  0  0  0  0  0  0  0  0  0  0
   -3.4927   -0.0632    1.7804 H   0  0  0  0  0  0  0  0  0  0  0  0
   -2.1989    1.2442    1.8500 H   0  0  0  0  0  0  0  0  0  0  0  0
  1  2  1  0
  2  3  1  0
  3  4  2  0
  4  5  1  0
  5  6  1  0
  6  7  1  0
  7  8  1  0
  8  9  1  0
  9 10  1  0
 10 11  1  0
 11 12  2  0
 11 13  1  0
  5 14  2  0
 14  2  1  0
 13  8  1  0
  1 15  1  0
  1 16  1  0
  1 17  1  0
  3 18  1  0
  6 19  1  0
  6 20  1  0
  7 21  1  0
  8 22  1  1
  9 23  1  0
  9 24  1  0
 10 25  1  0
 13 26  1  0
 13 27  1  0
M  END
$$$$

     RDKit          3D

 27 28  0  0  0  0  0  0  0  0999 V2000
    4.4837    1.1531   -0.2487 C   0  0  0  0  0  0  0  0  0  0  0  0
    3.4137    0.1968    0.0487 N   0  0  0  0  0  0  0  0  0  0  0  0
    3.4718   -0.8561    0.8822 C   0  0  0  0  0  0  0  0  0  0  0  0
    2.2816   -1.4716    0.8703 N   0  0  0  0  0  0  0  0  0  0  0  0
    1.4644   -0.8138    0.0311 C   0  0  0  0  0  0  0  0  0  0  0  0
    0.0247   -1.1649   -0.2802 C   0  0  0  0  0  0  0  0  0  0  0  0
   -0.8745   -0.4251    0.5254 N   0  0  0  0  0  0  0  0  0  0  0  0
   -2.2351   -0.7464    0.3071 C   0  0  2  0  0  0  0  0  0  0  0  0
   -2.6604   -0.4047   -1.0968 C   0  0  0  0  0  0  0  0  0  0  0  0
   -2.6177    1.0581   -1.0237 N   0  0  0  0  0  0  0  0  0  0  0  0
   -2.8962    1.4732    0.3002 C   0  0  0  0  0  0  0  0  0  0  0  0
   -2.9379    2.6343    0.7559 O   0  0  0  0  0  0  0  0  0  0  0  0
   -3.1397    0.2375    1.0845 C   0  0  0  0  0  0  0  0  0  0  0  0
    2.1919    0.2045   -0.4558 N   0  0  0  0  0  0  0  0  0  0  0  0
    4.6115    1.2475   -1.3497 H   0  0  0  0  0  0  0  0  0  0  0  0
    5.4083    0.8041    0.2262 H   0  0  0  0  0  0  0  0  0  0  0  0
    4.1458    2.1655    0.1049 H   0  0  0  0  0  0  0  0  0  0  0  0
    4.3498   -1.1317    1.4516 H   0  0  0  0  0  0  0  0  0  0  0  0
   -0.1126   -1.0089   -1.3697 H   0  0  0  0  0  0  0  0  0  0  0  0
   -0.0708   -2.2430   -0.1059 H   0  0  0  0  0  0  0  0  0  0  0  0
   -0.6629    0.5808    0.6082 H   0  0  0  0  0  0  0  0  0  0  0  0
   -2.5006   -1.7896    0.5841 H   0  0  0  0  0  0  0  0  0  0  0  0
   -1.9963   -0.8442   -1.8226 H   0  0  0  0  0  0  0  0  0  0  0  0
   -3.7331   -0.7370   -1.2727 H   0  0  0  0  0  0  0  0  0  0  0  0
   -2.4115    1.6554   -1.8431 H   0  0  0  0  0  0  0  0  0  0  0  0
   -4.1746   -0.0762    0.9471 H   0  0  0  0  0  0  0  0  0  0  0  0
   -2.8233    0.3024    2.1413 H   0  0  0  0  0  0  0  0  0  0  0  0
  1  2  1  0
  2  3  1  0
  3  4  2  0
  4  5  1  0
  5  6  1  0
  6  7  1  0
  7  8  1  0
  8  9  1  0
  9 10  1  0
 10 11  1  0
 11 12  2  0
 11 13  1  0
  5 14  2  0
 14  2  1  0
 13  8  1  0
  1 15  1  0
  1 16  1  0
  1 17  1  0
  3 18  1  0
  6 19  1  0
  6 20  1  0
  7 21  1  0
  8 22  1  1
  9 23  1  0
  9 24  1  0
 10 25  1  0
 13 26  1  0
 13 27  1  0
M  END
$$$$

     RDKit          3D

 27 28  0  0  0  0  0  0  0  0999 V2000
    4.9052   -0.0970    1.1837 C   0  0  0  0  0  0  0  0  0  0  0  0
    3.6415   -0.3183    0.4750 N   0  0  0  0  0  0  0  0  0  0  0  0
    3.5252   -0.6419   -0.8184 C   0  0  0  0  0  0  0  0  0  0  0  0
    2.2162   -0.7555   -1.0793 N   0  0  0  0  0  0  0  0  0  0  0  0
    1.4934   -0.5119    0.0209 C   0  0  0  0  0  0  0  0  0  0  0  0
    0.0065   -0.5556    0.1225 C   0  0  0  0  0  0  0  0  0  0  0  0
   -0.5230    0.5820   -0.5416 N   0  0  0  0  0  0  0  0  0  0  0  0
   -1.9257    0.7333   -0.5532 C   0  0  2  0  0  0  0  0  0  0  0  0
   -2.5451    0.9129    0.8328 C   0  0  0  0  0  0  0  0  0  0  0  0
   -3.9541    0.7619    0.5235 N   0  0  0  0  0  0  0  0  0  0  0  0
   -4.0629   -0.1611   -0.5557 C   0  0  0  0  0  0  0  0  0  0  0  0
   -5.1759   -0.5905   -0.9618 O   0  0  0  0  0  0  0  0  0  0  0  0
   -2.6877   -0.4717   -1.0451 C   0  0  0  0  0  0  0  0  0  0  0  0
    2.4061   -0.2361    0.9982 N   0  0  0  0  0  0  0  0  0  0  0  0
    5.6208   -0.8462    0.7452 H   0  0  0  0  0  0  0  0  0  0  0  0
    5.2778    0.9332    1.0011 H   0  0  0  0  0  0  0  0  0  0  0  0
    4.7590   -0.2872    2.2572 H   0  0  0  0  0  0  0  0  0  0  0  0
    4.3130   -0.7869   -1.5249 H   0  0  0  0  0  0  0  0  0  0  0  0
   -0.2646   -0.4592    1.2151 H   0  0  0  0  0  0  0  0  0  0  0  0
   -0.4091   -1.5202   -0.2167 H   0  0  0  0  0  0  0  0  0  0  0  0
    0.0340    1.4453   -0.5028 H   0  0  0  0  0  0  0  0  0  0  0  0
   -2.2244    1.5791   -1.1860 H   0  0  0  0  0  0  0  0  0  0  0  0
   -2.2759    0.0892    1.5044 H   0  0  0  0  0  0  0  0  0  0  0  0
   -2.3087    1.9166    1.2402 H   0  0  0  0  0  0  0  0  0  0  0  0
   -4.7157    1.2598    1.0275 H   0  0  0  0  0  0  0  0  0  0  0  0
   -2.4052   -1.4169   -0.5348 H   0  0  0  0  0  0  0  0  0  0  0  0
   -2.7208   -0.5571   -2.1346 H   0  0  0  0  0  0  0  0  0  0  0  0
  1  2  1  0
  2  3  1  0
  3  4  2  0
  4  5  1  0
  5  6  1  0
  6  7  1  0
  7  8  1  0
  8  9  1  0
  9 10  1  0
 10 11  1  0
 11 12  2  0
 11 13  1  0
  5 14  2  0
 14  2  1  0
 13  8  1  0
  1 15  1  0
  1 16  1  0
  1 17  1  0
  3 18  1  0
  6 19  1  0
  6 20  1  0
  7 21  1  0
  8 22  1  6
  9 23  1  0
  9 24  1  0
 10 25  1  0
 13 26  1  0
 13 27  1  0
M  END
$$$$

     RDKit          3D

 27 28  0  0  0  0  0  0  0  0999 V2000
    4.9851    0.4986    1.0714 C   0  0  0  0  0  0  0  0  0  0  0  0
    3.7284   -0.0419    0.5958 N   0  0  0  0  0  0  0  0  0  0  0  0
    3.4605   -1.3148    0.3383 C   0  0  0  0  0  0  0  0  0  0  0  0
    2.1857   -1.4098   -0.0831 N   0  0  0  0  0  0  0  0  0  0  0  0
    1.6522   -0.1757   -0.0877 C   0  0  0  0  0  0  0  0  0  0  0  0
    0.2596    0.1428   -0.4911 C   0  0  0  0  0  0  0  0  0  0  0  0
   -0.6541    0.0873    0.6345 N   0  0  0  0  0  0  0  0  0  0  0  0
   -1.9669    0.4085    0.1483 C   0  0  2  0  0  0  0  0  0  0  0  0
   -3.0283    0.3967    1.1978 C   0  0  0  0  0  0  0  0  0  0  0  0
   -4.2427    0.3917    0.4110 N   0  0  0  0  0  0  0  0  0  0  0  0
   -3.9549   -0.3058   -0.7897 C   0  0  0  0  0  0  0  0  0  0  0  0
   -4.7488   -0.6210   -1.7074 O   0  0  0  0  0  0  0  0  0  0  0  0
   -2.4951   -0.6378   -0.8243 C   0  0  0  0  0  0  0  0  0  0  0  0
    2.6098    0.6456    0.3299 N   0  0  0  0  0  0  0  0  0  0  0  0
    4.9829    1.6191    0.9813 H   0  0  0  0  0  0  0  0  0  0  0  0
    5.8395    0.1738    0.4153 H   0  0  0  0  0  0  0  0  0  0  0  0
    5.1268    0.1977    2.1124 H   0  0  0  0  0  0  0  0  0  0  0  0
    4.1163   -2.1736    0.4327 H   0  0  0  0  0  0  0  0  0  0  0  0
   -0.1247   -0.5687   -1.2548 H   0  0  0  0  0  0  0  0  0  0  0  0
    0.2328    1.1491   -0.9945 H   0  0  0  0  0  0  0  0  0  0  0  0
   -0.4157    0.7622    1.3779 H   0  0  0  0  0  0  0  0  0  0  0  0
   -2.0049    1.4163   -0.3530 H   0  0  0  0  0  0  0  0  0  0  0  0
   -3.0178   -0.5789    1.7539 H   0  0  0  0  0  0  0  0  0  0  0  0
   -2.9788    1.2516    1.8971 H   0  0  0  0  0  0  0  0  0  0  0  0
   -5.1407    0.8228    0.6924 H   0  0  0  0  0  0  0  0  0  0  0  0
   -2.0756   -0.5113   -1.8427 H   0  0  0  0  0  0  0  0  0  0  0  0
   -2.3305   -1.6247   -0.3858 H   0  0  0  0  0  0  0  0  0  0  0  0
  1  2  1  0
  2  3  1  0
  3  4  2  0
  4  5  1  0
  5  6  1  0
  6  7  1  0
  7  8  1  0
  8  9  1  0
  9 10  1  0
 10 11  1  0
 11 12  2  0
 11 13  1  0
  5 14  2  0
 14  2  1  0
 13  8  1  0
  1 15  1  0
  1 16  1  0
  1 17  1  0
  3 18  1  0
  6 19  1  0
  6 20  1  0
  7 21  1  0
  8 22  1  6
  9 23  1  0
  9 24  1  0
 10 25  1  0
 13 26  1  0
 13 27  1  0
M  END
$$$$
