
     RDKit          3D

 23 23  0  0  0  0  0  0  0  0999 V2000
   -4.4116    0.7895   -0.4005 O   0  0  0  0  0  0  0  0  0  0  0  0
   -3.1903    1.0586   -0.4557 C   0  0  0  0  0  0  0  0  0  0  0  0
   -2.8040    2.3624   -0.6864 O   0  0  0  0  0  0  0  0  0  0  0  0
   -2.1851    0.0055   -0.2781 C   0  0  0  0  0  0  0  0  0  0  0  0
   -2.5675   -1.2948   -0.0480 C   0  0  0  0  0  0  0  0  0  0  0  0
   -1.5877   -2.2501    0.1126 C   0  0  0  0  0  0  0  0  0  0  0  0
   -0.2648   -1.8810    0.0393 C   0  0  0  0  0  0  0  0  0  0  0  0
    0.6606   -2.7265    0.1811 O   0  0  0  0  0  0  0  0  0  0  0  0
    0.1210   -0.6049   -0.1866 N   0  0  0  0  0  0  0  0  0  0  0  0
    1.4333   -0.2496   -0.2575 O   0  0  0  0  0  0  0  0  0  0  0  0
    2.0008    0.6540    0.6728 C   0  0  0  0  0  0  0  0  0  0  0  0
    3.4697    0.8036    0.2755 C   0  0  0  0  0  0  0  0  0  0  0  0
    4.0124   -0.4982    0.3675 O   0  0  0  0  0  0  0  0  0  0  0  0
   -0.8445    0.3211   -0.3422 C   0  0  0  0  0  0  0  0  0  0  0  0
   -3.4433    3.1456   -0.6043 H   0  0  0  0  0  0  0  0  0  0  0  0
   -3.6221   -1.5457    0.0029 H   0  0  0  0  0  0  0  0  0  0  0  0
   -1.8571   -3.3001    0.2982 H   0  0  0  0  0  0  0  0  0  0  0  0
    1.4808    1.6311    0.6558 H   0  0  0  0  0  0  0  0  0  0  0  0
    2.0054    0.2300    1.6953 H   0  0  0  0  0  0  0  0  0  0  0  0
    4.0124    1.4817    0.9678 H   0  0  0  0  0  0  0  0  0  0  0  0
    3.4854    1.1605   -0.7773 H   0  0  0  0  0  0  0  0  0  0  0  0
    4.6723   -0.6649   -0.3417 H   0  0  0  0  0  0  0  0  0  0  0  0
   -0.5760    1.3721   -0.5279 H   0  0  0  0  0  0  0  0  0  0  0  0
  1  2  2  0
  2  3  1  0
  2  4  1  0
  4  5  1  0
  5  6  2  0
  6  7  1  0
  7  8  2  0
  7  9  1  0
  9 10  1  0
 10 11  1  0
 11 12  1  0
 12 13  1  0
  9 14  1  0
 14  4  2  0
  3 15  1  0
  5 16  1  0
  6 17  1  0
 11 18  1  0
 11 19  1  0
 12 20  1  0
 12 21  1  0
 13 22  1  0
 14 23  1  0
M  END
$$$$

     RDKit          3D

 23 23  0  0  0  0  0  0  0  0999 V2000
    4.5812    0.1613   -0.0391 O   0  0  0  0  0  0  0  0  0  0  0  0
    3.4453    0.6191   -0.2955 C   0  0  0  0  0  0  0  0  0  0  0  0
    3.3317    1.9208   -0.7261 O   0  0  0  0  0  0  0  0  0  0  0  0
    2.2762   -0.2268   -0.1349 C   0  0  0  0  0  0  0  0  0  0  0  0
    2.3904   -1.5348    0.2978 C   0  0  0  0  0  0  0  0  0  0  0  0
    1.2570   -2.3115    0.4396 C   0  0  0  0  0  0  0  0  0  0  0  0
    0.0197   -1.7632    0.1443 C   0  0  0  0  0  0  0  0  0  0  0  0
   -1.0253   -2.4787    0.2748 O   0  0  0  0  0  0  0  0  0  0  0  0
   -0.1111   -0.4932   -0.2777 N   0  0  0  0  0  0  0  0  0  0  0  0
   -1.3586    0.0433   -0.5701 O   0  0  0  0  0  0  0  0  0  0  0  0
   -2.2585    0.3050    0.4922 C   0  0  0  0  0  0  0  0  0  0  0  0
   -3.5195    0.8782   -0.1172 C   0  0  0  0  0  0  0  0  0  0  0  0
   -3.2033    2.0415   -0.7894 O   0  0  0  0  0  0  0  0  0  0  0  0
    1.0016    0.2397   -0.4074 C   0  0  0  0  0  0  0  0  0  0  0  0
    4.1603    2.4449   -1.0462 H   0  0  0  0  0  0  0  0  0  0  0  0
    3.3558   -1.9627    0.5282 H   0  0  0  0  0  0  0  0  0  0  0  0
    1.3067   -3.3268    0.7717 H   0  0  0  0  0  0  0  0  0  0  0  0
   -1.8186    1.0034    1.2050 H   0  0  0  0  0  0  0  0  0  0  0  0
   -2.4808   -0.6527    1.0074 H   0  0  0  0  0  0  0  0  0  0  0  0
   -4.3052    1.0527    0.6632 H   0  0  0  0  0  0  0  0  0  0  0  0
   -3.9673    0.1629   -0.8370 H   0  0  0  0  0  0  0  0  0  0  0  0
   -4.0455    2.5895   -0.8330 H   0  0  0  0  0  0  0  0  0  0  0  0
    0.9675    1.2878   -0.7485 H   0  0  0  0  0  0  0  0  0  0  0  0
  1  2  2  0
  2  3  1  0
  2  4  1  0
  4  5  1  0
  5  6  2  0
  6  7  1  0
  7  8  2  0
  7  9  1  0
  9 10  1  0
 10 11  1  0
 11 12  1  0
 12 13  1  0
  9 14  1  0
 14  4  2  0
  3 15  1  0
  5 16  1  0
  6 17  1  0
 11 18  1  0
 11 19  1  0
 12 20  1  0
 12 21  1  0
 13 22  1  0
 14 23  1  0
M  END
$$$$

     RDKit          3D

 23 23  0  0  0  0  0  0  0  0999 V2000
   -2.8286    2.4209    0.4985 O   0  0  0  0  0  0  0  0  0  0  0  0
   -3.1280    1.1946    0.3727 C   0  0  0  0  0  0  0  0  0  0  0  0
   -4.4565    0.8737    0.1901 O   0  0  0  0  0  0  0  0  0  0  0  0
   -2.1219    0.1440    0.4160 C   0  0  0  0  0  0  0  0  0  0  0  0
   -2.5125   -1.1682    0.2730 C   0  0  0  0  0  0  0  0  0  0  0  0
   -1.5806   -2.1580    0.3119 C   0  0  0  0  0  0  0  0  0  0  0  0
   -0.2554   -1.8697    0.4917 C   0  0  0  0  0  0  0  0  0  0  0  0
    0.6025   -2.7972    0.5264 O   0  0  0  0  0  0  0  0  0  0  0  0
    0.1075   -0.5817    0.6297 N   0  0  0  0  0  0  0  0  0  0  0  0
    1.4394   -0.3100    0.8091 O   0  0  0  0  0  0  0  0  0  0  0  0
    2.2320    0.3660   -0.1551 C   0  0  0  0  0  0  0  0  0  0  0  0
    3.6359    0.4552    0.4444 C   0  0  0  0  0  0  0  0  0  0  0  0
    4.5081    1.1054   -0.4216 O   0  0  0  0  0  0  0  0  0  0  0  0
   -0.7848    0.4220    0.5965 C   0  0  0  0  0  0  0  0  0  0  0  0
   -5.1802    1.4879    0.5499 H   0  0  0  0  0  0  0  0  0  0  0  0
   -3.5446   -1.4388    0.1295 H   0  0  0  0  0  0  0  0  0  0  0  0
   -1.8708   -3.2001    0.2006 H   0  0  0  0  0  0  0  0  0  0  0  0
    1.8398    1.3544   -0.4124 H   0  0  0  0  0  0  0  0  0  0  0  0
    2.2815   -0.2086   -1.1209 H   0  0  0  0  0  0  0  0  0  0  0  0
    3.5095    1.0174    1.4000 H   0  0  0  0  0  0  0  0  0  0  0  0
    3.9509   -0.5854    0.6288 H   0  0  0  0  0  0  0  0  0  0  0  0
    4.6258    2.0316   -0.0847 H   0  0  0  0  0  0  0  0  0  0  0  0
   -0.4691    1.4446    0.7094 H   0  0  0  0  0  0  0  0  0  0  0  0
  1  2  2  0
  2  3  1  0
  2  4  1  0
  4  5  1  0
  5  6  2  0
  6  7  1  0
  7  8  2  0
  7  9  1  0
  9 10  1  0
 10 11  1  0
 11 12  1  0
 12 13  1  0
  9 14  1  0
 14  4  2  0
  3 15  1  0
  5 16  1  0
  6 17  1  0
 11 18  1  0
 11 19  1  0
 12 20  1  0
 12 21  1  0
 13 22  1  0
 14 23  1  0
M  END
$$$$

     RDKit          3D

 23 23  0  0  0  0  0  0  0  0999 V2000
   -3.0299    2.1708   -1.3212 O   0  0  0  0  0  0  0  0  0  0  0  0
   -3.2857    1.0154   -0.8806 C   0  0  0  0  0  0  0  0  0  0  0  0
   -4.5690    0.5471   -1.0056 O   0  0  0  0  0  0  0  0  0  0  0  0
   -2.2535    0.2085   -0.2616 C   0  0  0  0  0  0  0  0  0  0  0  0
   -2.5575   -1.0481    0.2109 C   0  0  0  0  0  0  0  0  0  0  0  0
   -1.5388   -1.7731    0.7906 C   0  0  0  0  0  0  0  0  0  0  0  0
   -0.2765   -1.2241    0.8747 C   0  0  0  0  0  0  0  0  0  0  0  0
    0.6785   -1.8771    1.4065 O   0  0  0  0  0  0  0  0  0  0  0  0
    0.0329    0.0009    0.4175 N   0  0  0  0  0  0  0  0  0  0  0  0
    1.2988    0.5407    0.5066 O   0  0  0  0  0  0  0  0  0  0  0  0
    2.4625   -0.0913    0.0757 C   0  0  0  0  0  0  0  0  0  0  0  0
    3.6250    0.8656    0.3671 C   0  0  0  0  0  0  0  0  0  0  0  0
    4.7835    0.2460   -0.0575 O   0  0  0  0  0  0  0  0  0  0  0  0
   -0.9626    0.7072   -0.1481 C   0  0  0  0  0  0  0  0  0  0  0  0
   -5.2689    1.0130   -1.5754 H   0  0  0  0  0  0  0  0  0  0  0  0
   -3.5417   -1.4941    0.1532 H   0  0  0  0  0  0  0  0  0  0  0  0
   -1.7163   -2.7855    1.1886 H   0  0  0  0  0  0  0  0  0  0  0  0
    2.7075   -1.0240    0.6176 H   0  0  0  0  0  0  0  0  0  0  0  0
    2.4439   -0.2270   -1.0306 H   0  0  0  0  0  0  0  0  0  0  0  0
    3.6902    1.0767    1.4605 H   0  0  0  0  0  0  0  0  0  0  0  0
    3.5206    1.8049   -0.2311 H   0  0  0  0  0  0  0  0  0  0  0  0
    4.5395   -0.3400   -0.8426 H   0  0  0  0  0  0  0  0  0  0  0  0
   -0.7829    1.6875   -0.5314 H   0  0  0  0  0  0  0  0  0  0  0  0
  1  2  2  0
  2  3  1  0
  2  4  1  0
  4  5  1  0
  5  6  2  0
  6  7  1  0
  7  8  2  0
  7  9  1  0
  9 10  1  0
 10 11  1  0
 11 12  1  0
 12 13  1  0
  9 14  1  0
 14  4  2  0
  3 15  1  0
  5 16  1  0
  6 17  1  0
 11 18  1  0
 11 19  1  0
 12 20  1  0
 12 21  1  0
 13 22  1  0
 14 23  1  0
M  END
$$$$

     RDKit          3D

 23 23  0  0  0  0  0  0  0  0999 V2000
   -2.8413    2.5871    0.3061 O   0  0  0  0  0  0  0  0  0  0  0  0
   -3.1597    1.4454   -0.0773 C   0  0  0  0  0  0  0  0  0  0  0  0
   -4.4872    1.1415   -0.2740 O   0  0  0  0  0  0  0  0  0  0  0  0
   -2.1445    0.4440   -0.3151 C   0  0  0  0  0  0  0  0  0  0  0  0
   -2.4417   -0.8264   -0.7375 C   0  0  0  0  0  0  0  0  0  0  0  0
   -1.4552   -1.7551   -0.9546 C   0  0  0  0  0  0  0  0  0  0  0  0
   -0.1258   -1.3610   -0.7294 C   0  0  0  0  0  0  0  0  0  0  0  0
    0.8144   -2.1728   -0.9133 O   0  0  0  0  0  0  0  0  0  0  0  0
    0.1709   -0.1287   -0.3191 N   0  0  0  0  0  0  0  0  0  0  0  0
    1.4621    0.2267   -0.1090 O   0  0  0  0  0  0  0  0  0  0  0  0
    2.1796   -0.3776    0.9488 C   0  0  0  0  0  0  0  0  0  0  0  0
    3.5843    0.1795    0.9774 C   0  0  0  0  0  0  0  0  0  0  0  0
    4.2616   -0.0675   -0.2124 O   0  0  0  0  0  0  0  0  0  0  0  0
   -0.8028    0.7542   -0.1154 C   0  0  0  0  0  0  0  0  0  0  0  0
   -5.2036    1.8521   -0.4674 H   0  0  0  0  0  0  0  0  0  0  0  0
   -3.4650   -1.0979   -0.9008 H   0  0  0  0  0  0  0  0  0  0  0  0
   -1.6191   -2.7625   -1.2840 H   0  0  0  0  0  0  0  0  0  0  0  0
    1.7307   -0.1304    1.9505 H   0  0  0  0  0  0  0  0  0  0  0  0
    2.1570   -1.4714    0.8683 H   0  0  0  0  0  0  0  0  0  0  0  0
    3.5148    1.2743    1.1301 H   0  0  0  0  0  0  0  0  0  0  0  0
    4.1606   -0.2406    1.8192 H   0  0  0  0  0  0  0  0  0  0  0  0
    4.2816    0.7345   -0.8075 H   0  0  0  0  0  0  0  0  0  0  0  0
   -0.5716    1.7527    0.2163 H   0  0  0  0  0  0  0  0  0  0  0  0
  1  2  2  0
  2  3  1  0
  2  4  1  0
  4  5  1  0
  5  6  2  0
  6  7  1  0
  7  8  2  0
  7  9  1  0
  9 10  1  0
 10 11  1  0
 11 12  1  0
 12 13  1  0
  9 14  1  0
 14  4  2  0
  3 15  1  0
  5 16  1  0
  6 17  1  0
 11 18  1  0
 11 19  1  0
 12 20  1  0
 12 21  1  0
 13 22  1  0
 14 23  1  0
M  END
$$$$

     RDKit          3D

 23 23  0  0  0  0  0  0  0  0999 V2000
   -4.5474    0.2962    0.6854 O   0  0  0  0  0  0  0  0  0  0  0  0
   -3.3963   -0.0149    1.0787 C   0  0  0  0  0  0  0  0  0  0  0  0
   -3.2645   -0.7225    2.2622 O   0  0  0  0  0  0  0  0  0  0  0  0
   -2.2334    0.3682    0.2945 C   0  0  0  0  0  0  0  0  0  0  0  0
   -2.3902    1.0706   -0.8773 C   0  0  0  0  0  0  0  0  0  0  0  0
   -1.2950    1.4410   -1.6321 C   0  0  0  0  0  0  0  0  0  0  0  0
   -0.0320    1.1003   -1.2019 C   0  0  0  0  0  0  0  0  0  0  0  0
    0.9504    1.4462   -1.9022 O   0  0  0  0  0  0  0  0  0  0  0  0
    0.1379    0.4053   -0.0442 N   0  0  0  0  0  0  0  0  0  0  0  0
    1.4009    0.1023    0.3220 O   0  0  0  0  0  0  0  0  0  0  0  0
    2.1486   -0.9855   -0.1726 C   0  0  0  0  0  0  0  0  0  0  0  0
    3.5226   -1.0601    0.4255 C   0  0  0  0  0  0  0  0  0  0  0  0
    4.2812    0.0773    0.1708 O   0  0  0  0  0  0  0  0  0  0  0  0
   -0.9465    0.0581    0.6701 C   0  0  0  0  0  0  0  0  0  0  0  0
   -4.0608   -1.0667    2.7937 H   0  0  0  0  0  0  0  0  0  0  0  0
   -3.3616    1.3660   -1.2646 H   0  0  0  0  0  0  0  0  0  0  0  0
   -1.3903    1.9915   -2.5536 H   0  0  0  0  0  0  0  0  0  0  0  0
    2.2672   -0.9543   -1.2750 H   0  0  0  0  0  0  0  0  0  0  0  0
    1.6416   -1.9502    0.0502 H   0  0  0  0  0  0  0  0  0  0  0  0
    4.0056   -1.9809    0.0053 H   0  0  0  0  0  0  0  0  0  0  0  0
    3.4943   -1.1703    1.5374 H   0  0  0  0  0  0  0  0  0  0  0  0
    3.8644    0.6715   -0.5043 H   0  0  0  0  0  0  0  0  0  0  0  0
   -0.7969   -0.4890    1.5795 H   0  0  0  0  0  0  0  0  0  0  0  0
  1  2  2  0
  2  3  1  0
  2  4  1  0
  4  5  1  0
  5  6  2  0
  6  7  1  0
  7  8  2  0
  7  9  1  0
  9 10  1  0
 10 11  1  0
 11 12  1  0
 12 13  1  0
  9 14  1  0
 14  4  2  0
  3 15  1  0
  5 16  1  0
  6 17  1  0
 11 18  1  0
 11 19  1  0
 12 20  1  0
 12 21  1  0
 13 22  1  0
 14 23  1  0
M  END
$$$$

     RDKit          3D

 23 23  0  0  0  0  0  0  0  0999 V2000
    4.7668   -0.4613    0.1466 O   0  0  0  0  0  0  0  0  0  0  0  0
    3.6314   -0.9747    0.3037 C   0  0  0  0  0  0  0  0  0  0  0  0
    3.5242   -2.2797    0.6905 O   0  0  0  0  0  0  0  0  0  0  0  0
    2.4360   -0.1508    0.0652 C   0  0  0  0  0  0  0  0  0  0  0  0
    2.5730    1.1713   -0.3267 C   0  0  0  0  0  0  0  0  0  0  0  0
    1.4680    1.9626   -0.5560 C   0  0  0  0  0  0  0  0  0  0  0  0
    0.2432    1.3874   -0.3802 C   0  0  0  0  0  0  0  0  0  0  0  0
   -0.7632    2.1040   -0.5878 O   0  0  0  0  0  0  0  0  0  0  0  0
    0.0591    0.1000    0.0018 N   0  0  0  0  0  0  0  0  0  0  0  0
   -1.1897   -0.4473    0.1694 O   0  0  0  0  0  0  0  0  0  0  0  0
   -2.3741    0.2347   -0.0723 C   0  0  0  0  0  0  0  0  0  0  0  0
   -3.5862   -0.6324    0.2020 C   0  0  0  0  0  0  0  0  0  0  0  0
   -4.7455    0.1039   -0.0575 O   0  0  0  0  0  0  0  0  0  0  0  0
    1.1660   -0.6560    0.2205 C   0  0  0  0  0  0  0  0  0  0  0  0
    4.1722   -2.9792    0.2966 H   0  0  0  0  0  0  0  0  0  0  0  0
    3.5753    1.5587   -0.4459 H   0  0  0  0  0  0  0  0  0  0  0  0
    1.6139    2.9878   -0.8601 H   0  0  0  0  0  0  0  0  0  0  0  0
   -2.4203    0.5560   -1.1287 H   0  0  0  0  0  0  0  0  0  0  0  0
   -2.4758    1.1064    0.6383 H   0  0  0  0  0  0  0  0  0  0  0  0
   -3.5553   -1.5052   -0.4796 H   0  0  0  0  0  0  0  0  0  0  0  0
   -3.5838   -1.0310    1.2347 H   0  0  0  0  0  0  0  0  0  0  0  0
   -5.5416   -0.4696   -0.0901 H   0  0  0  0  0  0  0  0  0  0  0  0
    1.0063   -1.6856    0.5261 H   0  0  0  0  0  0  0  0  0  0  0  0
  1  2  2  0
  2  3  1  0
  2  4  1  0
  4  5  1  0
  5  6  2  0
  6  7  1  0
  7  8  2  0
  7  9  1  0
  9 10  1  0
 10 11  1  0
 11 12  1  0
 12 13  1  0
  9 14  1  0
 14  4  2  0
  3 15  1  0
  5 16  1  0
  6 17  1  0
 11 18  1  0
 11 19  1  0
 12 20  1  0
 12 21  1  0
 13 22  1  0
 14 23  1  0
M  END
$$$$

     RDKit          3D

 23 23  0  0  0  0  0  0  0  0999 V2000
   -4.3921    0.1034    0.9497 O   0  0  0  0  0  0  0  0  0  0  0  0
   -3.1859   -0.0763    1.2398 C   0  0  0  0  0  0  0  0  0  0  0  0
   -2.8695   -0.1814    2.5840 O   0  0  0  0  0  0  0  0  0  0  0  0
   -2.2034   -0.1634    0.1765 C   0  0  0  0  0  0  0  0  0  0  0  0
   -2.6299   -0.0452   -1.1255 C   0  0  0  0  0  0  0  0  0  0  0  0
   -1.7255   -0.1216   -2.1860 C   0  0  0  0  0  0  0  0  0  0  0  0
   -0.3862   -0.3211   -1.8638 C   0  0  0  0  0  0  0  0  0  0  0  0
    0.4709   -0.3977   -2.7768 O   0  0  0  0  0  0  0  0  0  0  0  0
    0.0253   -0.4358   -0.5950 N   0  0  0  0  0  0  0  0  0  0  0  0
    1.3582   -0.6299   -0.3714 O   0  0  0  0  0  0  0  0  0  0  0  0
    2.1991    0.3044    0.2559 C   0  0  0  0  0  0  0  0  0  0  0  0
    3.6147   -0.2776    0.3204 C   0  0  0  0  0  0  0  0  0  0  0  0
    4.3860    0.7188    0.9603 O   0  0  0  0  0  0  0  0  0  0  0  0
   -0.8611   -0.3593    0.4103 C   0  0  0  0  0  0  0  0  0  0  0  0
   -3.3662    0.3608    3.3068 H   0  0  0  0  0  0  0  0  0  0  0  0
   -3.6771    0.1098   -1.3551 H   0  0  0  0  0  0  0  0  0  0  0  0
   -2.0539   -0.0298   -3.2044 H   0  0  0  0  0  0  0  0  0  0  0  0
    1.8562    0.6394    1.2416 H   0  0  0  0  0  0  0  0  0  0  0  0
    2.2580    1.2008   -0.3954 H   0  0  0  0  0  0  0  0  0  0  0  0
    3.6651   -1.1888    0.9134 H   0  0  0  0  0  0  0  0  0  0  0  0
    4.0457   -0.3689   -0.6939 H   0  0  0  0  0  0  0  0  0  0  0  0
    4.0008    1.6109    0.7771 H   0  0  0  0  0  0  0  0  0  0  0  0
   -0.5291   -0.4517    1.4316 H   0  0  0  0  0  0  0  0  0  0  0  0
  1  2  2  0
  2  3  1  0
  2  4  1  0
  4  5  1  0
  5  6  2  0
  6  7  1  0
  7  8  2  0
  7  9  1  0
  9 10  1  0
 10 11  1  0
 11 12  1  0
 12 13  1  0
  9 14  1  0
 14  4  2  0
  3 15  1  0
  5 16  1  0
  6 17  1  0
 11 18  1  0
 11 19  1  0
 12 20  1  0
 12 21  1  0
 13 22  1  0
 14 23  1  0
M  END
$$$$
