
     RDKit          3D

 31 32  0  0  0  0  0  0  0  0999 V2000
    3.1435    1.8410   -0.2512 C   0  0  0  0  0  0  0  0  0  0  0  0
    2.6049    0.5054   -0.2971 N   0  0  0  0  0  0  0  0  0  0  0  0
    3.3715   -0.6656   -0.6516 C   0  0  0  0  0  0  0  0  0  0  0  0
    2.3939   -1.8191   -0.5590 C   0  0  0  0  0  0  0  0  0  0  0  0
    1.1809   -1.1769   -0.1646 N   0  0  0  0  0  0  0  0  0  0  0  0
    1.2810    0.0839   -0.0189 C   0  0  0  0  0  0  0  0  0  0  0  0
    0.1651    0.9116    0.3762 N   0  0  0  0  0  0  0  0  0  0  0  0
   -1.1552    0.3376    0.5768 C   0  0  0  0  0  0  0  0  0  0  0  0
   -1.7209   -0.3207   -0.6294 C   0  0  2  0  0  0  0  0  0  0  0  0
   -1.8600    0.5585   -1.7041 O   0  0  0  0  0  0  0  0  0  0  0  0
   -3.0676   -0.9610   -0.4053 C   0  0  0  0  0  0  0  0  0  0  0  0
   -3.4823   -1.6569   -1.5395 O   0  0  0  0  0  0  0  0  0  0  0  0
   -2.0524    1.1515    1.4616 C   0  0  0  0  0  0  0  0  0  0  0  0
   -1.4408   -0.1105    1.9525 C   0  0  0  0  0  0  0  0  0  0  0  0
    3.4022    2.0325    0.8315 H   0  0  0  0  0  0  0  0  0  0  0  0
    4.0382    1.9639   -0.8852 H   0  0  0  0  0  0  0  0  0  0  0  0
    2.3535    2.5786   -0.5213 H   0  0  0  0  0  0  0  0  0  0  0  0
    4.1373   -0.8352    0.1405 H   0  0  0  0  0  0  0  0  0  0  0  0
    3.8009   -0.6280   -1.6586 H   0  0  0  0  0  0  0  0  0  0  0  0
    2.2279   -2.3092   -1.5434 H   0  0  0  0  0  0  0  0  0  0  0  0
    2.6771   -2.5509    0.2285 H   0  0  0  0  0  0  0  0  0  0  0  0
    0.3688    1.9275    0.5045 H   0  0  0  0  0  0  0  0  0  0  0  0
   -1.0471   -1.1399   -0.9995 H   0  0  0  0  0  0  0  0  0  0  0  0
   -2.3322    1.3970   -1.4442 H   0  0  0  0  0  0  0  0  0  0  0  0
   -3.8606   -0.2476   -0.1496 H   0  0  0  0  0  0  0  0  0  0  0  0
   -3.0290   -1.7088    0.4206 H   0  0  0  0  0  0  0  0  0  0  0  0
   -4.4552   -1.5853   -1.6890 H   0  0  0  0  0  0  0  0  0  0  0  0
   -3.1474    1.1794    1.2709 H   0  0  0  0  0  0  0  0  0  0  0  0
   -1.6830    2.1355    1.8609 H   0  0  0  0  0  0  0  0  0  0  0  0
   -0.6677    0.0308    2.7439 H   0  0  0  0  0  0  0  0  0  0  0  0
   -2.1458   -0.9194    2.1866 H   0  0  0  0  0  0  0  0  0  0  0  0
  1  2  1  0
  2  3  1  0
  3  4  1  0
  4  5  1  0
  5  6  2  0
  6  7  1  0
  7  8  1  0
  8  9  1  0
  9 10  1  0
  9 11  1  0
 11 12  1  0
  8 13  1  0
 13 14  1  0
  6  2  1  0
 14  8  1  0
  1 15  1  0
  1 16  1  0
  1 17  1  0
  3 18  1  0
  3 19  1  0
  4 20  1  0
  4 21  1  0
  7 22  1  0
  9 23  1  6
 10 24  1  0
 11 25  1  0
 11 26  1  0
 12 27  1  0
 13 28  1  0
 13 29  1  0
 14 30  1  0
 14 31  1  0
M  END
$$$$

     RDKit          3D

 31 32  0  0  0  0  0  0  0  0999 V2000
    2.4789    0.9778   -1.5994 C   0  0  0  0  0  0  0  0  0  0  0  0
    2.3503    0.5366   -0.2093 N   0  0  0  0  0  0  0  0  0  0  0  0
    3.3499    0.5792    0.8323 C   0  0  0  0  0  0  0  0  0  0  0  0
    2.8448   -0.5639    1.7270 C   0  0  0  0  0  0  0  0  0  0  0  0
    1.4457   -0.6356    1.4078 N   0  0  0  0  0  0  0  0  0  0  0  0
    1.1625   -0.0200    0.3230 C   0  0  0  0  0  0  0  0  0  0  0  0
   -0.1508    0.0889   -0.2623 N   0  0  0  0  0  0  0  0  0  0  0  0
   -1.2852   -0.6074    0.2306 C   0  0  0  0  0  0  0  0  0  0  0  0
   -2.5766   -0.3408   -0.5403 C   0  0  2  0  0  0  0  0  0  0  0  0
   -2.4198   -0.7214   -1.8699 O   0  0  0  0  0  0  0  0  0  0  0  0
   -2.8629    1.1468   -0.5208 C   0  0  0  0  0  0  0  0  0  0  0  0
   -4.0154    1.3644   -1.2385 O   0  0  0  0  0  0  0  0  0  0  0  0
   -0.9984   -2.0437    0.6288 C   0  0  0  0  0  0  0  0  0  0  0  0
   -1.4435   -1.0424    1.6281 C   0  0  0  0  0  0  0  0  0  0  0  0
    1.4926    1.3087   -1.9843 H   0  0  0  0  0  0  0  0  0  0  0  0
    3.1299    1.8699   -1.5765 H   0  0  0  0  0  0  0  0  0  0  0  0
    2.9004    0.1511   -2.2143 H   0  0  0  0  0  0  0  0  0  0  0  0
    3.3361    1.5410    1.3555 H   0  0  0  0  0  0  0  0  0  0  0  0
    4.3421    0.3224    0.4198 H   0  0  0  0  0  0  0  0  0  0  0  0
    3.0344   -0.2231    2.7647 H   0  0  0  0  0  0  0  0  0  0  0  0
    3.3311   -1.5092    1.4736 H   0  0  0  0  0  0  0  0  0  0  0  0
   -0.2382    0.7149   -1.0834 H   0  0  0  0  0  0  0  0  0  0  0  0
   -3.3840   -0.8850   -0.0318 H   0  0  0  0  0  0  0  0  0  0  0  0
   -2.0817    0.0555   -2.3806 H   0  0  0  0  0  0  0  0  0  0  0  0
   -2.0324    1.7012   -1.0040 H   0  0  0  0  0  0  0  0  0  0  0  0
   -2.9966    1.5152    0.5297 H   0  0  0  0  0  0  0  0  0  0  0  0
   -3.8233    1.8054   -2.0905 H   0  0  0  0  0  0  0  0  0  0  0  0
   -1.7013   -2.7767    0.1888 H   0  0  0  0  0  0  0  0  0  0  0  0
    0.0371   -2.4011    0.6619 H   0  0  0  0  0  0  0  0  0  0  0  0
   -0.7479   -0.7239    2.4300 H   0  0  0  0  0  0  0  0  0  0  0  0
   -2.4776   -1.1850    2.0042 H   0  0  0  0  0  0  0  0  0  0  0  0
  1  2  1  0
  2  3  1  0
  3  4  1  0
  4  5  1  0
  5  6  2  0
  6  7  1  0
  7  8  1  0
  8  9  1  0
  9 10  1  0
  9 11  1  0
 11 12  1  0
  8 13  1  0
 13 14  1  0
  6  2  1  0
 14  8  1  0
  1 15  1  0
  1 16  1  0
  1 17  1  0
  3 18  1  0
  3 19  1  0
  4 20  1  0
  4 21  1  0
  7 22  1  0
  9 23  1  1
 10 24  1  0
 11 25  1  0
 11 26  1  0
 12 27  1  0
 13 28  1  0
 13 29  1  0
 14 30  1  0
 14 31  1  0
M  END
$$$$

     RDKit          3D

 31 32  0  0  0  0  0  0  0  0999 V2000
    3.1487   -0.6910    1.5679 C   0  0  0  0  0  0  0  0  0  0  0  0
    2.5701   -0.0013    0.4568 N   0  0  0  0  0  0  0  0  0  0  0  0
    3.1204    0.9965   -0.4377 C   0  0  0  0  0  0  0  0  0  0  0  0
    2.3998    0.6594   -1.7238 C   0  0  0  0  0  0  0  0  0  0  0  0
    1.1277    0.1795   -1.2334 N   0  0  0  0  0  0  0  0  0  0  0  0
    1.2235   -0.1915   -0.0100 C   0  0  0  0  0  0  0  0  0  0  0  0
    0.1195   -0.7101    0.7230 N   0  0  0  0  0  0  0  0  0  0  0  0
   -1.2172   -0.6637    0.1601 C   0  0  0  0  0  0  0  0  0  0  0  0
   -1.6584    0.7672   -0.1201 C   0  0  2  0  0  0  0  0  0  0  0  0
   -1.6440    1.4685    1.0877 O   0  0  0  0  0  0  0  0  0  0  0  0
   -3.0552    0.8572   -0.6622 C   0  0  0  0  0  0  0  0  0  0  0  0
   -3.3131    2.2379   -0.8328 O   0  0  0  0  0  0  0  0  0  0  0  0
   -2.2336   -1.6288    0.6514 C   0  0  0  0  0  0  0  0  0  0  0  0
   -1.6952   -1.6997   -0.7555 C   0  0  0  0  0  0  0  0  0  0  0  0
    2.9385   -0.1809    2.5401 H   0  0  0  0  0  0  0  0  0  0  0  0
    4.2589   -0.7721    1.3977 H   0  0  0  0  0  0  0  0  0  0  0  0
    2.7874   -1.7414    1.6672 H   0  0  0  0  0  0  0  0  0  0  0  0
    4.2173    0.9454   -0.5268 H   0  0  0  0  0  0  0  0  0  0  0  0
    2.7611    1.9981   -0.1231 H   0  0  0  0  0  0  0  0  0  0  0  0
    2.9430   -0.1935   -2.1820 H   0  0  0  0  0  0  0  0  0  0  0  0
    2.3007    1.5182   -2.4062 H   0  0  0  0  0  0  0  0  0  0  0  0
    0.2509   -1.1282    1.6678 H   0  0  0  0  0  0  0  0  0  0  0  0
   -0.9410    1.2649   -0.7984 H   0  0  0  0  0  0  0  0  0  0  0  0
   -1.8142    0.8863    1.8708 H   0  0  0  0  0  0  0  0  0  0  0  0
   -3.1308    0.3978   -1.6700 H   0  0  0  0  0  0  0  0  0  0  0  0
   -3.7942    0.4922    0.0589 H   0  0  0  0  0  0  0  0  0  0  0  0
   -3.1568    2.7139    0.0284 H   0  0  0  0  0  0  0  0  0  0  0  0
   -3.2892   -1.3408    0.8004 H   0  0  0  0  0  0  0  0  0  0  0  0
   -1.8501   -2.4241    1.3517 H   0  0  0  0  0  0  0  0  0  0  0  0
   -2.4174   -1.4976   -1.5561 H   0  0  0  0  0  0  0  0  0  0  0  0
   -0.9570   -2.5183   -0.9919 H   0  0  0  0  0  0  0  0  0  0  0  0
  1  2  1  0
  2  3  1  0
  3  4  1  0
  4  5  1  0
  5  6  2  0
  6  7  1  0
  7  8  1  0
  8  9  1  0
  9 10  1  0
  9 11  1  0
 11 12  1  0
  8 13  1  0
 13 14  1  0
  6  2  1  0
 14  8  1  0
  1 15  1  0
  1 16  1  0
  1 17  1  0
  3 18  1  0
  3 19  1  0
  4 20  1  0
  4 21  1  0
  7 22  1  0
  9 23  1  6
 10 24  1  0
 11 25  1  0
 11 26  1  0
 12 27  1  0
 13 28  1  0
 13 29  1  0
 14 30  1  0
 14 31  1  0
M  END
$$$$

     RDKit          3D

 31 32  0  0  0  0  0  0  0  0999 V2000
   -2.6631   -1.7353    1.1051 C   0  0  0  0  0  0  0  0  0  0  0  0
   -2.5733   -0.5186    0.3198 N   0  0  0  0  0  0  0  0  0  0  0  0
   -3.6548    0.3073   -0.1880 C   0  0  0  0  0  0  0  0  0  0  0  0
   -3.0050    0.9160   -1.4214 C   0  0  0  0  0  0  0  0  0  0  0  0
   -1.5900    0.9210   -1.0979 N   0  0  0  0  0  0  0  0  0  0  0  0
   -1.3649    0.0963   -0.1024 C   0  0  0  0  0  0  0  0  0  0  0  0
   -0.0631   -0.1337    0.4615 N   0  0  0  0  0  0  0  0  0  0  0  0
    1.1632    0.1186   -0.2500 C   0  0  0  0  0  0  0  0  0  0  0  0
    2.4012   -0.1870    0.5549 C   0  0  2  0  0  0  0  0  0  0  0  0
    2.3217    0.6503    1.6976 O   0  0  0  0  0  0  0  0  0  0  0  0
    3.6935    0.1416   -0.1029 C   0  0  0  0  0  0  0  0  0  0  0  0
    3.9646   -0.5779   -1.2427 O   0  0  0  0  0  0  0  0  0  0  0  0
    1.2800    1.2341   -1.2149 C   0  0  0  0  0  0  0  0  0  0  0  0
    1.0811   -0.1350   -1.7090 C   0  0  0  0  0  0  0  0  0  0  0  0
   -2.4545   -2.6442    0.5080 H   0  0  0  0  0  0  0  0  0  0  0  0
   -2.0371   -1.7085    2.0091 H   0  0  0  0  0  0  0  0  0  0  0  0
   -3.7186   -1.8138    1.4500 H   0  0  0  0  0  0  0  0  0  0  0  0
   -3.8034    1.1435    0.5278 H   0  0  0  0  0  0  0  0  0  0  0  0
   -4.5662   -0.2482   -0.4085 H   0  0  0  0  0  0  0  0  0  0  0  0
   -3.3977    1.9104   -1.6576 H   0  0  0  0  0  0  0  0  0  0  0  0
   -3.1978    0.1894   -2.2566 H   0  0  0  0  0  0  0  0  0  0  0  0
   -0.0318   -0.4998    1.4291 H   0  0  0  0  0  0  0  0  0  0  0  0
    2.4154   -1.2072    0.9343 H   0  0  0  0  0  0  0  0  0  0  0  0
    2.3794    1.5944    1.3832 H   0  0  0  0  0  0  0  0  0  0  0  0
    4.4936   -0.1465    0.6489 H   0  0  0  0  0  0  0  0  0  0  0  0
    3.8722    1.2245   -0.2623 H   0  0  0  0  0  0  0  0  0  0  0  0
    4.3277   -1.4813   -1.0101 H   0  0  0  0  0  0  0  0  0  0  0  0
    2.2799    1.6640   -1.4258 H   0  0  0  0  0  0  0  0  0  0  0  0
    0.4987    2.0214   -1.2638 H   0  0  0  0  0  0  0  0  0  0  0  0
    1.8761   -0.7036   -2.1913 H   0  0  0  0  0  0  0  0  0  0  0  0
    0.0731   -0.3921   -2.1496 H   0  0  0  0  0  0  0  0  0  0  0  0
  1  2  1  0
  2  3  1  0
  3  4  1  0
  4  5  1  0
  5  6  2  0
  6  7  1  0
  7  8  1  0
  8  9  1  0
  9 10  1  0
  9 11  1  0
 11 12  1  0
  8 13  1  0
 13 14  1  0
  6  2  1  0
 14  8  1  0
  1 15  1  0
  1 16  1  0
  1 17  1  0
  3 18  1  0
  3 19  1  0
  4 20  1  0
  4 21  1  0
  7 22  1  0
  9 23  1  1
 10 24  1  0
 11 25  1  0
 11 26  1  0
 12 27  1  0
 13 28  1  0
 13 29  1  0
 14 30  1  0
 14 31  1  0
M  END
$$$$

     RDKit          3D

 31 32  0  0  0  0  0  0  0  0999 V2000
    2.7449    1.4990   -1.2214 C   0  0  0  0  0  0  0  0  0  0  0  0
    2.3687    0.6653   -0.1161 N   0  0  0  0  0  0  0  0  0  0  0  0
    3.1904    0.2271    0.9950 C   0  0  0  0  0  0  0  0  0  0  0  0
    2.1347    0.0411    2.0830 C   0  0  0  0  0  0  0  0  0  0  0  0
    0.9320   -0.2558    1.3284 N   0  0  0  0  0  0  0  0  0  0  0  0
    1.0641    0.0944    0.0959 C   0  0  0  0  0  0  0  0  0  0  0  0
    0.0288   -0.0869   -0.8617 N   0  0  0  0  0  0  0  0  0  0  0  0
   -1.1680   -0.8132   -0.5383 C   0  0  0  0  0  0  0  0  0  0  0  0
   -2.0574   -0.3422    0.5776 C   0  0  2  0  0  0  0  0  0  0  0  0
   -3.1353   -1.2210    0.6743 O   0  0  0  0  0  0  0  0  0  0  0  0
   -2.5970    1.0390    0.3600 C   0  0  0  0  0  0  0  0  0  0  0  0
   -1.5273    1.9136    0.2637 O   0  0  0  0  0  0  0  0  0  0  0  0
   -1.1338   -2.3423   -0.6639 C   0  0  0  0  0  0  0  0  0  0  0  0
   -1.7983   -1.5302   -1.7148 C   0  0  0  0  0  0  0  0  0  0  0  0
    2.6832    2.5675   -0.8645 H   0  0  0  0  0  0  0  0  0  0  0  0
    2.0978    1.3473   -2.1069 H   0  0  0  0  0  0  0  0  0  0  0  0
    3.8028    1.3310   -1.5334 H   0  0  0  0  0  0  0  0  0  0  0  0
    3.9133    1.0107    1.2431 H   0  0  0  0  0  0  0  0  0  0  0  0
    3.6428   -0.7691    0.8148 H   0  0  0  0  0  0  0  0  0  0  0  0
    2.3744   -0.8095    2.7277 H   0  0  0  0  0  0  0  0  0  0  0  0
    1.9977    0.9905    2.6122 H   0  0  0  0  0  0  0  0  0  0  0  0
    0.1399    0.3150   -1.8175 H   0  0  0  0  0  0  0  0  0  0  0  0
   -1.4859   -0.3738    1.5175 H   0  0  0  0  0  0  0  0  0  0  0  0
   -3.8282   -0.9179    0.0471 H   0  0  0  0  0  0  0  0  0  0  0  0
   -3.2102    1.3009    1.2458 H   0  0  0  0  0  0  0  0  0  0  0  0
   -3.2237    1.0415   -0.5514 H   0  0  0  0  0  0  0  0  0  0  0  0
   -1.8821    2.8222    0.3388 H   0  0  0  0  0  0  0  0  0  0  0  0
   -1.7707   -2.9465   -0.0254 H   0  0  0  0  0  0  0  0  0  0  0  0
   -0.1151   -2.7426   -0.8504 H   0  0  0  0  0  0  0  0  0  0  0  0
   -1.2818   -1.5096   -2.6919 H   0  0  0  0  0  0  0  0  0  0  0  0
   -2.9009   -1.5456   -1.8068 H   0  0  0  0  0  0  0  0  0  0  0  0
  1  2  1  0
  2  3  1  0
  3  4  1  0
  4  5  1  0
  5  6  2  0
  6  7  1  0
  7  8  1  0
  8  9  1  0
  9 10  1  0
  9 11  1  0
 11 12  1  0
  8 13  1  0
 13 14  1  0
  6  2  1  0
 14  8  1  0
  1 15  1  0
  1 16  1  0
  1 17  1  0
  3 18  1  0
  3 19  1  0
  4 20  1  0
  4 21  1  0
  7 22  1  0
  9 23  1  1
 10 24  1  0
 11 25  1  0
 11 26  1  0
 12 27  1  0
 13 28  1  0
 13 29  1  0
 14 30  1  0
 14 31  1  0
M  END
$$$$

     RDKit          3D

 31 32  0  0  0  0  0  0  0  0999 V2000
   -2.8261    1.1776    1.4054 C   0  0  0  0  0  0  0  0  0  0  0  0
   -2.4070    0.4213    0.2498 N   0  0  0  0  0  0  0  0  0  0  0  0
   -3.2468   -0.0495   -0.8434 C   0  0  0  0  0  0  0  0  0  0  0  0
   -2.2632   -0.0825   -1.9865 C   0  0  0  0  0  0  0  0  0  0  0  0
   -1.0063   -0.3085   -1.3187 N   0  0  0  0  0  0  0  0  0  0  0  0
   -1.0936   -0.0253   -0.0707 C   0  0  0  0  0  0  0  0  0  0  0  0
   -0.0470   -0.1301    0.8875 N   0  0  0  0  0  0  0  0  0  0  0  0
    1.2467   -0.6790    0.4863 C   0  0  0  0  0  0  0  0  0  0  0  0
    1.9783    0.0491   -0.6052 C   0  0  2  0  0  0  0  0  0  0  0  0
    3.1846   -0.5284   -0.9262 O   0  0  0  0  0  0  0  0  0  0  0  0
    2.1729    1.5104   -0.2584 C   0  0  0  0  0  0  0  0  0  0  0  0
    2.7210    2.1302   -1.3799 O   0  0  0  0  0  0  0  0  0  0  0  0
    1.4637   -2.1540    0.6189 C   0  0  0  0  0  0  0  0  0  0  0  0
    2.0441   -1.2752    1.6490 C   0  0  0  0  0  0  0  0  0  0  0  0
   -3.9320    1.1359    1.4972 H   0  0  0  0  0  0  0  0  0  0  0  0
   -2.4490    2.2253    1.3063 H   0  0  0  0  0  0  0  0  0  0  0  0
   -2.3588    0.7495    2.3256 H   0  0  0  0  0  0  0  0  0  0  0  0
   -4.0988    0.6123   -1.0172 H   0  0  0  0  0  0  0  0  0  0  0  0
   -3.5693   -1.0987   -0.6429 H   0  0  0  0  0  0  0  0  0  0  0  0
   -2.4678   -0.8980   -2.7094 H   0  0  0  0  0  0  0  0  0  0  0  0
   -2.2244    0.9092   -2.4838 H   0  0  0  0  0  0  0  0  0  0  0  0
   -0.1914    0.1761    1.8583 H   0  0  0  0  0  0  0  0  0  0  0  0
    1.3414    0.0279   -1.5171 H   0  0  0  0  0  0  0  0  0  0  0  0
    3.4865   -1.1944   -0.2654 H   0  0  0  0  0  0  0  0  0  0  0  0
    2.9152    1.6390    0.5747 H   0  0  0  0  0  0  0  0  0  0  0  0
    1.1789    1.9257    0.0022 H   0  0  0  0  0  0  0  0  0  0  0  0
    3.1806    1.4696   -1.9665 H   0  0  0  0  0  0  0  0  0  0  0  0
    2.0710   -2.6535   -0.1490 H   0  0  0  0  0  0  0  0  0  0  0  0
    0.5516   -2.7508    0.8976 H   0  0  0  0  0  0  0  0  0  0  0  0
    3.1052   -1.0285    1.7250 H   0  0  0  0  0  0  0  0  0  0  0  0
    1.5398   -1.3028    2.6566 H   0  0  0  0  0  0  0  0  0  0  0  0
  1  2  1  0
  2  3  1  0
  3  4  1  0
  4  5  1  0
  5  6  2  0
  6  7  1  0
  7  8  1  0
  8  9  1  0
  9 10  1  0
  9 11  1  0
 11 12  1  0
  8 13  1  0
 13 14  1  0
  6  2  1  0
 14  8  1  0
  1 15  1  0
  1 16  1  0
  1 17  1  0
  3 18  1  0
  3 19  1  0
  4 20  1  0
  4 21  1  0
  7 22  1  0
  9 23  1  6
 10 24  1  0
 11 25  1  0
 11 26  1  0
 12 27  1  0
 13 28  1  0
 13 29  1  0
 14 30  1  0
 14 31  1  0
M  END
$$$$

     RDKit          3D

 31 32  0  0  0  0  0  0  0  0999 V2000
    3.1817   -1.5933    0.5502 C   0  0  0  0  0  0  0  0  0  0  0  0
    2.5809   -0.3027    0.2414 N   0  0  0  0  0  0  0  0  0  0  0  0
    3.2693    0.9693    0.3128 C   0  0  0  0  0  0  0  0  0  0  0  0
    2.3342    1.8900   -0.4339 C   0  0  0  0  0  0  0  0  0  0  0  0
    1.1131    1.1481   -0.5485 N   0  0  0  0  0  0  0  0  0  0  0  0
    1.2322   -0.0692   -0.1783 C   0  0  0  0  0  0  0  0  0  0  0  0
    0.1718   -1.0108   -0.1950 N   0  0  0  0  0  0  0  0  0  0  0  0
   -1.2234   -0.5518   -0.3869 C   0  0  0  0  0  0  0  0  0  0  0  0
   -1.6772    0.3937    0.6688 C   0  0  2  0  0  0  0  0  0  0  0  0
   -1.6182   -0.2079    1.9334 O   0  0  0  0  0  0  0  0  0  0  0  0
   -3.0338    0.9872    0.4445 C   0  0  0  0  0  0  0  0  0  0  0  0
   -4.0185    0.0346    0.5237 O   0  0  0  0  0  0  0  0  0  0  0  0
   -2.0960   -1.4937   -1.0882 C   0  0  0  0  0  0  0  0  0  0  0  0
   -1.6172   -0.3034   -1.8511 C   0  0  0  0  0  0  0  0  0  0  0  0
    4.2093   -1.6487    0.1100 H   0  0  0  0  0  0  0  0  0  0  0  0
    3.2094   -1.7107    1.6464 H   0  0  0  0  0  0  0  0  0  0  0  0
    2.5626   -2.4062    0.0933 H   0  0  0  0  0  0  0  0  0  0  0  0
    4.2509    0.8989   -0.2140 H   0  0  0  0  0  0  0  0  0  0  0  0
    3.3866    1.2869    1.3501 H   0  0  0  0  0  0  0  0  0  0  0  0
    2.7738    2.1033   -1.4392 H   0  0  0  0  0  0  0  0  0  0  0  0
    2.1323    2.8250    0.1231 H   0  0  0  0  0  0  0  0  0  0  0  0
    0.3904   -2.0130   -0.0718 H   0  0  0  0  0  0  0  0  0  0  0  0
   -0.9457    1.2581    0.6556 H   0  0  0  0  0  0  0  0  0  0  0  0
   -2.0897    0.4272    2.5536 H   0  0  0  0  0  0  0  0  0  0  0  0
   -3.2203    1.7348    1.2688 H   0  0  0  0  0  0  0  0  0  0  0  0
   -3.0990    1.5246   -0.5182 H   0  0  0  0  0  0  0  0  0  0  0  0
   -4.2335   -0.2452    1.4529 H   0  0  0  0  0  0  0  0  0  0  0  0
   -3.1681   -1.5489   -0.8941 H   0  0  0  0  0  0  0  0  0  0  0  0
   -1.6758   -2.4679   -1.4301 H   0  0  0  0  0  0  0  0  0  0  0  0
   -2.2637    0.5436   -2.0676 H   0  0  0  0  0  0  0  0  0  0  0  0
   -0.8185   -0.4522   -2.6118 H   0  0  0  0  0  0  0  0  0  0  0  0
  1  2  1  0
  2  3  1  0
  3  4  1  0
  4  5  1  0
  5  6  2  0
  6  7  1  0
  7  8  1  0
  8  9  1  0
  9 10  1  0
  9 11  1  0
 11 12  1  0
  8 13  1  0
 13 14  1  0
  6  2  1  0
 14  8  1  0
  1 15  1  0
  1 16  1  0
  1 17  1  0
  3 18  1  0
  3 19  1  0
  4 20  1  0
  4 21  1  0
  7 22  1  0
  9 23  1  1
 10 24  1  0
 11 25  1  0
 11 26  1  0
 12 27  1  0
 13 28  1  0
 13 29  1  0
 14 30  1  0
 14 31  1  0
M  END
$$$$

     RDKit          3D

 31 32  0  0  0  0  0  0  0  0999 V2000
    3.0282   -1.8867   -0.0474 C   0  0  0  0  0  0  0  0  0  0  0  0
    2.6917   -0.4774   -0.1126 N   0  0  0  0  0  0  0  0  0  0  0  0
    3.6355    0.6514   -0.1131 C   0  0  0  0  0  0  0  0  0  0  0  0
    2.8080    1.7186   -0.7923 C   0  0  0  0  0  0  0  0  0  0  0  0
    1.4611    1.2656   -0.5597 N   0  0  0  0  0  0  0  0  0  0  0  0
    1.3893    0.0655   -0.1878 C   0  0  0  0  0  0  0  0  0  0  0  0
    0.1453   -0.5910    0.0997 N   0  0  0  0  0  0  0  0  0  0  0  0
   -1.1154    0.0985    0.1968 C   0  0  0  0  0  0  0  0  0  0  0  0
   -2.2847   -0.8094    0.5097 C   0  0  2  0  0  0  0  0  0  0  0  0
   -2.4087   -1.7676   -0.5080 O   0  0  0  0  0  0  0  0  0  0  0  0
   -3.5889   -0.1150    0.6871 C   0  0  0  0  0  0  0  0  0  0  0  0
   -4.5138   -1.1365    1.0263 O   0  0  0  0  0  0  0  0  0  0  0  0
   -1.2396    1.5111    0.4903 C   0  0  0  0  0  0  0  0  0  0  0  0
   -1.4488    1.0610   -0.9550 C   0  0  0  0  0  0  0  0  0  0  0  0
    3.1452   -2.2946   -1.0709 H   0  0  0  0  0  0  0  0  0  0  0  0
    2.2840   -2.4666    0.5509 H   0  0  0  0  0  0  0  0  0  0  0  0
    3.9871   -1.9613    0.5375 H   0  0  0  0  0  0  0  0  0  0  0  0
    4.5424    0.3952   -0.6698 H   0  0  0  0  0  0  0  0  0  0  0  0
    3.8327    0.9104    0.9497 H   0  0  0  0  0  0  0  0  0  0  0  0
    2.9746    1.6713   -1.8963 H   0  0  0  0  0  0  0  0  0  0  0  0
    3.0107    2.7275   -0.3865 H   0  0  0  0  0  0  0  0  0  0  0  0
    0.2066   -1.6215    0.2382 H   0  0  0  0  0  0  0  0  0  0  0  0
   -2.0851   -1.3921    1.4402 H   0  0  0  0  0  0  0  0  0  0  0  0
   -2.9555   -1.4292   -1.2608 H   0  0  0  0  0  0  0  0  0  0  0  0
   -3.5715    0.5913    1.5486 H   0  0  0  0  0  0  0  0  0  0  0  0
   -4.0020    0.3386   -0.2367 H   0  0  0  0  0  0  0  0  0  0  0  0
   -4.3081   -1.5300    1.8907 H   0  0  0  0  0  0  0  0  0  0  0  0
   -0.3910    2.2166    0.5790 H   0  0  0  0  0  0  0  0  0  0  0  0
   -2.1235    1.8925    1.0401 H   0  0  0  0  0  0  0  0  0  0  0  0
   -2.4740    1.1563   -1.3062 H   0  0  0  0  0  0  0  0  0  0  0  0
   -0.6317    1.2075   -1.6817 H   0  0  0  0  0  0  0  0  0  0  0  0
  1  2  1  0
  2  3  1  0
  3  4  1  0
  4  5  1  0
  5  6  2  0
  6  7  1  0
  7  8  1  0
  8  9  1  0
  9 10  1  0
  9 11  1  0
 11 12  1  0
  8 13  1  0
 13 14  1  0
  6  2  1  0
 14  8  1  0
  1 15  1  0
  1 16  1  0
  1 17  1  0
  3 18  1  0
  3 19  1  0
  4 20  1  0
  4 21  1  0
  7 22  1  0
  9 23  1  1
 10 24  1  0
 11 25  1  0
 11 26  1  0
 12 27  1  0
 13 28  1  0
 13 29  1  0
 14 30  1  0
 14 31  1  0
M  END
$$$$
