
     RDKit          3D

 31 32  0  0  0  0  0  0  0  0999 V2000
    3.5653    0.2163   -0.2869 C   0  0  0  0  0  0  0  0  0  0  0  0
    2.3306    0.9661   -0.2011 N   0  0  0  0  0  0  0  0  0  0  0  0
    1.5921    0.7354   -1.4191 C   0  0  0  0  0  0  0  0  0  0  0  0
    0.2746    1.4726   -1.2484 C   0  0  0  0  0  0  0  0  0  0  0  0
   -0.5013    0.6952   -0.3099 N   0  0  0  0  0  0  0  0  0  0  0  0
   -1.1864   -0.4006   -0.9267 C   0  0  0  0  0  0  0  0  0  0  0  0
   -2.1119   -1.0157    0.1349 C   0  0  2  0  0  0  0  0  0  0  0  0
   -2.7910   -2.1436   -0.5213 N   0  0  0  0  0  0  0  0  0  0  0  0
   -3.1763   -0.0140    0.4586 C   0  0  0  0  0  0  0  0  0  0  0  0
   -4.3463   -0.2036    0.0280 O   0  0  0  0  0  0  0  0  0  0  0  0
   -2.9538    1.1244    1.2143 O   0  0  0  0  0  0  0  0  0  0  0  0
    0.1950    0.3715    0.8900 C   0  0  1  0  0  0  0  0  0  0  0  0
    1.0934   -0.8047    0.9920 C   0  0  0  0  0  0  0  0  0  0  0  0
    1.6261    0.6105    0.9760 C   0  0  1  0  0  0  0  0  0  0  0  0
    3.9017   -0.0557    0.7390 H   0  0  0  0  0  0  0  0  0  0  0  0
    3.3757   -0.7320   -0.8448 H   0  0  0  0  0  0  0  0  0  0  0  0
    4.3503    0.7886   -0.8384 H   0  0  0  0  0  0  0  0  0  0  0  0
    1.4044   -0.3432   -1.6026 H   0  0  0  0  0  0  0  0  0  0  0  0
    2.1685    1.1264   -2.2648 H   0  0  0  0  0  0  0  0  0  0  0  0
   -0.3034    1.5772   -2.1772 H   0  0  0  0  0  0  0  0  0  0  0  0
    0.5258    2.4287   -0.7490 H   0  0  0  0  0  0  0  0  0  0  0  0
   -1.8630    0.0162   -1.7064 H   0  0  0  0  0  0  0  0  0  0  0  0
   -0.5530   -1.1524   -1.3989 H   0  0  0  0  0  0  0  0  0  0  0  0
   -1.5728   -1.3162    1.0347 H   0  0  0  0  0  0  0  0  0  0  0  0
   -2.0593   -2.6873   -1.0092 H   0  0  0  0  0  0  0  0  0  0  0  0
   -3.4415   -1.7326   -1.2605 H   0  0  0  0  0  0  0  0  0  0  0  0
   -3.6834    1.6623    1.6664 H   0  0  0  0  0  0  0  0  0  0  0  0
   -0.3993    0.5595    1.8142 H   0  0  0  0  0  0  0  0  0  0  0  0
    1.2168   -1.3082    1.9835 H   0  0  0  0  0  0  0  0  0  0  0  0
    1.2877   -1.4886    0.1528 H   0  0  0  0  0  0  0  0  0  0  0  0
    2.0347    1.0475    1.9093 H   0  0  0  0  0  0  0  0  0  0  0  0
  1  2  1  0
  2  3  1  0
  3  4  1  0
  4  5  1  0
  5  6  1  0
  6  7  1  0
  7  8  1  0
  7  9  1  0
  9 10  2  0
  9 11  1  0
  5 12  1  0
 12 13  1  0
 13 14  1  0
 14  2  1  0
 14 12  1  0
  1 15  1  0
  1 16  1  0
  1 17  1  0
  3 18  1  0
  3 19  1  0
  4 20  1  0
  4 21  1  0
  6 22  1  0
  6 23  1  0
  7 24  1  1
  8 25  1  0
  8 26  1  0
 11 27  1  0
 12 28  1  1
 13 29  1  0
 13 30  1  0
 14 31  1  1
M  END
$$$$

     RDKit          3D

 31 32  0  0  0  0  0  0  0  0999 V2000
    3.6798    1.1651    0.1796 C   0  0  0  0  0  0  0  0  0  0  0  0
    2.2699    1.1619    0.5031 N   0  0  0  0  0  0  0  0  0  0  0  0
    1.5049    0.8029   -0.6460 C   0  0  0  0  0  0  0  0  0  0  0  0
    0.0101    0.8170   -0.3815 C   0  0  0  0  0  0  0  0  0  0  0  0
   -0.3700    0.2994    0.8650 N   0  0  0  0  0  0  0  0  0  0  0  0
   -1.3091   -0.7663    0.7388 C   0  0  0  0  0  0  0  0  0  0  0  0
   -2.6954   -0.4864    0.3244 C   0  0  2  0  0  0  0  0  0  0  0  0
   -3.3334   -1.8452    0.3071 N   0  0  0  0  0  0  0  0  0  0  0  0
   -2.9549    0.1958   -0.9236 C   0  0  0  0  0  0  0  0  0  0  0  0
   -3.3006   -0.4640   -1.9438 O   0  0  0  0  0  0  0  0  0  0  0  0
   -2.8459    1.5640   -1.0546 O   0  0  0  0  0  0  0  0  0  0  0  0
    0.6273   -0.0972    1.7902 C   0  0  1  0  0  0  0  0  0  0  0  0
    1.6080   -1.1731    1.3153 C   0  0  0  0  0  0  0  0  0  0  0  0
    2.0229    0.2126    1.5349 C   0  0  1  0  0  0  0  0  0  0  0  0
    3.9864    2.1962   -0.1697 H   0  0  0  0  0  0  0  0  0  0  0  0
    3.9686    0.3898   -0.5603 H   0  0  0  0  0  0  0  0  0  0  0  0
    4.2855    0.9821    1.1016 H   0  0  0  0  0  0  0  0  0  0  0  0
    1.7448    1.5511   -1.4434 H   0  0  0  0  0  0  0  0  0  0  0  0
    1.7907   -0.1814   -1.0659 H   0  0  0  0  0  0  0  0  0  0  0  0
   -0.2868    1.9009   -0.4402 H   0  0  0  0  0  0  0  0  0  0  0  0
   -0.4842    0.3148   -1.2417 H   0  0  0  0  0  0  0  0  0  0  0  0
   -1.3858   -1.3628    1.7068 H   0  0  0  0  0  0  0  0  0  0  0  0
   -0.8969   -1.5488    0.0160 H   0  0  0  0  0  0  0  0  0  0  0  0
   -3.2692    0.0364    1.1417 H   0  0  0  0  0  0  0  0  0  0  0  0
   -4.3669   -1.7507    0.3356 H   0  0  0  0  0  0  0  0  0  0  0  0
   -2.9610   -2.4040    1.1129 H   0  0  0  0  0  0  0  0  0  0  0  0
   -3.2852    2.0082   -1.8732 H   0  0  0  0  0  0  0  0  0  0  0  0
    0.2331   -0.3195    2.8110 H   0  0  0  0  0  0  0  0  0  0  0  0
    1.9265   -1.9572    2.0503 H   0  0  0  0  0  0  0  0  0  0  0  0
    1.4255   -1.6241    0.3199 H   0  0  0  0  0  0  0  0  0  0  0  0
    2.6612    0.3826    2.4541 H   0  0  0  0  0  0  0  0  0  0  0  0
  1  2  1  0
  2  3  1  0
  3  4  1  0
  4  5  1  0
  5  6  1  0
  6  7  1  0
  7  8  1  0
  7  9  1  0
  9 10  2  0
  9 11  1  0
  5 12  1  0
 12 13  1  0
 13 14  1  0
 14  2  1  0
 14 12  1  0
  1 15  1  0
  1 16  1  0
  1 17  1  0
  3 18  1  0
  3 19  1  0
  4 20  1  0
  4 21  1  0
  6 22  1  0
  6 23  1  0
  7 24  1  1
  8 25  1  0
  8 26  1  0
 11 27  1  0
 12 28  1  1
 13 29  1  0
 13 30  1  0
 14 31  1  1
M  END
$$$$

     RDKit          3D

 31 32  0  0  0  0  0  0  0  0999 V2000
    3.7913    0.6205    0.2334 C   0  0  0  0  0  0  0  0  0  0  0  0
    2.4857    0.1655    0.6737 N   0  0  0  0  0  0  0  0  0  0  0  0
    1.5258    1.2168    0.4731 C   0  0  0  0  0  0  0  0  0  0  0  0
    0.1107    0.7855    0.7984 C   0  0  0  0  0  0  0  0  0  0  0  0
   -0.2085   -0.5312    0.4947 N   0  0  0  0  0  0  0  0  0  0  0  0
   -1.4039   -0.7113   -0.2458 C   0  0  0  0  0  0  0  0  0  0  0  0
   -2.7174   -0.4910    0.3961 C   0  0  2  0  0  0  0  0  0  0  0  0
   -3.7042   -0.7782   -0.6920 N   0  0  0  0  0  0  0  0  0  0  0  0
   -2.9817    0.8837    0.7968 C   0  0  0  0  0  0  0  0  0  0  0  0
   -2.6311    1.3074    1.9174 O   0  0  0  0  0  0  0  0  0  0  0  0
   -3.6288    1.7529   -0.0590 O   0  0  0  0  0  0  0  0  0  0  0  0
    0.7758   -1.4305    0.0341 C   0  0  1  0  0  0  0  0  0  0  0  0
    1.4167   -1.0311   -1.3040 C   0  0  0  0  0  0  0  0  0  0  0  0
    2.1633   -1.0365   -0.0377 C   0  0  1  0  0  0  0  0  0  0  0  0
    3.8237    1.7436    0.1622 H   0  0  0  0  0  0  0  0  0  0  0  0
    4.6028    0.2465    0.9003 H   0  0  0  0  0  0  0  0  0  0  0  0
    4.0490    0.2605   -0.7869 H   0  0  0  0  0  0  0  0  0  0  0  0
    1.6022    1.5484   -0.5829 H   0  0  0  0  0  0  0  0  0  0  0  0
    1.8479    2.0799    1.0943 H   0  0  0  0  0  0  0  0  0  0  0  0
   -0.5499    1.4984    0.2788 H   0  0  0  0  0  0  0  0  0  0  0  0
    0.0051    0.9652    1.8915 H   0  0  0  0  0  0  0  0  0  0  0  0
   -1.3975   -1.8071   -0.5780 H   0  0  0  0  0  0  0  0  0  0  0  0
   -1.3883   -0.1635   -1.2317 H   0  0  0  0  0  0  0  0  0  0  0  0
   -2.9478   -1.2390    1.1868 H   0  0  0  0  0  0  0  0  0  0  0  0
   -4.0178   -1.7677   -0.6303 H   0  0  0  0  0  0  0  0  0  0  0  0
   -3.2894   -0.5816   -1.6210 H   0  0  0  0  0  0  0  0  0  0  0  0
   -3.4208    2.7528   -0.0520 H   0  0  0  0  0  0  0  0  0  0  0  0
    0.5019   -2.5017    0.1675 H   0  0  0  0  0  0  0  0  0  0  0  0
    1.5194   -1.8653   -1.9998 H   0  0  0  0  0  0  0  0  0  0  0  0
    1.1284   -0.0566   -1.7464 H   0  0  0  0  0  0  0  0  0  0  0  0
    2.9375   -1.8353    0.0685 H   0  0  0  0  0  0  0  0  0  0  0  0
  1  2  1  0
  2  3  1  0
  3  4  1  0
  4  5  1  0
  5  6  1  0
  6  7  1  0
  7  8  1  0
  7  9  1  0
  9 10  2  0
  9 11  1  0
  5 12  1  0
 12 13  1  0
 13 14  1  0
 14  2  1  0
 14 12  1  0
  1 15  1  0
  1 16  1  0
  1 17  1  0
  3 18  1  0
  3 19  1  0
  4 20  1  0
  4 21  1  0
  6 22  1  0
  6 23  1  0
  7 24  1  1
  8 25  1  0
  8 26  1  0
 11 27  1  0
 12 28  1  6
 13 29  1  0
 13 30  1  0
 14 31  1  6
M  END
$$$$

     RDKit          3D

 31 32  0  0  0  0  0  0  0  0999 V2000
    3.8193   -0.5476    0.3322 C   0  0  0  0  0  0  0  0  0  0  0  0
    2.4412   -0.2466    0.5884 N   0  0  0  0  0  0  0  0  0  0  0  0
    1.6129   -1.3786    0.3827 C   0  0  0  0  0  0  0  0  0  0  0  0
    0.1523   -1.1102    0.5443 C   0  0  0  0  0  0  0  0  0  0  0  0
   -0.3377    0.1172    0.0913 N   0  0  0  0  0  0  0  0  0  0  0  0
   -1.2368   -0.0413   -1.0275 C   0  0  0  0  0  0  0  0  0  0  0  0
   -2.5365   -0.7084   -0.6821 C   0  0  2  0  0  0  0  0  0  0  0  0
   -3.2922   -0.7714   -1.9441 N   0  0  0  0  0  0  0  0  0  0  0  0
   -3.3248    0.0341    0.3133 C   0  0  0  0  0  0  0  0  0  0  0  0
   -4.4278    0.5015    0.0471 O   0  0  0  0  0  0  0  0  0  0  0  0
   -2.7902    0.2058    1.5941 O   0  0  0  0  0  0  0  0  0  0  0  0
    0.5630    1.1744   -0.1498 C   0  0  1  0  0  0  0  0  0  0  0  0
    1.2804    1.9033    0.9713 C   0  0  0  0  0  0  0  0  0  0  0  0
    1.9884    0.9583    0.0000 C   0  0  1  0  0  0  0  0  0  0  0  0
    4.3468    0.2593   -0.2170 H   0  0  0  0  0  0  0  0  0  0  0  0
    3.8857   -1.4937   -0.2350 H   0  0  0  0  0  0  0  0  0  0  0  0
    4.3157   -0.6741    1.3217 H   0  0  0  0  0  0  0  0  0  0  0  0
    1.8048   -1.8252   -0.6152 H   0  0  0  0  0  0  0  0  0  0  0  0
    1.8945   -2.1588    1.1225 H   0  0  0  0  0  0  0  0  0  0  0  0
   -0.1023   -1.2234    1.6399 H   0  0  0  0  0  0  0  0  0  0  0  0
   -0.3792   -1.9737    0.0580 H   0  0  0  0  0  0  0  0  0  0  0  0
   -0.7119   -0.7242   -1.7471 H   0  0  0  0  0  0  0  0  0  0  0  0
   -1.3709    0.9341   -1.5356 H   0  0  0  0  0  0  0  0  0  0  0  0
   -2.3612   -1.7266   -0.3223 H   0  0  0  0  0  0  0  0  0  0  0  0
   -3.1911    0.1865   -2.3593 H   0  0  0  0  0  0  0  0  0  0  0  0
   -4.2607   -1.0315   -1.7268 H   0  0  0  0  0  0  0  0  0  0  0  0
   -3.4042    0.2675    2.4175 H   0  0  0  0  0  0  0  0  0  0  0  0
    0.2426    1.8979   -0.9585 H   0  0  0  0  0  0  0  0  0  0  0  0
    1.1477    1.5800    2.0091 H   0  0  0  0  0  0  0  0  0  0  0  0
    1.5619    2.9670    0.8444 H   0  0  0  0  0  0  0  0  0  0  0  0
    2.6702    1.4011   -0.7575 H   0  0  0  0  0  0  0  0  0  0  0  0
  1  2  1  0
  2  3  1  0
  3  4  1  0
  4  5  1  0
  5  6  1  0
  6  7  1  0
  7  8  1  0
  7  9  1  0
  9 10  2  0
  9 11  1  0
  5 12  1  0
 12 13  1  0
 13 14  1  0
 14  2  1  0
 14 12  1  0
  1 15  1  0
  1 16  1  0
  1 17  1  0
  3 18  1  0
  3 19  1  0
  4 20  1  0
  4 21  1  0
  6 22  1  0
  6 23  1  0
  7 24  1  1
  8 25  1  0
  8 26  1  0
 11 27  1  0
 12 28  1  6
 13 29  1  0
 13 30  1  0
 14 31  1  6
M  END
$$$$

     RDKit          3D

 31 32  0  0  0  0  0  0  0  0999 V2000
   -3.7689    0.0068    0.0864 C   0  0  0  0  0  0  0  0  0  0  0  0
   -2.3587   -0.0704    0.1041 N   0  0  0  0  0  0  0  0  0  0  0  0
   -1.6876    0.1471    1.3361 C   0  0  0  0  0  0  0  0  0  0  0  0
   -0.2886   -0.4710    1.1854 C   0  0  0  0  0  0  0  0  0  0  0  0
    0.1901   -0.4571   -0.1147 N   0  0  0  0  0  0  0  0  0  0  0  0
    1.2869   -1.1994   -0.5321 C   0  0  0  0  0  0  0  0  0  0  0  0
    2.6100   -0.7282    0.0219 C   0  0  2  0  0  0  0  0  0  0  0  0
    2.6595   -0.7633    1.4561 N   0  0  0  0  0  0  0  0  0  0  0  0
    2.9364    0.6134   -0.4754 C   0  0  0  0  0  0  0  0  0  0  0  0
    2.9414    0.8340   -1.7219 O   0  0  0  0  0  0  0  0  0  0  0  0
    3.2463    1.6867    0.3538 O   0  0  0  0  0  0  0  0  0  0  0  0
   -0.2984    0.5146   -1.0237 C   0  0  1  0  0  0  0  0  0  0  0  0
   -1.2386    0.0997   -2.1005 C   0  0  0  0  0  0  0  0  0  0  0  0
   -1.7482    0.7965   -0.8905 C   0  0  1  0  0  0  0  0  0  0  0  0
   -4.0938    1.0696   -0.0704 H   0  0  0  0  0  0  0  0  0  0  0  0
   -4.1262   -0.5088   -0.8560 H   0  0  0  0  0  0  0  0  0  0  0  0
   -4.2928   -0.4402    0.9268 H   0  0  0  0  0  0  0  0  0  0  0  0
   -1.4747    1.2369    1.5471 H   0  0  0  0  0  0  0  0  0  0  0  0
   -2.1883   -0.2439    2.2398 H   0  0  0  0  0  0  0  0  0  0  0  0
    0.3741   -0.0081    1.9660 H   0  0  0  0  0  0  0  0  0  0  0  0
   -0.4219   -1.5268    1.5667 H   0  0  0  0  0  0  0  0  0  0  0  0
    1.1870   -2.3003   -0.2890 H   0  0  0  0  0  0  0  0  0  0  0  0
    1.3858   -1.1879   -1.6502 H   0  0  0  0  0  0  0  0  0  0  0  0
    3.4224   -1.4150   -0.3415 H   0  0  0  0  0  0  0  0  0  0  0  0
    2.7218    0.2299    1.8262 H   0  0  0  0  0  0  0  0  0  0  0  0
    3.5552   -1.2104    1.7754 H   0  0  0  0  0  0  0  0  0  0  0  0
    4.0157    2.3192    0.0899 H   0  0  0  0  0  0  0  0  0  0  0  0
    0.3178    1.4235   -1.1819 H   0  0  0  0  0  0  0  0  0  0  0  0
   -1.2685    0.7071   -3.0324 H   0  0  0  0  0  0  0  0  0  0  0  0
   -1.4627   -0.9804   -2.2594 H   0  0  0  0  0  0  0  0  0  0  0  0
   -2.1325    1.8263   -0.8940 H   0  0  0  0  0  0  0  0  0  0  0  0
  1  2  1  0
  2  3  1  0
  3  4  1  0
  4  5  1  0
  5  6  1  0
  6  7  1  0
  7  8  1  0
  7  9  1  0
  9 10  2  0
  9 11  1  0
  5 12  1  0
 12 13  1  0
 13 14  1  0
 14  2  1  0
 14 12  1  0
  1 15  1  0
  1 16  1  0
  1 17  1  0
  3 18  1  0
  3 19  1  0
  4 20  1  0
  4 21  1  0
  6 22  1  0
  6 23  1  0
  7 24  1  6
  8 25  1  0
  8 26  1  0
 11 27  1  0
 12 28  1  6
 13 29  1  0
 13 30  1  0
 14 31  1  6
M  END
$$$$

     RDKit          3D

 31 32  0  0  0  0  0  0  0  0999 V2000
   -3.9044    0.6053   -0.0610 C   0  0  0  0  0  0  0  0  0  0  0  0
   -2.4804    0.8601   -0.1753 N   0  0  0  0  0  0  0  0  0  0  0  0
   -1.8475    0.3435    0.9912 C   0  0  0  0  0  0  0  0  0  0  0  0
   -0.3827    0.5742    0.9004 C   0  0  0  0  0  0  0  0  0  0  0  0
    0.2452    0.2030   -0.3121 N   0  0  0  0  0  0  0  0  0  0  0  0
    1.4105   -0.6177   -0.1256 C   0  0  0  0  0  0  0  0  0  0  0  0
    2.4633    0.2431    0.5205 C   0  0  2  0  0  0  0  0  0  0  0  0
    2.8352    1.3896   -0.2612 N   0  0  0  0  0  0  0  0  0  0  0  0
    3.5856   -0.5944    0.9526 C   0  0  0  0  0  0  0  0  0  0  0  0
    3.3458   -1.6270    1.6234 O   0  0  0  0  0  0  0  0  0  0  0  0
    4.8790   -0.2336    0.6158 O   0  0  0  0  0  0  0  0  0  0  0  0
   -0.5831   -0.1325   -1.4035 C   0  0  1  0  0  0  0  0  0  0  0  0
   -1.6073   -1.2119   -1.3662 C   0  0  0  0  0  0  0  0  0  0  0  0
   -1.9881    0.2207   -1.3529 C   0  0  1  0  0  0  0  0  0  0  0  0
   -4.3362    0.8911   -1.0649 H   0  0  0  0  0  0  0  0  0  0  0  0
   -4.3672    1.1910    0.7484 H   0  0  0  0  0  0  0  0  0  0  0  0
   -4.0338   -0.4868    0.0911 H   0  0  0  0  0  0  0  0  0  0  0  0
   -2.0442   -0.7248    1.2026 H   0  0  0  0  0  0  0  0  0  0  0  0
   -2.2107    0.9006    1.9050 H   0  0  0  0  0  0  0  0  0  0  0  0
   -0.1649    1.6541    1.1306 H   0  0  0  0  0  0  0  0  0  0  0  0
    0.0912   -0.0007    1.7367 H   0  0  0  0  0  0  0  0  0  0  0  0
    1.1510   -1.4248    0.5750 H   0  0  0  0  0  0  0  0  0  0  0  0
    1.7174   -0.9983   -1.1234 H   0  0  0  0  0  0  0  0  0  0  0  0
    1.9937    0.6497    1.4538 H   0  0  0  0  0  0  0  0  0  0  0  0
    3.6271    1.8573    0.2321 H   0  0  0  0  0  0  0  0  0  0  0  0
    3.0198    1.1955   -1.2641 H   0  0  0  0  0  0  0  0  0  0  0  0
    5.6271   -0.4543    1.2928 H   0  0  0  0  0  0  0  0  0  0  0  0
   -0.0638   -0.0538   -2.4061 H   0  0  0  0  0  0  0  0  0  0  0  0
   -1.8533   -1.7812   -2.2945 H   0  0  0  0  0  0  0  0  0  0  0  0
   -1.6769   -1.8521   -0.4640 H   0  0  0  0  0  0  0  0  0  0  0  0
   -2.4476    0.6328   -2.2970 H   0  0  0  0  0  0  0  0  0  0  0  0
  1  2  1  0
  2  3  1  0
  3  4  1  0
  4  5  1  0
  5  6  1  0
  6  7  1  0
  7  8  1  0
  7  9  1  0
  9 10  2  0
  9 11  1  0
  5 12  1  0
 12 13  1  0
 13 14  1  0
 14  2  1  0
 14 12  1  0
  1 15  1  0
  1 16  1  0
  1 17  1  0
  3 18  1  0
  3 19  1  0
  4 20  1  0
  4 21  1  0
  6 22  1  0
  6 23  1  0
  7 24  1  1
  8 25  1  0
  8 26  1  0
 11 27  1  0
 12 28  1  6
 13 29  1  0
 13 30  1  0
 14 31  1  6
M  END
$$$$

     RDKit          3D

 31 32  0  0  0  0  0  0  0  0999 V2000
    3.7549    1.0037    0.2672 C   0  0  0  0  0  0  0  0  0  0  0  0
    2.3708    0.6983    0.4601 N   0  0  0  0  0  0  0  0  0  0  0  0
    1.5935    1.0723   -0.6832 C   0  0  0  0  0  0  0  0  0  0  0  0
    0.1184    1.0159   -0.3017 C   0  0  0  0  0  0  0  0  0  0  0  0
   -0.2489   -0.1537    0.3723 N   0  0  0  0  0  0  0  0  0  0  0  0
   -1.4300   -0.8217    0.0176 C   0  0  0  0  0  0  0  0  0  0  0  0
   -2.7515   -0.2223    0.3355 C   0  0  2  0  0  0  0  0  0  0  0  0
   -3.7441   -1.2104   -0.1863 N   0  0  0  0  0  0  0  0  0  0  0  0
   -3.1099    1.0402   -0.2810 C   0  0  0  0  0  0  0  0  0  0  0  0
   -2.6567    2.1395    0.1243 O   0  0  0  0  0  0  0  0  0  0  0  0
   -3.9948    1.1228   -1.3825 O   0  0  0  0  0  0  0  0  0  0  0  0
    0.7408   -1.0630    0.8072 C   0  0  1  0  0  0  0  0  0  0  0  0
    1.7281   -1.6869   -0.1076 C   0  0  0  0  0  0  0  0  0  0  0  0
    2.1329   -0.6399    0.8804 C   0  0  1  0  0  0  0  0  0  0  0  0
    4.0378    1.1222   -0.8091 H   0  0  0  0  0  0  0  0  0  0  0  0
    4.3798    0.2228    0.7534 H   0  0  0  0  0  0  0  0  0  0  0  0
    3.9606    1.9734    0.7610 H   0  0  0  0  0  0  0  0  0  0  0  0
    1.8722    2.1352   -0.9297 H   0  0  0  0  0  0  0  0  0  0  0  0
    1.8113    0.4976   -1.6042 H   0  0  0  0  0  0  0  0  0  0  0  0
   -0.4962    1.2579   -1.1947 H   0  0  0  0  0  0  0  0  0  0  0  0
   -0.0033    1.8949    0.3972 H   0  0  0  0  0  0  0  0  0  0  0  0
   -1.4214   -1.1810   -1.0684 H   0  0  0  0  0  0  0  0  0  0  0  0
   -1.4339   -1.8259    0.5632 H   0  0  0  0  0  0  0  0  0  0  0  0
   -2.9657   -0.2214    1.4399 H   0  0  0  0  0  0  0  0  0  0  0  0
   -3.3940   -2.1779    0.0139 H   0  0  0  0  0  0  0  0  0  0  0  0
   -3.7677   -1.0141   -1.2247 H   0  0  0  0  0  0  0  0  0  0  0  0
   -3.9396    1.9486   -1.9903 H   0  0  0  0  0  0  0  0  0  0  0  0
    0.3249   -1.7879    1.5770 H   0  0  0  0  0  0  0  0  0  0  0  0
    2.1113   -2.7027    0.1300 H   0  0  0  0  0  0  0  0  0  0  0  0
    1.7124   -1.4931   -1.1909 H   0  0  0  0  0  0  0  0  0  0  0  0
    2.7077   -0.9434    1.7805 H   0  0  0  0  0  0  0  0  0  0  0  0
  1  2  1  0
  2  3  1  0
  3  4  1  0
  4  5  1  0
  5  6  1  0
  6  7  1  0
  7  8  1  0
  7  9  1  0
  9 10  2  0
  9 11  1  0
  5 12  1  0
 12 13  1  0
 13 14  1  0
 14  2  1  0
 14 12  1  0
  1 15  1  0
  1 16  1  0
  1 17  1  0
  3 18  1  0
  3 19  1  0
  4 20  1  0
  4 21  1  0
  6 22  1  0
  6 23  1  0
  7 24  1  1
  8 25  1  0
  8 26  1  0
 11 27  1  0
 12 28  1  1
 13 29  1  0
 13 30  1  0
 14 31  1  1
M  END
$$$$

     RDKit          3D

 31 32  0  0  0  0  0  0  0  0999 V2000
    3.7827   -0.3994    0.1105 C   0  0  0  0  0  0  0  0  0  0  0  0
    2.5119   -0.7348   -0.4982 N   0  0  0  0  0  0  0  0  0  0  0  0
    1.6268   -1.2169    0.4993 C   0  0  0  0  0  0  0  0  0  0  0  0
    0.1982   -1.1163   -0.0679 C   0  0  0  0  0  0  0  0  0  0  0  0
   -0.0921    0.2713   -0.1148 N   0  0  0  0  0  0  0  0  0  0  0  0
   -1.4413    0.6769   -0.2222 C   0  0  0  0  0  0  0  0  0  0  0  0
   -2.3332    0.4546    0.9382 C   0  0  2  0  0  0  0  0  0  0  0  0
   -2.4475   -0.9214    1.2907 N   0  0  0  0  0  0  0  0  0  0  0  0
   -3.7010    0.9846    0.5849 C   0  0  0  0  0  0  0  0  0  0  0  0
   -3.8521    2.1919    0.2346 O   0  0  0  0  0  0  0  0  0  0  0  0
   -4.8198    0.1999    0.6251 O   0  0  0  0  0  0  0  0  0  0  0  0
    0.7383    0.8663   -1.1323 C   0  0  1  0  0  0  0  0  0  0  0  0
    1.9254    1.6715   -0.7403 C   0  0  0  0  0  0  0  0  0  0  0  0
    2.0292    0.2667   -1.3597 C   0  0  1  0  0  0  0  0  0  0  0  0
    3.5479    0.3288    0.9290 H   0  0  0  0  0  0  0  0  0  0  0  0
    4.1835   -1.3202    0.5846 H   0  0  0  0  0  0  0  0  0  0  0  0
    4.5103    0.0204   -0.6266 H   0  0  0  0  0  0  0  0  0  0  0  0
    1.8437   -2.2719    0.7472 H   0  0  0  0  0  0  0  0  0  0  0  0
    1.6743   -0.5484    1.3833 H   0  0  0  0  0  0  0  0  0  0  0  0
   -0.4576   -1.7647    0.4970 H   0  0  0  0  0  0  0  0  0  0  0  0
    0.2946   -1.5144   -1.1268 H   0  0  0  0  0  0  0  0  0  0  0  0
   -1.9549    0.2582   -1.1256 H   0  0  0  0  0  0  0  0  0  0  0  0
   -1.4249    1.7978   -0.4015 H   0  0  0  0  0  0  0  0  0  0  0  0
   -2.0083    1.0411    1.8343 H   0  0  0  0  0  0  0  0  0  0  0  0
   -2.9483   -1.0873    2.1916 H   0  0  0  0  0  0  0  0  0  0  0  0
   -2.8851   -1.4669    0.5111 H   0  0  0  0  0  0  0  0  0  0  0  0
   -5.6019    0.2802   -0.0253 H   0  0  0  0  0  0  0  0  0  0  0  0
    0.1864    1.2540   -2.0322 H   0  0  0  0  0  0  0  0  0  0  0  0
    2.2505    2.5172   -1.4093 H   0  0  0  0  0  0  0  0  0  0  0  0
    2.2084    1.7855    0.3245 H   0  0  0  0  0  0  0  0  0  0  0  0
    2.4560    0.2465   -2.4031 H   0  0  0  0  0  0  0  0  0  0  0  0
  1  2  1  0
  2  3  1  0
  3  4  1  0
  4  5  1  0
  5  6  1  0
  6  7  1  0
  7  8  1  0
  7  9  1  0
  9 10  2  0
  9 11  1  0
  5 12  1  0
 12 13  1  0
 13 14  1  0
 14  2  1  0
 14 12  1  0
  1 15  1  0
  1 16  1  0
  1 17  1  0
  3 18  1  0
  3 19  1  0
  4 20  1  0
  4 21  1  0
  6 22  1  0
  6 23  1  0
  7 24  1  1
  8 25  1  0
  8 26  1  0
 11 27  1  0
 12 28  1  6
 13 29  1  0
 13 30  1  0
 14 31  1  6
M  END
$$$$
