
     RDKit          3D

 26 27  0  0  0  0  0  0  0  0999 V2000
   -3.8959    1.1501   -0.0639 C   0  0  0  0  0  0  0  0  0  0  0  0
   -2.7843    0.2052    0.0460 N   0  0  0  0  0  0  0  0  0  0  0  0
   -1.5066    0.4570   -0.0014 N   0  0  0  0  0  0  0  0  0  0  0  0
   -0.8456   -0.6970    0.1407 C   0  0  0  0  0  0  0  0  0  0  0  0
    0.4302   -0.8350    0.1439 N   0  0  0  0  0  0  0  0  0  0  0  0
    1.2585    0.3310   -0.0170 C   0  0  0  0  0  0  0  0  0  0  0  0
    2.6612   -0.0462    0.4056 C   0  0  2  0  0  0  0  0  0  0  0  0
    3.6674    0.8782   -0.2051 C   0  0  0  0  0  0  0  0  0  0  0  0
    4.3398   -0.4416   -0.4839 C   0  0  0  0  0  0  0  0  0  0  0  0
    3.1273   -1.0987   -0.4073 O   0  0  0  0  0  0  0  0  0  0  0  0
   -1.7465   -1.6973    0.2810 N   0  0  0  0  0  0  0  0  0  0  0  0
   -2.9513   -1.1143    0.2192 C   0  0  0  0  0  0  0  0  0  0  0  0
   -4.0666   -1.7806    0.3186 N   0  0  0  0  0  0  0  0  0  0  0  0
   -4.6657    0.6507   -0.6810 H   0  0  0  0  0  0  0  0  0  0  0  0
   -4.2939    1.2936    0.9655 H   0  0  0  0  0  0  0  0  0  0  0  0
   -3.5274    2.0764   -0.5059 H   0  0  0  0  0  0  0  0  0  0  0  0
   -1.0519    1.3940   -0.1283 H   0  0  0  0  0  0  0  0  0  0  0  0
    1.3042    0.6776   -1.0772 H   0  0  0  0  0  0  0  0  0  0  0  0
    0.8900    1.1980    0.5652 H   0  0  0  0  0  0  0  0  0  0  0  0
    2.7835   -0.2778    1.4711 H   0  0  0  0  0  0  0  0  0  0  0  0
    3.3260    1.3948   -1.1030 H   0  0  0  0  0  0  0  0  0  0  0  0
    4.2056    1.5394    0.5031 H   0  0  0  0  0  0  0  0  0  0  0  0
    5.0140   -0.7302    0.3312 H   0  0  0  0  0  0  0  0  0  0  0  0
    4.7974   -0.5236   -1.4959 H   0  0  0  0  0  0  0  0  0  0  0  0
   -1.4842   -2.7041    0.4087 H   0  0  0  0  0  0  0  0  0  0  0  0
   -4.9851   -1.2994    0.2668 H   0  0  0  0  0  0  0  0  0  0  0  0
  1  2  1  0
  2  3  1  0
  3  4  1  0
  4  5  2  3
  5  6  1  0
  6  7  1  0
  7  8  1  0
  8  9  1  0
  9 10  1  0
  4 11  1  0
 11 12  1  0
 12 13  2  3
 12  2  1  0
 10  7  1  0
  1 14  1  0
  1 15  1  0
  1 16  1  0
  3 17  1  0
  6 18  1  0
  6 19  1  0
  7 20  1  1
  8 21  1  0
  8 22  1  0
  9 23  1  0
  9 24  1  0
 11 25  1  0
 13 26  1  0
M  END
$$$$

     RDKit          3D

 26 27  0  0  0  0  0  0  0  0999 V2000
   -4.0250    1.5080   -0.2024 C   0  0  0  0  0  0  0  0  0  0  0  0
   -2.8027    0.7083   -0.2306 N   0  0  0  0  0  0  0  0  0  0  0  0
   -1.5555    1.1393   -0.2921 N   0  0  0  0  0  0  0  0  0  0  0  0
   -0.7054    0.1007   -0.2990 C   0  0  0  0  0  0  0  0  0  0  0  0
    0.5803    0.1830   -0.3530 N   0  0  0  0  0  0  0  0  0  0  0  0
    1.3613   -1.0257   -0.3526 C   0  0  0  0  0  0  0  0  0  0  0  0
    2.8171   -0.7966   -0.1127 C   0  0  2  0  0  0  0  0  0  0  0  0
    3.0265    0.2781    0.9352 C   0  0  0  0  0  0  0  0  0  0  0  0
    4.2134    0.5244    0.0563 C   0  0  0  0  0  0  0  0  0  0  0  0
    3.4838    0.0016   -1.0116 O   0  0  0  0  0  0  0  0  0  0  0  0
   -1.4468   -1.0087   -0.2399 N   0  0  0  0  0  0  0  0  0  0  0  0
   -2.7337   -0.6334   -0.1980 C   0  0  0  0  0  0  0  0  0  0  0  0
   -3.7763   -1.3983   -0.1359 N   0  0  0  0  0  0  0  0  0  0  0  0
   -4.2446    1.8722    0.8135 H   0  0  0  0  0  0  0  0  0  0  0  0
   -3.8944    2.4259   -0.8449 H   0  0  0  0  0  0  0  0  0  0  0  0
   -4.8264    0.9020   -0.6497 H   0  0  0  0  0  0  0  0  0  0  0  0
   -1.3245    2.1624   -0.3284 H   0  0  0  0  0  0  0  0  0  0  0  0
    0.9850   -1.6813    0.4645 H   0  0  0  0  0  0  0  0  0  0  0  0
    1.1822   -1.5295   -1.3375 H   0  0  0  0  0  0  0  0  0  0  0  0
    3.3667   -1.7097    0.1163 H   0  0  0  0  0  0  0  0  0  0  0  0
    2.3039    1.0998    0.8927 H   0  0  0  0  0  0  0  0  0  0  0  0
    3.2230   -0.1585    1.9273 H   0  0  0  0  0  0  0  0  0  0  0  0
    4.4942    1.5911   -0.0474 H   0  0  0  0  0  0  0  0  0  0  0  0
    5.0961   -0.1007    0.3592 H   0  0  0  0  0  0  0  0  0  0  0  0
   -1.1276   -2.0157   -0.2262 H   0  0  0  0  0  0  0  0  0  0  0  0
   -3.6704   -2.4386   -0.1127 H   0  0  0  0  0  0  0  0  0  0  0  0
  1  2  1  0
  2  3  1  0
  3  4  1  0
  4  5  2  3
  5  6  1  0
  6  7  1  0
  7  8  1  0
  8  9  1  0
  9 10  1  0
  4 11  1  0
 11 12  1  0
 12 13  2  3
 12  2  1  0
 10  7  1  0
  1 14  1  0
  1 15  1  0
  1 16  1  0
  3 17  1  0
  6 18  1  0
  6 19  1  0
  7 20  1  1
  8 21  1  0
  8 22  1  0
  9 23  1  0
  9 24  1  0
 11 25  1  0
 13 26  1  0
M  END
$$$$

     RDKit          3D

 26 27  0  0  0  0  0  0  0  0999 V2000
    3.4755    0.9662    0.9017 C   0  0  0  0  0  0  0  0  0  0  0  0
    2.5268    0.1070    0.2441 N   0  0  0  0  0  0  0  0  0  0  0  0
    1.3036    0.4172   -0.1605 N   0  0  0  0  0  0  0  0  0  0  0  0
    0.7413   -0.6645   -0.7292 C   0  0  0  0  0  0  0  0  0  0  0  0
   -0.4326   -0.7836   -1.2477 N   0  0  0  0  0  0  0  0  0  0  0  0
   -1.2984    0.3645   -1.2438 C   0  0  0  0  0  0  0  0  0  0  0  0
   -2.1791    0.3878   -0.0136 C   0  0  2  0  0  0  0  0  0  0  0  0
   -3.3930   -0.5019   -0.0905 C   0  0  0  0  0  0  0  0  0  0  0  0
   -3.9831    0.6753    0.6189 C   0  0  0  0  0  0  0  0  0  0  0  0
   -3.0295    1.4909    0.0164 O   0  0  0  0  0  0  0  0  0  0  0  0
    1.6429   -1.6595   -0.6706 N   0  0  0  0  0  0  0  0  0  0  0  0
    2.7467   -1.1799   -0.0680 C   0  0  0  0  0  0  0  0  0  0  0  0
    3.8133   -1.8634    0.1556 N   0  0  0  0  0  0  0  0  0  0  0  0
    4.0213    0.3688    1.6579 H   0  0  0  0  0  0  0  0  0  0  0  0
    4.2295    1.3742    0.1934 H   0  0  0  0  0  0  0  0  0  0  0  0
    2.9685    1.8171    1.3879 H   0  0  0  0  0  0  0  0  0  0  0  0
    0.8864    1.3502   -0.0398 H   0  0  0  0  0  0  0  0  0  0  0  0
   -1.9199    0.3585   -2.1830 H   0  0  0  0  0  0  0  0  0  0  0  0
   -0.7445    1.3251   -1.2649 H   0  0  0  0  0  0  0  0  0  0  0  0
   -1.5916    0.2464    0.8946 H   0  0  0  0  0  0  0  0  0  0  0  0
   -3.7909   -0.6966   -1.0880 H   0  0  0  0  0  0  0  0  0  0  0  0
   -3.3239   -1.4235    0.5355 H   0  0  0  0  0  0  0  0  0  0  0  0
   -3.8137    0.6573    1.7184 H   0  0  0  0  0  0  0  0  0  0  0  0
   -4.9967    0.9862    0.3043 H   0  0  0  0  0  0  0  0  0  0  0  0
    1.4869   -2.6182   -1.0342 H   0  0  0  0  0  0  0  0  0  0  0  0
    4.6543   -1.5017    0.6135 H   0  0  0  0  0  0  0  0  0  0  0  0
  1  2  1  0
  2  3  1  0
  3  4  1  0
  4  5  2  3
  5  6  1  0
  6  7  1  0
  7  8  1  0
  8  9  1  0
  9 10  1  0
  4 11  1  0
 11 12  1  0
 12 13  2  3
 12  2  1  0
 10  7  1  0
  1 14  1  0
  1 15  1  0
  1 16  1  0
  3 17  1  0
  6 18  1  0
  6 19  1  0
  7 20  1  1
  8 21  1  0
  8 22  1  0
  9 23  1  0
  9 24  1  0
 11 25  1  0
 13 26  1  0
M  END
$$$$

     RDKit          3D

 26 27  0  0  0  0  0  0  0  0999 V2000
   -4.3701   -0.5968    0.7043 C   0  0  0  0  0  0  0  0  0  0  0  0
   -3.0087   -0.1254    0.4523 N   0  0  0  0  0  0  0  0  0  0  0  0
   -1.8758   -0.6839    0.8501 N   0  0  0  0  0  0  0  0  0  0  0  0
   -0.8221    0.0200    0.4385 C   0  0  0  0  0  0  0  0  0  0  0  0
    0.4085   -0.2427    0.6507 N   0  0  0  0  0  0  0  0  0  0  0  0
    1.5278    0.5114    0.2094 C   0  0  0  0  0  0  0  0  0  0  0  0
    2.7951   -0.2914    0.5180 C   0  0  2  0  0  0  0  0  0  0  0  0
    3.9811    0.2241   -0.2290 C   0  0  0  0  0  0  0  0  0  0  0  0
    3.9590   -1.1453   -0.8310 C   0  0  0  0  0  0  0  0  0  0  0  0
    2.8336   -1.5281   -0.1083 O   0  0  0  0  0  0  0  0  0  0  0  0
   -1.3095    1.0647   -0.2466 N   0  0  0  0  0  0  0  0  0  0  0  0
   -2.6738    0.9757   -0.2390 C   0  0  0  0  0  0  0  0  0  0  0  0
   -3.4513    1.8280   -0.8117 N   0  0  0  0  0  0  0  0  0  0  0  0
   -5.0327   -0.3957   -0.1629 H   0  0  0  0  0  0  0  0  0  0  0  0
   -4.7832   -0.1971    1.6350 H   0  0  0  0  0  0  0  0  0  0  0  0
   -4.3606   -1.7175    0.8213 H   0  0  0  0  0  0  0  0  0  0  0  0
   -1.8075   -1.5541    1.4085 H   0  0  0  0  0  0  0  0  0  0  0  0
    1.6297    1.5124    0.6391 H   0  0  0  0  0  0  0  0  0  0  0  0
    1.4756    0.5836   -0.9090 H   0  0  0  0  0  0  0  0  0  0  0  0
    2.9148   -0.3275    1.6228 H   0  0  0  0  0  0  0  0  0  0  0  0
    4.8634    0.4680    0.3920 H   0  0  0  0  0  0  0  0  0  0  0  0
    3.7557    1.0151   -0.9731 H   0  0  0  0  0  0  0  0  0  0  0  0
    3.7704   -1.1725   -1.9251 H   0  0  0  0  0  0  0  0  0  0  0  0
    4.8480   -1.7501   -0.5233 H   0  0  0  0  0  0  0  0  0  0  0  0
   -0.7889    1.8354   -0.7202 H   0  0  0  0  0  0  0  0  0  0  0  0
   -4.4785    1.6897   -0.7605 H   0  0  0  0  0  0  0  0  0  0  0  0
  1  2  1  0
  2  3  1  0
  3  4  1  0
  4  5  2  3
  5  6  1  0
  6  7  1  0
  7  8  1  0
  8  9  1  0
  9 10  1  0
  4 11  1  0
 11 12  1  0
 12 13  2  3
 12  2  1  0
 10  7  1  0
  1 14  1  0
  1 15  1  0
  1 16  1  0
  3 17  1  0
  6 18  1  0
  6 19  1  0
  7 20  1  1
  8 21  1  0
  8 22  1  0
  9 23  1  0
  9 24  1  0
 11 25  1  0
 13 26  1  0
M  END
$$$$

     RDKit          3D

 26 27  0  0  0  0  0  0  0  0999 V2000
    3.8377   -1.1760   -0.8782 C   0  0  0  0  0  0  0  0  0  0  0  0
    2.8049   -0.3066   -0.3555 N   0  0  0  0  0  0  0  0  0  0  0  0
    1.4957   -0.4506   -0.5844 N   0  0  0  0  0  0  0  0  0  0  0  0
    0.8546    0.5383    0.0615 C   0  0  0  0  0  0  0  0  0  0  0  0
   -0.4245    0.6884    0.0460 N   0  0  0  0  0  0  0  0  0  0  0  0
   -1.3083   -0.2046   -0.6778 C   0  0  0  0  0  0  0  0  0  0  0  0
   -2.7018    0.3550   -0.5712 C   0  0  2  0  0  0  0  0  0  0  0  0
   -3.3558   -0.0656    0.7470 C   0  0  0  0  0  0  0  0  0  0  0  0
   -4.5637    0.0334   -0.1855 C   0  0  0  0  0  0  0  0  0  0  0  0
   -3.6902   -0.3835   -1.2156 O   0  0  0  0  0  0  0  0  0  0  0  0
    1.7496    1.3029    0.6945 N   0  0  0  0  0  0  0  0  0  0  0  0
    2.9656    0.7671    0.4281 C   0  0  0  0  0  0  0  0  0  0  0  0
    4.0690    1.2417    0.8735 N   0  0  0  0  0  0  0  0  0  0  0  0
    4.3782   -0.6158   -1.6823 H   0  0  0  0  0  0  0  0  0  0  0  0
    4.5401   -1.4658   -0.0852 H   0  0  0  0  0  0  0  0  0  0  0  0
    3.3909   -2.0655   -1.3553 H   0  0  0  0  0  0  0  0  0  0  0  0
    1.0770   -1.2028   -1.1627 H   0  0  0  0  0  0  0  0  0  0  0  0
   -1.0059   -0.1711   -1.7596 H   0  0  0  0  0  0  0  0  0  0  0  0
   -1.2217   -1.2255   -0.2999 H   0  0  0  0  0  0  0  0  0  0  0  0
   -2.7468    1.4278   -0.7762 H   0  0  0  0  0  0  0  0  0  0  0  0
   -3.3266    0.7054    1.5285 H   0  0  0  0  0  0  0  0  0  0  0  0
   -3.1233   -1.0930    1.0218 H   0  0  0  0  0  0  0  0  0  0  0  0
   -5.3758   -0.6585    0.0332 H   0  0  0  0  0  0  0  0  0  0  0  0
   -4.8097    1.0956   -0.3345 H   0  0  0  0  0  0  0  0  0  0  0  0
    1.5248    2.1436    1.2743 H   0  0  0  0  0  0  0  0  0  0  0  0
    4.9660    0.7856    0.6334 H   0  0  0  0  0  0  0  0  0  0  0  0
  1  2  1  0
  2  3  1  0
  3  4  1  0
  4  5  2  3
  5  6  1  0
  6  7  1  0
  7  8  1  0
  8  9  1  0
  9 10  1  0
  4 11  1  0
 11 12  1  0
 12 13  2  3
 12  2  1  0
 10  7  1  0
  1 14  1  0
  1 15  1  0
  1 16  1  0
  3 17  1  0
  6 18  1  0
  6 19  1  0
  7 20  1  6
  8 21  1  0
  8 22  1  0
  9 23  1  0
  9 24  1  0
 11 25  1  0
 13 26  1  0
M  END
$$$$

     RDKit          3D

 26 27  0  0  0  0  0  0  0  0999 V2000
    1.9726   -2.7602   -0.9262 C   0  0  0  0  0  0  0  0  0  0  0  0
    1.7532   -1.3365   -0.7371 N   0  0  0  0  0  0  0  0  0  0  0  0
    0.5745   -0.7059   -0.7594 N   0  0  0  0  0  0  0  0  0  0  0  0
    0.8467    0.6014   -0.5393 C   0  0  0  0  0  0  0  0  0  0  0  0
    0.0302    1.5810   -0.4744 N   0  0  0  0  0  0  0  0  0  0  0  0
   -1.4043    1.4426   -0.6356 C   0  0  0  0  0  0  0  0  0  0  0  0
   -2.0241    1.5839    0.7341 C   0  0  2  0  0  0  0  0  0  0  0  0
   -1.9434    0.2650    1.4748 C   0  0  0  0  0  0  0  0  0  0  0  0
   -3.2653    0.7972    1.9871 C   0  0  0  0  0  0  0  0  0  0  0  0
   -3.3986    1.4790    0.7777 O   0  0  0  0  0  0  0  0  0  0  0  0
    2.1803    0.7508   -0.3864 N   0  0  0  0  0  0  0  0  0  0  0  0
    2.7317   -0.4600   -0.5114 C   0  0  0  0  0  0  0  0  0  0  0  0
    3.9963   -0.7029   -0.4234 N   0  0  0  0  0  0  0  0  0  0  0  0
    1.1060   -3.2436   -1.4453 H   0  0  0  0  0  0  0  0  0  0  0  0
    2.1411   -3.2149    0.0582 H   0  0  0  0  0  0  0  0  0  0  0  0
    2.8732   -2.8902   -1.5609 H   0  0  0  0  0  0  0  0  0  0  0  0
   -0.3600   -1.1384   -0.9150 H   0  0  0  0  0  0  0  0  0  0  0  0
   -1.6430    0.4610   -1.0830 H   0  0  0  0  0  0  0  0  0  0  0  0
   -1.7335    2.2555   -1.3244 H   0  0  0  0  0  0  0  0  0  0  0  0
   -1.5639    2.4008    1.2993 H   0  0  0  0  0  0  0  0  0  0  0  0
   -2.0125   -0.6288    0.8240 H   0  0  0  0  0  0  0  0  0  0  0  0
   -1.1279    0.2562    2.2260 H   0  0  0  0  0  0  0  0  0  0  0  0
   -4.0366    0.0245    2.1711 H   0  0  0  0  0  0  0  0  0  0  0  0
   -3.0896    1.4952    2.8245 H   0  0  0  0  0  0  0  0  0  0  0  0
    2.6884    1.6590   -0.2022 H   0  0  0  0  0  0  0  0  0  0  0  0
    4.7085    0.0282   -0.2454 H   0  0  0  0  0  0  0  0  0  0  0  0
  1  2  1  0
  2  3  1  0
  3  4  1  0
  4  5  2  3
  5  6  1  0
  6  7  1  0
  7  8  1  0
  8  9  1  0
  9 10  1  0
  4 11  1  0
 11 12  1  0
 12 13  2  3
 12  2  1  0
 10  7  1  0
  1 14  1  0
  1 15  1  0
  1 16  1  0
  3 17  1  0
  6 18  1  0
  6 19  1  0
  7 20  1  1
  8 21  1  0
  8 22  1  0
  9 23  1  0
  9 24  1  0
 11 25  1  0
 13 26  1  0
M  END
$$$$

     RDKit          3D

 26 27  0  0  0  0  0  0  0  0999 V2000
    3.3009    1.0682    1.0659 C   0  0  0  0  0  0  0  0  0  0  0  0
    2.4197    0.0839    0.4719 N   0  0  0  0  0  0  0  0  0  0  0  0
    1.1086   -0.0787    0.6941 N   0  0  0  0  0  0  0  0  0  0  0  0
    0.6747   -1.0977   -0.0522 C   0  0  0  0  0  0  0  0  0  0  0  0
   -0.5135   -1.5513   -0.1109 N   0  0  0  0  0  0  0  0  0  0  0  0
   -1.6302   -1.0256    0.6425 C   0  0  0  0  0  0  0  0  0  0  0  0
   -2.0670    0.2500   -0.0210 C   0  0  2  0  0  0  0  0  0  0  0  0
   -3.4980    0.6717    0.2848 C   0  0  0  0  0  0  0  0  0  0  0  0
   -3.2656    1.2651   -1.1122 C   0  0  0  0  0  0  0  0  0  0  0  0
   -2.4770    0.1137   -1.3473 O   0  0  0  0  0  0  0  0  0  0  0  0
    1.7210   -1.5644   -0.7360 N   0  0  0  0  0  0  0  0  0  0  0  0
    2.8139   -0.8394   -0.4206 C   0  0  0  0  0  0  0  0  0  0  0  0
    4.0009   -0.9882   -0.8731 N   0  0  0  0  0  0  0  0  0  0  0  0
    3.9681    1.5197    0.2822 H   0  0  0  0  0  0  0  0  0  0  0  0
    2.7687    1.8854    1.5590 H   0  0  0  0  0  0  0  0  0  0  0  0
    3.9703    0.5993    1.8099 H   0  0  0  0  0  0  0  0  0  0  0  0
    0.5934    0.5348    1.3568 H   0  0  0  0  0  0  0  0  0  0  0  0
   -1.3997   -0.8375    1.6897 H   0  0  0  0  0  0  0  0  0  0  0  0
   -2.4514   -1.7701    0.5686 H   0  0  0  0  0  0  0  0  0  0  0  0
   -1.3818    1.0944    0.0760 H   0  0  0  0  0  0  0  0  0  0  0  0
   -4.2410   -0.1363    0.2422 H   0  0  0  0  0  0  0  0  0  0  0  0
   -3.6044    1.4325    1.0566 H   0  0  0  0  0  0  0  0  0  0  0  0
   -4.1578    1.3488   -1.7240 H   0  0  0  0  0  0  0  0  0  0  0  0
   -2.5976    2.1317   -1.0317 H   0  0  0  0  0  0  0  0  0  0  0  0
    1.7589   -2.3565   -1.4193 H   0  0  0  0  0  0  0  0  0  0  0  0
    4.1859   -1.7534   -1.5739 H   0  0  0  0  0  0  0  0  0  0  0  0
  1  2  1  0
  2  3  1  0
  3  4  1  0
  4  5  2  3
  5  6  1  0
  6  7  1  0
  7  8  1  0
  8  9  1  0
  9 10  1  0
  4 11  1  0
 11 12  1  0
 12 13  2  3
 12  2  1  0
 10  7  1  0
  1 14  1  0
  1 15  1  0
  1 16  1  0
  3 17  1  0
  6 18  1  0
  6 19  1  0
  7 20  1  6
  8 21  1  0
  8 22  1  0
  9 23  1  0
  9 24  1  0
 11 25  1  0
 13 26  1  0
M  END
$$$$

     RDKit          3D

 26 27  0  0  0  0  0  0  0  0999 V2000
   -3.4410   -1.6562   -0.5562 C   0  0  0  0  0  0  0  0  0  0  0  0
   -2.6130   -0.5452   -0.1138 N   0  0  0  0  0  0  0  0  0  0  0  0
   -1.3444   -0.3778   -0.4527 N   0  0  0  0  0  0  0  0  0  0  0  0
   -0.8871    0.7456    0.1294 C   0  0  0  0  0  0  0  0  0  0  0  0
    0.2741    1.2817    0.0729 N   0  0  0  0  0  0  0  0  0  0  0  0
    1.3348    0.6773   -0.7035 C   0  0  0  0  0  0  0  0  0  0  0  0
    2.6351    0.9051    0.0340 C   0  0  2  0  0  0  0  0  0  0  0  0
    3.7484   -0.0402   -0.3655 C   0  0  0  0  0  0  0  0  0  0  0  0
    3.5797   -0.6721    0.9925 C   0  0  0  0  0  0  0  0  0  0  0  0
    2.6802    0.3607    1.3073 O   0  0  0  0  0  0  0  0  0  0  0  0
   -1.9208    1.2724    0.8449 N   0  0  0  0  0  0  0  0  0  0  0  0
   -2.9805    0.4617    0.6835 C   0  0  0  0  0  0  0  0  0  0  0  0
   -4.1738    0.6084    1.2038 N   0  0  0  0  0  0  0  0  0  0  0  0
   -4.4676   -1.3294   -0.8026 H   0  0  0  0  0  0  0  0  0  0  0  0
   -3.4555   -2.4109    0.2551 H   0  0  0  0  0  0  0  0  0  0  0  0
   -3.0289   -2.0933   -1.5022 H   0  0  0  0  0  0  0  0  0  0  0  0
   -0.7614   -0.9874   -1.0632 H   0  0  0  0  0  0  0  0  0  0  0  0
    1.1697   -0.4008   -0.7675 H   0  0  0  0  0  0  0  0  0  0  0  0
    1.3825    1.1908   -1.6739 H   0  0  0  0  0  0  0  0  0  0  0  0
    2.9515    1.9524   -0.0251 H   0  0  0  0  0  0  0  0  0  0  0  0
    3.4223   -0.6752   -1.2226 H   0  0  0  0  0  0  0  0  0  0  0  0
    4.7244    0.4660   -0.5194 H   0  0  0  0  0  0  0  0  0  0  0  0
    3.0240   -1.6327    0.9687 H   0  0  0  0  0  0  0  0  0  0  0  0
    4.4768   -0.6604    1.6437 H   0  0  0  0  0  0  0  0  0  0  0  0
   -1.9320    2.1420    1.4250 H   0  0  0  0  0  0  0  0  0  0  0  0
   -4.3976    1.4175    1.8192 H   0  0  0  0  0  0  0  0  0  0  0  0
  1  2  1  0
  2  3  1  0
  3  4  1  0
  4  5  2  3
  5  6  1  0
  6  7  1  0
  7  8  1  0
  8  9  1  0
  9 10  1  0
  4 11  1  0
 11 12  1  0
 12 13  2  3
 12  2  1  0
 10  7  1  0
  1 14  1  0
  1 15  1  0
  1 16  1  0
  3 17  1  0
  6 18  1  0
  6 19  1  0
  7 20  1  1
  8 21  1  0
  8 22  1  0
  9 23  1  0
  9 24  1  0
 11 25  1  0
 13 26  1  0
M  END
$$$$
