
     RDKit          3D

 31 31  0  0  0  0  0  0  0  0999 V2000
    0.3132   -2.5599   -1.5095 C   0  0  0  0  0  0  0  0  0  0  0  0
   -0.1817   -1.1888   -1.1917 C   0  0  0  0  0  0  0  0  0  0  0  0
   -0.0652   -0.8126    0.1749 N   0  0  0  0  0  0  0  0  0  0  0  0
    1.2926   -0.6522    0.6325 C   0  0  0  0  0  0  0  0  0  0  0  0
    1.9819    0.5023    0.0544 C   0  0  0  0  0  0  0  0  0  0  0  0
    1.5229    1.3066   -0.7645 O   0  0  0  0  0  0  0  0  0  0  0  0
    3.3351    0.7253    0.4859 N   0  0  0  0  0  0  0  0  0  0  0  0
    4.0822    1.8578   -0.0448 C   0  0  0  0  0  0  0  0  0  0  0  0
   -0.9251    0.2300    0.6228 C   0  0  0  0  0  0  0  0  0  0  0  0
   -2.3743   -0.0615    0.7032 C   0  0  1  0  0  0  0  0  0  0  0  0
   -3.1013    1.2022    1.2329 C   0  0  0  0  0  0  0  0  0  0  0  0
   -4.2009    0.6044    0.4610 C   0  0  0  0  0  0  0  0  0  0  0  0
   -5.4270    0.5080    0.5305 O   0  0  0  0  0  0  0  0  0  0  0  0
   -3.2068    0.1590   -0.4487 N   0  0  0  0  0  0  0  0  0  0  0  0
    0.3721   -3.2453   -0.6375 H   0  0  0  0  0  0  0  0  0  0  0  0
    1.2718   -2.5359   -2.0853 H   0  0  0  0  0  0  0  0  0  0  0  0
   -0.4184   -3.0462   -2.2021 H   0  0  0  0  0  0  0  0  0  0  0  0
   -1.2420   -1.1283   -1.4881 H   0  0  0  0  0  0  0  0  0  0  0  0
    0.3743   -0.4903   -1.8617 H   0  0  0  0  0  0  0  0  0  0  0  0
    1.2818   -0.5577    1.7355 H   0  0  0  0  0  0  0  0  0  0  0  0
    1.8866   -1.5522    0.3841 H   0  0  0  0  0  0  0  0  0  0  0  0
    3.8015    0.1008    1.1727 H   0  0  0  0  0  0  0  0  0  0  0  0
    5.0834    1.8943    0.3707 H   0  0  0  0  0  0  0  0  0  0  0  0
    3.5436    2.7827    0.2593 H   0  0  0  0  0  0  0  0  0  0  0  0
    4.0995    1.8146   -1.1531 H   0  0  0  0  0  0  0  0  0  0  0  0
   -0.5817    0.4878    1.6719 H   0  0  0  0  0  0  0  0  0  0  0  0
   -0.8081    1.1621   -0.0017 H   0  0  0  0  0  0  0  0  0  0  0  0
   -2.6840   -0.9236    1.3289 H   0  0  0  0  0  0  0  0  0  0  0  0
   -2.6202    2.0829    0.7387 H   0  0  0  0  0  0  0  0  0  0  0  0
   -3.1795    1.2486    2.3186 H   0  0  0  0  0  0  0  0  0  0  0  0
   -3.2264    0.0849   -1.4900 H   0  0  0  0  0  0  0  0  0  0  0  0
  1  2  1  0
  2  3  1  0
  3  4  1  0
  4  5  1  0
  5  6  2  0
  5  7  1  0
  7  8  1  0
  3  9  1  0
  9 10  1  0
 10 11  1  0
 11 12  1  0
 12 13  2  0
 12 14  1  0
 14 10  1  0
  1 15  1  0
  1 16  1  0
  1 17  1  0
  2 18  1  0
  2 19  1  0
  4 20  1  0
  4 21  1  0
  7 22  1  0
  8 23  1  0
  8 24  1  0
  8 25  1  0
  9 26  1  0
  9 27  1  0
 10 28  1  1
 11 29  1  0
 11 30  1  0
 14 31  1  0
M  END
$$$$

     RDKit          3D

 31 31  0  0  0  0  0  0  0  0999 V2000
    0.1381   -2.8210   -1.4677 C   0  0  0  0  0  0  0  0  0  0  0  0
    0.0236   -1.3216   -1.2355 C   0  0  0  0  0  0  0  0  0  0  0  0
   -0.1200   -0.9510    0.1035 N   0  0  0  0  0  0  0  0  0  0  0  0
    0.9266   -1.1077    1.0156 C   0  0  0  0  0  0  0  0  0  0  0  0
    2.0722   -0.2062    0.8915 C   0  0  0  0  0  0  0  0  0  0  0  0
    3.0675   -0.3519    1.6742 O   0  0  0  0  0  0  0  0  0  0  0  0
    2.1631    0.8406   -0.0492 N   0  0  0  0  0  0  0  0  0  0  0  0
    3.3760    1.6899   -0.0891 C   0  0  0  0  0  0  0  0  0  0  0  0
   -1.4070   -0.6162    0.5824 C   0  0  0  0  0  0  0  0  0  0  0  0
   -1.8582    0.6831   -0.0521 C   0  0  1  0  0  0  0  0  0  0  0  0
   -3.2299    1.1605    0.3754 C   0  0  0  0  0  0  0  0  0  0  0  0
   -2.5385    2.4536    0.5441 C   0  0  0  0  0  0  0  0  0  0  0  0
   -2.8915    3.6692    0.6100 O   0  0  0  0  0  0  0  0  0  0  0  0
   -1.2541    1.8518    0.6120 N   0  0  0  0  0  0  0  0  0  0  0  0
   -0.1157   -2.9831   -2.5351 H   0  0  0  0  0  0  0  0  0  0  0  0
   -0.6219   -3.3737   -0.8772 H   0  0  0  0  0  0  0  0  0  0  0  0
    1.1530   -3.1875   -1.3089 H   0  0  0  0  0  0  0  0  0  0  0  0
   -0.9388   -1.0472   -1.7690 H   0  0  0  0  0  0  0  0  0  0  0  0
    0.8228   -0.8701   -1.8337 H   0  0  0  0  0  0  0  0  0  0  0  0
    1.3529   -2.1443    1.0739 H   0  0  0  0  0  0  0  0  0  0  0  0
    0.5028   -0.9304    2.0570 H   0  0  0  0  0  0  0  0  0  0  0  0
    1.3963    1.0393   -0.7074 H   0  0  0  0  0  0  0  0  0  0  0  0
    3.6506    1.9753    0.9385 H   0  0  0  0  0  0  0  0  0  0  0  0
    4.2084    1.0778   -0.5378 H   0  0  0  0  0  0  0  0  0  0  0  0
    3.2122    2.6028   -0.6654 H   0  0  0  0  0  0  0  0  0  0  0  0
   -1.3757   -0.5085    1.6883 H   0  0  0  0  0  0  0  0  0  0  0  0
   -2.1523   -1.3870    0.2664 H   0  0  0  0  0  0  0  0  0  0  0  0
   -1.7072    0.7023   -1.1354 H   0  0  0  0  0  0  0  0  0  0  0  0
   -3.9784    1.2444   -0.4403 H   0  0  0  0  0  0  0  0  0  0  0  0
   -3.5860    0.7639    1.3280 H   0  0  0  0  0  0  0  0  0  0  0  0
   -0.2909    2.0530    0.9429 H   0  0  0  0  0  0  0  0  0  0  0  0
  1  2  1  0
  2  3  1  0
  3  4  1  0
  4  5  1  0
  5  6  2  0
  5  7  1  0
  7  8  1  0
  3  9  1  0
  9 10  1  0
 10 11  1  0
 11 12  1  0
 12 13  2  0
 12 14  1  0
 14 10  1  0
  1 15  1  0
  1 16  1  0
  1 17  1  0
  2 18  1  0
  2 19  1  0
  4 20  1  0
  4 21  1  0
  7 22  1  0
  8 23  1  0
  8 24  1  0
  8 25  1  0
  9 26  1  0
  9 27  1  0
 10 28  1  6
 11 29  1  0
 11 30  1  0
 14 31  1  0
M  END
$$$$

     RDKit          3D

 31 31  0  0  0  0  0  0  0  0999 V2000
   -0.0179    2.9552   -0.0851 C   0  0  0  0  0  0  0  0  0  0  0  0
    0.3077    1.5999    0.5412 C   0  0  0  0  0  0  0  0  0  0  0  0
    0.2046    0.6289   -0.4536 N   0  0  0  0  0  0  0  0  0  0  0  0
   -1.0433    0.3139   -0.9959 C   0  0  0  0  0  0  0  0  0  0  0  0
   -1.9784   -0.3595   -0.0641 C   0  0  0  0  0  0  0  0  0  0  0  0
   -1.5834   -0.5933    1.1440 O   0  0  0  0  0  0  0  0  0  0  0  0
   -3.2676   -0.7614   -0.3976 N   0  0  0  0  0  0  0  0  0  0  0  0
   -4.1608   -1.4162    0.5392 C   0  0  0  0  0  0  0  0  0  0  0  0
    1.3252   -0.1279   -0.8117 C   0  0  0  0  0  0  0  0  0  0  0  0
    1.7502   -1.0675    0.2749 C   0  0  1  0  0  0  0  0  0  0  0  0
    2.9691   -1.9130   -0.0654 C   0  0  0  0  0  0  0  0  0  0  0  0
    3.6903   -0.6444    0.3139 C   0  0  0  0  0  0  0  0  0  0  0  0
    4.7204   -0.0185    0.0107 O   0  0  0  0  0  0  0  0  0  0  0  0
    2.6258   -0.4325    1.2397 N   0  0  0  0  0  0  0  0  0  0  0  0
    0.7367    3.7118    0.1735 H   0  0  0  0  0  0  0  0  0  0  0  0
   -1.0411    3.2328    0.2119 H   0  0  0  0  0  0  0  0  0  0  0  0
    0.0023    2.8765   -1.2007 H   0  0  0  0  0  0  0  0  0  0  0  0
    1.3883    1.6718    0.8627 H   0  0  0  0  0  0  0  0  0  0  0  0
   -0.2886    1.4245    1.4548 H   0  0  0  0  0  0  0  0  0  0  0  0
   -0.8814   -0.3695   -1.8777 H   0  0  0  0  0  0  0  0  0  0  0  0
   -1.5448    1.2175   -1.4534 H   0  0  0  0  0  0  0  0  0  0  0  0
   -3.6177   -0.5845   -1.3748 H   0  0  0  0  0  0  0  0  0  0  0  0
   -4.7769   -2.1762    0.0209 H   0  0  0  0  0  0  0  0  0  0  0  0
   -3.5737   -1.9001    1.3311 H   0  0  0  0  0  0  0  0  0  0  0  0
   -4.8707   -0.6712    0.9632 H   0  0  0  0  0  0  0  0  0  0  0  0
    1.1243   -0.6760   -1.7619 H   0  0  0  0  0  0  0  0  0  0  0  0
    2.1621    0.6027   -1.0263 H   0  0  0  0  0  0  0  0  0  0  0  0
    0.9382   -1.6564    0.7122 H   0  0  0  0  0  0  0  0  0  0  0  0
    3.0689   -2.1885   -1.1151 H   0  0  0  0  0  0  0  0  0  0  0  0
    3.1348   -2.6621    0.7071 H   0  0  0  0  0  0  0  0  0  0  0  0
    2.4975   -0.0168    2.1821 H   0  0  0  0  0  0  0  0  0  0  0  0
  1  2  1  0
  2  3  1  0
  3  4  1  0
  4  5  1  0
  5  6  2  0
  5  7  1  0
  7  8  1  0
  3  9  1  0
  9 10  1  0
 10 11  1  0
 11 12  1  0
 12 13  2  0
 12 14  1  0
 14 10  1  0
  1 15  1  0
  1 16  1  0
  1 17  1  0
  2 18  1  0
  2 19  1  0
  4 20  1  0
  4 21  1  0
  7 22  1  0
  8 23  1  0
  8 24  1  0
  8 25  1  0
  9 26  1  0
  9 27  1  0
 10 28  1  1
 11 29  1  0
 11 30  1  0
 14 31  1  0
M  END
$$$$

     RDKit          3D

 31 31  0  0  0  0  0  0  0  0999 V2000
   -0.2513    3.3879    0.0613 C   0  0  0  0  0  0  0  0  0  0  0  0
   -0.9507    2.1278   -0.3979 C   0  0  0  0  0  0  0  0  0  0  0  0
   -0.0733    0.9927   -0.2771 N   0  0  0  0  0  0  0  0  0  0  0  0
    1.0365    1.0672   -1.2110 C   0  0  0  0  0  0  0  0  0  0  0  0
    2.1209    0.1116   -0.8951 C   0  0  0  0  0  0  0  0  0  0  0  0
    3.1235    0.0075   -1.6601 O   0  0  0  0  0  0  0  0  0  0  0  0
    2.0912   -0.7094    0.2570 N   0  0  0  0  0  0  0  0  0  0  0  0
    3.1939   -1.6288    0.4958 C   0  0  0  0  0  0  0  0  0  0  0  0
   -0.7409   -0.2543   -0.5119 C   0  0  0  0  0  0  0  0  0  0  0  0
   -1.7131   -0.7617    0.4400 C   0  0  1  0  0  0  0  0  0  0  0  0
   -2.3295   -2.1058    0.0152 C   0  0  0  0  0  0  0  0  0  0  0  0
   -2.4241   -2.3321    1.4645 C   0  0  0  0  0  0  0  0  0  0  0  0
   -3.1136   -2.9036    2.3316 O   0  0  0  0  0  0  0  0  0  0  0  0
   -1.2319   -1.5246    1.5816 N   0  0  0  0  0  0  0  0  0  0  0  0
   -0.1118    4.1037   -0.7918 H   0  0  0  0  0  0  0  0  0  0  0  0
   -0.8946    3.9293    0.7838 H   0  0  0  0  0  0  0  0  0  0  0  0
    0.7105    3.1799    0.5713 H   0  0  0  0  0  0  0  0  0  0  0  0
   -1.3312    2.3127   -1.3926 H   0  0  0  0  0  0  0  0  0  0  0  0
   -1.7991    1.9574    0.2924 H   0  0  0  0  0  0  0  0  0  0  0  0
    1.4279    2.0829   -1.3226 H   0  0  0  0  0  0  0  0  0  0  0  0
    0.6194    0.7728   -2.2012 H   0  0  0  0  0  0  0  0  0  0  0  0
    1.3461   -0.6946    0.9668 H   0  0  0  0  0  0  0  0  0  0  0  0
    2.8587   -2.5448    1.0074 H   0  0  0  0  0  0  0  0  0  0  0  0
    3.9627   -1.1037    1.0952 H   0  0  0  0  0  0  0  0  0  0  0  0
    3.6392   -1.8811   -0.4803 H   0  0  0  0  0  0  0  0  0  0  0  0
   -1.3225   -0.0477   -1.4843 H   0  0  0  0  0  0  0  0  0  0  0  0
   -0.0204   -1.0028   -0.8217 H   0  0  0  0  0  0  0  0  0  0  0  0
   -2.5351   -0.1094    0.7909 H   0  0  0  0  0  0  0  0  0  0  0  0
   -3.2561   -2.0325   -0.5492 H   0  0  0  0  0  0  0  0  0  0  0  0
   -1.5775   -2.8061   -0.4110 H   0  0  0  0  0  0  0  0  0  0  0  0
   -0.4539   -1.5903    2.2529 H   0  0  0  0  0  0  0  0  0  0  0  0
  1  2  1  0
  2  3  1  0
  3  4  1  0
  4  5  1  0
  5  6  2  0
  5  7  1  0
  7  8  1  0
  3  9  1  0
  9 10  1  0
 10 11  1  0
 11 12  1  0
 12 13  2  0
 12 14  1  0
 14 10  1  0
  1 15  1  0
  1 16  1  0
  1 17  1  0
  2 18  1  0
  2 19  1  0
  4 20  1  0
  4 21  1  0
  7 22  1  0
  8 23  1  0
  8 24  1  0
  8 25  1  0
  9 26  1  0
  9 27  1  0
 10 28  1  1
 11 29  1  0
 11 30  1  0
 14 31  1  0
M  END
$$$$

     RDKit          3D

 31 31  0  0  0  0  0  0  0  0999 V2000
    0.1057   -2.6210    1.1085 C   0  0  0  0  0  0  0  0  0  0  0  0
    0.2013   -2.2195   -0.3199 C   0  0  0  0  0  0  0  0  0  0  0  0
   -0.2236   -0.8626   -0.6025 N   0  0  0  0  0  0  0  0  0  0  0  0
    0.6220    0.1361   -0.0747 C   0  0  0  0  0  0  0  0  0  0  0  0
    1.9731    0.1820   -0.6957 C   0  0  0  0  0  0  0  0  0  0  0  0
    2.3714   -0.5751   -1.6058 O   0  0  0  0  0  0  0  0  0  0  0  0
    2.8667    1.1668   -0.2059 N   0  0  0  0  0  0  0  0  0  0  0  0
    4.1992    1.2759   -0.7521 C   0  0  0  0  0  0  0  0  0  0  0  0
   -1.5735   -0.6815   -0.1328 C   0  0  0  0  0  0  0  0  0  0  0  0
   -2.0635    0.7043   -0.3575 C   0  0  1  0  0  0  0  0  0  0  0  0
   -3.5197    0.8748    0.1175 C   0  0  0  0  0  0  0  0  0  0  0  0
   -3.0356    2.2765    0.3333 C   0  0  0  0  0  0  0  0  0  0  0  0
   -3.4705    3.4423    0.2303 O   0  0  0  0  0  0  0  0  0  0  0  0
   -1.7960    1.6635    0.7263 N   0  0  0  0  0  0  0  0  0  0  0  0
    1.0216   -3.2520    1.3333 H   0  0  0  0  0  0  0  0  0  0  0  0
   -0.7580   -3.3215    1.3054 H   0  0  0  0  0  0  0  0  0  0  0  0
   -0.0005   -1.8026    1.8161 H   0  0  0  0  0  0  0  0  0  0  0  0
   -0.5098   -2.8787   -0.8955 H   0  0  0  0  0  0  0  0  0  0  0  0
    1.1988   -2.4257   -0.7855 H   0  0  0  0  0  0  0  0  0  0  0  0
    0.1699    1.1282   -0.3840 H   0  0  0  0  0  0  0  0  0  0  0  0
    0.7382    0.0669    0.9998 H   0  0  0  0  0  0  0  0  0  0  0  0
    2.5925    1.8460    0.5641 H   0  0  0  0  0  0  0  0  0  0  0  0
    4.2791    0.9455   -1.7927 H   0  0  0  0  0  0  0  0  0  0  0  0
    4.5278    2.3490   -0.7199 H   0  0  0  0  0  0  0  0  0  0  0  0
    4.8761    0.7438   -0.0565 H   0  0  0  0  0  0  0  0  0  0  0  0
   -1.6160   -0.8893    0.9772 H   0  0  0  0  0  0  0  0  0  0  0  0
   -2.2672   -1.3789   -0.6606 H   0  0  0  0  0  0  0  0  0  0  0  0
   -1.8727    1.0912   -1.3599 H   0  0  0  0  0  0  0  0  0  0  0  0
   -3.6456    0.3918    1.0865 H   0  0  0  0  0  0  0  0  0  0  0  0
   -4.2719    0.7366   -0.6537 H   0  0  0  0  0  0  0  0  0  0  0  0
   -1.1191    1.8873    1.4567 H   0  0  0  0  0  0  0  0  0  0  0  0
  1  2  1  0
  2  3  1  0
  3  4  1  0
  4  5  1  0
  5  6  2  0
  5  7  1  0
  7  8  1  0
  3  9  1  0
  9 10  1  0
 10 11  1  0
 11 12  1  0
 12 13  2  0
 12 14  1  0
 14 10  1  0
  1 15  1  0
  1 16  1  0
  1 17  1  0
  2 18  1  0
  2 19  1  0
  4 20  1  0
  4 21  1  0
  7 22  1  0
  8 23  1  0
  8 24  1  0
  8 25  1  0
  9 26  1  0
  9 27  1  0
 10 28  1  6
 11 29  1  0
 11 30  1  0
 14 31  1  0
M  END
$$$$

     RDKit          3D

 31 31  0  0  0  0  0  0  0  0999 V2000
   -0.0647   -2.9706   -0.0650 C   0  0  0  0  0  0  0  0  0  0  0  0
   -0.8796   -1.7265   -0.4709 C   0  0  0  0  0  0  0  0  0  0  0  0
   -0.0306   -0.5735   -0.1093 N   0  0  0  0  0  0  0  0  0  0  0  0
    1.1191   -0.7435   -1.0541 C   0  0  0  0  0  0  0  0  0  0  0  0
    2.2879    0.0487   -0.7164 C   0  0  0  0  0  0  0  0  0  0  0  0
    3.2881    0.0228   -1.5171 O   0  0  0  0  0  0  0  0  0  0  0  0
    2.4723    0.8643    0.4176 N   0  0  0  0  0  0  0  0  0  0  0  0
    3.7342    1.6118    0.5976 C   0  0  0  0  0  0  0  0  0  0  0  0
   -0.5853    0.6754   -0.4817 C   0  0  0  0  0  0  0  0  0  0  0  0
   -1.7676    1.2723    0.1264 C   0  0  1  0  0  0  0  0  0  0  0  0
   -3.1259    0.6945    0.0627 C   0  0  0  0  0  0  0  0  0  0  0  0
   -3.2583    1.2138    1.4493 C   0  0  0  0  0  0  0  0  0  0  0  0
   -4.1973    1.5868    2.1704 O   0  0  0  0  0  0  0  0  0  0  0  0
   -1.8675    1.0979    1.5847 N   0  0  0  0  0  0  0  0  0  0  0  0
    0.2774   -3.5258   -0.9686 H   0  0  0  0  0  0  0  0  0  0  0  0
    0.7960   -2.6792    0.5837 H   0  0  0  0  0  0  0  0  0  0  0  0
   -0.6804   -3.6877    0.5184 H   0  0  0  0  0  0  0  0  0  0  0  0
   -0.9846   -1.7374   -1.5568 H   0  0  0  0  0  0  0  0  0  0  0  0
   -1.7818   -1.8049    0.1283 H   0  0  0  0  0  0  0  0  0  0  0  0
    1.3591   -1.8174   -1.1616 H   0  0  0  0  0  0  0  0  0  0  0  0
    0.7670   -0.4389   -2.0777 H   0  0  0  0  0  0  0  0  0  0  0  0
    1.7246    0.9217    1.1384 H   0  0  0  0  0  0  0  0  0  0  0  0
    4.5660    0.8987    0.8177 H   0  0  0  0  0  0  0  0  0  0  0  0
    3.9589    2.0681   -0.4029 H   0  0  0  0  0  0  0  0  0  0  0  0
    3.6434    2.4289    1.3220 H   0  0  0  0  0  0  0  0  0  0  0  0
    0.2387    1.4560   -0.4773 H   0  0  0  0  0  0  0  0  0  0  0  0
   -0.7837    0.6015   -1.6327 H   0  0  0  0  0  0  0  0  0  0  0  0
   -1.8600    2.4005   -0.0214 H   0  0  0  0  0  0  0  0  0  0  0  0
   -3.3108   -0.3709    0.0555 H   0  0  0  0  0  0  0  0  0  0  0  0
   -3.8127    1.2606   -0.6631 H   0  0  0  0  0  0  0  0  0  0  0  0
   -1.2420    0.9520    2.4037 H   0  0  0  0  0  0  0  0  0  0  0  0
  1  2  1  0
  2  3  1  0
  3  4  1  0
  4  5  1  0
  5  6  2  0
  5  7  1  0
  7  8  1  0
  3  9  1  0
  9 10  1  0
 10 11  1  0
 11 12  1  0
 12 13  2  0
 12 14  1  0
 14 10  1  0
  1 15  1  0
  1 16  1  0
  1 17  1  0
  2 18  1  0
  2 19  1  0
  4 20  1  0
  4 21  1  0
  7 22  1  0
  8 23  1  0
  8 24  1  0
  8 25  1  0
  9 26  1  0
  9 27  1  0
 10 28  1  1
 11 29  1  0
 11 30  1  0
 14 31  1  0
M  END
$$$$

     RDKit          3D

 31 31  0  0  0  0  0  0  0  0999 V2000
    0.1130   -3.1425    0.1311 C   0  0  0  0  0  0  0  0  0  0  0  0
   -0.2862   -1.7273    0.5728 C   0  0  0  0  0  0  0  0  0  0  0  0
   -0.1259   -0.7576   -0.4065 N   0  0  0  0  0  0  0  0  0  0  0  0
    1.1792   -0.4083   -0.8221 C   0  0  0  0  0  0  0  0  0  0  0  0
    1.9180    0.3065    0.2267 C   0  0  0  0  0  0  0  0  0  0  0  0
    1.3884    0.5586    1.3357 O   0  0  0  0  0  0  0  0  0  0  0  0
    3.2743    0.7337    0.0022 N   0  0  0  0  0  0  0  0  0  0  0  0
    3.9382    1.4327    1.0780 C   0  0  0  0  0  0  0  0  0  0  0  0
   -1.1923    0.0233   -0.8574 C   0  0  0  0  0  0  0  0  0  0  0  0
   -1.7818    1.0155    0.1133 C   0  0  1  0  0  0  0  0  0  0  0  0
   -2.9112    1.7476   -0.6215 C   0  0  0  0  0  0  0  0  0  0  0  0
   -3.6542    1.5616    0.6212 C   0  0  0  0  0  0  0  0  0  0  0  0
   -4.6803    2.1444    1.0763 O   0  0  0  0  0  0  0  0  0  0  0  0
   -2.7632    0.5291    1.0181 N   0  0  0  0  0  0  0  0  0  0  0  0
   -0.7668   -3.7834   -0.0683 H   0  0  0  0  0  0  0  0  0  0  0  0
    0.6845   -3.0831   -0.7976 H   0  0  0  0  0  0  0  0  0  0  0  0
    0.6731   -3.6445    0.9675 H   0  0  0  0  0  0  0  0  0  0  0  0
   -1.3713   -1.8182    0.8224 H   0  0  0  0  0  0  0  0  0  0  0  0
    0.2967   -1.4605    1.4807 H   0  0  0  0  0  0  0  0  0  0  0  0
    1.7345   -1.3609   -1.0498 H   0  0  0  0  0  0  0  0  0  0  0  0
    1.1929    0.1654   -1.7737 H   0  0  0  0  0  0  0  0  0  0  0  0
    3.7305    0.5391   -0.8947 H   0  0  0  0  0  0  0  0  0  0  0  0
    4.8208    1.9856    0.6585 H   0  0  0  0  0  0  0  0  0  0  0  0
    4.2016    0.7619    1.9010 H   0  0  0  0  0  0  0  0  0  0  0  0
    3.2085    2.1841    1.4908 H   0  0  0  0  0  0  0  0  0  0  0  0
   -0.8424    0.6363   -1.7356 H   0  0  0  0  0  0  0  0  0  0  0  0
   -2.0184   -0.6132   -1.2607 H   0  0  0  0  0  0  0  0  0  0  0  0
   -1.0572    1.7129    0.5527 H   0  0  0  0  0  0  0  0  0  0  0  0
   -3.3562    1.1864   -1.4546 H   0  0  0  0  0  0  0  0  0  0  0  0
   -2.6422    2.8013   -0.8305 H   0  0  0  0  0  0  0  0  0  0  0  0
   -2.9046   -0.2261    1.7154 H   0  0  0  0  0  0  0  0  0  0  0  0
  1  2  1  0
  2  3  1  0
  3  4  1  0
  4  5  1  0
  5  6  2  0
  5  7  1  0
  7  8  1  0
  3  9  1  0
  9 10  1  0
 10 11  1  0
 11 12  1  0
 12 13  2  0
 12 14  1  0
 14 10  1  0
  1 15  1  0
  1 16  1  0
  1 17  1  0
  2 18  1  0
  2 19  1  0
  4 20  1  0
  4 21  1  0
  7 22  1  0
  8 23  1  0
  8 24  1  0
  8 25  1  0
  9 26  1  0
  9 27  1  0
 10 28  1  1
 11 29  1  0
 11 30  1  0
 14 31  1  0
M  END
$$$$

     RDKit          3D

 31 31  0  0  0  0  0  0  0  0999 V2000
    0.2067   -2.4024    0.7804 C   0  0  0  0  0  0  0  0  0  0  0  0
    0.2403   -1.5668   -0.4527 C   0  0  0  0  0  0  0  0  0  0  0  0
   -0.0274   -0.1847   -0.3034 N   0  0  0  0  0  0  0  0  0  0  0  0
    1.0020    0.5365    0.4157 C   0  0  0  0  0  0  0  0  0  0  0  0
    2.2762    0.6389   -0.3137 C   0  0  0  0  0  0  0  0  0  0  0  0
    2.4756    0.1582   -1.4554 O   0  0  0  0  0  0  0  0  0  0  0  0
    3.3331    1.3376    0.3487 N   0  0  0  0  0  0  0  0  0  0  0  0
    4.6411    1.4898   -0.3006 C   0  0  0  0  0  0  0  0  0  0  0  0
   -1.2817    0.1212    0.3258 C   0  0  0  0  0  0  0  0  0  0  0  0
   -2.4784   -0.2404   -0.5016 C   0  0  1  0  0  0  0  0  0  0  0  0
   -3.7488    0.1224    0.2383 C   0  0  0  0  0  0  0  0  0  0  0  0
   -4.2053    0.7998   -1.0057 C   0  0  0  0  0  0  0  0  0  0  0  0
   -5.3092    1.2498   -1.4198 O   0  0  0  0  0  0  0  0  0  0  0  0
   -2.8665    0.7162   -1.5191 N   0  0  0  0  0  0  0  0  0  0  0  0
   -0.6784   -2.2143    1.4049 H   0  0  0  0  0  0  0  0  0  0  0  0
    1.1655   -2.3975    1.3498 H   0  0  0  0  0  0  0  0  0  0  0  0
    0.0953   -3.4724    0.4332 H   0  0  0  0  0  0  0  0  0  0  0  0
   -0.5419   -1.9841   -1.1534 H   0  0  0  0  0  0  0  0  0  0  0  0
    1.2028   -1.7332   -0.9835 H   0  0  0  0  0  0  0  0  0  0  0  0
    0.6244    1.5830    0.5453 H   0  0  0  0  0  0  0  0  0  0  0  0
    1.1275    0.1374    1.4560 H   0  0  0  0  0  0  0  0  0  0  0  0
    3.2311    1.7648    1.2985 H   0  0  0  0  0  0  0  0  0  0  0  0
    4.8334    2.5707   -0.4953 H   0  0  0  0  0  0  0  0  0  0  0  0
    4.7480    0.8629   -1.1844 H   0  0  0  0  0  0  0  0  0  0  0  0
    5.3922    1.1843    0.4896 H   0  0  0  0  0  0  0  0  0  0  0  0
   -1.2869    1.2416    0.4559 H   0  0  0  0  0  0  0  0  0  0  0  0
   -1.3039   -0.2882    1.3366 H   0  0  0  0  0  0  0  0  0  0  0  0
   -2.4847   -1.2623   -0.9166 H   0  0  0  0  0  0  0  0  0  0  0  0
   -4.4121   -0.7381    0.4871 H   0  0  0  0  0  0  0  0  0  0  0  0
   -3.6261    0.8139    1.0805 H   0  0  0  0  0  0  0  0  0  0  0  0
   -2.3436    1.1551   -2.3088 H   0  0  0  0  0  0  0  0  0  0  0  0
  1  2  1  0
  2  3  1  0
  3  4  1  0
  4  5  1  0
  5  6  2  0
  5  7  1  0
  7  8  1  0
  3  9  1  0
  9 10  1  0
 10 11  1  0
 11 12  1  0
 12 13  2  0
 12 14  1  0
 14 10  1  0
  1 15  1  0
  1 16  1  0
  1 17  1  0
  2 18  1  0
  2 19  1  0
  4 20  1  0
  4 21  1  0
  7 22  1  0
  8 23  1  0
  8 24  1  0
  8 25  1  0
  9 26  1  0
  9 27  1  0
 10 28  1  6
 11 29  1  0
 11 30  1  0
 14 31  1  0
M  END
$$$$
