
     RDKit          3D

 24 25  0  0  0  0  0  0  0  0999 V2000
    3.6513   -1.4356    0.4055 C   0  0  0  0  0  0  0  0  0  0  0  0
    2.4387   -0.6972    0.1884 N   0  0  0  0  0  0  0  0  0  0  0  0
    1.2082   -1.1570    0.1569 N   0  0  0  0  0  0  0  0  0  0  0  0
    0.3451   -0.1609   -0.0711 C   0  0  0  0  0  0  0  0  0  0  0  0
   -0.9191   -0.3046   -0.1548 N   0  0  0  0  0  0  0  0  0  0  0  0
   -1.8635    0.7467   -0.3983 C   0  0  1  0  0  0  0  0  0  0  0  0
   -3.0802    0.5540   -1.2099 C   0  0  0  0  0  0  0  0  0  0  0  0
   -3.2023    0.6269    0.2880 C   0  0  1  0  0  0  0  0  0  0  0  0
   -3.5883   -0.5955    0.9218 N   0  0  0  0  0  0  0  0  0  0  0  0
    1.0744    0.9834   -0.1887 N   0  0  0  0  0  0  0  0  0  0  0  0
    2.3482    0.6318   -0.0269 C   0  0  0  0  0  0  0  0  0  0  0  0
    3.3727    1.4258   -0.0649 N   0  0  0  0  0  0  0  0  0  0  0  0
    3.4084   -2.4984    0.6146 H   0  0  0  0  0  0  0  0  0  0  0  0
    4.2898   -1.4075   -0.4906 H   0  0  0  0  0  0  0  0  0  0  0  0
    4.1595   -1.0488    1.3150 H   0  0  0  0  0  0  0  0  0  0  0  0
    0.9547   -2.1553    0.2916 H   0  0  0  0  0  0  0  0  0  0  0  0
   -1.3988    1.7657   -0.4487 H   0  0  0  0  0  0  0  0  0  0  0  0
   -3.2105   -0.4308   -1.7026 H   0  0  0  0  0  0  0  0  0  0  0  0
   -3.4815    1.4126   -1.7968 H   0  0  0  0  0  0  0  0  0  0  0  0
   -3.6133    1.5419    0.7655 H   0  0  0  0  0  0  0  0  0  0  0  0
   -3.2590   -0.7232    1.8841 H   0  0  0  0  0  0  0  0  0  0  0  0
   -3.5872   -1.4285    0.3211 H   0  0  0  0  0  0  0  0  0  0  0  0
    0.6679    1.9192   -0.3690 H   0  0  0  0  0  0  0  0  0  0  0  0
    3.2846    2.4352   -0.2300 H   0  0  0  0  0  0  0  0  0  0  0  0
  1  2  1  0
  2  3  1  0
  3  4  1  0
  4  5  2  3
  5  6  1  0
  6  7  1  0
  7  8  1  0
  8  9  1  0
  4 10  1  0
 10 11  1  0
 11 12  2  3
 11  2  1  0
  8  6  1  0
  1 13  1  0
  1 14  1  0
  1 15  1  0
  3 16  1  0
  6 17  1  6
  7 18  1  0
  7 19  1  0
  8 20  1  6
  9 21  1  0
  9 22  1  0
 10 23  1  0
 12 24  1  0
M  END
$$$$

     RDKit          3D

 24 25  0  0  0  0  0  0  0  0999 V2000
    3.0072    1.2448   -0.7144 C   0  0  0  0  0  0  0  0  0  0  0  0
    2.0646    0.3012   -0.1417 N   0  0  0  0  0  0  0  0  0  0  0  0
    0.8109    0.1065   -0.5165 N   0  0  0  0  0  0  0  0  0  0  0  0
    0.2791   -0.8419    0.2527 C   0  0  0  0  0  0  0  0  0  0  0  0
   -0.9155   -1.3183    0.2074 N   0  0  0  0  0  0  0  0  0  0  0  0
   -1.8257   -0.7924   -0.7801 C   0  0  1  0  0  0  0  0  0  0  0  0
   -3.2871   -0.7699   -0.5179 C   0  0  0  0  0  0  0  0  0  0  0  0
   -2.4572    0.5226   -0.5246 C   0  0  1  0  0  0  0  0  0  0  0  0
   -2.2721    1.1309    0.7633 N   0  0  0  0  0  0  0  0  0  0  0  0
    1.2471   -1.2395    1.1295 N   0  0  0  0  0  0  0  0  0  0  0  0
    2.3547   -0.5224    0.8763 C   0  0  0  0  0  0  0  0  0  0  0  0
    3.4593   -0.6217    1.4970 N   0  0  0  0  0  0  0  0  0  0  0  0
    2.4624    2.2090   -0.8793 H   0  0  0  0  0  0  0  0  0  0  0  0
    3.8279    1.4758   -0.0184 H   0  0  0  0  0  0  0  0  0  0  0  0
    3.3257    0.8968   -1.7028 H   0  0  0  0  0  0  0  0  0  0  0  0
    0.3730    0.6456   -1.2983 H   0  0  0  0  0  0  0  0  0  0  0  0
   -1.5153   -1.0620   -1.8285 H   0  0  0  0  0  0  0  0  0  0  0  0
   -3.6705   -1.1237    0.4663 H   0  0  0  0  0  0  0  0  0  0  0  0
   -3.9979   -0.9073   -1.3426 H   0  0  0  0  0  0  0  0  0  0  0  0
   -2.6244    1.2267   -1.3665 H   0  0  0  0  0  0  0  0  0  0  0  0
   -2.7059    2.0787    0.7599 H   0  0  0  0  0  0  0  0  0  0  0  0
   -2.7203    0.6014    1.5394 H   0  0  0  0  0  0  0  0  0  0  0  0
    1.1511   -1.9700    1.8680 H   0  0  0  0  0  0  0  0  0  0  0  0
    3.6288   -1.2707    2.2717 H   0  0  0  0  0  0  0  0  0  0  0  0
  1  2  1  0
  2  3  1  0
  3  4  1  0
  4  5  2  3
  5  6  1  0
  6  7  1  0
  7  8  1  0
  8  9  1  0
  4 10  1  0
 10 11  1  0
 11 12  2  3
 11  2  1  0
  8  6  1  0
  1 13  1  0
  1 14  1  0
  1 15  1  0
  3 16  1  0
  6 17  1  6
  7 18  1  0
  7 19  1  0
  8 20  1  6
  9 21  1  0
  9 22  1  0
 10 23  1  0
 12 24  1  0
M  END
$$$$

     RDKit          3D

 24 25  0  0  0  0  0  0  0  0999 V2000
   -3.7051   -0.6682    0.5075 C   0  0  0  0  0  0  0  0  0  0  0  0
   -2.3556   -0.2090    0.1666 N   0  0  0  0  0  0  0  0  0  0  0  0
   -1.4002   -0.9240   -0.3516 N   0  0  0  0  0  0  0  0  0  0  0  0
   -0.2973   -0.1427   -0.5223 C   0  0  0  0  0  0  0  0  0  0  0  0
    0.7832   -0.6046   -1.0160 N   0  0  0  0  0  0  0  0  0  0  0  0
    1.9920    0.1074   -1.2415 C   0  0  1  0  0  0  0  0  0  0  0  0
    2.6829    0.9044   -0.2218 C   0  0  0  0  0  0  0  0  0  0  0  0
    3.1998   -0.4907   -0.4991 C   0  0  1  0  0  0  0  0  0  0  0  0
    2.9208   -1.4371    0.5640 N   0  0  0  0  0  0  0  0  0  0  0  0
   -0.5968    1.0924   -0.0909 N   0  0  0  0  0  0  0  0  0  0  0  0
   -1.8780    1.0349    0.3336 C   0  0  0  0  0  0  0  0  0  0  0  0
   -2.5223    2.0413    0.8225 N   0  0  0  0  0  0  0  0  0  0  0  0
   -3.7970   -0.8493    1.5907 H   0  0  0  0  0  0  0  0  0  0  0  0
   -3.9832   -1.5543   -0.0777 H   0  0  0  0  0  0  0  0  0  0  0  0
   -4.3879    0.1555    0.2075 H   0  0  0  0  0  0  0  0  0  0  0  0
   -1.4919   -1.9406   -0.5906 H   0  0  0  0  0  0  0  0  0  0  0  0
    2.1618    0.4065   -2.2994 H   0  0  0  0  0  0  0  0  0  0  0  0
    3.3773    1.6978   -0.5564 H   0  0  0  0  0  0  0  0  0  0  0  0
    2.2133    1.1172    0.7475 H   0  0  0  0  0  0  0  0  0  0  0  0
    4.0988   -0.6243   -1.1296 H   0  0  0  0  0  0  0  0  0  0  0  0
    2.6586   -0.9466    1.4660 H   0  0  0  0  0  0  0  0  0  0  0  0
    3.7842   -1.9969    0.7240 H   0  0  0  0  0  0  0  0  0  0  0  0
    0.0506    1.9061   -0.0965 H   0  0  0  0  0  0  0  0  0  0  0  0
   -3.5079    1.9247    1.1298 H   0  0  0  0  0  0  0  0  0  0  0  0
  1  2  1  0
  2  3  1  0
  3  4  1  0
  4  5  2  3
  5  6  1  0
  6  7  1  0
  7  8  1  0
  8  9  1  0
  4 10  1  0
 10 11  1  0
 11 12  2  3
 11  2  1  0
  8  6  1  0
  1 13  1  0
  1 14  1  0
  1 15  1  0
  3 16  1  0
  6 17  1  6
  7 18  1  0
  7 19  1  0
  8 20  1  6
  9 21  1  0
  9 22  1  0
 10 23  1  0
 12 24  1  0
M  END
$$$$

     RDKit          3D

 24 25  0  0  0  0  0  0  0  0999 V2000
    3.5036    0.3867    0.0683 C   0  0  0  0  0  0  0  0  0  0  0  0
    2.2178   -0.2181    0.4000 N   0  0  0  0  0  0  0  0  0  0  0  0
    1.0262    0.2917    0.1087 N   0  0  0  0  0  0  0  0  0  0  0  0
    0.0430   -0.4871    0.5393 C   0  0  0  0  0  0  0  0  0  0  0  0
   -1.2316   -0.3084    0.4328 N   0  0  0  0  0  0  0  0  0  0  0  0
   -1.6951    0.8730   -0.2303 C   0  0  1  0  0  0  0  0  0  0  0  0
   -2.1564    0.6214   -1.6693 C   0  0  0  0  0  0  0  0  0  0  0  0
   -3.0975    1.0793   -0.6235 C   0  0  1  0  0  0  0  0  0  0  0  0
   -4.1302    0.1769   -0.1458 N   0  0  0  0  0  0  0  0  0  0  0  0
    0.6528   -1.5448    1.1339 N   0  0  0  0  0  0  0  0  0  0  0  0
    1.9830   -1.3748    1.0457 C   0  0  0  0  0  0  0  0  0  0  0  0
    2.9018   -2.1609    1.4900 N   0  0  0  0  0  0  0  0  0  0  0  0
    4.2601   -0.3951   -0.0321 H   0  0  0  0  0  0  0  0  0  0  0  0
    3.7429    1.1625    0.8063 H   0  0  0  0  0  0  0  0  0  0  0  0
    3.4436    0.9070   -0.9265 H   0  0  0  0  0  0  0  0  0  0  0  0
    0.9076    1.2056   -0.4030 H   0  0  0  0  0  0  0  0  0  0  0  0
   -1.0567    1.7765   -0.0493 H   0  0  0  0  0  0  0  0  0  0  0  0
   -1.7101    1.2933   -2.4126 H   0  0  0  0  0  0  0  0  0  0  0  0
   -2.2821   -0.4190   -2.0060 H   0  0  0  0  0  0  0  0  0  0  0  0
   -3.4407    2.1352   -0.6663 H   0  0  0  0  0  0  0  0  0  0  0  0
   -3.9197    0.0135    0.8747 H   0  0  0  0  0  0  0  0  0  0  0  0
   -4.0579   -0.7134   -0.6943 H   0  0  0  0  0  0  0  0  0  0  0  0
    0.1856   -2.3593    1.5870 H   0  0  0  0  0  0  0  0  0  0  0  0
    3.9100   -1.9416    1.3725 H   0  0  0  0  0  0  0  0  0  0  0  0
  1  2  1  0
  2  3  1  0
  3  4  1  0
  4  5  2  3
  5  6  1  0
  6  7  1  0
  7  8  1  0
  8  9  1  0
  4 10  1  0
 10 11  1  0
 11 12  2  3
 11  2  1  0
  8  6  1  0
  1 13  1  0
  1 14  1  0
  1 15  1  0
  3 16  1  0
  6 17  1  6
  7 18  1  0
  7 19  1  0
  8 20  1  6
  9 21  1  0
  9 22  1  0
 10 23  1  0
 12 24  1  0
M  END
$$$$

     RDKit          3D

 24 25  0  0  0  0  0  0  0  0999 V2000
   -2.7492    1.2248   -1.0911 C   0  0  0  0  0  0  0  0  0  0  0  0
   -1.9634    0.3721   -0.2249 N   0  0  0  0  0  0  0  0  0  0  0  0
   -0.6784    0.1239   -0.4147 N   0  0  0  0  0  0  0  0  0  0  0  0
   -0.2280   -0.6881    0.5347 C   0  0  0  0  0  0  0  0  0  0  0  0
    0.8895   -1.1961    0.7790 N   0  0  0  0  0  0  0  0  0  0  0  0
    2.1725   -1.1900    0.2336 C   0  0  1  0  0  0  0  0  0  0  0  0
    2.5080   -0.8145   -1.1644 C   0  0  0  0  0  0  0  0  0  0  0  0
    2.8161    0.1272   -0.0903 C   0  0  1  0  0  0  0  0  0  0  0  0
    2.1128    1.3410    0.1803 N   0  0  0  0  0  0  0  0  0  0  0  0
   -1.3081   -0.9389    1.3379 N   0  0  0  0  0  0  0  0  0  0  0  0
   -2.3411   -0.2869    0.8565 C   0  0  0  0  0  0  0  0  0  0  0  0
   -3.5534   -0.2522    1.3150 N   0  0  0  0  0  0  0  0  0  0  0  0
   -3.8222    0.9784   -0.9782 H   0  0  0  0  0  0  0  0  0  0  0  0
   -2.5255    2.2742   -0.8130 H   0  0  0  0  0  0  0  0  0  0  0  0
   -2.4090    1.0621   -2.1319 H   0  0  0  0  0  0  0  0  0  0  0  0
   -0.1142    0.5149   -1.1985 H   0  0  0  0  0  0  0  0  0  0  0  0
    2.8654   -1.9700    0.6987 H   0  0  0  0  0  0  0  0  0  0  0  0
    3.3896   -1.3690   -1.6297 H   0  0  0  0  0  0  0  0  0  0  0  0
    1.6901   -0.7521   -1.8805 H   0  0  0  0  0  0  0  0  0  0  0  0
    3.9111    0.2098    0.1901 H   0  0  0  0  0  0  0  0  0  0  0  0
    1.6753    1.4101    1.1042 H   0  0  0  0  0  0  0  0  0  0  0  0
    2.7288    2.1603    0.0375 H   0  0  0  0  0  0  0  0  0  0  0  0
   -1.2894   -1.5460    2.1808 H   0  0  0  0  0  0  0  0  0  0  0  0
   -3.7773   -0.7948    2.1688 H   0  0  0  0  0  0  0  0  0  0  0  0
  1  2  1  0
  2  3  1  0
  3  4  1  0
  4  5  2  3
  5  6  1  0
  6  7  1  0
  7  8  1  0
  8  9  1  0
  4 10  1  0
 10 11  1  0
 11 12  2  3
 11  2  1  0
  8  6  1  0
  1 13  1  0
  1 14  1  0
  1 15  1  0
  3 16  1  0
  6 17  1  1
  7 18  1  0
  7 19  1  0
  8 20  1  1
  9 21  1  0
  9 22  1  0
 10 23  1  0
 12 24  1  0
M  END
$$$$

     RDKit          3D

 24 25  0  0  0  0  0  0  0  0999 V2000
    2.8167   -1.7837   -0.5066 C   0  0  0  0  0  0  0  0  0  0  0  0
    2.0458   -0.5650   -0.3730 N   0  0  0  0  0  0  0  0  0  0  0  0
    0.8700   -0.4626    0.1979 N   0  0  0  0  0  0  0  0  0  0  0  0
    0.4337    0.8068    0.1524 C   0  0  0  0  0  0  0  0  0  0  0  0
   -0.6854    1.2087    0.6322 N   0  0  0  0  0  0  0  0  0  0  0  0
   -1.5914    0.3110    1.2762 C   0  0  1  0  0  0  0  0  0  0  0  0
   -3.0111    0.8339    1.3876 C   0  0  0  0  0  0  0  0  0  0  0  0
   -2.6692   -0.3307    0.4995 C   0  0  1  0  0  0  0  0  0  0  0  0
   -2.6903   -0.1147   -0.9363 N   0  0  0  0  0  0  0  0  0  0  0  0
    1.3668    1.5216   -0.4670 N   0  0  0  0  0  0  0  0  0  0  0  0
    2.3732    0.6672   -0.7954 C   0  0  0  0  0  0  0  0  0  0  0  0
    3.4579    0.9499   -1.4009 N   0  0  0  0  0  0  0  0  0  0  0  0
    3.7934   -1.5891   -0.9940 H   0  0  0  0  0  0  0  0  0  0  0  0
    2.9868   -2.1952    0.5207 H   0  0  0  0  0  0  0  0  0  0  0  0
    2.2551   -2.5553   -1.1045 H   0  0  0  0  0  0  0  0  0  0  0  0
    0.3620   -1.2828    0.6252 H   0  0  0  0  0  0  0  0  0  0  0  0
   -1.1945   -0.2348    2.1680 H   0  0  0  0  0  0  0  0  0  0  0  0
   -3.2661    1.8090    0.9298 H   0  0  0  0  0  0  0  0  0  0  0  0
   -3.5146    0.6471    2.3469 H   0  0  0  0  0  0  0  0  0  0  0  0
   -3.0275   -1.3258    0.8654 H   0  0  0  0  0  0  0  0  0  0  0  0
   -3.6209    0.2648   -1.2044 H   0  0  0  0  0  0  0  0  0  0  0  0
   -2.5551   -1.0251   -1.4186 H   0  0  0  0  0  0  0  0  0  0  0  0
    1.3639    2.5512   -0.6807 H   0  0  0  0  0  0  0  0  0  0  0  0
    3.7008    1.8936   -1.7205 H   0  0  0  0  0  0  0  0  0  0  0  0
  1  2  1  0
  2  3  1  0
  3  4  1  0
  4  5  2  3
  5  6  1  0
  6  7  1  0
  7  8  1  0
  8  9  1  0
  4 10  1  0
 10 11  1  0
 11 12  2  3
 11  2  1  0
  8  6  1  0
  1 13  1  0
  1 14  1  0
  1 15  1  0
  3 16  1  0
  6 17  1  1
  7 18  1  0
  7 19  1  0
  8 20  1  6
  9 21  1  0
  9 22  1  0
 10 23  1  0
 12 24  1  0
M  END
$$$$

     RDKit          3D

 24 25  0  0  0  0  0  0  0  0999 V2000
   -3.7615   -1.3298   -0.0234 C   0  0  0  0  0  0  0  0  0  0  0  0
   -2.4548   -0.7063   -0.1234 N   0  0  0  0  0  0  0  0  0  0  0  0
   -1.3298   -1.2026   -0.6344 N   0  0  0  0  0  0  0  0  0  0  0  0
   -0.3355   -0.2867   -0.5289 C   0  0  0  0  0  0  0  0  0  0  0  0
    0.9032   -0.4230   -0.9229 N   0  0  0  0  0  0  0  0  0  0  0  0
    1.7890    0.6763   -0.7124 C   0  0  1  0  0  0  0  0  0  0  0  0
    2.4333    0.6590    0.6939 C   0  0  0  0  0  0  0  0  0  0  0  0
    3.2363    0.5577   -0.5873 C   0  0  1  0  0  0  0  0  0  0  0  0
    3.9798   -0.6293   -0.8629 N   0  0  0  0  0  0  0  0  0  0  0  0
   -0.9104    0.7765    0.0653 N   0  0  0  0  0  0  0  0  0  0  0  0
   -2.2086    0.5361    0.3206 C   0  0  0  0  0  0  0  0  0  0  0  0
   -3.0625    1.3517    0.8891 N   0  0  0  0  0  0  0  0  0  0  0  0
   -4.4419   -0.7497   -0.7061 H   0  0  0  0  0  0  0  0  0  0  0  0
   -3.7682   -2.3884   -0.2746 H   0  0  0  0  0  0  0  0  0  0  0  0
   -4.2071   -1.2099    0.9891 H   0  0  0  0  0  0  0  0  0  0  0  0
   -1.2550   -2.1628   -1.0499 H   0  0  0  0  0  0  0  0  0  0  0  0
    1.3464    1.6659   -1.0284 H   0  0  0  0  0  0  0  0  0  0  0  0
    2.3743    1.6120    1.2352 H   0  0  0  0  0  0  0  0  0  0  0  0
    2.3979   -0.2708    1.2645 H   0  0  0  0  0  0  0  0  0  0  0  0
    3.8213    1.5022   -0.7842 H   0  0  0  0  0  0  0  0  0  0  0  0
    3.6499   -1.4745   -0.3725 H   0  0  0  0  0  0  0  0  0  0  0  0
    4.9767   -0.4547   -0.5331 H   0  0  0  0  0  0  0  0  0  0  0  0
   -0.3901    1.6507    0.2830 H   0  0  0  0  0  0  0  0  0  0  0  0
   -2.7828    2.3004    1.2030 H   0  0  0  0  0  0  0  0  0  0  0  0
  1  2  1  0
  2  3  1  0
  3  4  1  0
  4  5  2  3
  5  6  1  0
  6  7  1  0
  7  8  1  0
  8  9  1  0
  4 10  1  0
 10 11  1  0
 11 12  2  3
 11  2  1  0
  8  6  1  0
  1 13  1  0
  1 14  1  0
  1 15  1  0
  3 16  1  0
  6 17  1  6
  7 18  1  0
  7 19  1  0
  8 20  1  6
  9 21  1  0
  9 22  1  0
 10 23  1  0
 12 24  1  0
M  END
$$$$

     RDKit          3D

 24 25  0  0  0  0  0  0  0  0999 V2000
    3.5095   -0.8291   -0.6447 C   0  0  0  0  0  0  0  0  0  0  0  0
    2.3421   -0.0673   -0.2062 N   0  0  0  0  0  0  0  0  0  0  0  0
    1.1055   -0.5181   -0.1354 N   0  0  0  0  0  0  0  0  0  0  0  0
    0.2988    0.4583    0.3084 C   0  0  0  0  0  0  0  0  0  0  0  0
   -0.9673    0.4273    0.5157 N   0  0  0  0  0  0  0  0  0  0  0  0
   -1.7659   -0.7459    0.2856 C   0  0  1  0  0  0  0  0  0  0  0  0
   -2.8114   -1.0231    1.3789 C   0  0  0  0  0  0  0  0  0  0  0  0
   -3.2091   -0.6788   -0.0071 C   0  0  1  0  0  0  0  0  0  0  0  0
   -3.8095    0.6198   -0.1829 N   0  0  0  0  0  0  0  0  0  0  0  0
    1.0928    1.5251    0.5060 N   0  0  0  0  0  0  0  0  0  0  0  0
    2.3546    1.2029    0.1890 C   0  0  0  0  0  0  0  0  0  0  0  0
    3.4179    1.9496    0.2404 N   0  0  0  0  0  0  0  0  0  0  0  0
    4.2890   -0.1850   -1.0721 H   0  0  0  0  0  0  0  0  0  0  0  0
    3.9184   -1.3401    0.2483 H   0  0  0  0  0  0  0  0  0  0  0  0
    3.1899   -1.5940   -1.3865 H   0  0  0  0  0  0  0  0  0  0  0  0
    0.7953   -1.4957   -0.3881 H   0  0  0  0  0  0  0  0  0  0  0  0
   -1.2237   -1.6195   -0.1256 H   0  0  0  0  0  0  0  0  0  0  0  0
   -2.7885   -2.0481    1.7587 H   0  0  0  0  0  0  0  0  0  0  0  0
   -2.9370   -0.2574    2.1656 H   0  0  0  0  0  0  0  0  0  0  0  0
   -3.6439   -1.4558   -0.6758 H   0  0  0  0  0  0  0  0  0  0  0  0
   -3.1936    1.2590   -0.7092 H   0  0  0  0  0  0  0  0  0  0  0  0
   -4.1509    1.0239    0.7009 H   0  0  0  0  0  0  0  0  0  0  0  0
    0.8023    2.4638    0.8495 H   0  0  0  0  0  0  0  0  0  0  0  0
    3.3848    2.9282    0.5522 H   0  0  0  0  0  0  0  0  0  0  0  0
  1  2  1  0
  2  3  1  0
  3  4  1  0
  4  5  2  3
  5  6  1  0
  6  7  1  0
  7  8  1  0
  8  9  1  0
  4 10  1  0
 10 11  1  0
 11 12  2  3
 11  2  1  0
  8  6  1  0
  1 13  1  0
  1 14  1  0
  1 15  1  0
  3 16  1  0
  6 17  1  6
  7 18  1  0
  7 19  1  0
  8 20  1  6
  9 21  1  0
  9 22  1  0
 10 23  1  0
 12 24  1  0
M  END
$$$$
