
     RDKit          3D

 29 29  0  0  0  0  0  0  0  0999 V2000
   -4.2783   -0.4275   -0.6064 C   0  0  0  0  0  0  0  0  0  0  0  0
   -3.2366   -0.5874    0.4758 C   0  0  0  0  0  0  0  0  0  0  0  0
   -1.8821   -0.9152   -0.0857 C   0  0  1  0  0  0  0  0  0  0  0  0
   -1.4692    0.1451   -0.9569 N   0  0  0  0  0  0  0  0  0  0  0  0
   -0.9303   -1.0933    1.0859 C   0  0  0  0  0  0  0  0  0  0  0  0
    0.4048   -1.4131    0.6288 N   0  0  0  0  0  0  0  0  0  0  0  0
    1.3101   -0.5186    0.4379 C   0  0  0  0  0  0  0  0  0  0  0  0
    1.1798    0.8072    0.6210 N   0  0  0  0  0  0  0  0  0  0  0  0
    2.3654    1.3351    0.3021 C   0  0  0  0  0  0  0  0  0  0  0  0
    2.6521    2.5839    0.3450 N   0  0  0  0  0  0  0  0  0  0  0  0
    3.2373    0.3638   -0.0780 N   0  0  0  0  0  0  0  0  0  0  0  0
    4.6103    0.5892   -0.4886 C   0  0  0  0  0  0  0  0  0  0  0  0
    2.5612   -0.7708    0.0147 N   0  0  0  0  0  0  0  0  0  0  0  0
   -5.2269   -0.8827   -0.2250 H   0  0  0  0  0  0  0  0  0  0  0  0
   -3.9864   -0.9568   -1.5410 H   0  0  0  0  0  0  0  0  0  0  0  0
   -4.4170    0.6507   -0.8437 H   0  0  0  0  0  0  0  0  0  0  0  0
   -3.5664   -1.3059    1.2412 H   0  0  0  0  0  0  0  0  0  0  0  0
   -3.1524    0.4008    1.0064 H   0  0  0  0  0  0  0  0  0  0  0  0
   -1.9267   -1.8673   -0.6401 H   0  0  0  0  0  0  0  0  0  0  0  0
   -1.5970    1.0841   -0.5679 H   0  0  0  0  0  0  0  0  0  0  0  0
   -0.5518   -0.0263   -1.4162 H   0  0  0  0  0  0  0  0  0  0  0  0
   -0.8904   -0.1667    1.7038 H   0  0  0  0  0  0  0  0  0  0  0  0
   -1.2537   -1.9311    1.7351 H   0  0  0  0  0  0  0  0  0  0  0  0
    0.3169    1.3193    0.9491 H   0  0  0  0  0  0  0  0  0  0  0  0
    1.9605    3.2959    0.6402 H   0  0  0  0  0  0  0  0  0  0  0  0
    5.1562    1.1344    0.2963 H   0  0  0  0  0  0  0  0  0  0  0  0
    4.5511    1.2293   -1.4125 H   0  0  0  0  0  0  0  0  0  0  0  0
    5.0988   -0.3665   -0.6980 H   0  0  0  0  0  0  0  0  0  0  0  0
    2.9608   -1.7094   -0.2123 H   0  0  0  0  0  0  0  0  0  0  0  0
  1  2  1  0
  2  3  1  0
  3  4  1  0
  3  5  1  0
  5  6  1  0
  6  7  2  3
  7  8  1  0
  8  9  1  0
  9 10  2  3
  9 11  1  0
 11 12  1  0
 11 13  1  0
 13  7  1  0
  1 14  1  0
  1 15  1  0
  1 16  1  0
  2 17  1  0
  2 18  1  0
  3 19  1  6
  4 20  1  0
  4 21  1  0
  5 22  1  0
  5 23  1  0
  8 24  1  0
 10 25  1  0
 12 26  1  0
 12 27  1  0
 12 28  1  0
 13 29  1  0
M  END
$$$$

     RDKit          3D

 29 29  0  0  0  0  0  0  0  0999 V2000
    2.4951    1.5172    0.0189 C   0  0  0  0  0  0  0  0  0  0  0  0
    3.2654    0.3131    0.5139 C   0  0  0  0  0  0  0  0  0  0  0  0
    2.6126   -0.9706    0.0989 C   0  0  1  0  0  0  0  0  0  0  0  0
    3.4232   -2.0736    0.6187 N   0  0  0  0  0  0  0  0  0  0  0  0
    1.2002   -1.0944    0.5877 C   0  0  0  0  0  0  0  0  0  0  0  0
    0.3924   -0.0289    0.0746 N   0  0  0  0  0  0  0  0  0  0  0  0
   -0.8988   -0.0351    0.0977 C   0  0  0  0  0  0  0  0  0  0  0  0
   -1.7479   -0.9651    0.5697 N   0  0  0  0  0  0  0  0  0  0  0  0
   -3.0105   -0.5262    0.3727 C   0  0  0  0  0  0  0  0  0  0  0  0
   -4.0755   -1.1663    0.7050 N   0  0  0  0  0  0  0  0  0  0  0  0
   -2.9379    0.6777   -0.2223 N   0  0  0  0  0  0  0  0  0  0  0  0
   -4.0457    1.5371   -0.6292 C   0  0  0  0  0  0  0  0  0  0  0  0
   -1.6632    0.9618   -0.3823 N   0  0  0  0  0  0  0  0  0  0  0  0
    2.0713    1.2775   -0.9881 H   0  0  0  0  0  0  0  0  0  0  0  0
    1.7050    1.8424    0.7301 H   0  0  0  0  0  0  0  0  0  0  0  0
    3.2083    2.3873   -0.0677 H   0  0  0  0  0  0  0  0  0  0  0  0
    4.2885    0.3969    0.1022 H   0  0  0  0  0  0  0  0  0  0  0  0
    3.3242    0.4149    1.6304 H   0  0  0  0  0  0  0  0  0  0  0  0
    2.6494   -1.0256   -1.0031 H   0  0  0  0  0  0  0  0  0  0  0  0
    2.8933   -2.9732    0.5743 H   0  0  0  0  0  0  0  0  0  0  0  0
    3.6858   -1.8291    1.5966 H   0  0  0  0  0  0  0  0  0  0  0  0
    0.7764   -2.0778    0.3400 H   0  0  0  0  0  0  0  0  0  0  0  0
    1.1907   -0.9932    1.7071 H   0  0  0  0  0  0  0  0  0  0  0  0
   -1.4581   -1.8724    1.0128 H   0  0  0  0  0  0  0  0  0  0  0  0
   -5.0092   -0.7572    0.5177 H   0  0  0  0  0  0  0  0  0  0  0  0
   -4.9640    1.1836   -0.1182 H   0  0  0  0  0  0  0  0  0  0  0  0
   -3.8654    2.5762   -0.3378 H   0  0  0  0  0  0  0  0  0  0  0  0
   -4.2033    1.4493   -1.7204 H   0  0  0  0  0  0  0  0  0  0  0  0
   -1.3022    1.8537   -0.8279 H   0  0  0  0  0  0  0  0  0  0  0  0
  1  2  1  0
  2  3  1  0
  3  4  1  0
  3  5  1  0
  5  6  1  0
  6  7  2  3
  7  8  1  0
  8  9  1  0
  9 10  2  3
  9 11  1  0
 11 12  1  0
 11 13  1  0
 13  7  1  0
  1 14  1  0
  1 15  1  0
  1 16  1  0
  2 17  1  0
  2 18  1  0
  3 19  1  6
  4 20  1  0
  4 21  1  0
  5 22  1  0
  5 23  1  0
  8 24  1  0
 10 25  1  0
 12 26  1  0
 12 27  1  0
 12 28  1  0
 13 29  1  0
M  END
$$$$

     RDKit          3D

 29 29  0  0  0  0  0  0  0  0999 V2000
   -3.6076    0.3576   -1.3186 C   0  0  0  0  0  0  0  0  0  0  0  0
   -2.7143   -0.4513   -0.4339 C   0  0  0  0  0  0  0  0  0  0  0  0
   -1.9546    0.4253    0.5469 C   0  0  1  0  0  0  0  0  0  0  0  0
   -2.8808    1.1395    1.3769 N   0  0  0  0  0  0  0  0  0  0  0  0
   -1.0461   -0.4714    1.3706 C   0  0  0  0  0  0  0  0  0  0  0  0
   -0.1452   -1.1269    0.4134 N   0  0  0  0  0  0  0  0  0  0  0  0
    1.0246   -0.6569    0.2120 C   0  0  0  0  0  0  0  0  0  0  0  0
    1.6201    0.4199    0.7699 N   0  0  0  0  0  0  0  0  0  0  0  0
    2.8443    0.5234    0.2531 C   0  0  0  0  0  0  0  0  0  0  0  0
    3.7305    1.4196    0.5265 N   0  0  0  0  0  0  0  0  0  0  0  0
    3.0283   -0.4752   -0.6241 N   0  0  0  0  0  0  0  0  0  0  0  0
    4.2305   -0.7351   -1.4166 C   0  0  0  0  0  0  0  0  0  0  0  0
    1.9157   -1.1947   -0.6476 N   0  0  0  0  0  0  0  0  0  0  0  0
   -3.5973   -0.0591   -2.3311 H   0  0  0  0  0  0  0  0  0  0  0  0
   -4.6681    0.3547   -0.9361 H   0  0  0  0  0  0  0  0  0  0  0  0
   -3.2025    1.3929   -1.3481 H   0  0  0  0  0  0  0  0  0  0  0  0
   -3.3627   -1.1844    0.1176 H   0  0  0  0  0  0  0  0  0  0  0  0
   -2.0257   -1.0392   -1.0443 H   0  0  0  0  0  0  0  0  0  0  0  0
   -1.3748    1.1388   -0.0463 H   0  0  0  0  0  0  0  0  0  0  0  0
   -2.4909    2.0621    1.6745 H   0  0  0  0  0  0  0  0  0  0  0  0
   -3.2564    0.6005    2.1700 H   0  0  0  0  0  0  0  0  0  0  0  0
   -0.4809    0.0836    2.1242 H   0  0  0  0  0  0  0  0  0  0  0  0
   -1.6077   -1.2760    1.8715 H   0  0  0  0  0  0  0  0  0  0  0  0
    1.2159    1.0591    1.4714 H   0  0  0  0  0  0  0  0  0  0  0  0
    3.5066    2.1702    1.2277 H   0  0  0  0  0  0  0  0  0  0  0  0
    3.9433   -1.2436   -2.3456 H   0  0  0  0  0  0  0  0  0  0  0  0
    4.8603   -1.4350   -0.8114 H   0  0  0  0  0  0  0  0  0  0  0  0
    4.7435    0.2418   -1.5881 H   0  0  0  0  0  0  0  0  0  0  0  0
    1.7521   -2.0404   -1.2343 H   0  0  0  0  0  0  0  0  0  0  0  0
  1  2  1  0
  2  3  1  0
  3  4  1  0
  3  5  1  0
  5  6  1  0
  6  7  2  3
  7  8  1  0
  8  9  1  0
  9 10  2  3
  9 11  1  0
 11 12  1  0
 11 13  1  0
 13  7  1  0
  1 14  1  0
  1 15  1  0
  1 16  1  0
  2 17  1  0
  2 18  1  0
  3 19  1  6
  4 20  1  0
  4 21  1  0
  5 22  1  0
  5 23  1  0
  8 24  1  0
 10 25  1  0
 12 26  1  0
 12 27  1  0
 12 28  1  0
 13 29  1  0
M  END
$$$$

     RDKit          3D

 29 29  0  0  0  0  0  0  0  0999 V2000
   -4.2649   -1.0160    0.2674 C   0  0  0  0  0  0  0  0  0  0  0  0
   -2.9602   -0.4272    0.7987 C   0  0  0  0  0  0  0  0  0  0  0  0
   -2.2221    0.1794   -0.3907 C   0  0  1  0  0  0  0  0  0  0  0  0
   -3.0643    1.1892   -0.9476 N   0  0  0  0  0  0  0  0  0  0  0  0
   -0.8698    0.6995    0.0543 C   0  0  0  0  0  0  0  0  0  0  0  0
   -0.1051   -0.3814    0.5874 N   0  0  0  0  0  0  0  0  0  0  0  0
    1.1710   -0.4126    0.5086 C   0  0  0  0  0  0  0  0  0  0  0  0
    2.0079   -1.3689    0.9682 N   0  0  0  0  0  0  0  0  0  0  0  0
    3.2540   -0.9934    0.6695 C   0  0  0  0  0  0  0  0  0  0  0  0
    4.2953   -1.6825    0.9678 N   0  0  0  0  0  0  0  0  0  0  0  0
    3.1929    0.1899    0.0276 N   0  0  0  0  0  0  0  0  0  0  0  0
    4.3152    0.9542   -0.4742 C   0  0  0  0  0  0  0  0  0  0  0  0
    1.9293    0.5339   -0.0654 N   0  0  0  0  0  0  0  0  0  0  0  0
   -5.0007   -1.0034    1.1040 H   0  0  0  0  0  0  0  0  0  0  0  0
   -4.6300   -0.4242   -0.5814 H   0  0  0  0  0  0  0  0  0  0  0  0
   -4.0165   -2.0483   -0.0595 H   0  0  0  0  0  0  0  0  0  0  0  0
   -3.2179    0.4089    1.4811 H   0  0  0  0  0  0  0  0  0  0  0  0
   -2.3594   -1.1540    1.3424 H   0  0  0  0  0  0  0  0  0  0  0  0
   -2.0571   -0.5924   -1.1850 H   0  0  0  0  0  0  0  0  0  0  0  0
   -3.5519    1.7818   -0.2661 H   0  0  0  0  0  0  0  0  0  0  0  0
   -2.6808    1.6843   -1.7684 H   0  0  0  0  0  0  0  0  0  0  0  0
   -0.3963    1.1645   -0.8320 H   0  0  0  0  0  0  0  0  0  0  0  0
   -1.0734    1.4617    0.8385 H   0  0  0  0  0  0  0  0  0  0  0  0
    1.6691   -2.2406    1.4699 H   0  0  0  0  0  0  0  0  0  0  0  0
    5.2622   -1.3619    0.7200 H   0  0  0  0  0  0  0  0  0  0  0  0
    5.2306    0.3176   -0.4413 H   0  0  0  0  0  0  0  0  0  0  0  0
    4.4345    1.8694    0.1706 H   0  0  0  0  0  0  0  0  0  0  0  0
    4.1019    1.2503   -1.5334 H   0  0  0  0  0  0  0  0  0  0  0  0
    1.6064    1.4225   -0.5267 H   0  0  0  0  0  0  0  0  0  0  0  0
  1  2  1  0
  2  3  1  0
  3  4  1  0
  3  5  1  0
  5  6  1  0
  6  7  2  3
  7  8  1  0
  8  9  1  0
  9 10  2  3
  9 11  1  0
 11 12  1  0
 11 13  1  0
 13  7  1  0
  1 14  1  0
  1 15  1  0
  1 16  1  0
  2 17  1  0
  2 18  1  0
  3 19  1  6
  4 20  1  0
  4 21  1  0
  5 22  1  0
  5 23  1  0
  8 24  1  0
 10 25  1  0
 12 26  1  0
 12 27  1  0
 12 28  1  0
 13 29  1  0
M  END
$$$$

     RDKit          3D

 29 29  0  0  0  0  0  0  0  0999 V2000
   -4.5098   -0.2092    0.1230 C   0  0  0  0  0  0  0  0  0  0  0  0
   -3.0442   -0.2046    0.5334 C   0  0  0  0  0  0  0  0  0  0  0  0
   -2.2589    0.4378   -0.6061 C   0  0  1  0  0  0  0  0  0  0  0  0
   -2.8037    1.7917   -0.7457 N   0  0  0  0  0  0  0  0  0  0  0  0
   -0.8238    0.5921   -0.1864 C   0  0  0  0  0  0  0  0  0  0  0  0
   -0.2034   -0.6789    0.1328 N   0  0  0  0  0  0  0  0  0  0  0  0
    1.0938   -0.7730    0.1264 C   0  0  0  0  0  0  0  0  0  0  0  0
    1.8372   -1.8670    0.3962 N   0  0  0  0  0  0  0  0  0  0  0  0
    3.1336   -1.5020    0.2691 C   0  0  0  0  0  0  0  0  0  0  0  0
    4.1383   -2.2988    0.4545 N   0  0  0  0  0  0  0  0  0  0  0  0
    3.2057   -0.2039   -0.0739 N   0  0  0  0  0  0  0  0  0  0  0  0
    4.4039    0.5793   -0.3085 C   0  0  0  0  0  0  0  0  0  0  0  0
    1.9530    0.2054   -0.1514 N   0  0  0  0  0  0  0  0  0  0  0  0
   -5.1503    0.1467    0.9672 H   0  0  0  0  0  0  0  0  0  0  0  0
   -4.8506   -1.2301   -0.1297 H   0  0  0  0  0  0  0  0  0  0  0  0
   -4.7176    0.4537   -0.7249 H   0  0  0  0  0  0  0  0  0  0  0  0
   -2.9017    0.3853    1.4551 H   0  0  0  0  0  0  0  0  0  0  0  0
   -2.7047   -1.2601    0.7075 H   0  0  0  0  0  0  0  0  0  0  0  0
   -2.3368   -0.1477   -1.5206 H   0  0  0  0  0  0  0  0  0  0  0  0
   -2.1215    2.3278   -1.3487 H   0  0  0  0  0  0  0  0  0  0  0  0
   -2.7497    2.2386    0.2017 H   0  0  0  0  0  0  0  0  0  0  0  0
   -0.6727    1.3513    0.5876 H   0  0  0  0  0  0  0  0  0  0  0  0
   -0.2722    0.9721   -1.0965 H   0  0  0  0  0  0  0  0  0  0  0  0
    1.4448   -2.7972    0.6501 H   0  0  0  0  0  0  0  0  0  0  0  0
    5.1011   -1.9562    0.3413 H   0  0  0  0  0  0  0  0  0  0  0  0
    4.2688    1.3312   -1.1159 H   0  0  0  0  0  0  0  0  0  0  0  0
    4.6450    1.1808    0.6146 H   0  0  0  0  0  0  0  0  0  0  0  0
    5.2626   -0.0512   -0.6071 H   0  0  0  0  0  0  0  0  0  0  0  0
    1.6337    1.1860   -0.4015 H   0  0  0  0  0  0  0  0  0  0  0  0
  1  2  1  0
  2  3  1  0
  3  4  1  0
  3  5  1  0
  5  6  1  0
  6  7  2  3
  7  8  1  0
  8  9  1  0
  9 10  2  3
  9 11  1  0
 11 12  1  0
 11 13  1  0
 13  7  1  0
  1 14  1  0
  1 15  1  0
  1 16  1  0
  2 17  1  0
  2 18  1  0
  3 19  1  6
  4 20  1  0
  4 21  1  0
  5 22  1  0
  5 23  1  0
  8 24  1  0
 10 25  1  0
 12 26  1  0
 12 27  1  0
 12 28  1  0
 13 29  1  0
M  END
$$$$

     RDKit          3D

 29 29  0  0  0  0  0  0  0  0999 V2000
   -3.3325    1.3390    0.5592 C   0  0  0  0  0  0  0  0  0  0  0  0
   -3.3913   -0.1467    0.4074 C   0  0  0  0  0  0  0  0  0  0  0  0
   -2.0172   -0.7495    0.2165 C   0  0  1  0  0  0  0  0  0  0  0  0
   -2.0684   -2.1797    0.0699 N   0  0  0  0  0  0  0  0  0  0  0  0
   -1.3263   -0.1888   -1.0060 C   0  0  0  0  0  0  0  0  0  0  0  0
   -0.0314   -0.8234   -1.0991 N   0  0  0  0  0  0  0  0  0  0  0  0
    1.0426   -0.2509   -0.6680 C   0  0  0  0  0  0  0  0  0  0  0  0
    1.2010    0.9464   -0.0895 N   0  0  0  0  0  0  0  0  0  0  0  0
    2.5042    1.1200    0.1925 C   0  0  0  0  0  0  0  0  0  0  0  0
    3.0426    2.1701    0.7617 N   0  0  0  0  0  0  0  0  0  0  0  0
    3.1473    0.0259   -0.2141 N   0  0  0  0  0  0  0  0  0  0  0  0
    4.5579   -0.2679   -0.1317 C   0  0  0  0  0  0  0  0  0  0  0  0
    2.2619   -0.8199   -0.7425 N   0  0  0  0  0  0  0  0  0  0  0  0
   -3.1369    1.8823   -0.3773 H   0  0  0  0  0  0  0  0  0  0  0  0
   -2.5447    1.5980    1.2960 H   0  0  0  0  0  0  0  0  0  0  0  0
   -4.3049    1.6992    0.9549 H   0  0  0  0  0  0  0  0  0  0  0  0
   -3.8072   -0.5716    1.3448 H   0  0  0  0  0  0  0  0  0  0  0  0
   -4.0369   -0.4719   -0.4201 H   0  0  0  0  0  0  0  0  0  0  0  0
   -1.3585   -0.5228    1.0873 H   0  0  0  0  0  0  0  0  0  0  0  0
   -2.4300   -2.4919   -0.8522 H   0  0  0  0  0  0  0  0  0  0  0  0
   -2.5768   -2.5877    0.8813 H   0  0  0  0  0  0  0  0  0  0  0  0
   -1.8862   -0.4633   -1.9324 H   0  0  0  0  0  0  0  0  0  0  0  0
   -1.2335    0.9047   -0.9158 H   0  0  0  0  0  0  0  0  0  0  0  0
    0.4329    1.6182    0.1024 H   0  0  0  0  0  0  0  0  0  0  0  0
    4.0533    2.2036    0.9336 H   0  0  0  0  0  0  0  0  0  0  0  0
    5.0284   -0.3693   -1.1266 H   0  0  0  0  0  0  0  0  0  0  0  0
    4.6540   -1.2745    0.3590 H   0  0  0  0  0  0  0  0  0  0  0  0
    5.0884    0.4371    0.5209 H   0  0  0  0  0  0  0  0  0  0  0  0
    2.4682   -1.7649   -1.1478 H   0  0  0  0  0  0  0  0  0  0  0  0
  1  2  1  0
  2  3  1  0
  3  4  1  0
  3  5  1  0
  5  6  1  0
  6  7  2  3
  7  8  1  0
  8  9  1  0
  9 10  2  3
  9 11  1  0
 11 12  1  0
 11 13  1  0
 13  7  1  0
  1 14  1  0
  1 15  1  0
  1 16  1  0
  2 17  1  0
  2 18  1  0
  3 19  1  1
  4 20  1  0
  4 21  1  0
  5 22  1  0
  5 23  1  0
  8 24  1  0
 10 25  1  0
 12 26  1  0
 12 27  1  0
 12 28  1  0
 13 29  1  0
M  END
$$$$

     RDKit          3D

 29 29  0  0  0  0  0  0  0  0999 V2000
   -3.0564    1.0409   -0.0304 C   0  0  0  0  0  0  0  0  0  0  0  0
   -3.3448   -0.2924    0.5698 C   0  0  0  0  0  0  0  0  0  0  0  0
   -2.3038   -1.3242    0.3140 C   0  0  1  0  0  0  0  0  0  0  0  0
   -2.0830   -1.6058   -1.0727 N   0  0  0  0  0  0  0  0  0  0  0  0
   -0.9700   -0.9897    0.9469 C   0  0  0  0  0  0  0  0  0  0  0  0
   -0.4959    0.2640    0.4077 N   0  0  0  0  0  0  0  0  0  0  0  0
    0.7460    0.4988    0.1631 C   0  0  0  0  0  0  0  0  0  0  0  0
    1.2685    1.6271   -0.3340 N   0  0  0  0  0  0  0  0  0  0  0  0
    2.6106    1.4895   -0.4485 C   0  0  0  0  0  0  0  0  0  0  0  0
    3.4121    2.3951   -0.8952 N   0  0  0  0  0  0  0  0  0  0  0  0
    2.9128    0.2544   -0.0133 N   0  0  0  0  0  0  0  0  0  0  0  0
    4.2521   -0.3096    0.0358 C   0  0  0  0  0  0  0  0  0  0  0  0
    1.7771   -0.3377    0.3549 N   0  0  0  0  0  0  0  0  0  0  0  0
   -2.4392    1.6997    0.6248 H   0  0  0  0  0  0  0  0  0  0  0  0
   -4.0472    1.5496   -0.1961 H   0  0  0  0  0  0  0  0  0  0  0  0
   -2.5898    0.9963   -1.0383 H   0  0  0  0  0  0  0  0  0  0  0  0
   -3.4421   -0.1699    1.6714 H   0  0  0  0  0  0  0  0  0  0  0  0
   -4.3093   -0.6713    0.1811 H   0  0  0  0  0  0  0  0  0  0  0  0
   -2.6434   -2.2738    0.7936 H   0  0  0  0  0  0  0  0  0  0  0  0
   -1.8491   -0.8003   -1.6590 H   0  0  0  0  0  0  0  0  0  0  0  0
   -2.7782   -2.2656   -1.4671 H   0  0  0  0  0  0  0  0  0  0  0  0
   -1.0423   -0.9591    2.0560 H   0  0  0  0  0  0  0  0  0  0  0  0
   -0.2316   -1.7774    0.6970 H   0  0  0  0  0  0  0  0  0  0  0  0
    0.7394    2.4839   -0.5962 H   0  0  0  0  0  0  0  0  0  0  0  0
    4.4302    2.2468   -0.9653 H   0  0  0  0  0  0  0  0  0  0  0  0
    4.6449   -0.4546   -0.9975 H   0  0  0  0  0  0  0  0  0  0  0  0
    4.9018    0.3154    0.6566 H   0  0  0  0  0  0  0  0  0  0  0  0
    4.1782   -1.3266    0.4937 H   0  0  0  0  0  0  0  0  0  0  0  0
    1.7523   -1.3037    0.7280 H   0  0  0  0  0  0  0  0  0  0  0  0
  1  2  1  0
  2  3  1  0
  3  4  1  0
  3  5  1  0
  5  6  1  0
  6  7  2  3
  7  8  1  0
  8  9  1  0
  9 10  2  3
  9 11  1  0
 11 12  1  0
 11 13  1  0
 13  7  1  0
  1 14  1  0
  1 15  1  0
  1 16  1  0
  2 17  1  0
  2 18  1  0
  3 19  1  1
  4 20  1  0
  4 21  1  0
  5 22  1  0
  5 23  1  0
  8 24  1  0
 10 25  1  0
 12 26  1  0
 12 27  1  0
 12 28  1  0
 13 29  1  0
M  END
$$$$

     RDKit          3D

 29 29  0  0  0  0  0  0  0  0999 V2000
   -2.9790   -0.6024    1.9529 C   0  0  0  0  0  0  0  0  0  0  0  0
   -3.5233   -0.1435    0.6227 C   0  0  0  0  0  0  0  0  0  0  0  0
   -2.4582   -0.4051   -0.4414 C   0  0  1  0  0  0  0  0  0  0  0  0
   -2.8886    0.0015   -1.7459 N   0  0  0  0  0  0  0  0  0  0  0  0
   -1.2477    0.4482   -0.0643 C   0  0  0  0  0  0  0  0  0  0  0  0
   -0.1827    0.2656   -1.0195 N   0  0  0  0  0  0  0  0  0  0  0  0
    1.0265    0.1591   -0.6064 C   0  0  0  0  0  0  0  0  0  0  0  0
    1.5309    0.1866    0.6335 N   0  0  0  0  0  0  0  0  0  0  0  0
    2.8669    0.0366    0.6094 C   0  0  0  0  0  0  0  0  0  0  0  0
    3.6658    0.0171    1.6376 N   0  0  0  0  0  0  0  0  0  0  0  0
    3.2029   -0.0872   -0.6743 N   0  0  0  0  0  0  0  0  0  0  0  0
    4.5778   -0.2706   -1.1315 C   0  0  0  0  0  0  0  0  0  0  0  0
    2.1124   -0.0158   -1.4127 N   0  0  0  0  0  0  0  0  0  0  0  0
   -2.5317    0.2855    2.4734 H   0  0  0  0  0  0  0  0  0  0  0  0
   -3.7600   -1.0469    2.6085 H   0  0  0  0  0  0  0  0  0  0  0  0
   -2.1240   -1.3160    1.8080 H   0  0  0  0  0  0  0  0  0  0  0  0
   -3.8328    0.9135    0.6217 H   0  0  0  0  0  0  0  0  0  0  0  0
   -4.3926   -0.7947    0.3275 H   0  0  0  0  0  0  0  0  0  0  0  0
   -2.1708   -1.4538   -0.4768 H   0  0  0  0  0  0  0  0  0  0  0  0
   -2.0913    0.2438   -2.3481 H   0  0  0  0  0  0  0  0  0  0  0  0
   -3.4982   -0.7498   -2.1473 H   0  0  0  0  0  0  0  0  0  0  0  0
   -0.9788    0.1562    0.9630 H   0  0  0  0  0  0  0  0  0  0  0  0
   -1.5334    1.5219   -0.0341 H   0  0  0  0  0  0  0  0  0  0  0  0
    0.9808    0.3067    1.5094 H   0  0  0  0  0  0  0  0  0  0  0  0
    3.2687    0.1257    2.5953 H   0  0  0  0  0  0  0  0  0  0  0  0
    5.2215    0.5773   -0.7752 H   0  0  0  0  0  0  0  0  0  0  0  0
    5.0105   -1.2229   -0.7713 H   0  0  0  0  0  0  0  0  0  0  0  0
    4.6419   -0.2481   -2.2411 H   0  0  0  0  0  0  0  0  0  0  0  0
    2.0865   -0.0843   -2.4732 H   0  0  0  0  0  0  0  0  0  0  0  0
  1  2  1  0
  2  3  1  0
  3  4  1  0
  3  5  1  0
  5  6  1  0
  6  7  2  3
  7  8  1  0
  8  9  1  0
  9 10  2  3
  9 11  1  0
 11 12  1  0
 11 13  1  0
 13  7  1  0
  1 14  1  0
  1 15  1  0
  1 16  1  0
  2 17  1  0
  2 18  1  0
  3 19  1  6
  4 20  1  0
  4 21  1  0
  5 22  1  0
  5 23  1  0
  8 24  1  0
 10 25  1  0
 12 26  1  0
 12 27  1  0
 12 28  1  0
 13 29  1  0
M  END
$$$$
