
     RDKit          3D

 30 30  0  0  0  0  0  0  0  0999 V2000
    2.8736   -2.2723   -0.4584 C   0  0  0  0  0  0  0  0  0  0  0  0
    2.2119   -1.0749   -0.7070 O   0  0  0  0  0  0  0  0  0  0  0  0
    1.7078   -0.4982    0.4409 C   0  0  1  0  0  0  0  0  0  0  0  0
    2.4318    0.7986    0.7804 C   0  0  0  0  0  0  0  0  0  0  0  0
    2.3204    1.7667   -0.2852 N   0  0  0  0  0  0  0  0  0  0  0  0
    0.2311   -0.3249    0.4734 C   0  0  0  0  0  0  0  0  0  0  0  0
   -0.3350    0.4931   -0.5460 N   0  0  0  0  0  0  0  0  0  0  0  0
   -1.7968    0.4791   -0.3461 C   0  0  0  0  0  0  0  0  0  0  0  0
   -2.4154   -0.8531   -0.5143 C   0  0  0  0  0  0  0  0  0  0  0  0
   -3.7049   -1.1517    0.0213 N   0  0  0  0  0  0  0  0  0  0  0  0
   -1.8445   -1.7843   -1.1331 O   0  0  0  0  0  0  0  0  0  0  0  0
   -2.5200    1.7317   -0.6120 C   0  0  0  0  0  0  0  0  0  0  0  0
   -2.3668    1.2589    0.8178 C   0  0  0  0  0  0  0  0  0  0  0  0
    3.7372   -2.0753    0.2411 H   0  0  0  0  0  0  0  0  0  0  0  0
    2.2220   -3.0309    0.0208 H   0  0  0  0  0  0  0  0  0  0  0  0
    3.3210   -2.6947   -1.3714 H   0  0  0  0  0  0  0  0  0  0  0  0
    1.9997   -1.1968    1.2887 H   0  0  0  0  0  0  0  0  0  0  0  0
    2.0474    1.2290    1.7295 H   0  0  0  0  0  0  0  0  0  0  0  0
    3.5206    0.6086    0.9641 H   0  0  0  0  0  0  0  0  0  0  0  0
    2.2932    1.3069   -1.2273 H   0  0  0  0  0  0  0  0  0  0  0  0
    3.2007    2.3638   -0.2830 H   0  0  0  0  0  0  0  0  0  0  0  0
   -0.0485    0.1526    1.4490 H   0  0  0  0  0  0  0  0  0  0  0  0
   -0.2577   -1.3266    0.4978 H   0  0  0  0  0  0  0  0  0  0  0  0
    0.0073    1.4812   -0.5190 H   0  0  0  0  0  0  0  0  0  0  0  0
   -4.5701   -0.9017   -0.4841 H   0  0  0  0  0  0  0  0  0  0  0  0
   -3.7587   -1.6328    0.9454 H   0  0  0  0  0  0  0  0  0  0  0  0
   -1.9438    2.6259   -0.9497 H   0  0  0  0  0  0  0  0  0  0  0  0
   -3.5664    1.7600   -0.9644 H   0  0  0  0  0  0  0  0  0  0  0  0
   -3.2667    0.8721    1.3424 H   0  0  0  0  0  0  0  0  0  0  0  0
   -1.7305    1.8899    1.4344 H   0  0  0  0  0  0  0  0  0  0  0  0
  1  2  1  0
  2  3  1  0
  3  4  1  0
  4  5  1  0
  3  6  1  0
  6  7  1  0
  7  8  1  0
  8  9  1  0
  9 10  1  0
  9 11  2  0
  8 12  1  0
 12 13  1  0
 13  8  1  0
  1 14  1  0
  1 15  1  0
  1 16  1  0
  3 17  1  1
  4 18  1  0
  4 19  1  0
  5 20  1  0
  5 21  1  0
  6 22  1  0
  6 23  1  0
  7 24  1  0
 10 25  1  0
 10 26  1  0
 12 27  1  0
 12 28  1  0
 13 29  1  0
 13 30  1  0
M  END
$$$$

     RDKit          3D

 30 30  0  0  0  0  0  0  0  0999 V2000
   -2.0434    0.6400    2.1297 C   0  0  0  0  0  0  0  0  0  0  0  0
   -1.6489    1.0625    0.8692 O   0  0  0  0  0  0  0  0  0  0  0  0
   -1.5891    0.0758   -0.0738 C   0  0  1  0  0  0  0  0  0  0  0  0
   -2.4610    0.3109   -1.2842 C   0  0  0  0  0  0  0  0  0  0  0  0
   -3.8570    0.4310   -0.9676 N   0  0  0  0  0  0  0  0  0  0  0  0
   -0.1685   -0.0643   -0.6089 C   0  0  0  0  0  0  0  0  0  0  0  0
    0.7324   -0.4090    0.4252 N   0  0  0  0  0  0  0  0  0  0  0  0
    2.1087   -0.5591    0.0708 C   0  0  0  0  0  0  0  0  0  0  0  0
    2.7837    0.6788   -0.3911 C   0  0  0  0  0  0  0  0  0  0  0  0
    2.0893    1.8996   -0.4099 N   0  0  0  0  0  0  0  0  0  0  0  0
    3.9925    0.6186   -0.7655 O   0  0  0  0  0  0  0  0  0  0  0  0
    2.9334   -1.4370    0.9571 C   0  0  0  0  0  0  0  0  0  0  0  0
    2.6161   -1.8614   -0.4473 C   0  0  0  0  0  0  0  0  0  0  0  0
   -2.0785    1.4744    2.8580 H   0  0  0  0  0  0  0  0  0  0  0  0
   -1.3263   -0.1215    2.4841 H   0  0  0  0  0  0  0  0  0  0  0  0
   -3.0880    0.2284    2.0274 H   0  0  0  0  0  0  0  0  0  0  0  0
   -1.8727   -0.8817    0.4007 H   0  0  0  0  0  0  0  0  0  0  0  0
   -2.0611    1.1407   -1.8698 H   0  0  0  0  0  0  0  0  0  0  0  0
   -2.3590   -0.6084   -1.9128 H   0  0  0  0  0  0  0  0  0  0  0  0
   -4.1540   -0.1591   -0.1722 H   0  0  0  0  0  0  0  0  0  0  0  0
   -4.1643    1.4274   -0.8767 H   0  0  0  0  0  0  0  0  0  0  0  0
   -0.1804   -0.7871   -1.4608 H   0  0  0  0  0  0  0  0  0  0  0  0
    0.0991    0.9180   -1.0346 H   0  0  0  0  0  0  0  0  0  0  0  0
    0.3922   -1.0870    1.1330 H   0  0  0  0  0  0  0  0  0  0  0  0
    1.6181    2.2714    0.4517 H   0  0  0  0  0  0  0  0  0  0  0  0
    2.0147    2.4777   -1.2660 H   0  0  0  0  0  0  0  0  0  0  0  0
    3.9792   -1.1627    1.2040 H   0  0  0  0  0  0  0  0  0  0  0  0
    2.4107   -1.9757    1.8000 H   0  0  0  0  0  0  0  0  0  0  0  0
    1.8772   -2.6824   -0.5809 H   0  0  0  0  0  0  0  0  0  0  0  0
    3.4051   -1.8587   -1.2027 H   0  0  0  0  0  0  0  0  0  0  0  0
  1  2  1  0
  2  3  1  0
  3  4  1  0
  4  5  1  0
  3  6  1  0
  6  7  1  0
  7  8  1  0
  8  9  1  0
  9 10  1  0
  9 11  2  0
  8 12  1  0
 12 13  1  0
 13  8  1  0
  1 14  1  0
  1 15  1  0
  1 16  1  0
  3 17  1  1
  4 18  1  0
  4 19  1  0
  5 20  1  0
  5 21  1  0
  6 22  1  0
  6 23  1  0
  7 24  1  0
 10 25  1  0
 10 26  1  0
 12 27  1  0
 12 28  1  0
 13 29  1  0
 13 30  1  0
M  END
$$$$

     RDKit          3D

 30 30  0  0  0  0  0  0  0  0999 V2000
    2.2163   -1.7576   -0.6292 C   0  0  0  0  0  0  0  0  0  0  0  0
    1.7364   -0.4765   -0.8918 O   0  0  0  0  0  0  0  0  0  0  0  0
    1.5625    0.2787    0.2880 C   0  0  1  0  0  0  0  0  0  0  0  0
    2.3402    1.5648    0.1842 C   0  0  0  0  0  0  0  0  0  0  0  0
    3.7430    1.3893   -0.0036 N   0  0  0  0  0  0  0  0  0  0  0  0
    0.0670    0.5889    0.3087 C   0  0  0  0  0  0  0  0  0  0  0  0
   -0.7252   -0.6080    0.3902 N   0  0  0  0  0  0  0  0  0  0  0  0
   -2.1182   -0.2805    0.2613 C   0  0  0  0  0  0  0  0  0  0  0  0
   -2.4728    0.2458   -1.0785 C   0  0  0  0  0  0  0  0  0  0  0  0
   -1.6140    0.3442   -2.1802 N   0  0  0  0  0  0  0  0  0  0  0  0
   -3.6887    0.6319   -1.1942 O   0  0  0  0  0  0  0  0  0  0  0  0
   -2.8618    0.1425    1.4657 C   0  0  0  0  0  0  0  0  0  0  0  0
   -3.1775   -1.1934    0.8598 C   0  0  0  0  0  0  0  0  0  0  0  0
    2.3134   -2.2457   -1.6432 H   0  0  0  0  0  0  0  0  0  0  0  0
    3.2063   -1.7907   -0.1749 H   0  0  0  0  0  0  0  0  0  0  0  0
    1.4758   -2.3651   -0.0697 H   0  0  0  0  0  0  0  0  0  0  0  0
    1.8648   -0.3012    1.1633 H   0  0  0  0  0  0  0  0  0  0  0  0
    1.8908    2.2460   -0.5750 H   0  0  0  0  0  0  0  0  0  0  0  0
    2.2240    2.0743    1.1940 H   0  0  0  0  0  0  0  0  0  0  0  0
    4.2250    1.2583    0.8855 H   0  0  0  0  0  0  0  0  0  0  0  0
    4.0200    0.7675   -0.7774 H   0  0  0  0  0  0  0  0  0  0  0  0
   -0.2289    1.2608   -0.4905 H   0  0  0  0  0  0  0  0  0  0  0  0
   -0.1235    1.1456    1.2735 H   0  0  0  0  0  0  0  0  0  0  0  0
   -0.4797   -1.2438    1.1575 H   0  0  0  0  0  0  0  0  0  0  0  0
   -1.2914    1.2165   -2.6331 H   0  0  0  0  0  0  0  0  0  0  0  0
   -1.2403   -0.5565   -2.6124 H   0  0  0  0  0  0  0  0  0  0  0  0
   -3.6213    0.9569    1.4200 H   0  0  0  0  0  0  0  0  0  0  0  0
   -2.3325    0.0940    2.4361 H   0  0  0  0  0  0  0  0  0  0  0  0
   -2.7611   -2.1186    1.3012 H   0  0  0  0  0  0  0  0  0  0  0  0
   -4.1487   -1.2683    0.3648 H   0  0  0  0  0  0  0  0  0  0  0  0
  1  2  1  0
  2  3  1  0
  3  4  1  0
  4  5  1  0
  3  6  1  0
  6  7  1  0
  7  8  1  0
  8  9  1  0
  9 10  1  0
  9 11  2  0
  8 12  1  0
 12 13  1  0
 13  8  1  0
  1 14  1  0
  1 15  1  0
  1 16  1  0
  3 17  1  1
  4 18  1  0
  4 19  1  0
  5 20  1  0
  5 21  1  0
  6 22  1  0
  6 23  1  0
  7 24  1  0
 10 25  1  0
 10 26  1  0
 12 27  1  0
 12 28  1  0
 13 29  1  0
 13 30  1  0
M  END
$$$$

     RDKit          3D

 30 30  0  0  0  0  0  0  0  0999 V2000
   -3.1110    0.2677   -2.1372 C   0  0  0  0  0  0  0  0  0  0  0  0
   -2.0722   -0.5609   -1.7346 O   0  0  0  0  0  0  0  0  0  0  0  0
   -1.6155   -0.2506   -0.4555 C   0  0  1  0  0  0  0  0  0  0  0  0
   -1.8316   -1.4070    0.4911 C   0  0  0  0  0  0  0  0  0  0  0  0
   -3.2891   -1.6339    0.4841 N   0  0  0  0  0  0  0  0  0  0  0  0
   -0.1760    0.1959   -0.5570 C   0  0  0  0  0  0  0  0  0  0  0  0
    0.4093    0.5499    0.6933 N   0  0  0  0  0  0  0  0  0  0  0  0
    1.7643    0.9889    0.6419 C   0  0  0  0  0  0  0  0  0  0  0  0
    2.6984   -0.0759    0.1380 C   0  0  0  0  0  0  0  0  0  0  0  0
    3.9808    0.2932   -0.3414 N   0  0  0  0  0  0  0  0  0  0  0  0
    2.3925   -1.2890    0.1218 O   0  0  0  0  0  0  0  0  0  0  0  0
    2.2142    2.3578    0.5460 C   0  0  0  0  0  0  0  0  0  0  0  0
    2.2148    1.7206    1.9202 C   0  0  0  0  0  0  0  0  0  0  0  0
   -2.8096    1.3325   -2.1573 H   0  0  0  0  0  0  0  0  0  0  0  0
   -4.0122    0.1796   -1.5269 H   0  0  0  0  0  0  0  0  0  0  0  0
   -3.3451   -0.0078   -3.1914 H   0  0  0  0  0  0  0  0  0  0  0  0
   -2.2149    0.5975   -0.0857 H   0  0  0  0  0  0  0  0  0  0  0  0
   -1.4913   -1.1916    1.5057 H   0  0  0  0  0  0  0  0  0  0  0  0
   -1.3866   -2.3467    0.1049 H   0  0  0  0  0  0  0  0  0  0  0  0
   -3.7707   -0.9349    1.0848 H   0  0  0  0  0  0  0  0  0  0  0  0
   -3.4763   -2.5801    0.8709 H   0  0  0  0  0  0  0  0  0  0  0  0
    0.4347   -0.6547   -0.9826 H   0  0  0  0  0  0  0  0  0  0  0  0
   -0.1426    0.9834   -1.3195 H   0  0  0  0  0  0  0  0  0  0  0  0
    0.2641   -0.2060    1.3986 H   0  0  0  0  0  0  0  0  0  0  0  0
    4.7398    0.5549    0.3175 H   0  0  0  0  0  0  0  0  0  0  0  0
    4.1936    0.3119   -1.3575 H   0  0  0  0  0  0  0  0  0  0  0  0
    1.5684    3.2366    0.3757 H   0  0  0  0  0  0  0  0  0  0  0  0
    3.2533    2.5314    0.1602 H   0  0  0  0  0  0  0  0  0  0  0  0
    3.1593    1.3546    2.3567 H   0  0  0  0  0  0  0  0  0  0  0  0
    1.4573    2.0392    2.6348 H   0  0  0  0  0  0  0  0  0  0  0  0
  1  2  1  0
  2  3  1  0
  3  4  1  0
  4  5  1  0
  3  6  1  0
  6  7  1  0
  7  8  1  0
  8  9  1  0
  9 10  1  0
  9 11  2  0
  8 12  1  0
 12 13  1  0
 13  8  1  0
  1 14  1  0
  1 15  1  0
  1 16  1  0
  3 17  1  1
  4 18  1  0
  4 19  1  0
  5 20  1  0
  5 21  1  0
  6 22  1  0
  6 23  1  0
  7 24  1  0
 10 25  1  0
 10 26  1  0
 12 27  1  0
 12 28  1  0
 13 29  1  0
 13 30  1  0
M  END
$$$$

     RDKit          3D

 30 30  0  0  0  0  0  0  0  0999 V2000
   -2.3449   -2.3720    0.2311 C   0  0  0  0  0  0  0  0  0  0  0  0
   -2.0007   -1.1221    0.7251 O   0  0  0  0  0  0  0  0  0  0  0  0
   -1.6230   -0.2224   -0.2667 C   0  0  1  0  0  0  0  0  0  0  0  0
   -2.6146    0.9434   -0.1291 C   0  0  0  0  0  0  0  0  0  0  0  0
   -2.3272    1.9534   -1.1257 N   0  0  0  0  0  0  0  0  0  0  0  0
   -0.2530    0.3877    0.0435 C   0  0  0  0  0  0  0  0  0  0  0  0
    0.7631   -0.5968    0.1288 N   0  0  0  0  0  0  0  0  0  0  0  0
    2.0257   -0.0649    0.5010 C   0  0  0  0  0  0  0  0  0  0  0  0
    2.6637    0.8690   -0.4429 C   0  0  0  0  0  0  0  0  0  0  0  0
    2.0674    1.1539   -1.6790 N   0  0  0  0  0  0  0  0  0  0  0  0
    3.7578    1.4286   -0.1612 O   0  0  0  0  0  0  0  0  0  0  0  0
    3.0653   -0.9980    1.1259 C   0  0  0  0  0  0  0  0  0  0  0  0
    2.3396    0.0380    1.9539 C   0  0  0  0  0  0  0  0  0  0  0  0
   -3.2135   -2.2093   -0.4696 H   0  0  0  0  0  0  0  0  0  0  0  0
   -2.7862   -2.9420    1.0835 H   0  0  0  0  0  0  0  0  0  0  0  0
   -1.5111   -2.9124   -0.2469 H   0  0  0  0  0  0  0  0  0  0  0  0
   -1.6504   -0.6678   -1.2667 H   0  0  0  0  0  0  0  0  0  0  0  0
   -2.4403    1.4206    0.8698 H   0  0  0  0  0  0  0  0  0  0  0  0
   -3.6570    0.6061   -0.2635 H   0  0  0  0  0  0  0  0  0  0  0  0
   -2.9939    2.7416   -0.9484 H   0  0  0  0  0  0  0  0  0  0  0  0
   -2.6284    1.5330   -2.0514 H   0  0  0  0  0  0  0  0  0  0  0  0
   -0.4027    0.9602    0.9798 H   0  0  0  0  0  0  0  0  0  0  0  0
    0.0066    1.1415   -0.7178 H   0  0  0  0  0  0  0  0  0  0  0  0
    0.7633   -1.2912   -0.6488 H   0  0  0  0  0  0  0  0  0  0  0  0
    1.7841    2.1303   -1.9700 H   0  0  0  0  0  0  0  0  0  0  0  0
    1.8585    0.4135   -2.4104 H   0  0  0  0  0  0  0  0  0  0  0  0
    2.7602   -2.0609    1.1732 H   0  0  0  0  0  0  0  0  0  0  0  0
    4.1346   -0.7815    1.0226 H   0  0  0  0  0  0  0  0  0  0  0  0
    2.8500    0.9277    2.3117 H   0  0  0  0  0  0  0  0  0  0  0  0
    1.6072   -0.4071    2.6483 H   0  0  0  0  0  0  0  0  0  0  0  0
  1  2  1  0
  2  3  1  0
  3  4  1  0
  4  5  1  0
  3  6  1  0
  6  7  1  0
  7  8  1  0
  8  9  1  0
  9 10  1  0
  9 11  2  0
  8 12  1  0
 12 13  1  0
 13  8  1  0
  1 14  1  0
  1 15  1  0
  1 16  1  0
  3 17  1  6
  4 18  1  0
  4 19  1  0
  5 20  1  0
  5 21  1  0
  6 22  1  0
  6 23  1  0
  7 24  1  0
 10 25  1  0
 10 26  1  0
 12 27  1  0
 12 28  1  0
 13 29  1  0
 13 30  1  0
M  END
$$$$

     RDKit          3D

 30 30  0  0  0  0  0  0  0  0999 V2000
   -3.3544   -0.4866   -1.9940 C   0  0  0  0  0  0  0  0  0  0  0  0
   -2.6710   -0.9823   -0.9109 O   0  0  0  0  0  0  0  0  0  0  0  0
   -1.8885   -0.0204   -0.2733 C   0  0  1  0  0  0  0  0  0  0  0  0
   -2.3407    0.0531    1.1515 C   0  0  0  0  0  0  0  0  0  0  0  0
   -1.5761    1.0391    1.8979 N   0  0  0  0  0  0  0  0  0  0  0  0
   -0.4454   -0.4024   -0.3774 C   0  0  0  0  0  0  0  0  0  0  0  0
    0.4286    0.5546    0.2621 N   0  0  0  0  0  0  0  0  0  0  0  0
    1.8194    0.1819    0.1614 C   0  0  0  0  0  0  0  0  0  0  0  0
    2.1846   -1.0884    0.8253 C   0  0  0  0  0  0  0  0  0  0  0  0
    3.3752   -1.8010    0.5258 N   0  0  0  0  0  0  0  0  0  0  0  0
    1.4162   -1.5683    1.6940 O   0  0  0  0  0  0  0  0  0  0  0  0
    2.8222    1.3290    0.3939 C   0  0  0  0  0  0  0  0  0  0  0  0
    2.6643    0.6862   -0.9432 C   0  0  0  0  0  0  0  0  0  0  0  0
   -3.9438   -1.3379   -2.4209 H   0  0  0  0  0  0  0  0  0  0  0  0
   -2.6003   -0.1203   -2.7216 H   0  0  0  0  0  0  0  0  0  0  0  0
   -4.0267    0.3461   -1.7704 H   0  0  0  0  0  0  0  0  0  0  0  0
   -2.0396    0.9250   -0.8394 H   0  0  0  0  0  0  0  0  0  0  0  0
   -3.4048    0.3392    1.2320 H   0  0  0  0  0  0  0  0  0  0  0  0
   -2.2460   -0.9493    1.5909 H   0  0  0  0  0  0  0  0  0  0  0  0
   -1.5552    1.9553    1.4392 H   0  0  0  0  0  0  0  0  0  0  0  0
   -1.9045    1.0787    2.8905 H   0  0  0  0  0  0  0  0  0  0  0  0
   -0.1533   -0.4943   -1.4506 H   0  0  0  0  0  0  0  0  0  0  0  0
   -0.2593   -1.3927    0.0798 H   0  0  0  0  0  0  0  0  0  0  0  0
    0.2556    1.5325   -0.0672 H   0  0  0  0  0  0  0  0  0  0  0  0
    4.1662   -1.2724    0.1118 H   0  0  0  0  0  0  0  0  0  0  0  0
    3.4812   -2.8183    0.7041 H   0  0  0  0  0  0  0  0  0  0  0  0
    2.4066    2.3371    0.5865 H   0  0  0  0  0  0  0  0  0  0  0  0
    3.7292    1.0942    0.9881 H   0  0  0  0  0  0  0  0  0  0  0  0
    2.2064    1.2791   -1.7613 H   0  0  0  0  0  0  0  0  0  0  0  0
    3.4541    0.0037   -1.3103 H   0  0  0  0  0  0  0  0  0  0  0  0
  1  2  1  0
  2  3  1  0
  3  4  1  0
  4  5  1  0
  3  6  1  0
  6  7  1  0
  7  8  1  0
  8  9  1  0
  9 10  1  0
  9 11  2  0
  8 12  1  0
 12 13  1  0
 13  8  1  0
  1 14  1  0
  1 15  1  0
  1 16  1  0
  3 17  1  6
  4 18  1  0
  4 19  1  0
  5 20  1  0
  5 21  1  0
  6 22  1  0
  6 23  1  0
  7 24  1  0
 10 25  1  0
 10 26  1  0
 12 27  1  0
 12 28  1  0
 13 29  1  0
 13 30  1  0
M  END
$$$$

     RDKit          3D

 30 30  0  0  0  0  0  0  0  0999 V2000
    2.9959    1.4619   -1.2627 C   0  0  0  0  0  0  0  0  0  0  0  0
    2.0874    1.1760   -0.2656 O   0  0  0  0  0  0  0  0  0  0  0  0
    1.6696   -0.1203   -0.2532 C   0  0  1  0  0  0  0  0  0  0  0  0
    2.3704   -0.8709    0.9552 C   0  0  0  0  0  0  0  0  0  0  0  0
    1.9565   -0.1496    2.1207 N   0  0  0  0  0  0  0  0  0  0  0  0
    0.2561   -0.2948    0.0386 C   0  0  0  0  0  0  0  0  0  0  0  0
   -0.7382    0.2592   -0.9175 N   0  0  0  0  0  0  0  0  0  0  0  0
   -1.9607   -0.2802   -0.3478 C   0  0  0  0  0  0  0  0  0  0  0  0
   -2.3237    0.3363    0.9672 C   0  0  0  0  0  0  0  0  0  0  0  0
   -2.3401    1.7824    0.9897 N   0  0  0  0  0  0  0  0  0  0  0  0
   -2.6091   -0.3464    1.9741 O   0  0  0  0  0  0  0  0  0  0  0  0
   -2.3953   -1.5993   -0.7726 C   0  0  0  0  0  0  0  0  0  0  0  0
   -3.1330   -0.4299   -1.2553 C   0  0  0  0  0  0  0  0  0  0  0  0
    3.3009    2.5212   -1.2175 H   0  0  0  0  0  0  0  0  0  0  0  0
    3.9084    0.8217   -1.1675 H   0  0  0  0  0  0  0  0  0  0  0  0
    2.4976    1.3025   -2.2601 H   0  0  0  0  0  0  0  0  0  0  0  0
    2.0382   -0.7300   -1.1197 H   0  0  0  0  0  0  0  0  0  0  0  0
    3.4156   -0.9277    0.7420 H   0  0  0  0  0  0  0  0  0  0  0  0
    1.8369   -1.8382    0.9451 H   0  0  0  0  0  0  0  0  0  0  0  0
    2.7779    0.2171    2.6365 H   0  0  0  0  0  0  0  0  0  0  0  0
    1.4198   -0.7128    2.7842 H   0  0  0  0  0  0  0  0  0  0  0  0
   -0.0119    0.2219    1.0119 H   0  0  0  0  0  0  0  0  0  0  0  0
   -0.0072   -1.3883    0.1726 H   0  0  0  0  0  0  0  0  0  0  0  0
   -0.5054   -0.2102   -1.8367 H   0  0  0  0  0  0  0  0  0  0  0  0
   -1.5304    2.3073    0.6449 H   0  0  0  0  0  0  0  0  0  0  0  0
   -3.1835    2.2495    1.3533 H   0  0  0  0  0  0  0  0  0  0  0  0
   -1.7755   -2.1558   -1.5201 H   0  0  0  0  0  0  0  0  0  0  0  0
   -2.8144   -2.2899   -0.0058 H   0  0  0  0  0  0  0  0  0  0  0  0
   -3.0646   -0.0416   -2.2988 H   0  0  0  0  0  0  0  0  0  0  0  0
   -4.1383   -0.2711   -0.8350 H   0  0  0  0  0  0  0  0  0  0  0  0
  1  2  1  0
  2  3  1  0
  3  4  1  0
  4  5  1  0
  3  6  1  0
  6  7  1  0
  7  8  1  0
  8  9  1  0
  9 10  1  0
  9 11  2  0
  8 12  1  0
 12 13  1  0
 13  8  1  0
  1 14  1  0
  1 15  1  0
  1 16  1  0
  3 17  1  6
  4 18  1  0
  4 19  1  0
  5 20  1  0
  5 21  1  0
  6 22  1  0
  6 23  1  0
  7 24  1  0
 10 25  1  0
 10 26  1  0
 12 27  1  0
 12 28  1  0
 13 29  1  0
 13 30  1  0
M  END
$$$$

     RDKit          3D

 30 30  0  0  0  0  0  0  0  0999 V2000
    2.8856    0.8930   -1.0972 C   0  0  0  0  0  0  0  0  0  0  0  0
    1.7784    0.8033   -0.3252 O   0  0  0  0  0  0  0  0  0  0  0  0
    1.4572   -0.3559    0.2958 C   0  0  1  0  0  0  0  0  0  0  0  0
    2.0428   -0.3524    1.7457 C   0  0  0  0  0  0  0  0  0  0  0  0
    3.4984   -0.2466    1.6573 N   0  0  0  0  0  0  0  0  0  0  0  0
   -0.0128   -0.4703    0.4613 C   0  0  0  0  0  0  0  0  0  0  0  0
   -0.6608   -0.4984   -0.7334 N   0  0  0  0  0  0  0  0  0  0  0  0
   -2.0333   -0.1872   -0.8754 C   0  0  0  0  0  0  0  0  0  0  0  0
   -2.9804   -0.9554   -0.0464 C   0  0  0  0  0  0  0  0  0  0  0  0
   -2.8848   -1.0586    1.3873 N   0  0  0  0  0  0  0  0  0  0  0  0
   -3.9346   -1.5590   -0.5792 O   0  0  0  0  0  0  0  0  0  0  0  0
   -2.3045    1.2927   -0.9870 C   0  0  0  0  0  0  0  0  0  0  0  0
   -2.6807    0.3660   -2.1103 C   0  0  0  0  0  0  0  0  0  0  0  0
    3.0872    0.1776   -1.8880 H   0  0  0  0  0  0  0  0  0  0  0  0
    3.7953    1.2576   -0.5052 H   0  0  0  0  0  0  0  0  0  0  0  0
    2.6750    1.8715   -1.7407 H   0  0  0  0  0  0  0  0  0  0  0  0
    1.9685   -1.1784   -0.1653 H   0  0  0  0  0  0  0  0  0  0  0  0
    1.5924    0.4440    2.3185 H   0  0  0  0  0  0  0  0  0  0  0  0
    1.7906   -1.3304    2.1573 H   0  0  0  0  0  0  0  0  0  0  0  0
    3.9679   -0.4633    2.5582 H   0  0  0  0  0  0  0  0  0  0  0  0
    3.9006   -0.7606    0.8356 H   0  0  0  0  0  0  0  0  0  0  0  0
   -0.3372    0.3444    1.1381 H   0  0  0  0  0  0  0  0  0  0  0  0
   -0.2064   -1.4391    1.0703 H   0  0  0  0  0  0  0  0  0  0  0  0
   -0.2348   -1.0897   -1.5205 H   0  0  0  0  0  0  0  0  0  0  0  0
   -2.0364   -1.0220    1.8925 H   0  0  0  0  0  0  0  0  0  0  0  0
   -3.7985   -1.1594    1.9305 H   0  0  0  0  0  0  0  0  0  0  0  0
   -1.4162    1.8946   -1.1792 H   0  0  0  0  0  0  0  0  0  0  0  0
   -3.0788    1.7857   -0.4099 H   0  0  0  0  0  0  0  0  0  0  0  0
   -2.0581    0.3102   -3.0266 H   0  0  0  0  0  0  0  0  0  0  0  0
   -3.7813    0.2507   -2.2585 H   0  0  0  0  0  0  0  0  0  0  0  0
  1  2  1  0
  2  3  1  0
  3  4  1  0
  4  5  1  0
  3  6  1  0
  6  7  1  0
  7  8  1  0
  8  9  1  0
  9 10  1  0
  9 11  2  0
  8 12  1  0
 12 13  1  0
 13  8  1  0
  1 14  1  0
  1 15  1  0
  1 16  1  0
  3 17  1  6
  4 18  1  0
  4 19  1  0
  5 20  1  0
  5 21  1  0
  6 22  1  0
  6 23  1  0
  7 24  1  0
 10 25  1  0
 10 26  1  0
 12 27  1  0
 12 28  1  0
 13 29  1  0
 13 30  1  0
M  END
$$$$
