
     RDKit          3D

 31 32  0  0  0  0  0  0  0  0999 V2000
    3.8488    0.4787   -0.9062 N   0  0  0  0  0  0  0  0  0  0  0  0
    2.6096    0.7197   -0.2810 C   0  0  0  0  0  0  0  0  0  0  0  0
    2.2217    1.9041   -0.2230 O   0  0  0  0  0  0  0  0  0  0  0  0
    1.8346   -0.3917    0.2665 C   0  0  2  0  0  0  0  0  0  0  0  0
    2.6435   -1.6159    0.0974 N   0  0  0  0  0  0  0  0  0  0  0  0
    0.5281   -0.6794   -0.3641 C   0  0  1  0  0  0  0  0  0  0  0  0
   -0.0606   -1.8500    0.3411 N   0  0  0  0  0  0  0  0  0  0  0  0
   -0.6825   -0.8727    1.2161 C   0  0  0  0  0  0  0  0  0  0  0  0
   -0.6991    0.0365   -0.0118 C   0  0  0  0  0  0  0  0  0  0  0  0
   -1.8567   -0.3961   -0.9104 C   0  0  0  0  0  0  0  0  0  0  0  0
   -3.1566    0.1867   -0.3939 C   0  0  0  0  0  0  0  0  0  0  0  0
   -3.0240    1.5729   -0.4331 O   0  0  0  0  0  0  0  0  0  0  0  0
   -2.1512    1.9242    0.6069 C   0  0  0  0  0  0  0  0  0  0  0  0
   -0.7252    1.4861    0.2750 C   0  0  0  0  0  0  0  0  0  0  0  0
    3.8744    0.2565   -1.9151 H   0  0  0  0  0  0  0  0  0  0  0  0
    4.7213    0.5251   -0.3556 H   0  0  0  0  0  0  0  0  0  0  0  0
    1.7802   -0.2620    1.3725 H   0  0  0  0  0  0  0  0  0  0  0  0
    2.3266   -2.1235   -0.7564 H   0  0  0  0  0  0  0  0  0  0  0  0
    2.6274   -2.2008    0.9568 H   0  0  0  0  0  0  0  0  0  0  0  0
    0.6570   -0.9956   -1.4225 H   0  0  0  0  0  0  0  0  0  0  0  0
    0.6223   -2.4838    0.7612 H   0  0  0  0  0  0  0  0  0  0  0  0
   -0.1054   -0.5186    2.0700 H   0  0  0  0  0  0  0  0  0  0  0  0
   -1.7266   -1.1644    1.4909 H   0  0  0  0  0  0  0  0  0  0  0  0
   -1.9297   -1.4967   -0.9041 H   0  0  0  0  0  0  0  0  0  0  0  0
   -1.6682   -0.0686   -1.9533 H   0  0  0  0  0  0  0  0  0  0  0  0
   -3.9566   -0.1755   -1.0709 H   0  0  0  0  0  0  0  0  0  0  0  0
   -3.2870   -0.1557    0.6496 H   0  0  0  0  0  0  0  0  0  0  0  0
   -2.5341    1.4469    1.5252 H   0  0  0  0  0  0  0  0  0  0  0  0
   -2.1665    3.0227    0.7369 H   0  0  0  0  0  0  0  0  0  0  0  0
   -0.1285    1.7782    1.1573 H   0  0  0  0  0  0  0  0  0  0  0  0
   -0.4367    2.1125   -0.5846 H   0  0  0  0  0  0  0  0  0  0  0  0
  1  2  1  0
  2  3  2  0
  2  4  1  0
  4  5  1  0
  4  6  1  0
  6  7  1  0
  7  8  1  0
  8  9  1  0
  9 10  1  0
 10 11  1  0
 11 12  1  0
 12 13  1  0
 13 14  1  0
  9  6  1  0
 14  9  1  0
  1 15  1  0
  1 16  1  0
  4 17  1  1
  5 18  1  0
  5 19  1  0
  6 20  1  6
  7 21  1  0
  8 22  1  0
  8 23  1  0
 10 24  1  0
 10 25  1  0
 11 26  1  0
 11 27  1  0
 13 28  1  0
 13 29  1  0
 14 30  1  0
 14 31  1  0
M  END
$$$$

     RDKit          3D

 31 32  0  0  0  0  0  0  0  0999 V2000
    3.5330    1.0487    0.4405 N   0  0  0  0  0  0  0  0  0  0  0  0
    2.1195    0.9953    0.4517 C   0  0  0  0  0  0  0  0  0  0  0  0
    1.5336    1.9818   -0.0609 O   0  0  0  0  0  0  0  0  0  0  0  0
    1.4419   -0.1775    1.0454 C   0  0  2  0  0  0  0  0  0  0  0  0
    2.4399   -1.0699    1.6178 N   0  0  0  0  0  0  0  0  0  0  0  0
    0.6359   -0.8692   -0.0243 C   0  0  1  0  0  0  0  0  0  0  0  0
   -0.0701   -2.0640    0.4936 N   0  0  0  0  0  0  0  0  0  0  0  0
   -1.0383   -1.8189   -0.5501 C   0  0  0  0  0  0  0  0  0  0  0  0
   -0.6974   -0.3277   -0.3716 C   0  0  0  0  0  0  0  0  0  0  0  0
   -0.8540    0.4596   -1.6433 C   0  0  0  0  0  0  0  0  0  0  0  0
   -1.6601    1.6988   -1.3211 C   0  0  0  0  0  0  0  0  0  0  0  0
   -2.9450    1.3674   -0.8725 O   0  0  0  0  0  0  0  0  0  0  0  0
   -2.9247    0.4982    0.1913 C   0  0  0  0  0  0  0  0  0  0  0  0
   -1.5371    0.2376    0.7233 C   0  0  0  0  0  0  0  0  0  0  0  0
    4.0862    0.2112    0.2079 H   0  0  0  0  0  0  0  0  0  0  0  0
    4.0106    1.9326    0.6668 H   0  0  0  0  0  0  0  0  0  0  0  0
    0.7559    0.1397    1.8501 H   0  0  0  0  0  0  0  0  0  0  0  0
    3.0356   -1.4997    0.8761 H   0  0  0  0  0  0  0  0  0  0  0  0
    3.0739   -0.4635    2.1964 H   0  0  0  0  0  0  0  0  0  0  0  0
    1.1970   -1.1711   -0.9210 H   0  0  0  0  0  0  0  0  0  0  0  0
    0.4551   -2.9427    0.3578 H   0  0  0  0  0  0  0  0  0  0  0  0
   -2.0683   -2.0847   -0.3343 H   0  0  0  0  0  0  0  0  0  0  0  0
   -0.6259   -2.1427   -1.5252 H   0  0  0  0  0  0  0  0  0  0  0  0
   -1.3882   -0.1851   -2.3875 H   0  0  0  0  0  0  0  0  0  0  0  0
    0.1192    0.7935   -2.0447 H   0  0  0  0  0  0  0  0  0  0  0  0
   -1.1587    2.2047   -0.4725 H   0  0  0  0  0  0  0  0  0  0  0  0
   -1.7657    2.3712   -2.1899 H   0  0  0  0  0  0  0  0  0  0  0  0
   -3.3242   -0.4887   -0.1626 H   0  0  0  0  0  0  0  0  0  0  0  0
   -3.6231    0.8093    1.0035 H   0  0  0  0  0  0  0  0  0  0  0  0
   -1.0993    1.1060    1.2426 H   0  0  0  0  0  0  0  0  0  0  0  0
   -1.6570   -0.5502    1.5166 H   0  0  0  0  0  0  0  0  0  0  0  0
  1  2  1  0
  2  3  2  0
  2  4  1  0
  4  5  1  0
  4  6  1  0
  6  7  1  0
  7  8  1  0
  8  9  1  0
  9 10  1  0
 10 11  1  0
 11 12  1  0
 12 13  1  0
 13 14  1  0
  9  6  1  0
 14  9  1  0
  1 15  1  0
  1 16  1  0
  4 17  1  1
  5 18  1  0
  5 19  1  0
  6 20  1  6
  7 21  1  0
  8 22  1  0
  8 23  1  0
 10 24  1  0
 10 25  1  0
 11 26  1  0
 11 27  1  0
 13 28  1  0
 13 29  1  0
 14 30  1  0
 14 31  1  0
M  END
$$$$

     RDKit          3D

 31 32  0  0  0  0  0  0  0  0999 V2000
   -4.0159    0.0329   -0.4835 N   0  0  0  0  0  0  0  0  0  0  0  0
   -2.8456    0.4887   -1.1166 C   0  0  0  0  0  0  0  0  0  0  0  0
   -2.8966    1.5761   -1.7849 O   0  0  0  0  0  0  0  0  0  0  0  0
   -1.5358   -0.2295   -1.0533 C   0  0  2  0  0  0  0  0  0  0  0  0
   -1.7124   -1.4213   -0.2521 N   0  0  0  0  0  0  0  0  0  0  0  0
   -0.5481    0.6921   -0.4177 C   0  0  1  0  0  0  0  0  0  0  0  0
   -0.9863    1.0520    0.9232 N   0  0  0  0  0  0  0  0  0  0  0  0
    0.0453    0.1845    1.4943 C   0  0  0  0  0  0  0  0  0  0  0  0
    0.6875    0.1349    0.1448 C   0  0  0  0  0  0  0  0  0  0  0  0
    1.1930   -1.1718   -0.3282 C   0  0  0  0  0  0  0  0  0  0  0  0
    2.5619   -0.9713   -0.9853 C   0  0  0  0  0  0  0  0  0  0  0  0
    3.5055   -0.5234   -0.0717 O   0  0  0  0  0  0  0  0  0  0  0  0
    3.0332    0.5233    0.7127 C   0  0  0  0  0  0  0  0  0  0  0  0
    1.8288    1.1530    0.0721 C   0  0  0  0  0  0  0  0  0  0  0  0
   -4.1960   -0.9806   -0.2629 H   0  0  0  0  0  0  0  0  0  0  0  0
   -4.7659    0.6984   -0.2030 H   0  0  0  0  0  0  0  0  0  0  0  0
   -1.2759   -0.5516   -2.0680 H   0  0  0  0  0  0  0  0  0  0  0  0
   -2.3323   -1.1530    0.5547 H   0  0  0  0  0  0  0  0  0  0  0  0
   -2.1824   -2.1783   -0.8043 H   0  0  0  0  0  0  0  0  0  0  0  0
   -0.4025    1.6124   -1.0287 H   0  0  0  0  0  0  0  0  0  0  0  0
   -0.8575    2.0525    1.1526 H   0  0  0  0  0  0  0  0  0  0  0  0
    0.6440    0.7414    2.2634 H   0  0  0  0  0  0  0  0  0  0  0  0
   -0.3747   -0.7516    1.8865 H   0  0  0  0  0  0  0  0  0  0  0  0
    1.3781   -1.8353    0.5429 H   0  0  0  0  0  0  0  0  0  0  0  0
    0.5774   -1.7010   -1.0520 H   0  0  0  0  0  0  0  0  0  0  0  0
    2.4974   -0.3419   -1.8726 H   0  0  0  0  0  0  0  0  0  0  0  0
    2.8920   -1.9782   -1.3168 H   0  0  0  0  0  0  0  0  0  0  0  0
    3.8093    1.2991    0.9004 H   0  0  0  0  0  0  0  0  0  0  0  0
    2.7450    0.0909    1.6940 H   0  0  0  0  0  0  0  0  0  0  0  0
    2.0261    1.4367   -0.9742 H   0  0  0  0  0  0  0  0  0  0  0  0
    1.5033    2.0199    0.6816 H   0  0  0  0  0  0  0  0  0  0  0  0
  1  2  1  0
  2  3  2  0
  2  4  1  0
  4  5  1  0
  4  6  1  0
  6  7  1  0
  7  8  1  0
  8  9  1  0
  9 10  1  0
 10 11  1  0
 11 12  1  0
 12 13  1  0
 13 14  1  0
  9  6  1  0
 14  9  1  0
  1 15  1  0
  1 16  1  0
  4 17  1  6
  5 18  1  0
  5 19  1  0
  6 20  1  6
  7 21  1  0
  8 22  1  0
  8 23  1  0
 10 24  1  0
 10 25  1  0
 11 26  1  0
 11 27  1  0
 13 28  1  0
 13 29  1  0
 14 30  1  0
 14 31  1  0
M  END
$$$$

     RDKit          3D

 31 32  0  0  0  0  0  0  0  0999 V2000
    3.4514   -0.0270   -1.6255 N   0  0  0  0  0  0  0  0  0  0  0  0
    2.1520    0.3291   -1.2067 C   0  0  0  0  0  0  0  0  0  0  0  0
    1.2684    0.5586   -2.0619 O   0  0  0  0  0  0  0  0  0  0  0  0
    1.8300    0.4319    0.2162 C   0  0  2  0  0  0  0  0  0  0  0  0
    3.0207    0.1180    0.9822 N   0  0  0  0  0  0  0  0  0  0  0  0
    0.7485   -0.5038    0.6648 C   0  0  1  0  0  0  0  0  0  0  0  0
    0.5130   -0.3108    2.1036 N   0  0  0  0  0  0  0  0  0  0  0  0
   -0.8841   -0.6076    1.8514 C   0  0  0  0  0  0  0  0  0  0  0  0
   -0.6449   -0.1558    0.4042 C   0  0  0  0  0  0  0  0  0  0  0  0
   -1.0450    1.2542    0.1934 C   0  0  0  0  0  0  0  0  0  0  0  0
   -2.2807    1.2575   -0.7122 C   0  0  0  0  0  0  0  0  0  0  0  0
   -3.2755    0.4352   -0.2423 O   0  0  0  0  0  0  0  0  0  0  0  0
   -2.9049   -0.8727   -0.0664 C   0  0  0  0  0  0  0  0  0  0  0  0
   -1.4467   -1.0506   -0.5128 C   0  0  0  0  0  0  0  0  0  0  0  0
    4.3299    0.2718   -1.1140 H   0  0  0  0  0  0  0  0  0  0  0  0
    3.6473   -0.6195   -2.4822 H   0  0  0  0  0  0  0  0  0  0  0  0
    1.5882    1.5032    0.4780 H   0  0  0  0  0  0  0  0  0  0  0  0
    3.5271   -0.6841    0.5009 H   0  0  0  0  0  0  0  0  0  0  0  0
    2.7502   -0.2940    1.9246 H   0  0  0  0  0  0  0  0  0  0  0  0
    1.0025   -1.5408    0.4495 H   0  0  0  0  0  0  0  0  0  0  0  0
    0.6019    0.7021    2.3686 H   0  0  0  0  0  0  0  0  0  0  0  0
   -1.0818   -1.6903    1.9557 H   0  0  0  0  0  0  0  0  0  0  0  0
   -1.6001    0.0548    2.3938 H   0  0  0  0  0  0  0  0  0  0  0  0
   -0.2954    1.9102   -0.2480 H   0  0  0  0  0  0  0  0  0  0  0  0
   -1.3753    1.7268    1.1476 H   0  0  0  0  0  0  0  0  0  0  0  0
   -2.0161    1.0857   -1.7678 H   0  0  0  0  0  0  0  0  0  0  0  0
   -2.6872    2.3087   -0.6749 H   0  0  0  0  0  0  0  0  0  0  0  0
   -3.5668   -1.6170   -0.5096 H   0  0  0  0  0  0  0  0  0  0  0  0
   -2.8754   -1.0541    1.0484 H   0  0  0  0  0  0  0  0  0  0  0  0
   -1.3068   -0.8169   -1.5676 H   0  0  0  0  0  0  0  0  0  0  0  0
   -1.1445   -2.1028   -0.2883 H   0  0  0  0  0  0  0  0  0  0  0  0
  1  2  1  0
  2  3  2  0
  2  4  1  0
  4  5  1  0
  4  6  1  0
  6  7  1  0
  7  8  1  0
  8  9  1  0
  9 10  1  0
 10 11  1  0
 11 12  1  0
 12 13  1  0
 13 14  1  0
  9  6  1  0
 14  9  1  0
  1 15  1  0
  1 16  1  0
  4 17  1  6
  5 18  1  0
  5 19  1  0
  6 20  1  1
  7 21  1  0
  8 22  1  0
  8 23  1  0
 10 24  1  0
 10 25  1  0
 11 26  1  0
 11 27  1  0
 13 28  1  0
 13 29  1  0
 14 30  1  0
 14 31  1  0
M  END
$$$$

     RDKit          3D

 31 32  0  0  0  0  0  0  0  0999 V2000
    2.1080    2.2370   -0.0516 N   0  0  0  0  0  0  0  0  0  0  0  0
    2.6617    0.9483   -0.2521 C   0  0  0  0  0  0  0  0  0  0  0  0
    3.8310    0.9706   -0.7745 O   0  0  0  0  0  0  0  0  0  0  0  0
    2.0096   -0.2979    0.0846 C   0  0  2  0  0  0  0  0  0  0  0  0
    2.9504   -1.3975   -0.2418 N   0  0  0  0  0  0  0  0  0  0  0  0
    0.7397   -0.6683   -0.5491 C   0  0  1  0  0  0  0  0  0  0  0  0
    0.3372   -1.9930   -0.0211 N   0  0  0  0  0  0  0  0  0  0  0  0
   -0.4082   -1.2373    0.9665 C   0  0  0  0  0  0  0  0  0  0  0  0
   -0.5731   -0.2063   -0.0704 C   0  0  0  0  0  0  0  0  0  0  0  0
   -1.7377   -0.5765   -0.9592 C   0  0  0  0  0  0  0  0  0  0  0  0
   -2.9643   -0.6391   -0.0903 C   0  0  0  0  0  0  0  0  0  0  0  0
   -2.9294    0.2899    0.9160 O   0  0  0  0  0  0  0  0  0  0  0  0
   -2.2906    1.4672    0.5740 C   0  0  0  0  0  0  0  0  0  0  0  0
   -0.7915    1.2125    0.3171 C   0  0  0  0  0  0  0  0  0  0  0  0
    1.9955    2.5886    0.9435 H   0  0  0  0  0  0  0  0  0  0  0  0
    1.7979    2.8780   -0.7968 H   0  0  0  0  0  0  0  0  0  0  0  0
    1.9820   -0.3571    1.2145 H   0  0  0  0  0  0  0  0  0  0  0  0
    3.9165   -1.1479    0.0412 H   0  0  0  0  0  0  0  0  0  0  0  0
    2.9516   -1.5515   -1.2891 H   0  0  0  0  0  0  0  0  0  0  0  0
    0.7725   -0.7924   -1.6626 H   0  0  0  0  0  0  0  0  0  0  0  0
    1.1177   -2.5646    0.3254 H   0  0  0  0  0  0  0  0  0  0  0  0
   -1.2793   -1.8587    1.2640 H   0  0  0  0  0  0  0  0  0  0  0  0
    0.2046   -1.0226    1.8562 H   0  0  0  0  0  0  0  0  0  0  0  0
   -1.5958   -1.6098   -1.3878 H   0  0  0  0  0  0  0  0  0  0  0  0
   -1.9094    0.1677   -1.7619 H   0  0  0  0  0  0  0  0  0  0  0  0
   -3.0860   -1.6449    0.4168 H   0  0  0  0  0  0  0  0  0  0  0  0
   -3.9017   -0.5318   -0.7040 H   0  0  0  0  0  0  0  0  0  0  0  0
   -2.3431    2.2037    1.3881 H   0  0  0  0  0  0  0  0  0  0  0  0
   -2.7647    1.8425   -0.3475 H   0  0  0  0  0  0  0  0  0  0  0  0
   -0.2159    1.4421    1.2114 H   0  0  0  0  0  0  0  0  0  0  0  0
   -0.5850    1.8490   -0.5596 H   0  0  0  0  0  0  0  0  0  0  0  0
  1  2  1  0
  2  3  2  0
  2  4  1  0
  4  5  1  0
  4  6  1  0
  6  7  1  0
  7  8  1  0
  8  9  1  0
  9 10  1  0
 10 11  1  0
 11 12  1  0
 12 13  1  0
 13 14  1  0
  9  6  1  0
 14  9  1  0
  1 15  1  0
  1 16  1  0
  4 17  1  1
  5 18  1  0
  5 19  1  0
  6 20  1  6
  7 21  1  0
  8 22  1  0
  8 23  1  0
 10 24  1  0
 10 25  1  0
 11 26  1  0
 11 27  1  0
 13 28  1  0
 13 29  1  0
 14 30  1  0
 14 31  1  0
M  END
$$$$

     RDKit          3D

 31 32  0  0  0  0  0  0  0  0999 V2000
    3.5843    0.9136   -0.5748 N   0  0  0  0  0  0  0  0  0  0  0  0
    2.9664    0.0376    0.3485 C   0  0  0  0  0  0  0  0  0  0  0  0
    3.6565   -0.9061    0.8091 O   0  0  0  0  0  0  0  0  0  0  0  0
    1.5576    0.2022    0.7759 C   0  0  2  0  0  0  0  0  0  0  0  0
    1.2208   -0.8378    1.7158 N   0  0  0  0  0  0  0  0  0  0  0  0
    0.7038    0.0569   -0.4811 C   0  0  1  0  0  0  0  0  0  0  0  0
    0.9434   -1.2706   -1.0412 N   0  0  0  0  0  0  0  0  0  0  0  0
   -0.2757   -1.7559   -0.4329 C   0  0  0  0  0  0  0  0  0  0  0  0
   -0.7170   -0.3401   -0.2117 C   0  0  0  0  0  0  0  0  0  0  0  0
   -1.2454    0.0028    1.1396 C   0  0  0  0  0  0  0  0  0  0  0  0
   -2.6265    0.5673    1.1316 C   0  0  0  0  0  0  0  0  0  0  0  0
   -2.8498    1.5650    0.2328 O   0  0  0  0  0  0  0  0  0  0  0  0
   -2.1957    1.4652   -0.9606 C   0  0  0  0  0  0  0  0  0  0  0  0
   -1.7283    0.0713   -1.2436 C   0  0  0  0  0  0  0  0  0  0  0  0
    4.4658    1.4308   -0.3616 H   0  0  0  0  0  0  0  0  0  0  0  0
    3.1742    1.0764   -1.5169 H   0  0  0  0  0  0  0  0  0  0  0  0
    1.4429    1.2114    1.2228 H   0  0  0  0  0  0  0  0  0  0  0  0
    1.4411   -0.4837    2.6663 H   0  0  0  0  0  0  0  0  0  0  0  0
    1.8832   -1.6433    1.5512 H   0  0  0  0  0  0  0  0  0  0  0  0
    0.8749    0.8729   -1.1880 H   0  0  0  0  0  0  0  0  0  0  0  0
    1.0069   -1.3189   -2.0628 H   0  0  0  0  0  0  0  0  0  0  0  0
   -0.8701   -2.3132   -1.2013 H   0  0  0  0  0  0  0  0  0  0  0  0
   -0.1687   -2.3309    0.4881 H   0  0  0  0  0  0  0  0  0  0  0  0
   -0.5833    0.7147    1.6588 H   0  0  0  0  0  0  0  0  0  0  0  0
   -1.2736   -0.9270    1.7764 H   0  0  0  0  0  0  0  0  0  0  0  0
   -3.3465   -0.2885    1.0166 H   0  0  0  0  0  0  0  0  0  0  0  0
   -2.8079    0.9972    2.1607 H   0  0  0  0  0  0  0  0  0  0  0  0
   -1.3362    2.1725   -1.0152 H   0  0  0  0  0  0  0  0  0  0  0  0
   -2.8838    1.7498   -1.8095 H   0  0  0  0  0  0  0  0  0  0  0  0
   -1.3935   -0.0848   -2.2668 H   0  0  0  0  0  0  0  0  0  0  0  0
   -2.6197   -0.6069   -1.0971 H   0  0  0  0  0  0  0  0  0  0  0  0
  1  2  1  0
  2  3  2  0
  2  4  1  0
  4  5  1  0
  4  6  1  0
  6  7  1  0
  7  8  1  0
  8  9  1  0
  9 10  1  0
 10 11  1  0
 11 12  1  0
 12 13  1  0
 13 14  1  0
  9  6  1  0
 14  9  1  0
  1 15  1  0
  1 16  1  0
  4 17  1  1
  5 18  1  0
  5 19  1  0
  6 20  1  6
  7 21  1  0
  8 22  1  0
  8 23  1  0
 10 24  1  0
 10 25  1  0
 11 26  1  0
 11 27  1  0
 13 28  1  0
 13 29  1  0
 14 30  1  0
 14 31  1  0
M  END
$$$$

     RDKit          3D

 31 32  0  0  0  0  0  0  0  0999 V2000
   -2.4607    2.0759    0.3198 N   0  0  0  0  0  0  0  0  0  0  0  0
   -2.1893    0.9963   -0.5442 C   0  0  0  0  0  0  0  0  0  0  0  0
   -2.0838    1.2375   -1.7565 O   0  0  0  0  0  0  0  0  0  0  0  0
   -2.0477   -0.3224    0.0058 C   0  0  2  0  0  0  0  0  0  0  0  0
   -2.2218   -0.3370    1.4564 N   0  0  0  0  0  0  0  0  0  0  0  0
   -0.8000   -1.0707   -0.2955 C   0  0  1  0  0  0  0  0  0  0  0  0
   -0.5207   -1.3279   -1.6877 N   0  0  0  0  0  0  0  0  0  0  0  0
    0.7824   -0.7001   -1.5340 C   0  0  0  0  0  0  0  0  0  0  0  0
    0.5199   -0.4942   -0.0549 C   0  0  0  0  0  0  0  0  0  0  0  0
    0.6716    0.8948    0.4082 C   0  0  0  0  0  0  0  0  0  0  0  0
    2.0975    1.3021    0.5790 C   0  0  0  0  0  0  0  0  0  0  0  0
    2.9221    0.3679    1.1364 O   0  0  0  0  0  0  0  0  0  0  0  0
    2.8579   -0.8658    0.4827 C   0  0  0  0  0  0  0  0  0  0  0  0
    1.4676   -1.4020    0.7396 C   0  0  0  0  0  0  0  0  0  0  0  0
   -3.4285    2.1540    0.7078 H   0  0  0  0  0  0  0  0  0  0  0  0
   -1.7826    2.8052    0.6076 H   0  0  0  0  0  0  0  0  0  0  0  0
   -2.9021   -0.9553   -0.3815 H   0  0  0  0  0  0  0  0  0  0  0  0
   -2.6458   -1.2612    1.7618 H   0  0  0  0  0  0  0  0  0  0  0  0
   -2.9602    0.3910    1.6555 H   0  0  0  0  0  0  0  0  0  0  0  0
   -0.8920   -2.0836    0.2077 H   0  0  0  0  0  0  0  0  0  0  0  0
   -1.1368   -0.8517   -2.3752 H   0  0  0  0  0  0  0  0  0  0  0  0
    0.9141    0.2458   -2.1005 H   0  0  0  0  0  0  0  0  0  0  0  0
    1.5628   -1.4407   -1.7825 H   0  0  0  0  0  0  0  0  0  0  0  0
    0.1368    1.0404    1.3679 H   0  0  0  0  0  0  0  0  0  0  0  0
    0.2235    1.6242   -0.3225 H   0  0  0  0  0  0  0  0  0  0  0  0
    2.5466    1.6921   -0.3802 H   0  0  0  0  0  0  0  0  0  0  0  0
    2.1031    2.1975    1.2590 H   0  0  0  0  0  0  0  0  0  0  0  0
    3.0225   -0.6634   -0.5913 H   0  0  0  0  0  0  0  0  0  0  0  0
    3.6488   -1.5194    0.8934 H   0  0  0  0  0  0  0  0  0  0  0  0
    1.3404   -2.4506    0.4631 H   0  0  0  0  0  0  0  0  0  0  0  0
    1.2542   -1.2786    1.8248 H   0  0  0  0  0  0  0  0  0  0  0  0
  1  2  1  0
  2  3  2  0
  2  4  1  0
  4  5  1  0
  4  6  1  0
  6  7  1  0
  7  8  1  0
  8  9  1  0
  9 10  1  0
 10 11  1  0
 11 12  1  0
 12 13  1  0
 13 14  1  0
  9  6  1  0
 14  9  1  0
  1 15  1  0
  1 16  1  0
  4 17  1  6
  5 18  1  0
  5 19  1  0
  6 20  1  1
  7 21  1  0
  8 22  1  0
  8 23  1  0
 10 24  1  0
 10 25  1  0
 11 26  1  0
 11 27  1  0
 13 28  1  0
 13 29  1  0
 14 30  1  0
 14 31  1  0
M  END
$$$$

     RDKit          3D

 31 32  0  0  0  0  0  0  0  0999 V2000
   -2.7453    0.2838    1.5697 N   0  0  0  0  0  0  0  0  0  0  0  0
   -2.3598    0.5323    0.2288 C   0  0  0  0  0  0  0  0  0  0  0  0
   -2.4050    1.7186   -0.1679 O   0  0  0  0  0  0  0  0  0  0  0  0
   -1.9299   -0.5404   -0.6520 C   0  0  2  0  0  0  0  0  0  0  0  0
   -1.9774   -1.8380    0.0429 N   0  0  0  0  0  0  0  0  0  0  0  0
   -0.5595   -0.3990   -1.2469 C   0  0  1  0  0  0  0  0  0  0  0  0
   -0.3940    0.7776   -2.0490 N   0  0  0  0  0  0  0  0  0  0  0  0
    0.5596    1.2879   -1.1033 C   0  0  0  0  0  0  0  0  0  0  0  0
    0.5583   -0.0027   -0.3939 C   0  0  0  0  0  0  0  0  0  0  0  0
    0.3832   -0.0030    1.0894 C   0  0  0  0  0  0  0  0  0  0  0  0
    1.7296   -0.2181    1.7827 C   0  0  0  0  0  0  0  0  0  0  0  0
    2.7526    0.4363    1.1338 O   0  0  0  0  0  0  0  0  0  0  0  0
    2.9861   -0.0025   -0.1425 C   0  0  0  0  0  0  0  0  0  0  0  0
    1.8350   -0.7952   -0.6843 C   0  0  0  0  0  0  0  0  0  0  0  0
   -3.5413   -0.3567    1.8304 H   0  0  0  0  0  0  0  0  0  0  0  0
   -2.2524    0.7297    2.3780 H   0  0  0  0  0  0  0  0  0  0  0  0
   -2.6320   -0.6714   -1.5243 H   0  0  0  0  0  0  0  0  0  0  0  0
   -2.9837   -2.1556    0.0761 H   0  0  0  0  0  0  0  0  0  0  0  0
   -1.4170   -2.5419   -0.4962 H   0  0  0  0  0  0  0  0  0  0  0  0
   -0.3405   -1.3524   -1.8096 H   0  0  0  0  0  0  0  0  0  0  0  0
   -1.2425    1.3510   -2.2082 H   0  0  0  0  0  0  0  0  0  0  0  0
    0.2711    2.1927   -0.5368 H   0  0  0  0  0  0  0  0  0  0  0  0
    1.4954    1.5582   -1.6770 H   0  0  0  0  0  0  0  0  0  0  0  0
   -0.2206   -0.9061    1.3525 H   0  0  0  0  0  0  0  0  0  0  0  0
   -0.0228    0.9304    1.4946 H   0  0  0  0  0  0  0  0  0  0  0  0
    1.6568    0.1998    2.8082 H   0  0  0  0  0  0  0  0  0  0  0  0
    1.9390   -1.3146    1.9120 H   0  0  0  0  0  0  0  0  0  0  0  0
    3.9267   -0.6065   -0.2284 H   0  0  0  0  0  0  0  0  0  0  0  0
    3.1933    0.9095   -0.7685 H   0  0  0  0  0  0  0  0  0  0  0  0
    1.8055   -1.7808   -0.2226 H   0  0  0  0  0  0  0  0  0  0  0  0
    1.9315   -0.8630   -1.7878 H   0  0  0  0  0  0  0  0  0  0  0  0
  1  2  1  0
  2  3  2  0
  2  4  1  0
  4  5  1  0
  4  6  1  0
  6  7  1  0
  7  8  1  0
  8  9  1  0
  9 10  1  0
 10 11  1  0
 11 12  1  0
 12 13  1  0
 13 14  1  0
  9  6  1  0
 14  9  1  0
  1 15  1  0
  1 16  1  0
  4 17  1  6
  5 18  1  0
  5 19  1  0
  6 20  1  6
  7 21  1  0
  8 22  1  0
  8 23  1  0
 10 24  1  0
 10 25  1  0
 11 26  1  0
 11 27  1  0
 13 28  1  0
 13 29  1  0
 14 30  1  0
 14 31  1  0
M  END
$$$$
