
     RDKit          3D

 32 31  0  0  0  0  0  0  0  0999 V2000
    4.4890    0.5743    0.2293 C   0  0  0  0  0  0  0  0  0  0  0  0
    3.1538    1.1260   -0.2270 C   0  0  0  0  0  0  0  0  0  0  0  0
    2.0757    0.1598    0.2663 C   0  0  0  0  0  0  0  0  0  0  0  0
    0.7909    0.6582   -0.1501 N   0  0  0  0  0  0  0  0  0  0  0  0
   -0.2846   -0.2013    0.3123 C   0  0  2  0  0  0  0  0  0  0  0  0
   -0.1996   -1.5553   -0.2821 C   0  0  0  0  0  0  0  0  0  0  0  0
   -1.0622   -2.6331    0.1179 N   0  0  0  0  0  0  0  0  0  0  0  0
    0.6308   -1.8654   -1.1767 O   0  0  0  0  0  0  0  0  0  0  0  0
   -1.6143    0.4717    0.0687 C   0  0  1  0  0  0  0  0  0  0  0  0
   -1.8160    0.8441   -1.3784 C   0  0  0  0  0  0  0  0  0  0  0  0
   -1.8522   -0.3947   -2.1391 N   0  0  0  0  0  0  0  0  0  0  0  0
   -2.6516   -0.3189    0.4764 O   0  0  0  0  0  0  0  0  0  0  0  0
   -3.4511    0.1966    1.4831 C   0  0  0  0  0  0  0  0  0  0  0  0
    5.2006    0.4100   -0.6162 H   0  0  0  0  0  0  0  0  0  0  0  0
    4.3783   -0.4446    0.6969 H   0  0  0  0  0  0  0  0  0  0  0  0
    4.9754    1.2910    0.9273 H   0  0  0  0  0  0  0  0  0  0  0  0
    3.1838    1.1199   -1.3515 H   0  0  0  0  0  0  0  0  0  0  0  0
    2.9622    2.1528    0.1085 H   0  0  0  0  0  0  0  0  0  0  0  0
    2.3584   -0.8168   -0.1084 H   0  0  0  0  0  0  0  0  0  0  0  0
    2.1372    0.1254    1.3692 H   0  0  0  0  0  0  0  0  0  0  0  0
    0.6450    1.6588    0.0838 H   0  0  0  0  0  0  0  0  0  0  0  0
   -0.1532   -0.2937    1.4068 H   0  0  0  0  0  0  0  0  0  0  0  0
   -2.0505   -2.5107    0.3208 H   0  0  0  0  0  0  0  0  0  0  0  0
   -0.6570   -3.6024    0.2074 H   0  0  0  0  0  0  0  0  0  0  0  0
   -1.6211    1.4205    0.6835 H   0  0  0  0  0  0  0  0  0  0  0  0
   -2.7765    1.4183   -1.4558 H   0  0  0  0  0  0  0  0  0  0  0  0
   -1.0437    1.5352   -1.7523 H   0  0  0  0  0  0  0  0  0  0  0  0
   -2.4878   -1.0930   -1.7148 H   0  0  0  0  0  0  0  0  0  0  0  0
   -2.1458   -0.2675   -3.1337 H   0  0  0  0  0  0  0  0  0  0  0  0
   -2.8676    0.4049    2.4095 H   0  0  0  0  0  0  0  0  0  0  0  0
   -4.1743   -0.6127    1.7452 H   0  0  0  0  0  0  0  0  0  0  0  0
   -4.0724    1.0425    1.1535 H   0  0  0  0  0  0  0  0  0  0  0  0
  1  2  1  0
  2  3  1  0
  3  4  1  0
  4  5  1  0
  5  6  1  0
  6  7  1  0
  6  8  2  0
  5  9  1  0
  9 10  1  0
 10 11  1  0
  9 12  1  0
 12 13  1  0
  1 14  1  0
  1 15  1  0
  1 16  1  0
  2 17  1  0
  2 18  1  0
  3 19  1  0
  3 20  1  0
  4 21  1  0
  5 22  1  1
  7 23  1  0
  7 24  1  0
  9 25  1  1
 10 26  1  0
 10 27  1  0
 11 28  1  0
 11 29  1  0
 13 30  1  0
 13 31  1  0
 13 32  1  0
M  END
$$$$

     RDKit          3D

 32 31  0  0  0  0  0  0  0  0999 V2000
   -3.9735   -0.7262    0.0487 C   0  0  0  0  0  0  0  0  0  0  0  0
   -2.8015   -1.6023    0.4676 C   0  0  0  0  0  0  0  0  0  0  0  0
   -1.6023   -0.7413    0.7622 C   0  0  0  0  0  0  0  0  0  0  0  0
   -1.1283    0.0257   -0.3225 N   0  0  0  0  0  0  0  0  0  0  0  0
   -0.0186    0.8626   -0.0270 C   0  0  2  0  0  0  0  0  0  0  0  0
    0.1018    2.0578   -0.9110 C   0  0  0  0  0  0  0  0  0  0  0  0
    1.1089    3.0210   -0.6909 N   0  0  0  0  0  0  0  0  0  0  0  0
   -0.6982    2.2319   -1.8725 O   0  0  0  0  0  0  0  0  0  0  0  0
    1.2557    0.0049   -0.1525 C   0  0  1  0  0  0  0  0  0  0  0  0
    1.2477   -0.6837   -1.5046 C   0  0  0  0  0  0  0  0  0  0  0  0
    2.3429   -1.6152   -1.6399 N   0  0  0  0  0  0  0  0  0  0  0  0
    2.3781    0.7189    0.1176 O   0  0  0  0  0  0  0  0  0  0  0  0
    3.1343    0.3411    1.1858 C   0  0  0  0  0  0  0  0  0  0  0  0
   -4.8165   -1.3155   -0.3714 H   0  0  0  0  0  0  0  0  0  0  0  0
   -3.6452    0.0803   -0.6308 H   0  0  0  0  0  0  0  0  0  0  0  0
   -4.3630   -0.2631    0.9977 H   0  0  0  0  0  0  0  0  0  0  0  0
   -2.6099   -2.3024   -0.3858 H   0  0  0  0  0  0  0  0  0  0  0  0
   -3.1241   -2.1944    1.3477 H   0  0  0  0  0  0  0  0  0  0  0  0
   -1.8916   -0.0551    1.5970 H   0  0  0  0  0  0  0  0  0  0  0  0
   -0.8118   -1.4144    1.1580 H   0  0  0  0  0  0  0  0  0  0  0  0
   -1.7021    0.1953   -1.1179 H   0  0  0  0  0  0  0  0  0  0  0  0
   -0.0397    1.2260    1.0210 H   0  0  0  0  0  0  0  0  0  0  0  0
    1.9484    3.0825   -1.3187 H   0  0  0  0  0  0  0  0  0  0  0  0
    1.0117    3.6866    0.1209 H   0  0  0  0  0  0  0  0  0  0  0  0
    1.1366   -0.7974    0.5962 H   0  0  0  0  0  0  0  0  0  0  0  0
    0.2845   -1.2743   -1.5483 H   0  0  0  0  0  0  0  0  0  0  0  0
    1.2735   -0.0133   -2.3556 H   0  0  0  0  0  0  0  0  0  0  0  0
    3.1993   -1.1870   -2.0225 H   0  0  0  0  0  0  0  0  0  0  0  0
    2.5760   -2.1363   -0.7667 H   0  0  0  0  0  0  0  0  0  0  0  0
    4.0139    1.0512    1.2740 H   0  0  0  0  0  0  0  0  0  0  0  0
    3.6059   -0.6608    1.0967 H   0  0  0  0  0  0  0  0  0  0  0  0
    2.6071    0.3968    2.1573 H   0  0  0  0  0  0  0  0  0  0  0  0
  1  2  1  0
  2  3  1  0
  3  4  1  0
  4  5  1  0
  5  6  1  0
  6  7  1  0
  6  8  2  0
  5  9  1  0
  9 10  1  0
 10 11  1  0
  9 12  1  0
 12 13  1  0
  1 14  1  0
  1 15  1  0
  1 16  1  0
  2 17  1  0
  2 18  1  0
  3 19  1  0
  3 20  1  0
  4 21  1  0
  5 22  1  1
  7 23  1  0
  7 24  1  0
  9 25  1  1
 10 26  1  0
 10 27  1  0
 11 28  1  0
 11 29  1  0
 13 30  1  0
 13 31  1  0
 13 32  1  0
M  END
$$$$

     RDKit          3D

 32 31  0  0  0  0  0  0  0  0999 V2000
    4.4678   -0.2328    0.8290 C   0  0  0  0  0  0  0  0  0  0  0  0
    3.0288   -0.6462    0.8383 C   0  0  0  0  0  0  0  0  0  0  0  0
    2.1525    0.2966   -0.0005 C   0  0  0  0  0  0  0  0  0  0  0  0
    0.8140   -0.2186    0.1014 N   0  0  0  0  0  0  0  0  0  0  0  0
   -0.1764    0.5108   -0.6163 C   0  0  2  0  0  0  0  0  0  0  0  0
   -0.3365    1.9087   -0.1309 C   0  0  0  0  0  0  0  0  0  0  0  0
   -1.2718    2.7787   -0.7602 N   0  0  0  0  0  0  0  0  0  0  0  0
    0.3117    2.4017    0.8238 O   0  0  0  0  0  0  0  0  0  0  0  0
   -1.5157   -0.1881   -0.5418 C   0  0  1  0  0  0  0  0  0  0  0  0
   -1.4716   -1.5182   -1.2561 C   0  0  0  0  0  0  0  0  0  0  0  0
   -2.8033   -2.1135   -1.3346 N   0  0  0  0  0  0  0  0  0  0  0  0
   -1.9825   -0.3415    0.7441 O   0  0  0  0  0  0  0  0  0  0  0  0
   -3.1934    0.2649    0.9835 C   0  0  0  0  0  0  0  0  0  0  0  0
    5.0607   -0.7944    0.0655 H   0  0  0  0  0  0  0  0  0  0  0  0
    4.9347   -0.3130    1.8401 H   0  0  0  0  0  0  0  0  0  0  0  0
    4.5263    0.8377    0.5495 H   0  0  0  0  0  0  0  0  0  0  0  0
    2.9683   -1.6794    0.3979 H   0  0  0  0  0  0  0  0  0  0  0  0
    2.6472   -0.6909    1.8614 H   0  0  0  0  0  0  0  0  0  0  0  0
    2.3039    1.2907    0.4396 H   0  0  0  0  0  0  0  0  0  0  0  0
    2.4830    0.2390   -1.0638 H   0  0  0  0  0  0  0  0  0  0  0  0
    0.8520   -1.1898   -0.3123 H   0  0  0  0  0  0  0  0  0  0  0  0
    0.1303    0.5810   -1.6815 H   0  0  0  0  0  0  0  0  0  0  0  0
   -2.1657    2.4531   -1.1687 H   0  0  0  0  0  0  0  0  0  0  0  0
   -1.0742    3.8102   -0.8294 H   0  0  0  0  0  0  0  0  0  0  0  0
   -2.2958    0.4267   -1.0748 H   0  0  0  0  0  0  0  0  0  0  0  0
   -1.0679   -1.4463   -2.2718 H   0  0  0  0  0  0  0  0  0  0  0  0
   -0.8413   -2.2140   -0.6287 H   0  0  0  0  0  0  0  0  0  0  0  0
   -3.0098   -2.6841   -0.4725 H   0  0  0  0  0  0  0  0  0  0  0  0
   -2.8894   -2.7107   -2.1758 H   0  0  0  0  0  0  0  0  0  0  0  0
   -3.4624    0.0736    2.0456 H   0  0  0  0  0  0  0  0  0  0  0  0
   -3.9774   -0.2220    0.3484 H   0  0  0  0  0  0  0  0  0  0  0  0
   -3.1462    1.3303    0.7273 H   0  0  0  0  0  0  0  0  0  0  0  0
  1  2  1  0
  2  3  1  0
  3  4  1  0
  4  5  1  0
  5  6  1  0
  6  7  1  0
  6  8  2  0
  5  9  1  0
  9 10  1  0
 10 11  1  0
  9 12  1  0
 12 13  1  0
  1 14  1  0
  1 15  1  0
  1 16  1  0
  2 17  1  0
  2 18  1  0
  3 19  1  0
  3 20  1  0
  4 21  1  0
  5 22  1  6
  7 23  1  0
  7 24  1  0
  9 25  1  6
 10 26  1  0
 10 27  1  0
 11 28  1  0
 11 29  1  0
 13 30  1  0
 13 31  1  0
 13 32  1  0
M  END
$$$$

     RDKit          3D

 32 31  0  0  0  0  0  0  0  0999 V2000
    4.4138    1.0898    0.4429 C   0  0  0  0  0  0  0  0  0  0  0  0
    3.1987    1.1454   -0.4587 C   0  0  0  0  0  0  0  0  0  0  0  0
    2.0593    0.4935    0.2934 C   0  0  0  0  0  0  0  0  0  0  0  0
    0.8350    0.4820   -0.4611 N   0  0  0  0  0  0  0  0  0  0  0  0
   -0.1888   -0.1417    0.3017 C   0  0  2  0  0  0  0  0  0  0  0  0
    0.0249   -1.5707    0.6091 C   0  0  0  0  0  0  0  0  0  0  0  0
   -0.9087   -2.2980    1.3942 N   0  0  0  0  0  0  0  0  0  0  0  0
    1.0248   -2.1902    0.1954 O   0  0  0  0  0  0  0  0  0  0  0  0
   -1.5732    0.0174   -0.2787 C   0  0  1  0  0  0  0  0  0  0  0  0
   -1.6601   -0.3795   -1.7175 C   0  0  0  0  0  0  0  0  0  0  0  0
   -3.0000   -0.0698   -2.1827 N   0  0  0  0  0  0  0  0  0  0  0  0
   -2.4600   -0.6220    0.5424 O   0  0  0  0  0  0  0  0  0  0  0  0
   -3.3688    0.1795    1.1785 C   0  0  0  0  0  0  0  0  0  0  0  0
    4.2407    0.4426    1.3410 H   0  0  0  0  0  0  0  0  0  0  0  0
    5.2993    0.6576   -0.0657 H   0  0  0  0  0  0  0  0  0  0  0  0
    4.7034    2.0915    0.8292 H   0  0  0  0  0  0  0  0  0  0  0  0
    3.3735    0.7074   -1.4517 H   0  0  0  0  0  0  0  0  0  0  0  0
    2.9332    2.2315   -0.5901 H   0  0  0  0  0  0  0  0  0  0  0  0
    2.4005   -0.4510    0.6942 H   0  0  0  0  0  0  0  0  0  0  0  0
    1.8647    1.1777    1.1679 H   0  0  0  0  0  0  0  0  0  0  0  0
    1.0132   -0.0507   -1.3440 H   0  0  0  0  0  0  0  0  0  0  0  0
   -0.1826    0.3717    1.3117 H   0  0  0  0  0  0  0  0  0  0  0  0
   -0.7798   -2.3230    2.4275 H   0  0  0  0  0  0  0  0  0  0  0  0
   -1.7114   -2.8028    0.9739 H   0  0  0  0  0  0  0  0  0  0  0  0
   -1.8127    1.1104   -0.2351 H   0  0  0  0  0  0  0  0  0  0  0  0
   -0.9504    0.2458   -2.2955 H   0  0  0  0  0  0  0  0  0  0  0  0
   -1.4411   -1.4208   -1.9306 H   0  0  0  0  0  0  0  0  0  0  0  0
   -3.0601    0.0323   -3.2039 H   0  0  0  0  0  0  0  0  0  0  0  0
   -3.3952    0.7891   -1.7435 H   0  0  0  0  0  0  0  0  0  0  0  0
   -2.8280    0.9102    1.8108 H   0  0  0  0  0  0  0  0  0  0  0  0
   -4.1401    0.6232    0.5359 H   0  0  0  0  0  0  0  0  0  0  0  0
   -3.9240   -0.4781    1.9092 H   0  0  0  0  0  0  0  0  0  0  0  0
  1  2  1  0
  2  3  1  0
  3  4  1  0
  4  5  1  0
  5  6  1  0
  6  7  1  0
  6  8  2  0
  5  9  1  0
  9 10  1  0
 10 11  1  0
  9 12  1  0
 12 13  1  0
  1 14  1  0
  1 15  1  0
  1 16  1  0
  2 17  1  0
  2 18  1  0
  3 19  1  0
  3 20  1  0
  4 21  1  0
  5 22  1  1
  7 23  1  0
  7 24  1  0
  9 25  1  6
 10 26  1  0
 10 27  1  0
 11 28  1  0
 11 29  1  0
 13 30  1  0
 13 31  1  0
 13 32  1  0
M  END
$$$$

     RDKit          3D

 32 31  0  0  0  0  0  0  0  0999 V2000
   -4.0636   -0.2777    0.8375 C   0  0  0  0  0  0  0  0  0  0  0  0
   -3.0621    0.4039   -0.0328 C   0  0  0  0  0  0  0  0  0  0  0  0
   -1.6767   -0.2563    0.0479 C   0  0  0  0  0  0  0  0  0  0  0  0
   -0.8346    0.4927   -0.8277 N   0  0  0  0  0  0  0  0  0  0  0  0
    0.5242    0.0101   -0.9477 C   0  0  2  0  0  0  0  0  0  0  0  0
    0.4061   -1.3541   -1.5179 C   0  0  0  0  0  0  0  0  0  0  0  0
    1.2502   -2.4493   -1.2413 N   0  0  0  0  0  0  0  0  0  0  0  0
   -0.5509   -1.5354   -2.3281 O   0  0  0  0  0  0  0  0  0  0  0  0
    1.3632    0.1082    0.2633 C   0  0  1  0  0  0  0  0  0  0  0  0
    2.8324   -0.0653   -0.2255 C   0  0  0  0  0  0  0  0  0  0  0  0
    2.9609    0.9551   -1.2719 N   0  0  0  0  0  0  0  0  0  0  0  0
    1.4011    1.4511    0.7235 O   0  0  0  0  0  0  0  0  0  0  0  0
    1.2110    1.4194    2.0930 C   0  0  0  0  0  0  0  0  0  0  0  0
   -4.7821   -0.8915    0.2295 H   0  0  0  0  0  0  0  0  0  0  0  0
   -3.5621   -0.8994    1.5739 H   0  0  0  0  0  0  0  0  0  0  0  0
   -4.7212    0.5118    1.3072 H   0  0  0  0  0  0  0  0  0  0  0  0
   -3.4192    0.3359   -1.0919 H   0  0  0  0  0  0  0  0  0  0  0  0
   -3.0054    1.4807    0.2099 H   0  0  0  0  0  0  0  0  0  0  0  0
   -1.7542   -1.2943   -0.2815 H   0  0  0  0  0  0  0  0  0  0  0  0
   -1.4036   -0.1686    1.1272 H   0  0  0  0  0  0  0  0  0  0  0  0
   -0.9049    1.5299   -0.7528 H   0  0  0  0  0  0  0  0  0  0  0  0
    0.9944    0.6365   -1.7403 H   0  0  0  0  0  0  0  0  0  0  0  0
    1.4116   -2.8459   -0.2886 H   0  0  0  0  0  0  0  0  0  0  0  0
    1.7664   -2.9280   -2.0194 H   0  0  0  0  0  0  0  0  0  0  0  0
    1.1629   -0.5209    1.1075 H   0  0  0  0  0  0  0  0  0  0  0  0
    2.9369   -1.0605   -0.6524 H   0  0  0  0  0  0  0  0  0  0  0  0
    3.5393    0.1159    0.6137 H   0  0  0  0  0  0  0  0  0  0  0  0
    3.9467    1.0863   -1.5888 H   0  0  0  0  0  0  0  0  0  0  0  0
    2.5428    1.8209   -0.8766 H   0  0  0  0  0  0  0  0  0  0  0  0
    2.0144    0.8260    2.6105 H   0  0  0  0  0  0  0  0  0  0  0  0
    0.2664    0.9222    2.3813 H   0  0  0  0  0  0  0  0  0  0  0  0
    1.2099    2.4406    2.5595 H   0  0  0  0  0  0  0  0  0  0  0  0
  1  2  1  0
  2  3  1  0
  3  4  1  0
  4  5  1  0
  5  6  1  0
  6  7  1  0
  6  8  2  0
  5  9  1  0
  9 10  1  0
 10 11  1  0
  9 12  1  0
 12 13  1  0
  1 14  1  0
  1 15  1  0
  1 16  1  0
  2 17  1  0
  2 18  1  0
  3 19  1  0
  3 20  1  0
  4 21  1  0
  5 22  1  6
  7 23  1  0
  7 24  1  0
  9 25  1  1
 10 26  1  0
 10 27  1  0
 11 28  1  0
 11 29  1  0
 13 30  1  0
 13 31  1  0
 13 32  1  0
M  END
$$$$

     RDKit          3D

 32 31  0  0  0  0  0  0  0  0999 V2000
   -2.8449    0.9999   -2.5350 C   0  0  0  0  0  0  0  0  0  0  0  0
   -2.3036   -0.3165   -2.0263 C   0  0  0  0  0  0  0  0  0  0  0  0
   -1.4428    0.0409   -0.8020 C   0  0  0  0  0  0  0  0  0  0  0  0
   -0.8600   -1.1155   -0.2452 N   0  0  0  0  0  0  0  0  0  0  0  0
   -0.0213   -0.8365    0.9201 C   0  0  2  0  0  0  0  0  0  0  0  0
   -0.7247   -0.2976    2.0618 C   0  0  0  0  0  0  0  0  0  0  0  0
   -0.1583   -0.0538    3.3478 N   0  0  0  0  0  0  0  0  0  0  0  0
   -1.9738    0.0232    2.0423 O   0  0  0  0  0  0  0  0  0  0  0  0
    1.2552   -0.2227    0.4711 C   0  0  1  0  0  0  0  0  0  0  0  0
    2.2656    0.1877    1.4564 C   0  0  0  0  0  0  0  0  0  0  0  0
    1.9223    1.1859    2.4084 N   0  0  0  0  0  0  0  0  0  0  0  0
    1.9340   -1.1656   -0.3781 O   0  0  0  0  0  0  0  0  0  0  0  0
    2.0992   -0.6858   -1.6522 C   0  0  0  0  0  0  0  0  0  0  0  0
   -3.4324    1.5363   -1.7679 H   0  0  0  0  0  0  0  0  0  0  0  0
   -1.9301    1.5954   -2.8190 H   0  0  0  0  0  0  0  0  0  0  0  0
   -3.4825    0.8630   -3.4321 H   0  0  0  0  0  0  0  0  0  0  0  0
   -1.6897   -0.7895   -2.8088 H   0  0  0  0  0  0  0  0  0  0  0  0
   -3.1594   -0.9479   -1.7221 H   0  0  0  0  0  0  0  0  0  0  0  0
   -2.1324    0.5354   -0.1255 H   0  0  0  0  0  0  0  0  0  0  0  0
   -0.6721    0.7297   -1.2293 H   0  0  0  0  0  0  0  0  0  0  0  0
   -0.4571   -1.8048   -0.8874 H   0  0  0  0  0  0  0  0  0  0  0  0
    0.2775   -1.9039    1.2344 H   0  0  0  0  0  0  0  0  0  0  0  0
    0.4965   -0.7427    3.7843 H   0  0  0  0  0  0  0  0  0  0  0  0
   -0.3829    0.8044    3.8812 H   0  0  0  0  0  0  0  0  0  0  0  0
    1.0531    0.6456   -0.2223 H   0  0  0  0  0  0  0  0  0  0  0  0
    2.6616   -0.7029    1.9989 H   0  0  0  0  0  0  0  0  0  0  0  0
    3.1294    0.6287    0.8647 H   0  0  0  0  0  0  0  0  0  0  0  0
    1.3006    1.9372    2.0362 H   0  0  0  0  0  0  0  0  0  0  0  0
    2.7740    1.5597    2.8618 H   0  0  0  0  0  0  0  0  0  0  0  0
    1.1705   -0.4423   -2.1973 H   0  0  0  0  0  0  0  0  0  0  0  0
    2.6050   -1.4788   -2.2330 H   0  0  0  0  0  0  0  0  0  0  0  0
    2.7234    0.2336   -1.6993 H   0  0  0  0  0  0  0  0  0  0  0  0
  1  2  1  0
  2  3  1  0
  3  4  1  0
  4  5  1  0
  5  6  1  0
  6  7  1  0
  6  8  2  0
  5  9  1  0
  9 10  1  0
 10 11  1  0
  9 12  1  0
 12 13  1  0
  1 14  1  0
  1 15  1  0
  1 16  1  0
  2 17  1  0
  2 18  1  0
  3 19  1  0
  3 20  1  0
  4 21  1  0
  5 22  1  1
  7 23  1  0
  7 24  1  0
  9 25  1  6
 10 26  1  0
 10 27  1  0
 11 28  1  0
 11 29  1  0
 13 30  1  0
 13 31  1  0
 13 32  1  0
M  END
$$$$

     RDKit          3D

 32 31  0  0  0  0  0  0  0  0999 V2000
    3.6061   -0.7814    0.5205 C   0  0  0  0  0  0  0  0  0  0  0  0
    3.1890   -0.3276   -0.8510 C   0  0  0  0  0  0  0  0  0  0  0  0
    1.9380    0.5203   -0.8508 C   0  0  0  0  0  0  0  0  0  0  0  0
    0.7933   -0.1695   -0.2678 N   0  0  0  0  0  0  0  0  0  0  0  0
   -0.4405    0.4878   -0.5282 C   0  0  2  0  0  0  0  0  0  0  0  0
   -0.5095    1.9003   -0.0038 C   0  0  0  0  0  0  0  0  0  0  0  0
   -1.6276    2.6960   -0.3692 N   0  0  0  0  0  0  0  0  0  0  0  0
    0.3667    2.4045    0.7292 O   0  0  0  0  0  0  0  0  0  0  0  0
   -1.5172   -0.2860    0.2324 C   0  0  1  0  0  0  0  0  0  0  0  0
   -1.6424   -1.7123   -0.1890 C   0  0  0  0  0  0  0  0  0  0  0  0
   -1.9597   -1.8914   -1.5693 N   0  0  0  0  0  0  0  0  0  0  0  0
   -1.1902   -0.2101    1.5821 O   0  0  0  0  0  0  0  0  0  0  0  0
   -2.1135    0.4579    2.3651 C   0  0  0  0  0  0  0  0  0  0  0  0
    2.7240   -0.8371    1.2052 H   0  0  0  0  0  0  0  0  0  0  0  0
    4.4220   -0.1535    0.9577 H   0  0  0  0  0  0  0  0  0  0  0  0
    4.0429   -1.8046    0.3982 H   0  0  0  0  0  0  0  0  0  0  0  0
    3.0526   -1.1669   -1.5688 H   0  0  0  0  0  0  0  0  0  0  0  0
    4.0509    0.2840   -1.2579 H   0  0  0  0  0  0  0  0  0  0  0  0
    1.7691    0.9373   -1.8446 H   0  0  0  0  0  0  0  0  0  0  0  0
    2.1637    1.3901   -0.1685 H   0  0  0  0  0  0  0  0  0  0  0  0
    0.7605   -1.1682   -0.6250 H   0  0  0  0  0  0  0  0  0  0  0  0
   -0.7271    0.5129   -1.5854 H   0  0  0  0  0  0  0  0  0  0  0  0
   -1.9181    2.6580   -1.3657 H   0  0  0  0  0  0  0  0  0  0  0  0
   -2.1436    3.2872    0.2829 H   0  0  0  0  0  0  0  0  0  0  0  0
   -2.4750    0.2519    0.0917 H   0  0  0  0  0  0  0  0  0  0  0  0
   -2.5075   -2.1392    0.3853 H   0  0  0  0  0  0  0  0  0  0  0  0
   -0.7406   -2.2833    0.0597 H   0  0  0  0  0  0  0  0  0  0  0  0
   -1.4320   -2.6982   -1.9660 H   0  0  0  0  0  0  0  0  0  0  0  0
   -2.9712   -2.0743   -1.7256 H   0  0  0  0  0  0  0  0  0  0  0  0
   -2.2671    1.4983    2.0506 H   0  0  0  0  0  0  0  0  0  0  0  0
   -3.0717   -0.1115    2.4999 H   0  0  0  0  0  0  0  0  0  0  0  0
   -1.6244    0.5288    3.3762 H   0  0  0  0  0  0  0  0  0  0  0  0
  1  2  1  0
  2  3  1  0
  3  4  1  0
  4  5  1  0
  5  6  1  0
  6  7  1  0
  6  8  2  0
  5  9  1  0
  9 10  1  0
 10 11  1  0
  9 12  1  0
 12 13  1  0
  1 14  1  0
  1 15  1  0
  1 16  1  0
  2 17  1  0
  2 18  1  0
  3 19  1  0
  3 20  1  0
  4 21  1  0
  5 22  1  6
  7 23  1  0
  7 24  1  0
  9 25  1  1
 10 26  1  0
 10 27  1  0
 11 28  1  0
 11 29  1  0
 13 30  1  0
 13 31  1  0
 13 32  1  0
M  END
$$$$

     RDKit          3D

 32 31  0  0  0  0  0  0  0  0999 V2000
   -3.9661    0.5201   -0.1950 C   0  0  0  0  0  0  0  0  0  0  0  0
   -3.0112    0.1670    0.9110 C   0  0  0  0  0  0  0  0  0  0  0  0
   -1.5393    0.3259    0.5051 C   0  0  0  0  0  0  0  0  0  0  0  0
   -1.2604   -0.4667   -0.5886 N   0  0  0  0  0  0  0  0  0  0  0  0
    0.1004   -0.4930   -1.0703 C   0  0  2  0  0  0  0  0  0  0  0  0
    0.4477   -1.9684   -0.9177 C   0  0  0  0  0  0  0  0  0  0  0  0
    0.4833   -2.6134    0.3280 N   0  0  0  0  0  0  0  0  0  0  0  0
    0.7049   -2.6566   -1.9447 O   0  0  0  0  0  0  0  0  0  0  0  0
    1.1098    0.3199   -0.5173 C   0  0  1  0  0  0  0  0  0  0  0  0
    1.7389   -0.1435    0.8523 C   0  0  0  0  0  0  0  0  0  0  0  0
    2.6436    0.9734    1.1722 N   0  0  0  0  0  0  0  0  0  0  0  0
    2.2964    0.2775   -1.3134 O   0  0  0  0  0  0  0  0  0  0  0  0
    3.0115    1.4275   -1.3529 C   0  0  0  0  0  0  0  0  0  0  0  0
   -4.9421    0.7305    0.2891 H   0  0  0  0  0  0  0  0  0  0  0  0
   -4.1226   -0.3494   -0.8887 H   0  0  0  0  0  0  0  0  0  0  0  0
   -3.6559    1.4265   -0.7228 H   0  0  0  0  0  0  0  0  0  0  0  0
   -3.2384   -0.8748    1.2156 H   0  0  0  0  0  0  0  0  0  0  0  0
   -3.2338    0.7691    1.8449 H   0  0  0  0  0  0  0  0  0  0  0  0
   -0.9884    0.1204    1.4635 H   0  0  0  0  0  0  0  0  0  0  0  0
   -1.4446    1.4265    0.2950 H   0  0  0  0  0  0  0  0  0  0  0  0
   -2.0177   -0.6093   -1.2452 H   0  0  0  0  0  0  0  0  0  0  0  0
   -0.0045   -0.3558   -2.1955 H   0  0  0  0  0  0  0  0  0  0  0  0
    0.9581   -3.5531    0.4552 H   0  0  0  0  0  0  0  0  0  0  0  0
    0.0524   -2.2483    1.2143 H   0  0  0  0  0  0  0  0  0  0  0  0
    0.9491    1.4219   -0.3435 H   0  0  0  0  0  0  0  0  0  0  0  0
    2.4109   -1.0108    0.6216 H   0  0  0  0  0  0  0  0  0  0  0  0
    1.0995   -0.3560    1.6278 H   0  0  0  0  0  0  0  0  0  0  0  0
    3.2740    0.8040    1.9542 H   0  0  0  0  0  0  0  0  0  0  0  0
    2.0682    1.8294    1.3302 H   0  0  0  0  0  0  0  0  0  0  0  0
    2.5422    2.3820   -1.6364 H   0  0  0  0  0  0  0  0  0  0  0  0
    3.6671    1.2659   -2.3339 H   0  0  0  0  0  0  0  0  0  0  0  0
    3.8671    1.5115   -0.6300 H   0  0  0  0  0  0  0  0  0  0  0  0
  1  2  1  0
  2  3  1  0
  3  4  1  0
  4  5  1  0
  5  6  1  0
  6  7  1  0
  6  8  2  0
  5  9  1  0
  9 10  1  0
 10 11  1  0
  9 12  1  0
 12 13  1  0
  1 14  1  0
  1 15  1  0
  1 16  1  0
  2 17  1  0
  2 18  1  0
  3 19  1  0
  3 20  1  0
  4 21  1  0
  5 22  1  6
  7 23  1  0
  7 24  1  0
  9 25  1  1
 10 26  1  0
 10 27  1  0
 11 28  1  0
 11 29  1  0
 13 30  1  0
 13 31  1  0
 13 32  1  0
M  END
$$$$
