
     RDKit          3D

 32 31  0  0  0  0  0  0  0  0999 V2000
    2.9771    1.1715    0.8053 C   0  0  0  0  0  0  0  0  0  0  0  0
    2.8144    0.3051   -0.3107 N   0  0  0  0  0  0  0  0  0  0  0  0
    3.9260    0.0542   -1.1345 C   0  0  0  0  0  0  0  0  0  0  0  0
    1.8480   -0.7271   -0.1390 C   0  0  0  0  0  0  0  0  0  0  0  0
    0.4688   -0.0189   -0.0972 C   0  0  0  0  0  0  0  0  0  0  0  0
   -0.5636   -0.9426    0.0821 N   0  0  0  0  0  0  0  0  0  0  0  0
   -1.9059   -0.5509    0.0888 C   0  0  2  0  0  0  0  0  0  0  0  0
   -2.2670   -0.0068   -1.2964 C   0  0  0  0  0  0  0  0  0  0  0  0
   -2.2737    0.5551    1.0609 C   0  0  0  0  0  0  0  0  0  0  0  0
   -1.5060    1.7436    0.6822 N   0  0  0  0  0  0  0  0  0  0  0  0
   -2.7612   -1.7354    0.3366 C   0  0  0  0  0  0  0  0  0  0  0  0
   -2.2771   -2.9038    0.5138 O   0  0  0  0  0  0  0  0  0  0  0  0
   -4.1370   -1.6590    0.3906 O   0  0  0  0  0  0  0  0  0  0  0  0
    2.8557    0.6834    1.7941 H   0  0  0  0  0  0  0  0  0  0  0  0
    2.3205    2.0448    0.7229 H   0  0  0  0  0  0  0  0  0  0  0  0
    4.0204    1.5801    0.7770 H   0  0  0  0  0  0  0  0  0  0  0  0
    3.8836   -0.9012   -1.6600 H   0  0  0  0  0  0  0  0  0  0  0  0
    4.9289    0.1630   -0.6530 H   0  0  0  0  0  0  0  0  0  0  0  0
    3.9223    0.8509   -1.9372 H   0  0  0  0  0  0  0  0  0  0  0  0
    1.8470   -1.3452   -1.0828 H   0  0  0  0  0  0  0  0  0  0  0  0
    2.0036   -1.3485    0.7405 H   0  0  0  0  0  0  0  0  0  0  0  0
    0.5334    0.6507    0.7924 H   0  0  0  0  0  0  0  0  0  0  0  0
    0.3515    0.5954   -1.0042 H   0  0  0  0  0  0  0  0  0  0  0  0
   -0.3664   -1.9328   -0.1562 H   0  0  0  0  0  0  0  0  0  0  0  0
   -1.5630    0.8178   -1.5078 H   0  0  0  0  0  0  0  0  0  0  0  0
   -2.2578   -0.8258   -2.0170 H   0  0  0  0  0  0  0  0  0  0  0  0
   -3.2805    0.4770   -1.2180 H   0  0  0  0  0  0  0  0  0  0  0  0
   -1.9574    0.2135    2.0808 H   0  0  0  0  0  0  0  0  0  0  0  0
   -3.3632    0.7193    1.0031 H   0  0  0  0  0  0  0  0  0  0  0  0
   -2.0732    2.1948   -0.0978 H   0  0  0  0  0  0  0  0  0  0  0  0
   -1.4622    2.3745    1.5036 H   0  0  0  0  0  0  0  0  0  0  0  0
   -4.6862   -2.2964    0.9370 H   0  0  0  0  0  0  0  0  0  0  0  0
  1  2  1  0
  2  3  1  0
  2  4  1  0
  4  5  1  0
  5  6  1  0
  7  6  1  6
  7  8  1  0
  7  9  1  0
  9 10  1  0
  7 11  1  0
 11 12  2  0
 11 13  1  0
  1 14  1  0
  1 15  1  0
  1 16  1  0
  3 17  1  0
  3 18  1  0
  3 19  1  0
  4 20  1  0
  4 21  1  0
  5 22  1  0
  5 23  1  0
  6 24  1  0
  8 25  1  0
  8 26  1  0
  8 27  1  0
  9 28  1  0
  9 29  1  0
 10 30  1  0
 10 31  1  0
 13 32  1  0
M  END
$$$$

     RDKit          3D

 32 31  0  0  0  0  0  0  0  0999 V2000
   -3.1317   -0.5387    1.3150 C   0  0  0  0  0  0  0  0  0  0  0  0
   -2.7800   -0.8466   -0.0275 N   0  0  0  0  0  0  0  0  0  0  0  0
   -3.9530   -0.8666   -0.8985 C   0  0  0  0  0  0  0  0  0  0  0  0
   -1.7012   -0.1364   -0.5904 C   0  0  0  0  0  0  0  0  0  0  0  0
   -0.3284   -0.3896   -0.0075 C   0  0  0  0  0  0  0  0  0  0  0  0
    0.5919    0.4498   -0.7197 N   0  0  0  0  0  0  0  0  0  0  0  0
    1.8686    0.6534   -0.1695 C   0  0  2  0  0  0  0  0  0  0  0  0
    2.9182    0.5659   -1.2841 C   0  0  0  0  0  0  0  0  0  0  0  0
    2.2056   -0.3379    0.9109 C   0  0  0  0  0  0  0  0  0  0  0  0
    2.1968   -1.6740    0.3769 N   0  0  0  0  0  0  0  0  0  0  0  0
    1.9168    2.0350    0.3641 C   0  0  0  0  0  0  0  0  0  0  0  0
    0.8698    2.7612    0.2411 O   0  0  0  0  0  0  0  0  0  0  0  0
    3.0123    2.5377    0.9716 O   0  0  0  0  0  0  0  0  0  0  0  0
   -2.3588   -0.4850    2.0581 H   0  0  0  0  0  0  0  0  0  0  0  0
   -3.7114    0.4247    1.3312 H   0  0  0  0  0  0  0  0  0  0  0  0
   -3.8842   -1.3054    1.6567 H   0  0  0  0  0  0  0  0  0  0  0  0
   -4.1177    0.2183   -1.1642 H   0  0  0  0  0  0  0  0  0  0  0  0
   -3.6703   -1.3714   -1.8393 H   0  0  0  0  0  0  0  0  0  0  0  0
   -4.7945   -1.2979   -0.3687 H   0  0  0  0  0  0  0  0  0  0  0  0
   -1.9148    0.9551   -0.4694 H   0  0  0  0  0  0  0  0  0  0  0  0
   -1.6527   -0.3308   -1.6746 H   0  0  0  0  0  0  0  0  0  0  0  0
   -0.3574   -0.1176    1.0502 H   0  0  0  0  0  0  0  0  0  0  0  0
   -0.0097   -1.4406   -0.1694 H   0  0  0  0  0  0  0  0  0  0  0  0
    0.6098    0.2100   -1.7403 H   0  0  0  0  0  0  0  0  0  0  0  0
    3.9173    0.5794   -0.8138 H   0  0  0  0  0  0  0  0  0  0  0  0
    2.8463    1.4536   -1.9289 H   0  0  0  0  0  0  0  0  0  0  0  0
    2.8437   -0.4022   -1.8182 H   0  0  0  0  0  0  0  0  0  0  0  0
    1.4931   -0.2499    1.7282 H   0  0  0  0  0  0  0  0  0  0  0  0
    3.2482   -0.1095    1.2696 H   0  0  0  0  0  0  0  0  0  0  0  0
    3.0445   -1.9480   -0.1281 H   0  0  0  0  0  0  0  0  0  0  0  0
    1.8723   -2.4134    1.0305 H   0  0  0  0  0  0  0  0  0  0  0  0
    2.9106    3.4177    1.5081 H   0  0  0  0  0  0  0  0  0  0  0  0
  1  2  1  0
  2  3  1  0
  2  4  1  0
  4  5  1  0
  5  6  1  0
  7  6  1  6
  7  8  1  0
  7  9  1  0
  9 10  1  0
  7 11  1  0
 11 12  2  0
 11 13  1  0
  1 14  1  0
  1 15  1  0
  1 16  1  0
  3 17  1  0
  3 18  1  0
  3 19  1  0
  4 20  1  0
  4 21  1  0
  5 22  1  0
  5 23  1  0
  6 24  1  0
  8 25  1  0
  8 26  1  0
  8 27  1  0
  9 28  1  0
  9 29  1  0
 10 30  1  0
 10 31  1  0
 13 32  1  0
M  END
$$$$

     RDKit          3D

 32 31  0  0  0  0  0  0  0  0999 V2000
   -4.0796    0.3376   -1.0831 C   0  0  0  0  0  0  0  0  0  0  0  0
   -3.0877    0.4692   -0.0314 N   0  0  0  0  0  0  0  0  0  0  0  0
   -3.3222   -0.5178    0.9626 C   0  0  0  0  0  0  0  0  0  0  0  0
   -1.8065    0.4942   -0.6452 C   0  0  0  0  0  0  0  0  0  0  0  0
   -0.6606    0.3560    0.3360 C   0  0  0  0  0  0  0  0  0  0  0  0
    0.5239    0.4012   -0.4067 N   0  0  0  0  0  0  0  0  0  0  0  0
    1.7597   -0.0398    0.1806 C   0  0  2  0  0  0  0  0  0  0  0  0
    2.1572    0.6820    1.4185 C   0  0  0  0  0  0  0  0  0  0  0  0
    2.8195    0.3200   -0.8883 C   0  0  0  0  0  0  0  0  0  0  0  0
    4.1313   -0.0297   -0.4863 N   0  0  0  0  0  0  0  0  0  0  0  0
    1.7090   -1.4889    0.2949 C   0  0  0  0  0  0  0  0  0  0  0  0
    0.6848   -2.1206    0.5796 O   0  0  0  0  0  0  0  0  0  0  0  0
    2.8686   -2.2489    0.0766 O   0  0  0  0  0  0  0  0  0  0  0  0
   -3.8564   -0.6160   -1.6741 H   0  0  0  0  0  0  0  0  0  0  0  0
   -4.0395    1.1624   -1.8301 H   0  0  0  0  0  0  0  0  0  0  0  0
   -5.0897    0.1753   -0.6926 H   0  0  0  0  0  0  0  0  0  0  0  0
   -2.5828   -0.4707    1.8066 H   0  0  0  0  0  0  0  0  0  0  0  0
   -3.3792   -1.5565    0.6055 H   0  0  0  0  0  0  0  0  0  0  0  0
   -4.3215   -0.2949    1.4443 H   0  0  0  0  0  0  0  0  0  0  0  0
   -1.6863    1.4900   -1.1110 H   0  0  0  0  0  0  0  0  0  0  0  0
   -1.6879   -0.2605   -1.4570 H   0  0  0  0  0  0  0  0  0  0  0  0
   -0.7385    1.2934    0.9892 H   0  0  0  0  0  0  0  0  0  0  0  0
   -0.7179   -0.4722    1.0296 H   0  0  0  0  0  0  0  0  0  0  0  0
    0.4979    0.4739   -1.4242 H   0  0  0  0  0  0  0  0  0  0  0  0
    1.7587    1.7107    1.4216 H   0  0  0  0  0  0  0  0  0  0  0  0
    3.2673    0.8092    1.4256 H   0  0  0  0  0  0  0  0  0  0  0  0
    1.9097    0.1474    2.3618 H   0  0  0  0  0  0  0  0  0  0  0  0
    2.5121   -0.2203   -1.8159 H   0  0  0  0  0  0  0  0  0  0  0  0
    2.7388    1.4160   -1.0959 H   0  0  0  0  0  0  0  0  0  0  0  0
    4.7188    0.8446   -0.4717 H   0  0  0  0  0  0  0  0  0  0  0  0
    4.2199   -0.5602    0.3766 H   0  0  0  0  0  0  0  0  0  0  0  0
    2.7793   -3.2432   -0.1961 H   0  0  0  0  0  0  0  0  0  0  0  0
  1  2  1  0
  2  3  1  0
  2  4  1  0
  4  5  1  0
  5  6  1  0
  7  6  1  6
  7  8  1  0
  7  9  1  0
  9 10  1  0
  7 11  1  0
 11 12  2  0
 11 13  1  0
  1 14  1  0
  1 15  1  0
  1 16  1  0
  3 17  1  0
  3 18  1  0
  3 19  1  0
  4 20  1  0
  4 21  1  0
  5 22  1  0
  5 23  1  0
  6 24  1  0
  8 25  1  0
  8 26  1  0
  8 27  1  0
  9 28  1  0
  9 29  1  0
 10 30  1  0
 10 31  1  0
 13 32  1  0
M  END
$$$$

     RDKit          3D

 32 31  0  0  0  0  0  0  0  0999 V2000
    4.2148    0.8309   -0.1916 C   0  0  0  0  0  0  0  0  0  0  0  0
    3.0356    0.1996   -0.7803 N   0  0  0  0  0  0  0  0  0  0  0  0
    3.2125   -1.2452   -0.5987 C   0  0  0  0  0  0  0  0  0  0  0  0
    1.9113    0.6388    0.0138 C   0  0  0  0  0  0  0  0  0  0  0  0
    0.5928    0.0448   -0.5048 C   0  0  0  0  0  0  0  0  0  0  0  0
   -0.4402    0.5112    0.3075 N   0  0  0  0  0  0  0  0  0  0  0  0
   -1.7675    0.1135    0.0454 C   0  0  2  0  0  0  0  0  0  0  0  0
   -1.8457   -1.3971    0.2125 C   0  0  0  0  0  0  0  0  0  0  0  0
   -2.2910    0.4529   -1.3121 C   0  0  0  0  0  0  0  0  0  0  0  0
   -3.6551   -0.0191   -1.4153 N   0  0  0  0  0  0  0  0  0  0  0  0
   -2.6620    0.6804    1.0822 C   0  0  0  0  0  0  0  0  0  0  0  0
   -2.1902    1.3938    1.9970 O   0  0  0  0  0  0  0  0  0  0  0  0
   -4.0225    0.4344    1.0597 O   0  0  0  0  0  0  0  0  0  0  0  0
    5.0232    0.1000   -0.0213 H   0  0  0  0  0  0  0  0  0  0  0  0
    4.0021    1.3091    0.7802 H   0  0  0  0  0  0  0  0  0  0  0  0
    4.5505    1.6587   -0.8719 H   0  0  0  0  0  0  0  0  0  0  0  0
    2.5474   -1.6317    0.2129 H   0  0  0  0  0  0  0  0  0  0  0  0
    4.2490   -1.4933   -0.2775 H   0  0  0  0  0  0  0  0  0  0  0  0
    3.0478   -1.7830   -1.5592 H   0  0  0  0  0  0  0  0  0  0  0  0
    2.0569    0.3565    1.0618 H   0  0  0  0  0  0  0  0  0  0  0  0
    1.8505    1.7491   -0.0252 H   0  0  0  0  0  0  0  0  0  0  0  0
    0.6673   -1.0686   -0.4058 H   0  0  0  0  0  0  0  0  0  0  0  0
    0.5583    0.2744   -1.5673 H   0  0  0  0  0  0  0  0  0  0  0  0
   -0.2504    0.7695    1.2669 H   0  0  0  0  0  0  0  0  0  0  0  0
   -1.6601   -1.8449   -0.7920 H   0  0  0  0  0  0  0  0  0  0  0  0
   -1.0033   -1.7110    0.8793 H   0  0  0  0  0  0  0  0  0  0  0  0
   -2.8284   -1.7210    0.6398 H   0  0  0  0  0  0  0  0  0  0  0  0
   -1.6997   -0.1278   -2.0614 H   0  0  0  0  0  0  0  0  0  0  0  0
   -2.3118    1.5320   -1.5316 H   0  0  0  0  0  0  0  0  0  0  0  0
   -3.8414   -0.8798   -0.9010 H   0  0  0  0  0  0  0  0  0  0  0  0
   -4.3751    0.6915   -1.2305 H   0  0  0  0  0  0  0  0  0  0  0  0
   -4.6755    1.1809    1.3385 H   0  0  0  0  0  0  0  0  0  0  0  0
  1  2  1  0
  2  3  1  0
  2  4  1  0
  4  5  1  0
  5  6  1  0
  7  6  1  1
  7  8  1  0
  7  9  1  0
  9 10  1  0
  7 11  1  0
 11 12  2  0
 11 13  1  0
  1 14  1  0
  1 15  1  0
  1 16  1  0
  3 17  1  0
  3 18  1  0
  3 19  1  0
  4 20  1  0
  4 21  1  0
  5 22  1  0
  5 23  1  0
  6 24  1  0
  8 25  1  0
  8 26  1  0
  8 27  1  0
  9 28  1  0
  9 29  1  0
 10 30  1  0
 10 31  1  0
 13 32  1  0
M  END
$$$$

     RDKit          3D

 32 31  0  0  0  0  0  0  0  0999 V2000
    4.1909   -0.3594   -1.1557 C   0  0  0  0  0  0  0  0  0  0  0  0
    3.0238   -0.0767   -0.3969 N   0  0  0  0  0  0  0  0  0  0  0  0
    3.0887   -0.1566    1.0018 C   0  0  0  0  0  0  0  0  0  0  0  0
    1.7957   -0.2326   -1.0573 C   0  0  0  0  0  0  0  0  0  0  0  0
    0.6595    0.0993   -0.0577 C   0  0  0  0  0  0  0  0  0  0  0  0
   -0.5654   -0.0560   -0.7199 N   0  0  0  0  0  0  0  0  0  0  0  0
   -1.7431    0.0896    0.0217 C   0  0  2  0  0  0  0  0  0  0  0  0
   -1.7380   -0.9882    1.1234 C   0  0  0  0  0  0  0  0  0  0  0  0
   -2.9861   -0.2002   -0.8391 C   0  0  0  0  0  0  0  0  0  0  0  0
   -4.1399   -0.0660   -0.0285 N   0  0  0  0  0  0  0  0  0  0  0  0
   -1.8547    1.4020    0.6681 C   0  0  0  0  0  0  0  0  0  0  0  0
   -0.8733    2.1193    1.0323 O   0  0  0  0  0  0  0  0  0  0  0  0
   -3.1327    1.9402    0.9152 O   0  0  0  0  0  0  0  0  0  0  0  0
    4.0287   -1.2546   -1.8098 H   0  0  0  0  0  0  0  0  0  0  0  0
    4.3942    0.4662   -1.8714 H   0  0  0  0  0  0  0  0  0  0  0  0
    5.1130   -0.4827   -0.5524 H   0  0  0  0  0  0  0  0  0  0  0  0
    4.1282    0.1098    1.3335 H   0  0  0  0  0  0  0  0  0  0  0  0
    2.3852    0.5987    1.4560 H   0  0  0  0  0  0  0  0  0  0  0  0
    2.7696   -1.1445    1.4130 H   0  0  0  0  0  0  0  0  0  0  0  0
    1.7078    0.5300   -1.8949 H   0  0  0  0  0  0  0  0  0  0  0  0
    1.6730   -1.2287   -1.4958 H   0  0  0  0  0  0  0  0  0  0  0  0
    0.8590   -0.5444    0.8172 H   0  0  0  0  0  0  0  0  0  0  0  0
    0.8464    1.1409    0.3038 H   0  0  0  0  0  0  0  0  0  0  0  0
   -0.5746   -0.5312   -1.6168 H   0  0  0  0  0  0  0  0  0  0  0  0
   -1.9194   -0.5076    2.1246 H   0  0  0  0  0  0  0  0  0  0  0  0
   -2.5576   -1.7122    0.9386 H   0  0  0  0  0  0  0  0  0  0  0  0
   -0.8099   -1.5600    1.1572 H   0  0  0  0  0  0  0  0  0  0  0  0
   -2.9953    0.4667   -1.7261 H   0  0  0  0  0  0  0  0  0  0  0  0
   -2.8890   -1.2340   -1.1910 H   0  0  0  0  0  0  0  0  0  0  0  0
   -4.7676    0.6940   -0.2580 H   0  0  0  0  0  0  0  0  0  0  0  0
   -3.9132   -0.1459    0.9652 H   0  0  0  0  0  0  0  0  0  0  0  0
   -3.2039    2.8250    1.3998 H   0  0  0  0  0  0  0  0  0  0  0  0
  1  2  1  0
  2  3  1  0
  2  4  1  0
  4  5  1  0
  5  6  1  0
  7  6  1  6
  7  8  1  0
  7  9  1  0
  9 10  1  0
  7 11  1  0
 11 12  2  0
 11 13  1  0
  1 14  1  0
  1 15  1  0
  1 16  1  0
  3 17  1  0
  3 18  1  0
  3 19  1  0
  4 20  1  0
  4 21  1  0
  5 22  1  0
  5 23  1  0
  6 24  1  0
  8 25  1  0
  8 26  1  0
  8 27  1  0
  9 28  1  0
  9 29  1  0
 10 30  1  0
 10 31  1  0
 13 32  1  0
M  END
$$$$

     RDKit          3D

 32 31  0  0  0  0  0  0  0  0999 V2000
    2.5931   -0.0120   -1.1458 C   0  0  0  0  0  0  0  0  0  0  0  0
    2.3181    0.4178    0.2121 N   0  0  0  0  0  0  0  0  0  0  0  0
    3.5475    0.9526    0.7617 C   0  0  0  0  0  0  0  0  0  0  0  0
    1.8976   -0.6902    1.0470 C   0  0  0  0  0  0  0  0  0  0  0  0
    0.5129   -1.1685    0.5758 C   0  0  0  0  0  0  0  0  0  0  0  0
   -0.3623   -0.0734    0.7069 N   0  0  0  0  0  0  0  0  0  0  0  0
   -1.7125   -0.2229    0.3489 C   0  0  2  0  0  0  0  0  0  0  0  0
   -1.8485   -0.5482   -1.1452 C   0  0  0  0  0  0  0  0  0  0  0  0
   -2.3676    1.1611    0.5140 C   0  0  0  0  0  0  0  0  0  0  0  0
   -1.7041    2.0902   -0.3467 N   0  0  0  0  0  0  0  0  0  0  0  0
   -2.4929   -1.2043    1.0801 C   0  0  0  0  0  0  0  0  0  0  0  0
   -1.9651   -1.8832    1.9884 O   0  0  0  0  0  0  0  0  0  0  0  0
   -3.8267   -1.4328    0.8169 O   0  0  0  0  0  0  0  0  0  0  0  0
    2.9198   -1.0724   -1.0810 H   0  0  0  0  0  0  0  0  0  0  0  0
    3.4307    0.5797   -1.5330 H   0  0  0  0  0  0  0  0  0  0  0  0
    1.6852    0.0673   -1.7935 H   0  0  0  0  0  0  0  0  0  0  0  0
    4.3791    0.8951    0.0370 H   0  0  0  0  0  0  0  0  0  0  0  0
    3.8391    0.4277    1.7140 H   0  0  0  0  0  0  0  0  0  0  0  0
    3.4445    2.0262    1.0369 H   0  0  0  0  0  0  0  0  0  0  0  0
    2.6378   -1.4886    1.0002 H   0  0  0  0  0  0  0  0  0  0  0  0
    1.8424   -0.3092    2.0852 H   0  0  0  0  0  0  0  0  0  0  0  0
    0.2855   -2.0483    1.1979 H   0  0  0  0  0  0  0  0  0  0  0  0
    0.6764   -1.5314   -0.4652 H   0  0  0  0  0  0  0  0  0  0  0  0
    0.0426    0.7436    0.1919 H   0  0  0  0  0  0  0  0  0  0  0  0
   -2.8997   -0.8583   -1.3722 H   0  0  0  0  0  0  0  0  0  0  0  0
   -1.6166    0.3446   -1.7353 H   0  0  0  0  0  0  0  0  0  0  0  0
   -1.1435   -1.3506   -1.3621 H   0  0  0  0  0  0  0  0  0  0  0  0
   -3.4436    1.1021    0.2879 H   0  0  0  0  0  0  0  0  0  0  0  0
   -2.2384    1.4992    1.5675 H   0  0  0  0  0  0  0  0  0  0  0  0
   -2.2924    2.1966   -1.2044 H   0  0  0  0  0  0  0  0  0  0  0  0
   -1.6253    3.0098    0.1395 H   0  0  0  0  0  0  0  0  0  0  0  0
   -4.5132   -1.6194    1.5665 H   0  0  0  0  0  0  0  0  0  0  0  0
  1  2  1  0
  2  3  1  0
  2  4  1  0
  4  5  1  0
  5  6  1  0
  7  6  1  1
  7  8  1  0
  7  9  1  0
  9 10  1  0
  7 11  1  0
 11 12  2  0
 11 13  1  0
  1 14  1  0
  1 15  1  0
  1 16  1  0
  3 17  1  0
  3 18  1  0
  3 19  1  0
  4 20  1  0
  4 21  1  0
  5 22  1  0
  5 23  1  0
  6 24  1  0
  8 25  1  0
  8 26  1  0
  8 27  1  0
  9 28  1  0
  9 29  1  0
 10 30  1  0
 10 31  1  0
 13 32  1  0
M  END
$$$$

     RDKit          3D

 32 31  0  0  0  0  0  0  0  0999 V2000
    3.3502   -0.3268    1.3490 C   0  0  0  0  0  0  0  0  0  0  0  0
    2.5614    0.6551    0.6604 N   0  0  0  0  0  0  0  0  0  0  0  0
    3.4091    1.5656   -0.0437 C   0  0  0  0  0  0  0  0  0  0  0  0
    1.5205    0.0625   -0.1594 C   0  0  0  0  0  0  0  0  0  0  0  0
    0.5199   -0.5574    0.7806 C   0  0  0  0  0  0  0  0  0  0  0  0
   -0.5392   -1.1965    0.1398 N   0  0  0  0  0  0  0  0  0  0  0  0
   -1.5233   -0.5232   -0.5833 C   0  0  2  0  0  0  0  0  0  0  0  0
   -1.1362    0.2313   -1.8085 C   0  0  0  0  0  0  0  0  0  0  0  0
   -2.2858    0.4783    0.3184 C   0  0  0  0  0  0  0  0  0  0  0  0
   -3.2683    1.1114   -0.5291 N   0  0  0  0  0  0  0  0  0  0  0  0
   -2.5915   -1.5119   -0.9647 C   0  0  0  0  0  0  0  0  0  0  0  0
   -2.4446   -2.6933   -0.5851 O   0  0  0  0  0  0  0  0  0  0  0  0
   -3.7030   -1.1876   -1.6977 O   0  0  0  0  0  0  0  0  0  0  0  0
    3.6524   -1.1746    0.6998 H   0  0  0  0  0  0  0  0  0  0  0  0
    4.2733    0.1712    1.7006 H   0  0  0  0  0  0  0  0  0  0  0  0
    2.8617   -0.7527    2.2405 H   0  0  0  0  0  0  0  0  0  0  0  0
    3.0477    2.5976    0.1829 H   0  0  0  0  0  0  0  0  0  0  0  0
    4.4581    1.5233    0.3506 H   0  0  0  0  0  0  0  0  0  0  0  0
    3.4398    1.4272   -1.1326 H   0  0  0  0  0  0  0  0  0  0  0  0
    1.0214    0.9356   -0.6580 H   0  0  0  0  0  0  0  0  0  0  0  0
    1.8765   -0.6440   -0.9039 H   0  0  0  0  0  0  0  0  0  0  0  0
    0.2388    0.1429    1.5982 H   0  0  0  0  0  0  0  0  0  0  0  0
    1.1116   -1.3558    1.3333 H   0  0  0  0  0  0  0  0  0  0  0  0
   -0.4993   -2.2159    0.1350 H   0  0  0  0  0  0  0  0  0  0  0  0
   -1.9869    0.1156   -2.5523 H   0  0  0  0  0  0  0  0  0  0  0  0
   -0.2481   -0.1347   -2.3425 H   0  0  0  0  0  0  0  0  0  0  0  0
   -1.0527    1.3224   -1.6954 H   0  0  0  0  0  0  0  0  0  0  0  0
   -2.8120   -0.1118    1.0835 H   0  0  0  0  0  0  0  0  0  0  0  0
   -1.5756    1.1966    0.7657 H   0  0  0  0  0  0  0  0  0  0  0  0
   -4.2002    0.6462   -0.3721 H   0  0  0  0  0  0  0  0  0  0  0  0
   -3.3591    2.1374   -0.3277 H   0  0  0  0  0  0  0  0  0  0  0  0
   -4.1167   -1.9342   -2.2623 H   0  0  0  0  0  0  0  0  0  0  0  0
  1  2  1  0
  2  3  1  0
  2  4  1  0
  4  5  1  0
  5  6  1  0
  7  6  1  1
  7  8  1  0
  7  9  1  0
  9 10  1  0
  7 11  1  0
 11 12  2  0
 11 13  1  0
  1 14  1  0
  1 15  1  0
  1 16  1  0
  3 17  1  0
  3 18  1  0
  3 19  1  0
  4 20  1  0
  4 21  1  0
  5 22  1  0
  5 23  1  0
  6 24  1  0
  8 25  1  0
  8 26  1  0
  8 27  1  0
  9 28  1  0
  9 29  1  0
 10 30  1  0
 10 31  1  0
 13 32  1  0
M  END
$$$$

     RDKit          3D

 32 31  0  0  0  0  0  0  0  0999 V2000
    3.3556   -0.6165   -1.2802 C   0  0  0  0  0  0  0  0  0  0  0  0
    3.0112    0.4380   -0.3874 N   0  0  0  0  0  0  0  0  0  0  0  0
    4.1071    1.1105    0.2175 C   0  0  0  0  0  0  0  0  0  0  0  0
    1.8813    0.2014    0.4435 C   0  0  0  0  0  0  0  0  0  0  0  0
    0.5667    0.1421   -0.2472 C   0  0  0  0  0  0  0  0  0  0  0  0
   -0.4446   -0.1202    0.7560 N   0  0  0  0  0  0  0  0  0  0  0  0
   -1.7630   -0.2234    0.2458 C   0  0  2  0  0  0  0  0  0  0  0  0
   -1.8471   -1.3890   -0.7192 C   0  0  0  0  0  0  0  0  0  0  0  0
   -2.3235    1.0292   -0.3688 C   0  0  0  0  0  0  0  0  0  0  0  0
   -3.6568    0.8533   -0.8773 N   0  0  0  0  0  0  0  0  0  0  0  0
   -2.6296   -0.6547    1.4081 C   0  0  0  0  0  0  0  0  0  0  0  0
   -2.1772   -0.8609    2.5488 O   0  0  0  0  0  0  0  0  0  0  0  0
   -3.9926   -0.8363    1.2241 O   0  0  0  0  0  0  0  0  0  0  0  0
    3.2413   -1.5867   -0.7316 H   0  0  0  0  0  0  0  0  0  0  0  0
    4.4271   -0.5534   -1.5461 H   0  0  0  0  0  0  0  0  0  0  0  0
    2.7628   -0.6669   -2.1952 H   0  0  0  0  0  0  0  0  0  0  0  0
    4.3193    0.6330    1.2023 H   0  0  0  0  0  0  0  0  0  0  0  0
    3.9208    2.1945    0.4325 H   0  0  0  0  0  0  0  0  0  0  0  0
    5.0046    1.0073   -0.4234 H   0  0  0  0  0  0  0  0  0  0  0  0
    1.8536    0.9720    1.2394 H   0  0  0  0  0  0  0  0  0  0  0  0
    2.0368   -0.7762    0.9579 H   0  0  0  0  0  0  0  0  0  0  0  0
    0.6043   -0.7216   -0.9650 H   0  0  0  0  0  0  0  0  0  0  0  0
    0.3920    1.0727   -0.7959 H   0  0  0  0  0  0  0  0  0  0  0  0
   -0.3284    0.4441    1.6038 H   0  0  0  0  0  0  0  0  0  0  0  0
   -1.2560   -1.2102   -1.6398 H   0  0  0  0  0  0  0  0  0  0  0  0
   -2.9136   -1.6123   -0.9318 H   0  0  0  0  0  0  0  0  0  0  0  0
   -1.4507   -2.2767   -0.1930 H   0  0  0  0  0  0  0  0  0  0  0  0
   -1.6614    1.3428   -1.1966 H   0  0  0  0  0  0  0  0  0  0  0  0
   -2.3855    1.8661    0.3608 H   0  0  0  0  0  0  0  0  0  0  0  0
   -3.7296    0.9390   -1.8985 H   0  0  0  0  0  0  0  0  0  0  0  0
   -4.3835    1.3485   -0.3385 H   0  0  0  0  0  0  0  0  0  0  0  0
   -4.5413   -1.4894    1.7721 H   0  0  0  0  0  0  0  0  0  0  0  0
  1  2  1  0
  2  3  1  0
  2  4  1  0
  4  5  1  0
  5  6  1  0
  7  6  1  1
  7  8  1  0
  7  9  1  0
  9 10  1  0
  7 11  1  0
 11 12  2  0
 11 13  1  0
  1 14  1  0
  1 15  1  0
  1 16  1  0
  3 17  1  0
  3 18  1  0
  3 19  1  0
  4 20  1  0
  4 21  1  0
  5 22  1  0
  5 23  1  0
  6 24  1  0
  8 25  1  0
  8 26  1  0
  8 27  1  0
  9 28  1  0
  9 29  1  0
 10 30  1  0
 10 31  1  0
 13 32  1  0
M  END
$$$$
