
     RDKit          3D

 24 25  0  0  0  0  0  0  0  0999 V2000
   -0.6200   -2.0898    1.1804 O   0  0  0  0  0  0  0  0  0  0  0  0
   -1.4799   -1.3384    0.6945 C   0  0  0  0  0  0  0  0  0  0  0  0
   -2.7705   -1.8485    0.4402 O   0  0  0  0  0  0  0  0  0  0  0  0
   -1.1950    0.0661    0.3748 C   0  0  0  0  0  0  0  0  0  0  0  0
    0.1456    0.4868    0.6118 N   0  0  0  0  0  0  0  0  0  0  0  0
    1.0444   -0.2269   -0.2660 C   0  0  0  0  0  0  0  0  0  0  0  0
    2.4490    0.2159   -0.0391 C   0  0  0  0  0  0  0  0  0  0  0  0
    3.4920   -0.2533   -0.7313 N   0  0  0  0  0  0  0  0  0  0  0  0
    4.6133    0.3604   -0.2687 C   0  0  0  0  0  0  0  0  0  0  0  0
    4.1749    1.1881    0.7030 N   0  0  0  0  0  0  0  0  0  0  0  0
    2.8741    1.0898    0.8284 O   0  0  0  0  0  0  0  0  0  0  0  0
   -2.2710    1.0487    0.7754 C   0  0  0  0  0  0  0  0  0  0  0  0
   -2.8690    0.8899   -0.5258 N   0  0  0  0  0  0  0  0  0  0  0  0
   -1.6058    0.4459   -1.0375 C   0  0  0  0  0  0  0  0  0  0  0  0
   -2.8291   -2.8763    0.4089 H   0  0  0  0  0  0  0  0  0  0  0  0
    0.4189    0.2844    1.5957 H   0  0  0  0  0  0  0  0  0  0  0  0
    1.0368   -1.3220   -0.1535 H   0  0  0  0  0  0  0  0  0  0  0  0
    0.7405   -0.0338   -1.3345 H   0  0  0  0  0  0  0  0  0  0  0  0
    5.6146    0.1919   -0.6291 H   0  0  0  0  0  0  0  0  0  0  0  0
   -2.8714    0.6694    1.5993 H   0  0  0  0  0  0  0  0  0  0  0  0
   -1.8781    2.0579    0.9961 H   0  0  0  0  0  0  0  0  0  0  0  0
   -3.5765    0.1239   -0.5142 H   0  0  0  0  0  0  0  0  0  0  0  0
   -1.6051   -0.4281   -1.6955 H   0  0  0  0  0  0  0  0  0  0  0  0
   -1.0327    1.2980   -1.4623 H   0  0  0  0  0  0  0  0  0  0  0  0
  1  2  2  0
  2  3  1  0
  2  4  1  0
  4  5  1  0
  5  6  1  0
  6  7  1  0
  7  8  2  0
  8  9  1  0
  9 10  2  0
 10 11  1  0
  4 12  1  0
 12 13  1  0
 13 14  1  0
 14  4  1  0
 11  7  1  0
  3 15  1  0
  5 16  1  0
  6 17  1  0
  6 18  1  0
  9 19  1  0
 12 20  1  0
 12 21  1  0
 13 22  1  0
 14 23  1  0
 14 24  1  0
M  END
$$$$

     RDKit          3D

 24 25  0  0  0  0  0  0  0  0999 V2000
   -0.5847    0.0590    2.3036 O   0  0  0  0  0  0  0  0  0  0  0  0
   -0.7593    0.5916    1.2032 C   0  0  0  0  0  0  0  0  0  0  0  0
   -0.5715    1.9754    1.1487 O   0  0  0  0  0  0  0  0  0  0  0  0
   -1.1975   -0.1293   -0.0338 C   0  0  0  0  0  0  0  0  0  0  0  0
   -0.1128   -0.5055   -0.8959 N   0  0  0  0  0  0  0  0  0  0  0  0
    0.8639   -1.1475   -0.1312 C   0  0  0  0  0  0  0  0  0  0  0  0
    2.1143   -0.3228   -0.0447 C   0  0  0  0  0  0  0  0  0  0  0  0
    3.2564   -0.4603   -0.7011 N   0  0  0  0  0  0  0  0  0  0  0  0
    4.0753    0.4623   -0.2515 C   0  0  0  0  0  0  0  0  0  0  0  0
    3.4605    1.2313    0.6283 N   0  0  0  0  0  0  0  0  0  0  0  0
    2.2699    0.7191    0.7662 O   0  0  0  0  0  0  0  0  0  0  0  0
   -2.3543    0.6005   -0.6514 C   0  0  0  0  0  0  0  0  0  0  0  0
   -3.1834   -0.0940    0.3435 N   0  0  0  0  0  0  0  0  0  0  0  0
   -2.2255   -1.2044    0.2174 C   0  0  0  0  0  0  0  0  0  0  0  0
    0.2438    2.3976    1.6461 H   0  0  0  0  0  0  0  0  0  0  0  0
    0.1783    0.1951   -1.5619 H   0  0  0  0  0  0  0  0  0  0  0  0
    0.5335   -1.4236    0.9056 H   0  0  0  0  0  0  0  0  0  0  0  0
    1.1981   -2.1156   -0.5799 H   0  0  0  0  0  0  0  0  0  0  0  0
    5.1541    0.4598   -0.5307 H   0  0  0  0  0  0  0  0  0  0  0  0
   -2.2490    1.6885   -0.4892 H   0  0  0  0  0  0  0  0  0  0  0  0
   -2.5943    0.2700   -1.6744 H   0  0  0  0  0  0  0  0  0  0  0  0
   -3.0358    0.3227    1.3011 H   0  0  0  0  0  0  0  0  0  0  0  0
   -2.0962   -1.8080    1.1276 H   0  0  0  0  0  0  0  0  0  0  0  0
   -2.3836   -1.7618   -0.7307 H   0  0  0  0  0  0  0  0  0  0  0  0
  1  2  2  0
  2  3  1  0
  2  4  1  0
  4  5  1  0
  5  6  1  0
  6  7  1  0
  7  8  2  0
  8  9  1  0
  9 10  2  0
 10 11  1  0
  4 12  1  0
 12 13  1  0
 13 14  1  0
 14  4  1  0
 11  7  1  0
  3 15  1  0
  5 16  1  0
  6 17  1  0
  6 18  1  0
  9 19  1  0
 12 20  1  0
 12 21  1  0
 13 22  1  0
 14 23  1  0
 14 24  1  0
M  END
$$$$

     RDKit          3D

 24 25  0  0  0  0  0  0  0  0999 V2000
   -0.5009   -1.5607   -2.0133 O   0  0  0  0  0  0  0  0  0  0  0  0
   -1.4131   -0.8226   -1.5811 C   0  0  0  0  0  0  0  0  0  0  0  0
   -2.5798   -0.7007   -2.3342 O   0  0  0  0  0  0  0  0  0  0  0  0
   -1.2265   -0.1112   -0.2996 C   0  0  0  0  0  0  0  0  0  0  0  0
    0.0115   -0.2560    0.3718 N   0  0  0  0  0  0  0  0  0  0  0  0
    1.0836    0.2953   -0.4039 C   0  0  0  0  0  0  0  0  0  0  0  0
    2.4051    0.1458    0.3204 C   0  0  0  0  0  0  0  0  0  0  0  0
    3.2410   -0.9035    0.2214 N   0  0  0  0  0  0  0  0  0  0  0  0
    4.3163   -0.6901    1.0057 C   0  0  0  0  0  0  0  0  0  0  0  0
    4.0973    0.5256    1.5803 N   0  0  0  0  0  0  0  0  0  0  0  0
    2.9484    0.9802    1.1405 O   0  0  0  0  0  0  0  0  0  0  0  0
   -1.7241    1.3125   -0.2846 C   0  0  0  0  0  0  0  0  0  0  0  0
   -2.3194    1.0299    1.0334 N   0  0  0  0  0  0  0  0  0  0  0  0
   -2.4639   -0.3369    0.5624 C   0  0  0  0  0  0  0  0  0  0  0  0
   -2.5430   -0.7267   -3.3622 H   0  0  0  0  0  0  0  0  0  0  0  0
    0.2257   -1.2056    0.7411 H   0  0  0  0  0  0  0  0  0  0  0  0
    1.1580   -0.1793   -1.3937 H   0  0  0  0  0  0  0  0  0  0  0  0
    0.9072    1.3856   -0.6161 H   0  0  0  0  0  0  0  0  0  0  0  0
    5.1690   -1.3535    1.1425 H   0  0  0  0  0  0  0  0  0  0  0  0
   -2.5192    1.5332   -1.0228 H   0  0  0  0  0  0  0  0  0  0  0  0
   -0.9438    2.0714   -0.2403 H   0  0  0  0  0  0  0  0  0  0  0  0
   -1.6112    1.0575    1.7964 H   0  0  0  0  0  0  0  0  0  0  0  0
   -3.3541   -0.3915   -0.0725 H   0  0  0  0  0  0  0  0  0  0  0  0
   -2.3641   -1.0988    1.3327 H   0  0  0  0  0  0  0  0  0  0  0  0
  1  2  2  0
  2  3  1  0
  2  4  1  0
  4  5  1  0
  5  6  1  0
  6  7  1  0
  7  8  2  0
  8  9  1  0
  9 10  2  0
 10 11  1  0
  4 12  1  0
 12 13  1  0
 13 14  1  0
 14  4  1  0
 11  7  1  0
  3 15  1  0
  5 16  1  0
  6 17  1  0
  6 18  1  0
  9 19  1  0
 12 20  1  0
 12 21  1  0
 13 22  1  0
 14 23  1  0
 14 24  1  0
M  END
$$$$

     RDKit          3D

 24 25  0  0  0  0  0  0  0  0999 V2000
   -1.0891   -2.3386    0.5667 O   0  0  0  0  0  0  0  0  0  0  0  0
   -1.7681   -1.3048    0.4504 C   0  0  0  0  0  0  0  0  0  0  0  0
   -3.1364   -1.4258    0.4043 O   0  0  0  0  0  0  0  0  0  0  0  0
   -1.1151    0.0079    0.3660 C   0  0  0  0  0  0  0  0  0  0  0  0
    0.3093    0.0377    0.4175 N   0  0  0  0  0  0  0  0  0  0  0  0
    0.9746   -0.6251   -0.6554 C   0  0  0  0  0  0  0  0  0  0  0  0
    2.4511   -0.5226   -0.4730 C   0  0  0  0  0  0  0  0  0  0  0  0
    3.1138    0.6131   -0.2354 N   0  0  0  0  0  0  0  0  0  0  0  0
    4.4302    0.3259   -0.1282 C   0  0  0  0  0  0  0  0  0  0  0  0
    4.5302   -1.0006   -0.3066 N   0  0  0  0  0  0  0  0  0  0  0  0
    3.3465   -1.4791   -0.5088 O   0  0  0  0  0  0  0  0  0  0  0  0
   -1.8248    0.9950    1.2703 C   0  0  0  0  0  0  0  0  0  0  0  0
   -2.7114    1.2826    0.1348 N   0  0  0  0  0  0  0  0  0  0  0  0
   -1.6328    0.8914   -0.7636 C   0  0  0  0  0  0  0  0  0  0  0  0
   -3.5567   -2.2493   -0.0283 H   0  0  0  0  0  0  0  0  0  0  0  0
    0.7271    0.9332    0.6725 H   0  0  0  0  0  0  0  0  0  0  0  0
    0.6767   -1.6704   -0.7985 H   0  0  0  0  0  0  0  0  0  0  0  0
    0.7226   -0.0937   -1.6209 H   0  0  0  0  0  0  0  0  0  0  0  0
    5.1979    1.0746    0.0633 H   0  0  0  0  0  0  0  0  0  0  0  0
   -2.3916    0.5230    2.1203 H   0  0  0  0  0  0  0  0  0  0  0  0
   -1.2326    1.8325    1.6326 H   0  0  0  0  0  0  0  0  0  0  0  0
   -3.0154    2.2714    0.0689 H   0  0  0  0  0  0  0  0  0  0  0  0
   -0.9606    1.6869   -1.0768 H   0  0  0  0  0  0  0  0  0  0  0  0
   -2.0451    0.2347   -1.5722 H   0  0  0  0  0  0  0  0  0  0  0  0
  1  2  2  0
  2  3  1  0
  2  4  1  0
  4  5  1  0
  5  6  1  0
  6  7  1  0
  7  8  2  0
  8  9  1  0
  9 10  2  0
 10 11  1  0
  4 12  1  0
 12 13  1  0
 13 14  1  0
 14  4  1  0
 11  7  1  0
  3 15  1  0
  5 16  1  0
  6 17  1  0
  6 18  1  0
  9 19  1  0
 12 20  1  0
 12 21  1  0
 13 22  1  0
 14 23  1  0
 14 24  1  0
M  END
$$$$

     RDKit          3D

 24 25  0  0  0  0  0  0  0  0999 V2000
   -0.5886    1.8945    1.3695 O   0  0  0  0  0  0  0  0  0  0  0  0
   -1.4805    1.1462    0.9011 C   0  0  0  0  0  0  0  0  0  0  0  0
   -2.7747    1.3381    1.3300 O   0  0  0  0  0  0  0  0  0  0  0  0
   -1.1356    0.0913   -0.0829 C   0  0  0  0  0  0  0  0  0  0  0  0
    0.2541    0.0025   -0.3836 N   0  0  0  0  0  0  0  0  0  0  0  0
    1.1307   -0.3619    0.6647 C   0  0  0  0  0  0  0  0  0  0  0  0
    2.5202   -0.3710    0.0975 C   0  0  0  0  0  0  0  0  0  0  0  0
    3.3227    0.7255    0.0810 N   0  0  0  0  0  0  0  0  0  0  0  0
    4.4971    0.4076   -0.4855 C   0  0  0  0  0  0  0  0  0  0  0  0
    4.4039   -0.9051   -0.8187 N   0  0  0  0  0  0  0  0  0  0  0  0
    3.2064   -1.3207   -0.4494 O   0  0  0  0  0  0  0  0  0  0  0  0
   -1.8370   -1.2248    0.1672 C   0  0  0  0  0  0  0  0  0  0  0  0
   -2.9589   -0.7418   -0.6438 N   0  0  0  0  0  0  0  0  0  0  0  0
   -2.0495    0.2072   -1.2889 C   0  0  0  0  0  0  0  0  0  0  0  0
   -3.1242    2.1628    1.7860 H   0  0  0  0  0  0  0  0  0  0  0  0
    0.4830   -0.3888   -1.3210 H   0  0  0  0  0  0  0  0  0  0  0  0
    1.1303    0.3919    1.4710 H   0  0  0  0  0  0  0  0  0  0  0  0
    0.9740   -1.3912    1.0583 H   0  0  0  0  0  0  0  0  0  0  0  0
    5.3332    1.0939   -0.6301 H   0  0  0  0  0  0  0  0  0  0  0  0
   -1.3405   -2.0635   -0.3713 H   0  0  0  0  0  0  0  0  0  0  0  0
   -2.0657   -1.3964    1.2259 H   0  0  0  0  0  0  0  0  0  0  0  0
   -3.7004   -0.3007   -0.0409 H   0  0  0  0  0  0  0  0  0  0  0  0
   -2.5638    1.1832   -1.3916 H   0  0  0  0  0  0  0  0  0  0  0  0
   -1.6362   -0.1785   -2.2443 H   0  0  0  0  0  0  0  0  0  0  0  0
  1  2  2  0
  2  3  1  0
  2  4  1  0
  4  5  1  0
  5  6  1  0
  6  7  1  0
  7  8  2  0
  8  9  1  0
  9 10  2  0
 10 11  1  0
  4 12  1  0
 12 13  1  0
 13 14  1  0
 14  4  1  0
 11  7  1  0
  3 15  1  0
  5 16  1  0
  6 17  1  0
  6 18  1  0
  9 19  1  0
 12 20  1  0
 12 21  1  0
 13 22  1  0
 14 23  1  0
 14 24  1  0
M  END
$$$$

     RDKit          3D

 24 25  0  0  0  0  0  0  0  0999 V2000
   -1.0192   -1.0128    2.2989 O   0  0  0  0  0  0  0  0  0  0  0  0
   -1.1800   -1.1668    1.0875 C   0  0  0  0  0  0  0  0  0  0  0  0
   -1.3277   -2.4861    0.6222 O   0  0  0  0  0  0  0  0  0  0  0  0
   -1.2806   -0.0971    0.0880 C   0  0  0  0  0  0  0  0  0  0  0  0
   -0.3335   -0.2556   -1.0417 N   0  0  0  0  0  0  0  0  0  0  0  0
    0.8369   -0.7120   -0.5244 C   0  0  0  0  0  0  0  0  0  0  0  0
    2.1200   -0.0260   -0.6138 C   0  0  0  0  0  0  0  0  0  0  0  0
    2.7958    0.3253    0.5691 N   0  0  0  0  0  0  0  0  0  0  0  0
    3.9435    0.9785    0.1265 C   0  0  0  0  0  0  0  0  0  0  0  0
    3.8624    0.9572   -1.2013 N   0  0  0  0  0  0  0  0  0  0  0  0
    2.8145    0.3738   -1.5824 O   0  0  0  0  0  0  0  0  0  0  0  0
   -2.6578    0.3012   -0.2664 C   0  0  0  0  0  0  0  0  0  0  0  0
   -2.4313    1.6437    0.2286 N   0  0  0  0  0  0  0  0  0  0  0  0
   -1.0741    1.3011    0.6340 C   0  0  0  0  0  0  0  0  0  0  0  0
   -0.7266   -3.1940    1.1188 H   0  0  0  0  0  0  0  0  0  0  0  0
   -0.8399   -0.8529   -1.7577 H   0  0  0  0  0  0  0  0  0  0  0  0
    1.0801   -1.7220   -1.2232 H   0  0  0  0  0  0  0  0  0  0  0  0
    0.7998   -1.2883    0.4616 H   0  0  0  0  0  0  0  0  0  0  0  0
    4.7444    1.2607    0.7613 H   0  0  0  0  0  0  0  0  0  0  0  0
   -3.4602   -0.1803    0.3471 H   0  0  0  0  0  0  0  0  0  0  0  0
   -2.9082    0.2046   -1.3327 H   0  0  0  0  0  0  0  0  0  0  0  0
   -2.5055    2.3272   -0.5518 H   0  0  0  0  0  0  0  0  0  0  0  0
   -0.3699    1.9294    0.0368 H   0  0  0  0  0  0  0  0  0  0  0  0
   -0.8828    1.3911    1.7151 H   0  0  0  0  0  0  0  0  0  0  0  0
  1  2  2  0
  2  3  1  0
  2  4  1  0
  4  5  1  0
  5  6  1  0
  6  7  1  0
  7  8  2  0
  8  9  1  0
  9 10  2  0
 10 11  1  0
  4 12  1  0
 12 13  1  0
 13 14  1  0
 14  4  1  0
 11  7  1  0
  3 15  1  0
  5 16  1  0
  6 17  1  0
  6 18  1  0
  9 19  1  0
 12 20  1  0
 12 21  1  0
 13 22  1  0
 14 23  1  0
 14 24  1  0
M  END
$$$$

     RDKit          3D

 24 25  0  0  0  0  0  0  0  0999 V2000
   -0.4436    2.5526    0.2360 O   0  0  0  0  0  0  0  0  0  0  0  0
   -1.3816    1.7210    0.1987 C   0  0  0  0  0  0  0  0  0  0  0  0
   -2.6500    2.2053    0.4885 O   0  0  0  0  0  0  0  0  0  0  0  0
   -1.1274    0.2987   -0.1380 C   0  0  0  0  0  0  0  0  0  0  0  0
    0.2328   -0.0535   -0.3575 N   0  0  0  0  0  0  0  0  0  0  0  0
    1.0839    0.0830    0.7747 C   0  0  0  0  0  0  0  0  0  0  0  0
    2.4872   -0.3006    0.4815 C   0  0  0  0  0  0  0  0  0  0  0  0
    3.2995    0.1389   -0.4930 N   0  0  0  0  0  0  0  0  0  0  0  0
    4.4643   -0.5035   -0.3418 C   0  0  0  0  0  0  0  0  0  0  0  0
    4.3554   -1.3237    0.7161 N   0  0  0  0  0  0  0  0  0  0  0  0
    3.1713   -1.1739    1.1744 O   0  0  0  0  0  0  0  0  0  0  0  0
   -1.9196   -0.6618    0.7314 C   0  0  0  0  0  0  0  0  0  0  0  0
   -2.2110   -1.4352   -0.4514 N   0  0  0  0  0  0  0  0  0  0  0  0
   -2.0818   -0.2236   -1.2296 C   0  0  0  0  0  0  0  0  0  0  0  0
   -2.8078    2.8691    1.2543 H   0  0  0  0  0  0  0  0  0  0  0  0
    0.2895   -0.9882   -0.8213 H   0  0  0  0  0  0  0  0  0  0  0  0
    1.0308    1.1164    1.1557 H   0  0  0  0  0  0  0  0  0  0  0  0
    0.6948   -0.6480    1.5466 H   0  0  0  0  0  0  0  0  0  0  0  0
    5.3770   -0.4322   -0.9205 H   0  0  0  0  0  0  0  0  0  0  0  0
   -2.7490   -0.1528    1.2245 H   0  0  0  0  0  0  0  0  0  0  0  0
   -1.3134   -1.2707    1.4322 H   0  0  0  0  0  0  0  0  0  0  0  0
   -3.1981   -1.8002   -0.3878 H   0  0  0  0  0  0  0  0  0  0  0  0
   -1.5708   -0.3498   -2.2030 H   0  0  0  0  0  0  0  0  0  0  0  0
   -3.0323    0.3328   -1.2321 H   0  0  0  0  0  0  0  0  0  0  0  0
  1  2  2  0
  2  3  1  0
  2  4  1  0
  4  5  1  0
  5  6  1  0
  6  7  1  0
  7  8  2  0
  8  9  1  0
  9 10  2  0
 10 11  1  0
  4 12  1  0
 12 13  1  0
 13 14  1  0
 14  4  1  0
 11  7  1  0
  3 15  1  0
  5 16  1  0
  6 17  1  0
  6 18  1  0
  9 19  1  0
 12 20  1  0
 12 21  1  0
 13 22  1  0
 14 23  1  0
 14 24  1  0
M  END
$$$$

     RDKit          3D

 24 25  0  0  0  0  0  0  0  0999 V2000
   -0.7640   -2.5153    0.2282 O   0  0  0  0  0  0  0  0  0  0  0  0
   -1.5757   -1.5685    0.4420 C   0  0  0  0  0  0  0  0  0  0  0  0
   -2.8217   -1.9465    0.9300 O   0  0  0  0  0  0  0  0  0  0  0  0
   -1.1823   -0.1909    0.1784 C   0  0  0  0  0  0  0  0  0  0  0  0
    0.1312    0.0453   -0.2873 N   0  0  0  0  0  0  0  0  0  0  0  0
    1.1931   -0.2981    0.5937 C   0  0  0  0  0  0  0  0  0  0  0  0
    2.5311   -0.0363    0.0435 C   0  0  0  0  0  0  0  0  0  0  0  0
    2.8898    0.4114   -1.1655 N   0  0  0  0  0  0  0  0  0  0  0  0
    4.2198    0.4853   -1.1857 C   0  0  0  0  0  0  0  0  0  0  0  0
    4.6768    0.0806    0.0182 N   0  0  0  0  0  0  0  0  0  0  0  0
    3.6429   -0.2175    0.7107 O   0  0  0  0  0  0  0  0  0  0  0  0
   -1.7668    0.8583    1.0960 C   0  0  0  0  0  0  0  0  0  0  0  0
   -1.9145    1.6942   -0.0942 N   0  0  0  0  0  0  0  0  0  0  0  0
   -2.1771    0.4420   -0.8105 C   0  0  0  0  0  0  0  0  0  0  0  0
   -2.8826   -2.6688    1.6635 H   0  0  0  0  0  0  0  0  0  0  0  0
    0.2447    0.9502   -0.7825 H   0  0  0  0  0  0  0  0  0  0  0  0
    1.0445    0.2831    1.5286 H   0  0  0  0  0  0  0  0  0  0  0  0
    1.1407   -1.3675    0.8646 H   0  0  0  0  0  0  0  0  0  0  0  0
    4.9150    0.7998   -1.9769 H   0  0  0  0  0  0  0  0  0  0  0  0
   -2.7684    0.5922    1.4597 H   0  0  0  0  0  0  0  0  0  0  0  0
   -1.0933    1.3388    1.7996 H   0  0  0  0  0  0  0  0  0  0  0  0
   -2.6937    2.3616   -0.0833 H   0  0  0  0  0  0  0  0  0  0  0  0
   -3.1935    0.0517   -0.6810 H   0  0  0  0  0  0  0  0  0  0  0  0
   -1.7959    0.4148   -1.8461 H   0  0  0  0  0  0  0  0  0  0  0  0
  1  2  2  0
  2  3  1  0
  2  4  1  0
  4  5  1  0
  5  6  1  0
  6  7  1  0
  7  8  2  0
  8  9  1  0
  9 10  2  0
 10 11  1  0
  4 12  1  0
 12 13  1  0
 13 14  1  0
 14  4  1  0
 11  7  1  0
  3 15  1  0
  5 16  1  0
  6 17  1  0
  6 18  1  0
  9 19  1  0
 12 20  1  0
 12 21  1  0
 13 22  1  0
 14 23  1  0
 14 24  1  0
M  END
$$$$
