
     RDKit          3D

 27 28  0  0  0  0  0  0  0  0999 V2000
   -2.6726    0.8423   -0.7214 C   0  0  0  0  0  0  0  0  0  0  0  0
   -1.5751    0.1272   -0.0212 C   0  0  0  0  0  0  0  0  0  0  0  0
   -2.0662   -1.2073    0.4349 C   0  0  0  0  0  0  0  0  0  0  0  0
   -1.1157    0.8158    1.1253 O   0  0  0  0  0  0  0  0  0  0  0  0
   -0.0339    0.0497    1.5249 C   0  0  0  0  0  0  0  0  0  0  0  0
    0.6616   -0.4360    0.2789 C   0  0  2  0  0  0  0  0  0  0  0  0
    1.9839    0.0858    0.1263 N   0  0  0  0  0  0  0  0  0  0  0  0
    2.4090    1.2895    0.4769 N   0  0  0  0  0  0  0  0  0  0  0  0
    3.6839    1.4313    0.1905 N   0  0  0  0  0  0  0  0  0  0  0  0
    4.1158    0.3096   -0.3577 N   0  0  0  0  0  0  0  0  0  0  0  0
    3.0678   -0.5235   -0.3986 C   0  0  0  0  0  0  0  0  0  0  0  0
    3.0843   -1.7419   -0.8729 N   0  0  0  0  0  0  0  0  0  0  0  0
   -0.2874    0.0568   -0.8091 C   0  0  2  0  0  0  0  0  0  0  0  0
    0.0938    1.3612   -1.1011 O   0  0  0  0  0  0  0  0  0  0  0  0
   -3.3903    1.2104    0.0552 H   0  0  0  0  0  0  0  0  0  0  0  0
   -3.2636    0.0683   -1.2937 H   0  0  0  0  0  0  0  0  0  0  0  0
   -2.3671    1.6147   -1.4263 H   0  0  0  0  0  0  0  0  0  0  0  0
   -2.5489   -1.0493    1.4432 H   0  0  0  0  0  0  0  0  0  0  0  0
   -1.2961   -1.9604    0.5829 H   0  0  0  0  0  0  0  0  0  0  0  0
   -2.8676   -1.5830   -0.2235 H   0  0  0  0  0  0  0  0  0  0  0  0
   -0.3188   -0.7677    2.1968 H   0  0  0  0  0  0  0  0  0  0  0  0
    0.6863    0.6983    2.0678 H   0  0  0  0  0  0  0  0  0  0  0  0
    0.6679   -1.5395    0.1966 H   0  0  0  0  0  0  0  0  0  0  0  0
    1.8289    2.0188    0.9134 H   0  0  0  0  0  0  0  0  0  0  0  0
    2.2249   -2.3276   -0.8690 H   0  0  0  0  0  0  0  0  0  0  0  0
   -0.3280   -0.6054   -1.6700 H   0  0  0  0  0  0  0  0  0  0  0  0
   -0.3767    1.7618   -1.8492 H   0  0  0  0  0  0  0  0  0  0  0  0
  1  2  1  0
  2  3  1  0
  2  4  1  0
  4  5  1  0
  5  6  1  0
  6  7  1  0
  7  8  1  0
  8  9  1  0
  9 10  2  0
 10 11  1  0
 11 12  2  3
  6 13  1  0
 13 14  1  0
 13  2  1  0
 11  7  1  0
  1 15  1  0
  1 16  1  0
  1 17  1  0
  3 18  1  0
  3 19  1  0
  3 20  1  0
  5 21  1  0
  5 22  1  0
  6 23  1  1
  8 24  1  0
 12 25  1  0
 13 26  1  6
 14 27  1  0
M  END
$$$$

     RDKit          3D

 27 28  0  0  0  0  0  0  0  0999 V2000
   -1.0635   -0.8578    1.2171 C   0  0  0  0  0  0  0  0  0  0  0  0
   -1.1541   -0.3480   -0.2238 C   0  0  0  0  0  0  0  0  0  0  0  0
   -2.6219   -0.3626   -0.6172 C   0  0  0  0  0  0  0  0  0  0  0  0
   -0.3664   -1.0836   -1.0610 O   0  0  0  0  0  0  0  0  0  0  0  0
    0.3933   -0.2127   -1.8171 C   0  0  0  0  0  0  0  0  0  0  0  0
    0.7436    0.8613   -0.8187 C   0  0  2  0  0  0  0  0  0  0  0  0
    1.6055    0.3778    0.2310 N   0  0  0  0  0  0  0  0  0  0  0  0
    1.9256    1.0880    1.2926 N   0  0  0  0  0  0  0  0  0  0  0  0
    2.7322    0.3749    2.0784 N   0  0  0  0  0  0  0  0  0  0  0  0
    2.9324   -0.8104    1.5122 N   0  0  0  0  0  0  0  0  0  0  0  0
    2.2352   -0.7968    0.3779 C   0  0  0  0  0  0  0  0  0  0  0  0
    2.1785   -1.7696   -0.4496 N   0  0  0  0  0  0  0  0  0  0  0  0
   -0.6626    1.0816   -0.2386 C   0  0  2  0  0  0  0  0  0  0  0  0
   -0.6369    1.6771    0.9867 O   0  0  0  0  0  0  0  0  0  0  0  0
   -0.5298   -0.1335    1.8660 H   0  0  0  0  0  0  0  0  0  0  0  0
   -2.0806   -1.0177    1.6502 H   0  0  0  0  0  0  0  0  0  0  0  0
   -0.5712   -1.8475    1.1870 H   0  0  0  0  0  0  0  0  0  0  0  0
   -3.0310    0.6705   -0.6190 H   0  0  0  0  0  0  0  0  0  0  0  0
   -2.7642   -0.7660   -1.6391 H   0  0  0  0  0  0  0  0  0  0  0  0
   -3.1968   -1.0184    0.0762 H   0  0  0  0  0  0  0  0  0  0  0  0
   -0.2480    0.2858   -2.5955 H   0  0  0  0  0  0  0  0  0  0  0  0
    1.2278   -0.6583   -2.3266 H   0  0  0  0  0  0  0  0  0  0  0  0
    1.1428    1.7704   -1.2679 H   0  0  0  0  0  0  0  0  0  0  0  0
    1.6375    2.0561    1.5506 H   0  0  0  0  0  0  0  0  0  0  0  0
    2.6529   -2.6726   -0.3527 H   0  0  0  0  0  0  0  0  0  0  0  0
   -1.2372    1.6304   -1.0118 H   0  0  0  0  0  0  0  0  0  0  0  0
   -1.2432    2.4819    1.0127 H   0  0  0  0  0  0  0  0  0  0  0  0
  1  2  1  0
  2  3  1  0
  2  4  1  0
  4  5  1  0
  5  6  1  0
  6  7  1  0
  7  8  1  0
  8  9  1  0
  9 10  2  0
 10 11  1  0
 11 12  2  3
  6 13  1  0
 13 14  1  0
 13  2  1  0
 11  7  1  0
  1 15  1  0
  1 16  1  0
  1 17  1  0
  3 18  1  0
  3 19  1  0
  3 20  1  0
  5 21  1  0
  5 22  1  0
  6 23  1  6
  8 24  1  0
 12 25  1  0
 13 26  1  6
 14 27  1  0
M  END
$$$$

     RDKit          3D

 27 28  0  0  0  0  0  0  0  0999 V2000
   -1.3958   -1.1886    0.8613 C   0  0  0  0  0  0  0  0  0  0  0  0
   -1.4929   -0.1559   -0.2142 C   0  0  0  0  0  0  0  0  0  0  0  0
   -2.8552    0.5018   -0.1715 C   0  0  0  0  0  0  0  0  0  0  0  0
   -1.2768   -0.7127   -1.4806 O   0  0  0  0  0  0  0  0  0  0  0  0
    0.1108   -0.8797   -1.5945 C   0  0  0  0  0  0  0  0  0  0  0  0
    0.7466    0.2288   -0.8323 C   0  0  2  0  0  0  0  0  0  0  0  0
    1.7953   -0.1670    0.0509 N   0  0  0  0  0  0  0  0  0  0  0  0
    2.1568   -1.3478    0.5217 N   0  0  0  0  0  0  0  0  0  0  0  0
    3.1941   -1.2629    1.3193 N   0  0  0  0  0  0  0  0  0  0  0  0
    3.5334    0.0106    1.3818 N   0  0  0  0  0  0  0  0  0  0  0  0
    2.6762    0.6990    0.6018 C   0  0  0  0  0  0  0  0  0  0  0  0
    2.7530    1.9816    0.4576 N   0  0  0  0  0  0  0  0  0  0  0  0
   -0.4182    0.8902   -0.1468 C   0  0  2  0  0  0  0  0  0  0  0  0
   -0.1493    1.3544    1.1078 O   0  0  0  0  0  0  0  0  0  0  0  0
   -0.6844   -1.9967    0.6605 H   0  0  0  0  0  0  0  0  0  0  0  0
   -2.4046   -1.6800    0.9433 H   0  0  0  0  0  0  0  0  0  0  0  0
   -1.2367   -0.6961    1.8450 H   0  0  0  0  0  0  0  0  0  0  0  0
   -3.5376   -0.0150   -0.8829 H   0  0  0  0  0  0  0  0  0  0  0  0
   -3.2809    0.3312    0.8584 H   0  0  0  0  0  0  0  0  0  0  0  0
   -2.8044    1.5920   -0.3267 H   0  0  0  0  0  0  0  0  0  0  0  0
    0.3740   -0.8767   -2.6859 H   0  0  0  0  0  0  0  0  0  0  0  0
    0.3384   -1.8846   -1.2289 H   0  0  0  0  0  0  0  0  0  0  0  0
    1.1521    0.9609   -1.5923 H   0  0  0  0  0  0  0  0  0  0  0  0
    1.6736   -2.2397    0.2859 H   0  0  0  0  0  0  0  0  0  0  0  0
    2.0533    2.4512   -0.1643 H   0  0  0  0  0  0  0  0  0  0  0  0
   -0.7883    1.7642   -0.7595 H   0  0  0  0  0  0  0  0  0  0  0  0
   -0.2326    2.3374    1.1851 H   0  0  0  0  0  0  0  0  0  0  0  0
  1  2  1  0
  2  3  1  0
  2  4  1  0
  4  5  1  0
  5  6  1  0
  6  7  1  0
  7  8  1  0
  8  9  1  0
  9 10  2  0
 10 11  1  0
 11 12  2  3
  6 13  1  0
 13 14  1  0
 13  2  1  0
 11  7  1  0
  1 15  1  0
  1 16  1  0
  1 17  1  0
  3 18  1  0
  3 19  1  0
  3 20  1  0
  5 21  1  0
  5 22  1  0
  6 23  1  6
  8 24  1  0
 12 25  1  0
 13 26  1  6
 14 27  1  0
M  END
$$$$

     RDKit          3D

 27 28  0  0  0  0  0  0  0  0999 V2000
   -2.4586    0.6254    0.8778 C   0  0  0  0  0  0  0  0  0  0  0  0
   -1.2707    0.4277   -0.0132 C   0  0  0  0  0  0  0  0  0  0  0  0
   -1.7597    0.3124   -1.4397 C   0  0  0  0  0  0  0  0  0  0  0  0
   -0.4191    1.5183    0.1547 O   0  0  0  0  0  0  0  0  0  0  0  0
    0.2631    1.1591    1.3174 C   0  0  0  0  0  0  0  0  0  0  0  0
    0.7954   -0.2182    0.9008 C   0  0  2  0  0  0  0  0  0  0  0  0
    1.8099   -0.0427   -0.1041 N   0  0  0  0  0  0  0  0  0  0  0  0
    2.1458    1.0776   -0.7277 N   0  0  0  0  0  0  0  0  0  0  0  0
    3.1231    0.8551   -1.5886 N   0  0  0  0  0  0  0  0  0  0  0  0
    3.4272   -0.4325   -1.5229 N   0  0  0  0  0  0  0  0  0  0  0  0
    2.6149   -0.9934   -0.6032 C   0  0  0  0  0  0  0  0  0  0  0  0
    2.6687   -2.2526   -0.3092 N   0  0  0  0  0  0  0  0  0  0  0  0
   -0.4831   -0.8095    0.3055 C   0  0  2  0  0  0  0  0  0  0  0  0
   -0.2014   -1.5814   -0.8060 O   0  0  0  0  0  0  0  0  0  0  0  0
   -3.4134    0.6670    0.2912 H   0  0  0  0  0  0  0  0  0  0  0  0
   -2.5906   -0.2133    1.6037 H   0  0  0  0  0  0  0  0  0  0  0  0
   -2.4292    1.5835    1.4453 H   0  0  0  0  0  0  0  0  0  0  0  0
   -2.5118   -0.4858   -1.4706 H   0  0  0  0  0  0  0  0  0  0  0  0
   -2.2341    1.2483   -1.7752 H   0  0  0  0  0  0  0  0  0  0  0  0
   -0.9342    0.0040   -2.1315 H   0  0  0  0  0  0  0  0  0  0  0  0
   -0.4185    0.9603    2.1698 H   0  0  0  0  0  0  0  0  0  0  0  0
    1.0823    1.8513    1.5681 H   0  0  0  0  0  0  0  0  0  0  0  0
    1.1596   -0.7966    1.7538 H   0  0  0  0  0  0  0  0  0  0  0  0
    1.7309    2.0395   -0.5996 H   0  0  0  0  0  0  0  0  0  0  0  0
    2.0264   -2.6458    0.4044 H   0  0  0  0  0  0  0  0  0  0  0  0
   -1.0067   -1.4302    1.0843 H   0  0  0  0  0  0  0  0  0  0  0  0
   -0.7161   -2.4273   -0.7855 H   0  0  0  0  0  0  0  0  0  0  0  0
  1  2  1  0
  2  3  1  0
  2  4  1  0
  4  5  1  0
  5  6  1  0
  6  7  1  0
  7  8  1  0
  8  9  1  0
  9 10  2  0
 10 11  1  0
 11 12  2  3
  6 13  1  0
 13 14  1  0
 13  2  1  0
 11  7  1  0
  1 15  1  0
  1 16  1  0
  1 17  1  0
  3 18  1  0
  3 19  1  0
  3 20  1  0
  5 21  1  0
  5 22  1  0
  6 23  1  1
  8 24  1  0
 12 25  1  0
 13 26  1  1
 14 27  1  0
M  END
$$$$

     RDKit          3D

 27 28  0  0  0  0  0  0  0  0999 V2000
   -2.7631   -0.7813    0.6323 C   0  0  0  0  0  0  0  0  0  0  0  0
   -1.6131   -0.1473   -0.0880 C   0  0  0  0  0  0  0  0  0  0  0  0
   -2.0208    1.2384   -0.5233 C   0  0  0  0  0  0  0  0  0  0  0  0
   -1.1132   -0.9053   -1.1173 O   0  0  0  0  0  0  0  0  0  0  0  0
    0.2009   -0.5488   -1.3338 C   0  0  0  0  0  0  0  0  0  0  0  0
    0.6501    0.2781   -0.1607 C   0  0  2  0  0  0  0  0  0  0  0  0
    1.9815   -0.0097    0.2768 N   0  0  0  0  0  0  0  0  0  0  0  0
    2.4767   -1.0920    0.8124 N   0  0  0  0  0  0  0  0  0  0  0  0
    3.7726   -0.9488    1.0764 N   0  0  0  0  0  0  0  0  0  0  0  0
    4.0912    0.2729    0.6877 N   0  0  0  0  0  0  0  0  0  0  0  0
    3.0017    0.8635    0.1940 C   0  0  0  0  0  0  0  0  0  0  0  0
    2.9815    2.0672   -0.2712 N   0  0  0  0  0  0  0  0  0  0  0  0
   -0.4083   -0.0808    0.8641 C   0  0  2  0  0  0  0  0  0  0  0  0
   -0.2528   -1.3436    1.3861 O   0  0  0  0  0  0  0  0  0  0  0  0
   -2.9828   -0.1602    1.5266 H   0  0  0  0  0  0  0  0  0  0  0  0
   -3.6578   -0.7791    0.0026 H   0  0  0  0  0  0  0  0  0  0  0  0
   -2.5027   -1.8150    0.9769 H   0  0  0  0  0  0  0  0  0  0  0  0
   -3.0825    1.1967   -0.8433 H   0  0  0  0  0  0  0  0  0  0  0  0
   -1.9955    1.9153    0.3619 H   0  0  0  0  0  0  0  0  0  0  0  0
   -1.4229    1.6271   -1.3542 H   0  0  0  0  0  0  0  0  0  0  0  0
    0.7909   -1.4836   -1.4382 H   0  0  0  0  0  0  0  0  0  0  0  0
    0.2691    0.0564   -2.2596 H   0  0  0  0  0  0  0  0  0  0  0  0
    0.5069    1.3319   -0.4156 H   0  0  0  0  0  0  0  0  0  0  0  0
    1.9699   -1.9678    1.0225 H   0  0  0  0  0  0  0  0  0  0  0  0
    2.1453    2.5322   -0.6546 H   0  0  0  0  0  0  0  0  0  0  0  0
   -0.5452    0.7058    1.6192 H   0  0  0  0  0  0  0  0  0  0  0  0
   -0.4775   -2.0222    0.6934 H   0  0  0  0  0  0  0  0  0  0  0  0
  1  2  1  0
  2  3  1  0
  2  4  1  0
  4  5  1  0
  5  6  1  0
  6  7  1  0
  7  8  1  0
  8  9  1  0
  9 10  2  0
 10 11  1  0
 11 12  2  3
  6 13  1  0
 13 14  1  0
 13  2  1  0
 11  7  1  0
  1 15  1  0
  1 16  1  0
  1 17  1  0
  3 18  1  0
  3 19  1  0
  3 20  1  0
  5 21  1  0
  5 22  1  0
  6 23  1  6
  8 24  1  0
 12 25  1  0
 13 26  1  1
 14 27  1  0
M  END
$$$$

     RDKit          3D

 27 28  0  0  0  0  0  0  0  0999 V2000
    2.7281   -1.1407    0.0340 C   0  0  0  0  0  0  0  0  0  0  0  0
    1.6297   -0.1352   -0.1028 C   0  0  0  0  0  0  0  0  0  0  0  0
    2.1326    1.1593   -0.6474 C   0  0  0  0  0  0  0  0  0  0  0  0
    0.9679    0.1236    1.0975 O   0  0  0  0  0  0  0  0  0  0  0  0
   -0.0871    0.9363    0.6713 C   0  0  0  0  0  0  0  0  0  0  0  0
   -0.5707    0.3115   -0.6455 C   0  0  2  0  0  0  0  0  0  0  0  0
   -1.9124   -0.1349   -0.4736 N   0  0  0  0  0  0  0  0  0  0  0  0
   -2.4971   -1.2954   -0.6617 N   0  0  0  0  0  0  0  0  0  0  0  0
   -3.7840   -1.2327   -0.3630 N   0  0  0  0  0  0  0  0  0  0  0  0
   -4.0112    0.0092    0.0250 N   0  0  0  0  0  0  0  0  0  0  0  0
   -2.8717    0.7037   -0.0352 C   0  0  0  0  0  0  0  0  0  0  0  0
   -2.7710    1.9504    0.2823 N   0  0  0  0  0  0  0  0  0  0  0  0
    0.4573   -0.6858   -0.9304 C   0  0  2  0  0  0  0  0  0  0  0  0
    0.2484   -1.9570   -0.4701 O   0  0  0  0  0  0  0  0  0  0  0  0
    2.4188   -2.1824   -0.1694 H   0  0  0  0  0  0  0  0  0  0  0  0
    3.5070   -0.8776   -0.7375 H   0  0  0  0  0  0  0  0  0  0  0  0
    3.2165   -1.0081    1.0148 H   0  0  0  0  0  0  0  0  0  0  0  0
    3.0650    1.0195   -1.2386 H   0  0  0  0  0  0  0  0  0  0  0  0
    2.4214    1.7983    0.2355 H   0  0  0  0  0  0  0  0  0  0  0  0
    1.4114    1.6979   -1.2808 H   0  0  0  0  0  0  0  0  0  0  0  0
    0.2741    1.9553    0.4680 H   0  0  0  0  0  0  0  0  0  0  0  0
   -0.9154    0.9412    1.4143 H   0  0  0  0  0  0  0  0  0  0  0  0
   -0.5789    1.0852   -1.4582 H   0  0  0  0  0  0  0  0  0  0  0  0
   -2.0225   -2.1367   -0.9946 H   0  0  0  0  0  0  0  0  0  0  0  0
   -3.5695    2.5074    0.6087 H   0  0  0  0  0  0  0  0  0  0  0  0
    0.7912   -0.7557   -1.9895 H   0  0  0  0  0  0  0  0  0  0  0  0
    0.3221   -2.6567   -1.1681 H   0  0  0  0  0  0  0  0  0  0  0  0
  1  2  1  0
  2  3  1  0
  2  4  1  0
  4  5  1  0
  5  6  1  0
  6  7  1  0
  7  8  1  0
  8  9  1  0
  9 10  2  0
 10 11  1  0
 11 12  2  3
  6 13  1  0
 13 14  1  0
 13  2  1  0
 11  7  1  0
  1 15  1  0
  1 16  1  0
  1 17  1  0
  3 18  1  0
  3 19  1  0
  3 20  1  0
  5 21  1  0
  5 22  1  0
  6 23  1  6
  8 24  1  0
 12 25  1  0
 13 26  1  6
 14 27  1  0
M  END
$$$$

     RDKit          3D

 27 28  0  0  0  0  0  0  0  0999 V2000
   -2.2751   -0.1262   -1.2328 C   0  0  0  0  0  0  0  0  0  0  0  0
   -1.6610    0.1061    0.1192 C   0  0  0  0  0  0  0  0  0  0  0  0
   -2.6234    0.7055    1.0747 C   0  0  0  0  0  0  0  0  0  0  0  0
   -1.1262   -1.1117    0.5462 O   0  0  0  0  0  0  0  0  0  0  0  0
    0.0199   -1.3349   -0.1821 C   0  0  0  0  0  0  0  0  0  0  0  0
    0.5518    0.0347   -0.5994 C   0  0  2  0  0  0  0  0  0  0  0  0
    1.9164    0.2158   -0.2331 N   0  0  0  0  0  0  0  0  0  0  0  0
    2.5204    1.2211    0.3592 N   0  0  0  0  0  0  0  0  0  0  0  0
    3.7962    0.9386    0.4915 N   0  0  0  0  0  0  0  0  0  0  0  0
    4.0470   -0.2555   -0.0119 N   0  0  0  0  0  0  0  0  0  0  0  0
    2.8695   -0.7286   -0.4753 C   0  0  0  0  0  0  0  0  0  0  0  0
    2.6829   -1.8707   -1.0449 N   0  0  0  0  0  0  0  0  0  0  0  0
   -0.4087    0.9601    0.0515 C   0  0  2  0  0  0  0  0  0  0  0  0
   -0.0032    1.1334    1.3929 O   0  0  0  0  0  0  0  0  0  0  0  0
   -2.9348   -1.0267   -1.1292 H   0  0  0  0  0  0  0  0  0  0  0  0
   -1.5277   -0.3646   -1.9927 H   0  0  0  0  0  0  0  0  0  0  0  0
   -2.9230    0.6997   -1.5609 H   0  0  0  0  0  0  0  0  0  0  0  0
   -2.5584    0.3032    2.1022 H   0  0  0  0  0  0  0  0  0  0  0  0
   -2.5617    1.8305    1.1103 H   0  0  0  0  0  0  0  0  0  0  0  0
   -3.6696    0.4873    0.7224 H   0  0  0  0  0  0  0  0  0  0  0  0
    0.7904   -1.7600    0.5209 H   0  0  0  0  0  0  0  0  0  0  0  0
   -0.1137   -1.9715   -1.0591 H   0  0  0  0  0  0  0  0  0  0  0  0
    0.4762    0.1096   -1.7032 H   0  0  0  0  0  0  0  0  0  0  0  0
    2.0599    2.0846    0.6655 H   0  0  0  0  0  0  0  0  0  0  0  0
    3.4776   -2.5143   -1.1799 H   0  0  0  0  0  0  0  0  0  0  0  0
   -0.5593    1.9118   -0.4536 H   0  0  0  0  0  0  0  0  0  0  0  0
   -0.2625    0.3227    1.9261 H   0  0  0  0  0  0  0  0  0  0  0  0
  1  2  1  0
  2  3  1  0
  2  4  1  0
  4  5  1  0
  5  6  1  0
  6  7  1  0
  7  8  1  0
  8  9  1  0
  9 10  2  0
 10 11  1  0
 11 12  2  3
  6 13  1  0
 13 14  1  0
 13  2  1  0
 11  7  1  0
  1 15  1  0
  1 16  1  0
  1 17  1  0
  3 18  1  0
  3 19  1  0
  3 20  1  0
  5 21  1  0
  5 22  1  0
  6 23  1  6
  8 24  1  0
 12 25  1  0
 13 26  1  6
 14 27  1  0
M  END
$$$$

     RDKit          3D

 27 28  0  0  0  0  0  0  0  0999 V2000
    2.2278    0.7655   -0.8806 C   0  0  0  0  0  0  0  0  0  0  0  0
    1.6322   -0.0767    0.1989 C   0  0  0  0  0  0  0  0  0  0  0  0
    2.5940   -1.0478    0.8198 C   0  0  0  0  0  0  0  0  0  0  0  0
    1.0454    0.6607    1.2233 O   0  0  0  0  0  0  0  0  0  0  0  0
    0.0032    1.3182    0.5992 C   0  0  0  0  0  0  0  0  0  0  0  0
   -0.5372    0.4273   -0.4669 C   0  0  2  0  0  0  0  0  0  0  0  0
   -1.8834   -0.0145   -0.2878 N   0  0  0  0  0  0  0  0  0  0  0  0
   -2.3441   -1.2374   -0.5400 N   0  0  0  0  0  0  0  0  0  0  0  0
   -3.6235   -1.2898   -0.2644 N   0  0  0  0  0  0  0  0  0  0  0  0
   -3.9918   -0.0979    0.1671 N   0  0  0  0  0  0  0  0  0  0  0  0
   -2.9204    0.7102    0.1592 C   0  0  0  0  0  0  0  0  0  0  0  0
   -2.8728    1.9699    0.5129 N   0  0  0  0  0  0  0  0  0  0  0  0
    0.4021   -0.7734   -0.3668 C   0  0  2  0  0  0  0  0  0  0  0  0
   -0.0268   -1.7088    0.5545 O   0  0  0  0  0  0  0  0  0  0  0  0
    2.3878    1.8051   -0.4859 H   0  0  0  0  0  0  0  0  0  0  0  0
    3.2174    0.3399   -1.1656 H   0  0  0  0  0  0  0  0  0  0  0  0
    1.5584    0.8424   -1.7489 H   0  0  0  0  0  0  0  0  0  0  0  0
    2.3597   -2.0985    0.5333 H   0  0  0  0  0  0  0  0  0  0  0  0
    3.6242   -0.8310    0.5259 H   0  0  0  0  0  0  0  0  0  0  0  0
    2.5579   -1.0222    1.9364 H   0  0  0  0  0  0  0  0  0  0  0  0
   -0.7188    1.5866    1.3997 H   0  0  0  0  0  0  0  0  0  0  0  0
    0.3803    2.2884    0.1988 H   0  0  0  0  0  0  0  0  0  0  0  0
   -0.4623    0.8993   -1.4693 H   0  0  0  0  0  0  0  0  0  0  0  0
   -1.7946   -2.0575   -0.9063 H   0  0  0  0  0  0  0  0  0  0  0  0
   -3.7658    2.3939    0.8400 H   0  0  0  0  0  0  0  0  0  0  0  0
    0.6447   -1.1550   -1.3557 H   0  0  0  0  0  0  0  0  0  0  0  0
    0.3066   -2.5969    0.2691 H   0  0  0  0  0  0  0  0  0  0  0  0
  1  2  1  0
  2  3  1  0
  2  4  1  0
  4  5  1  0
  5  6  1  0
  6  7  1  0
  7  8  1  0
  8  9  1  0
  9 10  2  0
 10 11  1  0
 11 12  2  3
  6 13  1  0
 13 14  1  0
 13  2  1  0
 11  7  1  0
  1 15  1  0
  1 16  1  0
  1 17  1  0
  3 18  1  0
  3 19  1  0
  3 20  1  0
  5 21  1  0
  5 22  1  0
  6 23  1  6
  8 24  1  0
 12 25  1  0
 13 26  1  6
 14 27  1  0
M  END
$$$$
