
     RDKit          3D

 29 30  0  0  0  0  0  0  0  0999 V2000
   -3.2481   -0.6281   -0.9727 C   0  0  0  0  0  0  0  0  0  0  0  0
   -2.1380   -0.0568   -0.1348 C   0  0  1  0  0  0  0  0  0  0  0  0
   -0.8287   -0.6701   -0.4744 C   0  0  0  0  0  0  0  0  0  0  0  0
    0.2836   -0.1728    0.2875 N   0  0  0  0  0  0  0  0  0  0  0  0
    1.4713   -0.8980   -0.1946 C   0  0  0  0  0  0  0  0  0  0  0  0
    2.6992   -0.4497    0.5420 C   0  0  2  0  0  0  0  0  0  0  0  0
    2.9423    1.0286    0.3461 C   0  0  0  0  0  0  0  0  0  0  0  0
    4.3822    0.6043    0.3229 C   0  0  0  0  0  0  0  0  0  0  0  0
    5.4969    1.1259    0.6255 O   0  0  0  0  0  0  0  0  0  0  0  0
    3.9397   -0.6456   -0.1906 N   0  0  0  0  0  0  0  0  0  0  0  0
   -2.1902    1.4540   -0.1339 C   0  0  0  0  0  0  0  0  0  0  0  0
   -3.2459    1.1973    0.9116 C   0  0  0  0  0  0  0  0  0  0  0  0
   -4.2853    1.7050    1.3465 O   0  0  0  0  0  0  0  0  0  0  0  0
   -2.5093    0.0261    1.2375 N   0  0  0  0  0  0  0  0  0  0  0  0
   -2.8737   -0.6684   -2.0226 H   0  0  0  0  0  0  0  0  0  0  0  0
   -3.4148   -1.6815   -0.6716 H   0  0  0  0  0  0  0  0  0  0  0  0
   -4.1764   -0.0538   -0.8967 H   0  0  0  0  0  0  0  0  0  0  0  0
   -0.6209   -0.4974   -1.5485 H   0  0  0  0  0  0  0  0  0  0  0  0
   -0.8955   -1.7568   -0.3226 H   0  0  0  0  0  0  0  0  0  0  0  0
    0.1299   -0.3918    1.2967 H   0  0  0  0  0  0  0  0  0  0  0  0
    1.3460   -1.9910    0.0220 H   0  0  0  0  0  0  0  0  0  0  0  0
    1.5633   -0.7983   -1.2792 H   0  0  0  0  0  0  0  0  0  0  0  0
    2.8080   -0.8338    1.5573 H   0  0  0  0  0  0  0  0  0  0  0  0
    2.6190    1.3551   -0.6538 H   0  0  0  0  0  0  0  0  0  0  0  0
    2.6562    1.6345    1.2030 H   0  0  0  0  0  0  0  0  0  0  0  0
    4.3715   -1.3626   -0.8263 H   0  0  0  0  0  0  0  0  0  0  0  0
   -1.3330    1.9464    0.3793 H   0  0  0  0  0  0  0  0  0  0  0  0
   -2.5630    1.9319   -1.0411 H   0  0  0  0  0  0  0  0  0  0  0  0
   -2.3862   -0.4526    2.1492 H   0  0  0  0  0  0  0  0  0  0  0  0
  2  1  1  6
  2  3  1  0
  3  4  1  0
  4  5  1  0
  5  6  1  0
  6  7  1  0
  7  8  1  0
  8  9  2  0
  8 10  1  0
  2 11  1  0
 11 12  1  0
 12 13  2  0
 12 14  1  0
 14  2  1  0
 10  6  1  0
  1 15  1  0
  1 16  1  0
  1 17  1  0
  3 18  1  0
  3 19  1  0
  4 20  1  0
  5 21  1  0
  5 22  1  0
  6 23  1  1
  7 24  1  0
  7 25  1  0
 10 26  1  0
 11 27  1  0
 11 28  1  0
 14 29  1  0
M  END
$$$$

     RDKit          3D

 29 30  0  0  0  0  0  0  0  0999 V2000
   -1.3165    0.2700    1.5572 C   0  0  0  0  0  0  0  0  0  0  0  0
   -1.8652    0.0733    0.2027 C   0  0  1  0  0  0  0  0  0  0  0  0
   -1.1699   -0.7659   -0.7952 C   0  0  0  0  0  0  0  0  0  0  0  0
    0.1342   -0.4484   -1.2125 N   0  0  0  0  0  0  0  0  0  0  0  0
    1.1249   -0.6612   -0.2257 C   0  0  0  0  0  0  0  0  0  0  0  0
    2.5411   -0.3933   -0.6996 C   0  0  2  0  0  0  0  0  0  0  0  0
    3.4737   -0.6865    0.4952 C   0  0  0  0  0  0  0  0  0  0  0  0
    4.1567    0.5834    0.1217 C   0  0  0  0  0  0  0  0  0  0  0  0
    5.2864    1.0420    0.4163 O   0  0  0  0  0  0  0  0  0  0  0  0
    3.0130    0.9507   -0.6366 N   0  0  0  0  0  0  0  0  0  0  0  0
   -3.3191   -0.4640    0.3337 C   0  0  0  0  0  0  0  0  0  0  0  0
   -3.6721    0.5284   -0.7200 C   0  0  0  0  0  0  0  0  0  0  0  0
   -4.5809    0.6231   -1.5456 O   0  0  0  0  0  0  0  0  0  0  0  0
   -2.5043    1.2709   -0.3260 N   0  0  0  0  0  0  0  0  0  0  0  0
   -2.1926    0.4589    2.2658 H   0  0  0  0  0  0  0  0  0  0  0  0
   -0.8489   -0.6349    1.9775 H   0  0  0  0  0  0  0  0  0  0  0  0
   -0.7125    1.2035    1.6876 H   0  0  0  0  0  0  0  0  0  0  0  0
   -1.8353   -0.8011   -1.7070 H   0  0  0  0  0  0  0  0  0  0  0  0
   -1.2284   -1.8345   -0.4155 H   0  0  0  0  0  0  0  0  0  0  0  0
    0.2704    0.3708   -1.8089 H   0  0  0  0  0  0  0  0  0  0  0  0
    0.9739   -0.0222    0.6588 H   0  0  0  0  0  0  0  0  0  0  0  0
    1.1279   -1.7423    0.1186 H   0  0  0  0  0  0  0  0  0  0  0  0
    2.8948   -0.9438   -1.5669 H   0  0  0  0  0  0  0  0  0  0  0  0
    4.0320   -1.6109    0.3848 H   0  0  0  0  0  0  0  0  0  0  0  0
    2.9895   -0.5406    1.4867 H   0  0  0  0  0  0  0  0  0  0  0  0
    2.6804    1.8643   -0.9896 H   0  0  0  0  0  0  0  0  0  0  0  0
   -3.7818   -0.2496    1.3044 H   0  0  0  0  0  0  0  0  0  0  0  0
   -3.4249   -1.5168    0.0361 H   0  0  0  0  0  0  0  0  0  0  0  0
   -2.2465    2.2540   -0.3979 H   0  0  0  0  0  0  0  0  0  0  0  0
  2  1  1  1
  2  3  1  0
  3  4  1  0
  4  5  1  0
  5  6  1  0
  6  7  1  0
  7  8  1  0
  8  9  2  0
  8 10  1  0
  2 11  1  0
 11 12  1  0
 12 13  2  0
 12 14  1  0
 14  2  1  0
 10  6  1  0
  1 15  1  0
  1 16  1  0
  1 17  1  0
  3 18  1  0
  3 19  1  0
  4 20  1  0
  5 21  1  0
  5 22  1  0
  6 23  1  6
  7 24  1  0
  7 25  1  0
 10 26  1  0
 11 27  1  0
 11 28  1  0
 14 29  1  0
M  END
$$$$

     RDKit          3D

 29 30  0  0  0  0  0  0  0  0999 V2000
   -3.2292   -0.5527   -1.0276 C   0  0  0  0  0  0  0  0  0  0  0  0
   -2.0059   -0.1740   -0.1820 C   0  0  1  0  0  0  0  0  0  0  0  0
   -0.8718    0.1438   -1.0662 C   0  0  0  0  0  0  0  0  0  0  0  0
    0.3573    0.5434   -0.5320 N   0  0  0  0  0  0  0  0  0  0  0  0
    1.0808   -0.4677    0.1685 C   0  0  0  0  0  0  0  0  0  0  0  0
    2.4190    0.1701    0.5563 C   0  0  2  0  0  0  0  0  0  0  0  0
    3.2280    0.6395   -0.6387 C   0  0  0  0  0  0  0  0  0  0  0  0
    4.3655    0.2158    0.2084 C   0  0  0  0  0  0  0  0  0  0  0  0
    5.5651    0.4809    0.4480 O   0  0  0  0  0  0  0  0  0  0  0  0
    3.4788   -0.7739    0.7615 N   0  0  0  0  0  0  0  0  0  0  0  0
   -2.3885    0.8914    0.8205 C   0  0  0  0  0  0  0  0  0  0  0  0
   -2.8917   -0.2722    1.5929 C   0  0  0  0  0  0  0  0  0  0  0  0
   -3.7820   -0.5124    2.4326 O   0  0  0  0  0  0  0  0  0  0  0  0
   -1.8646   -1.0515    0.9303 N   0  0  0  0  0  0  0  0  0  0  0  0
   -4.1504   -0.5507   -0.4168 H   0  0  0  0  0  0  0  0  0  0  0  0
   -3.0935   -1.5897   -1.4114 H   0  0  0  0  0  0  0  0  0  0  0  0
   -3.2628    0.1724   -1.8637 H   0  0  0  0  0  0  0  0  0  0  0  0
   -1.2321    1.0035   -1.7318 H   0  0  0  0  0  0  0  0  0  0  0  0
   -0.7901   -0.6974   -1.8148 H   0  0  0  0  0  0  0  0  0  0  0  0
    0.9995    1.0394   -1.1762 H   0  0  0  0  0  0  0  0  0  0  0  0
    0.6117   -0.7962    1.1270 H   0  0  0  0  0  0  0  0  0  0  0  0
    1.2542   -1.3790   -0.4465 H   0  0  0  0  0  0  0  0  0  0  0  0
    2.3219    0.9786    1.2961 H   0  0  0  0  0  0  0  0  0  0  0  0
    3.1512    1.7381   -0.7720 H   0  0  0  0  0  0  0  0  0  0  0  0
    3.0972    0.0298   -1.5561 H   0  0  0  0  0  0  0  0  0  0  0  0
    3.6762   -1.7285    1.1156 H   0  0  0  0  0  0  0  0  0  0  0  0
   -3.1388    1.6131    0.4805 H   0  0  0  0  0  0  0  0  0  0  0  0
   -1.5250    1.3277    1.3754 H   0  0  0  0  0  0  0  0  0  0  0  0
   -1.3800   -1.8863    1.3222 H   0  0  0  0  0  0  0  0  0  0  0  0
  2  1  1  6
  2  3  1  0
  3  4  1  0
  4  5  1  0
  5  6  1  0
  6  7  1  0
  7  8  1  0
  8  9  2  0
  8 10  1  0
  2 11  1  0
 11 12  1  0
 12 13  2  0
 12 14  1  0
 14  2  1  0
 10  6  1  0
  1 15  1  0
  1 16  1  0
  1 17  1  0
  3 18  1  0
  3 19  1  0
  4 20  1  0
  5 21  1  0
  5 22  1  0
  6 23  1  1
  7 24  1  0
  7 25  1  0
 10 26  1  0
 11 27  1  0
 11 28  1  0
 14 29  1  0
M  END
$$$$

     RDKit          3D

 29 30  0  0  0  0  0  0  0  0999 V2000
   -2.0949    0.5782    1.5243 C   0  0  0  0  0  0  0  0  0  0  0  0
   -1.9132   -0.1778    0.2078 C   0  0  1  0  0  0  0  0  0  0  0  0
   -0.9121   -1.2779    0.2789 C   0  0  0  0  0  0  0  0  0  0  0  0
    0.4107   -0.8746    0.6400 N   0  0  0  0  0  0  0  0  0  0  0  0
    1.1225   -0.1228   -0.3695 C   0  0  0  0  0  0  0  0  0  0  0  0
    2.3641    0.4207    0.2443 C   0  0  2  0  0  0  0  0  0  0  0  0
    3.2536    1.2183   -0.6941 C   0  0  0  0  0  0  0  0  0  0  0  0
    4.3139    0.6236    0.1730 C   0  0  0  0  0  0  0  0  0  0  0  0
    5.4334    0.8617    0.6513 O   0  0  0  0  0  0  0  0  0  0  0  0
    3.4499   -0.5255    0.2899 N   0  0  0  0  0  0  0  0  0  0  0  0
   -3.2875   -0.7777   -0.1881 C   0  0  0  0  0  0  0  0  0  0  0  0
   -3.4933    0.5795   -0.7048 C   0  0  0  0  0  0  0  0  0  0  0  0
   -4.4623    1.3442   -0.8716 O   0  0  0  0  0  0  0  0  0  0  0  0
   -2.0624    0.6250   -0.9342 N   0  0  0  0  0  0  0  0  0  0  0  0
   -1.2855    1.3261    1.6869 H   0  0  0  0  0  0  0  0  0  0  0  0
   -3.0381    1.1503    1.4330 H   0  0  0  0  0  0  0  0  0  0  0  0
   -2.2105   -0.1538    2.3252 H   0  0  0  0  0  0  0  0  0  0  0  0
   -0.9414   -1.8893   -0.6593 H   0  0  0  0  0  0  0  0  0  0  0  0
   -1.2626   -1.9740    1.0984 H   0  0  0  0  0  0  0  0  0  0  0  0
    0.9747   -1.7792    0.7461 H   0  0  0  0  0  0  0  0  0  0  0  0
    0.5213    0.6932   -0.8287 H   0  0  0  0  0  0  0  0  0  0  0  0
    1.3707   -0.8057   -1.2298 H   0  0  0  0  0  0  0  0  0  0  0  0
    2.1545    0.9541    1.1979 H   0  0  0  0  0  0  0  0  0  0  0  0
    3.1560    2.3028   -0.6609 H   0  0  0  0  0  0  0  0  0  0  0  0
    3.2949    0.7264   -1.6914 H   0  0  0  0  0  0  0  0  0  0  0  0
    3.7017   -1.5266    0.3601 H   0  0  0  0  0  0  0  0  0  0  0  0
   -3.8586   -1.1216    0.6796 H   0  0  0  0  0  0  0  0  0  0  0  0
   -3.1331   -1.5037   -1.0235 H   0  0  0  0  0  0  0  0  0  0  0  0
   -1.5663    1.1062   -1.6927 H   0  0  0  0  0  0  0  0  0  0  0  0
  2  1  1  1
  2  3  1  0
  3  4  1  0
  4  5  1  0
  5  6  1  0
  6  7  1  0
  7  8  1  0
  8  9  2  0
  8 10  1  0
  2 11  1  0
 11 12  1  0
 12 13  2  0
 12 14  1  0
 14  2  1  0
 10  6  1  0
  1 15  1  0
  1 16  1  0
  1 17  1  0
  3 18  1  0
  3 19  1  0
  4 20  1  0
  5 21  1  0
  5 22  1  0
  6 23  1  1
  7 24  1  0
  7 25  1  0
 10 26  1  0
 11 27  1  0
 11 28  1  0
 14 29  1  0
M  END
$$$$

     RDKit          3D

 29 30  0  0  0  0  0  0  0  0999 V2000
   -3.2922   -1.1039    0.3479 C   0  0  0  0  0  0  0  0  0  0  0  0
   -2.2146   -0.0596    0.0816 C   0  0  1  0  0  0  0  0  0  0  0  0
   -0.8860   -0.6824    0.0766 C   0  0  0  0  0  0  0  0  0  0  0  0
    0.2435    0.1492   -0.1570 N   0  0  0  0  0  0  0  0  0  0  0  0
    1.4324   -0.7193   -0.1032 C   0  0  0  0  0  0  0  0  0  0  0  0
    2.6285    0.1665   -0.3515 C   0  0  2  0  0  0  0  0  0  0  0  0
    3.9526   -0.5485   -0.3349 C   0  0  0  0  0  0  0  0  0  0  0  0
    4.3964    0.6452    0.4248 C   0  0  0  0  0  0  0  0  0  0  0  0
    5.4326    1.3207    0.6499 O   0  0  0  0  0  0  0  0  0  0  0  0
    3.0585    0.7898    0.8801 N   0  0  0  0  0  0  0  0  0  0  0  0
   -2.4848    0.7859   -1.1359 C   0  0  0  0  0  0  0  0  0  0  0  0
   -3.2890    1.5850   -0.1823 C   0  0  0  0  0  0  0  0  0  0  0  0
   -4.2784    2.3320   -0.2193 O   0  0  0  0  0  0  0  0  0  0  0  0
   -2.4255    1.1278    0.8477 N   0  0  0  0  0  0  0  0  0  0  0  0
   -3.4697   -1.6753   -0.5982 H   0  0  0  0  0  0  0  0  0  0  0  0
   -4.2225   -0.6219    0.7017 H   0  0  0  0  0  0  0  0  0  0  0  0
   -2.8788   -1.8397    1.0687 H   0  0  0  0  0  0  0  0  0  0  0  0
   -0.7180   -1.2246    1.0352 H   0  0  0  0  0  0  0  0  0  0  0  0
   -0.8794   -1.4829   -0.7172 H   0  0  0  0  0  0  0  0  0  0  0  0
    0.2595    0.6678   -1.0422 H   0  0  0  0  0  0  0  0  0  0  0  0
    1.5094   -1.2621    0.8369 H   0  0  0  0  0  0  0  0  0  0  0  0
    1.4119   -1.4640   -0.9296 H   0  0  0  0  0  0  0  0  0  0  0  0
    2.4903    0.8396   -1.1966 H   0  0  0  0  0  0  0  0  0  0  0  0
    4.4448   -0.6599   -1.3238 H   0  0  0  0  0  0  0  0  0  0  0  0
    3.9407   -1.4911    0.2589 H   0  0  0  0  0  0  0  0  0  0  0  0
    2.6615    1.1915    1.7536 H   0  0  0  0  0  0  0  0  0  0  0  0
   -1.6087    1.3553   -1.4437 H   0  0  0  0  0  0  0  0  0  0  0  0
   -3.0641    0.2889   -1.9369 H   0  0  0  0  0  0  0  0  0  0  0  0
   -2.1508    1.5902    1.7504 H   0  0  0  0  0  0  0  0  0  0  0  0
  2  1  1  1
  2  3  1  0
  3  4  1  0
  4  5  1  0
  5  6  1  0
  6  7  1  0
  7  8  1  0
  8  9  2  0
  8 10  1  0
  2 11  1  0
 11 12  1  0
 12 13  2  0
 12 14  1  0
 14  2  1  0
 10  6  1  0
  1 15  1  0
  1 16  1  0
  1 17  1  0
  3 18  1  0
  3 19  1  0
  4 20  1  0
  5 21  1  0
  5 22  1  0
  6 23  1  6
  7 24  1  0
  7 25  1  0
 10 26  1  0
 11 27  1  0
 11 28  1  0
 14 29  1  0
M  END
$$$$

     RDKit          3D

 29 30  0  0  0  0  0  0  0  0999 V2000
   -2.4290   -0.7496   -1.1880 C   0  0  0  0  0  0  0  0  0  0  0  0
   -2.1643   -0.2389    0.1886 C   0  0  1  0  0  0  0  0  0  0  0  0
   -0.8687   -0.7048    0.8089 C   0  0  0  0  0  0  0  0  0  0  0  0
    0.1944   -0.2387   -0.0613 N   0  0  0  0  0  0  0  0  0  0  0  0
    1.5013   -0.6149    0.4122 C   0  0  0  0  0  0  0  0  0  0  0  0
    2.5172   -0.0752   -0.5727 C   0  0  2  0  0  0  0  0  0  0  0  0
    3.9300   -0.3904   -0.2096 C   0  0  0  0  0  0  0  0  0  0  0  0
    4.1668    1.0654   -0.1128 C   0  0  0  0  0  0  0  0  0  0  0  0
    5.1844    1.7867    0.1530 O   0  0  0  0  0  0  0  0  0  0  0  0
    2.8114    1.3164   -0.4339 N   0  0  0  0  0  0  0  0  0  0  0  0
   -2.3191    1.2841    0.2980 C   0  0  0  0  0  0  0  0  0  0  0  0
   -3.7650    0.9080    0.4250 C   0  0  0  0  0  0  0  0  0  0  0  0
   -4.8924    1.3540    0.1634 O   0  0  0  0  0  0  0  0  0  0  0  0
   -3.3206   -0.2994    1.0314 N   0  0  0  0  0  0  0  0  0  0  0  0
   -1.9526   -1.7618   -1.2641 H   0  0  0  0  0  0  0  0  0  0  0  0
   -2.0772   -0.0916   -1.9880 H   0  0  0  0  0  0  0  0  0  0  0  0
   -3.5167   -0.9240   -1.3512 H   0  0  0  0  0  0  0  0  0  0  0  0
   -0.8509   -1.7807    0.9933 H   0  0  0  0  0  0  0  0  0  0  0  0
   -0.7895   -0.1645    1.7948 H   0  0  0  0  0  0  0  0  0  0  0  0
    0.0318   -0.5493   -1.0308 H   0  0  0  0  0  0  0  0  0  0  0  0
    1.6151   -1.7066    0.5563 H   0  0  0  0  0  0  0  0  0  0  0  0
    1.6705   -0.0946    1.3785 H   0  0  0  0  0  0  0  0  0  0  0  0
    2.2823   -0.3071   -1.6464 H   0  0  0  0  0  0  0  0  0  0  0  0
    4.0346   -0.9553    0.7416 H   0  0  0  0  0  0  0  0  0  0  0  0
    4.5269   -0.9079   -0.9892 H   0  0  0  0  0  0  0  0  0  0  0  0
    2.2588    2.2177   -0.5268 H   0  0  0  0  0  0  0  0  0  0  0  0
   -1.9669    1.6734    1.2653 H   0  0  0  0  0  0  0  0  0  0  0  0
   -2.0517    1.8315   -0.6044 H   0  0  0  0  0  0  0  0  0  0  0  0
   -3.7610   -0.8818    1.7757 H   0  0  0  0  0  0  0  0  0  0  0  0
  2  1  1  6
  2  3  1  0
  3  4  1  0
  4  5  1  0
  5  6  1  0
  6  7  1  0
  7  8  1  0
  8  9  2  0
  8 10  1  0
  2 11  1  0
 11 12  1  0
 12 13  2  0
 12 14  1  0
 14  2  1  0
 10  6  1  0
  1 15  1  0
  1 16  1  0
  1 17  1  0
  3 18  1  0
  3 19  1  0
  4 20  1  0
  5 21  1  0
  5 22  1  0
  6 23  1  6
  7 24  1  0
  7 25  1  0
 10 26  1  0
 11 27  1  0
 11 28  1  0
 14 29  1  0
M  END
$$$$

     RDKit          3D

 29 30  0  0  0  0  0  0  0  0999 V2000
   -2.5213    1.4492    0.3758 C   0  0  0  0  0  0  0  0  0  0  0  0
   -2.1685    0.0939   -0.1871 C   0  0  1  0  0  0  0  0  0  0  0  0
   -0.8261   -0.0153   -0.8361 C   0  0  0  0  0  0  0  0  0  0  0  0
    0.2040    0.2993    0.1290 N   0  0  0  0  0  0  0  0  0  0  0  0
    1.4841    0.1849   -0.5268 C   0  0  0  0  0  0  0  0  0  0  0  0
    2.6325    0.4975    0.4094 C   0  0  2  0  0  0  0  0  0  0  0  0
    3.9456    0.3599   -0.3380 C   0  0  0  0  0  0  0  0  0  0  0  0
    4.2508   -0.8222    0.4705 C   0  0  0  0  0  0  0  0  0  0  0  0
    5.1665   -1.6726    0.4803 O   0  0  0  0  0  0  0  0  0  0  0  0
    3.0772   -0.5929    1.2291 N   0  0  0  0  0  0  0  0  0  0  0  0
   -2.5331   -1.0516    0.7501 C   0  0  0  0  0  0  0  0  0  0  0  0
   -3.8926   -0.8041    0.2044 C   0  0  0  0  0  0  0  0  0  0  0  0
   -5.1045   -0.8695    0.5124 O   0  0  0  0  0  0  0  0  0  0  0  0
   -3.2686   -0.3939   -0.9991 N   0  0  0  0  0  0  0  0  0  0  0  0
   -1.5719    1.9592    0.6280 H   0  0  0  0  0  0  0  0  0  0  0  0
   -3.0845    2.0781   -0.3481 H   0  0  0  0  0  0  0  0  0  0  0  0
   -3.1689    1.3049    1.2888 H   0  0  0  0  0  0  0  0  0  0  0  0
   -0.7881    0.7280   -1.6584 H   0  0  0  0  0  0  0  0  0  0  0  0
   -0.7301   -1.0049   -1.2879 H   0  0  0  0  0  0  0  0  0  0  0  0
    0.1293   -0.2370    0.9999 H   0  0  0  0  0  0  0  0  0  0  0  0
    1.5819   -0.8422   -0.9298 H   0  0  0  0  0  0  0  0  0  0  0  0
    1.5225    0.9270   -1.3504 H   0  0  0  0  0  0  0  0  0  0  0  0
    2.5406    1.4519    0.9319 H   0  0  0  0  0  0  0  0  0  0  0  0
    3.8445    0.1401   -1.4239 H   0  0  0  0  0  0  0  0  0  0  0  0
    4.6480    1.2065   -0.2086 H   0  0  0  0  0  0  0  0  0  0  0  0
    2.6870   -1.0548    2.0749 H   0  0  0  0  0  0  0  0  0  0  0  0
   -2.0835   -1.9915    0.3509 H   0  0  0  0  0  0  0  0  0  0  0  0
   -2.3937   -0.8561    1.8129 H   0  0  0  0  0  0  0  0  0  0  0  0
   -3.5792   -0.4719   -1.9838 H   0  0  0  0  0  0  0  0  0  0  0  0
  2  1  1  1
  2  3  1  0
  3  4  1  0
  4  5  1  0
  5  6  1  0
  6  7  1  0
  7  8  1  0
  8  9  2  0
  8 10  1  0
  2 11  1  0
 11 12  1  0
 12 13  2  0
 12 14  1  0
 14  2  1  0
 10  6  1  0
  1 15  1  0
  1 16  1  0
  1 17  1  0
  3 18  1  0
  3 19  1  0
  4 20  1  0
  5 21  1  0
  5 22  1  0
  6 23  1  1
  7 24  1  0
  7 25  1  0
 10 26  1  0
 11 27  1  0
 11 28  1  0
 14 29  1  0
M  END
$$$$

     RDKit          3D

 29 30  0  0  0  0  0  0  0  0999 V2000
   -2.5633   -0.9401   -1.2310 C   0  0  0  0  0  0  0  0  0  0  0  0
   -1.9427    0.0051   -0.2608 C   0  0  1  0  0  0  0  0  0  0  0  0
   -0.4396   -0.0467   -0.3455 C   0  0  0  0  0  0  0  0  0  0  0  0
    0.1945    0.8486    0.5915 N   0  0  0  0  0  0  0  0  0  0  0  0
    1.6264    0.8787    0.4541 C   0  0  0  0  0  0  0  0  0  0  0  0
    2.2947   -0.4142    0.8431 C   0  0  2  0  0  0  0  0  0  0  0  0
    3.8262   -0.3499    0.7038 C   0  0  0  0  0  0  0  0  0  0  0  0
    3.4808   -0.4525   -0.7292 C   0  0  0  0  0  0  0  0  0  0  0  0
    3.8968   -0.0209   -1.8113 O   0  0  0  0  0  0  0  0  0  0  0  0
    2.4129   -1.2976   -0.3344 N   0  0  0  0  0  0  0  0  0  0  0  0
   -2.5036    1.4245   -0.3126 C   0  0  0  0  0  0  0  0  0  0  0  0
   -3.5523    0.8271    0.5516 C   0  0  0  0  0  0  0  0  0  0  0  0
   -4.7756    1.0673    0.7163 O   0  0  0  0  0  0  0  0  0  0  0  0
   -2.5467   -0.0592    1.0378 N   0  0  0  0  0  0  0  0  0  0  0  0
   -2.0542   -1.9302   -1.1261 H   0  0  0  0  0  0  0  0  0  0  0  0
   -3.6413   -1.1666   -1.0029 H   0  0  0  0  0  0  0  0  0  0  0  0
   -2.5197   -0.5951   -2.2726 H   0  0  0  0  0  0  0  0  0  0  0  0
   -0.1487   -1.0853   -0.2079 H   0  0  0  0  0  0  0  0  0  0  0  0
   -0.1808    0.2688   -1.3742 H   0  0  0  0  0  0  0  0  0  0  0  0
    0.0047    0.4722    1.5556 H   0  0  0  0  0  0  0  0  0  0  0  0
    1.8166    1.1053   -0.6328 H   0  0  0  0  0  0  0  0  0  0  0  0
    2.0234    1.7667    0.9978 H   0  0  0  0  0  0  0  0  0  0  0  0
    2.0078   -0.8956    1.7684 H   0  0  0  0  0  0  0  0  0  0  0  0
    4.2767    0.6088    1.0327 H   0  0  0  0  0  0  0  0  0  0  0  0
    4.2681   -1.2725    1.1081 H   0  0  0  0  0  0  0  0  0  0  0  0
    1.9084   -2.1400   -0.6602 H   0  0  0  0  0  0  0  0  0  0  0  0
   -1.8754    2.1096    0.2575 H   0  0  0  0  0  0  0  0  0  0  0  0
   -2.8375    1.7635   -1.3087 H   0  0  0  0  0  0  0  0  0  0  0  0
   -2.4564   -0.4799    1.9918 H   0  0  0  0  0  0  0  0  0  0  0  0
  2  1  1  6
  2  3  1  0
  3  4  1  0
  4  5  1  0
  5  6  1  0
  6  7  1  0
  7  8  1  0
  8  9  2  0
  8 10  1  0
  2 11  1  0
 11 12  1  0
 12 13  2  0
 12 14  1  0
 14  2  1  0
 10  6  1  0
  1 15  1  0
  1 16  1  0
  1 17  1  0
  3 18  1  0
  3 19  1  0
  4 20  1  0
  5 21  1  0
  5 22  1  0
  6 23  1  1
  7 24  1  0
  7 25  1  0
 10 26  1  0
 11 27  1  0
 11 28  1  0
 14 29  1  0
M  END
$$$$
