
     RDKit          3D

 29 30  0  0  0  0  0  0  0  0999 V2000
   -3.7137    0.4066    1.1952 N   0  0  0  0  0  0  0  0  0  0  0  0
   -2.5267   -0.1941    0.5674 C   0  0  1  0  0  0  0  0  0  0  0  0
   -2.9691   -0.9285   -0.6901 C   0  0  0  0  0  0  0  0  0  0  0  0
   -2.8533    0.4173   -1.4163 C   0  0  0  0  0  0  0  0  0  0  0  0
   -1.8543    0.8165   -0.3218 C   0  0  2  0  0  0  0  0  0  0  0  0
   -0.4890    0.4972   -0.7533 C   0  0  0  0  0  0  0  0  0  0  0  0
   -0.2149    0.3839   -1.9892 O   0  0  0  0  0  0  0  0  0  0  0  0
    0.6077    0.2939    0.1377 N   0  0  0  0  0  0  0  0  0  0  0  0
    1.9367   -0.0180   -0.3068 C   0  0  1  0  0  0  0  0  0  0  0  0
    2.9720    0.9769    0.1132 C   0  0  0  0  0  0  0  0  0  0  0  0
    4.1783    0.1770    0.4929 C   0  0  0  0  0  0  0  0  0  0  0  0
    3.6353   -1.1335    0.8129 N   0  0  0  0  0  0  0  0  0  0  0  0
    2.4077   -1.3453    0.1292 C   0  0  0  0  0  0  0  0  0  0  0  0
    1.8473   -2.4535   -0.0581 O   0  0  0  0  0  0  0  0  0  0  0  0
   -4.5422    0.3609    0.5920 H   0  0  0  0  0  0  0  0  0  0  0  0
   -3.9486   -0.0894    2.0867 H   0  0  0  0  0  0  0  0  0  0  0  0
   -1.8932   -0.7579    1.2511 H   0  0  0  0  0  0  0  0  0  0  0  0
   -4.0230   -1.2954   -0.6061 H   0  0  0  0  0  0  0  0  0  0  0  0
   -2.2909   -1.7009   -1.0539 H   0  0  0  0  0  0  0  0  0  0  0  0
   -2.4010    0.3479   -2.4184 H   0  0  0  0  0  0  0  0  0  0  0  0
   -3.7993    0.9563   -1.3315 H   0  0  0  0  0  0  0  0  0  0  0  0
   -2.0260    1.8402    0.0472 H   0  0  0  0  0  0  0  0  0  0  0  0
    0.4243    0.3774    1.1442 H   0  0  0  0  0  0  0  0  0  0  0  0
    1.8924   -0.0567   -1.4351 H   0  0  0  0  0  0  0  0  0  0  0  0
    3.2671    1.6570   -0.7376 H   0  0  0  0  0  0  0  0  0  0  0  0
    2.6753    1.5776    0.9988 H   0  0  0  0  0  0  0  0  0  0  0  0
    4.8697    0.1116   -0.3789 H   0  0  0  0  0  0  0  0  0  0  0  0
    4.7141    0.5740    1.3842 H   0  0  0  0  0  0  0  0  0  0  0  0
    4.1173   -1.7991    1.4643 H   0  0  0  0  0  0  0  0  0  0  0  0
  1  2  1  0
  2  3  1  0
  3  4  1  0
  4  5  1  0
  5  6  1  0
  6  7  2  0
  6  8  1  0
  8  9  1  0
  9 10  1  0
 10 11  1  0
 11 12  1  0
 12 13  1  0
 13 14  2  0
  5  2  1  0
 13  9  1  0
  1 15  1  0
  1 16  1  0
  2 17  1  1
  3 18  1  0
  3 19  1  0
  4 20  1  0
  4 21  1  0
  5 22  1  1
  8 23  1  0
  9 24  1  6
 10 25  1  0
 10 26  1  0
 11 27  1  0
 11 28  1  0
 12 29  1  0
M  END
$$$$

     RDKit          3D

 29 30  0  0  0  0  0  0  0  0999 V2000
   -3.4428   -0.2823    1.5240 N   0  0  0  0  0  0  0  0  0  0  0  0
   -2.6846   -0.1969    0.2900 C   0  0  1  0  0  0  0  0  0  0  0  0
   -3.5239    0.2604   -0.9118 C   0  0  0  0  0  0  0  0  0  0  0  0
   -2.2616    1.0046   -1.3699 C   0  0  0  0  0  0  0  0  0  0  0  0
   -1.8890    1.0545    0.1109 C   0  0  2  0  0  0  0  0  0  0  0  0
   -0.4523    0.9858    0.3912 C   0  0  0  0  0  0  0  0  0  0  0  0
    0.0087    1.7353    1.3001 O   0  0  0  0  0  0  0  0  0  0  0  0
    0.4712    0.1497   -0.2691 N   0  0  0  0  0  0  0  0  0  0  0  0
    1.8739    0.1063    0.0298 C   0  0  1  0  0  0  0  0  0  0  0  0
    2.3519   -1.2367    0.5009 C   0  0  0  0  0  0  0  0  0  0  0  0
    3.8712   -1.0450    0.4021 C   0  0  0  0  0  0  0  0  0  0  0  0
    3.9793   -0.2836   -0.8498 N   0  0  0  0  0  0  0  0  0  0  0  0
    2.7461    0.3772   -1.1145 C   0  0  0  0  0  0  0  0  0  0  0  0
    2.5454    1.0444   -2.1667 O   0  0  0  0  0  0  0  0  0  0  0  0
   -2.7369   -0.2302    2.3156 H   0  0  0  0  0  0  0  0  0  0  0  0
   -3.8540   -1.2399    1.5848 H   0  0  0  0  0  0  0  0  0  0  0  0
   -2.1675   -1.1355   -0.0060 H   0  0  0  0  0  0  0  0  0  0  0  0
   -3.8546   -0.5364   -1.5737 H   0  0  0  0  0  0  0  0  0  0  0  0
   -4.2835    1.0279   -0.6373 H   0  0  0  0  0  0  0  0  0  0  0  0
   -2.4468    1.9940   -1.8005 H   0  0  0  0  0  0  0  0  0  0  0  0
   -1.5970    0.3262   -1.9578 H   0  0  0  0  0  0  0  0  0  0  0  0
   -2.3968    1.9229    0.5648 H   0  0  0  0  0  0  0  0  0  0  0  0
    0.1143   -0.4735   -1.0183 H   0  0  0  0  0  0  0  0  0  0  0  0
    2.0652    0.8317    0.8469 H   0  0  0  0  0  0  0  0  0  0  0  0
    2.0344   -1.4734    1.5138 H   0  0  0  0  0  0  0  0  0  0  0  0
    2.1049   -2.0088   -0.2547 H   0  0  0  0  0  0  0  0  0  0  0  0
    4.1471   -0.4076    1.2743 H   0  0  0  0  0  0  0  0  0  0  0  0
    4.4072   -1.9933    0.3565 H   0  0  0  0  0  0  0  0  0  0  0  0
    4.8704   -0.2779   -1.4105 H   0  0  0  0  0  0  0  0  0  0  0  0
  1  2  1  0
  2  3  1  0
  3  4  1  0
  4  5  1  0
  5  6  1  0
  6  7  2  0
  6  8  1  0
  8  9  1  0
  9 10  1  0
 10 11  1  0
 11 12  1  0
 12 13  1  0
 13 14  2  0
  5  2  1  0
 13  9  1  0
  1 15  1  0
  1 16  1  0
  2 17  1  6
  3 18  1  0
  3 19  1  0
  4 20  1  0
  4 21  1  0
  5 22  1  1
  8 23  1  0
  9 24  1  1
 10 25  1  0
 10 26  1  0
 11 27  1  0
 11 28  1  0
 12 29  1  0
M  END
$$$$

     RDKit          3D

 29 30  0  0  0  0  0  0  0  0999 V2000
   -3.9883   -0.1684   -1.4596 N   0  0  0  0  0  0  0  0  0  0  0  0
   -3.0048    0.5069   -0.6195 C   0  0  1  0  0  0  0  0  0  0  0  0
   -3.3553    0.3923    0.8490 C   0  0  0  0  0  0  0  0  0  0  0  0
   -2.2346   -0.6048    1.0134 C   0  0  0  0  0  0  0  0  0  0  0  0
   -1.7599   -0.3250   -0.3997 C   0  0  2  0  0  0  0  0  0  0  0  0
   -0.4997    0.4537   -0.3962 C   0  0  0  0  0  0  0  0  0  0  0  0
   -0.5307    1.6995   -0.5673 O   0  0  0  0  0  0  0  0  0  0  0  0
    0.7112   -0.2638   -0.1948 N   0  0  0  0  0  0  0  0  0  0  0  0
    1.9660    0.4374   -0.1813 C   0  0  1  0  0  0  0  0  0  0  0  0
    2.6517    0.1288    1.1311 C   0  0  0  0  0  0  0  0  0  0  0  0
    4.1232    0.1898    0.7408 C   0  0  0  0  0  0  0  0  0  0  0  0
    4.1059   -0.5525   -0.5100 N   0  0  0  0  0  0  0  0  0  0  0  0
    2.9187   -0.1334   -1.1722 C   0  0  0  0  0  0  0  0  0  0  0  0
    2.6880   -0.2243   -2.4203 O   0  0  0  0  0  0  0  0  0  0  0  0
   -3.9713   -1.2001   -1.2788 H   0  0  0  0  0  0  0  0  0  0  0  0
   -4.9475    0.2197   -1.3164 H   0  0  0  0  0  0  0  0  0  0  0  0
   -2.8052    1.5360   -0.9546 H   0  0  0  0  0  0  0  0  0  0  0  0
   -4.3512   -0.0663    1.0493 H   0  0  0  0  0  0  0  0  0  0  0  0
   -3.2362    1.3231    1.4353 H   0  0  0  0  0  0  0  0  0  0  0  0
   -2.5656   -1.6525    1.1245 H   0  0  0  0  0  0  0  0  0  0  0  0
   -1.5066   -0.2997    1.7992 H   0  0  0  0  0  0  0  0  0  0  0  0
   -1.7056   -1.2097   -1.0364 H   0  0  0  0  0  0  0  0  0  0  0  0
    0.7405   -1.3047   -0.0515 H   0  0  0  0  0  0  0  0  0  0  0  0
    1.8050    1.5175   -0.3411 H   0  0  0  0  0  0  0  0  0  0  0  0
    2.4272   -0.9126    1.4300 H   0  0  0  0  0  0  0  0  0  0  0  0
    2.4054    0.8598    1.9247 H   0  0  0  0  0  0  0  0  0  0  0  0
    4.6813   -0.3379    1.5276 H   0  0  0  0  0  0  0  0  0  0  0  0
    4.4565    1.2368    0.5926 H   0  0  0  0  0  0  0  0  0  0  0  0
    4.7820   -1.2457   -0.8868 H   0  0  0  0  0  0  0  0  0  0  0  0
  1  2  1  0
  2  3  1  0
  3  4  1  0
  4  5  1  0
  5  6  1  0
  6  7  2  0
  6  8  1  0
  8  9  1  0
  9 10  1  0
 10 11  1  0
 11 12  1  0
 12 13  1  0
 13 14  2  0
  5  2  1  0
 13  9  1  0
  1 15  1  0
  1 16  1  0
  2 17  1  6
  3 18  1  0
  3 19  1  0
  4 20  1  0
  4 21  1  0
  5 22  1  6
  8 23  1  0
  9 24  1  6
 10 25  1  0
 10 26  1  0
 11 27  1  0
 11 28  1  0
 12 29  1  0
M  END
$$$$

     RDKit          3D

 29 30  0  0  0  0  0  0  0  0999 V2000
   -2.7609   -1.2877   -0.5545 N   0  0  0  0  0  0  0  0  0  0  0  0
   -2.4683    0.1122   -0.5685 C   0  0  1  0  0  0  0  0  0  0  0  0
   -3.6962    0.9294   -0.1408 C   0  0  0  0  0  0  0  0  0  0  0  0
   -2.6914    1.8771    0.5284 C   0  0  0  0  0  0  0  0  0  0  0  0
   -1.8094    0.6477    0.7020 C   0  0  2  0  0  0  0  0  0  0  0  0
   -0.3849    0.9256    0.6018 C   0  0  0  0  0  0  0  0  0  0  0  0
    0.0498    2.0823    0.8034 O   0  0  0  0  0  0  0  0  0  0  0  0
    0.5483   -0.0885    0.2770 N   0  0  0  0  0  0  0  0  0  0  0  0
    1.9856    0.1625    0.1695 C   0  0  1  0  0  0  0  0  0  0  0  0
    2.7689   -0.7149    1.0895 C   0  0  0  0  0  0  0  0  0  0  0  0
    3.9211   -1.2554    0.2916 C   0  0  0  0  0  0  0  0  0  0  0  0
    3.3952   -1.2466   -1.0719 N   0  0  0  0  0  0  0  0  0  0  0  0
    2.4724   -0.1635   -1.1857 C   0  0  0  0  0  0  0  0  0  0  0  0
    2.1661    0.3790   -2.2786 O   0  0  0  0  0  0  0  0  0  0  0  0
   -3.7675   -1.4951   -0.8062 H   0  0  0  0  0  0  0  0  0  0  0  0
   -2.1460   -1.8083   -1.2365 H   0  0  0  0  0  0  0  0  0  0  0  0
   -2.0792    0.5367   -1.5053 H   0  0  0  0  0  0  0  0  0  0  0  0
   -4.2636    1.3657   -0.9580 H   0  0  0  0  0  0  0  0  0  0  0  0
   -4.2243    0.3762    0.6373 H   0  0  0  0  0  0  0  0  0  0  0  0
   -2.2343    2.5786   -0.1985 H   0  0  0  0  0  0  0  0  0  0  0  0
   -3.0505    2.3243    1.4589 H   0  0  0  0  0  0  0  0  0  0  0  0
   -2.1273   -0.0019    1.5504 H   0  0  0  0  0  0  0  0  0  0  0  0
    0.1965   -1.0366    0.1112 H   0  0  0  0  0  0  0  0  0  0  0  0
    2.2188    1.2286    0.3746 H   0  0  0  0  0  0  0  0  0  0  0  0
    3.1729   -0.0943    1.9353 H   0  0  0  0  0  0  0  0  0  0  0  0
    2.1899   -1.5784    1.4644 H   0  0  0  0  0  0  0  0  0  0  0  0
    4.8046   -0.5806    0.2887 H   0  0  0  0  0  0  0  0  0  0  0  0
    4.1991   -2.2872    0.5921 H   0  0  0  0  0  0  0  0  0  0  0  0
    3.6149   -1.8868   -1.8609 H   0  0  0  0  0  0  0  0  0  0  0  0
  1  2  1  0
  2  3  1  0
  3  4  1  0
  4  5  1  0
  5  6  1  0
  6  7  2  0
  6  8  1  0
  8  9  1  0
  9 10  1  0
 10 11  1  0
 11 12  1  0
 12 13  1  0
 13 14  2  0
  5  2  1  0
 13  9  1  0
  1 15  1  0
  1 16  1  0
  2 17  1  6
  3 18  1  0
  3 19  1  0
  4 20  1  0
  4 21  1  0
  5 22  1  1
  8 23  1  0
  9 24  1  1
 10 25  1  0
 10 26  1  0
 11 27  1  0
 11 28  1  0
 12 29  1  0
M  END
$$$$

     RDKit          3D

 29 30  0  0  0  0  0  0  0  0999 V2000
   -3.7745    0.9144    1.0434 N   0  0  0  0  0  0  0  0  0  0  0  0
   -2.5192    0.2277    0.8508 C   0  0  1  0  0  0  0  0  0  0  0  0
   -2.8058   -1.1438    0.2225 C   0  0  0  0  0  0  0  0  0  0  0  0
   -2.8967   -0.3806   -1.1075 C   0  0  0  0  0  0  0  0  0  0  0  0
   -1.9028    0.5943   -0.5073 C   0  0  2  0  0  0  0  0  0  0  0  0
   -0.5311    0.0951   -0.6912 C   0  0  0  0  0  0  0  0  0  0  0  0
   -0.2938   -0.6822   -1.6518 O   0  0  0  0  0  0  0  0  0  0  0  0
    0.5531    0.4503    0.1706 N   0  0  0  0  0  0  0  0  0  0  0  0
    1.8393   -0.0852   -0.0929 C   0  0  1  0  0  0  0  0  0  0  0  0
    2.8997    0.9736   -0.3428 C   0  0  0  0  0  0  0  0  0  0  0  0
    4.1480    0.1034   -0.2872 C   0  0  0  0  0  0  0  0  0  0  0  0
    3.8446   -0.7667    0.8563 N   0  0  0  0  0  0  0  0  0  0  0  0
    2.4372   -0.8159    1.0480 C   0  0  0  0  0  0  0  0  0  0  0  0
    1.8245   -1.3682    1.9944 O   0  0  0  0  0  0  0  0  0  0  0  0
   -4.6054    0.2545    0.9942 H   0  0  0  0  0  0  0  0  0  0  0  0
   -3.9491    1.6024    0.2666 H   0  0  0  0  0  0  0  0  0  0  0  0
   -1.8219    0.2154    1.6846 H   0  0  0  0  0  0  0  0  0  0  0  0
   -1.8918   -1.7483    0.2458 H   0  0  0  0  0  0  0  0  0  0  0  0
   -3.7388   -1.5969    0.5552 H   0  0  0  0  0  0  0  0  0  0  0  0
   -2.5365   -0.9445   -1.9779 H   0  0  0  0  0  0  0  0  0  0  0  0
   -3.9160    0.0529   -1.2088 H   0  0  0  0  0  0  0  0  0  0  0  0
   -2.0626    1.6548   -0.7622 H   0  0  0  0  0  0  0  0  0  0  0  0
    0.3464    1.0836    0.9485 H   0  0  0  0  0  0  0  0  0  0  0  0
    1.8449   -0.7451   -0.9775 H   0  0  0  0  0  0  0  0  0  0  0  0
    2.7785    1.4594   -1.3232 H   0  0  0  0  0  0  0  0  0  0  0  0
    2.9803    1.6918    0.5027 H   0  0  0  0  0  0  0  0  0  0  0  0
    5.0635    0.6874   -0.1291 H   0  0  0  0  0  0  0  0  0  0  0  0
    4.1504   -0.4979   -1.2202 H   0  0  0  0  0  0  0  0  0  0  0  0
    4.5357   -1.2855    1.4586 H   0  0  0  0  0  0  0  0  0  0  0  0
  1  2  1  0
  2  3  1  0
  3  4  1  0
  4  5  1  0
  5  6  1  0
  6  7  2  0
  6  8  1  0
  8  9  1  0
  9 10  1  0
 10 11  1  0
 11 12  1  0
 12 13  1  0
 13 14  2  0
  5  2  1  0
 13  9  1  0
  1 15  1  0
  1 16  1  0
  2 17  1  1
  3 18  1  0
  3 19  1  0
  4 20  1  0
  4 21  1  0
  5 22  1  6
  8 23  1  0
  9 24  1  6
 10 25  1  0
 10 26  1  0
 11 27  1  0
 11 28  1  0
 12 29  1  0
M  END
$$$$

     RDKit          3D

 29 30  0  0  0  0  0  0  0  0999 V2000
   -3.6233    0.7808   -1.5786 N   0  0  0  0  0  0  0  0  0  0  0  0
   -3.0700    0.4163   -0.3029 C   0  0  1  0  0  0  0  0  0  0  0  0
   -3.6969   -0.8419    0.3126 C   0  0  0  0  0  0  0  0  0  0  0  0
   -2.2920   -1.1265    0.8649 C   0  0  0  0  0  0  0  0  0  0  0  0
   -1.7836   -0.3793   -0.3691 C   0  0  2  0  0  0  0  0  0  0  0  0
   -0.5721    0.4250   -0.1436 C   0  0  0  0  0  0  0  0  0  0  0  0
   -0.7021    1.6574    0.0772 O   0  0  0  0  0  0  0  0  0  0  0  0
    0.7273   -0.1025   -0.1599 N   0  0  0  0  0  0  0  0  0  0  0  0
    1.9272    0.6967    0.0640 C   0  0  1  0  0  0  0  0  0  0  0  0
    2.7908    0.1209    1.1629 C   0  0  0  0  0  0  0  0  0  0  0  0
    4.0502   -0.3866    0.5211 C   0  0  0  0  0  0  0  0  0  0  0  0
    3.9799   -0.0544   -0.8869 N   0  0  0  0  0  0  0  0  0  0  0  0
    2.7446    0.5821   -1.1716 C   0  0  0  0  0  0  0  0  0  0  0  0
    2.4154    0.9816   -2.3157 O   0  0  0  0  0  0  0  0  0  0  0  0
   -2.8304    1.0672   -2.1960 H   0  0  0  0  0  0  0  0  0  0  0  0
   -4.1899    1.6645   -1.4259 H   0  0  0  0  0  0  0  0  0  0  0  0
   -3.0785    1.2127    0.4706 H   0  0  0  0  0  0  0  0  0  0  0  0
   -4.0201   -1.5394   -0.4758 H   0  0  0  0  0  0  0  0  0  0  0  0
   -4.4439   -0.6152    1.1043 H   0  0  0  0  0  0  0  0  0  0  0  0
   -2.1781   -0.5583    1.8150 H   0  0  0  0  0  0  0  0  0  0  0  0
   -2.0268   -2.1877    0.9071 H   0  0  0  0  0  0  0  0  0  0  0  0
   -1.7847   -1.0609   -1.2253 H   0  0  0  0  0  0  0  0  0  0  0  0
    0.8558   -1.1167   -0.3402 H   0  0  0  0  0  0  0  0  0  0  0  0
    1.6936    1.7537    0.2459 H   0  0  0  0  0  0  0  0  0  0  0  0
    2.2340   -0.6812    1.6952 H   0  0  0  0  0  0  0  0  0  0  0  0
    3.0746    0.9542    1.8422 H   0  0  0  0  0  0  0  0  0  0  0  0
    4.9598    0.0792    0.9490 H   0  0  0  0  0  0  0  0  0  0  0  0
    4.1104   -1.4801    0.6220 H   0  0  0  0  0  0  0  0  0  0  0  0
    4.7289   -0.2615   -1.5547 H   0  0  0  0  0  0  0  0  0  0  0  0
  1  2  1  0
  2  3  1  0
  3  4  1  0
  4  5  1  0
  5  6  1  0
  6  7  2  0
  6  8  1  0
  8  9  1  0
  9 10  1  0
 10 11  1  0
 11 12  1  0
 12 13  1  0
 13 14  2  0
  5  2  1  0
 13  9  1  0
  1 15  1  0
  1 16  1  0
  2 17  1  1
  3 18  1  0
  3 19  1  0
  4 20  1  0
  4 21  1  0
  5 22  1  6
  8 23  1  0
  9 24  1  1
 10 25  1  0
 10 26  1  0
 11 27  1  0
 11 28  1  0
 12 29  1  0
M  END
$$$$

     RDKit          3D

 29 30  0  0  0  0  0  0  0  0999 V2000
   -3.7042    1.3010   -0.9692 N   0  0  0  0  0  0  0  0  0  0  0  0
   -3.1100    0.5948    0.1330 C   0  0  1  0  0  0  0  0  0  0  0  0
   -3.7529   -0.7673    0.4317 C   0  0  0  0  0  0  0  0  0  0  0  0
   -2.3231   -1.2406    0.7387 C   0  0  0  0  0  0  0  0  0  0  0  0
   -1.8692   -0.1905   -0.2399 C   0  0  2  0  0  0  0  0  0  0  0  0
   -0.5942    0.4833    0.0852 C   0  0  0  0  0  0  0  0  0  0  0  0
   -0.5142    1.6090    0.6240 O   0  0  0  0  0  0  0  0  0  0  0  0
    0.6080   -0.2042   -0.2412 N   0  0  0  0  0  0  0  0  0  0  0  0
    1.9253    0.3341    0.0191 C   0  0  1  0  0  0  0  0  0  0  0  0
    2.7576   -0.5478    0.8934 C   0  0  0  0  0  0  0  0  0  0  0  0
    4.1645   -0.0771    0.5804 C   0  0  0  0  0  0  0  0  0  0  0  0
    4.0703    0.1703   -0.8635 N   0  0  0  0  0  0  0  0  0  0  0  0
    2.7335    0.4217   -1.2183 C   0  0  0  0  0  0  0  0  0  0  0  0
    2.3068    0.6726   -2.3666 O   0  0  0  0  0  0  0  0  0  0  0  0
   -2.9444    1.5014   -1.6655 H   0  0  0  0  0  0  0  0  0  0  0  0
   -4.0301    2.2218   -0.6114 H   0  0  0  0  0  0  0  0  0  0  0  0
   -2.9990    1.1374    1.0769 H   0  0  0  0  0  0  0  0  0  0  0  0
   -4.1005   -1.2046   -0.5079 H   0  0  0  0  0  0  0  0  0  0  0  0
   -4.4269   -0.7677    1.2868 H   0  0  0  0  0  0  0  0  0  0  0  0
   -2.1113   -1.0607    1.7950 H   0  0  0  0  0  0  0  0  0  0  0  0
   -2.1525   -2.2953    0.3874 H   0  0  0  0  0  0  0  0  0  0  0  0
   -1.8586   -0.5842   -1.2599 H   0  0  0  0  0  0  0  0  0  0  0  0
    0.5778   -1.1455   -0.6916 H   0  0  0  0  0  0  0  0  0  0  0  0
    1.8716    1.3388    0.4999 H   0  0  0  0  0  0  0  0  0  0  0  0
    2.6048   -0.3456    1.9852 H   0  0  0  0  0  0  0  0  0  0  0  0
    2.7124   -1.6132    0.6556 H   0  0  0  0  0  0  0  0  0  0  0  0
    4.9357   -0.8113    0.8263 H   0  0  0  0  0  0  0  0  0  0  0  0
    4.3217    0.9179    1.0699 H   0  0  0  0  0  0  0  0  0  0  0  0
    4.9011    0.1516   -1.4926 H   0  0  0  0  0  0  0  0  0  0  0  0
  1  2  1  0
  2  3  1  0
  3  4  1  0
  4  5  1  0
  5  6  1  0
  6  7  2  0
  6  8  1  0
  8  9  1  0
  9 10  1  0
 10 11  1  0
 11 12  1  0
 12 13  1  0
 13 14  2  0
  5  2  1  0
 13  9  1  0
  1 15  1  0
  1 16  1  0
  2 17  1  1
  3 18  1  0
  3 19  1  0
  4 20  1  0
  4 21  1  0
  5 22  1  6
  8 23  1  0
  9 24  1  1
 10 25  1  0
 10 26  1  0
 11 27  1  0
 11 28  1  0
 12 29  1  0
M  END
$$$$

     RDKit          3D

 29 30  0  0  0  0  0  0  0  0999 V2000
   -3.4880    1.0697    0.9365 N   0  0  0  0  0  0  0  0  0  0  0  0
   -2.4507    0.0849    0.7000 C   0  0  1  0  0  0  0  0  0  0  0  0
   -3.0661   -1.2793    0.4658 C   0  0  0  0  0  0  0  0  0  0  0  0
   -2.1166   -1.4215   -0.7158 C   0  0  0  0  0  0  0  0  0  0  0  0
   -2.0752    0.0906   -0.7673 C   0  0  2  0  0  0  0  0  0  0  0  0
   -0.7070    0.6447   -0.9258 C   0  0  0  0  0  0  0  0  0  0  0  0
   -0.5090    1.6752   -1.6353 O   0  0  0  0  0  0  0  0  0  0  0  0
    0.4224    0.0719   -0.3125 N   0  0  0  0  0  0  0  0  0  0  0  0
    1.7642    0.5751   -0.4395 C   0  0  1  0  0  0  0  0  0  0  0  0
    2.4601    0.8144    0.8467 C   0  0  0  0  0  0  0  0  0  0  0  0
    3.9215    0.6465    0.4679 C   0  0  0  0  0  0  0  0  0  0  0  0
    3.8415   -0.5234   -0.4082 N   0  0  0  0  0  0  0  0  0  0  0  0
    2.5810   -0.5021   -1.0670 C   0  0  0  0  0  0  0  0  0  0  0  0
    2.1562   -1.2158   -2.0040 O   0  0  0  0  0  0  0  0  0  0  0  0
   -4.4176    0.6298    1.0857 H   0  0  0  0  0  0  0  0  0  0  0  0
   -3.2821    1.6781    1.7569 H   0  0  0  0  0  0  0  0  0  0  0  0
   -1.6034    0.1141    1.3958 H   0  0  0  0  0  0  0  0  0  0  0  0
   -2.7411   -1.9881    1.2580 H   0  0  0  0  0  0  0  0  0  0  0  0
   -4.1311   -1.2846    0.2189 H   0  0  0  0  0  0  0  0  0  0  0  0
   -2.6749   -1.7824   -1.6200 H   0  0  0  0  0  0  0  0  0  0  0  0
   -1.1835   -1.9365   -0.5034 H   0  0  0  0  0  0  0  0  0  0  0  0
   -2.8324    0.5498   -1.4332 H   0  0  0  0  0  0  0  0  0  0  0  0
    0.2909   -0.7761    0.2783 H   0  0  0  0  0  0  0  0  0  0  0  0
    1.8305    1.4681   -1.0730 H   0  0  0  0  0  0  0  0  0  0  0  0
    2.2559    0.0681    1.6317 H   0  0  0  0  0  0  0  0  0  0  0  0
    2.3477    1.8601    1.1944 H   0  0  0  0  0  0  0  0  0  0  0  0
    4.5578    0.4331    1.3556 H   0  0  0  0  0  0  0  0  0  0  0  0
    4.2955    1.4877   -0.1410 H   0  0  0  0  0  0  0  0  0  0  0  0
    4.5535   -1.2520   -0.5465 H   0  0  0  0  0  0  0  0  0  0  0  0
  1  2  1  0
  2  3  1  0
  3  4  1  0
  4  5  1  0
  5  6  1  0
  6  7  2  0
  6  8  1  0
  8  9  1  0
  9 10  1  0
 10 11  1  0
 11 12  1  0
 12 13  1  0
 13 14  2  0
  5  2  1  0
 13  9  1  0
  1 15  1  0
  1 16  1  0
  2 17  1  1
  3 18  1  0
  3 19  1  0
  4 20  1  0
  4 21  1  0
  5 22  1  6
  8 23  1  0
  9 24  1  6
 10 25  1  0
 10 26  1  0
 11 27  1  0
 11 28  1  0
 12 29  1  0
M  END
$$$$
