
     RDKit          3D

 24 24  0  0  0  0  0  0  0  0999 V2000
   -2.9556    1.0037    0.8342 C   0  0  0  0  0  0  0  0  0  0  0  0
   -2.3139    0.3694   -0.2283 O   0  0  0  0  0  0  0  0  0  0  0  0
   -1.0234    0.0268    0.1993 C   0  0  0  0  0  0  0  0  0  0  0  0
   -0.2734   -0.6766   -0.9381 C   0  0  2  0  0  0  0  0  0  0  0  0
   -1.0170   -1.9877   -1.1832 C   0  0  0  0  0  0  0  0  0  0  0  0
   -2.3029   -1.7520   -1.6627 O   0  0  0  0  0  0  0  0  0  0  0  0
    1.0226   -1.0003   -0.4529 N   0  0  0  0  0  0  0  0  0  0  0  0
    2.0051   -0.1760   -0.3349 C   0  0  0  0  0  0  0  0  0  0  0  0
    3.2247   -0.4978    0.1256 N   0  0  0  0  0  0  0  0  0  0  0  0
    4.0193    0.6074    0.1187 C   0  0  0  0  0  0  0  0  0  0  0  0
    3.2692    1.6203   -0.3548 N   0  0  0  0  0  0  0  0  0  0  0  0
    2.0584    1.1343   -0.6240 N   0  0  0  0  0  0  0  0  0  0  0  0
   -3.0261    0.3385    1.7283 H   0  0  0  0  0  0  0  0  0  0  0  0
   -3.9610    1.3555    0.5193 H   0  0  0  0  0  0  0  0  0  0  0  0
   -2.3644    1.9009    1.1613 H   0  0  0  0  0  0  0  0  0  0  0  0
   -0.5131    0.9767    0.4645 H   0  0  0  0  0  0  0  0  0  0  0  0
   -1.0369   -0.6295    1.0896 H   0  0  0  0  0  0  0  0  0  0  0  0
   -0.2982   -0.0806   -1.8499 H   0  0  0  0  0  0  0  0  0  0  0  0
   -0.4431   -2.6016   -1.9058 H   0  0  0  0  0  0  0  0  0  0  0  0
   -1.0743   -2.5723   -0.2383 H   0  0  0  0  0  0  0  0  0  0  0  0
   -2.9442   -2.3555   -1.1821 H   0  0  0  0  0  0  0  0  0  0  0  0
    5.0519    0.6921    0.4253 H   0  0  0  0  0  0  0  0  0  0  0  0
    3.6124    2.6094   -0.4773 H   0  0  0  0  0  0  0  0  0  0  0  0
    1.2837    1.6950   -0.9998 H   0  0  0  0  0  0  0  0  0  0  0  0
  1  2  1  0
  2  3  1  0
  3  4  1  0
  4  5  1  0
  5  6  1  0
  4  7  1  0
  7  8  2  3
  8  9  1  0
  9 10  2  0
 10 11  1  0
 11 12  1  0
 12  8  1  0
  1 13  1  0
  1 14  1  0
  1 15  1  0
  3 16  1  0
  3 17  1  0
  4 18  1  6
  5 19  1  0
  5 20  1  0
  6 21  1  0
 10 22  1  0
 11 23  1  0
 12 24  1  0
M  END
$$$$

     RDKit          3D

 24 24  0  0  0  0  0  0  0  0999 V2000
   -3.0815    1.5779   -0.6302 C   0  0  0  0  0  0  0  0  0  0  0  0
   -1.8108    0.9955   -0.5892 O   0  0  0  0  0  0  0  0  0  0  0  0
   -1.8673   -0.3258   -0.1385 C   0  0  0  0  0  0  0  0  0  0  0  0
   -0.4350   -0.8389   -0.1404 C   0  0  2  0  0  0  0  0  0  0  0  0
   -0.4806   -2.2396    0.4531 C   0  0  0  0  0  0  0  0  0  0  0  0
    0.8213   -2.7466    0.6162 O   0  0  0  0  0  0  0  0  0  0  0  0
    0.3046    0.0173    0.7554 N   0  0  0  0  0  0  0  0  0  0  0  0
    1.4511    0.5261    0.4744 C   0  0  0  0  0  0  0  0  0  0  0  0
    2.1217    1.3222    1.3272 N   0  0  0  0  0  0  0  0  0  0  0  0
    3.2674    1.6644    0.7073 C   0  0  0  0  0  0  0  0  0  0  0  0
    3.2959    1.0854   -0.5066 N   0  0  0  0  0  0  0  0  0  0  0  0
    2.1864    0.3881   -0.6529 N   0  0  0  0  0  0  0  0  0  0  0  0
   -3.7260    1.0112   -1.3079 H   0  0  0  0  0  0  0  0  0  0  0  0
   -2.9206    2.6346   -0.9509 H   0  0  0  0  0  0  0  0  0  0  0  0
   -3.5129    1.6221    0.3981 H   0  0  0  0  0  0  0  0  0  0  0  0
   -2.2302   -0.3639    0.8898 H   0  0  0  0  0  0  0  0  0  0  0  0
   -2.5311   -0.9526   -0.7603 H   0  0  0  0  0  0  0  0  0  0  0  0
    0.0124   -0.8597   -1.1377 H   0  0  0  0  0  0  0  0  0  0  0  0
   -0.9678   -2.2435    1.4386 H   0  0  0  0  0  0  0  0  0  0  0  0
   -1.0458   -2.9314   -0.1998 H   0  0  0  0  0  0  0  0  0  0  0  0
    1.1151   -2.6378    1.5630 H   0  0  0  0  0  0  0  0  0  0  0  0
    4.0373    2.2895    1.0970 H   0  0  0  0  0  0  0  0  0  0  0  0
    4.0681    1.1752   -1.2115 H   0  0  0  0  0  0  0  0  0  0  0  0
    1.9287   -0.1698   -1.4945 H   0  0  0  0  0  0  0  0  0  0  0  0
  1  2  1  0
  2  3  1  0
  3  4  1  0
  4  5  1  0
  5  6  1  0
  4  7  1  0
  7  8  2  3
  8  9  1  0
  9 10  2  0
 10 11  1  0
 11 12  1  0
 12  8  1  0
  1 13  1  0
  1 14  1  0
  1 15  1  0
  3 16  1  0
  3 17  1  0
  4 18  1  6
  5 19  1  0
  5 20  1  0
  6 21  1  0
 10 22  1  0
 11 23  1  0
 12 24  1  0
M  END
$$$$

     RDKit          3D

 24 24  0  0  0  0  0  0  0  0999 V2000
    3.4383    1.1216   -0.9650 C   0  0  0  0  0  0  0  0  0  0  0  0
    2.2656    1.0283   -0.2260 O   0  0  0  0  0  0  0  0  0  0  0  0
    1.8018   -0.2717   -0.1331 C   0  0  0  0  0  0  0  0  0  0  0  0
    0.5153   -0.2104    0.7034 C   0  0  2  0  0  0  0  0  0  0  0  0
    0.0633   -1.6121    0.9144 C   0  0  0  0  0  0  0  0  0  0  0  0
    1.0958   -2.2813    1.6115 O   0  0  0  0  0  0  0  0  0  0  0  0
   -0.3933    0.6322    0.0126 N   0  0  0  0  0  0  0  0  0  0  0  0
   -1.6406    0.5232   -0.1024 C   0  0  0  0  0  0  0  0  0  0  0  0
   -2.4625   -0.4160    0.3929 N   0  0  0  0  0  0  0  0  0  0  0  0
   -3.7286   -0.1589    0.0341 C   0  0  0  0  0  0  0  0  0  0  0  0
   -3.6867    0.9573   -0.6946 N   0  0  0  0  0  0  0  0  0  0  0  0
   -2.4332    1.3690   -0.7779 N   0  0  0  0  0  0  0  0  0  0  0  0
    3.7320    2.1886   -0.9853 H   0  0  0  0  0  0  0  0  0  0  0  0
    4.2649    0.5557   -0.4828 H   0  0  0  0  0  0  0  0  0  0  0  0
    3.2516    0.7443   -1.9928 H   0  0  0  0  0  0  0  0  0  0  0  0
    1.4752   -0.5998   -1.1529 H   0  0  0  0  0  0  0  0  0  0  0  0
    2.5297   -0.9678    0.3131 H   0  0  0  0  0  0  0  0  0  0  0  0
    0.8489    0.2097    1.6927 H   0  0  0  0  0  0  0  0  0  0  0  0
   -0.0367   -2.1479   -0.0533 H   0  0  0  0  0  0  0  0  0  0  0  0
   -0.8333   -1.7208    1.5354 H   0  0  0  0  0  0  0  0  0  0  0  0
    1.1598   -1.8481    2.4865 H   0  0  0  0  0  0  0  0  0  0  0  0
   -4.5736   -0.7631    0.3054 H   0  0  0  0  0  0  0  0  0  0  0  0
   -4.5093    1.4417   -1.1368 H   0  0  0  0  0  0  0  0  0  0  0  0
   -2.1444    2.2262   -1.2992 H   0  0  0  0  0  0  0  0  0  0  0  0
  1  2  1  0
  2  3  1  0
  3  4  1  0
  4  5  1  0
  5  6  1  0
  4  7  1  0
  7  8  2  3
  8  9  1  0
  9 10  2  0
 10 11  1  0
 11 12  1  0
 12  8  1  0
  1 13  1  0
  1 14  1  0
  1 15  1  0
  3 16  1  0
  3 17  1  0
  4 18  1  1
  5 19  1  0
  5 20  1  0
  6 21  1  0
 10 22  1  0
 11 23  1  0
 12 24  1  0
M  END
$$$$

     RDKit          3D

 24 24  0  0  0  0  0  0  0  0999 V2000
   -1.7358    2.2419    0.6814 C   0  0  0  0  0  0  0  0  0  0  0  0
   -0.9497    1.2748    0.0873 O   0  0  0  0  0  0  0  0  0  0  0  0
   -1.6115    0.1068   -0.2006 C   0  0  0  0  0  0  0  0  0  0  0  0
   -0.6289   -0.8486   -0.8424 C   0  0  2  0  0  0  0  0  0  0  0  0
   -1.2843   -2.1405   -1.2764 C   0  0  0  0  0  0  0  0  0  0  0  0
   -1.8033   -2.8529   -0.2135 O   0  0  0  0  0  0  0  0  0  0  0  0
    0.4506   -1.1064    0.0634 N   0  0  0  0  0  0  0  0  0  0  0  0
    1.4513   -0.3295    0.2209 C   0  0  0  0  0  0  0  0  0  0  0  0
    1.6394    0.8279   -0.4286 N   0  0  0  0  0  0  0  0  0  0  0  0
    2.7891    1.3730   -0.0143 C   0  0  0  0  0  0  0  0  0  0  0  0
    3.3171    0.5412    0.9027 N   0  0  0  0  0  0  0  0  0  0  0  0
    2.4969   -0.4921    1.0398 N   0  0  0  0  0  0  0  0  0  0  0  0
   -2.5997    2.5543    0.0595 H   0  0  0  0  0  0  0  0  0  0  0  0
   -1.0896    3.1626    0.7644 H   0  0  0  0  0  0  0  0  0  0  0  0
   -2.0418    1.9935    1.7189 H   0  0  0  0  0  0  0  0  0  0  0  0
   -2.0528   -0.3539    0.7119 H   0  0  0  0  0  0  0  0  0  0  0  0
   -2.4611    0.2480   -0.9235 H   0  0  0  0  0  0  0  0  0  0  0  0
   -0.2130   -0.3750   -1.7503 H   0  0  0  0  0  0  0  0  0  0  0  0
   -0.5142   -2.7298   -1.8053 H   0  0  0  0  0  0  0  0  0  0  0  0
   -2.0867   -1.9154   -2.0166 H   0  0  0  0  0  0  0  0  0  0  0  0
   -1.1521   -2.8667    0.5123 H   0  0  0  0  0  0  0  0  0  0  0  0
    3.2396    2.3192   -0.3438 H   0  0  0  0  0  0  0  0  0  0  0  0
    4.2199    0.6867    1.4178 H   0  0  0  0  0  0  0  0  0  0  0  0
    2.6208   -1.3189    1.6792 H   0  0  0  0  0  0  0  0  0  0  0  0
  1  2  1  0
  2  3  1  0
  3  4  1  0
  4  5  1  0
  5  6  1  0
  4  7  1  0
  7  8  2  3
  8  9  1  0
  9 10  2  0
 10 11  1  0
 11 12  1  0
 12  8  1  0
  1 13  1  0
  1 14  1  0
  1 15  1  0
  3 16  1  0
  3 17  1  0
  4 18  1  6
  5 19  1  0
  5 20  1  0
  6 21  1  0
 10 22  1  0
 11 23  1  0
 12 24  1  0
M  END
$$$$

     RDKit          3D

 24 24  0  0  0  0  0  0  0  0999 V2000
   -2.6151    0.9856    1.4039 C   0  0  0  0  0  0  0  0  0  0  0  0
   -1.6958    0.0535    0.9639 O   0  0  0  0  0  0  0  0  0  0  0  0
   -1.3768    0.1789   -0.3723 C   0  0  0  0  0  0  0  0  0  0  0  0
   -0.3556   -0.9244   -0.6818 C   0  0  2  0  0  0  0  0  0  0  0  0
   -1.0123   -2.2644   -0.3304 C   0  0  0  0  0  0  0  0  0  0  0  0
   -1.3704   -2.2852    1.0114 O   0  0  0  0  0  0  0  0  0  0  0  0
    0.8272   -0.7629    0.1400 N   0  0  0  0  0  0  0  0  0  0  0  0
    1.7625    0.0815   -0.1484 C   0  0  0  0  0  0  0  0  0  0  0  0
    2.8627    0.2366    0.6096 N   0  0  0  0  0  0  0  0  0  0  0  0
    3.6117    1.1922    0.0130 C   0  0  0  0  0  0  0  0  0  0  0  0
    2.9924    1.6290   -1.0996 N   0  0  0  0  0  0  0  0  0  0  0  0
    1.8688    0.9333   -1.1705 N   0  0  0  0  0  0  0  0  0  0  0  0
   -2.8134    0.8207    2.4633 H   0  0  0  0  0  0  0  0  0  0  0  0
   -2.1714    2.0058    1.3131 H   0  0  0  0  0  0  0  0  0  0  0  0
   -3.5517    0.9948    0.8469 H   0  0  0  0  0  0  0  0  0  0  0  0
   -0.8725    1.1634   -0.5548 H   0  0  0  0  0  0  0  0  0  0  0  0
   -2.2275    0.0924   -1.0462 H   0  0  0  0  0  0  0  0  0  0  0  0
   -0.0728   -0.9202   -1.7393 H   0  0  0  0  0  0  0  0  0  0  0  0
   -1.9215   -2.4258   -0.9271 H   0  0  0  0  0  0  0  0  0  0  0  0
   -0.3008   -3.0836   -0.5334 H   0  0  0  0  0  0  0  0  0  0  0  0
   -0.6259   -2.6661    1.5608 H   0  0  0  0  0  0  0  0  0  0  0  0
    4.5644    1.5766    0.3419 H   0  0  0  0  0  0  0  0  0  0  0  0
    3.3305    2.3508   -1.7492 H   0  0  0  0  0  0  0  0  0  0  0  0
    1.1633    1.0375   -1.9231 H   0  0  0  0  0  0  0  0  0  0  0  0
  1  2  1  0
  2  3  1  0
  3  4  1  0
  4  5  1  0
  5  6  1  0
  4  7  1  0
  7  8  2  3
  8  9  1  0
  9 10  2  0
 10 11  1  0
 11 12  1  0
 12  8  1  0
  1 13  1  0
  1 14  1  0
  1 15  1  0
  3 16  1  0
  3 17  1  0
  4 18  1  6
  5 19  1  0
  5 20  1  0
  6 21  1  0
 10 22  1  0
 11 23  1  0
 12 24  1  0
M  END
$$$$

     RDKit          3D

 24 24  0  0  0  0  0  0  0  0999 V2000
    3.1551    2.0377    0.2377 C   0  0  0  0  0  0  0  0  0  0  0  0
    1.8926    1.4928    0.4501 O   0  0  0  0  0  0  0  0  0  0  0  0
    1.8745    0.2212   -0.1231 C   0  0  0  0  0  0  0  0  0  0  0  0
    0.4864   -0.3815    0.1088 C   0  0  2  0  0  0  0  0  0  0  0  0
    0.5344   -1.7941   -0.4132 C   0  0  0  0  0  0  0  0  0  0  0  0
    1.5439   -2.4518    0.3289 O   0  0  0  0  0  0  0  0  0  0  0  0
   -0.4635    0.4544   -0.5014 N   0  0  0  0  0  0  0  0  0  0  0  0
   -1.7283    0.4087   -0.4384 C   0  0  0  0  0  0  0  0  0  0  0  0
   -2.5555    1.2626   -1.0649 N   0  0  0  0  0  0  0  0  0  0  0  0
   -3.8420    0.9408   -0.7928 C   0  0  0  0  0  0  0  0  0  0  0  0
   -3.8023   -0.1300    0.0153 N   0  0  0  0  0  0  0  0  0  0  0  0
   -2.5228   -0.4469    0.2259 N   0  0  0  0  0  0  0  0  0  0  0  0
    3.1686    3.0428    0.6910 H   0  0  0  0  0  0  0  0  0  0  0  0
    3.3464    2.1341   -0.8483 H   0  0  0  0  0  0  0  0  0  0  0  0
    3.8918    1.3645    0.7081 H   0  0  0  0  0  0  0  0  0  0  0  0
    1.9564    0.3367   -1.2374 H   0  0  0  0  0  0  0  0  0  0  0  0
    2.6752   -0.4322    0.2249 H   0  0  0  0  0  0  0  0  0  0  0  0
    0.3372   -0.3756    1.2074 H   0  0  0  0  0  0  0  0  0  0  0  0
   -0.4158   -2.3280   -0.3558 H   0  0  0  0  0  0  0  0  0  0  0  0
    0.8884   -1.8247   -1.4642 H   0  0  0  0  0  0  0  0  0  0  0  0
    1.1881   -3.1478    0.9032 H   0  0  0  0  0  0  0  0  0  0  0  0
   -4.7458    1.4479   -1.1557 H   0  0  0  0  0  0  0  0  0  0  0  0
   -4.6591   -0.5964    0.3868 H   0  0  0  0  0  0  0  0  0  0  0  0
   -2.2038   -1.2352    0.8143 H   0  0  0  0  0  0  0  0  0  0  0  0
  1  2  1  0
  2  3  1  0
  3  4  1  0
  4  5  1  0
  5  6  1  0
  4  7  1  0
  7  8  2  3
  8  9  1  0
  9 10  2  0
 10 11  1  0
 11 12  1  0
 12  8  1  0
  1 13  1  0
  1 14  1  0
  1 15  1  0
  3 16  1  0
  3 17  1  0
  4 18  1  1
  5 19  1  0
  5 20  1  0
  6 21  1  0
 10 22  1  0
 11 23  1  0
 12 24  1  0
M  END
$$$$

     RDKit          3D

 24 24  0  0  0  0  0  0  0  0999 V2000
   -1.6936    1.2777    1.5447 C   0  0  0  0  0  0  0  0  0  0  0  0
   -1.5300   -0.0446    1.8900 O   0  0  0  0  0  0  0  0  0  0  0  0
   -1.6992   -0.8646    0.8184 C   0  0  0  0  0  0  0  0  0  0  0  0
   -0.7143   -0.5855   -0.2870 C   0  0  2  0  0  0  0  0  0  0  0  0
   -0.9747   -1.6367   -1.3698 C   0  0  0  0  0  0  0  0  0  0  0  0
   -2.2370   -1.4720   -1.8983 O   0  0  0  0  0  0  0  0  0  0  0  0
    0.6198   -0.7718    0.2605 N   0  0  0  0  0  0  0  0  0  0  0  0
    1.5632    0.0781    0.0399 C   0  0  0  0  0  0  0  0  0  0  0  0
    1.4195    1.1895   -0.6947 N   0  0  0  0  0  0  0  0  0  0  0  0
    2.6104    1.8369   -0.7098 C   0  0  0  0  0  0  0  0  0  0  0  0
    3.4529    1.0974    0.0210 N   0  0  0  0  0  0  0  0  0  0  0  0
    2.8224    0.0293    0.4780 N   0  0  0  0  0  0  0  0  0  0  0  0
   -1.5555    1.8593    2.4974 H   0  0  0  0  0  0  0  0  0  0  0  0
   -2.6324    1.4953    1.0342 H   0  0  0  0  0  0  0  0  0  0  0  0
   -0.8509    1.6404    0.8869 H   0  0  0  0  0  0  0  0  0  0  0  0
   -1.5267   -1.9156    1.1643 H   0  0  0  0  0  0  0  0  0  0  0  0
   -2.7345   -0.8158    0.4071 H   0  0  0  0  0  0  0  0  0  0  0  0
   -0.8818    0.4287   -0.6878 H   0  0  0  0  0  0  0  0  0  0  0  0
   -0.2175   -1.5271   -2.1744 H   0  0  0  0  0  0  0  0  0  0  0  0
   -0.8558   -2.6385   -0.9078 H   0  0  0  0  0  0  0  0  0  0  0  0
   -2.8769   -2.0598   -1.4408 H   0  0  0  0  0  0  0  0  0  0  0  0
    2.8187    2.7699   -1.2199 H   0  0  0  0  0  0  0  0  0  0  0  0
    4.4525    1.3529    0.1866 H   0  0  0  0  0  0  0  0  0  0  0  0
    3.2215   -0.7230    1.0731 H   0  0  0  0  0  0  0  0  0  0  0  0
  1  2  1  0
  2  3  1  0
  3  4  1  0
  4  5  1  0
  5  6  1  0
  4  7  1  0
  7  8  2  3
  8  9  1  0
  9 10  2  0
 10 11  1  0
 11 12  1  0
 12  8  1  0
  1 13  1  0
  1 14  1  0
  1 15  1  0
  3 16  1  0
  3 17  1  0
  4 18  1  6
  5 19  1  0
  5 20  1  0
  6 21  1  0
 10 22  1  0
 11 23  1  0
 12 24  1  0
M  END
$$$$

     RDKit          3D

 24 24  0  0  0  0  0  0  0  0999 V2000
   -3.5330    0.8483    1.1846 C   0  0  0  0  0  0  0  0  0  0  0  0
   -2.3722    0.9582    0.4324 O   0  0  0  0  0  0  0  0  0  0  0  0
   -1.5067   -0.1172    0.6313 C   0  0  0  0  0  0  0  0  0  0  0  0
   -0.3061    0.1430   -0.2429 C   0  0  2  0  0  0  0  0  0  0  0  0
   -0.8156    0.2497   -1.6730 C   0  0  0  0  0  0  0  0  0  0  0  0
   -1.3338   -0.9849   -2.0892 O   0  0  0  0  0  0  0  0  0  0  0  0
    0.7016   -0.8299   -0.1945 N   0  0  0  0  0  0  0  0  0  0  0  0
    1.9369   -0.7174    0.0270 C   0  0  0  0  0  0  0  0  0  0  0  0
    2.8533   -1.6952    0.0594 N   0  0  0  0  0  0  0  0  0  0  0  0
    4.0810   -1.1641    0.3317 C   0  0  0  0  0  0  0  0  0  0  0  0
    3.8972    0.1537    0.4646 N   0  0  0  0  0  0  0  0  0  0  0  0
    2.5987    0.4233    0.2799 N   0  0  0  0  0  0  0  0  0  0  0  0
   -4.1468    1.7444    0.9559 H   0  0  0  0  0  0  0  0  0  0  0  0
   -4.1215   -0.0606    0.9273 H   0  0  0  0  0  0  0  0  0  0  0  0
   -3.2716    0.8397    2.2486 H   0  0  0  0  0  0  0  0  0  0  0  0
   -1.2525   -0.1229    1.7099 H   0  0  0  0  0  0  0  0  0  0  0  0
   -2.0058   -1.0591    0.4052 H   0  0  0  0  0  0  0  0  0  0  0  0
    0.0848    1.1512    0.0314 H   0  0  0  0  0  0  0  0  0  0  0  0
   -1.5625    1.0571   -1.7292 H   0  0  0  0  0  0  0  0  0  0  0  0
    0.0473    0.4860   -2.3220 H   0  0  0  0  0  0  0  0  0  0  0  0
   -1.9054   -0.7946   -2.8804 H   0  0  0  0  0  0  0  0  0  0  0  0
    5.0261   -1.6993    0.4239 H   0  0  0  0  0  0  0  0  0  0  0  0
    4.6728    0.8242    0.6782 H   0  0  0  0  0  0  0  0  0  0  0  0
    2.2339    1.3983    0.3398 H   0  0  0  0  0  0  0  0  0  0  0  0
  1  2  1  0
  2  3  1  0
  3  4  1  0
  4  5  1  0
  5  6  1  0
  4  7  1  0
  7  8  2  3
  8  9  1  0
  9 10  2  0
 10 11  1  0
 11 12  1  0
 12  8  1  0
  1 13  1  0
  1 14  1  0
  1 15  1  0
  3 16  1  0
  3 17  1  0
  4 18  1  1
  5 19  1  0
  5 20  1  0
  6 21  1  0
 10 22  1  0
 11 23  1  0
 12 24  1  0
M  END
$$$$
