
     RDKit          3D

 28 28  0  0  0  0  0  0  0  0999 V2000
    4.7962    0.3087    0.1659 C   0  0  0  0  0  0  0  0  0  0  0  0
    3.3941   -0.1157    0.2144 C   0  0  0  0  0  0  0  0  0  0  0  0
    2.2603    0.6755    0.3835 C   0  0  0  0  0  0  0  0  0  0  0  0
    1.1666   -0.1598    0.3600 C   0  0  0  0  0  0  0  0  0  0  0  0
   -0.2836    0.2321    0.5184 C   0  0  0  0  0  0  0  0  0  0  0  0
   -0.7514    0.9309   -0.6105 N   0  0  0  0  0  0  0  0  0  0  0  0
   -2.0659    1.4287   -0.6072 C   0  0  0  0  0  0  0  0  0  0  0  0
   -3.1051    0.3573   -0.6809 C   0  0  1  0  0  0  0  0  0  0  0  0
   -2.9871   -0.4508   -1.8307 O   0  0  0  0  0  0  0  0  0  0  0  0
   -3.2199   -0.5242    0.4875 C   0  0  0  0  0  0  0  0  0  0  0  0
   -3.2818   -1.9569    0.3243 N   0  0  0  0  0  0  0  0  0  0  0  0
   -3.2649   -0.0038    1.6285 O   0  0  0  0  0  0  0  0  0  0  0  0
    1.6605   -1.3925    0.1837 N   0  0  0  0  0  0  0  0  0  0  0  0
    2.9671   -1.3699    0.0978 N   0  0  0  0  0  0  0  0  0  0  0  0
    4.9049    1.3677   -0.1496 H   0  0  0  0  0  0  0  0  0  0  0  0
    5.2648    0.1256    1.1574 H   0  0  0  0  0  0  0  0  0  0  0  0
    5.3676   -0.3412   -0.5538 H   0  0  0  0  0  0  0  0  0  0  0  0
    2.2491    1.7473    0.5076 H   0  0  0  0  0  0  0  0  0  0  0  0
   -0.8409   -0.7350    0.6148 H   0  0  0  0  0  0  0  0  0  0  0  0
   -0.4163    0.7408    1.4906 H   0  0  0  0  0  0  0  0  0  0  0  0
   -0.0536    1.4136   -1.1872 H   0  0  0  0  0  0  0  0  0  0  0  0
   -2.2583    2.1787   -1.4217 H   0  0  0  0  0  0  0  0  0  0  0  0
   -2.3046    2.0318    0.3322 H   0  0  0  0  0  0  0  0  0  0  0  0
   -4.1301    0.8819   -0.7648 H   0  0  0  0  0  0  0  0  0  0  0  0
   -2.0710   -0.2735   -2.1788 H   0  0  0  0  0  0  0  0  0  0  0  0
   -2.6701   -2.5085    0.9628 H   0  0  0  0  0  0  0  0  0  0  0  0
   -3.9047   -2.3597   -0.3906 H   0  0  0  0  0  0  0  0  0  0  0  0
    3.5778   -2.2292   -0.0451 H   0  0  0  0  0  0  0  0  0  0  0  0
  1  2  1  0
  2  3  2  0
  3  4  1  0
  4  5  1  0
  5  6  1  0
  6  7  1  0
  7  8  1  0
  8  9  1  0
  8 10  1  0
 10 11  1  0
 10 12  2  0
  4 13  2  0
 13 14  1  0
 14  2  1  0
  1 15  1  0
  1 16  1  0
  1 17  1  0
  3 18  1  0
  5 19  1  0
  5 20  1  0
  6 21  1  0
  7 22  1  0
  7 23  1  0
  8 24  1  6
  9 25  1  0
 11 26  1  0
 11 27  1  0
 14 28  1  0
M  END
$$$$

     RDKit          3D

 28 28  0  0  0  0  0  0  0  0999 V2000
    4.4582    1.1856   -0.9850 C   0  0  0  0  0  0  0  0  0  0  0  0
    3.3490    0.2960   -0.5414 C   0  0  0  0  0  0  0  0  0  0  0  0
    2.3339    0.6555    0.3199 C   0  0  0  0  0  0  0  0  0  0  0  0
    1.5066   -0.4434    0.4818 C   0  0  0  0  0  0  0  0  0  0  0  0
    0.2711   -0.5067    1.3358 C   0  0  0  0  0  0  0  0  0  0  0  0
   -0.8681   -0.1201    0.5582 N   0  0  0  0  0  0  0  0  0  0  0  0
   -2.0406   -0.1941    1.4178 C   0  0  0  0  0  0  0  0  0  0  0  0
   -3.2690    0.2144    0.6086 C   0  0  1  0  0  0  0  0  0  0  0  0
   -3.0578    1.5154    0.1685 O   0  0  0  0  0  0  0  0  0  0  0  0
   -3.3748   -0.7432   -0.5187 C   0  0  0  0  0  0  0  0  0  0  0  0
   -3.2602   -0.2856   -1.8537 N   0  0  0  0  0  0  0  0  0  0  0  0
   -3.5669   -1.9506   -0.2253 O   0  0  0  0  0  0  0  0  0  0  0  0
    2.0445   -1.4147   -0.2774 N   0  0  0  0  0  0  0  0  0  0  0  0
    3.1346   -0.9855   -0.8860 N   0  0  0  0  0  0  0  0  0  0  0  0
    5.1983    0.5814   -1.5395 H   0  0  0  0  0  0  0  0  0  0  0  0
    4.9751    1.5179   -0.0393 H   0  0  0  0  0  0  0  0  0  0  0  0
    4.1078    2.0466   -1.5719 H   0  0  0  0  0  0  0  0  0  0  0  0
    2.1825    1.6201    0.8017 H   0  0  0  0  0  0  0  0  0  0  0  0
    0.3648    0.1924    2.1863 H   0  0  0  0  0  0  0  0  0  0  0  0
    0.1376   -1.5606    1.6657 H   0  0  0  0  0  0  0  0  0  0  0  0
   -1.0336   -0.7307   -0.2599 H   0  0  0  0  0  0  0  0  0  0  0  0
   -2.1903   -1.2182    1.7884 H   0  0  0  0  0  0  0  0  0  0  0  0
   -1.8981    0.4680    2.2962 H   0  0  0  0  0  0  0  0  0  0  0  0
   -4.1460    0.1283    1.2886 H   0  0  0  0  0  0  0  0  0  0  0  0
   -2.7242    1.5445   -0.7560 H   0  0  0  0  0  0  0  0  0  0  0  0
   -2.5698   -0.7728   -2.4812 H   0  0  0  0  0  0  0  0  0  0  0  0
   -3.8241    0.4973   -2.2205 H   0  0  0  0  0  0  0  0  0  0  0  0
    3.7598   -1.5371   -1.5446 H   0  0  0  0  0  0  0  0  0  0  0  0
  1  2  1  0
  2  3  2  0
  3  4  1  0
  4  5  1  0
  5  6  1  0
  6  7  1  0
  7  8  1  0
  8  9  1  0
  8 10  1  0
 10 11  1  0
 10 12  2  0
  4 13  2  0
 13 14  1  0
 14  2  1  0
  1 15  1  0
  1 16  1  0
  1 17  1  0
  3 18  1  0
  5 19  1  0
  5 20  1  0
  6 21  1  0
  7 22  1  0
  7 23  1  0
  8 24  1  1
  9 25  1  0
 11 26  1  0
 11 27  1  0
 14 28  1  0
M  END
$$$$

     RDKit          3D

 28 28  0  0  0  0  0  0  0  0999 V2000
    5.0043    0.9944   -0.1509 C   0  0  0  0  0  0  0  0  0  0  0  0
    3.5412    0.8648    0.1648 C   0  0  0  0  0  0  0  0  0  0  0  0
    2.7299   -0.1847   -0.1526 C   0  0  0  0  0  0  0  0  0  0  0  0
    1.4635    0.1137    0.3325 C   0  0  0  0  0  0  0  0  0  0  0  0
    0.2613   -0.7573    0.1948 C   0  0  0  0  0  0  0  0  0  0  0  0
   -0.7813   -0.4281    1.0984 N   0  0  0  0  0  0  0  0  0  0  0  0
   -1.9579   -1.2194    1.0340 C   0  0  0  0  0  0  0  0  0  0  0  0
   -2.7011   -0.9386   -0.2450 C   0  0  1  0  0  0  0  0  0  0  0  0
   -3.8449   -1.7560   -0.2854 O   0  0  0  0  0  0  0  0  0  0  0  0
   -3.1131    0.5001   -0.1836 C   0  0  0  0  0  0  0  0  0  0  0  0
   -4.4804    0.8213   -0.1125 N   0  0  0  0  0  0  0  0  0  0  0  0
   -2.2549    1.4144   -0.1940 O   0  0  0  0  0  0  0  0  0  0  0  0
    1.5709    1.3158    0.9124 N   0  0  0  0  0  0  0  0  0  0  0  0
    2.7945    1.7488    0.8092 N   0  0  0  0  0  0  0  0  0  0  0  0
    5.5604    1.1656    0.7844 H   0  0  0  0  0  0  0  0  0  0  0  0
    5.0802    1.8834   -0.8320 H   0  0  0  0  0  0  0  0  0  0  0  0
    5.3216    0.0949   -0.7173 H   0  0  0  0  0  0  0  0  0  0  0  0
    3.0127   -1.0881   -0.6844 H   0  0  0  0  0  0  0  0  0  0  0  0
   -0.1161   -0.7330   -0.8585 H   0  0  0  0  0  0  0  0  0  0  0  0
    0.6226   -1.8044    0.4178 H   0  0  0  0  0  0  0  0  0  0  0  0
   -0.8553    0.5275    1.4407 H   0  0  0  0  0  0  0  0  0  0  0  0
   -2.6524   -1.0385    1.8916 H   0  0  0  0  0  0  0  0  0  0  0  0
   -1.7294   -2.3214    1.0173 H   0  0  0  0  0  0  0  0  0  0  0  0
   -2.0394   -1.1070   -1.1024 H   0  0  0  0  0  0  0  0  0  0  0  0
   -3.5740   -2.6257    0.0690 H   0  0  0  0  0  0  0  0  0  0  0  0
   -5.0401    0.5141    0.7067 H   0  0  0  0  0  0  0  0  0  0  0  0
   -4.9184    1.3638   -0.8857 H   0  0  0  0  0  0  0  0  0  0  0  0
    3.0957    2.6799    1.2023 H   0  0  0  0  0  0  0  0  0  0  0  0
  1  2  1  0
  2  3  2  0
  3  4  1  0
  4  5  1  0
  5  6  1  0
  6  7  1  0
  7  8  1  0
  8  9  1  0
  8 10  1  0
 10 11  1  0
 10 12  2  0
  4 13  2  0
 13 14  1  0
 14  2  1  0
  1 15  1  0
  1 16  1  0
  1 17  1  0
  3 18  1  0
  5 19  1  0
  5 20  1  0
  6 21  1  0
  7 22  1  0
  7 23  1  0
  8 24  1  6
  9 25  1  0
 11 26  1  0
 11 27  1  0
 14 28  1  0
M  END
$$$$

     RDKit          3D

 28 28  0  0  0  0  0  0  0  0999 V2000
   -4.5450    0.8555   -0.8241 C   0  0  0  0  0  0  0  0  0  0  0  0
   -3.3221    0.0925   -0.4099 C   0  0  0  0  0  0  0  0  0  0  0  0
   -2.2551    0.5098    0.3554 C   0  0  0  0  0  0  0  0  0  0  0  0
   -1.3793   -0.5459    0.4611 C   0  0  0  0  0  0  0  0  0  0  0  0
   -0.0832   -0.5549    1.2032 C   0  0  0  0  0  0  0  0  0  0  0  0
    0.7225    0.4759    0.7056 N   0  0  0  0  0  0  0  0  0  0  0  0
    2.0026    0.7020    1.2286 C   0  0  0  0  0  0  0  0  0  0  0  0
    2.9437   -0.4111    0.8497 C   0  0  1  0  0  0  0  0  0  0  0  0
    2.5868   -1.6569    1.2923 O   0  0  0  0  0  0  0  0  0  0  0  0
    3.1328   -0.3726   -0.6329 C   0  0  0  0  0  0  0  0  0  0  0  0
    3.5232    0.8639   -1.2060 N   0  0  0  0  0  0  0  0  0  0  0  0
    2.9544   -1.3917   -1.3441 O   0  0  0  0  0  0  0  0  0  0  0  0
   -1.9293   -1.5574   -0.2310 N   0  0  0  0  0  0  0  0  0  0  0  0
   -3.0832   -1.1860   -0.7510 N   0  0  0  0  0  0  0  0  0  0  0  0
   -4.5447    1.8657   -0.3750 H   0  0  0  0  0  0  0  0  0  0  0  0
   -4.5354    0.9785   -1.9235 H   0  0  0  0  0  0  0  0  0  0  0  0
   -5.4341    0.2516   -0.5478 H   0  0  0  0  0  0  0  0  0  0  0  0
   -2.1748    1.5076    0.7742 H   0  0  0  0  0  0  0  0  0  0  0  0
   -0.3258   -0.3487    2.2866 H   0  0  0  0  0  0  0  0  0  0  0  0
    0.3325   -1.5660    1.1542 H   0  0  0  0  0  0  0  0  0  0  0  0
    0.5503    0.7846   -0.2661 H   0  0  0  0  0  0  0  0  0  0  0  0
    1.9377    0.7931    2.3484 H   0  0  0  0  0  0  0  0  0  0  0  0
    2.4164    1.6890    0.9026 H   0  0  0  0  0  0  0  0  0  0  0  0
    3.9659   -0.2015    1.2712 H   0  0  0  0  0  0  0  0  0  0  0  0
    2.8946   -2.3966    0.7432 H   0  0  0  0  0  0  0  0  0  0  0  0
    2.8813    1.3648   -1.8510 H   0  0  0  0  0  0  0  0  0  0  0  0
    4.4485    1.2687   -0.9826 H   0  0  0  0  0  0  0  0  0  0  0  0
   -3.6810   -1.8140   -1.3267 H   0  0  0  0  0  0  0  0  0  0  0  0
  1  2  1  0
  2  3  2  0
  3  4  1  0
  4  5  1  0
  5  6  1  0
  6  7  1  0
  7  8  1  0
  8  9  1  0
  8 10  1  0
 10 11  1  0
 10 12  2  0
  4 13  2  0
 13 14  1  0
 14  2  1  0
  1 15  1  0
  1 16  1  0
  1 17  1  0
  3 18  1  0
  5 19  1  0
  5 20  1  0
  6 21  1  0
  7 22  1  0
  7 23  1  0
  8 24  1  1
  9 25  1  0
 11 26  1  0
 11 27  1  0
 14 28  1  0
M  END
$$$$

     RDKit          3D

 28 28  0  0  0  0  0  0  0  0999 V2000
   -4.8562   -0.6942   -0.7013 C   0  0  0  0  0  0  0  0  0  0  0  0
   -3.6605    0.0568   -0.2314 C   0  0  0  0  0  0  0  0  0  0  0  0
   -2.3466   -0.1745   -0.5899 C   0  0  0  0  0  0  0  0  0  0  0  0
   -1.5838    0.7471    0.0765 C   0  0  0  0  0  0  0  0  0  0  0  0
   -0.0758    0.9073    0.0224 C   0  0  0  0  0  0  0  0  0  0  0  0
    0.4287    0.1542    1.1125 N   0  0  0  0  0  0  0  0  0  0  0  0
    1.8262    0.1465    1.3573 C   0  0  0  0  0  0  0  0  0  0  0  0
    2.5633   -0.5980    0.2907 C   0  0  1  0  0  0  0  0  0  0  0  0
    2.3926    0.0028   -0.9266 O   0  0  0  0  0  0  0  0  0  0  0  0
    3.9948   -0.7677    0.5936 C   0  0  0  0  0  0  0  0  0  0  0  0
    4.9626   -0.3354   -0.3302 N   0  0  0  0  0  0  0  0  0  0  0  0
    4.3314   -1.2969    1.6741 O   0  0  0  0  0  0  0  0  0  0  0  0
   -2.4130    1.4932    0.7994 N   0  0  0  0  0  0  0  0  0  0  0  0
   -3.6763    1.0806    0.6182 N   0  0  0  0  0  0  0  0  0  0  0  0
   -5.2450   -1.3520    0.1045 H   0  0  0  0  0  0  0  0  0  0  0  0
   -5.6029    0.0824   -1.0110 H   0  0  0  0  0  0  0  0  0  0  0  0
   -4.5551   -1.2900   -1.5911 H   0  0  0  0  0  0  0  0  0  0  0  0
   -2.0005   -0.9323   -1.2609 H   0  0  0  0  0  0  0  0  0  0  0  0
    0.2708    0.6024   -0.9718 H   0  0  0  0  0  0  0  0  0  0  0  0
    0.1485    2.0114    0.0990 H   0  0  0  0  0  0  0  0  0  0  0  0
   -0.1540    0.1415    1.9547 H   0  0  0  0  0  0  0  0  0  0  0  0
    2.1538    1.2283    1.3869 H   0  0  0  0  0  0  0  0  0  0  0  0
    2.0801   -0.2299    2.3840 H   0  0  0  0  0  0  0  0  0  0  0  0
    2.1181   -1.6294    0.2685 H   0  0  0  0  0  0  0  0  0  0  0  0
    2.6823   -0.6116   -1.6330 H   0  0  0  0  0  0  0  0  0  0  0  0
    5.9520   -0.6930   -0.3554 H   0  0  0  0  0  0  0  0  0  0  0  0
    4.7275    0.3937   -1.0658 H   0  0  0  0  0  0  0  0  0  0  0  0
   -4.4632    1.5566    1.1113 H   0  0  0  0  0  0  0  0  0  0  0  0
  1  2  1  0
  2  3  2  0
  3  4  1  0
  4  5  1  0
  5  6  1  0
  6  7  1  0
  7  8  1  0
  8  9  1  0
  8 10  1  0
 10 11  1  0
 10 12  2  0
  4 13  2  0
 13 14  1  0
 14  2  1  0
  1 15  1  0
  1 16  1  0
  1 17  1  0
  3 18  1  0
  5 19  1  0
  5 20  1  0
  6 21  1  0
  7 22  1  0
  7 23  1  0
  8 24  1  6
  9 25  1  0
 11 26  1  0
 11 27  1  0
 14 28  1  0
M  END
$$$$

     RDKit          3D

 28 28  0  0  0  0  0  0  0  0999 V2000
    4.4354    1.1742   -1.0507 C   0  0  0  0  0  0  0  0  0  0  0  0
    3.5993    0.3289   -0.1678 C   0  0  0  0  0  0  0  0  0  0  0  0
    2.2315    0.2286   -0.2973 C   0  0  0  0  0  0  0  0  0  0  0  0
    1.7719   -0.6263    0.6669 C   0  0  0  0  0  0  0  0  0  0  0  0
    0.3882   -1.0772    0.9647 C   0  0  0  0  0  0  0  0  0  0  0  0
   -0.5738   -0.4879    0.0636 N   0  0  0  0  0  0  0  0  0  0  0  0
   -1.8777   -0.9834    0.4308 C   0  0  0  0  0  0  0  0  0  0  0  0
   -2.9762   -0.4392   -0.4400 C   0  0  1  0  0  0  0  0  0  0  0  0
   -4.1788   -1.0022    0.0289 O   0  0  0  0  0  0  0  0  0  0  0  0
   -3.0939    1.0337   -0.3570 C   0  0  0  0  0  0  0  0  0  0  0  0
   -4.2597    1.6819    0.1263 N   0  0  0  0  0  0  0  0  0  0  0  0
   -2.1224    1.7230   -0.7300 O   0  0  0  0  0  0  0  0  0  0  0  0
    2.8430   -1.0317    1.3624 N   0  0  0  0  0  0  0  0  0  0  0  0
    3.9387   -0.4577    0.8604 N   0  0  0  0  0  0  0  0  0  0  0  0
    5.4885    1.2010   -0.7737 H   0  0  0  0  0  0  0  0  0  0  0  0
    4.0308    2.2066   -1.0096 H   0  0  0  0  0  0  0  0  0  0  0  0
    4.2887    0.8041   -2.0935 H   0  0  0  0  0  0  0  0  0  0  0  0
    1.5717    0.7155   -1.0167 H   0  0  0  0  0  0  0  0  0  0  0  0
    0.0868   -0.7716    1.9990 H   0  0  0  0  0  0  0  0  0  0  0  0
    0.3263   -2.1679    0.8583 H   0  0  0  0  0  0  0  0  0  0  0  0
   -0.3581   -0.7581   -0.9342 H   0  0  0  0  0  0  0  0  0  0  0  0
   -1.8892   -2.0881    0.3169 H   0  0  0  0  0  0  0  0  0  0  0  0
   -2.1006   -0.6879    1.4695 H   0  0  0  0  0  0  0  0  0  0  0  0
   -2.8833   -0.7688   -1.4947 H   0  0  0  0  0  0  0  0  0  0  0  0
   -4.2153   -0.9767    1.0193 H   0  0  0  0  0  0  0  0  0  0  0  0
   -4.2059    2.4871    0.7804 H   0  0  0  0  0  0  0  0  0  0  0  0
   -5.1878    1.3285   -0.1931 H   0  0  0  0  0  0  0  0  0  0  0  0
    4.9221   -0.5884    1.2024 H   0  0  0  0  0  0  0  0  0  0  0  0
  1  2  1  0
  2  3  2  0
  3  4  1  0
  4  5  1  0
  5  6  1  0
  6  7  1  0
  7  8  1  0
  8  9  1  0
  8 10  1  0
 10 11  1  0
 10 12  2  0
  4 13  2  0
 13 14  1  0
 14  2  1  0
  1 15  1  0
  1 16  1  0
  1 17  1  0
  3 18  1  0
  5 19  1  0
  5 20  1  0
  6 21  1  0
  7 22  1  0
  7 23  1  0
  8 24  1  6
  9 25  1  0
 11 26  1  0
 11 27  1  0
 14 28  1  0
M  END
$$$$

     RDKit          3D

 28 28  0  0  0  0  0  0  0  0999 V2000
   -5.0636    1.0314   -0.1130 C   0  0  0  0  0  0  0  0  0  0  0  0
   -3.7136    0.4136    0.1404 C   0  0  0  0  0  0  0  0  0  0  0  0
   -2.5174    0.7295   -0.4691 C   0  0  0  0  0  0  0  0  0  0  0  0
   -1.5183   -0.0876    0.0535 C   0  0  0  0  0  0  0  0  0  0  0  0
   -0.0806   -0.0533   -0.3355 C   0  0  0  0  0  0  0  0  0  0  0  0
    0.6222   -1.2470    0.0301 N   0  0  0  0  0  0  0  0  0  0  0  0
    1.9968   -1.1300   -0.3615 C   0  0  0  0  0  0  0  0  0  0  0  0
    2.7825   -0.1117    0.4457 C   0  0  1  0  0  0  0  0  0  0  0  0
    2.7629   -0.4915    1.7730 O   0  0  0  0  0  0  0  0  0  0  0  0
    4.1453   -0.0813   -0.1423 C   0  0  0  0  0  0  0  0  0  0  0  0
    4.3596    0.3225   -1.4933 N   0  0  0  0  0  0  0  0  0  0  0  0
    5.1197   -0.4160    0.5624 O   0  0  0  0  0  0  0  0  0  0  0  0
   -2.1307   -0.8655    0.9532 N   0  0  0  0  0  0  0  0  0  0  0  0
   -3.4268   -0.5727    1.0084 N   0  0  0  0  0  0  0  0  0  0  0  0
   -5.8196    0.4864    0.4890 H   0  0  0  0  0  0  0  0  0  0  0  0
   -5.3284    1.0270   -1.1883 H   0  0  0  0  0  0  0  0  0  0  0  0
   -5.0541    2.0687    0.3157 H   0  0  0  0  0  0  0  0  0  0  0  0
   -2.4138    1.4855   -1.2151 H   0  0  0  0  0  0  0  0  0  0  0  0
   -0.0310    0.0635   -1.4466 H   0  0  0  0  0  0  0  0  0  0  0  0
    0.3728    0.8215    0.1742 H   0  0  0  0  0  0  0  0  0  0  0  0
    0.5941   -1.4324    1.0541 H   0  0  0  0  0  0  0  0  0  0  0  0
    2.5108   -2.1142   -0.1429 H   0  0  0  0  0  0  0  0  0  0  0  0
    2.1505   -0.9803   -1.4458 H   0  0  0  0  0  0  0  0  0  0  0  0
    2.3805    0.9116    0.3598 H   0  0  0  0  0  0  0  0  0  0  0  0
    2.5598    0.2671    2.3761 H   0  0  0  0  0  0  0  0  0  0  0  0
    5.0028   -0.1520   -2.1602 H   0  0  0  0  0  0  0  0  0  0  0  0
    3.8407    1.1577   -1.8551 H   0  0  0  0  0  0  0  0  0  0  0  0
   -4.1032   -1.0506    1.6464 H   0  0  0  0  0  0  0  0  0  0  0  0
  1  2  1  0
  2  3  2  0
  3  4  1  0
  4  5  1  0
  5  6  1  0
  6  7  1  0
  7  8  1  0
  8  9  1  0
  8 10  1  0
 10 11  1  0
 10 12  2  0
  4 13  2  0
 13 14  1  0
 14  2  1  0
  1 15  1  0
  1 16  1  0
  1 17  1  0
  3 18  1  0
  5 19  1  0
  5 20  1  0
  6 21  1  0
  7 22  1  0
  7 23  1  0
  8 24  1  1
  9 25  1  0
 11 26  1  0
 11 27  1  0
 14 28  1  0
M  END
$$$$

     RDKit          3D

 28 28  0  0  0  0  0  0  0  0999 V2000
    4.5391    1.7280    0.0476 C   0  0  0  0  0  0  0  0  0  0  0  0
    3.4584    0.7229    0.2247 C   0  0  0  0  0  0  0  0  0  0  0  0
    2.2763    0.6691   -0.4500 C   0  0  0  0  0  0  0  0  0  0  0  0
    1.5923   -0.4233    0.0393 C   0  0  0  0  0  0  0  0  0  0  0  0
    0.2501   -0.8606   -0.4136 C   0  0  0  0  0  0  0  0  0  0  0  0
   -0.6198   -1.2074    0.6607 N   0  0  0  0  0  0  0  0  0  0  0  0
   -1.9330   -1.6204    0.2665 C   0  0  0  0  0  0  0  0  0  0  0  0
   -2.7092   -0.4613   -0.2857 C   0  0  1  0  0  0  0  0  0  0  0  0
   -3.9739   -0.9720   -0.6457 O   0  0  0  0  0  0  0  0  0  0  0  0
   -2.8759    0.6212    0.7299 C   0  0  0  0  0  0  0  0  0  0  0  0
   -4.1427    0.9525    1.2769 N   0  0  0  0  0  0  0  0  0  0  0  0
   -1.8786    1.2930    1.1479 O   0  0  0  0  0  0  0  0  0  0  0  0
    2.3546   -0.9899    0.9736 N   0  0  0  0  0  0  0  0  0  0  0  0
    3.4755   -0.3020    1.0853 N   0  0  0  0  0  0  0  0  0  0  0  0
    4.5011    2.1012   -1.0047 H   0  0  0  0  0  0  0  0  0  0  0  0
    4.3380    2.6216    0.6897 H   0  0  0  0  0  0  0  0  0  0  0  0
    5.5173    1.2782    0.2959 H   0  0  0  0  0  0  0  0  0  0  0  0
    1.8902    1.3126   -1.2177 H   0  0  0  0  0  0  0  0  0  0  0  0
   -0.2199   -0.0989   -1.0464 H   0  0  0  0  0  0  0  0  0  0  0  0
    0.4002   -1.8001   -1.0203 H   0  0  0  0  0  0  0  0  0  0  0  0
   -0.5891   -0.6180    1.4909 H   0  0  0  0  0  0  0  0  0  0  0  0
   -2.4950   -2.1097    1.0862 H   0  0  0  0  0  0  0  0  0  0  0  0
   -1.8583   -2.4183   -0.5315 H   0  0  0  0  0  0  0  0  0  0  0  0
   -2.2209   -0.0316   -1.1584 H   0  0  0  0  0  0  0  0  0  0  0  0
   -4.0532   -1.0382   -1.6313 H   0  0  0  0  0  0  0  0  0  0  0  0
   -4.3227    1.0099    2.3115 H   0  0  0  0  0  0  0  0  0  0  0  0
   -4.9580    1.1542    0.6660 H   0  0  0  0  0  0  0  0  0  0  0  0
    4.2570   -0.5127    1.7364 H   0  0  0  0  0  0  0  0  0  0  0  0
  1  2  1  0
  2  3  2  0
  3  4  1  0
  4  5  1  0
  5  6  1  0
  6  7  1  0
  7  8  1  0
  8  9  1  0
  8 10  1  0
 10 11  1  0
 10 12  2  0
  4 13  2  0
 13 14  1  0
 14  2  1  0
  1 15  1  0
  1 16  1  0
  1 17  1  0
  3 18  1  0
  5 19  1  0
  5 20  1  0
  6 21  1  0
  7 22  1  0
  7 23  1  0
  8 24  1  6
  9 25  1  0
 11 26  1  0
 11 27  1  0
 14 28  1  0
M  END
$$$$
