
     RDKit          3D

 29 29  0  0  0  0  0  0  0  0999 V2000
   -2.7099   -0.6299    1.7263 C   0  0  0  0  0  0  0  0  0  0  0  0
   -2.0129    0.1614    0.6710 C   0  0  2  0  0  0  0  0  0  0  0  0
   -2.6083    0.1170   -0.7086 C   0  0  0  0  0  0  0  0  0  0  0  0
   -1.4288   -0.7654   -1.0235 C   0  0  0  0  0  0  0  0  0  0  0  0
   -0.7560   -0.4389    0.1925 N   0  0  0  0  0  0  0  0  0  0  0  0
    0.2544    0.5669    0.1591 C   0  0  0  0  0  0  0  0  0  0  0  0
    1.5049    0.2518   -0.5801 C   0  0  0  0  0  0  0  0  0  0  0  0
    1.3462   -0.0349   -1.9117 O   0  0  0  0  0  0  0  0  0  0  0  0
    2.3798    1.5140   -0.4824 C   0  0  0  0  0  0  0  0  0  0  0  0
    2.5835    1.8671    0.8549 O   0  0  0  0  0  0  0  0  0  0  0  0
    2.2970   -0.8688    0.0575 C   0  0  0  0  0  0  0  0  0  0  0  0
    1.6481   -2.0944   -0.0682 O   0  0  0  0  0  0  0  0  0  0  0  0
   -2.1726   -0.4870    2.6733 H   0  0  0  0  0  0  0  0  0  0  0  0
   -3.7150   -0.1572    1.8692 H   0  0  0  0  0  0  0  0  0  0  0  0
   -2.8085   -1.7085    1.4720 H   0  0  0  0  0  0  0  0  0  0  0  0
   -1.9280    1.2166    0.9915 H   0  0  0  0  0  0  0  0  0  0  0  0
   -2.6282    1.0823   -1.2634 H   0  0  0  0  0  0  0  0  0  0  0  0
   -3.6001   -0.3801   -0.7749 H   0  0  0  0  0  0  0  0  0  0  0  0
   -0.9717   -0.4503   -1.9748 H   0  0  0  0  0  0  0  0  0  0  0  0
   -1.7206   -1.8368   -1.0310 H   0  0  0  0  0  0  0  0  0  0  0  0
    0.5647    0.7247    1.2381 H   0  0  0  0  0  0  0  0  0  0  0  0
   -0.1827    1.5432   -0.1379 H   0  0  0  0  0  0  0  0  0  0  0  0
    1.7880   -0.8651   -2.2152 H   0  0  0  0  0  0  0  0  0  0  0  0
    1.8377    2.3847   -0.9470 H   0  0  0  0  0  0  0  0  0  0  0  0
    3.3191    1.4137   -1.0333 H   0  0  0  0  0  0  0  0  0  0  0  0
    1.7781    2.3699    1.1810 H   0  0  0  0  0  0  0  0  0  0  0  0
    2.4561   -0.6932    1.1265 H   0  0  0  0  0  0  0  0  0  0  0  0
    3.2928   -0.9926   -0.4133 H   0  0  0  0  0  0  0  0  0  0  0  0
    2.1931   -2.8101    0.3523 H   0  0  0  0  0  0  0  0  0  0  0  0
  1  2  1  0
  2  3  1  0
  3  4  1  0
  4  5  1  0
  5  6  1  0
  6  7  1  0
  7  8  1  0
  7  9  1  0
  9 10  1  0
  7 11  1  0
 11 12  1  0
  5  2  1  0
  1 13  1  0
  1 14  1  0
  1 15  1  0
  2 16  1  1
  3 17  1  0
  3 18  1  0
  4 19  1  0
  4 20  1  0
  6 21  1  0
  6 22  1  0
  8 23  1  0
  9 24  1  0
  9 25  1  0
 10 26  1  0
 11 27  1  0
 11 28  1  0
 12 29  1  0
M  END
$$$$

     RDKit          3D

 29 29  0  0  0  0  0  0  0  0999 V2000
    2.6836    1.2130    0.7408 C   0  0  0  0  0  0  0  0  0  0  0  0
    1.6935    0.0788    0.5729 C   0  0  2  0  0  0  0  0  0  0  0  0
    2.3460   -0.9892   -0.2837 C   0  0  0  0  0  0  0  0  0  0  0  0
    1.8449   -0.1162   -1.3977 C   0  0  0  0  0  0  0  0  0  0  0  0
    0.7306    0.2763   -0.5201 N   0  0  0  0  0  0  0  0  0  0  0  0
   -0.2697   -0.7430   -0.5249 C   0  0  0  0  0  0  0  0  0  0  0  0
   -1.6128   -0.3642    0.0347 C   0  0  0  0  0  0  0  0  0  0  0  0
   -2.3927   -1.5499   -0.0965 O   0  0  0  0  0  0  0  0  0  0  0  0
   -1.6016   -0.0475    1.5057 C   0  0  0  0  0  0  0  0  0  0  0  0
   -2.9319    0.1765    1.9465 O   0  0  0  0  0  0  0  0  0  0  0  0
   -2.3244    0.6834   -0.7588 C   0  0  0  0  0  0  0  0  0  0  0  0
   -1.7076    1.9276   -0.7192 O   0  0  0  0  0  0  0  0  0  0  0  0
    3.1460    1.0941    1.7516 H   0  0  0  0  0  0  0  0  0  0  0  0
    2.2699    2.2075    0.6152 H   0  0  0  0  0  0  0  0  0  0  0  0
    3.5636    1.1158    0.0352 H   0  0  0  0  0  0  0  0  0  0  0  0
    1.2344   -0.2787    1.4944 H   0  0  0  0  0  0  0  0  0  0  0  0
    1.8887   -1.9744   -0.2471 H   0  0  0  0  0  0  0  0  0  0  0  0
    3.4667   -0.9911   -0.1787 H   0  0  0  0  0  0  0  0  0  0  0  0
    1.5028   -0.6680   -2.3080 H   0  0  0  0  0  0  0  0  0  0  0  0
    2.4922    0.7442   -1.6698 H   0  0  0  0  0  0  0  0  0  0  0  0
    0.0534   -1.6033    0.1604 H   0  0  0  0  0  0  0  0  0  0  0  0
   -0.4171   -1.2456   -1.5086 H   0  0  0  0  0  0  0  0  0  0  0  0
   -2.3923   -1.7146   -1.0817 H   0  0  0  0  0  0  0  0  0  0  0  0
   -1.2694   -0.9421    2.0765 H   0  0  0  0  0  0  0  0  0  0  0  0
   -1.0666    0.8674    1.7391 H   0  0  0  0  0  0  0  0  0  0  0  0
   -3.3062   -0.5761    2.4327 H   0  0  0  0  0  0  0  0  0  0  0  0
   -3.3514    0.7834   -0.3713 H   0  0  0  0  0  0  0  0  0  0  0  0
   -2.4424    0.3212   -1.8148 H   0  0  0  0  0  0  0  0  0  0  0  0
   -1.8301    2.3147   -1.6249 H   0  0  0  0  0  0  0  0  0  0  0  0
  1  2  1  0
  2  3  1  0
  3  4  1  0
  4  5  1  0
  5  6  1  0
  6  7  1  0
  7  8  1  0
  7  9  1  0
  9 10  1  0
  7 11  1  0
 11 12  1  0
  5  2  1  0
  1 13  1  0
  1 14  1  0
  1 15  1  0
  2 16  1  1
  3 17  1  0
  3 18  1  0
  4 19  1  0
  4 20  1  0
  6 21  1  0
  6 22  1  0
  8 23  1  0
  9 24  1  0
  9 25  1  0
 10 26  1  0
 11 27  1  0
 11 28  1  0
 12 29  1  0
M  END
$$$$

     RDKit          3D

 29 29  0  0  0  0  0  0  0  0999 V2000
   -2.8360    0.8330    0.4615 C   0  0  0  0  0  0  0  0  0  0  0  0
   -2.2579    0.0015   -0.6402 C   0  0  2  0  0  0  0  0  0  0  0  0
   -2.5973   -1.4725   -0.3426 C   0  0  0  0  0  0  0  0  0  0  0  0
   -1.3442   -1.2965    0.5360 C   0  0  0  0  0  0  0  0  0  0  0  0
   -0.8804   -0.4229   -0.5031 N   0  0  0  0  0  0  0  0  0  0  0  0
    0.0806    0.5680   -0.2129 C   0  0  0  0  0  0  0  0  0  0  0  0
    1.4466    0.0687    0.1271 C   0  0  0  0  0  0  0  0  0  0  0  0
    1.4657   -0.7571    1.2450 O   0  0  0  0  0  0  0  0  0  0  0  0
    2.2947    1.3224    0.4044 C   0  0  0  0  0  0  0  0  0  0  0  0
    2.2866    2.1628   -0.7071 O   0  0  0  0  0  0  0  0  0  0  0  0
    2.1086   -0.5939   -1.0626 C   0  0  0  0  0  0  0  0  0  0  0  0
    3.4418   -0.8844   -0.7562 O   0  0  0  0  0  0  0  0  0  0  0  0
   -3.4274    1.6967    0.0391 H   0  0  0  0  0  0  0  0  0  0  0  0
   -3.6046    0.2804    1.0804 H   0  0  0  0  0  0  0  0  0  0  0  0
   -2.1328    1.2541    1.1713 H   0  0  0  0  0  0  0  0  0  0  0  0
   -2.4752    0.3179   -1.6587 H   0  0  0  0  0  0  0  0  0  0  0  0
   -3.5238   -1.6019    0.2158 H   0  0  0  0  0  0  0  0  0  0  0  0
   -2.4335   -2.0759   -1.2356 H   0  0  0  0  0  0  0  0  0  0  0  0
   -0.8778   -2.2738    0.6390 H   0  0  0  0  0  0  0  0  0  0  0  0
   -1.6675   -0.8097    1.4719 H   0  0  0  0  0  0  0  0  0  0  0  0
   -0.2029    1.3263    0.5406 H   0  0  0  0  0  0  0  0  0  0  0  0
    0.2150    1.1641   -1.1663 H   0  0  0  0  0  0  0  0  0  0  0  0
    1.4298   -1.6887    0.9246 H   0  0  0  0  0  0  0  0  0  0  0  0
    1.8497    1.9032    1.2320 H   0  0  0  0  0  0  0  0  0  0  0  0
    3.3260    1.0773    0.6552 H   0  0  0  0  0  0  0  0  0  0  0  0
    3.0559    2.7498   -0.7546 H   0  0  0  0  0  0  0  0  0  0  0  0
    2.1385    0.1516   -1.8830 H   0  0  0  0  0  0  0  0  0  0  0  0
    1.5911   -1.5107   -1.3915 H   0  0  0  0  0  0  0  0  0  0  0  0
    3.5306   -1.4899   -0.0047 H   0  0  0  0  0  0  0  0  0  0  0  0
  1  2  1  0
  2  3  1  0
  3  4  1  0
  4  5  1  0
  5  6  1  0
  6  7  1  0
  7  8  1  0
  7  9  1  0
  9 10  1  0
  7 11  1  0
 11 12  1  0
  5  2  1  0
  1 13  1  0
  1 14  1  0
  1 15  1  0
  2 16  1  6
  3 17  1  0
  3 18  1  0
  4 19  1  0
  4 20  1  0
  6 21  1  0
  6 22  1  0
  8 23  1  0
  9 24  1  0
  9 25  1  0
 10 26  1  0
 11 27  1  0
 11 28  1  0
 12 29  1  0
M  END
$$$$

     RDKit          3D

 29 29  0  0  0  0  0  0  0  0999 V2000
   -2.6111   -1.7036    0.3365 C   0  0  0  0  0  0  0  0  0  0  0  0
   -2.1191   -0.2864    0.4274 C   0  0  2  0  0  0  0  0  0  0  0  0
   -2.7654    0.6995   -0.4976 C   0  0  0  0  0  0  0  0  0  0  0  0
   -1.3644    1.2767   -0.5429 C   0  0  0  0  0  0  0  0  0  0  0  0
   -0.8870   -0.0878   -0.3111 N   0  0  0  0  0  0  0  0  0  0  0  0
    0.2462   -0.1388    0.5982 C   0  0  0  0  0  0  0  0  0  0  0  0
    1.4827    0.4779   -0.0204 C   0  0  0  0  0  0  0  0  0  0  0  0
    1.2723    1.8111   -0.3616 O   0  0  0  0  0  0  0  0  0  0  0  0
    1.9527   -0.2957   -1.2177 C   0  0  0  0  0  0  0  0  0  0  0  0
    1.0571   -0.2830   -2.2674 O   0  0  0  0  0  0  0  0  0  0  0  0
    2.5902    0.4123    1.0222 C   0  0  0  0  0  0  0  0  0  0  0  0
    2.8269   -0.8956    1.3873 O   0  0  0  0  0  0  0  0  0  0  0  0
   -3.3765   -1.8384   -0.4564 H   0  0  0  0  0  0  0  0  0  0  0  0
   -1.7164   -2.3433    0.1442 H   0  0  0  0  0  0  0  0  0  0  0  0
   -2.9820   -1.9916    1.3451 H   0  0  0  0  0  0  0  0  0  0  0  0
   -2.0422    0.1308    1.4499 H   0  0  0  0  0  0  0  0  0  0  0  0
   -3.5181    1.3696   -0.0296 H   0  0  0  0  0  0  0  0  0  0  0  0
   -3.0615    0.2935   -1.4740 H   0  0  0  0  0  0  0  0  0  0  0  0
   -1.0642    1.7057   -1.5173 H   0  0  0  0  0  0  0  0  0  0  0  0
   -1.2067    1.9489    0.3350 H   0  0  0  0  0  0  0  0  0  0  0  0
    0.0122    0.2930    1.5706 H   0  0  0  0  0  0  0  0  0  0  0  0
    0.4764   -1.2190    0.7442 H   0  0  0  0  0  0  0  0  0  0  0  0
    2.1594    2.2262   -0.5532 H   0  0  0  0  0  0  0  0  0  0  0  0
    2.9210    0.0934   -1.6017 H   0  0  0  0  0  0  0  0  0  0  0  0
    2.1623   -1.3686   -0.9709 H   0  0  0  0  0  0  0  0  0  0  0  0
    0.7817   -1.1981   -2.5261 H   0  0  0  0  0  0  0  0  0  0  0  0
    3.5007    0.9576    0.6887 H   0  0  0  0  0  0  0  0  0  0  0  0
    2.2315    0.9494    1.9452 H   0  0  0  0  0  0  0  0  0  0  0  0
    3.0411   -0.9961    2.3532 H   0  0  0  0  0  0  0  0  0  0  0  0
  1  2  1  0
  2  3  1  0
  3  4  1  0
  4  5  1  0
  5  6  1  0
  6  7  1  0
  7  8  1  0
  7  9  1  0
  9 10  1  0
  7 11  1  0
 11 12  1  0
  5  2  1  0
  1 13  1  0
  1 14  1  0
  1 15  1  0
  2 16  1  1
  3 17  1  0
  3 18  1  0
  4 19  1  0
  4 20  1  0
  6 21  1  0
  6 22  1  0
  8 23  1  0
  9 24  1  0
  9 25  1  0
 10 26  1  0
 11 27  1  0
 11 28  1  0
 12 29  1  0
M  END
$$$$

     RDKit          3D

 29 29  0  0  0  0  0  0  0  0999 V2000
    2.1250    1.2901   -0.8423 C   0  0  0  0  0  0  0  0  0  0  0  0
    1.7793    0.2157    0.1477 C   0  0  2  0  0  0  0  0  0  0  0  0
    2.8186   -0.8847    0.1087 C   0  0  0  0  0  0  0  0  0  0  0  0
    1.6183   -1.8015    0.1067 C   0  0  0  0  0  0  0  0  0  0  0  0
    0.7305   -0.6914   -0.2453 N   0  0  0  0  0  0  0  0  0  0  0  0
   -0.4084   -0.7143    0.6598 C   0  0  0  0  0  0  0  0  0  0  0  0
   -1.3745    0.4185    0.3469 C   0  0  0  0  0  0  0  0  0  0  0  0
   -0.7393    1.6464    0.4783 O   0  0  0  0  0  0  0  0  0  0  0  0
   -1.8779    0.2735   -1.0645 C   0  0  0  0  0  0  0  0  0  0  0  0
   -2.5244   -0.9503   -1.2393 O   0  0  0  0  0  0  0  0  0  0  0  0
   -2.5343    0.3223    1.2968 C   0  0  0  0  0  0  0  0  0  0  0  0
   -2.0565    0.4599    2.6153 O   0  0  0  0  0  0  0  0  0  0  0  0
    1.8234    1.0255   -1.8920 H   0  0  0  0  0  0  0  0  0  0  0  0
    3.2504    1.3477   -0.8745 H   0  0  0  0  0  0  0  0  0  0  0  0
    1.7137    2.2822   -0.5897 H   0  0  0  0  0  0  0  0  0  0  0  0
    1.5903    0.6361    1.1409 H   0  0  0  0  0  0  0  0  0  0  0  0
    3.3551   -0.9859   -0.8559 H   0  0  0  0  0  0  0  0  0  0  0  0
    3.4513   -0.9225    1.0084 H   0  0  0  0  0  0  0  0  0  0  0  0
    1.4604   -2.2032    1.1205 H   0  0  0  0  0  0  0  0  0  0  0  0
    1.5907   -2.5523   -0.7075 H   0  0  0  0  0  0  0  0  0  0  0  0
   -0.9796   -1.6612    0.5696 H   0  0  0  0  0  0  0  0  0  0  0  0
   -0.0558   -0.6443    1.7087 H   0  0  0  0  0  0  0  0  0  0  0  0
   -1.1809    2.3583   -0.0537 H   0  0  0  0  0  0  0  0  0  0  0  0
   -2.5508    1.1258   -1.2945 H   0  0  0  0  0  0  0  0  0  0  0  0
   -1.0057    0.3516   -1.7426 H   0  0  0  0  0  0  0  0  0  0  0  0
   -2.2141   -1.4141   -2.0411 H   0  0  0  0  0  0  0  0  0  0  0  0
   -3.3167    1.0740    1.0714 H   0  0  0  0  0  0  0  0  0  0  0  0
   -2.9888   -0.6830    1.1797 H   0  0  0  0  0  0  0  0  0  0  0  0
   -1.4994    1.2812    2.6236 H   0  0  0  0  0  0  0  0  0  0  0  0
  1  2  1  0
  2  3  1  0
  3  4  1  0
  4  5  1  0
  5  6  1  0
  6  7  1  0
  7  8  1  0
  7  9  1  0
  9 10  1  0
  7 11  1  0
 11 12  1  0
  5  2  1  0
  1 13  1  0
  1 14  1  0
  1 15  1  0
  2 16  1  1
  3 17  1  0
  3 18  1  0
  4 19  1  0
  4 20  1  0
  6 21  1  0
  6 22  1  0
  8 23  1  0
  9 24  1  0
  9 25  1  0
 10 26  1  0
 11 27  1  0
 11 28  1  0
 12 29  1  0
M  END
$$$$

     RDKit          3D

 29 29  0  0  0  0  0  0  0  0999 V2000
    2.7603    1.4057    0.4330 C   0  0  0  0  0  0  0  0  0  0  0  0
    2.1817    0.0436    0.3513 C   0  0  2  0  0  0  0  0  0  0  0  0
    2.6422   -0.7388   -0.8852 C   0  0  0  0  0  0  0  0  0  0  0  0
    1.2781   -1.4022   -0.6187 C   0  0  0  0  0  0  0  0  0  0  0  0
    0.8609   -0.0819   -0.2473 N   0  0  0  0  0  0  0  0  0  0  0  0
   -0.2484    0.0884    0.6061 C   0  0  0  0  0  0  0  0  0  0  0  0
   -1.5743   -0.2755    0.0518 C   0  0  0  0  0  0  0  0  0  0  0  0
   -1.6610   -1.6028   -0.3243 O   0  0  0  0  0  0  0  0  0  0  0  0
   -2.5921   -0.0917    1.1912 C   0  0  0  0  0  0  0  0  0  0  0  0
   -2.5891    1.2287    1.6512 O   0  0  0  0  0  0  0  0  0  0  0  0
   -2.0440    0.6568   -1.0497 C   0  0  0  0  0  0  0  0  0  0  0  0
   -1.2948    0.5138   -2.2169 O   0  0  0  0  0  0  0  0  0  0  0  0
    3.8578    1.3347    0.2146 H   0  0  0  0  0  0  0  0  0  0  0  0
    2.2500    2.1289   -0.2293 H   0  0  0  0  0  0  0  0  0  0  0  0
    2.7129    1.7363    1.5079 H   0  0  0  0  0  0  0  0  0  0  0  0
    2.3328   -0.5921    1.2571 H   0  0  0  0  0  0  0  0  0  0  0  0
    3.4960   -1.3919   -0.7329 H   0  0  0  0  0  0  0  0  0  0  0  0
    2.5779   -0.1291   -1.7966 H   0  0  0  0  0  0  0  0  0  0  0  0
    0.9094   -1.8287   -1.5403 H   0  0  0  0  0  0  0  0  0  0  0  0
    1.4399   -2.1119    0.2317 H   0  0  0  0  0  0  0  0  0  0  0  0
   -0.1129   -0.4464    1.5780 H   0  0  0  0  0  0  0  0  0  0  0  0
   -0.2946    1.1721    0.9009 H   0  0  0  0  0  0  0  0  0  0  0  0
   -1.2639   -2.1441    0.4053 H   0  0  0  0  0  0  0  0  0  0  0  0
   -2.3478   -0.7749    2.0274 H   0  0  0  0  0  0  0  0  0  0  0  0
   -3.5880   -0.2818    0.7588 H   0  0  0  0  0  0  0  0  0  0  0  0
   -3.1613    1.8144    1.0732 H   0  0  0  0  0  0  0  0  0  0  0  0
   -3.0993    0.4673   -1.3267 H   0  0  0  0  0  0  0  0  0  0  0  0
   -1.9904    1.6961   -0.6752 H   0  0  0  0  0  0  0  0  0  0  0  0
   -1.4380   -0.3930   -2.5963 H   0  0  0  0  0  0  0  0  0  0  0  0
  1  2  1  0
  2  3  1  0
  3  4  1  0
  4  5  1  0
  5  6  1  0
  6  7  1  0
  7  8  1  0
  7  9  1  0
  9 10  1  0
  7 11  1  0
 11 12  1  0
  5  2  1  0
  1 13  1  0
  1 14  1  0
  1 15  1  0
  2 16  1  1
  3 17  1  0
  3 18  1  0
  4 19  1  0
  4 20  1  0
  6 21  1  0
  6 22  1  0
  8 23  1  0
  9 24  1  0
  9 25  1  0
 10 26  1  0
 11 27  1  0
 11 28  1  0
 12 29  1  0
M  END
$$$$

     RDKit          3D

 29 29  0  0  0  0  0  0  0  0999 V2000
    2.5790    0.9382    0.4786 C   0  0  0  0  0  0  0  0  0  0  0  0
    2.1638   -0.4524    0.8961 C   0  0  2  0  0  0  0  0  0  0  0  0
    2.6752   -1.4515   -0.1119 C   0  0  0  0  0  0  0  0  0  0  0  0
    1.3570   -1.1626   -0.7857 C   0  0  0  0  0  0  0  0  0  0  0  0
    0.7975   -0.8316    0.5040 N   0  0  0  0  0  0  0  0  0  0  0  0
   -0.0212    0.3485    0.5655 C   0  0  0  0  0  0  0  0  0  0  0  0
   -1.3248    0.2105   -0.1701 C   0  0  0  0  0  0  0  0  0  0  0  0
   -1.0905   -0.0493   -1.5140 O   0  0  0  0  0  0  0  0  0  0  0  0
   -2.2463   -0.8275    0.3956 C   0  0  0  0  0  0  0  0  0  0  0  0
   -3.4401   -0.7384   -0.3472 O   0  0  0  0  0  0  0  0  0  0  0  0
   -2.0348    1.5555   -0.0478 C   0  0  0  0  0  0  0  0  0  0  0  0
   -3.2540    1.5626   -0.7197 O   0  0  0  0  0  0  0  0  0  0  0  0
    3.7101    0.9417    0.5517 H   0  0  0  0  0  0  0  0  0  0  0  0
    2.3544    1.1506   -0.5758 H   0  0  0  0  0  0  0  0  0  0  0  0
    2.2287    1.7263    1.1711 H   0  0  0  0  0  0  0  0  0  0  0  0
    2.3918   -0.6533    1.9443 H   0  0  0  0  0  0  0  0  0  0  0  0
    2.8165   -2.4597    0.2852 H   0  0  0  0  0  0  0  0  0  0  0  0
    3.5766   -1.0789   -0.6709 H   0  0  0  0  0  0  0  0  0  0  0  0
    0.9718   -2.1380   -1.2235 H   0  0  0  0  0  0  0  0  0  0  0  0
    1.3897   -0.3708   -1.5353 H   0  0  0  0  0  0  0  0  0  0  0  0
   -0.2641    0.5043    1.6487 H   0  0  0  0  0  0  0  0  0  0  0  0
    0.4857    1.2554    0.2183 H   0  0  0  0  0  0  0  0  0  0  0  0
   -1.2625   -1.0040   -1.6575 H   0  0  0  0  0  0  0  0  0  0  0  0
   -2.5342   -0.6104    1.4441 H   0  0  0  0  0  0  0  0  0  0  0  0
   -1.8583   -1.8658    0.2537 H   0  0  0  0  0  0  0  0  0  0  0  0
   -3.2744   -0.7631   -1.3209 H   0  0  0  0  0  0  0  0  0  0  0  0
   -2.2768    1.7725    1.0227 H   0  0  0  0  0  0  0  0  0  0  0  0
   -1.4173    2.3924   -0.4029 H   0  0  0  0  0  0  0  0  0  0  0  0
   -3.1985    2.0990   -1.5531 H   0  0  0  0  0  0  0  0  0  0  0  0
  1  2  1  0
  2  3  1  0
  3  4  1  0
  4  5  1  0
  5  6  1  0
  6  7  1  0
  7  8  1  0
  7  9  1  0
  9 10  1  0
  7 11  1  0
 11 12  1  0
  5  2  1  0
  1 13  1  0
  1 14  1  0
  1 15  1  0
  2 16  1  1
  3 17  1  0
  3 18  1  0
  4 19  1  0
  4 20  1  0
  6 21  1  0
  6 22  1  0
  8 23  1  0
  9 24  1  0
  9 25  1  0
 10 26  1  0
 11 27  1  0
 11 28  1  0
 12 29  1  0
M  END
$$$$

     RDKit          3D

 29 29  0  0  0  0  0  0  0  0999 V2000
    2.3946    1.6968   -0.5887 C   0  0  0  0  0  0  0  0  0  0  0  0
    1.5868    0.6794    0.1799 C   0  0  2  0  0  0  0  0  0  0  0  0
    2.5010   -0.4525    0.6352 C   0  0  0  0  0  0  0  0  0  0  0  0
    2.0179   -1.0982   -0.6573 C   0  0  0  0  0  0  0  0  0  0  0  0
    0.8407   -0.2473   -0.6703 N   0  0  0  0  0  0  0  0  0  0  0  0
   -0.2293   -0.8605    0.0474 C   0  0  0  0  0  0  0  0  0  0  0  0
   -1.4930   -0.0530    0.0888 C   0  0  0  0  0  0  0  0  0  0  0  0
   -1.2943    1.1859    0.6967 O   0  0  0  0  0  0  0  0  0  0  0  0
   -2.5174   -0.7901    0.9259 C   0  0  0  0  0  0  0  0  0  0  0  0
   -2.0783   -0.9720    2.2334 O   0  0  0  0  0  0  0  0  0  0  0  0
   -2.0952    0.1957   -1.2612 C   0  0  0  0  0  0  0  0  0  0  0  0
   -1.2547    0.9786   -2.0648 O   0  0  0  0  0  0  0  0  0  0  0  0
    2.8019    2.4176    0.1475 H   0  0  0  0  0  0  0  0  0  0  0  0
    3.2506    1.2223   -1.1088 H   0  0  0  0  0  0  0  0  0  0  0  0
    1.7424    2.2564   -1.2697 H   0  0  0  0  0  0  0  0  0  0  0  0
    1.0240    1.1246    1.0028 H   0  0  0  0  0  0  0  0  0  0  0  0
    3.5689   -0.2110    0.6391 H   0  0  0  0  0  0  0  0  0  0  0  0
    2.1935   -0.9606    1.5560 H   0  0  0  0  0  0  0  0  0  0  0  0
    2.7193   -0.9422   -1.4969 H   0  0  0  0  0  0  0  0  0  0  0  0
    1.8017   -2.1727   -0.4423 H   0  0  0  0  0  0  0  0  0  0  0  0
   -0.4582   -1.8595   -0.3757 H   0  0  0  0  0  0  0  0  0  0  0  0
    0.0733   -1.0390    1.1086 H   0  0  0  0  0  0  0  0  0  0  0  0
   -1.2750    1.1120    1.6953 H   0  0  0  0  0  0  0  0  0  0  0  0
   -2.6536   -1.8286    0.5058 H   0  0  0  0  0  0  0  0  0  0  0  0
   -3.5117   -0.3191    0.9070 H   0  0  0  0  0  0  0  0  0  0  0  0
   -2.8763   -1.0727    2.8083 H   0  0  0  0  0  0  0  0  0  0  0  0
   -2.4103   -0.7305   -1.7788 H   0  0  0  0  0  0  0  0  0  0  0  0
   -3.0163    0.7960   -1.1055 H   0  0  0  0  0  0  0  0  0  0  0  0
   -1.3531    1.9442   -1.8661 H   0  0  0  0  0  0  0  0  0  0  0  0
  1  2  1  0
  2  3  1  0
  3  4  1  0
  4  5  1  0
  5  6  1  0
  6  7  1  0
  7  8  1  0
  7  9  1  0
  9 10  1  0
  7 11  1  0
 11 12  1  0
  5  2  1  0
  1 13  1  0
  1 14  1  0
  1 15  1  0
  2 16  1  1
  3 17  1  0
  3 18  1  0
  4 19  1  0
  4 20  1  0
  6 21  1  0
  6 22  1  0
  8 23  1  0
  9 24  1  0
  9 25  1  0
 10 26  1  0
 11 27  1  0
 11 28  1  0
 12 29  1  0
M  END
$$$$
