
     RDKit          3D

 24 24  0  0  0  0  0  0  0  0999 V2000
    2.8205   -1.4425   -1.1601 C   0  0  0  0  0  0  0  0  0  0  0  0
    2.4006   -0.4138   -0.2287 N   0  0  0  0  0  0  0  0  0  0  0  0
    3.2587    0.3427    0.4245 N   0  0  0  0  0  0  0  0  0  0  0  0
    2.6417    1.2250    1.2302 C   0  0  0  0  0  0  0  0  0  0  0  0
    3.2165    2.1814    2.0699 O   0  0  0  0  0  0  0  0  0  0  0  0
    1.2994    0.9766    1.0444 C   0  0  0  0  0  0  0  0  0  0  0  0
    1.1824   -0.0354    0.1427 C   0  0  0  0  0  0  0  0  0  0  0  0
   -0.0694   -0.6150   -0.3418 C   0  0  0  0  0  0  0  0  0  0  0  0
   -0.0613   -1.5568   -1.1839 O   0  0  0  0  0  0  0  0  0  0  0  0
   -1.3173   -0.1230    0.1318 N   0  0  0  0  0  0  0  0  0  0  0  0
   -2.5203   -0.7226   -0.3717 C   0  0  0  0  0  0  0  0  0  0  0  0
   -3.7441   -0.1288    0.1922 C   0  0  0  0  0  0  0  0  0  0  0  0
   -3.7628    0.9305    1.1397 N   0  0  0  0  0  0  0  0  0  0  0  0
   -4.8527   -0.5856   -0.1862 O   0  0  0  0  0  0  0  0  0  0  0  0
    2.1323   -1.6000   -1.9892 H   0  0  0  0  0  0  0  0  0  0  0  0
    3.8078   -1.1538   -1.6259 H   0  0  0  0  0  0  0  0  0  0  0  0
    3.0233   -2.4109   -0.6518 H   0  0  0  0  0  0  0  0  0  0  0  0
    4.0084    2.7326    1.7612 H   0  0  0  0  0  0  0  0  0  0  0  0
    0.5359    1.5443    1.5728 H   0  0  0  0  0  0  0  0  0  0  0  0
   -1.3997    0.6479    0.8232 H   0  0  0  0  0  0  0  0  0  0  0  0
   -2.5099   -1.8141   -0.1357 H   0  0  0  0  0  0  0  0  0  0  0  0
   -2.5751   -0.6363   -1.4695 H   0  0  0  0  0  0  0  0  0  0  0  0
   -4.0303    0.7727    2.1244 H   0  0  0  0  0  0  0  0  0  0  0  0
   -3.4845    1.8850    0.7643 H   0  0  0  0  0  0  0  0  0  0  0  0
  1  2  1  0
  2  3  1  0
  3  4  2  0
  4  5  1  0
  4  6  1  0
  6  7  2  0
  7  8  1  0
  8  9  2  0
  8 10  1  0
 10 11  1  0
 11 12  1  0
 12 13  1  0
 12 14  2  0
  7  2  1  0
  1 15  1  0
  1 16  1  0
  1 17  1  0
  5 18  1  0
  6 19  1  0
 10 20  1  0
 11 21  1  0
 11 22  1  0
 13 23  1  0
 13 24  1  0
M  END
$$$$

     RDKit          3D

 24 24  0  0  0  0  0  0  0  0999 V2000
   -1.1651   -1.6818   -0.6813 C   0  0  0  0  0  0  0  0  0  0  0  0
   -1.8428   -0.5544   -0.1148 N   0  0  0  0  0  0  0  0  0  0  0  0
   -3.1899   -0.4823   -0.0628 N   0  0  0  0  0  0  0  0  0  0  0  0
   -3.5351    0.6776    0.5105 C   0  0  0  0  0  0  0  0  0  0  0  0
   -4.8417    1.1205    0.7438 O   0  0  0  0  0  0  0  0  0  0  0  0
   -2.3755    1.3468    0.8245 C   0  0  0  0  0  0  0  0  0  0  0  0
   -1.3016    0.5388    0.4151 C   0  0  0  0  0  0  0  0  0  0  0  0
    0.0773    0.9287    0.5971 C   0  0  0  0  0  0  0  0  0  0  0  0
    0.3040    2.0908    1.1130 O   0  0  0  0  0  0  0  0  0  0  0  0
    1.2223    0.1987    0.2824 N   0  0  0  0  0  0  0  0  0  0  0  0
    2.5454    0.7734    0.5445 C   0  0  0  0  0  0  0  0  0  0  0  0
    3.6158   -0.1403    0.1483 C   0  0  0  0  0  0  0  0  0  0  0  0
    3.3562   -1.4078   -0.4126 N   0  0  0  0  0  0  0  0  0  0  0  0
    4.8080    0.2169    0.3135 O   0  0  0  0  0  0  0  0  0  0  0  0
   -1.9246   -2.3861   -1.1723 H   0  0  0  0  0  0  0  0  0  0  0  0
   -0.5446   -1.3816   -1.5501 H   0  0  0  0  0  0  0  0  0  0  0  0
   -0.5728   -2.2666    0.0355 H   0  0  0  0  0  0  0  0  0  0  0  0
   -5.1690    1.9359    0.2427 H   0  0  0  0  0  0  0  0  0  0  0  0
   -2.3192    2.3177    1.3002 H   0  0  0  0  0  0  0  0  0  0  0  0
    1.1333   -0.7377   -0.1286 H   0  0  0  0  0  0  0  0  0  0  0  0
    2.5836    1.7348    0.0046 H   0  0  0  0  0  0  0  0  0  0  0  0
    2.6242    0.9114    1.6587 H   0  0  0  0  0  0  0  0  0  0  0  0
    3.0914   -1.4722   -1.4111 H   0  0  0  0  0  0  0  0  0  0  0  0
    3.4203   -2.2813    0.1373 H   0  0  0  0  0  0  0  0  0  0  0  0
  1  2  1  0
  2  3  1  0
  3  4  2  0
  4  5  1  0
  4  6  1  0
  6  7  2  0
  7  8  1  0
  8  9  2  0
  8 10  1  0
 10 11  1  0
 11 12  1  0
 12 13  1  0
 12 14  2  0
  7  2  1  0
  1 15  1  0
  1 16  1  0
  1 17  1  0
  5 18  1  0
  6 19  1  0
 10 20  1  0
 11 21  1  0
 11 22  1  0
 13 23  1  0
 13 24  1  0
M  END
$$$$

     RDKit          3D

 24 24  0  0  0  0  0  0  0  0999 V2000
    1.6376   -1.2690    1.5407 C   0  0  0  0  0  0  0  0  0  0  0  0
    1.8254   -0.1347    0.6522 N   0  0  0  0  0  0  0  0  0  0  0  0
    2.9667    0.5795    0.6760 N   0  0  0  0  0  0  0  0  0  0  0  0
    2.9139    1.5716   -0.2209 C   0  0  0  0  0  0  0  0  0  0  0  0
    3.8863    2.5367   -0.5122 O   0  0  0  0  0  0  0  0  0  0  0  0
    1.6813    1.4483   -0.8128 C   0  0  0  0  0  0  0  0  0  0  0  0
    0.9857    0.3622   -0.2587 C   0  0  0  0  0  0  0  0  0  0  0  0
   -0.3432   -0.0603   -0.6497 C   0  0  0  0  0  0  0  0  0  0  0  0
   -0.9492    0.6249   -1.5540 O   0  0  0  0  0  0  0  0  0  0  0  0
   -1.0529   -1.1556   -0.1398 N   0  0  0  0  0  0  0  0  0  0  0  0
   -2.3818   -1.4873   -0.5984 C   0  0  0  0  0  0  0  0  0  0  0  0
   -3.2793   -0.3517   -0.2984 C   0  0  0  0  0  0  0  0  0  0  0  0
   -2.7658    0.7960    0.3505 N   0  0  0  0  0  0  0  0  0  0  0  0
   -4.4950   -0.4368   -0.6317 O   0  0  0  0  0  0  0  0  0  0  0  0
    0.8066   -1.0192    2.2311 H   0  0  0  0  0  0  0  0  0  0  0  0
    2.5320   -1.3500    2.2306 H   0  0  0  0  0  0  0  0  0  0  0  0
    1.5800   -2.2349    1.0421 H   0  0  0  0  0  0  0  0  0  0  0  0
    4.0231    2.8802   -1.4637 H   0  0  0  0  0  0  0  0  0  0  0  0
    1.3416    2.1212   -1.5935 H   0  0  0  0  0  0  0  0  0  0  0  0
   -0.6346   -1.7607    0.5854 H   0  0  0  0  0  0  0  0  0  0  0  0
   -2.7923   -2.3743   -0.1021 H   0  0  0  0  0  0  0  0  0  0  0  0
   -2.3607   -1.6945   -1.6982 H   0  0  0  0  0  0  0  0  0  0  0  0
   -2.9223    1.7535   -0.0061 H   0  0  0  0  0  0  0  0  0  0  0  0
   -2.2030    0.6548    1.2316 H   0  0  0  0  0  0  0  0  0  0  0  0
  1  2  1  0
  2  3  1  0
  3  4  2  0
  4  5  1  0
  4  6  1  0
  6  7  2  0
  7  8  1  0
  8  9  2  0
  8 10  1  0
 10 11  1  0
 11 12  1  0
 12 13  1  0
 12 14  2  0
  7  2  1  0
  1 15  1  0
  1 16  1  0
  1 17  1  0
  5 18  1  0
  6 19  1  0
 10 20  1  0
 11 21  1  0
 11 22  1  0
 13 23  1  0
 13 24  1  0
M  END
$$$$

     RDKit          3D

 24 24  0  0  0  0  0  0  0  0999 V2000
   -2.8896    1.8019   -0.8267 C   0  0  0  0  0  0  0  0  0  0  0  0
   -2.4675    0.5698   -0.2084 N   0  0  0  0  0  0  0  0  0  0  0  0
   -3.2893   -0.3301    0.2922 N   0  0  0  0  0  0  0  0  0  0  0  0
   -2.6308   -1.3653    0.7984 C   0  0  0  0  0  0  0  0  0  0  0  0
   -3.1734   -2.4855    1.4007 O   0  0  0  0  0  0  0  0  0  0  0  0
   -1.2960   -1.0995    0.6031 C   0  0  0  0  0  0  0  0  0  0  0  0
   -1.2205    0.1284   -0.0345 C   0  0  0  0  0  0  0  0  0  0  0  0
    0.0404    0.7862   -0.4292 C   0  0  0  0  0  0  0  0  0  0  0  0
    0.0514    1.8983   -1.0043 O   0  0  0  0  0  0  0  0  0  0  0  0
    1.2908    0.1660   -0.1630 N   0  0  0  0  0  0  0  0  0  0  0  0
    2.5313    0.8024   -0.5457 C   0  0  0  0  0  0  0  0  0  0  0  0
    3.6821   -0.0426   -0.1590 C   0  0  0  0  0  0  0  0  0  0  0  0
    3.4480   -1.2799    0.4904 N   0  0  0  0  0  0  0  0  0  0  0  0
    4.8367    0.3428   -0.4083 O   0  0  0  0  0  0  0  0  0  0  0  0
   -2.3127    2.6184   -0.3498 H   0  0  0  0  0  0  0  0  0  0  0  0
   -3.9575    2.0127   -0.6094 H   0  0  0  0  0  0  0  0  0  0  0  0
   -2.7473    1.7679   -1.9294 H   0  0  0  0  0  0  0  0  0  0  0  0
   -2.6352   -3.0301    2.0672 H   0  0  0  0  0  0  0  0  0  0  0  0
   -0.4701   -1.7233    0.8895 H   0  0  0  0  0  0  0  0  0  0  0  0
    1.2869   -0.7726    0.3222 H   0  0  0  0  0  0  0  0  0  0  0  0
    2.6167    1.8059   -0.0727 H   0  0  0  0  0  0  0  0  0  0  0  0
    2.5496    0.9109   -1.6661 H   0  0  0  0  0  0  0  0  0  0  0  0
    2.9254   -2.0875    0.0900 H   0  0  0  0  0  0  0  0  0  0  0  0
    3.8308   -1.3952    1.4527 H   0  0  0  0  0  0  0  0  0  0  0  0
  1  2  1  0
  2  3  1  0
  3  4  2  0
  4  5  1  0
  4  6  1  0
  6  7  2  0
  7  8  1  0
  8  9  2  0
  8 10  1  0
 10 11  1  0
 11 12  1  0
 12 13  1  0
 12 14  2  0
  7  2  1  0
  1 15  1  0
  1 16  1  0
  1 17  1  0
  5 18  1  0
  6 19  1  0
 10 20  1  0
 11 21  1  0
 11 22  1  0
 13 23  1  0
 13 24  1  0
M  END
$$$$

     RDKit          3D

 24 24  0  0  0  0  0  0  0  0999 V2000
   -2.7169   -1.8108    1.0496 C   0  0  0  0  0  0  0  0  0  0  0  0
   -2.4184   -0.5323    0.4328 N   0  0  0  0  0  0  0  0  0  0  0  0
   -3.3249    0.3762    0.0390 N   0  0  0  0  0  0  0  0  0  0  0  0
   -2.7035    1.4408   -0.4894 C   0  0  0  0  0  0  0  0  0  0  0  0
   -3.2850    2.5785   -1.0046 O   0  0  0  0  0  0  0  0  0  0  0  0
   -1.3677    1.1958   -0.4266 C   0  0  0  0  0  0  0  0  0  0  0  0
   -1.2089   -0.0424    0.1529 C   0  0  0  0  0  0  0  0  0  0  0  0
    0.0561   -0.7313    0.4286 C   0  0  0  0  0  0  0  0  0  0  0  0
    0.0732   -1.8674    0.9658 O   0  0  0  0  0  0  0  0  0  0  0  0
    1.3109   -0.1488    0.1029 N   0  0  0  0  0  0  0  0  0  0  0  0
    2.5541   -0.8663    0.3931 C   0  0  0  0  0  0  0  0  0  0  0  0
    3.7338   -0.0963   -0.0184 C   0  0  0  0  0  0  0  0  0  0  0  0
    3.5747    1.1769   -0.6149 N   0  0  0  0  0  0  0  0  0  0  0  0
    4.8691   -0.5765    0.1638 O   0  0  0  0  0  0  0  0  0  0  0  0
   -2.5812   -1.7647    2.1548 H   0  0  0  0  0  0  0  0  0  0  0  0
   -3.7833   -2.0643    0.8019 H   0  0  0  0  0  0  0  0  0  0  0  0
   -2.1098   -2.6102    0.5833 H   0  0  0  0  0  0  0  0  0  0  0  0
   -3.5048    3.3937   -0.4614 H   0  0  0  0  0  0  0  0  0  0  0  0
   -0.5198    1.8159   -0.7538 H   0  0  0  0  0  0  0  0  0  0  0  0
    1.3077    0.7917   -0.3421 H   0  0  0  0  0  0  0  0  0  0  0  0
    2.5326   -1.1296    1.4652 H   0  0  0  0  0  0  0  0  0  0  0  0
    2.5022   -1.8012   -0.2318 H   0  0  0  0  0  0  0  0  0  0  0  0
    3.9840    2.0387   -0.2029 H   0  0  0  0  0  0  0  0  0  0  0  0
    3.0258    1.2340   -1.4965 H   0  0  0  0  0  0  0  0  0  0  0  0
  1  2  1  0
  2  3  1  0
  3  4  2  0
  4  5  1  0
  4  6  1  0
  6  7  2  0
  7  8  1  0
  8  9  2  0
  8 10  1  0
 10 11  1  0
 11 12  1  0
 12 13  1  0
 12 14  2  0
  7  2  1  0
  1 15  1  0
  1 16  1  0
  1 17  1  0
  5 18  1  0
  6 19  1  0
 10 20  1  0
 11 21  1  0
 11 22  1  0
 13 23  1  0
 13 24  1  0
M  END
$$$$

     RDKit          3D

 24 24  0  0  0  0  0  0  0  0999 V2000
    2.4227    1.9984   -1.3440 C   0  0  0  0  0  0  0  0  0  0  0  0
    2.3795    0.7991   -0.5056 N   0  0  0  0  0  0  0  0  0  0  0  0
    3.4012    0.1322   -0.0017 N   0  0  0  0  0  0  0  0  0  0  0  0
    2.9470   -0.9250    0.7222 C   0  0  0  0  0  0  0  0  0  0  0  0
    3.6840   -1.8772    1.4157 O   0  0  0  0  0  0  0  0  0  0  0  0
    1.5687   -0.9010    0.6557 C   0  0  0  0  0  0  0  0  0  0  0  0
    1.2425    0.2032   -0.1294 C   0  0  0  0  0  0  0  0  0  0  0  0
   -0.0973    0.6111   -0.4635 C   0  0  0  0  0  0  0  0  0  0  0  0
   -0.2620    1.6283   -1.1818 O   0  0  0  0  0  0  0  0  0  0  0  0
   -1.2503   -0.1154    0.0037 N   0  0  0  0  0  0  0  0  0  0  0  0
   -2.5314    0.3764   -0.3870 C   0  0  0  0  0  0  0  0  0  0  0  0
   -3.6574   -0.4073    0.1212 C   0  0  0  0  0  0  0  0  0  0  0  0
   -3.5415   -1.5604    0.9331 N   0  0  0  0  0  0  0  0  0  0  0  0
   -4.8228   -0.0357   -0.1811 O   0  0  0  0  0  0  0  0  0  0  0  0
    1.7643    2.7721   -0.9197 H   0  0  0  0  0  0  0  0  0  0  0  0
    2.1194    1.7763   -2.3752 H   0  0  0  0  0  0  0  0  0  0  0  0
    3.4630    2.3967   -1.2797 H   0  0  0  0  0  0  0  0  0  0  0  0
    3.5279   -2.1185    2.3780 H   0  0  0  0  0  0  0  0  0  0  0  0
    0.9005   -1.6063    1.1255 H   0  0  0  0  0  0  0  0  0  0  0  0
   -1.0841   -0.9566    0.5989 H   0  0  0  0  0  0  0  0  0  0  0  0
   -2.5728    0.3730   -1.5071 H   0  0  0  0  0  0  0  0  0  0  0  0
   -2.6118    1.4665   -0.1079 H   0  0  0  0  0  0  0  0  0  0  0  0
   -3.5738   -1.5544    1.9687 H   0  0  0  0  0  0  0  0  0  0  0  0
   -3.4153   -2.4755    0.4610 H   0  0  0  0  0  0  0  0  0  0  0  0
  1  2  1  0
  2  3  1  0
  3  4  2  0
  4  5  1  0
  4  6  1  0
  6  7  2  0
  7  8  1  0
  8  9  2  0
  8 10  1  0
 10 11  1  0
 11 12  1  0
 12 13  1  0
 12 14  2  0
  7  2  1  0
  1 15  1  0
  1 16  1  0
  1 17  1  0
  5 18  1  0
  6 19  1  0
 10 20  1  0
 11 21  1  0
 11 22  1  0
 13 23  1  0
 13 24  1  0
M  END
$$$$

     RDKit          3D

 24 24  0  0  0  0  0  0  0  0999 V2000
   -1.7549   -1.6866    0.9440 C   0  0  0  0  0  0  0  0  0  0  0  0
   -1.9137   -0.5836    0.0338 N   0  0  0  0  0  0  0  0  0  0  0  0
   -3.1203   -0.0707   -0.2702 N   0  0  0  0  0  0  0  0  0  0  0  0
   -2.9953    0.9420   -1.1376 C   0  0  0  0  0  0  0  0  0  0  0  0
   -3.9966    1.7372   -1.7017 O   0  0  0  0  0  0  0  0  0  0  0  0
   -1.6461    1.0516   -1.3739 C   0  0  0  0  0  0  0  0  0  0  0  0
   -0.9774    0.0858   -0.6304 C   0  0  0  0  0  0  0  0  0  0  0  0
    0.4619   -0.0530   -0.6614 C   0  0  0  0  0  0  0  0  0  0  0  0
    1.1553    0.7198   -1.4204 O   0  0  0  0  0  0  0  0  0  0  0  0
    1.2398   -0.9736    0.0714 N   0  0  0  0  0  0  0  0  0  0  0  0
    2.6749   -0.9656   -0.0887 C   0  0  0  0  0  0  0  0  0  0  0  0
    3.2748    0.3487    0.2948 C   0  0  0  0  0  0  0  0  0  0  0  0
    2.5200    1.4391    0.7575 N   0  0  0  0  0  0  0  0  0  0  0  0
    4.5230    0.4532    0.1869 O   0  0  0  0  0  0  0  0  0  0  0  0
   -1.1838   -1.4308    1.8574 H   0  0  0  0  0  0  0  0  0  0  0  0
   -2.7964   -2.0358    1.2455 H   0  0  0  0  0  0  0  0  0  0  0  0
   -1.2833   -2.5712    0.4797 H   0  0  0  0  0  0  0  0  0  0  0  0
   -4.2642    2.6107   -1.2650 H   0  0  0  0  0  0  0  0  0  0  0  0
   -1.2143    1.7969   -2.0485 H   0  0  0  0  0  0  0  0  0  0  0  0
    0.8126   -1.6511    0.7192 H   0  0  0  0  0  0  0  0  0  0  0  0
    2.9823   -1.1284   -1.1424 H   0  0  0  0  0  0  0  0  0  0  0  0
    3.0916   -1.7301    0.5933 H   0  0  0  0  0  0  0  0  0  0  0  0
    1.8620    1.2944    1.5748 H   0  0  0  0  0  0  0  0  0  0  0  0
    2.5480    2.4012    0.3616 H   0  0  0  0  0  0  0  0  0  0  0  0
  1  2  1  0
  2  3  1  0
  3  4  2  0
  4  5  1  0
  4  6  1  0
  6  7  2  0
  7  8  1  0
  8  9  2  0
  8 10  1  0
 10 11  1  0
 11 12  1  0
 12 13  1  0
 12 14  2  0
  7  2  1  0
  1 15  1  0
  1 16  1  0
  1 17  1  0
  5 18  1  0
  6 19  1  0
 10 20  1  0
 11 21  1  0
 11 22  1  0
 13 23  1  0
 13 24  1  0
M  END
$$$$

     RDKit          3D

 24 24  0  0  0  0  0  0  0  0999 V2000
   -2.0130    2.1600   -0.6380 C   0  0  0  0  0  0  0  0  0  0  0  0
   -2.2236    0.8024   -0.1698 N   0  0  0  0  0  0  0  0  0  0  0  0
   -3.4268    0.2950    0.1384 N   0  0  0  0  0  0  0  0  0  0  0  0
   -3.2925   -0.9828    0.5396 C   0  0  0  0  0  0  0  0  0  0  0  0
   -4.3097   -1.8241    0.9348 O   0  0  0  0  0  0  0  0  0  0  0  0
   -1.9402   -1.2527    0.4674 C   0  0  0  0  0  0  0  0  0  0  0  0
   -1.2881   -0.1237    0.0216 C   0  0  0  0  0  0  0  0  0  0  0  0
    0.1505    0.0576   -0.2081 C   0  0  0  0  0  0  0  0  0  0  0  0
    0.6098    1.1468   -0.6180 O   0  0  0  0  0  0  0  0  0  0  0  0
    1.0770   -1.0000    0.0272 N   0  0  0  0  0  0  0  0  0  0  0  0
    2.5001   -0.8452   -0.1921 C   0  0  0  0  0  0  0  0  0  0  0  0
    3.0756    0.2311    0.6490 C   0  0  0  0  0  0  0  0  0  0  0  0
    4.4631    0.5301    0.5711 N   0  0  0  0  0  0  0  0  0  0  0  0
    2.3798    0.9058    1.4446 O   0  0  0  0  0  0  0  0  0  0  0  0
   -2.9713    2.5909   -0.9969 H   0  0  0  0  0  0  0  0  0  0  0  0
   -1.2951    2.2035   -1.4658 H   0  0  0  0  0  0  0  0  0  0  0  0
   -1.6900    2.8390    0.2028 H   0  0  0  0  0  0  0  0  0  0  0  0
   -4.6876   -2.5466    0.3238 H   0  0  0  0  0  0  0  0  0  0  0  0
   -1.4513   -2.1720    0.7096 H   0  0  0  0  0  0  0  0  0  0  0  0
    0.6718   -1.8935    0.3668 H   0  0  0  0  0  0  0  0  0  0  0  0
    2.9843   -1.7914    0.1012 H   0  0  0  0  0  0  0  0  0  0  0  0
    2.7195   -0.6161   -1.2548 H   0  0  0  0  0  0  0  0  0  0  0  0
    4.9644    0.7102    1.4539 H   0  0  0  0  0  0  0  0  0  0  0  0
    4.9932    0.5759   -0.3247 H   0  0  0  0  0  0  0  0  0  0  0  0
  1  2  1  0
  2  3  1  0
  3  4  2  0
  4  5  1  0
  4  6  1  0
  6  7  2  0
  7  8  1  0
  8  9  2  0
  8 10  1  0
 10 11  1  0
 11 12  1  0
 12 13  1  0
 12 14  2  0
  7  2  1  0
  1 15  1  0
  1 16  1  0
  1 17  1  0
  5 18  1  0
  6 19  1  0
 10 20  1  0
 11 21  1  0
 11 22  1  0
 13 23  1  0
 13 24  1  0
M  END
$$$$
