
     RDKit          3D

 28 28  0  0  0  0  0  0  0  0999 V2000
    4.7809    0.0702    0.4352 N   0  0  0  0  0  0  0  0  0  0  0  0
    3.5667    0.5891   -0.2045 C   0  0  0  0  0  0  0  0  0  0  0  0
    2.9152   -0.5101   -0.9201 C   0  0  0  0  0  0  0  0  0  0  0  0
    1.7303   -0.9466   -0.6870 C   0  0  0  0  0  0  0  0  0  0  0  0
    0.8239   -0.4358    0.3214 C   0  0  0  0  0  0  0  0  0  0  0  0
   -0.4290    0.0731   -0.2389 N   0  0  0  0  0  0  0  0  0  0  0  0
   -1.2623    0.5195    0.8656 C   0  0  0  0  0  0  0  0  0  0  0  0
   -2.4335   -0.1306    0.2142 C   0  0  0  0  0  0  0  0  0  0  0  0
   -3.1971   -0.9131    1.0736 O   0  0  0  0  0  0  0  0  0  0  0  0
   -3.2122    0.8269   -0.5990 C   0  0  0  0  0  0  0  0  0  0  0  0
   -4.6198    0.8494   -0.4565 N   0  0  0  0  0  0  0  0  0  0  0  0
   -2.6781    1.6153   -1.4053 O   0  0  0  0  0  0  0  0  0  0  0  0
   -1.3959   -0.9192   -0.5697 C   0  0  0  0  0  0  0  0  0  0  0  0
    5.3083    0.8969    0.7672 H   0  0  0  0  0  0  0  0  0  0  0  0
    5.3724   -0.3550   -0.3364 H   0  0  0  0  0  0  0  0  0  0  0  0
    3.9428    1.3076   -0.9920 H   0  0  0  0  0  0  0  0  0  0  0  0
    2.9688    1.0747    0.5477 H   0  0  0  0  0  0  0  0  0  0  0  0
    3.5404   -0.9682   -1.7196 H   0  0  0  0  0  0  0  0  0  0  0  0
    1.3805   -1.7955   -1.3257 H   0  0  0  0  0  0  0  0  0  0  0  0
    1.2309    0.4047    0.8980 H   0  0  0  0  0  0  0  0  0  0  0  0
    0.5216   -1.2701    1.0071 H   0  0  0  0  0  0  0  0  0  0  0  0
   -1.2879    1.6127    0.9752 H   0  0  0  0  0  0  0  0  0  0  0  0
   -1.0157    0.0546    1.8482 H   0  0  0  0  0  0  0  0  0  0  0  0
   -3.3556   -0.4186    1.9128 H   0  0  0  0  0  0  0  0  0  0  0  0
   -5.1937    0.2140   -1.0578 H   0  0  0  0  0  0  0  0  0  0  0  0
   -5.0575    1.4941    0.2389 H   0  0  0  0  0  0  0  0  0  0  0  0
   -1.2614   -1.9158   -0.1019 H   0  0  0  0  0  0  0  0  0  0  0  0
   -1.6830   -1.0240   -1.6308 H   0  0  0  0  0  0  0  0  0  0  0  0
  1  2  1  0
  2  3  1  0
  3  4  2  3
  4  5  1  0
  5  6  1  0
  6  7  1  0
  7  8  1  0
  8  9  1  0
  8 10  1  0
 10 11  1  0
 10 12  2  0
  8 13  1  0
 13  6  1  0
  1 14  1  0
  1 15  1  0
  2 16  1  0
  2 17  1  0
  3 18  1  0
  4 19  1  0
  5 20  1  0
  5 21  1  0
  7 22  1  0
  7 23  1  0
  9 24  1  0
 11 25  1  0
 11 26  1  0
 13 27  1  0
 13 28  1  0
M  END
$$$$

     RDKit          3D

 28 28  0  0  0  0  0  0  0  0999 V2000
    4.3145    0.3895   -0.4107 N   0  0  0  0  0  0  0  0  0  0  0  0
    3.5900    1.4349    0.2797 C   0  0  0  0  0  0  0  0  0  0  0  0
    2.2631    0.9732    0.7377 C   0  0  0  0  0  0  0  0  0  0  0  0
    1.8514   -0.2763    0.5044 C   0  0  0  0  0  0  0  0  0  0  0  0
    0.5356   -0.7844    0.9415 C   0  0  0  0  0  0  0  0  0  0  0  0
   -0.2844   -1.2284   -0.1367 N   0  0  0  0  0  0  0  0  0  0  0  0
   -1.5710   -1.7461    0.1146 C   0  0  0  0  0  0  0  0  0  0  0  0
   -2.1916   -0.6927   -0.7226 C   0  0  0  0  0  0  0  0  0  0  0  0
   -2.8639   -1.1394   -1.8622 O   0  0  0  0  0  0  0  0  0  0  0  0
   -2.9336    0.3602    0.0263 C   0  0  0  0  0  0  0  0  0  0  0  0
   -4.1921    0.7815   -0.4807 N   0  0  0  0  0  0  0  0  0  0  0  0
   -2.5111    0.8933    1.0749 O   0  0  0  0  0  0  0  0  0  0  0  0
   -0.8032   -0.2664   -1.0525 C   0  0  0  0  0  0  0  0  0  0  0  0
    5.1073    0.0032    0.1286 H   0  0  0  0  0  0  0  0  0  0  0  0
    4.6842    0.7635   -1.3102 H   0  0  0  0  0  0  0  0  0  0  0  0
    3.4855    2.3376   -0.3354 H   0  0  0  0  0  0  0  0  0  0  0  0
    4.1959    1.7137    1.1809 H   0  0  0  0  0  0  0  0  0  0  0  0
    1.6386    1.6768    1.2658 H   0  0  0  0  0  0  0  0  0  0  0  0
    2.5105   -0.9525   -0.0303 H   0  0  0  0  0  0  0  0  0  0  0  0
    0.0516    0.0426    1.5128 H   0  0  0  0  0  0  0  0  0  0  0  0
    0.6747   -1.6037    1.6924 H   0  0  0  0  0  0  0  0  0  0  0  0
   -1.8162   -1.7253    1.2031 H   0  0  0  0  0  0  0  0  0  0  0  0
   -1.7972   -2.7560   -0.3413 H   0  0  0  0  0  0  0  0  0  0  0  0
   -3.4013   -0.4004   -2.2099 H   0  0  0  0  0  0  0  0  0  0  0  0
   -5.0904    0.3916   -0.1081 H   0  0  0  0  0  0  0  0  0  0  0  0
   -4.2955    1.4914   -1.2406 H   0  0  0  0  0  0  0  0  0  0  0  0
   -0.5298   -0.4856   -2.1200 H   0  0  0  0  0  0  0  0  0  0  0  0
   -0.6215    0.8041   -0.7792 H   0  0  0  0  0  0  0  0  0  0  0  0
  1  2  1  0
  2  3  1  0
  3  4  2  3
  4  5  1  0
  5  6  1  0
  6  7  1  0
  7  8  1  0
  8  9  1  0
  8 10  1  0
 10 11  1  0
 10 12  2  0
  8 13  1  0
 13  6  1  0
  1 14  1  0
  1 15  1  0
  2 16  1  0
  2 17  1  0
  3 18  1  0
  4 19  1  0
  5 20  1  0
  5 21  1  0
  7 22  1  0
  7 23  1  0
  9 24  1  0
 11 25  1  0
 11 26  1  0
 13 27  1  0
 13 28  1  0
M  END
$$$$

     RDKit          3D

 28 28  0  0  0  0  0  0  0  0999 V2000
    3.4226    0.6960    1.5826 N   0  0  0  0  0  0  0  0  0  0  0  0
    3.7605    0.9130    0.2118 C   0  0  0  0  0  0  0  0  0  0  0  0
    2.7510    0.2613   -0.6565 C   0  0  0  0  0  0  0  0  0  0  0  0
    1.7490   -0.3847   -0.1285 C   0  0  0  0  0  0  0  0  0  0  0  0
    0.6881   -1.0695   -0.9571 C   0  0  0  0  0  0  0  0  0  0  0  0
   -0.5376   -0.5446   -0.6837 N   0  0  0  0  0  0  0  0  0  0  0  0
   -1.7661   -0.8827   -1.2177 C   0  0  0  0  0  0  0  0  0  0  0  0
   -2.3422   -0.6242    0.1713 C   0  0  0  0  0  0  0  0  0  0  0  0
   -2.5644   -1.8180    0.8508 O   0  0  0  0  0  0  0  0  0  0  0  0
   -3.4623    0.3359    0.2067 C   0  0  0  0  0  0  0  0  0  0  0  0
   -3.4103    1.5884   -0.4250 N   0  0  0  0  0  0  0  0  0  0  0  0
   -4.4975    0.0116    0.8281 O   0  0  0  0  0  0  0  0  0  0  0  0
   -0.9863   -0.0447    0.5438 C   0  0  0  0  0  0  0  0  0  0  0  0
    3.5830    1.5332    2.1853 H   0  0  0  0  0  0  0  0  0  0  0  0
    3.8539   -0.1701    1.9887 H   0  0  0  0  0  0  0  0  0  0  0  0
    4.7438    0.4020    0.0290 H   0  0  0  0  0  0  0  0  0  0  0  0
    3.8133    1.9907   -0.0502 H   0  0  0  0  0  0  0  0  0  0  0  0
    2.8360    0.3154   -1.7412 H   0  0  0  0  0  0  0  0  0  0  0  0
    1.6561   -0.4439    0.9472 H   0  0  0  0  0  0  0  0  0  0  0  0
    0.9511   -0.9816   -2.0307 H   0  0  0  0  0  0  0  0  0  0  0  0
    0.7627   -2.1592   -0.6883 H   0  0  0  0  0  0  0  0  0  0  0  0
   -1.9692   -1.9179   -1.5552 H   0  0  0  0  0  0  0  0  0  0  0  0
   -2.1719   -0.0898   -1.9070 H   0  0  0  0  0  0  0  0  0  0  0  0
   -2.5997   -1.6994    1.8380 H   0  0  0  0  0  0  0  0  0  0  0  0
   -2.7736    2.3716   -0.0985 H   0  0  0  0  0  0  0  0  0  0  0  0
   -4.0022    1.8283   -1.2649 H   0  0  0  0  0  0  0  0  0  0  0  0
   -0.5374   -0.4839    1.4530 H   0  0  0  0  0  0  0  0  0  0  0  0
   -0.9505    1.0666    0.5681 H   0  0  0  0  0  0  0  0  0  0  0  0
  1  2  1  0
  2  3  1  0
  3  4  2  3
  4  5  1  0
  5  6  1  0
  6  7  1  0
  7  8  1  0
  8  9  1  0
  8 10  1  0
 10 11  1  0
 10 12  2  0
  8 13  1  0
 13  6  1  0
  1 14  1  0
  1 15  1  0
  2 16  1  0
  2 17  1  0
  3 18  1  0
  4 19  1  0
  5 20  1  0
  5 21  1  0
  7 22  1  0
  7 23  1  0
  9 24  1  0
 11 25  1  0
 11 26  1  0
 13 27  1  0
 13 28  1  0
M  END
$$$$

     RDKit          3D

 28 28  0  0  0  0  0  0  0  0999 V2000
    4.2499    0.9252   -0.6554 N   0  0  0  0  0  0  0  0  0  0  0  0
    3.9898   -0.3265    0.0568 C   0  0  0  0  0  0  0  0  0  0  0  0
    2.6569   -0.8743   -0.2690 C   0  0  0  0  0  0  0  0  0  0  0  0
    1.7384   -1.0642    0.6661 C   0  0  0  0  0  0  0  0  0  0  0  0
    0.3903   -1.6128    0.3704 C   0  0  0  0  0  0  0  0  0  0  0  0
   -0.5775   -0.6277    0.7692 N   0  0  0  0  0  0  0  0  0  0  0  0
   -1.9686   -1.0069    0.5470 C   0  0  0  0  0  0  0  0  0  0  0  0
   -2.2232    0.4594    0.3123 C   0  0  0  0  0  0  0  0  0  0  0  0
   -2.2083    1.2714    1.4190 O   0  0  0  0  0  0  0  0  0  0  0  0
   -3.2737    0.7658   -0.6899 C   0  0  0  0  0  0  0  0  0  0  0  0
   -4.1403    1.8430   -0.4131 N   0  0  0  0  0  0  0  0  0  0  0  0
   -3.4036    0.1088   -1.7440 O   0  0  0  0  0  0  0  0  0  0  0  0
   -0.8098    0.3898   -0.2711 C   0  0  0  0  0  0  0  0  0  0  0  0
    4.1640    0.8058   -1.6885 H   0  0  0  0  0  0  0  0  0  0  0  0
    3.6213    1.6537   -0.2619 H   0  0  0  0  0  0  0  0  0  0  0  0
    4.8088   -1.0513   -0.1540 H   0  0  0  0  0  0  0  0  0  0  0  0
    4.0806   -0.0832    1.1402 H   0  0  0  0  0  0  0  0  0  0  0  0
    2.4662   -1.1147   -1.3169 H   0  0  0  0  0  0  0  0  0  0  0  0
    1.9896   -0.8067    1.6813 H   0  0  0  0  0  0  0  0  0  0  0  0
    0.2965   -1.7693   -0.7121 H   0  0  0  0  0  0  0  0  0  0  0  0
    0.2093   -2.5660    0.9178 H   0  0  0  0  0  0  0  0  0  0  0  0
   -2.4817   -1.4671    1.3877 H   0  0  0  0  0  0  0  0  0  0  0  0
   -2.1013   -1.5505   -0.4313 H   0  0  0  0  0  0  0  0  0  0  0  0
   -1.5624    2.0226    1.3699 H   0  0  0  0  0  0  0  0  0  0  0  0
   -4.4144    2.0420    0.5585 H   0  0  0  0  0  0  0  0  0  0  0  0
   -4.4978    2.4284   -1.1801 H   0  0  0  0  0  0  0  0  0  0  0  0
   -0.7800   -0.0939   -1.2626 H   0  0  0  0  0  0  0  0  0  0  0  0
   -0.2189    1.2992   -0.1462 H   0  0  0  0  0  0  0  0  0  0  0  0
  1  2  1  0
  2  3  1  0
  3  4  2  3
  4  5  1  0
  5  6  1  0
  6  7  1  0
  7  8  1  0
  8  9  1  0
  8 10  1  0
 10 11  1  0
 10 12  2  0
  8 13  1  0
 13  6  1  0
  1 14  1  0
  1 15  1  0
  2 16  1  0
  2 17  1  0
  3 18  1  0
  4 19  1  0
  5 20  1  0
  5 21  1  0
  7 22  1  0
  7 23  1  0
  9 24  1  0
 11 25  1  0
 11 26  1  0
 13 27  1  0
 13 28  1  0
M  END
$$$$

     RDKit          3D

 28 28  0  0  0  0  0  0  0  0999 V2000
    4.6439   -0.5300    0.2881 N   0  0  0  0  0  0  0  0  0  0  0  0
    3.6526   -0.9597   -0.6554 C   0  0  0  0  0  0  0  0  0  0  0  0
    2.3074   -0.3637   -0.4263 C   0  0  0  0  0  0  0  0  0  0  0  0
    2.0323    0.4839    0.5517 C   0  0  0  0  0  0  0  0  0  0  0  0
    0.7287    1.0959    0.8193 C   0  0  0  0  0  0  0  0  0  0  0  0
   -0.3428    0.7174   -0.0579 N   0  0  0  0  0  0  0  0  0  0  0  0
   -0.8507   -0.6112    0.0112 C   0  0  0  0  0  0  0  0  0  0  0  0
   -2.2517   -0.0386    0.1213 C   0  0  0  0  0  0  0  0  0  0  0  0
   -3.0306   -0.5893    1.1111 O   0  0  0  0  0  0  0  0  0  0  0  0
   -2.9514    0.1268   -1.1748 C   0  0  0  0  0  0  0  0  0  0  0  0
   -4.3053   -0.2931   -1.2556 N   0  0  0  0  0  0  0  0  0  0  0  0
   -2.4427    0.6094   -2.2110 O   0  0  0  0  0  0  0  0  0  0  0  0
   -1.5907    1.2789    0.4908 C   0  0  0  0  0  0  0  0  0  0  0  0
    4.7846    0.4990    0.3053 H   0  0  0  0  0  0  0  0  0  0  0  0
    4.4561   -0.9066    1.2369 H   0  0  0  0  0  0  0  0  0  0  0  0
    3.5389   -2.0640   -0.5405 H   0  0  0  0  0  0  0  0  0  0  0  0
    3.9964   -0.7850   -1.6978 H   0  0  0  0  0  0  0  0  0  0  0  0
    1.5274   -0.6453   -1.1073 H   0  0  0  0  0  0  0  0  0  0  0  0
    2.9089    0.7131    1.1941 H   0  0  0  0  0  0  0  0  0  0  0  0
    0.4209    1.0010    1.8985 H   0  0  0  0  0  0  0  0  0  0  0  0
    0.8697    2.2074    0.6462 H   0  0  0  0  0  0  0  0  0  0  0  0
   -0.7200   -1.2313   -0.8763 H   0  0  0  0  0  0  0  0  0  0  0  0
   -0.5823   -1.2046    0.9223 H   0  0  0  0  0  0  0  0  0  0  0  0
   -3.6823   -1.2294    0.7319 H   0  0  0  0  0  0  0  0  0  0  0  0
   -5.0112   -0.0771   -0.5100 H   0  0  0  0  0  0  0  0  0  0  0  0
   -4.6612   -0.8397   -2.0667 H   0  0  0  0  0  0  0  0  0  0  0  0
   -1.5493    1.4905    1.5684 H   0  0  0  0  0  0  0  0  0  0  0  0
   -1.8960    2.1453   -0.1038 H   0  0  0  0  0  0  0  0  0  0  0  0
  1  2  1  0
  2  3  1  0
  3  4  2  3
  4  5  1  0
  5  6  1  0
  6  7  1  0
  7  8  1  0
  8  9  1  0
  8 10  1  0
 10 11  1  0
 10 12  2  0
  8 13  1  0
 13  6  1  0
  1 14  1  0
  1 15  1  0
  2 16  1  0
  2 17  1  0
  3 18  1  0
  4 19  1  0
  5 20  1  0
  5 21  1  0
  7 22  1  0
  7 23  1  0
  9 24  1  0
 11 25  1  0
 11 26  1  0
 13 27  1  0
 13 28  1  0
M  END
$$$$

     RDKit          3D

 28 28  0  0  0  0  0  0  0  0999 V2000
   -4.6826    0.5635   -0.1906 N   0  0  0  0  0  0  0  0  0  0  0  0
   -3.2896    0.9274    0.0002 C   0  0  0  0  0  0  0  0  0  0  0  0
   -2.3983   -0.2302    0.1107 C   0  0  0  0  0  0  0  0  0  0  0  0
   -1.3862   -0.5018   -0.6978 C   0  0  0  0  0  0  0  0  0  0  0  0
   -0.5256   -1.6897   -0.5292 C   0  0  0  0  0  0  0  0  0  0  0  0
    0.8555   -1.4300   -0.3249 N   0  0  0  0  0  0  0  0  0  0  0  0
    1.2909   -0.8157    0.8826 C   0  0  0  0  0  0  0  0  0  0  0  0
    1.9325    0.2651    0.0573 C   0  0  0  0  0  0  0  0  0  0  0  0
    1.3308    1.5059    0.1573 O   0  0  0  0  0  0  0  0  0  0  0  0
    3.4207    0.3730    0.1864 C   0  0  0  0  0  0  0  0  0  0  0  0
    4.0815    1.6081    0.3738 N   0  0  0  0  0  0  0  0  0  0  0  0
    4.1511   -0.6636    0.1312 O   0  0  0  0  0  0  0  0  0  0  0  0
    1.5264   -0.5100   -1.1885 C   0  0  0  0  0  0  0  0  0  0  0  0
   -4.7648    0.1286   -1.1358 H   0  0  0  0  0  0  0  0  0  0  0  0
   -5.0058   -0.0587    0.5786 H   0  0  0  0  0  0  0  0  0  0  0  0
   -2.9796    1.5677   -0.8336 H   0  0  0  0  0  0  0  0  0  0  0  0
   -3.2786    1.5622    0.9243 H   0  0  0  0  0  0  0  0  0  0  0  0
   -2.5775   -0.9290    0.9274 H   0  0  0  0  0  0  0  0  0  0  0  0
   -1.1932    0.1813   -1.5118 H   0  0  0  0  0  0  0  0  0  0  0  0
   -0.6678   -2.4311   -1.3631 H   0  0  0  0  0  0  0  0  0  0  0  0
   -0.8757   -2.2586    0.3844 H   0  0  0  0  0  0  0  0  0  0  0  0
    2.0355   -1.4829    1.3957 H   0  0  0  0  0  0  0  0  0  0  0  0
    0.5003   -0.4441    1.5360 H   0  0  0  0  0  0  0  0  0  0  0  0
    0.5496    1.4918    0.7917 H   0  0  0  0  0  0  0  0  0  0  0  0
    3.6775    2.4408   -0.1297 H   0  0  0  0  0  0  0  0  0  0  0  0
    4.9206    1.6672    0.9816 H   0  0  0  0  0  0  0  0  0  0  0  0
    0.9301    0.1056   -1.8623 H   0  0  0  0  0  0  0  0  0  0  0  0
    2.4222   -0.9428   -1.7224 H   0  0  0  0  0  0  0  0  0  0  0  0
  1  2  1  0
  2  3  1  0
  3  4  2  3
  4  5  1  0
  5  6  1  0
  6  7  1  0
  7  8  1  0
  8  9  1  0
  8 10  1  0
 10 11  1  0
 10 12  2  0
  8 13  1  0
 13  6  1  0
  1 14  1  0
  1 15  1  0
  2 16  1  0
  2 17  1  0
  3 18  1  0
  4 19  1  0
  5 20  1  0
  5 21  1  0
  7 22  1  0
  7 23  1  0
  9 24  1  0
 11 25  1  0
 11 26  1  0
 13 27  1  0
 13 28  1  0
M  END
$$$$

     RDKit          3D

 28 28  0  0  0  0  0  0  0  0999 V2000
    3.6339    0.8015   -1.7021 N   0  0  0  0  0  0  0  0  0  0  0  0
    3.7626    0.0116   -0.4998 C   0  0  0  0  0  0  0  0  0  0  0  0
    2.5001    0.1212    0.3025 C   0  0  0  0  0  0  0  0  0  0  0  0
    1.7604   -0.9288    0.6055 C   0  0  0  0  0  0  0  0  0  0  0  0
    0.5366   -0.7604    1.3927 C   0  0  0  0  0  0  0  0  0  0  0  0
   -0.6510   -1.2025    0.7041 N   0  0  0  0  0  0  0  0  0  0  0  0
   -1.0138   -0.3776   -0.4459 C   0  0  0  0  0  0  0  0  0  0  0  0
   -2.4592   -0.4663   -0.0208 C   0  0  0  0  0  0  0  0  0  0  0  0
   -3.0735   -1.6449   -0.3935 O   0  0  0  0  0  0  0  0  0  0  0  0
   -3.2631    0.7474   -0.1606 C   0  0  0  0  0  0  0  0  0  0  0  0
   -2.8456    2.0423    0.1520 N   0  0  0  0  0  0  0  0  0  0  0  0
   -4.4504    0.6066   -0.6083 O   0  0  0  0  0  0  0  0  0  0  0  0
   -1.8342   -0.6287    1.3621 C   0  0  0  0  0  0  0  0  0  0  0  0
    4.1140    1.7238   -1.6017 H   0  0  0  0  0  0  0  0  0  0  0  0
    3.9533    0.3413   -2.5592 H   0  0  0  0  0  0  0  0  0  0  0  0
    4.0022   -1.0491   -0.7178 H   0  0  0  0  0  0  0  0  0  0  0  0
    4.6125    0.4281    0.0769 H   0  0  0  0  0  0  0  0  0  0  0  0
    2.2183    1.1157    0.6272 H   0  0  0  0  0  0  0  0  0  0  0  0
    2.0524   -1.9178    0.2757 H   0  0  0  0  0  0  0  0  0  0  0  0
    0.6231   -1.3984    2.3122 H   0  0  0  0  0  0  0  0  0  0  0  0
    0.4343    0.2983    1.6927 H   0  0  0  0  0  0  0  0  0  0  0  0
   -0.8497   -0.8465   -1.4313 H   0  0  0  0  0  0  0  0  0  0  0  0
   -0.5896    0.6224   -0.3707 H   0  0  0  0  0  0  0  0  0  0  0  0
   -3.8950   -1.8417    0.0902 H   0  0  0  0  0  0  0  0  0  0  0  0
   -2.2645    2.6447   -0.5021 H   0  0  0  0  0  0  0  0  0  0  0  0
   -3.0778    2.5192    1.0675 H   0  0  0  0  0  0  0  0  0  0  0  0
   -2.3331   -1.3372    2.0221 H   0  0  0  0  0  0  0  0  0  0  0  0
   -1.6032    0.3755    1.7658 H   0  0  0  0  0  0  0  0  0  0  0  0
  1  2  1  0
  2  3  1  0
  3  4  2  3
  4  5  1  0
  5  6  1  0
  6  7  1  0
  7  8  1  0
  8  9  1  0
  8 10  1  0
 10 11  1  0
 10 12  2  0
  8 13  1  0
 13  6  1  0
  1 14  1  0
  1 15  1  0
  2 16  1  0
  2 17  1  0
  3 18  1  0
  4 19  1  0
  5 20  1  0
  5 21  1  0
  7 22  1  0
  7 23  1  0
  9 24  1  0
 11 25  1  0
 11 26  1  0
 13 27  1  0
 13 28  1  0
M  END
$$$$

     RDKit          3D

 28 28  0  0  0  0  0  0  0  0999 V2000
   -4.3600    0.5563   -0.2016 N   0  0  0  0  0  0  0  0  0  0  0  0
   -3.5566   -0.4052    0.5442 C   0  0  0  0  0  0  0  0  0  0  0  0
   -2.7415   -1.1396   -0.4387 C   0  0  0  0  0  0  0  0  0  0  0  0
   -1.4383   -1.2185   -0.5216 C   0  0  0  0  0  0  0  0  0  0  0  0
   -0.5589   -0.5329    0.4269 C   0  0  0  0  0  0  0  0  0  0  0  0
    0.3263    0.4241   -0.1846 N   0  0  0  0  0  0  0  0  0  0  0  0
    1.3718   -0.0873   -1.0363 C   0  0  0  0  0  0  0  0  0  0  0  0
    2.2134    1.0971   -0.5410 C   0  0  0  0  0  0  0  0  0  0  0  0
    2.1006    2.2370   -1.2969 O   0  0  0  0  0  0  0  0  0  0  0  0
    3.5926    0.6456   -0.2465 C   0  0  0  0  0  0  0  0  0  0  0  0
    3.8595   -0.5042    0.5027 N   0  0  0  0  0  0  0  0  0  0  0  0
    4.5256    1.3564   -0.7087 O   0  0  0  0  0  0  0  0  0  0  0  0
    1.2738    1.0676    0.6680 C   0  0  0  0  0  0  0  0  0  0  0  0
   -3.8889    0.7664   -1.0821 H   0  0  0  0  0  0  0  0  0  0  0  0
   -5.3249    0.1915   -0.3414 H   0  0  0  0  0  0  0  0  0  0  0  0
   -3.0435    0.0896    1.3568 H   0  0  0  0  0  0  0  0  0  0  0  0
   -4.2956   -1.1212    1.0079 H   0  0  0  0  0  0  0  0  0  0  0  0
   -3.3189   -1.6970   -1.2072 H   0  0  0  0  0  0  0  0  0  0  0  0
   -1.0231   -1.8305   -1.3455 H   0  0  0  0  0  0  0  0  0  0  0  0
   -1.1372   -0.0604    1.2267 H   0  0  0  0  0  0  0  0  0  0  0  0
    0.1307   -1.3327    0.8434 H   0  0  0  0  0  0  0  0  0  0  0  0
    1.2207   -0.0177   -2.1091 H   0  0  0  0  0  0  0  0  0  0  0  0
    1.7763   -1.0557   -0.6780 H   0  0  0  0  0  0  0  0  0  0  0  0
    1.6125    2.0140   -2.1333 H   0  0  0  0  0  0  0  0  0  0  0  0
    4.3535   -1.3137    0.0651 H   0  0  0  0  0  0  0  0  0  0  0  0
    3.5916   -0.6150    1.4998 H   0  0  0  0  0  0  0  0  0  0  0  0
    1.6764    0.3945    1.4610 H   0  0  0  0  0  0  0  0  0  0  0  0
    1.0624    2.0914    0.9767 H   0  0  0  0  0  0  0  0  0  0  0  0
  1  2  1  0
  2  3  1  0
  3  4  2  3
  4  5  1  0
  5  6  1  0
  6  7  1  0
  7  8  1  0
  8  9  1  0
  8 10  1  0
 10 11  1  0
 10 12  2  0
  8 13  1  0
 13  6  1  0
  1 14  1  0
  1 15  1  0
  2 16  1  0
  2 17  1  0
  3 18  1  0
  4 19  1  0
  5 20  1  0
  5 21  1  0
  7 22  1  0
  7 23  1  0
  9 24  1  0
 11 25  1  0
 11 26  1  0
 13 27  1  0
 13 28  1  0
M  END
$$$$
