
     RDKit          3D

 30 30  0  0  0  0  0  0  0  0999 V2000
    3.4091    1.0855    0.5816 C   0  0  0  0  0  0  0  0  0  0  0  0
    2.0526    0.5691    0.3883 N   0  0  0  0  0  0  0  0  0  0  0  0
    1.8590   -0.6036   -0.3565 C   0  0  0  0  0  0  0  0  0  0  0  0
    2.8777   -1.1706   -0.8412 O   0  0  0  0  0  0  0  0  0  0  0  0
    0.5611   -1.2524   -0.6413 C   0  0  2  0  0  0  0  0  0  0  0  0
    0.3445   -1.1478   -2.1360 C   0  0  0  0  0  0  0  0  0  0  0  0
   -0.4510   -0.7595    0.1534 N   0  0  0  0  0  0  0  0  0  0  0  0
   -0.3511   -1.0525    1.5272 C   0  0  0  0  0  0  0  0  0  0  0  0
   -1.6178   -0.1788   -0.2931 C   0  0  1  0  0  0  0  0  0  0  0  0
   -2.3567    0.4792    0.8798 C   0  0  0  0  0  0  0  0  0  0  0  0
   -3.1869    1.4164    0.1086 N   0  0  0  0  0  0  0  0  0  0  0  0
   -2.3278    1.9979   -0.7407 O   0  0  0  0  0  0  0  0  0  0  0  0
   -1.4304    1.0462   -1.1800 C   0  0  0  0  0  0  0  0  0  0  0  0
    4.0641    0.2753    0.9912 H   0  0  0  0  0  0  0  0  0  0  0  0
    3.8635    1.4384   -0.3635 H   0  0  0  0  0  0  0  0  0  0  0  0
    3.3950    1.8665    1.3740 H   0  0  0  0  0  0  0  0  0  0  0  0
    1.2224    1.0618    0.7752 H   0  0  0  0  0  0  0  0  0  0  0  0
    0.7498   -2.3601   -0.4544 H   0  0  0  0  0  0  0  0  0  0  0  0
   -0.6814   -1.4613   -2.3922 H   0  0  0  0  0  0  0  0  0  0  0  0
    1.0043   -1.9153   -2.6086 H   0  0  0  0  0  0  0  0  0  0  0  0
    0.6426   -0.1926   -2.5758 H   0  0  0  0  0  0  0  0  0  0  0  0
   -1.3362   -1.4316    1.9580 H   0  0  0  0  0  0  0  0  0  0  0  0
    0.3328   -1.9391    1.7364 H   0  0  0  0  0  0  0  0  0  0  0  0
   -0.0003   -0.2440    2.1946 H   0  0  0  0  0  0  0  0  0  0  0  0
   -2.3764   -0.8419   -0.7585 H   0  0  0  0  0  0  0  0  0  0  0  0
   -1.6631    1.0963    1.4563 H   0  0  0  0  0  0  0  0  0  0  0  0
   -2.9569   -0.2306    1.4527 H   0  0  0  0  0  0  0  0  0  0  0  0
   -3.6061    2.1565    0.7018 H   0  0  0  0  0  0  0  0  0  0  0  0
   -1.6344    0.8191   -2.2313 H   0  0  0  0  0  0  0  0  0  0  0  0
   -0.4020    1.4736   -1.0158 H   0  0  0  0  0  0  0  0  0  0  0  0
  1  2  1  0
  2  3  1  0
  3  4  2  0
  3  5  1  0
  5  6  1  0
  5  7  1  0
  7  8  1  0
  7  9  1  0
  9 10  1  0
 10 11  1  0
 11 12  1  0
 12 13  1  0
 13  9  1  0
  1 14  1  0
  1 15  1  0
  1 16  1  0
  2 17  1  0
  5 18  1  1
  6 19  1  0
  6 20  1  0
  6 21  1  0
  8 22  1  0
  8 23  1  0
  8 24  1  0
  9 25  1  6
 10 26  1  0
 10 27  1  0
 11 28  1  0
 13 29  1  0
 13 30  1  0
M  END
$$$$

     RDKit          3D

 30 30  0  0  0  0  0  0  0  0999 V2000
    3.7224    1.1446    0.2469 C   0  0  0  0  0  0  0  0  0  0  0  0
    2.7491    0.2429   -0.3559 N   0  0  0  0  0  0  0  0  0  0  0  0
    1.4949   -0.0399    0.2357 C   0  0  0  0  0  0  0  0  0  0  0  0
    1.2260    0.5147    1.3207 O   0  0  0  0  0  0  0  0  0  0  0  0
    0.5063   -0.9574   -0.3778 C   0  0  2  0  0  0  0  0  0  0  0  0
    0.4225   -0.7867   -1.8731 C   0  0  0  0  0  0  0  0  0  0  0  0
   -0.6981   -1.0919    0.3141 N   0  0  0  0  0  0  0  0  0  0  0  0
   -0.4990   -1.6630    1.6367 C   0  0  0  0  0  0  0  0  0  0  0  0
   -1.7444   -0.2238    0.2913 C   0  0  1  0  0  0  0  0  0  0  0  0
   -1.5999    1.1875    0.7815 C   0  0  0  0  0  0  0  0  0  0  0  0
   -2.9389    1.6882    0.4165 N   0  0  0  0  0  0  0  0  0  0  0  0
   -3.4051    0.9811   -0.5905 O   0  0  0  0  0  0  0  0  0  0  0  0
   -2.4460    0.0685   -1.0249 C   0  0  0  0  0  0  0  0  0  0  0  0
    3.8217    2.0655   -0.3694 H   0  0  0  0  0  0  0  0  0  0  0  0
    4.6692    0.5503    0.2877 H   0  0  0  0  0  0  0  0  0  0  0  0
    3.3867    1.4274    1.2647 H   0  0  0  0  0  0  0  0  0  0  0  0
    3.0045   -0.2064   -1.2663 H   0  0  0  0  0  0  0  0  0  0  0  0
    1.0204   -1.9803   -0.2710 H   0  0  0  0  0  0  0  0  0  0  0  0
   -0.4841   -1.2836   -2.2319 H   0  0  0  0  0  0  0  0  0  0  0  0
    0.5107    0.2710   -2.1905 H   0  0  0  0  0  0  0  0  0  0  0  0
    1.2826   -1.3313   -2.3738 H   0  0  0  0  0  0  0  0  0  0  0  0
   -1.4703   -2.1604    1.9072 H   0  0  0  0  0  0  0  0  0  0  0  0
   -0.3176   -0.9099    2.4035 H   0  0  0  0  0  0  0  0  0  0  0  0
    0.3036   -2.4357    1.6457 H   0  0  0  0  0  0  0  0  0  0  0  0
   -2.5877   -0.6499    0.9356 H   0  0  0  0  0  0  0  0  0  0  0  0
   -0.9083    1.8156    0.2157 H   0  0  0  0  0  0  0  0  0  0  0  0
   -1.4631    1.2393    1.8915 H   0  0  0  0  0  0  0  0  0  0  0  0
   -2.9114    2.7157    0.2954 H   0  0  0  0  0  0  0  0  0  0  0  0
   -2.8774   -0.8370   -1.4818 H   0  0  0  0  0  0  0  0  0  0  0  0
   -1.7692    0.6452   -1.6837 H   0  0  0  0  0  0  0  0  0  0  0  0
  1  2  1  0
  2  3  1  0
  3  4  2  0
  3  5  1  0
  5  6  1  0
  5  7  1  0
  7  8  1  0
  7  9  1  0
  9 10  1  0
 10 11  1  0
 11 12  1  0
 12 13  1  0
 13  9  1  0
  1 14  1  0
  1 15  1  0
  1 16  1  0
  2 17  1  0
  5 18  1  6
  6 19  1  0
  6 20  1  0
  6 21  1  0
  8 22  1  0
  8 23  1  0
  8 24  1  0
  9 25  1  1
 10 26  1  0
 10 27  1  0
 11 28  1  0
 13 29  1  0
 13 30  1  0
M  END
$$$$

     RDKit          3D

 30 30  0  0  0  0  0  0  0  0999 V2000
    3.6682    1.3842    0.3405 C   0  0  0  0  0  0  0  0  0  0  0  0
    2.7660    0.3526   -0.0841 N   0  0  0  0  0  0  0  0  0  0  0  0
    1.5065    0.0861    0.5113 C   0  0  0  0  0  0  0  0  0  0  0  0
    1.1215    0.7820    1.4775 O   0  0  0  0  0  0  0  0  0  0  0  0
    0.6621   -0.9828    0.0040 C   0  0  2  0  0  0  0  0  0  0  0  0
    0.9623   -1.4010   -1.4101 C   0  0  0  0  0  0  0  0  0  0  0  0
   -0.7123   -0.8726    0.1958 N   0  0  0  0  0  0  0  0  0  0  0  0
   -1.4211   -2.0585    0.5310 C   0  0  0  0  0  0  0  0  0  0  0  0
   -1.3488    0.3439    0.3905 C   0  0  1  0  0  0  0  0  0  0  0  0
   -1.2191    1.3632   -0.6996 C   0  0  0  0  0  0  0  0  0  0  0  0
   -2.4251    2.1516   -0.5397 N   0  0  0  0  0  0  0  0  0  0  0  0
   -3.2716    1.4844    0.2176 O   0  0  0  0  0  0  0  0  0  0  0  0
   -2.8954    0.1741    0.3107 C   0  0  0  0  0  0  0  0  0  0  0  0
    4.0053    1.9639   -0.5490 H   0  0  0  0  0  0  0  0  0  0  0  0
    3.2570    2.0660    1.0824 H   0  0  0  0  0  0  0  0  0  0  0  0
    4.6103    0.8968    0.7102 H   0  0  0  0  0  0  0  0  0  0  0  0
    3.0226   -0.2553   -0.8972 H   0  0  0  0  0  0  0  0  0  0  0  0
    0.9830   -1.8906    0.6222 H   0  0  0  0  0  0  0  0  0  0  0  0
    1.2614   -0.6120   -2.0854 H   0  0  0  0  0  0  0  0  0  0  0  0
    0.0468   -1.8788   -1.8589 H   0  0  0  0  0  0  0  0  0  0  0  0
    1.7546   -2.1949   -1.4668 H   0  0  0  0  0  0  0  0  0  0  0  0
   -1.9729   -1.9074    1.4835 H   0  0  0  0  0  0  0  0  0  0  0  0
   -0.7030   -2.9064    0.6226 H   0  0  0  0  0  0  0  0  0  0  0  0
   -2.1995   -2.3072   -0.2351 H   0  0  0  0  0  0  0  0  0  0  0  0
   -1.1586    0.8190    1.3563 H   0  0  0  0  0  0  0  0  0  0  0  0
   -0.3641    2.0591   -0.5275 H   0  0  0  0  0  0  0  0  0  0  0  0
   -1.2507    0.9333   -1.7020 H   0  0  0  0  0  0  0  0  0  0  0  0
   -2.2478    3.0882   -0.1072 H   0  0  0  0  0  0  0  0  0  0  0  0
   -3.2807   -0.3730    1.1677 H   0  0  0  0  0  0  0  0  0  0  0  0
   -3.1569   -0.3077   -0.6800 H   0  0  0  0  0  0  0  0  0  0  0  0
  1  2  1  0
  2  3  1  0
  3  4  2  0
  3  5  1  0
  5  6  1  0
  5  7  1  0
  7  8  1  0
  7  9  1  0
  9 10  1  0
 10 11  1  0
 11 12  1  0
 12 13  1  0
 13  9  1  0
  1 14  1  0
  1 15  1  0
  1 16  1  0
  2 17  1  0
  5 18  1  1
  6 19  1  0
  6 20  1  0
  6 21  1  0
  8 22  1  0
  8 23  1  0
  8 24  1  0
  9 25  1  1
 10 26  1  0
 10 27  1  0
 11 28  1  0
 13 29  1  0
 13 30  1  0
M  END
$$$$

     RDKit          3D

 30 30  0  0  0  0  0  0  0  0999 V2000
   -3.8895    0.3560    0.7398 C   0  0  0  0  0  0  0  0  0  0  0  0
   -2.4381    0.2851    0.4924 N   0  0  0  0  0  0  0  0  0  0  0  0
   -2.0119   -0.3093   -0.7224 C   0  0  0  0  0  0  0  0  0  0  0  0
   -2.8925   -0.7486   -1.5268 O   0  0  0  0  0  0  0  0  0  0  0  0
   -0.5638   -0.4138   -1.0401 C   0  0  2  0  0  0  0  0  0  0  0  0
   -0.2337   -1.8621   -1.2076 C   0  0  0  0  0  0  0  0  0  0  0  0
    0.2684    0.2487   -0.0974 N   0  0  0  0  0  0  0  0  0  0  0  0
    0.0150    1.6960   -0.0722 C   0  0  0  0  0  0  0  0  0  0  0  0
    1.6743    0.0824   -0.2414 C   0  0  1  0  0  0  0  0  0  0  0  0
    2.3231    1.0361    0.7837 C   0  0  0  0  0  0  0  0  0  0  0  0
    3.4928    0.3193    1.2275 N   0  0  0  0  0  0  0  0  0  0  0  0
    3.5722   -0.8302    0.5646 O   0  0  0  0  0  0  0  0  0  0  0  0
    2.2506   -1.2112    0.2175 C   0  0  0  0  0  0  0  0  0  0  0  0
   -4.2777   -0.6658    0.6125 H   0  0  0  0  0  0  0  0  0  0  0  0
   -4.0883    0.7129    1.7681 H   0  0  0  0  0  0  0  0  0  0  0  0
   -4.3728    1.0187    0.0091 H   0  0  0  0  0  0  0  0  0  0  0  0
   -1.7895    0.6682    1.2181 H   0  0  0  0  0  0  0  0  0  0  0  0
   -0.4412    0.0698   -2.0379 H   0  0  0  0  0  0  0  0  0  0  0  0
    0.5080   -1.9729   -2.0103 H   0  0  0  0  0  0  0  0  0  0  0  0
    0.0734   -2.3799   -0.2972 H   0  0  0  0  0  0  0  0  0  0  0  0
   -1.1517   -2.3948   -1.6025 H   0  0  0  0  0  0  0  0  0  0  0  0
    0.0684    2.1302    0.9270 H   0  0  0  0  0  0  0  0  0  0  0  0
    0.8101    2.1790   -0.6791 H   0  0  0  0  0  0  0  0  0  0  0  0
   -0.9330    1.9395   -0.6203 H   0  0  0  0  0  0  0  0  0  0  0  0
    2.0281    0.3076   -1.2543 H   0  0  0  0  0  0  0  0  0  0  0  0
    2.6089    1.9831    0.3190 H   0  0  0  0  0  0  0  0  0  0  0  0
    1.6625    1.1481    1.6818 H   0  0  0  0  0  0  0  0  0  0  0  0
    3.5145    0.1893    2.2804 H   0  0  0  0  0  0  0  0  0  0  0  0
    1.8192   -1.6066    1.1470 H   0  0  0  0  0  0  0  0  0  0  0  0
    2.3942   -1.9752   -0.5791 H   0  0  0  0  0  0  0  0  0  0  0  0
  1  2  1  0
  2  3  1  0
  3  4  2  0
  3  5  1  0
  5  6  1  0
  5  7  1  0
  7  8  1  0
  7  9  1  0
  9 10  1  0
 10 11  1  0
 11 12  1  0
 12 13  1  0
 13  9  1  0
  1 14  1  0
  1 15  1  0
  1 16  1  0
  2 17  1  0
  5 18  1  6
  6 19  1  0
  6 20  1  0
  6 21  1  0
  8 22  1  0
  8 23  1  0
  8 24  1  0
  9 25  1  6
 10 26  1  0
 10 27  1  0
 11 28  1  0
 13 29  1  0
 13 30  1  0
M  END
$$$$

     RDKit          3D

 30 30  0  0  0  0  0  0  0  0999 V2000
    3.8996    1.4153    0.8734 C   0  0  0  0  0  0  0  0  0  0  0  0
    3.0374    0.3712    0.3151 N   0  0  0  0  0  0  0  0  0  0  0  0
    1.6497    0.3069    0.6457 C   0  0  0  0  0  0  0  0  0  0  0  0
    1.2156    1.1903    1.4371 O   0  0  0  0  0  0  0  0  0  0  0  0
    0.7835   -0.7493    0.0787 C   0  0  2  0  0  0  0  0  0  0  0  0
    0.9338   -0.8503   -1.4255 C   0  0  0  0  0  0  0  0  0  0  0  0
   -0.5768   -0.7033    0.5010 N   0  0  0  0  0  0  0  0  0  0  0  0
   -1.1211   -2.0491    0.2314 C   0  0  0  0  0  0  0  0  0  0  0  0
   -1.4343    0.1918   -0.2116 C   0  0  1  0  0  0  0  0  0  0  0  0
   -2.8697   -0.2559    0.1208 C   0  0  0  0  0  0  0  0  0  0  0  0
   -3.5890    0.9658   -0.0604 N   0  0  0  0  0  0  0  0  0  0  0  0
   -2.7628    1.9923   -0.0934 O   0  0  0  0  0  0  0  0  0  0  0  0
   -1.5143    1.5883    0.3638 C   0  0  0  0  0  0  0  0  0  0  0  0
    4.9105    0.9546    0.9834 H   0  0  0  0  0  0  0  0  0  0  0  0
    3.9429    2.2163    0.1145 H   0  0  0  0  0  0  0  0  0  0  0  0
    3.5207    1.8022    1.8178 H   0  0  0  0  0  0  0  0  0  0  0  0
    3.4018   -0.3539   -0.3347 H   0  0  0  0  0  0  0  0  0  0  0  0
    1.2071   -1.7209    0.4762 H   0  0  0  0  0  0  0  0  0  0  0  0
    0.6365    0.0590   -1.9590 H   0  0  0  0  0  0  0  0  0  0  0  0
    0.3886   -1.7301   -1.8301 H   0  0  0  0  0  0  0  0  0  0  0  0
    2.0053   -1.0499   -1.6290 H   0  0  0  0  0  0  0  0  0  0  0  0
   -0.3266   -2.8051    0.3958 H   0  0  0  0  0  0  0  0  0  0  0  0
   -1.4493   -2.1179   -0.8265 H   0  0  0  0  0  0  0  0  0  0  0  0
   -1.9424   -2.2934    0.9156 H   0  0  0  0  0  0  0  0  0  0  0  0
   -1.2834    0.2240   -1.2919 H   0  0  0  0  0  0  0  0  0  0  0  0
   -3.1936   -1.0777   -0.5203 H   0  0  0  0  0  0  0  0  0  0  0  0
   -2.8732   -0.4976    1.2050 H   0  0  0  0  0  0  0  0  0  0  0  0
   -4.3253    1.1045    0.6522 H   0  0  0  0  0  0  0  0  0  0  0  0
   -0.7821    2.2910   -0.0818 H   0  0  0  0  0  0  0  0  0  0  0  0
   -1.4889    1.5810    1.4589 H   0  0  0  0  0  0  0  0  0  0  0  0
  1  2  1  0
  2  3  1  0
  3  4  2  0
  3  5  1  0
  5  6  1  0
  5  7  1  0
  7  8  1  0
  7  9  1  0
  9 10  1  0
 10 11  1  0
 11 12  1  0
 12 13  1  0
 13  9  1  0
  1 14  1  0
  1 15  1  0
  1 16  1  0
  2 17  1  0
  5 18  1  1
  6 19  1  0
  6 20  1  0
  6 21  1  0
  8 22  1  0
  8 23  1  0
  8 24  1  0
  9 25  1  6
 10 26  1  0
 10 27  1  0
 11 28  1  0
 13 29  1  0
 13 30  1  0
M  END
$$$$

     RDKit          3D

 30 30  0  0  0  0  0  0  0  0999 V2000
    3.8281    1.1857   -0.2086 C   0  0  0  0  0  0  0  0  0  0  0  0
    2.8059    0.3215    0.3947 N   0  0  0  0  0  0  0  0  0  0  0  0
    1.5471    0.1184   -0.2333 C   0  0  0  0  0  0  0  0  0  0  0  0
    1.3232    0.6878   -1.3154 O   0  0  0  0  0  0  0  0  0  0  0  0
    0.5533   -0.7415    0.3919 C   0  0  2  0  0  0  0  0  0  0  0  0
    1.0932   -2.1841    0.3396 C   0  0  0  0  0  0  0  0  0  0  0  0
   -0.7655   -0.7298   -0.1341 N   0  0  0  0  0  0  0  0  0  0  0  0
   -1.4285   -1.9704    0.3310 C   0  0  0  0  0  0  0  0  0  0  0  0
   -1.5780    0.3523    0.2975 C   0  0  1  0  0  0  0  0  0  0  0  0
   -1.1400    1.7374   -0.1126 C   0  0  0  0  0  0  0  0  0  0  0  0
   -2.4047    2.4303    0.2776 N   0  0  0  0  0  0  0  0  0  0  0  0
   -3.3633    1.6956   -0.3326 O   0  0  0  0  0  0  0  0  0  0  0  0
   -2.9599    0.3618   -0.3539 C   0  0  0  0  0  0  0  0  0  0  0  0
    4.5361    0.6130   -0.8432 H   0  0  0  0  0  0  0  0  0  0  0  0
    4.4146    1.6139    0.6172 H   0  0  0  0  0  0  0  0  0  0  0  0
    3.3548    2.0266   -0.7775 H   0  0  0  0  0  0  0  0  0  0  0  0
    2.9767   -0.1647    1.3009 H   0  0  0  0  0  0  0  0  0  0  0  0
    0.4602   -0.5107    1.4939 H   0  0  0  0  0  0  0  0  0  0  0  0
    0.4478   -2.7501   -0.3353 H   0  0  0  0  0  0  0  0  0  0  0  0
    2.1155   -2.1933   -0.1242 H   0  0  0  0  0  0  0  0  0  0  0  0
    1.1223   -2.6407    1.3402 H   0  0  0  0  0  0  0  0  0  0  0  0
   -1.5569   -2.6913   -0.4840 H   0  0  0  0  0  0  0  0  0  0  0  0
   -2.4336   -1.7441    0.7597 H   0  0  0  0  0  0  0  0  0  0  0  0
   -0.8741   -2.4509    1.1565 H   0  0  0  0  0  0  0  0  0  0  0  0
   -1.7087    0.3847    1.4106 H   0  0  0  0  0  0  0  0  0  0  0  0
   -1.0533    1.8291   -1.2234 H   0  0  0  0  0  0  0  0  0  0  0  0
   -0.3349    2.1698    0.4623 H   0  0  0  0  0  0  0  0  0  0  0  0
   -2.4026    3.4026   -0.1020 H   0  0  0  0  0  0  0  0  0  0  0  0
   -3.6933   -0.2349    0.1989 H   0  0  0  0  0  0  0  0  0  0  0  0
   -2.8813    0.0757   -1.4296 H   0  0  0  0  0  0  0  0  0  0  0  0
  1  2  1  0
  2  3  1  0
  3  4  2  0
  3  5  1  0
  5  6  1  0
  5  7  1  0
  7  8  1  0
  7  9  1  0
  9 10  1  0
 10 11  1  0
 11 12  1  0
 12 13  1  0
 13  9  1  0
  1 14  1  0
  1 15  1  0
  1 16  1  0
  2 17  1  0
  5 18  1  1
  6 19  1  0
  6 20  1  0
  6 21  1  0
  8 22  1  0
  8 23  1  0
  8 24  1  0
  9 25  1  1
 10 26  1  0
 10 27  1  0
 11 28  1  0
 13 29  1  0
 13 30  1  0
M  END
$$$$

     RDKit          3D

 30 30  0  0  0  0  0  0  0  0999 V2000
    4.2802    0.4407   -0.4902 C   0  0  0  0  0  0  0  0  0  0  0  0
    2.9664    0.7213    0.0705 N   0  0  0  0  0  0  0  0  0  0  0  0
    1.7957    0.0407   -0.3295 C   0  0  0  0  0  0  0  0  0  0  0  0
    1.9173   -0.8446   -1.2085 O   0  0  0  0  0  0  0  0  0  0  0  0
    0.4345    0.3017    0.2187 C   0  0  2  0  0  0  0  0  0  0  0  0
    0.5304    0.2574    1.7235 C   0  0  0  0  0  0  0  0  0  0  0  0
   -0.4633   -0.6038   -0.3506 N   0  0  0  0  0  0  0  0  0  0  0  0
   -0.2327   -1.9888   -0.0402 C   0  0  0  0  0  0  0  0  0  0  0  0
   -1.7928   -0.3278   -0.6021 C   0  0  1  0  0  0  0  0  0  0  0  0
   -2.6845   -0.0435    0.6002 C   0  0  0  0  0  0  0  0  0  0  0  0
   -3.7883    0.6397   -0.0696 N   0  0  0  0  0  0  0  0  0  0  0  0
   -3.1433    1.5457   -0.8398 O   0  0  0  0  0  0  0  0  0  0  0  0
   -2.1242    0.8205   -1.4982 C   0  0  0  0  0  0  0  0  0  0  0  0
    4.2332    0.1909   -1.5808 H   0  0  0  0  0  0  0  0  0  0  0  0
    4.8679    1.3779   -0.4222 H   0  0  0  0  0  0  0  0  0  0  0  0
    4.8304   -0.3313    0.0743 H   0  0  0  0  0  0  0  0  0  0  0  0
    2.8866    1.4467    0.7915 H   0  0  0  0  0  0  0  0  0  0  0  0
    0.1858    1.3354   -0.1511 H   0  0  0  0  0  0  0  0  0  0  0  0
    1.5902    0.3998    2.0074 H   0  0  0  0  0  0  0  0  0  0  0  0
   -0.0365    1.0667    2.2306 H   0  0  0  0  0  0  0  0  0  0  0  0
    0.2369   -0.7645    2.0366 H   0  0  0  0  0  0  0  0  0  0  0  0
   -0.3920   -2.5866   -0.9614 H   0  0  0  0  0  0  0  0  0  0  0  0
    0.7886   -2.1810    0.3128 H   0  0  0  0  0  0  0  0  0  0  0  0
   -0.9749   -2.3899    0.7066 H   0  0  0  0  0  0  0  0  0  0  0  0
   -2.2523   -1.2403   -1.0832 H   0  0  0  0  0  0  0  0  0  0  0  0
   -2.2074    0.5395    1.3874 H   0  0  0  0  0  0  0  0  0  0  0  0
   -3.1218   -0.9980    0.9718 H   0  0  0  0  0  0  0  0  0  0  0  0
   -4.4133    1.1458    0.5648 H   0  0  0  0  0  0  0  0  0  0  0  0
   -2.5831    0.5107   -2.4589 H   0  0  0  0  0  0  0  0  0  0  0  0
   -1.3340    1.5191   -1.7200 H   0  0  0  0  0  0  0  0  0  0  0  0
  1  2  1  0
  2  3  1  0
  3  4  2  0
  3  5  1  0
  5  6  1  0
  5  7  1  0
  7  8  1  0
  7  9  1  0
  9 10  1  0
 10 11  1  0
 11 12  1  0
 12 13  1  0
 13  9  1  0
  1 14  1  0
  1 15  1  0
  1 16  1  0
  2 17  1  0
  5 18  1  1
  6 19  1  0
  6 20  1  0
  6 21  1  0
  8 22  1  0
  8 23  1  0
  8 24  1  0
  9 25  1  6
 10 26  1  0
 10 27  1  0
 11 28  1  0
 13 29  1  0
 13 30  1  0
M  END
$$$$

     RDKit          3D

 30 30  0  0  0  0  0  0  0  0999 V2000
    3.2082    1.6104   -0.7684 C   0  0  0  0  0  0  0  0  0  0  0  0
    1.9602    0.8848   -0.5392 N   0  0  0  0  0  0  0  0  0  0  0  0
    1.7631    0.0996    0.6284 C   0  0  0  0  0  0  0  0  0  0  0  0
    2.7561    0.0954    1.4341 O   0  0  0  0  0  0  0  0  0  0  0  0
    0.5336   -0.6654    0.9348 C   0  0  2  0  0  0  0  0  0  0  0  0
    0.8501   -2.0339    1.4928 C   0  0  0  0  0  0  0  0  0  0  0  0
   -0.3641   -0.6573   -0.1399 N   0  0  0  0  0  0  0  0  0  0  0  0
   -0.0213   -1.2520   -1.3607 C   0  0  0  0  0  0  0  0  0  0  0  0
   -1.6837   -0.2643    0.0982 C   0  0  1  0  0  0  0  0  0  0  0  0
   -1.6931    1.1958    0.5726 C   0  0  0  0  0  0  0  0  0  0  0  0
   -2.6286    1.8113   -0.3778 N   0  0  0  0  0  0  0  0  0  0  0  0
   -3.5120    0.7947   -0.6344 O   0  0  0  0  0  0  0  0  0  0  0  0
   -2.5973   -0.1967   -1.0693 C   0  0  0  0  0  0  0  0  0  0  0  0
    3.5383    1.4152   -1.8156 H   0  0  0  0  0  0  0  0  0  0  0  0
    3.9452    1.2452   -0.0320 H   0  0  0  0  0  0  0  0  0  0  0  0
    2.9739    2.6905   -0.6506 H   0  0  0  0  0  0  0  0  0  0  0  0
    1.2103    0.9522   -1.2391 H   0  0  0  0  0  0  0  0  0  0  0  0
    0.0443   -0.1063    1.7871 H   0  0  0  0  0  0  0  0  0  0  0  0
    0.1229   -2.8021    1.2046 H   0  0  0  0  0  0  0  0  0  0  0  0
    0.8745   -2.0332    2.6133 H   0  0  0  0  0  0  0  0  0  0  0  0
    1.8959   -2.2912    1.1851 H   0  0  0  0  0  0  0  0  0  0  0  0
   -0.3089   -0.5920   -2.2044 H   0  0  0  0  0  0  0  0  0  0  0  0
    1.0680   -1.4139   -1.4301 H   0  0  0  0  0  0  0  0  0  0  0  0
   -0.4623   -2.2740   -1.5213 H   0  0  0  0  0  0  0  0  0  0  0  0
   -2.1634   -0.8696    0.8972 H   0  0  0  0  0  0  0  0  0  0  0  0
   -0.6930    1.6459    0.4656 H   0  0  0  0  0  0  0  0  0  0  0  0
   -2.1303    1.2963    1.5768 H   0  0  0  0  0  0  0  0  0  0  0  0
   -3.0934    2.6467    0.0143 H   0  0  0  0  0  0  0  0  0  0  0  0
   -3.2169   -1.1133   -1.1950 H   0  0  0  0  0  0  0  0  0  0  0  0
   -2.1766    0.1813   -1.9966 H   0  0  0  0  0  0  0  0  0  0  0  0
  1  2  1  0
  2  3  1  0
  3  4  2  0
  3  5  1  0
  5  6  1  0
  5  7  1  0
  7  8  1  0
  7  9  1  0
  9 10  1  0
 10 11  1  0
 11 12  1  0
 12 13  1  0
 13  9  1  0
  1 14  1  0
  1 15  1  0
  1 16  1  0
  2 17  1  0
  5 18  1  1
  6 19  1  0
  6 20  1  0
  6 21  1  0
  8 22  1  0
  8 23  1  0
  8 24  1  0
  9 25  1  1
 10 26  1  0
 10 27  1  0
 11 28  1  0
 13 29  1  0
 13 30  1  0
M  END
$$$$
