
     RDKit          3D

 25 26  0  0  0  0  0  0  0  0999 V2000
   -1.9665    2.4310    0.8272 C   0  0  0  0  0  0  0  0  0  0  0  0
   -2.0756    0.9975    0.5107 N   0  0  0  0  0  0  0  0  0  0  0  0
   -3.1945    0.3100    0.6324 N   0  0  0  0  0  0  0  0  0  0  0  0
   -3.0035   -0.9644    0.2771 C   0  0  0  0  0  0  0  0  0  0  0  0
   -1.6670   -1.0363   -0.0833 C   0  0  0  0  0  0  0  0  0  0  0  0
   -1.0671   -2.2230   -0.5383 N   0  0  0  0  0  0  0  0  0  0  0  0
   -1.0767    0.1990    0.0628 C   0  0  0  0  0  0  0  0  0  0  0  0
    0.2301    0.6318   -0.1902 N   0  0  0  0  0  0  0  0  0  0  0  0
    1.3561   -0.1466   -0.6019 C   0  0  2  0  0  0  0  0  0  0  0  0
    1.9110   -1.0729    0.4386 C   0  0  0  0  0  0  0  0  0  0  0  0
    3.2129   -1.3173   -0.0657 O   0  0  0  0  0  0  0  0  0  0  0  0
    3.6529   -0.0934   -0.4726 N   0  0  0  0  0  0  0  0  0  0  0  0
    2.5484    0.6857   -0.9072 C   0  0  0  0  0  0  0  0  0  0  0  0
    2.6614    1.8181   -1.4237 O   0  0  0  0  0  0  0  0  0  0  0  0
   -2.2728    3.0480   -0.0353 H   0  0  0  0  0  0  0  0  0  0  0  0
   -0.9312    2.6605    1.0805 H   0  0  0  0  0  0  0  0  0  0  0  0
   -2.6270    2.6774    1.6813 H   0  0  0  0  0  0  0  0  0  0  0  0
   -3.7214   -1.7987    0.2608 H   0  0  0  0  0  0  0  0  0  0  0  0
   -0.9124   -3.0249    0.1144 H   0  0  0  0  0  0  0  0  0  0  0  0
   -0.7550   -2.3589   -1.5229 H   0  0  0  0  0  0  0  0  0  0  0  0
    0.4330    1.6685   -0.0668 H   0  0  0  0  0  0  0  0  0  0  0  0
    1.1369   -0.7753   -1.4975 H   0  0  0  0  0  0  0  0  0  0  0  0
    1.3871   -2.0026    0.5961 H   0  0  0  0  0  0  0  0  0  0  0  0
    2.0825   -0.4823    1.3677 H   0  0  0  0  0  0  0  0  0  0  0  0
    4.6587    0.1690   -0.4442 H   0  0  0  0  0  0  0  0  0  0  0  0
  1  2  1  0
  2  3  1  0
  3  4  2  0
  4  5  1  0
  5  6  1  0
  5  7  2  0
  7  8  1  0
  8  9  1  0
  9 10  1  0
 10 11  1  0
 11 12  1  0
 12 13  1  0
 13 14  2  0
  7  2  1  0
 13  9  1  0
  1 15  1  0
  1 16  1  0
  1 17  1  0
  4 18  1  0
  6 19  1  0
  6 20  1  0
  8 21  1  0
  9 22  1  6
 10 23  1  0
 10 24  1  0
 12 25  1  0
M  END
$$$$

     RDKit          3D

 25 26  0  0  0  0  0  0  0  0999 V2000
   -1.8917   -2.3978    0.6892 C   0  0  0  0  0  0  0  0  0  0  0  0
   -2.0829   -1.0497    0.2128 N   0  0  0  0  0  0  0  0  0  0  0  0
   -3.2364   -0.4410    0.1085 N   0  0  0  0  0  0  0  0  0  0  0  0
   -3.0483    0.7824   -0.3611 C   0  0  0  0  0  0  0  0  0  0  0  0
   -1.6826    0.9274   -0.5564 C   0  0  0  0  0  0  0  0  0  0  0  0
   -1.0315    2.0906   -1.0734 N   0  0  0  0  0  0  0  0  0  0  0  0
   -1.0698   -0.2295   -0.1936 C   0  0  0  0  0  0  0  0  0  0  0  0
    0.2999   -0.6110   -0.2213 N   0  0  0  0  0  0  0  0  0  0  0  0
    1.3763    0.2790   -0.5697 C   0  0  2  0  0  0  0  0  0  0  0  0
    2.6602   -0.5016   -0.7928 C   0  0  0  0  0  0  0  0  0  0  0  0
    3.3401   -0.3753    0.4054 O   0  0  0  0  0  0  0  0  0  0  0  0
    3.1477    0.9056    0.7997 N   0  0  0  0  0  0  0  0  0  0  0  0
    1.7475    1.1651    0.5641 C   0  0  0  0  0  0  0  0  0  0  0  0
    1.0657    1.9682    1.2098 O   0  0  0  0  0  0  0  0  0  0  0  0
   -1.5080   -2.4347    1.7283 H   0  0  0  0  0  0  0  0  0  0  0  0
   -2.8519   -2.9593    0.6177 H   0  0  0  0  0  0  0  0  0  0  0  0
   -1.1308   -2.8838    0.0170 H   0  0  0  0  0  0  0  0  0  0  0  0
   -3.7764    1.5497   -0.5677 H   0  0  0  0  0  0  0  0  0  0  0  0
   -0.7202    2.1354   -2.0875 H   0  0  0  0  0  0  0  0  0  0  0  0
   -0.8729    2.8980   -0.4397 H   0  0  0  0  0  0  0  0  0  0  0  0
    0.5487   -1.6089    0.0279 H   0  0  0  0  0  0  0  0  0  0  0  0
    1.1557    0.8403   -1.4680 H   0  0  0  0  0  0  0  0  0  0  0  0
    3.2617   -0.0275   -1.5815 H   0  0  0  0  0  0  0  0  0  0  0  0
    2.4327   -1.5677   -0.9893 H   0  0  0  0  0  0  0  0  0  0  0  0
    3.8673    1.5462    1.1860 H   0  0  0  0  0  0  0  0  0  0  0  0
  1  2  1  0
  2  3  1  0
  3  4  2  0
  4  5  1  0
  5  6  1  0
  5  7  2  0
  7  8  1  0
  8  9  1  0
  9 10  1  0
 10 11  1  0
 11 12  1  0
 12 13  1  0
 13 14  2  0
  7  2  1  0
 13  9  1  0
  1 15  1  0
  1 16  1  0
  1 17  1  0
  4 18  1  0
  6 19  1  0
  6 20  1  0
  8 21  1  0
  9 22  1  6
 10 23  1  0
 10 24  1  0
 12 25  1  0
M  END
$$$$

     RDKit          3D

 25 26  0  0  0  0  0  0  0  0999 V2000
   -2.5373   -1.6631    0.9465 C   0  0  0  0  0  0  0  0  0  0  0  0
   -2.2962   -0.3381    0.3854 N   0  0  0  0  0  0  0  0  0  0  0  0
   -3.1910    0.5220   -0.0204 N   0  0  0  0  0  0  0  0  0  0  0  0
   -2.6329    1.6386   -0.4793 C   0  0  0  0  0  0  0  0  0  0  0  0
   -1.2540    1.4415   -0.3395 C   0  0  0  0  0  0  0  0  0  0  0  0
   -0.2701    2.4056   -0.6927 N   0  0  0  0  0  0  0  0  0  0  0  0
   -1.0564    0.1957    0.2042 C   0  0  0  0  0  0  0  0  0  0  0  0
    0.1587   -0.4352    0.5567 N   0  0  0  0  0  0  0  0  0  0  0  0
    1.4515    0.0785    0.2847 C   0  0  2  0  0  0  0  0  0  0  0  0
    1.7740   -0.0983   -1.1793 C   0  0  0  0  0  0  0  0  0  0  0  0
    3.1901   -0.1647   -1.1348 O   0  0  0  0  0  0  0  0  0  0  0  0
    3.4004   -1.1121   -0.1944 N   0  0  0  0  0  0  0  0  0  0  0  0
    2.5349   -0.7855    0.8837 C   0  0  0  0  0  0  0  0  0  0  0  0
    2.6903   -1.1637    2.0576 O   0  0  0  0  0  0  0  0  0  0  0  0
   -1.9152   -1.8183    1.8312 H   0  0  0  0  0  0  0  0  0  0  0  0
   -2.2908   -2.4420    0.1914 H   0  0  0  0  0  0  0  0  0  0  0  0
   -3.6135   -1.7684    1.1929 H   0  0  0  0  0  0  0  0  0  0  0  0
   -3.0735    2.5249   -0.8787 H   0  0  0  0  0  0  0  0  0  0  0  0
    0.0170    2.5888   -1.6940 H   0  0  0  0  0  0  0  0  0  0  0  0
    0.2365    3.0008    0.0113 H   0  0  0  0  0  0  0  0  0  0  0  0
    0.1073   -1.3677    1.0666 H   0  0  0  0  0  0  0  0  0  0  0  0
    1.5947    1.1279    0.6212 H   0  0  0  0  0  0  0  0  0  0  0  0
    1.4247    0.6607   -1.8550 H   0  0  0  0  0  0  0  0  0  0  0  0
    1.4701   -1.1348   -1.4500 H   0  0  0  0  0  0  0  0  0  0  0  0
    4.0806   -1.8932   -0.3149 H   0  0  0  0  0  0  0  0  0  0  0  0
  1  2  1  0
  2  3  1  0
  3  4  2  0
  4  5  1  0
  5  6  1  0
  5  7  2  0
  7  8  1  0
  8  9  1  0
  9 10  1  0
 10 11  1  0
 11 12  1  0
 12 13  1  0
 13 14  2  0
  7  2  1  0
 13  9  1  0
  1 15  1  0
  1 16  1  0
  1 17  1  0
  4 18  1  0
  6 19  1  0
  6 20  1  0
  8 21  1  0
  9 22  1  1
 10 23  1  0
 10 24  1  0
 12 25  1  0
M  END
$$$$

     RDKit          3D

 25 26  0  0  0  0  0  0  0  0999 V2000
   -0.9342    2.1009   -1.1789 C   0  0  0  0  0  0  0  0  0  0  0  0
   -1.6140    0.9654   -0.5850 N   0  0  0  0  0  0  0  0  0  0  0  0
   -2.9476    0.8636   -0.4044 N   0  0  0  0  0  0  0  0  0  0  0  0
   -3.2536   -0.3195    0.1410 C   0  0  0  0  0  0  0  0  0  0  0  0
   -2.0862   -1.0133    0.3235 C   0  0  0  0  0  0  0  0  0  0  0  0
   -1.9026   -2.3006    0.8643 N   0  0  0  0  0  0  0  0  0  0  0  0
   -1.0624   -0.1697   -0.1469 C   0  0  0  0  0  0  0  0  0  0  0  0
    0.2979   -0.5542   -0.0855 N   0  0  0  0  0  0  0  0  0  0  0  0
    1.4301    0.2679   -0.4000 C   0  0  2  0  0  0  0  0  0  0  0  0
    2.6520   -0.6662   -0.5758 C   0  0  0  0  0  0  0  0  0  0  0  0
    2.8222   -1.0892    0.7359 O   0  0  0  0  0  0  0  0  0  0  0  0
    2.6331    0.0004    1.5397 N   0  0  0  0  0  0  0  0  0  0  0  0
    1.9313    0.9963    0.8107 C   0  0  0  0  0  0  0  0  0  0  0  0
    1.7975    2.1681    1.1407 O   0  0  0  0  0  0  0  0  0  0  0  0
   -0.2199    2.5394   -0.5030 H   0  0  0  0  0  0  0  0  0  0  0  0
   -0.5867    1.8851   -2.2112 H   0  0  0  0  0  0  0  0  0  0  0  0
   -1.7375    2.8966   -1.3382 H   0  0  0  0  0  0  0  0  0  0  0  0
   -4.2317   -0.7091    0.4100 H   0  0  0  0  0  0  0  0  0  0  0  0
   -2.1117   -3.1769    0.3277 H   0  0  0  0  0  0  0  0  0  0  0  0
   -1.5467   -2.4108    1.8320 H   0  0  0  0  0  0  0  0  0  0  0  0
    0.5528   -1.5499    0.2229 H   0  0  0  0  0  0  0  0  0  0  0  0
    1.3139    0.8928   -1.2820 H   0  0  0  0  0  0  0  0  0  0  0  0
    3.4937   -0.1153   -0.9887 H   0  0  0  0  0  0  0  0  0  0  0  0
    2.3292   -1.5189   -1.1716 H   0  0  0  0  0  0  0  0  0  0  0  0
    2.9812    0.0170    2.5227 H   0  0  0  0  0  0  0  0  0  0  0  0
  1  2  1  0
  2  3  1  0
  3  4  2  0
  4  5  1  0
  5  6  1  0
  5  7  2  0
  7  8  1  0
  8  9  1  0
  9 10  1  0
 10 11  1  0
 11 12  1  0
 12 13  1  0
 13 14  2  0
  7  2  1  0
 13  9  1  0
  1 15  1  0
  1 16  1  0
  1 17  1  0
  4 18  1  0
  6 19  1  0
  6 20  1  0
  8 21  1  0
  9 22  1  6
 10 23  1  0
 10 24  1  0
 12 25  1  0
M  END
$$$$

     RDKit          3D

 25 26  0  0  0  0  0  0  0  0999 V2000
   -2.2256   -2.3300   -0.2938 C   0  0  0  0  0  0  0  0  0  0  0  0
   -2.1659   -0.9370    0.1350 N   0  0  0  0  0  0  0  0  0  0  0  0
   -3.1575   -0.2654    0.6815 N   0  0  0  0  0  0  0  0  0  0  0  0
   -2.7925    0.9824    0.9615 C   0  0  0  0  0  0  0  0  0  0  0  0
   -1.4584    1.0767    0.5471 C   0  0  0  0  0  0  0  0  0  0  0  0
   -0.7164    2.2600    0.6605 N   0  0  0  0  0  0  0  0  0  0  0  0
   -1.0643   -0.1432    0.0238 C   0  0  0  0  0  0  0  0  0  0  0  0
    0.1750   -0.5227   -0.5363 N   0  0  0  0  0  0  0  0  0  0  0  0
    1.2869    0.3751   -0.5292 C   0  0  2  0  0  0  0  0  0  0  0  0
    2.4366   -0.1174   -1.3839 C   0  0  0  0  0  0  0  0  0  0  0  0
    3.3510   -0.7501   -0.5570 O   0  0  0  0  0  0  0  0  0  0  0  0
    3.3409    0.0806    0.5374 N   0  0  0  0  0  0  0  0  0  0  0  0
    1.9558    0.3376    0.8268 C   0  0  0  0  0  0  0  0  0  0  0  0
    1.4932    0.4830    1.9673 O   0  0  0  0  0  0  0  0  0  0  0  0
   -2.8223   -2.8982    0.4626 H   0  0  0  0  0  0  0  0  0  0  0  0
   -1.2007   -2.7636   -0.3011 H   0  0  0  0  0  0  0  0  0  0  0  0
   -2.7299   -2.4423   -1.2771 H   0  0  0  0  0  0  0  0  0  0  0  0
   -3.3376    1.7923    1.4040 H   0  0  0  0  0  0  0  0  0  0  0  0
   -0.6192    2.9040   -0.1379 H   0  0  0  0  0  0  0  0  0  0  0  0
   -0.2619    2.5000    1.5612 H   0  0  0  0  0  0  0  0  0  0  0  0
    0.2456   -1.4815   -0.9543 H   0  0  0  0  0  0  0  0  0  0  0  0
    1.0626    1.4023   -0.8332 H   0  0  0  0  0  0  0  0  0  0  0  0
    2.9611    0.7565   -1.8217 H   0  0  0  0  0  0  0  0  0  0  0  0
    2.0916   -0.7621   -2.2144 H   0  0  0  0  0  0  0  0  0  0  0  0
    4.1520    0.4628    1.0711 H   0  0  0  0  0  0  0  0  0  0  0  0
  1  2  1  0
  2  3  1  0
  3  4  2  0
  4  5  1  0
  5  6  1  0
  5  7  2  0
  7  8  1  0
  8  9  1  0
  9 10  1  0
 10 11  1  0
 11 12  1  0
 12 13  1  0
 13 14  2  0
  7  2  1  0
 13  9  1  0
  1 15  1  0
  1 16  1  0
  1 17  1  0
  4 18  1  0
  6 19  1  0
  6 20  1  0
  8 21  1  0
  9 22  1  6
 10 23  1  0
 10 24  1  0
 12 25  1  0
M  END
$$$$

     RDKit          3D

 25 26  0  0  0  0  0  0  0  0999 V2000
   -1.1462    2.2938   -0.2455 C   0  0  0  0  0  0  0  0  0  0  0  0
   -1.6427    0.9457   -0.1807 N   0  0  0  0  0  0  0  0  0  0  0  0
   -2.9484    0.6950   -0.0726 N   0  0  0  0  0  0  0  0  0  0  0  0
   -3.1752   -0.6206   -0.0546 C   0  0  0  0  0  0  0  0  0  0  0  0
   -1.9498   -1.2268   -0.1561 C   0  0  0  0  0  0  0  0  0  0  0  0
   -1.6647   -2.6136   -0.1803 N   0  0  0  0  0  0  0  0  0  0  0  0
   -0.9730   -0.2121   -0.2359 C   0  0  0  0  0  0  0  0  0  0  0  0
    0.4082   -0.4521   -0.3265 N   0  0  0  0  0  0  0  0  0  0  0  0
    1.4015    0.5652   -0.2875 C   0  0  2  0  0  0  0  0  0  0  0  0
    2.7750   -0.0728   -0.6915 C   0  0  0  0  0  0  0  0  0  0  0  0
    2.8290   -1.0790    0.2740 O   0  0  0  0  0  0  0  0  0  0  0  0
    2.3981   -0.5322    1.4460 N   0  0  0  0  0  0  0  0  0  0  0  0
    1.7636    0.7361    1.1683 C   0  0  0  0  0  0  0  0  0  0  0  0
    1.6116    1.6424    1.9718 O   0  0  0  0  0  0  0  0  0  0  0  0
   -0.7848    2.5207   -1.2912 H   0  0  0  0  0  0  0  0  0  0  0  0
   -2.0056    3.0188   -0.1133 H   0  0  0  0  0  0  0  0  0  0  0  0
   -0.3885    2.5417    0.4870 H   0  0  0  0  0  0  0  0  0  0  0  0
   -4.1240   -1.1338    0.0236 H   0  0  0  0  0  0  0  0  0  0  0  0
   -1.2242   -3.0840    0.6222 H   0  0  0  0  0  0  0  0  0  0  0  0
   -1.9041   -3.1721   -1.0250 H   0  0  0  0  0  0  0  0  0  0  0  0
    0.7033   -1.4634   -0.4318 H   0  0  0  0  0  0  0  0  0  0  0  0
    1.2464    1.4747   -0.8273 H   0  0  0  0  0  0  0  0  0  0  0  0
    3.5267    0.7230   -0.5335 H   0  0  0  0  0  0  0  0  0  0  0  0
    2.7259   -0.4814   -1.6933 H   0  0  0  0  0  0  0  0  0  0  0  0
    2.5417   -1.0132    2.3537 H   0  0  0  0  0  0  0  0  0  0  0  0
  1  2  1  0
  2  3  1  0
  3  4  2  0
  4  5  1  0
  5  6  1  0
  5  7  2  0
  7  8  1  0
  8  9  1  0
  9 10  1  0
 10 11  1  0
 11 12  1  0
 12 13  1  0
 13 14  2  0
  7  2  1  0
 13  9  1  0
  1 15  1  0
  1 16  1  0
  1 17  1  0
  4 18  1  0
  6 19  1  0
  6 20  1  0
  8 21  1  0
  9 22  1  6
 10 23  1  0
 10 24  1  0
 12 25  1  0
M  END
$$$$

     RDKit          3D

 25 26  0  0  0  0  0  0  0  0999 V2000
    1.6109   -2.6445   -1.0911 C   0  0  0  0  0  0  0  0  0  0  0  0
    1.8781   -1.2351   -0.8147 N   0  0  0  0  0  0  0  0  0  0  0  0
    3.0079   -0.6169   -1.0928 N   0  0  0  0  0  0  0  0  0  0  0  0
    2.9448    0.6619   -0.7213 C   0  0  0  0  0  0  0  0  0  0  0  0
    1.6749    0.8593   -0.1667 C   0  0  0  0  0  0  0  0  0  0  0  0
    1.1673    2.0734    0.3731 N   0  0  0  0  0  0  0  0  0  0  0  0
    1.0154   -0.3418   -0.2325 C   0  0  0  0  0  0  0  0  0  0  0  0
   -0.2917   -0.6874    0.2023 N   0  0  0  0  0  0  0  0  0  0  0  0
   -1.1643    0.2845    0.7647 C   0  0  2  0  0  0  0  0  0  0  0  0
   -2.4662   -0.3728    1.2825 C   0  0  0  0  0  0  0  0  0  0  0  0
   -3.2532    0.7779    1.4462 O   0  0  0  0  0  0  0  0  0  0  0  0
   -3.0525    1.4932    0.3040 N   0  0  0  0  0  0  0  0  0  0  0  0
   -1.7979    1.1596   -0.2634 C   0  0  0  0  0  0  0  0  0  0  0  0
   -1.3761    1.5345   -1.3621 O   0  0  0  0  0  0  0  0  0  0  0  0
    1.4983   -2.8200   -2.1799 H   0  0  0  0  0  0  0  0  0  0  0  0
    2.5294   -3.1921   -0.7278 H   0  0  0  0  0  0  0  0  0  0  0  0
    0.7823   -3.0075   -0.4838 H   0  0  0  0  0  0  0  0  0  0  0  0
    3.6597    1.4632   -0.7862 H   0  0  0  0  0  0  0  0  0  0  0  0
    1.2373    2.2447    1.4162 H   0  0  0  0  0  0  0  0  0  0  0  0
    0.7318    2.8123   -0.1811 H   0  0  0  0  0  0  0  0  0  0  0  0
   -0.6376   -1.6709    0.1155 H   0  0  0  0  0  0  0  0  0  0  0  0
   -0.7458    0.9217    1.5393 H   0  0  0  0  0  0  0  0  0  0  0  0
   -2.8901   -0.9806    0.4787 H   0  0  0  0  0  0  0  0  0  0  0  0
   -2.2924   -0.8901    2.2217 H   0  0  0  0  0  0  0  0  0  0  0  0
   -3.7703    2.1735   -0.0408 H   0  0  0  0  0  0  0  0  0  0  0  0
  1  2  1  0
  2  3  1  0
  3  4  2  0
  4  5  1  0
  5  6  1  0
  5  7  2  0
  7  8  1  0
  8  9  1  0
  9 10  1  0
 10 11  1  0
 11 12  1  0
 12 13  1  0
 13 14  2  0
  7  2  1  0
 13  9  1  0
  1 15  1  0
  1 16  1  0
  1 17  1  0
  4 18  1  0
  6 19  1  0
  6 20  1  0
  8 21  1  0
  9 22  1  1
 10 23  1  0
 10 24  1  0
 12 25  1  0
M  END
$$$$

     RDKit          3D

 25 26  0  0  0  0  0  0  0  0999 V2000
   -2.0665   -1.3620    1.8297 C   0  0  0  0  0  0  0  0  0  0  0  0
   -2.1076   -0.3751    0.7561 N   0  0  0  0  0  0  0  0  0  0  0  0
   -3.1636    0.2970    0.4035 N   0  0  0  0  0  0  0  0  0  0  0  0
   -2.8713    1.1082   -0.5988 C   0  0  0  0  0  0  0  0  0  0  0  0
   -1.5208    0.9094   -0.8768 C   0  0  0  0  0  0  0  0  0  0  0  0
   -0.7788    1.5642   -1.8856 N   0  0  0  0  0  0  0  0  0  0  0  0
   -1.0279   -0.0420   -0.0084 C   0  0  0  0  0  0  0  0  0  0  0  0
    0.2729   -0.5979    0.1071 N   0  0  0  0  0  0  0  0  0  0  0  0
    1.4137   -0.2058   -0.6850 C   0  0  2  0  0  0  0  0  0  0  0  0
    2.5697   -1.1758   -0.3328 C   0  0  0  0  0  0  0  0  0  0  0  0
    2.9089   -0.7588    0.9482 O   0  0  0  0  0  0  0  0  0  0  0  0
    2.8010    0.6001    0.9600 N   0  0  0  0  0  0  0  0  0  0  0  0
    2.0425    1.0346   -0.1564 C   0  0  0  0  0  0  0  0  0  0  0  0
    1.9565    2.2027   -0.5612 O   0  0  0  0  0  0  0  0  0  0  0  0
   -3.0514   -1.9149    1.8147 H   0  0  0  0  0  0  0  0  0  0  0  0
   -1.3062   -2.1554    1.6254 H   0  0  0  0  0  0  0  0  0  0  0  0
   -1.8716   -0.9196    2.8067 H   0  0  0  0  0  0  0  0  0  0  0  0
   -3.5577    1.7756   -1.0822 H   0  0  0  0  0  0  0  0  0  0  0  0
   -0.5086    1.0828   -2.7661 H   0  0  0  0  0  0  0  0  0  0  0  0
   -0.4947    2.5647   -1.7399 H   0  0  0  0  0  0  0  0  0  0  0  0
    0.3993   -1.3601    0.8381 H   0  0  0  0  0  0  0  0  0  0  0  0
    1.2469   -0.1985   -1.7630 H   0  0  0  0  0  0  0  0  0  0  0  0
    3.3820   -1.0901   -1.0615 H   0  0  0  0  0  0  0  0  0  0  0  0
    2.1031   -2.1649   -0.2726 H   0  0  0  0  0  0  0  0  0  0  0  0
    3.2303    1.1816    1.7006 H   0  0  0  0  0  0  0  0  0  0  0  0
  1  2  1  0
  2  3  1  0
  3  4  2  0
  4  5  1  0
  5  6  1  0
  5  7  2  0
  7  8  1  0
  8  9  1  0
  9 10  1  0
 10 11  1  0
 11 12  1  0
 12 13  1  0
 13 14  2  0
  7  2  1  0
 13  9  1  0
  1 15  1  0
  1 16  1  0
  1 17  1  0
  4 18  1  0
  6 19  1  0
  6 20  1  0
  8 21  1  0
  9 22  1  6
 10 23  1  0
 10 24  1  0
 12 25  1  0
M  END
$$$$
