
     RDKit          3D

 30 30  0  0  0  0  0  0  0  0999 V2000
    4.6685   -0.4824    0.2320 C   0  0  0  0  0  0  0  0  0  0  0  0
    3.6106   -0.6495    1.0479 O   0  0  0  0  0  0  0  0  0  0  0  0
    2.3425   -0.6710    0.5572 C   0  0  0  0  0  0  0  0  0  0  0  0
    1.9614    0.5850   -0.1215 C   0  0  1  0  0  0  0  0  0  0  0  0
    2.7624    0.8130   -1.2266 O   0  0  0  0  0  0  0  0  0  0  0  0
    0.5346    0.6105   -0.6109 C   0  0  0  0  0  0  0  0  0  0  0  0
   -0.3970    0.3978    0.3711 O   0  0  0  0  0  0  0  0  0  0  0  0
   -1.6553    0.4517   -0.2385 C   0  0  2  0  0  0  0  0  0  0  0  0
   -2.5222    1.4660    0.4721 C   0  0  0  0  0  0  0  0  0  0  0  0
   -3.2510    0.8155    1.4258 O   0  0  0  0  0  0  0  0  0  0  0  0
   -3.1913   -0.5331    1.2323 C   0  0  0  0  0  0  0  0  0  0  0  0
   -2.4382   -0.8177   -0.0306 C   0  0  1  0  0  0  0  0  0  0  0  0
   -3.4229   -0.8960   -1.1124 N   0  0  0  0  0  0  0  0  0  0  0  0
    4.7516    0.4584   -0.3392 H   0  0  0  0  0  0  0  0  0  0  0  0
    5.6274   -0.5050    0.8418 H   0  0  0  0  0  0  0  0  0  0  0  0
    4.7273   -1.3742   -0.4415 H   0  0  0  0  0  0  0  0  0  0  0  0
    2.2298   -1.5741   -0.1116 H   0  0  0  0  0  0  0  0  0  0  0  0
    1.6706   -0.8700    1.4581 H   0  0  0  0  0  0  0  0  0  0  0  0
    2.1572    1.4279    0.5776 H   0  0  0  0  0  0  0  0  0  0  0  0
    2.4119    0.2262   -1.9625 H   0  0  0  0  0  0  0  0  0  0  0  0
    0.3621    1.6500   -1.0148 H   0  0  0  0  0  0  0  0  0  0  0  0
    0.3639   -0.0765   -1.4532 H   0  0  0  0  0  0  0  0  0  0  0  0
   -1.6041    0.6440   -1.3165 H   0  0  0  0  0  0  0  0  0  0  0  0
   -1.8458    2.2442    0.8842 H   0  0  0  0  0  0  0  0  0  0  0  0
   -3.2193    1.9052   -0.2765 H   0  0  0  0  0  0  0  0  0  0  0  0
   -2.6208   -0.9842    2.0859 H   0  0  0  0  0  0  0  0  0  0  0  0
   -4.2181   -0.9398    1.1693 H   0  0  0  0  0  0  0  0  0  0  0  0
   -1.8326   -1.7244   -0.0137 H   0  0  0  0  0  0  0  0  0  0  0  0
   -4.1197   -1.6361   -0.9471 H   0  0  0  0  0  0  0  0  0  0  0  0
   -3.8434    0.0385   -1.3091 H   0  0  0  0  0  0  0  0  0  0  0  0
  1  2  1  0
  2  3  1  0
  3  4  1  0
  4  5  1  0
  4  6  1  0
  6  7  1  0
  7  8  1  0
  8  9  1  0
  9 10  1  0
 10 11  1  0
 11 12  1  0
 12 13  1  0
 12  8  1  0
  1 14  1  0
  1 15  1  0
  1 16  1  0
  3 17  1  0
  3 18  1  0
  4 19  1  1
  5 20  1  0
  6 21  1  0
  6 22  1  0
  8 23  1  6
  9 24  1  0
  9 25  1  0
 11 26  1  0
 11 27  1  0
 12 28  1  1
 13 29  1  0
 13 30  1  0
M  END
$$$$

     RDKit          3D

 30 30  0  0  0  0  0  0  0  0999 V2000
    3.9925    0.2501    0.4817 C   0  0  0  0  0  0  0  0  0  0  0  0
    2.8133    0.6296    1.0608 O   0  0  0  0  0  0  0  0  0  0  0  0
    1.8685   -0.3560    1.1489 C   0  0  0  0  0  0  0  0  0  0  0  0
    1.4297   -0.9066   -0.2054 C   0  0  1  0  0  0  0  0  0  0  0  0
    0.4944   -1.8918   -0.0527 O   0  0  0  0  0  0  0  0  0  0  0  0
    0.9991    0.1804   -1.1381 C   0  0  0  0  0  0  0  0  0  0  0  0
   -0.1195    0.8720   -0.8371 O   0  0  0  0  0  0  0  0  0  0  0  0
   -1.3051    0.2131   -0.8190 C   0  0  2  0  0  0  0  0  0  0  0  0
   -2.3645    0.8839   -1.6870 C   0  0  0  0  0  0  0  0  0  0  0  0
   -3.4902    1.0700   -0.8901 O   0  0  0  0  0  0  0  0  0  0  0  0
   -2.9398    1.4061    0.3706 C   0  0  0  0  0  0  0  0  0  0  0  0
   -1.9891    0.2269    0.5322 C   0  0  1  0  0  0  0  0  0  0  0  0
   -2.8403   -0.9596    0.6204 N   0  0  0  0  0  0  0  0  0  0  0  0
    3.8917   -0.1036   -0.5433 H   0  0  0  0  0  0  0  0  0  0  0  0
    4.7129    1.1099    0.4441 H   0  0  0  0  0  0  0  0  0  0  0  0
    4.4794   -0.5282    1.1375 H   0  0  0  0  0  0  0  0  0  0  0  0
    1.0010   -0.0136    1.7254 H   0  0  0  0  0  0  0  0  0  0  0  0
    2.3494   -1.2032    1.7199 H   0  0  0  0  0  0  0  0  0  0  0  0
    2.3640   -1.4108   -0.6058 H   0  0  0  0  0  0  0  0  0  0  0  0
    0.6064   -2.4144    0.7728 H   0  0  0  0  0  0  0  0  0  0  0  0
    1.8543    0.8988   -1.2400 H   0  0  0  0  0  0  0  0  0  0  0  0
    0.9013   -0.3313   -2.1522 H   0  0  0  0  0  0  0  0  0  0  0  0
   -1.1751   -0.8404   -1.0887 H   0  0  0  0  0  0  0  0  0  0  0  0
   -2.0527    1.8601   -2.0611 H   0  0  0  0  0  0  0  0  0  0  0  0
   -2.6248    0.1754   -2.5054 H   0  0  0  0  0  0  0  0  0  0  0  0
   -2.3335    2.3431    0.2987 H   0  0  0  0  0  0  0  0  0  0  0  0
   -3.7146    1.4381    1.1335 H   0  0  0  0  0  0  0  0  0  0  0  0
   -1.3284    0.3337    1.3853 H   0  0  0  0  0  0  0  0  0  0  0  0
   -3.1738   -1.1365   -0.3748 H   0  0  0  0  0  0  0  0  0  0  0  0
   -2.3066   -1.7952    0.9620 H   0  0  0  0  0  0  0  0  0  0  0  0
  1  2  1  0
  2  3  1  0
  3  4  1  0
  4  5  1  0
  4  6  1  0
  6  7  1  0
  7  8  1  0
  8  9  1  0
  9 10  1  0
 10 11  1  0
 11 12  1  0
 12 13  1  0
 12  8  1  0
  1 14  1  0
  1 15  1  0
  1 16  1  0
  3 17  1  0
  3 18  1  0
  4 19  1  6
  5 20  1  0
  6 21  1  0
  6 22  1  0
  8 23  1  6
  9 24  1  0
  9 25  1  0
 11 26  1  0
 11 27  1  0
 12 28  1  1
 13 29  1  0
 13 30  1  0
M  END
$$$$

     RDKit          3D

 30 30  0  0  0  0  0  0  0  0999 V2000
    3.0698    0.5909   -1.2308 C   0  0  0  0  0  0  0  0  0  0  0  0
    3.4052    0.2352    0.0620 O   0  0  0  0  0  0  0  0  0  0  0  0
    2.8818   -0.9550    0.5018 C   0  0  0  0  0  0  0  0  0  0  0  0
    1.3826   -0.9111    0.4762 C   0  0  1  0  0  0  0  0  0  0  0  0
    0.8418   -2.1170    0.9494 O   0  0  0  0  0  0  0  0  0  0  0  0
    0.9000    0.2709    1.2878 C   0  0  0  0  0  0  0  0  0  0  0  0
   -0.4365    0.4127    1.2582 O   0  0  0  0  0  0  0  0  0  0  0  0
   -1.0704    0.6081    0.0898 C   0  0  2  0  0  0  0  0  0  0  0  0
   -2.0198    1.7720    0.0239 C   0  0  0  0  0  0  0  0  0  0  0  0
   -3.1095    1.4188    0.7761 O   0  0  0  0  0  0  0  0  0  0  0  0
   -3.1771    0.0496    0.8615 C   0  0  0  0  0  0  0  0  0  0  0  0
   -2.0942   -0.5070   -0.0656 C   0  0  1  0  0  0  0  0  0  0  0  0
   -2.6461   -0.4972   -1.4061 N   0  0  0  0  0  0  0  0  0  0  0  0
    3.4061   -0.1959   -1.9500 H   0  0  0  0  0  0  0  0  0  0  0  0
    2.0010    0.7349   -1.3334 H   0  0  0  0  0  0  0  0  0  0  0  0
    3.6369    1.5121   -1.5438 H   0  0  0  0  0  0  0  0  0  0  0  0
    3.2575   -1.1607    1.5365 H   0  0  0  0  0  0  0  0  0  0  0  0
    3.2560   -1.7815   -0.1676 H   0  0  0  0  0  0  0  0  0  0  0  0
    1.0350   -0.8166   -0.5835 H   0  0  0  0  0  0  0  0  0  0  0  0
    1.4034   -2.8588    0.6653 H   0  0  0  0  0  0  0  0  0  0  0  0
    1.2049    0.0525    2.3495 H   0  0  0  0  0  0  0  0  0  0  0  0
    1.5032    1.1376    0.9820 H   0  0  0  0  0  0  0  0  0  0  0  0
   -0.3906    0.6318   -0.7852 H   0  0  0  0  0  0  0  0  0  0  0  0
   -2.3656    1.8304   -1.0455 H   0  0  0  0  0  0  0  0  0  0  0  0
   -1.5726    2.7371    0.2539 H   0  0  0  0  0  0  0  0  0  0  0  0
   -2.8660   -0.2221    1.9129 H   0  0  0  0  0  0  0  0  0  0  0  0
   -4.1648   -0.3789    0.6361 H   0  0  0  0  0  0  0  0  0  0  0  0
   -1.7375   -1.4811    0.2516 H   0  0  0  0  0  0  0  0  0  0  0  0
   -3.5749   -0.0148   -1.4549 H   0  0  0  0  0  0  0  0  0  0  0  0
   -1.9594   -0.0969   -2.0880 H   0  0  0  0  0  0  0  0  0  0  0  0
  1  2  1  0
  2  3  1  0
  3  4  1  0
  4  5  1  0
  4  6  1  0
  6  7  1  0
  7  8  1  0
  8  9  1  0
  9 10  1  0
 10 11  1  0
 11 12  1  0
 12 13  1  0
 12  8  1  0
  1 14  1  0
  1 15  1  0
  1 16  1  0
  3 17  1  0
  3 18  1  0
  4 19  1  6
  5 20  1  0
  6 21  1  0
  6 22  1  0
  8 23  1  6
  9 24  1  0
  9 25  1  0
 11 26  1  0
 11 27  1  0
 12 28  1  1
 13 29  1  0
 13 30  1  0
M  END
$$$$

     RDKit          3D

 30 30  0  0  0  0  0  0  0  0999 V2000
    4.4640    1.1215    0.5772 C   0  0  0  0  0  0  0  0  0  0  0  0
    3.1937    0.8860    0.0820 O   0  0  0  0  0  0  0  0  0  0  0  0
    3.0430   -0.4674   -0.1880 C   0  0  0  0  0  0  0  0  0  0  0  0
    1.6664   -0.7670   -0.7316 C   0  0  1  0  0  0  0  0  0  0  0  0
    1.5614   -2.1275   -0.9863 O   0  0  0  0  0  0  0  0  0  0  0  0
    0.5790   -0.3160    0.2089 C   0  0  0  0  0  0  0  0  0  0  0  0
   -0.6472   -0.5950   -0.4107 O   0  0  0  0  0  0  0  0  0  0  0  0
   -1.6849   -0.1939    0.4243 C   0  0  2  0  0  0  0  0  0  0  0  0
   -2.6182   -1.3415    0.6438 C   0  0  0  0  0  0  0  0  0  0  0  0
   -3.6380   -1.1813   -0.2815 O   0  0  0  0  0  0  0  0  0  0  0  0
   -3.8854    0.1921   -0.3371 C   0  0  0  0  0  0  0  0  0  0  0  0
   -2.5271    0.8516   -0.2750 C   0  0  1  0  0  0  0  0  0  0  0  0
   -2.6085    2.0566    0.5313 N   0  0  0  0  0  0  0  0  0  0  0  0
    4.5895    2.2105    0.7959 H   0  0  0  0  0  0  0  0  0  0  0  0
    4.5937    0.5906    1.5502 H   0  0  0  0  0  0  0  0  0  0  0  0
    5.2399    0.8546   -0.1653 H   0  0  0  0  0  0  0  0  0  0  0  0
    3.2772   -1.0657    0.7183 H   0  0  0  0  0  0  0  0  0  0  0  0
    3.7727   -0.7195   -0.9938 H   0  0  0  0  0  0  0  0  0  0  0  0
    1.5726   -0.2107   -1.6878 H   0  0  0  0  0  0  0  0  0  0  0  0
    2.0542   -2.6147   -0.2724 H   0  0  0  0  0  0  0  0  0  0  0  0
    0.6760    0.7716    0.3929 H   0  0  0  0  0  0  0  0  0  0  0  0
    0.6713   -0.8433    1.1831 H   0  0  0  0  0  0  0  0  0  0  0  0
   -1.2770    0.2410    1.3603 H   0  0  0  0  0  0  0  0  0  0  0  0
   -2.1485   -2.3380    0.4923 H   0  0  0  0  0  0  0  0  0  0  0  0
   -3.0006   -1.2688    1.6843 H   0  0  0  0  0  0  0  0  0  0  0  0
   -4.4669    0.5234    0.5344 H   0  0  0  0  0  0  0  0  0  0  0  0
   -4.3961    0.4758   -1.2804 H   0  0  0  0  0  0  0  0  0  0  0  0
   -2.1779    1.0672   -1.3024 H   0  0  0  0  0  0  0  0  0  0  0  0
   -2.2714    1.8165    1.5031 H   0  0  0  0  0  0  0  0  0  0  0  0
   -3.6070    2.3912    0.5784 H   0  0  0  0  0  0  0  0  0  0  0  0
  1  2  1  0
  2  3  1  0
  3  4  1  0
  4  5  1  0
  4  6  1  0
  6  7  1  0
  7  8  1  0
  8  9  1  0
  9 10  1  0
 10 11  1  0
 11 12  1  0
 12 13  1  0
 12  8  1  0
  1 14  1  0
  1 15  1  0
  1 16  1  0
  3 17  1  0
  3 18  1  0
  4 19  1  6
  5 20  1  0
  6 21  1  0
  6 22  1  0
  8 23  1  1
  9 24  1  0
  9 25  1  0
 11 26  1  0
 11 27  1  0
 12 28  1  6
 13 29  1  0
 13 30  1  0
M  END
$$$$

     RDKit          3D

 30 30  0  0  0  0  0  0  0  0999 V2000
   -3.3965   -1.6875   -0.4615 C   0  0  0  0  0  0  0  0  0  0  0  0
   -3.0312   -0.4861   -1.1089 O   0  0  0  0  0  0  0  0  0  0  0  0
   -1.8319   -0.0261   -0.4703 C   0  0  0  0  0  0  0  0  0  0  0  0
   -1.4098    1.2375   -1.1196 C   0  0  1  0  0  0  0  0  0  0  0  0
   -2.5466    2.1118   -0.9766 O   0  0  0  0  0  0  0  0  0  0  0  0
   -0.2699    1.9926   -0.5595 C   0  0  0  0  0  0  0  0  0  0  0  0
    0.9725    1.4518   -0.5392 O   0  0  0  0  0  0  0  0  0  0  0  0
    1.1130    0.3994    0.2908 C   0  0  2  0  0  0  0  0  0  0  0  0
    2.3128    0.6700    1.2276 C   0  0  0  0  0  0  0  0  0  0  0  0
    3.4294    0.1893    0.6046 O   0  0  0  0  0  0  0  0  0  0  0  0
    3.1150   -0.3547   -0.6094 C   0  0  0  0  0  0  0  0  0  0  0  0
    1.6900   -0.8418   -0.4024 C   0  0  1  0  0  0  0  0  0  0  0  0
    1.6741   -1.8911    0.5790 N   0  0  0  0  0  0  0  0  0  0  0  0
   -2.5992   -2.4406   -0.5577 H   0  0  0  0  0  0  0  0  0  0  0  0
   -4.3397   -2.0477   -0.8747 H   0  0  0  0  0  0  0  0  0  0  0  0
   -3.5616   -1.4672    0.6263 H   0  0  0  0  0  0  0  0  0  0  0  0
   -2.1112    0.0657    0.5881 H   0  0  0  0  0  0  0  0  0  0  0  0
   -1.1462   -0.8929   -0.6025 H   0  0  0  0  0  0  0  0  0  0  0  0
   -1.3205    1.1064   -2.2373 H   0  0  0  0  0  0  0  0  0  0  0  0
   -2.7012    2.2319   -0.0141 H   0  0  0  0  0  0  0  0  0  0  0  0
   -0.2087    3.0308   -1.0484 H   0  0  0  0  0  0  0  0  0  0  0  0
   -0.6063    2.3006    0.4974 H   0  0  0  0  0  0  0  0  0  0  0  0
    0.2431    0.1121    0.8716 H   0  0  0  0  0  0  0  0  0  0  0  0
    2.3941    1.7474    1.3896 H   0  0  0  0  0  0  0  0  0  0  0  0
    2.1168    0.0857    2.1488 H   0  0  0  0  0  0  0  0  0  0  0  0
    3.7517   -1.2232   -0.8619 H   0  0  0  0  0  0  0  0  0  0  0  0
    3.1170    0.3944   -1.4348 H   0  0  0  0  0  0  0  0  0  0  0  0
    1.1725   -1.0871   -1.3232 H   0  0  0  0  0  0  0  0  0  0  0  0
    2.4709   -1.8417    1.2405 H   0  0  0  0  0  0  0  0  0  0  0  0
    1.5075   -2.8398    0.1881 H   0  0  0  0  0  0  0  0  0  0  0  0
  1  2  1  0
  2  3  1  0
  3  4  1  0
  4  5  1  0
  4  6  1  0
  6  7  1  0
  7  8  1  0
  8  9  1  0
  9 10  1  0
 10 11  1  0
 11 12  1  0
 12 13  1  0
 12  8  1  0
  1 14  1  0
  1 15  1  0
  1 16  1  0
  3 17  1  0
  3 18  1  0
  4 19  1  6
  5 20  1  0
  6 21  1  0
  6 22  1  0
  8 23  1  1
  9 24  1  0
  9 25  1  0
 11 26  1  0
 11 27  1  0
 12 28  1  6
 13 29  1  0
 13 30  1  0
M  END
$$$$

     RDKit          3D

 30 30  0  0  0  0  0  0  0  0999 V2000
    4.1083    0.4666    0.5648 C   0  0  0  0  0  0  0  0  0  0  0  0
    3.8576   -0.7587    0.0293 O   0  0  0  0  0  0  0  0  0  0  0  0
    2.7064   -0.9146   -0.6535 C   0  0  0  0  0  0  0  0  0  0  0  0
    1.4168   -0.6877    0.0970 C   0  0  1  0  0  0  0  0  0  0  0  0
    1.2418    0.5726    0.5880 O   0  0  0  0  0  0  0  0  0  0  0  0
    0.2907   -1.2016   -0.7654 C   0  0  0  0  0  0  0  0  0  0  0  0
   -0.9292   -1.2867   -0.1498 O   0  0  0  0  0  0  0  0  0  0  0  0
   -1.4320   -0.0925    0.2294 C   0  0  2  0  0  0  0  0  0  0  0  0
   -1.7331   -0.0406    1.7421 C   0  0  0  0  0  0  0  0  0  0  0  0
   -2.6879    0.9235    1.9140 O   0  0  0  0  0  0  0  0  0  0  0  0
   -3.3059    1.1815    0.7193 C   0  0  0  0  0  0  0  0  0  0  0  0
   -2.8808    0.1124   -0.2660 C   0  0  1  0  0  0  0  0  0  0  0  0
   -2.8841    0.6021   -1.6265 N   0  0  0  0  0  0  0  0  0  0  0  0
    3.3434    0.7347    1.3090 H   0  0  0  0  0  0  0  0  0  0  0  0
    4.2009    1.2739   -0.2060 H   0  0  0  0  0  0  0  0  0  0  0  0
    5.0822    0.4994    1.1290 H   0  0  0  0  0  0  0  0  0  0  0  0
    2.6617   -2.0043   -0.9760 H   0  0  0  0  0  0  0  0  0  0  0  0
    2.6873   -0.3639   -1.6394 H   0  0  0  0  0  0  0  0  0  0  0  0
    1.5105   -1.3583    1.0176 H   0  0  0  0  0  0  0  0  0  0  0  0
    1.4724    1.2594   -0.0977 H   0  0  0  0  0  0  0  0  0  0  0  0
    0.2055   -0.4684   -1.6095 H   0  0  0  0  0  0  0  0  0  0  0  0
    0.5840   -2.1934   -1.2219 H   0  0  0  0  0  0  0  0  0  0  0  0
   -0.8830    0.8151   -0.0014 H   0  0  0  0  0  0  0  0  0  0  0  0
   -2.2174   -1.0333    1.9590 H   0  0  0  0  0  0  0  0  0  0  0  0
   -0.8278    0.0862    2.3322 H   0  0  0  0  0  0  0  0  0  0  0  0
   -4.4228    1.2477    0.7937 H   0  0  0  0  0  0  0  0  0  0  0  0
   -2.8892    2.1609    0.3408 H   0  0  0  0  0  0  0  0  0  0  0  0
   -3.4621   -0.8069   -0.1974 H   0  0  0  0  0  0  0  0  0  0  0  0
   -2.5251   -0.1826   -2.2234 H   0  0  0  0  0  0  0  0  0  0  0  0
   -2.2891    1.4576   -1.7206 H   0  0  0  0  0  0  0  0  0  0  0  0
  1  2  1  0
  2  3  1  0
  3  4  1  0
  4  5  1  0
  4  6  1  0
  6  7  1  0
  7  8  1  0
  8  9  1  0
  9 10  1  0
 10 11  1  0
 11 12  1  0
 12 13  1  0
 12  8  1  0
  1 14  1  0
  1 15  1  0
  1 16  1  0
  3 17  1  0
  3 18  1  0
  4 19  1  1
  5 20  1  0
  6 21  1  0
  6 22  1  0
  8 23  1  6
  9 24  1  0
  9 25  1  0
 11 26  1  0
 11 27  1  0
 12 28  1  6
 13 29  1  0
 13 30  1  0
M  END
$$$$

     RDKit          3D

 30 30  0  0  0  0  0  0  0  0999 V2000
    4.3768   -0.5544   -0.3800 C   0  0  0  0  0  0  0  0  0  0  0  0
    3.8465   -0.1073    0.7929 O   0  0  0  0  0  0  0  0  0  0  0  0
    2.5026    0.0765    0.8572 C   0  0  0  0  0  0  0  0  0  0  0  0
    1.9287    1.0692   -0.0902 C   0  0  1  0  0  0  0  0  0  0  0  0
    2.0827    0.7965   -1.4193 O   0  0  0  0  0  0  0  0  0  0  0  0
    0.4418    1.2520    0.2367 C   0  0  0  0  0  0  0  0  0  0  0  0
   -0.2011    0.0794   -0.0854 O   0  0  0  0  0  0  0  0  0  0  0  0
   -1.5500    0.1011    0.1576 C   0  0  2  0  0  0  0  0  0  0  0  0
   -2.0097   -1.0322    1.0685 C   0  0  0  0  0  0  0  0  0  0  0  0
   -3.3932   -1.0369    0.7725 O   0  0  0  0  0  0  0  0  0  0  0  0
   -3.3407   -1.2632   -0.6030 C   0  0  0  0  0  0  0  0  0  0  0  0
   -2.3757   -0.2082   -1.0969 C   0  0  1  0  0  0  0  0  0  0  0  0
   -3.0865    0.9392   -1.5741 N   0  0  0  0  0  0  0  0  0  0  0  0
    4.2090    0.1335   -1.2110 H   0  0  0  0  0  0  0  0  0  0  0  0
    3.9741   -1.5745   -0.5844 H   0  0  0  0  0  0  0  0  0  0  0  0
    5.4800   -0.6814   -0.2872 H   0  0  0  0  0  0  0  0  0  0  0  0
    2.2791    0.4365    1.9123 H   0  0  0  0  0  0  0  0  0  0  0  0
    1.9481   -0.9046    0.8145 H   0  0  0  0  0  0  0  0  0  0  0  0
    2.3769    2.0827    0.1232 H   0  0  0  0  0  0  0  0  0  0  0  0
    1.3454    0.3082   -1.8310 H   0  0  0  0  0  0  0  0  0  0  0  0
    0.1057    2.1328   -0.3357 H   0  0  0  0  0  0  0  0  0  0  0  0
    0.4065    1.4239    1.3433 H   0  0  0  0  0  0  0  0  0  0  0  0
   -1.8755    1.0689    0.5725 H   0  0  0  0  0  0  0  0  0  0  0  0
   -1.8062   -0.8483    2.1201 H   0  0  0  0  0  0  0  0  0  0  0  0
   -1.6139   -1.9709    0.6606 H   0  0  0  0  0  0  0  0  0  0  0  0
   -4.3332   -1.1800   -1.0809 H   0  0  0  0  0  0  0  0  0  0  0  0
   -2.8652   -2.2473   -0.7505 H   0  0  0  0  0  0  0  0  0  0  0  0
   -1.6510   -0.6278   -1.8289 H   0  0  0  0  0  0  0  0  0  0  0  0
   -3.2279    1.6606   -0.8387 H   0  0  0  0  0  0  0  0  0  0  0  0
   -3.9744    0.6760   -2.0403 H   0  0  0  0  0  0  0  0  0  0  0  0
  1  2  1  0
  2  3  1  0
  3  4  1  0
  4  5  1  0
  4  6  1  0
  6  7  1  0
  7  8  1  0
  8  9  1  0
  9 10  1  0
 10 11  1  0
 11 12  1  0
 12 13  1  0
 12  8  1  0
  1 14  1  0
  1 15  1  0
  1 16  1  0
  3 17  1  0
  3 18  1  0
  4 19  1  6
  5 20  1  0
  6 21  1  0
  6 22  1  0
  8 23  1  1
  9 24  1  0
  9 25  1  0
 11 26  1  0
 11 27  1  0
 12 28  1  6
 13 29  1  0
 13 30  1  0
M  END
$$$$

     RDKit          3D

 30 30  0  0  0  0  0  0  0  0999 V2000
    4.5637    0.6728    0.7414 C   0  0  0  0  0  0  0  0  0  0  0  0
    3.2303    0.9503    0.4739 O   0  0  0  0  0  0  0  0  0  0  0  0
    2.8117    0.0802   -0.5337 C   0  0  0  0  0  0  0  0  0  0  0  0
    1.3444    0.4060   -0.8084 C   0  0  1  0  0  0  0  0  0  0  0  0
    0.8274   -0.3915   -1.7854 O   0  0  0  0  0  0  0  0  0  0  0  0
    0.6349    0.3660    0.5000 C   0  0  0  0  0  0  0  0  0  0  0  0
   -0.6807    0.7489    0.5028 O   0  0  0  0  0  0  0  0  0  0  0  0
   -1.5329   -0.0092   -0.2381 C   0  0  2  0  0  0  0  0  0  0  0  0
   -2.1442    0.8911   -1.3180 C   0  0  0  0  0  0  0  0  0  0  0  0
   -3.2160    0.0888   -1.7306 O   0  0  0  0  0  0  0  0  0  0  0  0
   -3.8520   -0.3250   -0.5672 C   0  0  0  0  0  0  0  0  0  0  0  0
   -2.7942   -0.3988    0.5120 C   0  0  1  0  0  0  0  0  0  0  0  0
   -2.7481   -1.7536    0.9886 N   0  0  0  0  0  0  0  0  0  0  0  0
    4.9051    1.3626    1.5441 H   0  0  0  0  0  0  0  0  0  0  0  0
    5.1424    0.8979   -0.1842 H   0  0  0  0  0  0  0  0  0  0  0  0
    4.6813   -0.3897    1.0422 H   0  0  0  0  0  0  0  0  0  0  0  0
    3.4202    0.1941   -1.4543 H   0  0  0  0  0  0  0  0  0  0  0  0
    2.8428   -0.9538   -0.1808 H   0  0  0  0  0  0  0  0  0  0  0  0
    1.3240    1.4637   -1.2108 H   0  0  0  0  0  0  0  0  0  0  0  0
    1.2561   -1.2888   -1.8341 H   0  0  0  0  0  0  0  0  0  0  0  0
    0.7629   -0.6583    0.9424 H   0  0  0  0  0  0  0  0  0  0  0  0
    1.1474    1.0301    1.2600 H   0  0  0  0  0  0  0  0  0  0  0  0
   -1.1220   -0.8678   -0.7573 H   0  0  0  0  0  0  0  0  0  0  0  0
   -1.4767    1.0548   -2.1629 H   0  0  0  0  0  0  0  0  0  0  0  0
   -2.5803    1.8028   -0.8914 H   0  0  0  0  0  0  0  0  0  0  0  0
   -4.6732    0.3736   -0.2745 H   0  0  0  0  0  0  0  0  0  0  0  0
   -4.3451   -1.3025   -0.7455 H   0  0  0  0  0  0  0  0  0  0  0  0
   -2.9827    0.2725    1.3568 H   0  0  0  0  0  0  0  0  0  0  0  0
   -2.4708   -2.4457    0.2699 H   0  0  0  0  0  0  0  0  0  0  0  0
   -2.2757   -1.8712    1.9026 H   0  0  0  0  0  0  0  0  0  0  0  0
  1  2  1  0
  2  3  1  0
  3  4  1  0
  4  5  1  0
  4  6  1  0
  6  7  1  0
  7  8  1  0
  8  9  1  0
  9 10  1  0
 10 11  1  0
 11 12  1  0
 12 13  1  0
 12  8  1  0
  1 14  1  0
  1 15  1  0
  1 16  1  0
  3 17  1  0
  3 18  1  0
  4 19  1  6
  5 20  1  0
  6 21  1  0
  6 22  1  0
  8 23  1  6
  9 24  1  0
  9 25  1  0
 11 26  1  0
 11 27  1  0
 12 28  1  1
 13 29  1  0
 13 30  1  0
M  END
$$$$
