
     RDKit          3D

 24 24  0  0  0  0  0  0  0  0999 V2000
   -2.5593   -1.3030    0.0195 N   0  0  0  0  0  0  0  0  0  0  0  0
   -2.1714    0.0559    0.3057 C   0  0  1  0  0  0  0  0  0  0  0  0
   -0.8165    0.3706   -0.2492 C   0  0  0  0  0  0  0  0  0  0  0  0
    0.2198   -0.5248    0.3335 C   0  0  0  0  0  0  0  0  0  0  0  0
   -0.1547   -1.3927    1.1794 O   0  0  0  0  0  0  0  0  0  0  0  0
    1.5865   -0.4214   -0.0367 N   0  0  0  0  0  0  0  0  0  0  0  0
    2.7839   -1.1374    0.3541 C   0  0  0  0  0  0  0  0  0  0  0  0
    3.6633   -0.0896   -0.2486 C   0  0  0  0  0  0  0  0  0  0  0  0
    4.1665    0.7500    0.7295 F   0  0  0  0  0  0  0  0  0  0  0  0
    2.3991    0.3757   -0.9090 C   0  0  0  0  0  0  0  0  0  0  0  0
   -3.2015    1.0319   -0.0874 C   0  0  0  0  0  0  0  0  0  0  0  0
   -4.2610    0.6129   -0.6053 O   0  0  0  0  0  0  0  0  0  0  0  0
   -3.0450    2.3913    0.0928 O   0  0  0  0  0  0  0  0  0  0  0  0
   -3.5775   -1.3418   -0.1946 H   0  0  0  0  0  0  0  0  0  0  0  0
   -2.4036   -1.9306    0.8394 H   0  0  0  0  0  0  0  0  0  0  0  0
   -2.0800    0.1322    1.4284 H   0  0  0  0  0  0  0  0  0  0  0  0
   -0.8561    0.1869   -1.3461 H   0  0  0  0  0  0  0  0  0  0  0  0
   -0.5818    1.4443   -0.1073 H   0  0  0  0  0  0  0  0  0  0  0  0
    2.8117   -1.2290    1.4608 H   0  0  0  0  0  0  0  0  0  0  0  0
    2.8121   -2.1099   -0.1922 H   0  0  0  0  0  0  0  0  0  0  0  0
    4.4208   -0.5004   -0.9519 H   0  0  0  0  0  0  0  0  0  0  0  0
    2.2870    1.4827   -0.7752 H   0  0  0  0  0  0  0  0  0  0  0  0
    2.3846    0.1155   -1.9794 H   0  0  0  0  0  0  0  0  0  0  0  0
   -3.8271    3.0308    0.2024 H   0  0  0  0  0  0  0  0  0  0  0  0
  1  2  1  0
  2  3  1  0
  3  4  1  0
  4  5  2  0
  4  6  1  0
  6  7  1  0
  7  8  1  0
  8  9  1  0
  8 10  1  0
  2 11  1  0
 11 12  2  0
 11 13  1  0
 10  6  1  0
  1 14  1  0
  1 15  1  0
  2 16  1  1
  3 17  1  0
  3 18  1  0
  7 19  1  0
  7 20  1  0
  8 21  1  0
 10 22  1  0
 10 23  1  0
 13 24  1  0
M  END
$$$$

     RDKit          3D

 24 24  0  0  0  0  0  0  0  0999 V2000
   -2.5810   -1.7692    0.8059 N   0  0  0  0  0  0  0  0  0  0  0  0
   -2.2489   -0.4757    0.3441 C   0  0  1  0  0  0  0  0  0  0  0  0
   -1.0439    0.1735    0.9730 C   0  0  0  0  0  0  0  0  0  0  0  0
    0.1962   -0.5785    0.7945 C   0  0  0  0  0  0  0  0  0  0  0  0
    0.3422   -1.7849    1.1581 O   0  0  0  0  0  0  0  0  0  0  0  0
    1.3339    0.0159    0.1846 N   0  0  0  0  0  0  0  0  0  0  0  0
    2.6962   -0.3156   -0.1702 C   0  0  0  0  0  0  0  0  0  0  0  0
    3.0436    1.1705   -0.0545 C   0  0  0  0  0  0  0  0  0  0  0  0
    3.3694    1.5084    1.2237 F   0  0  0  0  0  0  0  0  0  0  0  0
    1.5695    1.3276   -0.3882 C   0  0  0  0  0  0  0  0  0  0  0  0
   -2.0238   -0.4536   -1.1388 C   0  0  0  0  0  0  0  0  0  0  0  0
   -2.1613   -1.5388   -1.7531 O   0  0  0  0  0  0  0  0  0  0  0  0
   -1.6825    0.7103   -1.7958 O   0  0  0  0  0  0  0  0  0  0  0  0
   -3.6187   -1.8795    0.8670 H   0  0  0  0  0  0  0  0  0  0  0  0
   -2.1998   -2.0810    1.7076 H   0  0  0  0  0  0  0  0  0  0  0  0
   -3.1032    0.2240    0.5239 H   0  0  0  0  0  0  0  0  0  0  0  0
   -0.9397    1.1721    0.4980 H   0  0  0  0  0  0  0  0  0  0  0  0
   -1.2216    0.3245    2.0508 H   0  0  0  0  0  0  0  0  0  0  0  0
    3.2391   -0.9658    0.5031 H   0  0  0  0  0  0  0  0  0  0  0  0
    2.7323   -0.6103   -1.2329 H   0  0  0  0  0  0  0  0  0  0  0  0
    3.7150    1.5365   -0.8553 H   0  0  0  0  0  0  0  0  0  0  0  0
    1.3759    1.2806   -1.4846 H   0  0  0  0  0  0  0  0  0  0  0  0
    1.0506    2.1785    0.0505 H   0  0  0  0  0  0  0  0  0  0  0  0
   -1.8392    0.8306   -2.8111 H   0  0  0  0  0  0  0  0  0  0  0  0
  1  2  1  0
  2  3  1  0
  3  4  1  0
  4  5  2  0
  4  6  1  0
  6  7  1  0
  7  8  1  0
  8  9  1  0
  8 10  1  0
  2 11  1  0
 11 12  2  0
 11 13  1  0
 10  6  1  0
  1 14  1  0
  1 15  1  0
  2 16  1  6
  3 17  1  0
  3 18  1  0
  7 19  1  0
  7 20  1  0
  8 21  1  0
 10 22  1  0
 10 23  1  0
 13 24  1  0
M  END
$$$$

     RDKit          3D

 24 24  0  0  0  0  0  0  0  0999 V2000
    2.5212   -1.3215    0.6901 N   0  0  0  0  0  0  0  0  0  0  0  0
    2.2417   -0.5262   -0.4961 C   0  0  1  0  0  0  0  0  0  0  0  0
    0.7903   -0.5700   -0.8730 C   0  0  0  0  0  0  0  0  0  0  0  0
   -0.1176   -0.0704    0.1498 C   0  0  0  0  0  0  0  0  0  0  0  0
    0.2412    0.3712    1.2720 O   0  0  0  0  0  0  0  0  0  0  0  0
   -1.5114   -0.0738   -0.1203 N   0  0  0  0  0  0  0  0  0  0  0  0
   -2.7421    0.3130    0.5722 C   0  0  0  0  0  0  0  0  0  0  0  0
   -3.3108    0.6577   -0.8107 C   0  0  0  0  0  0  0  0  0  0  0  0
   -2.8890    1.8560   -1.3001 F   0  0  0  0  0  0  0  0  0  0  0  0
   -2.3607   -0.4702   -1.2270 C   0  0  0  0  0  0  0  0  0  0  0  0
    2.7633    0.8359   -0.3272 C   0  0  0  0  0  0  0  0  0  0  0  0
    2.6351    1.6990   -1.2293 O   0  0  0  0  0  0  0  0  0  0  0  0
    3.4187    1.2404    0.8243 O   0  0  0  0  0  0  0  0  0  0  0  0
    3.4565   -1.7821    0.6085 H   0  0  0  0  0  0  0  0  0  0  0  0
    2.5527   -0.7458    1.5605 H   0  0  0  0  0  0  0  0  0  0  0  0
    2.7976   -1.0459   -1.3324 H   0  0  0  0  0  0  0  0  0  0  0  0
    0.5418   -1.6589   -1.0383 H   0  0  0  0  0  0  0  0  0  0  0  0
    0.6626   -0.0634   -1.8383 H   0  0  0  0  0  0  0  0  0  0  0  0
   -2.6504    1.1562    1.2558 H   0  0  0  0  0  0  0  0  0  0  0  0
   -3.2556   -0.5953    0.9422 H   0  0  0  0  0  0  0  0  0  0  0  0
   -4.3706    0.4187   -0.8775 H   0  0  0  0  0  0  0  0  0  0  0  0
   -2.8331   -1.4577   -0.9820 H   0  0  0  0  0  0  0  0  0  0  0  0
   -1.9391   -0.3771   -2.2259 H   0  0  0  0  0  0  0  0  0  0  0  0
    3.3578    2.2102    1.1276 H   0  0  0  0  0  0  0  0  0  0  0  0
  1  2  1  0
  2  3  1  0
  3  4  1  0
  4  5  2  0
  4  6  1  0
  6  7  1  0
  7  8  1  0
  8  9  1  0
  8 10  1  0
  2 11  1  0
 11 12  2  0
 11 13  1  0
 10  6  1  0
  1 14  1  0
  1 15  1  0
  2 16  1  6
  3 17  1  0
  3 18  1  0
  7 19  1  0
  7 20  1  0
  8 21  1  0
 10 22  1  0
 10 23  1  0
 13 24  1  0
M  END
$$$$

     RDKit          3D

 24 24  0  0  0  0  0  0  0  0999 V2000
    2.4574   -1.4341    1.0667 N   0  0  0  0  0  0  0  0  0  0  0  0
    2.2109   -0.4534    0.0682 C   0  0  1  0  0  0  0  0  0  0  0  0
    0.8525    0.1366    0.0559 C   0  0  0  0  0  0  0  0  0  0  0  0
   -0.2563   -0.7930   -0.1519 C   0  0  0  0  0  0  0  0  0  0  0  0
   -0.1213   -2.0326   -0.3163 O   0  0  0  0  0  0  0  0  0  0  0  0
   -1.5751   -0.2496   -0.1679 N   0  0  0  0  0  0  0  0  0  0  0  0
   -2.9344   -0.7893   -0.3386 C   0  0  0  0  0  0  0  0  0  0  0  0
   -3.4176    0.3603    0.5218 C   0  0  0  0  0  0  0  0  0  0  0  0
   -4.5709    0.9702    0.0927 F   0  0  0  0  0  0  0  0  0  0  0  0
   -2.2121    1.0507   -0.0301 C   0  0  0  0  0  0  0  0  0  0  0  0
    3.2000    0.6505    0.2004 C   0  0  0  0  0  0  0  0  0  0  0  0
    4.0952    0.6907    1.0571 O   0  0  0  0  0  0  0  0  0  0  0  0
    3.0920    1.6971   -0.7114 O   0  0  0  0  0  0  0  0  0  0  0  0
    1.9948   -2.3348    0.8101 H   0  0  0  0  0  0  0  0  0  0  0  0
    3.4874   -1.6305    1.0843 H   0  0  0  0  0  0  0  0  0  0  0  0
    2.4176   -0.9249   -0.9290 H   0  0  0  0  0  0  0  0  0  0  0  0
    0.6538    0.6900    1.0067 H   0  0  0  0  0  0  0  0  0  0  0  0
    0.8109    0.9035   -0.7451 H   0  0  0  0  0  0  0  0  0  0  0  0
   -3.2780   -0.7083   -1.3795 H   0  0  0  0  0  0  0  0  0  0  0  0
   -3.0774   -1.7906    0.1057 H   0  0  0  0  0  0  0  0  0  0  0  0
   -3.3220    0.1970    1.6040 H   0  0  0  0  0  0  0  0  0  0  0  0
   -2.3244    1.5058   -1.0354 H   0  0  0  0  0  0  0  0  0  0  0  0
   -1.6381    1.6734    0.6891 H   0  0  0  0  0  0  0  0  0  0  0  0
    3.4550    2.6152   -0.5529 H   0  0  0  0  0  0  0  0  0  0  0  0
  1  2  1  0
  2  3  1  0
  3  4  1  0
  4  5  2  0
  4  6  1  0
  6  7  1  0
  7  8  1  0
  8  9  1  0
  8 10  1  0
  2 11  1  0
 11 12  2  0
 11 13  1  0
 10  6  1  0
  1 14  1  0
  1 15  1  0
  2 16  1  6
  3 17  1  0
  3 18  1  0
  7 19  1  0
  7 20  1  0
  8 21  1  0
 10 22  1  0
 10 23  1  0
 13 24  1  0
M  END
$$$$

     RDKit          3D

 24 24  0  0  0  0  0  0  0  0999 V2000
    2.2059    0.5955    1.3076 N   0  0  0  0  0  0  0  0  0  0  0  0
    2.0743   -0.4575    0.3203 C   0  0  1  0  0  0  0  0  0  0  0  0
    0.7613   -0.2727   -0.4281 C   0  0  0  0  0  0  0  0  0  0  0  0
   -0.3606   -0.3432    0.5395 C   0  0  0  0  0  0  0  0  0  0  0  0
   -0.1294   -0.5325    1.7742 O   0  0  0  0  0  0  0  0  0  0  0  0
   -1.6978   -0.2058    0.1353 N   0  0  0  0  0  0  0  0  0  0  0  0
   -3.0112   -0.2148    0.7507 C   0  0  0  0  0  0  0  0  0  0  0  0
   -3.4403    0.7573   -0.3311 C   0  0  0  0  0  0  0  0  0  0  0  0
   -3.1113    2.0462   -0.0105 F   0  0  0  0  0  0  0  0  0  0  0  0
   -2.3844    0.0145   -1.1268 C   0  0  0  0  0  0  0  0  0  0  0  0
    3.2270   -0.4446   -0.6073 C   0  0  0  0  0  0  0  0  0  0  0  0
    3.2990   -1.2807   -1.5351 O   0  0  0  0  0  0  0  0  0  0  0  0
    4.2611    0.4822   -0.4880 O   0  0  0  0  0  0  0  0  0  0  0  0
    3.1969    0.6010    1.6205 H   0  0  0  0  0  0  0  0  0  0  0  0
    2.0641    1.5070    0.7894 H   0  0  0  0  0  0  0  0  0  0  0  0
    2.0699   -1.4276    0.8484 H   0  0  0  0  0  0  0  0  0  0  0  0
    0.6500   -1.0692   -1.1911 H   0  0  0  0  0  0  0  0  0  0  0  0
    0.7521    0.7349   -0.8953 H   0  0  0  0  0  0  0  0  0  0  0  0
   -3.0472    0.1907    1.7789 H   0  0  0  0  0  0  0  0  0  0  0  0
   -3.4927   -1.1879    0.5953 H   0  0  0  0  0  0  0  0  0  0  0  0
   -4.4750    0.6113   -0.6970 H   0  0  0  0  0  0  0  0  0  0  0  0
   -2.8055   -0.9467   -1.4816 H   0  0  0  0  0  0  0  0  0  0  0  0
   -1.8365    0.6155   -1.8684 H   0  0  0  0  0  0  0  0  0  0  0  0
    5.2304    0.2271   -0.6902 H   0  0  0  0  0  0  0  0  0  0  0  0
  1  2  1  0
  2  3  1  0
  3  4  1  0
  4  5  2  0
  4  6  1  0
  6  7  1  0
  7  8  1  0
  8  9  1  0
  8 10  1  0
  2 11  1  0
 11 12  2  0
 11 13  1  0
 10  6  1  0
  1 14  1  0
  1 15  1  0
  2 16  1  1
  3 17  1  0
  3 18  1  0
  7 19  1  0
  7 20  1  0
  8 21  1  0
 10 22  1  0
 10 23  1  0
 13 24  1  0
M  END
$$$$

     RDKit          3D

 24 24  0  0  0  0  0  0  0  0999 V2000
   -2.7143   -1.8672   -0.6740 N   0  0  0  0  0  0  0  0  0  0  0  0
   -2.1623   -0.8186    0.1847 C   0  0  1  0  0  0  0  0  0  0  0  0
   -0.7305   -0.6799   -0.1940 C   0  0  0  0  0  0  0  0  0  0  0  0
    0.0413    0.3220    0.5584 C   0  0  0  0  0  0  0  0  0  0  0  0
   -0.4190    1.0120    1.4872 O   0  0  0  0  0  0  0  0  0  0  0  0
    1.4026    0.5297    0.2170 N   0  0  0  0  0  0  0  0  0  0  0  0
    2.2809   -0.0560   -0.7732 C   0  0  0  0  0  0  0  0  0  0  0  0
    3.4492    0.3001    0.1030 C   0  0  0  0  0  0  0  0  0  0  0  0
    3.7251   -0.6474    1.0464 F   0  0  0  0  0  0  0  0  0  0  0  0
    2.5139    1.3604    0.6452 C   0  0  0  0  0  0  0  0  0  0  0  0
   -2.9855    0.3814    0.0416 C   0  0  0  0  0  0  0  0  0  0  0  0
   -3.9714    0.3557   -0.7726 O   0  0  0  0  0  0  0  0  0  0  0  0
   -2.8187    1.5795    0.7045 O   0  0  0  0  0  0  0  0  0  0  0  0
   -2.3891   -1.7760   -1.6573 H   0  0  0  0  0  0  0  0  0  0  0  0
   -2.5023   -2.7886   -0.2517 H   0  0  0  0  0  0  0  0  0  0  0  0
   -2.2137   -1.2192    1.2210 H   0  0  0  0  0  0  0  0  0  0  0  0
   -0.5715   -0.5432   -1.2845 H   0  0  0  0  0  0  0  0  0  0  0  0
   -0.2485   -1.6755    0.0400 H   0  0  0  0  0  0  0  0  0  0  0  0
    2.2427    0.5437   -1.7003 H   0  0  0  0  0  0  0  0  0  0  0  0
    2.1249   -1.1487   -0.9288 H   0  0  0  0  0  0  0  0  0  0  0  0
    4.3298    0.6914   -0.4427 H   0  0  0  0  0  0  0  0  0  0  0  0
    2.5423    2.2666   -0.0135 H   0  0  0  0  0  0  0  0  0  0  0  0
    2.5705    1.5515    1.7217 H   0  0  0  0  0  0  0  0  0  0  0  0
   -3.4964    2.3263    0.7218 H   0  0  0  0  0  0  0  0  0  0  0  0
  1  2  1  0
  2  3  1  0
  3  4  1  0
  4  5  2  0
  4  6  1  0
  6  7  1  0
  7  8  1  0
  8  9  1  0
  8 10  1  0
  2 11  1  0
 11 12  2  0
 11 13  1  0
 10  6  1  0
  1 14  1  0
  1 15  1  0
  2 16  1  1
  3 17  1  0
  3 18  1  0
  7 19  1  0
  7 20  1  0
  8 21  1  0
 10 22  1  0
 10 23  1  0
 13 24  1  0
M  END
$$$$

     RDKit          3D

 24 24  0  0  0  0  0  0  0  0999 V2000
   -2.3995    1.4281   -0.9109 N   0  0  0  0  0  0  0  0  0  0  0  0
   -2.1698    0.1224   -0.3556 C   0  0  1  0  0  0  0  0  0  0  0  0
   -0.8223   -0.0320    0.2780 C   0  0  0  0  0  0  0  0  0  0  0  0
    0.2576    0.2073   -0.7337 C   0  0  0  0  0  0  0  0  0  0  0  0
   -0.0835    0.4909   -1.9174 O   0  0  0  0  0  0  0  0  0  0  0  0
    1.6227    0.1278   -0.4138 N   0  0  0  0  0  0  0  0  0  0  0  0
    2.4439   -0.1553    0.7634 C   0  0  0  0  0  0  0  0  0  0  0  0
    3.4634   -0.7451   -0.1959 C   0  0  0  0  0  0  0  0  0  0  0  0
    4.7718   -0.5032    0.1444 F   0  0  0  0  0  0  0  0  0  0  0  0
    2.8664    0.2981   -1.1381 C   0  0  0  0  0  0  0  0  0  0  0  0
   -3.2520   -0.2637    0.5850 C   0  0  0  0  0  0  0  0  0  0  0  0
   -4.2184    0.5108    0.8163 O   0  0  0  0  0  0  0  0  0  0  0  0
   -3.2366   -1.4867    1.2398 O   0  0  0  0  0  0  0  0  0  0  0  0
   -3.0359    1.4157   -1.7460 H   0  0  0  0  0  0  0  0  0  0  0  0
   -2.6845    2.1444   -0.2149 H   0  0  0  0  0  0  0  0  0  0  0  0
   -2.2218   -0.5995   -1.2233 H   0  0  0  0  0  0  0  0  0  0  0  0
   -0.7481   -1.0652    0.6666 H   0  0  0  0  0  0  0  0  0  0  0  0
   -0.7180    0.6540    1.1482 H   0  0  0  0  0  0  0  0  0  0  0  0
    2.0038   -0.8683    1.4688 H   0  0  0  0  0  0  0  0  0  0  0  0
    2.8275    0.7887    1.1917 H   0  0  0  0  0  0  0  0  0  0  0  0
    3.2129   -1.7733   -0.4681 H   0  0  0  0  0  0  0  0  0  0  0  0
    3.3279    1.2724   -0.9250 H   0  0  0  0  0  0  0  0  0  0  0  0
    2.8460   -0.0086   -2.2007 H   0  0  0  0  0  0  0  0  0  0  0  0
   -4.0534   -1.9596    1.5837 H   0  0  0  0  0  0  0  0  0  0  0  0
  1  2  1  0
  2  3  1  0
  3  4  1  0
  4  5  2  0
  4  6  1  0
  6  7  1  0
  7  8  1  0
  8  9  1  0
  8 10  1  0
  2 11  1  0
 11 12  2  0
 11 13  1  0
 10  6  1  0
  1 14  1  0
  1 15  1  0
  2 16  1  6
  3 17  1  0
  3 18  1  0
  7 19  1  0
  7 20  1  0
  8 21  1  0
 10 22  1  0
 10 23  1  0
 13 24  1  0
M  END
$$$$

     RDKit          3D

 24 24  0  0  0  0  0  0  0  0999 V2000
    2.3360   -0.4171    1.6044 N   0  0  0  0  0  0  0  0  0  0  0  0
    2.2593   -0.6466    0.1716 C   0  0  1  0  0  0  0  0  0  0  0  0
    0.8280   -0.9058   -0.2478 C   0  0  0  0  0  0  0  0  0  0  0  0
   -0.0559    0.2326    0.0714 C   0  0  0  0  0  0  0  0  0  0  0  0
    0.4445    1.2395    0.6260 O   0  0  0  0  0  0  0  0  0  0  0  0
   -1.4288    0.2266   -0.2229 N   0  0  0  0  0  0  0  0  0  0  0  0
   -2.5264    1.1546   -0.0428 C   0  0  0  0  0  0  0  0  0  0  0  0
   -3.4061   -0.0792    0.1796 C   0  0  0  0  0  0  0  0  0  0  0  0
   -3.2051   -0.6154    1.4128 F   0  0  0  0  0  0  0  0  0  0  0  0
   -2.4165   -0.6721   -0.8329 C   0  0  0  0  0  0  0  0  0  0  0  0
    2.8465    0.4994   -0.5589 C   0  0  0  0  0  0  0  0  0  0  0  0
    2.8765    0.4945   -1.8129 O   0  0  0  0  0  0  0  0  0  0  0  0
    3.3634    1.5776    0.1316 O   0  0  0  0  0  0  0  0  0  0  0  0
    3.3082   -0.5046    1.9480 H   0  0  0  0  0  0  0  0  0  0  0  0
    1.6975   -1.0961    2.0842 H   0  0  0  0  0  0  0  0  0  0  0  0
    2.8454   -1.5689   -0.0310 H   0  0  0  0  0  0  0  0  0  0  0  0
    0.4794   -1.8709    0.1546 H   0  0  0  0  0  0  0  0  0  0  0  0
    0.8483   -0.9756   -1.3749 H   0  0  0  0  0  0  0  0  0  0  0  0
   -2.4446    1.8236    0.8232 H   0  0  0  0  0  0  0  0  0  0  0  0
   -2.7748    1.6381   -1.0120 H   0  0  0  0  0  0  0  0  0  0  0  0
   -4.4277    0.0177   -0.1767 H   0  0  0  0  0  0  0  0  0  0  0  0
   -2.2125   -1.7333   -0.7127 H   0  0  0  0  0  0  0  0  0  0  0  0
   -2.6552   -0.2957   -1.8380 H   0  0  0  0  0  0  0  0  0  0  0  0
    3.4206    2.4770   -0.3437 H   0  0  0  0  0  0  0  0  0  0  0  0
  1  2  1  0
  2  3  1  0
  3  4  1  0
  4  5  2  0
  4  6  1  0
  6  7  1  0
  7  8  1  0
  8  9  1  0
  8 10  1  0
  2 11  1  0
 11 12  2  0
 11 13  1  0
 10  6  1  0
  1 14  1  0
  1 15  1  0
  2 16  1  1
  3 17  1  0
  3 18  1  0
  7 19  1  0
  7 20  1  0
  8 21  1  0
 10 22  1  0
 10 23  1  0
 13 24  1  0
M  END
$$$$
