
     RDKit          3D

 26 26  0  0  0  0  0  0  0  0999 V2000
   -2.9341    0.5856    1.0510 C   0  0  0  0  0  0  0  0  0  0  0  0
   -1.8578    0.6642    0.0624 N   0  0  0  0  0  0  0  0  0  0  0  0
   -1.9096   -0.3981   -0.8924 C   0  0  0  0  0  0  0  0  0  0  0  0
   -0.5013   -0.9143   -1.0786 C   0  0  0  0  0  0  0  0  0  0  0  0
    0.3252    0.1537   -0.3401 C   0  0  2  0  0  0  0  0  0  0  0  0
    0.5370    1.2420   -1.1459 O   0  0  0  0  0  0  0  0  0  0  0  0
    1.6129   -0.4402    0.1726 C   0  0  1  0  0  0  0  0  0  0  0  0
    2.4522   -0.8853   -0.9408 N   0  0  0  0  0  0  0  0  0  0  0  0
    2.3451    0.5564    0.9672 C   0  0  0  0  0  0  0  0  0  0  0  0
    1.8661    1.0660    2.0016 O   0  0  0  0  0  0  0  0  0  0  0  0
    3.6333    1.0027    0.6162 O   0  0  0  0  0  0  0  0  0  0  0  0
   -0.6222    0.4429    0.7956 C   0  0  0  0  0  0  0  0  0  0  0  0
   -3.1095   -0.5027    1.2144 H   0  0  0  0  0  0  0  0  0  0  0  0
   -2.5649    1.0941    1.9686 H   0  0  0  0  0  0  0  0  0  0  0  0
   -3.8544    1.0327    0.6483 H   0  0  0  0  0  0  0  0  0  0  0  0
   -2.6136   -1.1928   -0.5543 H   0  0  0  0  0  0  0  0  0  0  0  0
   -2.2589   -0.0256   -1.8961 H   0  0  0  0  0  0  0  0  0  0  0  0
   -0.1891   -0.9374   -2.1349 H   0  0  0  0  0  0  0  0  0  0  0  0
   -0.3363   -1.8835   -0.5692 H   0  0  0  0  0  0  0  0  0  0  0  0
    0.7573    1.0017   -2.0802 H   0  0  0  0  0  0  0  0  0  0  0  0
    1.3976   -1.3411    0.7800 H   0  0  0  0  0  0  0  0  0  0  0  0
    2.6454   -1.8995   -0.9061 H   0  0  0  0  0  0  0  0  0  0  0  0
    2.0386   -0.6154   -1.8622 H   0  0  0  0  0  0  0  0  0  0  0  0
    4.2270    1.3759    1.3343 H   0  0  0  0  0  0  0  0  0  0  0  0
   -0.7386   -0.4955    1.3727 H   0  0  0  0  0  0  0  0  0  0  0  0
   -0.3473    1.3135    1.4160 H   0  0  0  0  0  0  0  0  0  0  0  0
  1  2  1  0
  2  3  1  0
  3  4  1  0
  4  5  1  0
  5  6  1  6
  5  7  1  0
  7  8  1  0
  7  9  1  0
  9 10  2  0
  9 11  1  0
  5 12  1  0
 12  2  1  0
  1 13  1  0
  1 14  1  0
  1 15  1  0
  3 16  1  0
  3 17  1  0
  4 18  1  0
  4 19  1  0
  6 20  1  0
  7 21  1  1
  8 22  1  0
  8 23  1  0
 11 24  1  0
 12 25  1  0
 12 26  1  0
M  END
$$$$

     RDKit          3D

 26 26  0  0  0  0  0  0  0  0999 V2000
    2.9615   -0.0499   -0.5924 C   0  0  0  0  0  0  0  0  0  0  0  0
    1.9504   -0.6928    0.1820 N   0  0  0  0  0  0  0  0  0  0  0  0
    1.5197    0.0350    1.3357 C   0  0  0  0  0  0  0  0  0  0  0  0
    0.3618    0.8533    0.8247 C   0  0  0  0  0  0  0  0  0  0  0  0
   -0.2289    0.0912   -0.3092 C   0  0  2  0  0  0  0  0  0  0  0  0
   -0.2525    0.8793   -1.4583 O   0  0  0  0  0  0  0  0  0  0  0  0
   -1.6196   -0.4233   -0.0202 C   0  0  1  0  0  0  0  0  0  0  0  0
   -1.6126   -1.2435    1.1708 N   0  0  0  0  0  0  0  0  0  0  0  0
   -2.6211    0.6356    0.0736 C   0  0  0  0  0  0  0  0  0  0  0  0
   -3.3364    0.7367    1.1007 O   0  0  0  0  0  0  0  0  0  0  0  0
   -2.8294    1.5593   -0.9374 O   0  0  0  0  0  0  0  0  0  0  0  0
    0.7544   -1.0163   -0.5405 C   0  0  0  0  0  0  0  0  0  0  0  0
    3.9318   -0.5748   -0.3779 H   0  0  0  0  0  0  0  0  0  0  0  0
    2.8016   -0.0739   -1.6745 H   0  0  0  0  0  0  0  0  0  0  0  0
    3.1029    0.9913   -0.1899 H   0  0  0  0  0  0  0  0  0  0  0  0
    2.3444    0.6890    1.7129 H   0  0  0  0  0  0  0  0  0  0  0  0
    1.2070   -0.7018    2.1129 H   0  0  0  0  0  0  0  0  0  0  0  0
    0.7360    1.8386    0.5127 H   0  0  0  0  0  0  0  0  0  0  0  0
   -0.3359    0.9917    1.6788 H   0  0  0  0  0  0  0  0  0  0  0  0
   -0.9957    0.6290   -2.0723 H   0  0  0  0  0  0  0  0  0  0  0  0
   -1.9205   -1.0975   -0.8605 H   0  0  0  0  0  0  0  0  0  0  0  0
   -2.4838   -1.0826    1.6974 H   0  0  0  0  0  0  0  0  0  0  0  0
   -1.4891   -2.2497    0.9278 H   0  0  0  0  0  0  0  0  0  0  0  0
   -3.1890    2.4813   -0.6458 H   0  0  0  0  0  0  0  0  0  0  0  0
    0.9160   -1.2649   -1.5956 H   0  0  0  0  0  0  0  0  0  0  0  0
    0.3271   -1.9404   -0.0511 H   0  0  0  0  0  0  0  0  0  0  0  0
  1  2  1  0
  2  3  1  0
  3  4  1  0
  4  5  1  0
  5  6  1  6
  5  7  1  0
  7  8  1  0
  7  9  1  0
  9 10  2  0
  9 11  1  0
  5 12  1  0
 12  2  1  0
  1 13  1  0
  1 14  1  0
  1 15  1  0
  3 16  1  0
  3 17  1  0
  4 18  1  0
  4 19  1  0
  6 20  1  0
  7 21  1  6
  8 22  1  0
  8 23  1  0
 11 24  1  0
 12 25  1  0
 12 26  1  0
M  END
$$$$

     RDKit          3D

 26 26  0  0  0  0  0  0  0  0999 V2000
   -2.8034    0.1372    0.5795 C   0  0  0  0  0  0  0  0  0  0  0  0
   -1.7710   -0.8401    0.3576 N   0  0  0  0  0  0  0  0  0  0  0  0
   -1.5180   -1.1170   -1.0188 C   0  0  0  0  0  0  0  0  0  0  0  0
   -0.0406   -0.7776   -1.2730 C   0  0  0  0  0  0  0  0  0  0  0  0
    0.1564    0.2734   -0.2242 C   0  0  2  0  0  0  0  0  0  0  0  0
   -0.5748    1.3942   -0.6197 O   0  0  0  0  0  0  0  0  0  0  0  0
    1.5496    0.6941    0.0255 C   0  0  1  0  0  0  0  0  0  0  0  0
    1.4997    1.7071    1.0916 N   0  0  0  0  0  0  0  0  0  0  0  0
    2.4980   -0.3613    0.3792 C   0  0  0  0  0  0  0  0  0  0  0  0
    3.1237   -0.3257    1.4654 O   0  0  0  0  0  0  0  0  0  0  0  0
    2.7517   -1.4375   -0.4516 O   0  0  0  0  0  0  0  0  0  0  0  0
   -0.5461   -0.3348    0.9555 C   0  0  0  0  0  0  0  0  0  0  0  0
   -3.7152   -0.3315    0.9901 H   0  0  0  0  0  0  0  0  0  0  0  0
   -2.4962    0.9180    1.3083 H   0  0  0  0  0  0  0  0  0  0  0  0
   -3.0464    0.6568   -0.3695 H   0  0  0  0  0  0  0  0  0  0  0  0
   -1.7193   -2.1689   -1.3151 H   0  0  0  0  0  0  0  0  0  0  0  0
   -2.0909   -0.4034   -1.6461 H   0  0  0  0  0  0  0  0  0  0  0  0
    0.5146   -1.6892   -1.0530 H   0  0  0  0  0  0  0  0  0  0  0  0
    0.1061   -0.4062   -2.3066 H   0  0  0  0  0  0  0  0  0  0  0  0
   -0.5119    2.1356    0.0115 H   0  0  0  0  0  0  0  0  0  0  0  0
    1.9152    1.2413   -0.8702 H   0  0  0  0  0  0  0  0  0  0  0  0
    1.6964    1.2930    2.0155 H   0  0  0  0  0  0  0  0  0  0  0  0
    2.1191    2.5082    0.8838 H   0  0  0  0  0  0  0  0  0  0  0  0
    3.6569   -1.8848   -0.5348 H   0  0  0  0  0  0  0  0  0  0  0  0
   -0.7514    0.3724    1.7658 H   0  0  0  0  0  0  0  0  0  0  0  0
   -0.0023   -1.2534    1.3169 H   0  0  0  0  0  0  0  0  0  0  0  0
  1  2  1  0
  2  3  1  0
  3  4  1  0
  4  5  1  0
  5  6  1  6
  5  7  1  0
  7  8  1  0
  7  9  1  0
  9 10  2  0
  9 11  1  0
  5 12  1  0
 12  2  1  0
  1 13  1  0
  1 14  1  0
  1 15  1  0
  3 16  1  0
  3 17  1  0
  4 18  1  0
  4 19  1  0
  6 20  1  0
  7 21  1  6
  8 22  1  0
  8 23  1  0
 11 24  1  0
 12 25  1  0
 12 26  1  0
M  END
$$$$

     RDKit          3D

 26 26  0  0  0  0  0  0  0  0999 V2000
    2.6888    0.8146    0.4446 C   0  0  0  0  0  0  0  0  0  0  0  0
    1.4731    1.1937   -0.2669 N   0  0  0  0  0  0  0  0  0  0  0  0
    1.3387    0.2912   -1.3967 C   0  0  0  0  0  0  0  0  0  0  0  0
    0.7570   -0.9540   -0.8066 C   0  0  0  0  0  0  0  0  0  0  0  0
   -0.0353   -0.5014    0.3763 C   0  0  2  0  0  0  0  0  0  0  0  0
    0.4010   -1.2604    1.4945 O   0  0  0  0  0  0  0  0  0  0  0  0
   -1.5145   -0.7780    0.2382 C   0  0  1  0  0  0  0  0  0  0  0  0
   -2.1827   -0.3581    1.4878 N   0  0  0  0  0  0  0  0  0  0  0  0
   -2.1747   -0.1184   -0.8748 C   0  0  0  0  0  0  0  0  0  0  0  0
   -1.8414   -0.3596   -2.0556 O   0  0  0  0  0  0  0  0  0  0  0  0
   -3.1894    0.7938   -0.6525 O   0  0  0  0  0  0  0  0  0  0  0  0
    0.2969    0.9360    0.5528 C   0  0  0  0  0  0  0  0  0  0  0  0
    3.5321    0.9723   -0.2373 H   0  0  0  0  0  0  0  0  0  0  0  0
    2.8559    1.4549    1.3348 H   0  0  0  0  0  0  0  0  0  0  0  0
    2.6457   -0.2310    0.8039 H   0  0  0  0  0  0  0  0  0  0  0  0
    0.6443    0.7448   -2.1079 H   0  0  0  0  0  0  0  0  0  0  0  0
    2.3331    0.0730   -1.8532 H   0  0  0  0  0  0  0  0  0  0  0  0
    0.1025   -1.4968   -1.5302 H   0  0  0  0  0  0  0  0  0  0  0  0
    1.5766   -1.6399   -0.4631 H   0  0  0  0  0  0  0  0  0  0  0  0
   -0.0711   -2.1285    1.4223 H   0  0  0  0  0  0  0  0  0  0  0  0
   -1.6235   -1.8943    0.2242 H   0  0  0  0  0  0  0  0  0  0  0  0
   -1.5672    0.2505    2.0503 H   0  0  0  0  0  0  0  0  0  0  0  0
   -3.1153    0.0533    1.2706 H   0  0  0  0  0  0  0  0  0  0  0  0
   -3.4350    1.4159   -1.4116 H   0  0  0  0  0  0  0  0  0  0  0  0
    0.6252    1.0909    1.6079 H   0  0  0  0  0  0  0  0  0  0  0  0
   -0.5208    1.6357    0.3483 H   0  0  0  0  0  0  0  0  0  0  0  0
  1  2  1  0
  2  3  1  0
  3  4  1  0
  4  5  1  0
  5  6  1  1
  5  7  1  0
  7  8  1  0
  7  9  1  0
  9 10  2  0
  9 11  1  0
  5 12  1  0
 12  2  1  0
  1 13  1  0
  1 14  1  0
  1 15  1  0
  3 16  1  0
  3 17  1  0
  4 18  1  0
  4 19  1  0
  6 20  1  0
  7 21  1  6
  8 22  1  0
  8 23  1  0
 11 24  1  0
 12 25  1  0
 12 26  1  0
M  END
$$$$

     RDKit          3D

 26 26  0  0  0  0  0  0  0  0999 V2000
    3.1118    0.6006   -0.2282 C   0  0  0  0  0  0  0  0  0  0  0  0
    1.9537   -0.0997    0.2958 N   0  0  0  0  0  0  0  0  0  0  0  0
    1.4644   -1.0922   -0.6436 C   0  0  0  0  0  0  0  0  0  0  0  0
   -0.0065   -1.2440   -0.3817 C   0  0  0  0  0  0  0  0  0  0  0  0
   -0.3403   -0.0964    0.5175 C   0  0  2  0  0  0  0  0  0  0  0  0
   -0.4483   -0.5178    1.8310 O   0  0  0  0  0  0  0  0  0  0  0  0
   -1.5595    0.6627    0.0564 C   0  0  1  0  0  0  0  0  0  0  0  0
   -1.3467    1.0571   -1.3235 N   0  0  0  0  0  0  0  0  0  0  0  0
   -2.8028   -0.1297    0.2118 C   0  0  0  0  0  0  0  0  0  0  0  0
   -3.5325   -0.3880   -0.7777 O   0  0  0  0  0  0  0  0  0  0  0  0
   -3.1568   -0.5851    1.4582 O   0  0  0  0  0  0  0  0  0  0  0  0
    0.8505    0.8108    0.3816 C   0  0  0  0  0  0  0  0  0  0  0  0
    3.2778    0.3997   -1.2976 H   0  0  0  0  0  0  0  0  0  0  0  0
    4.0033    0.2969    0.3336 H   0  0  0  0  0  0  0  0  0  0  0  0
    2.9873    1.6976   -0.1159 H   0  0  0  0  0  0  0  0  0  0  0  0
    1.6271   -0.6921   -1.6650 H   0  0  0  0  0  0  0  0  0  0  0  0
    2.0363   -2.0208   -0.4678 H   0  0  0  0  0  0  0  0  0  0  0  0
   -0.1714   -2.1973    0.1895 H   0  0  0  0  0  0  0  0  0  0  0  0
   -0.6170   -1.2376   -1.3073 H   0  0  0  0  0  0  0  0  0  0  0  0
    0.1280   -1.3223    1.9295 H   0  0  0  0  0  0  0  0  0  0  0  0
   -1.6318    1.5679    0.7065 H   0  0  0  0  0  0  0  0  0  0  0  0
   -1.9974    0.5109   -1.9067 H   0  0  0  0  0  0  0  0  0  0  0  0
   -1.4017    2.0728   -1.4370 H   0  0  0  0  0  0  0  0  0  0  0  0
   -4.1059   -0.9159    1.6846 H   0  0  0  0  0  0  0  0  0  0  0  0
    0.7537    1.3526   -0.5938 H   0  0  0  0  0  0  0  0  0  0  0  0
    0.9248    1.5092    1.2390 H   0  0  0  0  0  0  0  0  0  0  0  0
  1  2  1  0
  2  3  1  0
  3  4  1  0
  4  5  1  0
  5  6  1  1
  5  7  1  0
  7  8  1  0
  7  9  1  0
  9 10  2  0
  9 11  1  0
  5 12  1  0
 12  2  1  0
  1 13  1  0
  1 14  1  0
  1 15  1  0
  3 16  1  0
  3 17  1  0
  4 18  1  0
  4 19  1  0
  6 20  1  0
  7 21  1  1
  8 22  1  0
  8 23  1  0
 11 24  1  0
 12 25  1  0
 12 26  1  0
M  END
$$$$

     RDKit          3D

 26 26  0  0  0  0  0  0  0  0999 V2000
   -3.1332    0.7430    0.1204 C   0  0  0  0  0  0  0  0  0  0  0  0
   -1.8453    0.2391    0.4928 N   0  0  0  0  0  0  0  0  0  0  0  0
   -1.7278   -1.1916    0.3983 C   0  0  0  0  0  0  0  0  0  0  0  0
   -0.2215   -1.3810    0.6066 C   0  0  0  0  0  0  0  0  0  0  0  0
    0.3251   -0.3067   -0.3092 C   0  0  2  0  0  0  0  0  0  0  0  0
    0.4887   -0.8765   -1.5597 O   0  0  0  0  0  0  0  0  0  0  0  0
    1.6148    0.2205    0.2673 C   0  0  1  0  0  0  0  0  0  0  0  0
    2.5679   -0.8519    0.4015 N   0  0  0  0  0  0  0  0  0  0  0  0
    2.2212    1.2604   -0.6027 C   0  0  0  0  0  0  0  0  0  0  0  0
    1.6033    2.3182   -0.8903 O   0  0  0  0  0  0  0  0  0  0  0  0
    3.4936    1.1147   -1.1374 O   0  0  0  0  0  0  0  0  0  0  0  0
   -0.7665    0.7130   -0.3341 C   0  0  0  0  0  0  0  0  0  0  0  0
   -3.0622    1.3246   -0.8174 H   0  0  0  0  0  0  0  0  0  0  0  0
   -3.8962   -0.0580    0.0052 H   0  0  0  0  0  0  0  0  0  0  0  0
   -3.4576    1.4434    0.9364 H   0  0  0  0  0  0  0  0  0  0  0  0
   -2.0066   -1.5039   -0.6330 H   0  0  0  0  0  0  0  0  0  0  0  0
   -2.3176   -1.7466    1.1319 H   0  0  0  0  0  0  0  0  0  0  0  0
    0.0449   -2.3942    0.2940 H   0  0  0  0  0  0  0  0  0  0  0  0
   -0.0133   -1.1654    1.6720 H   0  0  0  0  0  0  0  0  0  0  0  0
    1.0303   -0.2820   -2.1255 H   0  0  0  0  0  0  0  0  0  0  0  0
    1.3749    0.6263    1.2765 H   0  0  0  0  0  0  0  0  0  0  0  0
    2.1386   -1.7616    0.6568 H   0  0  0  0  0  0  0  0  0  0  0  0
    3.4111   -0.5973    0.9234 H   0  0  0  0  0  0  0  0  0  0  0  0
    3.7678    1.5446   -2.0024 H   0  0  0  0  0  0  0  0  0  0  0  0
   -0.4616    1.7156    0.0233 H   0  0  0  0  0  0  0  0  0  0  0  0
   -1.1729    0.8532   -1.3635 H   0  0  0  0  0  0  0  0  0  0  0  0
  1  2  1  0
  2  3  1  0
  3  4  1  0
  4  5  1  0
  5  6  1  6
  5  7  1  0
  7  8  1  0
  7  9  1  0
  9 10  2  0
  9 11  1  0
  5 12  1  0
 12  2  1  0
  1 13  1  0
  1 14  1  0
  1 15  1  0
  3 16  1  0
  3 17  1  0
  4 18  1  0
  4 19  1  0
  6 20  1  0
  7 21  1  1
  8 22  1  0
  8 23  1  0
 11 24  1  0
 12 25  1  0
 12 26  1  0
M  END
$$$$

     RDKit          3D

 26 26  0  0  0  0  0  0  0  0999 V2000
    2.8728    0.3206   -0.2978 C   0  0  0  0  0  0  0  0  0  0  0  0
    1.7484   -0.4543   -0.8268 N   0  0  0  0  0  0  0  0  0  0  0  0
    1.4405   -1.5207    0.0698 C   0  0  0  0  0  0  0  0  0  0  0  0
   -0.0764   -1.4281    0.3127 C   0  0  0  0  0  0  0  0  0  0  0  0
   -0.1829    0.0798    0.3030 C   0  0  2  0  0  0  0  0  0  0  0  0
    0.5392    0.5487    1.3988 O   0  0  0  0  0  0  0  0  0  0  0  0
   -1.5806    0.5941    0.3773 C   0  0  1  0  0  0  0  0  0  0  0  0
   -1.6176    2.0445    0.3679 N   0  0  0  0  0  0  0  0  0  0  0  0
   -2.4798    0.1052   -0.6862 C   0  0  0  0  0  0  0  0  0  0  0  0
   -3.1098    0.9174   -1.4351 O   0  0  0  0  0  0  0  0  0  0  0  0
   -2.7111   -1.2365   -0.9552 O   0  0  0  0  0  0  0  0  0  0  0  0
    0.5714    0.4093   -0.9320 C   0  0  0  0  0  0  0  0  0  0  0  0
    3.8149   -0.1019   -0.6842 H   0  0  0  0  0  0  0  0  0  0  0  0
    2.7486    1.3949   -0.4847 H   0  0  0  0  0  0  0  0  0  0  0  0
    2.8973    0.1830    0.8170 H   0  0  0  0  0  0  0  0  0  0  0  0
    1.7177   -2.5267   -0.2929 H   0  0  0  0  0  0  0  0  0  0  0  0
    1.9020   -1.3659    1.0689 H   0  0  0  0  0  0  0  0  0  0  0  0
   -0.3480   -1.8734    1.2845 H   0  0  0  0  0  0  0  0  0  0  0  0
   -0.5279   -1.9199   -0.5516 H   0  0  0  0  0  0  0  0  0  0  0  0
   -0.0215    0.6875    2.1943 H   0  0  0  0  0  0  0  0  0  0  0  0
   -1.9904    0.2844    1.3697 H   0  0  0  0  0  0  0  0  0  0  0  0
   -0.6881    2.4757    0.4599 H   0  0  0  0  0  0  0  0  0  0  0  0
   -2.2735    2.4246    1.0873 H   0  0  0  0  0  0  0  0  0  0  0  0
   -3.6547   -1.5976   -1.1236 H   0  0  0  0  0  0  0  0  0  0  0  0
    0.9476    1.4469   -0.9717 H   0  0  0  0  0  0  0  0  0  0  0  0
    0.0620    0.1083   -1.8693 H   0  0  0  0  0  0  0  0  0  0  0  0
  1  2  1  0
  2  3  1  0
  3  4  1  0
  4  5  1  0
  5  6  1  1
  5  7  1  0
  7  8  1  0
  7  9  1  0
  9 10  2  0
  9 11  1  0
  5 12  1  0
 12  2  1  0
  1 13  1  0
  1 14  1  0
  1 15  1  0
  3 16  1  0
  3 17  1  0
  4 18  1  0
  4 19  1  0
  6 20  1  0
  7 21  1  1
  8 22  1  0
  8 23  1  0
 11 24  1  0
 12 25  1  0
 12 26  1  0
M  END
$$$$

     RDKit          3D

 26 26  0  0  0  0  0  0  0  0999 V2000
   -2.4781    1.2550   -0.1057 C   0  0  0  0  0  0  0  0  0  0  0  0
   -1.3238    0.4753    0.2877 N   0  0  0  0  0  0  0  0  0  0  0  0
   -1.6477   -0.8056    0.8126 C   0  0  0  0  0  0  0  0  0  0  0  0
   -0.3844   -1.6058    0.5740 C   0  0  0  0  0  0  0  0  0  0  0  0
    0.3970   -0.8217   -0.4563 C   0  0  2  0  0  0  0  0  0  0  0  0
    0.6644   -1.6920   -1.5084 O   0  0  0  0  0  0  0  0  0  0  0  0
    1.7100   -0.3009    0.0641 C   0  0  1  0  0  0  0  0  0  0  0  0
    2.4263    0.3985   -1.0160 N   0  0  0  0  0  0  0  0  0  0  0  0
    1.5908    0.6293    1.1876 C   0  0  0  0  0  0  0  0  0  0  0  0
    1.0253    0.2771    2.2403 O   0  0  0  0  0  0  0  0  0  0  0  0
    2.0980    1.9042    1.1043 O   0  0  0  0  0  0  0  0  0  0  0  0
   -0.5355    0.2620   -0.9233 C   0  0  0  0  0  0  0  0  0  0  0  0
   -2.7781    1.0507   -1.1609 H   0  0  0  0  0  0  0  0  0  0  0  0
   -3.3162    1.1452    0.5999 H   0  0  0  0  0  0  0  0  0  0  0  0
   -2.1686    2.3205   -0.0738 H   0  0  0  0  0  0  0  0  0  0  0  0
   -1.8255   -0.7467    1.9084 H   0  0  0  0  0  0  0  0  0  0  0  0
   -2.5447   -1.2755    0.3681 H   0  0  0  0  0  0  0  0  0  0  0  0
    0.1622   -1.7478    1.5225 H   0  0  0  0  0  0  0  0  0  0  0  0
   -0.7171   -2.5932    0.1697 H   0  0  0  0  0  0  0  0  0  0  0  0
    0.6719   -1.2186   -2.3780 H   0  0  0  0  0  0  0  0  0  0  0  0
    2.3385   -1.1908    0.2911 H   0  0  0  0  0  0  0  0  0  0  0  0
    3.3093    0.7933   -0.6484 H   0  0  0  0  0  0  0  0  0  0  0  0
    2.5216   -0.1917   -1.8550 H   0  0  0  0  0  0  0  0  0  0  0  0
    2.0109    2.5391    1.9055 H   0  0  0  0  0  0  0  0  0  0  0  0
   -0.0413    1.2147   -1.1479 H   0  0  0  0  0  0  0  0  0  0  0  0
   -1.1650   -0.0746   -1.7622 H   0  0  0  0  0  0  0  0  0  0  0  0
  1  2  1  0
  2  3  1  0
  3  4  1  0
  4  5  1  0
  5  6  1  6
  5  7  1  0
  7  8  1  0
  7  9  1  0
  9 10  2  0
  9 11  1  0
  5 12  1  0
 12  2  1  0
  1 13  1  0
  1 14  1  0
  1 15  1  0
  3 16  1  0
  3 17  1  0
  4 18  1  0
  4 19  1  0
  6 20  1  0
  7 21  1  1
  8 22  1  0
  8 23  1  0
 11 24  1  0
 12 25  1  0
 12 26  1  0
M  END
$$$$
