
     RDKit          3D

 24 24  0  0  0  0  0  0  0  0999 V2000
   -3.4944    0.8946    1.6110 N   0  0  0  0  0  0  0  0  0  0  0  0
   -3.3273    0.2624    0.3653 C   0  0  0  0  0  0  0  0  0  0  0  0
   -4.3725   -0.0413   -0.2718 O   0  0  0  0  0  0  0  0  0  0  0  0
   -2.0271    0.0021   -0.1050 N   0  0  0  0  0  0  0  0  0  0  0  0
   -1.4091   -0.6090   -1.2931 C   0  0  0  0  0  0  0  0  0  0  0  0
   -0.2458    0.3095   -1.0747 C   0  0  0  0  0  0  0  0  0  0  0  0
    1.0548   -0.2528   -1.2632 N   0  0  0  0  0  0  0  0  0  0  0  0
    2.1757    0.6206   -1.0561 C   0  0  0  0  0  0  0  0  0  0  0  0
    3.1417    0.3818   -0.2124 C   0  0  0  0  0  0  0  0  0  0  0  0
    3.1199   -0.8310    0.5858 C   0  0  0  0  0  0  0  0  0  0  0  0
    2.1943   -1.6734    0.4961 O   0  0  0  0  0  0  0  0  0  0  0  0
    4.1426   -1.0914    1.4841 O   0  0  0  0  0  0  0  0  0  0  0  0
   -0.6779    0.2209    0.3746 C   0  0  0  0  0  0  0  0  0  0  0  0
   -3.9047    1.8502    1.7287 H   0  0  0  0  0  0  0  0  0  0  0  0
   -3.1894    0.3788    2.4817 H   0  0  0  0  0  0  0  0  0  0  0  0
   -1.9775   -0.5017   -2.2151 H   0  0  0  0  0  0  0  0  0  0  0  0
   -1.1606   -1.6528   -1.0435 H   0  0  0  0  0  0  0  0  0  0  0  0
   -0.3880    1.3385   -1.4660 H   0  0  0  0  0  0  0  0  0  0  0  0
    1.1477   -1.2522   -1.5392 H   0  0  0  0  0  0  0  0  0  0  0  0
    2.2011    1.5447   -1.6581 H   0  0  0  0  0  0  0  0  0  0  0  0
    3.9472    1.0893   -0.1172 H   0  0  0  0  0  0  0  0  0  0  0  0
    3.9861   -1.6000    2.3465 H   0  0  0  0  0  0  0  0  0  0  0  0
   -0.3330   -0.6805    0.9026 H   0  0  0  0  0  0  0  0  0  0  0  0
   -0.6039    1.1707    0.9389 H   0  0  0  0  0  0  0  0  0  0  0  0
  1  2  1  0
  2  3  2  0
  2  4  1  0
  4  5  1  0
  5  6  1  0
  6  7  1  0
  7  8  1  0
  8  9  2  3
  9 10  1  0
 10 11  2  0
 10 12  1  0
  6 13  1  0
 13  4  1  0
  1 14  1  0
  1 15  1  0
  5 16  1  0
  5 17  1  0
  6 18  1  0
  7 19  1  0
  8 20  1  0
  9 21  1  0
 12 22  1  0
 13 23  1  0
 13 24  1  0
M  END
$$$$

     RDKit          3D

 24 24  0  0  0  0  0  0  0  0999 V2000
    4.5891   -0.2825   -0.5730 N   0  0  0  0  0  0  0  0  0  0  0  0
    3.5236   -0.9393    0.0618 C   0  0  0  0  0  0  0  0  0  0  0  0
    3.7646   -2.0076    0.6801 O   0  0  0  0  0  0  0  0  0  0  0  0
    2.2039   -0.4604    0.0390 N   0  0  0  0  0  0  0  0  0  0  0  0
    1.5939    0.7195   -0.5717 C   0  0  0  0  0  0  0  0  0  0  0  0
    0.2959   -0.0551   -0.6434 C   0  0  0  0  0  0  0  0  0  0  0  0
   -0.8305    0.7739   -0.3562 N   0  0  0  0  0  0  0  0  0  0  0  0
   -2.1643    0.3191   -0.3505 C   0  0  0  0  0  0  0  0  0  0  0  0
   -3.0196    0.8029    0.5628 C   0  0  0  0  0  0  0  0  0  0  0  0
   -4.3953    0.3747    0.6166 C   0  0  0  0  0  0  0  0  0  0  0  0
   -5.1544    0.8574    1.4896 O   0  0  0  0  0  0  0  0  0  0  0  0
   -4.9467   -0.5565   -0.2529 O   0  0  0  0  0  0  0  0  0  0  0  0
    0.8882   -0.8033    0.5298 C   0  0  0  0  0  0  0  0  0  0  0  0
    4.5577    0.7708   -0.6227 H   0  0  0  0  0  0  0  0  0  0  0  0
    5.3938   -0.7612   -0.9902 H   0  0  0  0  0  0  0  0  0  0  0  0
    1.5305    1.5587    0.1317 H   0  0  0  0  0  0  0  0  0  0  0  0
    1.9865    0.9562   -1.5854 H   0  0  0  0  0  0  0  0  0  0  0  0
    0.2074   -0.7173   -1.5352 H   0  0  0  0  0  0  0  0  0  0  0  0
   -0.7025    1.8046   -0.1270 H   0  0  0  0  0  0  0  0  0  0  0  0
   -2.4589   -0.4016   -1.0769 H   0  0  0  0  0  0  0  0  0  0  0  0
   -2.6706    1.5315    1.2764 H   0  0  0  0  0  0  0  0  0  0  0  0
   -5.6356   -1.2471    0.0615 H   0  0  0  0  0  0  0  0  0  0  0  0
    0.7478   -1.9050    0.5023 H   0  0  0  0  0  0  0  0  0  0  0  0
    0.6955   -0.3323    1.5112 H   0  0  0  0  0  0  0  0  0  0  0  0
  1  2  1  0
  2  3  2  0
  2  4  1  0
  4  5  1  0
  5  6  1  0
  6  7  1  0
  7  8  1  0
  8  9  2  3
  9 10  1  0
 10 11  2  0
 10 12  1  0
  6 13  1  0
 13  4  1  0
  1 14  1  0
  1 15  1  0
  5 16  1  0
  5 17  1  0
  6 18  1  0
  7 19  1  0
  8 20  1  0
  9 21  1  0
 12 22  1  0
 13 23  1  0
 13 24  1  0
M  END
$$$$

     RDKit          3D

 24 24  0  0  0  0  0  0  0  0999 V2000
   -4.1776    1.1669   -1.3701 N   0  0  0  0  0  0  0  0  0  0  0  0
   -3.5274    0.0623   -0.7877 C   0  0  0  0  0  0  0  0  0  0  0  0
   -4.0674   -1.0542   -0.8257 O   0  0  0  0  0  0  0  0  0  0  0  0
   -2.2844    0.2234   -0.1723 N   0  0  0  0  0  0  0  0  0  0  0  0
   -1.3478    1.2997    0.0821 C   0  0  0  0  0  0  0  0  0  0  0  0
   -0.2571    0.2602   -0.0698 C   0  0  0  0  0  0  0  0  0  0  0  0
    0.8857    0.4140    0.7465 N   0  0  0  0  0  0  0  0  0  0  0  0
    1.9467   -0.5131    0.6646 C   0  0  0  0  0  0  0  0  0  0  0  0
    3.0550   -0.2937   -0.0182 C   0  0  0  0  0  0  0  0  0  0  0  0
    4.1372   -1.2654   -0.0886 C   0  0  0  0  0  0  0  0  0  0  0  0
    4.0830   -2.3722    0.4959 O   0  0  0  0  0  0  0  0  0  0  0  0
    5.2775   -0.9806   -0.8209 O   0  0  0  0  0  0  0  0  0  0  0  0
   -1.3515   -0.6471    0.5066 C   0  0  0  0  0  0  0  0  0  0  0  0
   -4.5777    1.9284   -0.7836 H   0  0  0  0  0  0  0  0  0  0  0  0
   -4.2845    1.2665   -2.4143 H   0  0  0  0  0  0  0  0  0  0  0  0
   -1.4852    1.6348    1.1462 H   0  0  0  0  0  0  0  0  0  0  0  0
   -1.3333    2.1091   -0.6542 H   0  0  0  0  0  0  0  0  0  0  0  0
   -0.0954    0.0397   -1.1429 H   0  0  0  0  0  0  0  0  0  0  0  0
    0.9613    1.2005    1.4100 H   0  0  0  0  0  0  0  0  0  0  0  0
    1.8866   -1.4827    1.1832 H   0  0  0  0  0  0  0  0  0  0  0  0
    3.1440    0.6534   -0.5404 H   0  0  0  0  0  0  0  0  0  0  0  0
    6.1510   -1.4821   -0.7331 H   0  0  0  0  0  0  0  0  0  0  0  0
   -1.3013   -1.6798    0.1585 H   0  0  0  0  0  0  0  0  0  0  0  0
   -1.4373   -0.4880    1.6012 H   0  0  0  0  0  0  0  0  0  0  0  0
  1  2  1  0
  2  3  2  0
  2  4  1  0
  4  5  1  0
  5  6  1  0
  6  7  1  0
  7  8  1  0
  8  9  2  3
  9 10  1  0
 10 11  2  0
 10 12  1  0
  6 13  1  0
 13  4  1  0
  1 14  1  0
  1 15  1  0
  5 16  1  0
  5 17  1  0
  6 18  1  0
  7 19  1  0
  8 20  1  0
  9 21  1  0
 12 22  1  0
 13 23  1  0
 13 24  1  0
M  END
$$$$

     RDKit          3D

 24 24  0  0  0  0  0  0  0  0999 V2000
   -3.7401   -1.2087   -0.7210 N   0  0  0  0  0  0  0  0  0  0  0  0
   -3.4040   -0.1764    0.1856 C   0  0  0  0  0  0  0  0  0  0  0  0
   -4.2931    0.3259    0.8854 O   0  0  0  0  0  0  0  0  0  0  0  0
   -2.0655    0.2544    0.2695 N   0  0  0  0  0  0  0  0  0  0  0  0
   -0.8069   -0.0882   -0.3682 C   0  0  0  0  0  0  0  0  0  0  0  0
   -0.2641    1.2390    0.1500 C   0  0  0  0  0  0  0  0  0  0  0  0
    1.0438    1.0544    0.7452 N   0  0  0  0  0  0  0  0  0  0  0  0
    2.1110    0.5412   -0.0565 C   0  0  0  0  0  0  0  0  0  0  0  0
    2.5314   -0.6977    0.0806 C   0  0  0  0  0  0  0  0  0  0  0  0
    3.6110   -1.1738   -0.7493 C   0  0  0  0  0  0  0  0  0  0  0  0
    3.9852   -2.3677   -0.5873 O   0  0  0  0  0  0  0  0  0  0  0  0
    4.1877   -0.3399   -1.6682 O   0  0  0  0  0  0  0  0  0  0  0  0
   -1.4185    1.2827    1.0959 C   0  0  0  0  0  0  0  0  0  0  0  0
   -3.4337   -2.1722   -0.5256 H   0  0  0  0  0  0  0  0  0  0  0  0
   -4.2989   -1.0094   -1.5939 H   0  0  0  0  0  0  0  0  0  0  0  0
   -0.3758   -0.9741    0.1666 H   0  0  0  0  0  0  0  0  0  0  0  0
   -0.8295   -0.1954   -1.4536 H   0  0  0  0  0  0  0  0  0  0  0  0
   -0.2563    2.0111   -0.6448 H   0  0  0  0  0  0  0  0  0  0  0  0
    1.1731    1.2962    1.7273 H   0  0  0  0  0  0  0  0  0  0  0  0
    2.5713    1.1989   -0.7865 H   0  0  0  0  0  0  0  0  0  0  0  0
    2.0424   -1.3189    0.8221 H   0  0  0  0  0  0  0  0  0  0  0  0
    5.1043   -0.5405   -2.0427 H   0  0  0  0  0  0  0  0  0  0  0  0
   -1.1892    0.8238    2.0808 H   0  0  0  0  0  0  0  0  0  0  0  0
   -1.9858    2.2354    1.1375 H   0  0  0  0  0  0  0  0  0  0  0  0
  1  2  1  0
  2  3  2  0
  2  4  1  0
  4  5  1  0
  5  6  1  0
  6  7  1  0
  7  8  1  0
  8  9  2  3
  9 10  1  0
 10 11  2  0
 10 12  1  0
  6 13  1  0
 13  4  1  0
  1 14  1  0
  1 15  1  0
  5 16  1  0
  5 17  1  0
  6 18  1  0
  7 19  1  0
  8 20  1  0
  9 21  1  0
 12 22  1  0
 13 23  1  0
 13 24  1  0
M  END
$$$$

     RDKit          3D

 24 24  0  0  0  0  0  0  0  0999 V2000
    4.4657    0.1984   -0.0398 N   0  0  0  0  0  0  0  0  0  0  0  0
    3.3394   -0.6046   -0.3461 C   0  0  0  0  0  0  0  0  0  0  0  0
    3.5327   -1.6795   -0.9612 O   0  0  0  0  0  0  0  0  0  0  0  0
    2.0503   -0.2209    0.0205 N   0  0  0  0  0  0  0  0  0  0  0  0
    0.6709   -0.7231   -0.0897 C   0  0  0  0  0  0  0  0  0  0  0  0
    0.2542    0.7262   -0.1992 C   0  0  0  0  0  0  0  0  0  0  0  0
   -0.9913    1.0996    0.3748 N   0  0  0  0  0  0  0  0  0  0  0  0
   -2.2294    0.5872   -0.0596 C   0  0  0  0  0  0  0  0  0  0  0  0
   -2.5195   -0.6566   -0.3240 C   0  0  0  0  0  0  0  0  0  0  0  0
   -3.8513   -1.0175   -0.7636 C   0  0  0  0  0  0  0  0  0  0  0  0
   -4.1651   -2.2158   -1.0284 O   0  0  0  0  0  0  0  0  0  0  0  0
   -4.8305   -0.0674   -0.9111 O   0  0  0  0  0  0  0  0  0  0  0  0
    1.4650    0.9224    0.7204 C   0  0  0  0  0  0  0  0  0  0  0  0
    5.4089   -0.2342    0.1677 H   0  0  0  0  0  0  0  0  0  0  0  0
    4.4469    1.2445    0.0021 H   0  0  0  0  0  0  0  0  0  0  0  0
    0.3197   -1.1848    0.8737 H   0  0  0  0  0  0  0  0  0  0  0  0
    0.4937   -1.3450   -0.9681 H   0  0  0  0  0  0  0  0  0  0  0  0
    0.4812    1.1435   -1.2041 H   0  0  0  0  0  0  0  0  0  0  0  0
   -0.9978    1.8006    1.1729 H   0  0  0  0  0  0  0  0  0  0  0  0
   -3.0280    1.3449   -0.1824 H   0  0  0  0  0  0  0  0  0  0  0  0
   -1.7777   -1.4209   -0.2188 H   0  0  0  0  0  0  0  0  0  0  0  0
   -5.8204   -0.2343   -0.8700 H   0  0  0  0  0  0  0  0  0  0  0  0
    1.2576    0.6916    1.7825 H   0  0  0  0  0  0  0  0  0  0  0  0
    2.0248    1.8459    0.5132 H   0  0  0  0  0  0  0  0  0  0  0  0
  1  2  1  0
  2  3  2  0
  2  4  1  0
  4  5  1  0
  5  6  1  0
  6  7  1  0
  7  8  1  0
  8  9  2  3
  9 10  1  0
 10 11  2  0
 10 12  1  0
  6 13  1  0
 13  4  1  0
  1 14  1  0
  1 15  1  0
  5 16  1  0
  5 17  1  0
  6 18  1  0
  7 19  1  0
  8 20  1  0
  9 21  1  0
 12 22  1  0
 13 23  1  0
 13 24  1  0
M  END
$$$$

     RDKit          3D

 24 24  0  0  0  0  0  0  0  0999 V2000
   -3.8562   -0.7027    0.6449 N   0  0  0  0  0  0  0  0  0  0  0  0
   -2.8244    0.2284    0.8901 C   0  0  0  0  0  0  0  0  0  0  0  0
   -2.9297    0.9392    1.9305 O   0  0  0  0  0  0  0  0  0  0  0  0
   -1.7176    0.3651    0.0136 N   0  0  0  0  0  0  0  0  0  0  0  0
   -1.3307   -0.2859   -1.2167 C   0  0  0  0  0  0  0  0  0  0  0  0
   -0.0602    0.5304   -1.3017 C   0  0  0  0  0  0  0  0  0  0  0  0
    1.1578   -0.2293   -1.1617 N   0  0  0  0  0  0  0  0  0  0  0  0
    1.3936   -0.9620    0.0258 C   0  0  0  0  0  0  0  0  0  0  0  0
    2.3434   -0.6765    0.8812 C   0  0  0  0  0  0  0  0  0  0  0  0
    3.2131    0.4511    0.6139 C   0  0  0  0  0  0  0  0  0  0  0  0
    3.0387    1.1210   -0.4196 O   0  0  0  0  0  0  0  0  0  0  0  0
    4.2451    0.8163    1.4767 O   0  0  0  0  0  0  0  0  0  0  0  0
   -0.5487    1.1860   -0.0178 C   0  0  0  0  0  0  0  0  0  0  0  0
   -4.8465   -0.4246    0.7610 H   0  0  0  0  0  0  0  0  0  0  0  0
   -3.6246   -1.6688    0.3473 H   0  0  0  0  0  0  0  0  0  0  0  0
   -2.0472   -0.1274   -2.0524 H   0  0  0  0  0  0  0  0  0  0  0  0
   -1.1655   -1.3897   -1.0954 H   0  0  0  0  0  0  0  0  0  0  0  0
   -0.0473    1.2295   -2.1776 H   0  0  0  0  0  0  0  0  0  0  0  0
    1.8771   -0.2604   -1.9062 H   0  0  0  0  0  0  0  0  0  0  0  0
    0.7509   -1.8017    0.2312 H   0  0  0  0  0  0  0  0  0  0  0  0
    2.4579   -1.2838    1.7629 H   0  0  0  0  0  0  0  0  0  0  0  0
    5.1026    1.2008    1.0798 H   0  0  0  0  0  0  0  0  0  0  0  0
    0.1243    0.9193    0.8373 H   0  0  0  0  0  0  0  0  0  0  0  0
   -0.7059    2.2726   -0.1472 H   0  0  0  0  0  0  0  0  0  0  0  0
  1  2  1  0
  2  3  2  0
  2  4  1  0
  4  5  1  0
  5  6  1  0
  6  7  1  0
  7  8  1  0
  8  9  2  3
  9 10  1  0
 10 11  2  0
 10 12  1  0
  6 13  1  0
 13  4  1  0
  1 14  1  0
  1 15  1  0
  5 16  1  0
  5 17  1  0
  6 18  1  0
  7 19  1  0
  8 20  1  0
  9 21  1  0
 12 22  1  0
 13 23  1  0
 13 24  1  0
M  END
$$$$

     RDKit          3D

 24 24  0  0  0  0  0  0  0  0999 V2000
   -3.2251    2.0278    0.0665 N   0  0  0  0  0  0  0  0  0  0  0  0
   -2.7273    0.9521   -0.7145 C   0  0  0  0  0  0  0  0  0  0  0  0
   -3.0143    0.9453   -1.9389 O   0  0  0  0  0  0  0  0  0  0  0  0
   -1.9488   -0.0452   -0.1060 N   0  0  0  0  0  0  0  0  0  0  0  0
   -1.2846   -1.2505   -0.5336 C   0  0  0  0  0  0  0  0  0  0  0  0
   -0.2331   -0.9374    0.5410 C   0  0  0  0  0  0  0  0  0  0  0  0
    0.7042    0.0815    0.1684 N   0  0  0  0  0  0  0  0  0  0  0  0
    1.5535   -0.0290   -0.9498 C   0  0  0  0  0  0  0  0  0  0  0  0
    2.8376   -0.2062   -0.7790 C   0  0  0  0  0  0  0  0  0  0  0  0
    3.3969   -0.2902    0.5553 C   0  0  0  0  0  0  0  0  0  0  0  0
    2.6527   -0.1936    1.5592 O   0  0  0  0  0  0  0  0  0  0  0  0
    4.7497   -0.4772    0.7859 O   0  0  0  0  0  0  0  0  0  0  0  0
   -1.4583   -0.3214    1.2178 C   0  0  0  0  0  0  0  0  0  0  0  0
   -4.1502    2.4790   -0.1692 H   0  0  0  0  0  0  0  0  0  0  0  0
   -2.6441    2.3462    0.8703 H   0  0  0  0  0  0  0  0  0  0  0  0
   -0.8845   -1.2440   -1.5655 H   0  0  0  0  0  0  0  0  0  0  0  0
   -1.8319   -2.1463   -0.2276 H   0  0  0  0  0  0  0  0  0  0  0  0
    0.1667   -1.8200    1.0463 H   0  0  0  0  0  0  0  0  0  0  0  0
    0.7741    0.9522    0.7406 H   0  0  0  0  0  0  0  0  0  0  0  0
    1.1552    0.0311   -1.9398 H   0  0  0  0  0  0  0  0  0  0  0  0
    3.5176   -0.2949   -1.6168 H   0  0  0  0  0  0  0  0  0  0  0  0
    5.1191   -0.0484    1.6420 H   0  0  0  0  0  0  0  0  0  0  0  0
   -1.1310    0.5458    1.8102 H   0  0  0  0  0  0  0  0  0  0  0  0
   -2.0941   -1.0567    1.7383 H   0  0  0  0  0  0  0  0  0  0  0  0
  1  2  1  0
  2  3  2  0
  2  4  1  0
  4  5  1  0
  5  6  1  0
  6  7  1  0
  7  8  1  0
  8  9  2  3
  9 10  1  0
 10 11  2  0
 10 12  1  0
  6 13  1  0
 13  4  1  0
  1 14  1  0
  1 15  1  0
  5 16  1  0
  5 17  1  0
  6 18  1  0
  7 19  1  0
  8 20  1  0
  9 21  1  0
 12 22  1  0
 13 23  1  0
 13 24  1  0
M  END
$$$$

     RDKit          3D

 24 24  0  0  0  0  0  0  0  0999 V2000
    4.0352    0.2869    0.2266 N   0  0  0  0  0  0  0  0  0  0  0  0
    3.0354    0.9440   -0.5354 C   0  0  0  0  0  0  0  0  0  0  0  0
    3.2293    2.0604   -1.0691 O   0  0  0  0  0  0  0  0  0  0  0  0
    1.7820    0.3140   -0.6941 N   0  0  0  0  0  0  0  0  0  0  0  0
    0.5654    0.6883   -1.3882 C   0  0  0  0  0  0  0  0  0  0  0  0
   -0.1631   -0.3634   -0.6204 C   0  0  0  0  0  0  0  0  0  0  0  0
   -0.8793    0.1303    0.5403 N   0  0  0  0  0  0  0  0  0  0  0  0
   -1.5931   -0.8222    1.3131 C   0  0  0  0  0  0  0  0  0  0  0  0
   -2.8929   -0.9293    1.1758 C   0  0  0  0  0  0  0  0  0  0  0  0
   -3.5906   -0.0803    0.2419 C   0  0  0  0  0  0  0  0  0  0  0  0
   -4.8293   -0.1769    0.1059 O   0  0  0  0  0  0  0  0  0  0  0  0
   -2.8972    0.8395   -0.5035 O   0  0  0  0  0  0  0  0  0  0  0  0
    1.1801   -0.9325   -0.2531 C   0  0  0  0  0  0  0  0  0  0  0  0
    4.8885   -0.0952   -0.2343 H   0  0  0  0  0  0  0  0  0  0  0  0
    3.8823    0.2034    1.2543 H   0  0  0  0  0  0  0  0  0  0  0  0
    0.6033    0.5185   -2.4809 H   0  0  0  0  0  0  0  0  0  0  0  0
    0.2966    1.7326   -1.1299 H   0  0  0  0  0  0  0  0  0  0  0  0
   -0.7810   -0.9873   -1.2935 H   0  0  0  0  0  0  0  0  0  0  0  0
   -0.8432    1.1413    0.7573 H   0  0  0  0  0  0  0  0  0  0  0  0
   -1.0872   -1.4646    2.0156 H   0  0  0  0  0  0  0  0  0  0  0  0
   -3.4280   -1.6436    1.7553 H   0  0  0  0  0  0  0  0  0  0  0  0
   -3.2988    1.5703   -1.0435 H   0  0  0  0  0  0  0  0  0  0  0  0
    1.3089   -1.1095    0.8500 H   0  0  0  0  0  0  0  0  0  0  0  0
    1.4768   -1.8247   -0.8490 H   0  0  0  0  0  0  0  0  0  0  0  0
  1  2  1  0
  2  3  2  0
  2  4  1  0
  4  5  1  0
  5  6  1  0
  6  7  1  0
  7  8  1  0
  8  9  2  3
  9 10  1  0
 10 11  2  0
 10 12  1  0
  6 13  1  0
 13  4  1  0
  1 14  1  0
  1 15  1  0
  5 16  1  0
  5 17  1  0
  6 18  1  0
  7 19  1  0
  8 20  1  0
  9 21  1  0
 12 22  1  0
 13 23  1  0
 13 24  1  0
M  END
$$$$
