
     RDKit          3D

 26 27  0  0  0  0  0  0  0  0999 V2000
   -1.9980   -1.6274    0.2817 N   0  0  0  0  0  0  0  0  0  0  0  0
   -1.1442   -0.6502   -0.4156 C   0  0  2  0  0  0  0  0  0  0  0  0
   -1.2255   -0.9789   -1.8496 C   0  0  0  0  0  0  0  0  0  0  0  0
   -1.9124   -1.9250   -2.3136 O   0  0  0  0  0  0  0  0  0  0  0  0
   -0.5107   -0.2136   -2.7609 O   0  0  0  0  0  0  0  0  0  0  0  0
    0.2178   -0.7650    0.1605 C   0  0  2  0  0  0  0  0  0  0  0  0
    0.7102   -2.0764   -0.0327 O   0  0  0  0  0  0  0  0  0  0  0  0
    0.2241   -0.3437    1.6172 C   0  0  0  0  0  0  0  0  0  0  0  0
    1.3376    0.6378    1.3412 C   0  0  2  0  0  0  0  0  0  0  0  0
    0.9283    2.0829    1.3479 C   0  0  0  0  0  0  0  0  0  0  0  0
    1.3090    2.5619    0.1044 O   0  0  0  0  0  0  0  0  0  0  0  0
    0.8036    1.5514   -0.7468 C   0  0  0  0  0  0  0  0  0  0  0  0
    1.2214    0.2690   -0.1275 C   0  0  2  0  0  0  0  0  0  0  0  0
   -1.9393   -2.5584   -0.1835 H   0  0  0  0  0  0  0  0  0  0  0  0
   -2.9711   -1.2969    0.3629 H   0  0  0  0  0  0  0  0  0  0  0  0
   -1.6189    0.3324   -0.2218 H   0  0  0  0  0  0  0  0  0  0  0  0
   -0.8912   -0.0261   -3.7007 H   0  0  0  0  0  0  0  0  0  0  0  0
    0.7679   -2.5529    0.8207 H   0  0  0  0  0  0  0  0  0  0  0  0
   -0.7059    0.0912    1.9903 H   0  0  0  0  0  0  0  0  0  0  0  0
    0.5915   -1.1426    2.3034 H   0  0  0  0  0  0  0  0  0  0  0  0
    2.2996    0.4382    1.8135 H   0  0  0  0  0  0  0  0  0  0  0  0
    1.4358    2.6585    2.1632 H   0  0  0  0  0  0  0  0  0  0  0  0
   -0.1636    2.2148    1.5261 H   0  0  0  0  0  0  0  0  0  0  0  0
   -0.2626    1.7277   -0.8300 H   0  0  0  0  0  0  0  0  0  0  0  0
    1.3041    1.7213   -1.7239 H   0  0  0  0  0  0  0  0  0  0  0  0
    2.1925   -0.1301   -0.5008 H   0  0  0  0  0  0  0  0  0  0  0  0
  1  2  1  0
  2  3  1  0
  3  4  2  0
  3  5  1  0
  2  6  1  0
  6  7  1  1
  6  8  1  0
  8  9  1  0
  9 10  1  0
 10 11  1  0
 11 12  1  0
 12 13  1  0
 13  6  1  0
 13  9  1  0
  1 14  1  0
  1 15  1  0
  2 16  1  6
  5 17  1  0
  7 18  1  0
  8 19  1  0
  8 20  1  0
  9 21  1  1
 10 22  1  0
 10 23  1  0
 12 24  1  0
 12 25  1  0
 13 26  1  6
M  END
$$$$

     RDKit          3D

 26 27  0  0  0  0  0  0  0  0999 V2000
   -1.4239   -1.7080   -0.5313 N   0  0  0  0  0  0  0  0  0  0  0  0
   -1.5680   -0.4659    0.1411 C   0  0  2  0  0  0  0  0  0  0  0  0
   -2.6037    0.3800   -0.4956 C   0  0  0  0  0  0  0  0  0  0  0  0
   -3.2098   -0.0510   -1.4952 O   0  0  0  0  0  0  0  0  0  0  0  0
   -2.9009    1.6299    0.0035 O   0  0  0  0  0  0  0  0  0  0  0  0
   -0.3595    0.3370    0.3385 C   0  0  2  0  0  0  0  0  0  0  0  0
   -0.6784    1.5356    1.0203 O   0  0  0  0  0  0  0  0  0  0  0  0
    0.4521    0.7128   -0.8891 C   0  0  0  0  0  0  0  0  0  0  0  0
    1.5863    0.9120    0.1293 C   0  0  2  0  0  0  0  0  0  0  0  0
    2.8828    0.3019   -0.2297 C   0  0  0  0  0  0  0  0  0  0  0  0
    2.7027   -1.0454   -0.3244 O   0  0  0  0  0  0  0  0  0  0  0  0
    1.5144   -1.4128    0.2709 C   0  0  0  0  0  0  0  0  0  0  0  0
    0.8884   -0.2322    0.8934 C   0  0  2  0  0  0  0  0  0  0  0  0
   -2.3359   -1.9002   -1.0416 H   0  0  0  0  0  0  0  0  0  0  0  0
   -1.3235   -2.4776    0.1654 H   0  0  0  0  0  0  0  0  0  0  0  0
   -1.9807   -0.6922    1.1702 H   0  0  0  0  0  0  0  0  0  0  0  0
   -3.2896    2.3696   -0.5726 H   0  0  0  0  0  0  0  0  0  0  0  0
   -1.3276    1.3584    1.7337 H   0  0  0  0  0  0  0  0  0  0  0  0
    0.6775   -0.1382   -1.5445 H   0  0  0  0  0  0  0  0  0  0  0  0
    0.1326    1.6223   -1.3961 H   0  0  0  0  0  0  0  0  0  0  0  0
    1.5707    1.8708    0.6369 H   0  0  0  0  0  0  0  0  0  0  0  0
    3.6152    0.5442    0.5487 H   0  0  0  0  0  0  0  0  0  0  0  0
    3.2485    0.7732   -1.1677 H   0  0  0  0  0  0  0  0  0  0  0  0
    1.7902   -2.1373    1.0940 H   0  0  0  0  0  0  0  0  0  0  0  0
    0.9335   -1.9698   -0.4575 H   0  0  0  0  0  0  0  0  0  0  0  0
    1.0065   -0.1170    1.9994 H   0  0  0  0  0  0  0  0  0  0  0  0
  1  2  1  0
  2  3  1  0
  3  4  2  0
  3  5  1  0
  2  6  1  0
  6  7  1  1
  6  8  1  0
  8  9  1  0
  9 10  1  0
 10 11  1  0
 11 12  1  0
 12 13  1  0
 13  6  1  0
 13  9  1  0
  1 14  1  0
  1 15  1  0
  2 16  1  1
  5 17  1  0
  7 18  1  0
  8 19  1  0
  8 20  1  0
  9 21  1  1
 10 22  1  0
 10 23  1  0
 12 24  1  0
 12 25  1  0
 13 26  1  1
M  END
$$$$

     RDKit          3D

 26 27  0  0  0  0  0  0  0  0999 V2000
    2.0786   -1.7561   -0.2022 N   0  0  0  0  0  0  0  0  0  0  0  0
    1.4088   -0.5012   -0.4904 C   0  0  2  0  0  0  0  0  0  0  0  0
    2.4207    0.5834   -0.3605 C   0  0  0  0  0  0  0  0  0  0  0  0
    3.6252    0.3459   -0.0490 O   0  0  0  0  0  0  0  0  0  0  0  0
    2.1058    1.9238   -0.5730 O   0  0  0  0  0  0  0  0  0  0  0  0
    0.3308   -0.2286    0.5185 C   0  0  2  0  0  0  0  0  0  0  0  0
    0.8272   -0.1451    1.7976 O   0  0  0  0  0  0  0  0  0  0  0  0
   -0.8375   -1.2034    0.4832 C   0  0  0  0  0  0  0  0  0  0  0  0
   -1.7165   -0.0088    0.8525 C   0  0  2  0  0  0  0  0  0  0  0  0
   -2.8919    0.2159   -0.0239 C   0  0  0  0  0  0  0  0  0  0  0  0
   -2.5229    1.0780   -1.0475 O   0  0  0  0  0  0  0  0  0  0  0  0
   -1.1351    0.9287   -1.2113 C   0  0  0  0  0  0  0  0  0  0  0  0
   -0.6309    0.8615    0.1987 C   0  0  2  0  0  0  0  0  0  0  0  0
    2.7956   -1.6523    0.5645 H   0  0  0  0  0  0  0  0  0  0  0  0
    2.6025   -2.0627   -1.0491 H   0  0  0  0  0  0  0  0  0  0  0  0
    1.0596   -0.4922   -1.5276 H   0  0  0  0  0  0  0  0  0  0  0  0
    2.4945    2.6722   -0.0059 H   0  0  0  0  0  0  0  0  0  0  0  0
    0.9814   -1.0693    2.1190 H   0  0  0  0  0  0  0  0  0  0  0  0
   -0.8514   -1.9560    1.2699 H   0  0  0  0  0  0  0  0  0  0  0  0
   -1.1180   -1.5439   -0.5236 H   0  0  0  0  0  0  0  0  0  0  0  0
   -1.8039    0.1999    1.9141 H   0  0  0  0  0  0  0  0  0  0  0  0
   -3.3914   -0.7036   -0.3813 H   0  0  0  0  0  0  0  0  0  0  0  0
   -3.6762    0.7565    0.5820 H   0  0  0  0  0  0  0  0  0  0  0  0
   -0.8818    0.0591   -1.8246 H   0  0  0  0  0  0  0  0  0  0  0  0
   -0.7943    1.8662   -1.7131 H   0  0  0  0  0  0  0  0  0  0  0  0
   -0.4792    1.8321    0.6830 H   0  0  0  0  0  0  0  0  0  0  0  0
  1  2  1  0
  2  3  1  0
  3  4  2  0
  3  5  1  0
  2  6  1  0
  6  7  1  1
  6  8  1  0
  8  9  1  0
  9 10  1  0
 10 11  1  0
 11 12  1  0
 12 13  1  0
 13  6  1  0
 13  9  1  0
  1 14  1  0
  1 15  1  0
  2 16  1  6
  5 17  1  0
  7 18  1  0
  8 19  1  0
  8 20  1  0
  9 21  1  1
 10 22  1  0
 10 23  1  0
 12 24  1  0
 12 25  1  0
 13 26  1  1
M  END
$$$$

     RDKit          3D

 26 27  0  0  0  0  0  0  0  0999 V2000
    2.2948   -0.4034   -1.5027 N   0  0  0  0  0  0  0  0  0  0  0  0
    1.6089    0.1447   -0.3431 C   0  0  2  0  0  0  0  0  0  0  0  0
    2.4685   -0.1327    0.8356 C   0  0  0  0  0  0  0  0  0  0  0  0
    3.5689   -0.7386    0.7318 O   0  0  0  0  0  0  0  0  0  0  0  0
    2.1209    0.2538    2.1235 O   0  0  0  0  0  0  0  0  0  0  0  0
    0.2990   -0.5840   -0.2267 C   0  0  2  0  0  0  0  0  0  0  0  0
    0.4277   -1.9553   -0.0592 O   0  0  0  0  0  0  0  0  0  0  0  0
   -0.7029   -0.2926   -1.3229 C   0  0  0  0  0  0  0  0  0  0  0  0
   -1.7693   -0.5536   -0.2484 C   0  0  2  0  0  0  0  0  0  0  0  0
   -2.8202    0.4890   -0.1493 C   0  0  0  0  0  0  0  0  0  0  0  0
   -2.1083    1.6629   -0.0906 O   0  0  0  0  0  0  0  0  0  0  0  0
   -0.9809    1.4394    0.6893 C   0  0  0  0  0  0  0  0  0  0  0  0
   -0.7103   -0.0203    0.7318 C   0  0  2  0  0  0  0  0  0  0  0  0
    2.0538    0.0845   -2.3853 H   0  0  0  0  0  0  0  0  0  0  0  0
    2.1855   -1.4277   -1.5760 H   0  0  0  0  0  0  0  0  0  0  0  0
    1.4931    1.2181   -0.5403 H   0  0  0  0  0  0  0  0  0  0  0  0
    2.8152    0.5802    2.7978 H   0  0  0  0  0  0  0  0  0  0  0  0
    0.3357   -2.1431    0.9034 H   0  0  0  0  0  0  0  0  0  0  0  0
   -0.7815    0.7846   -1.6112 H   0  0  0  0  0  0  0  0  0  0  0  0
   -0.7144   -1.0049   -2.1567 H   0  0  0  0  0  0  0  0  0  0  0  0
   -2.0364   -1.5946   -0.1061 H   0  0  0  0  0  0  0  0  0  0  0  0
   -3.3543    0.3655    0.8089 H   0  0  0  0  0  0  0  0  0  0  0  0
   -3.5099    0.5126   -1.0155 H   0  0  0  0  0  0  0  0  0  0  0  0
   -1.2550    1.7621    1.7241 H   0  0  0  0  0  0  0  0  0  0  0  0
   -0.1725    2.0620    0.2645 H   0  0  0  0  0  0  0  0  0  0  0  0
   -0.7558   -0.5086    1.7233 H   0  0  0  0  0  0  0  0  0  0  0  0
  1  2  1  0
  2  3  1  0
  3  4  2  0
  3  5  1  0
  2  6  1  0
  6  7  1  1
  6  8  1  0
  8  9  1  0
  9 10  1  0
 10 11  1  0
 11 12  1  0
 12 13  1  0
 13  6  1  0
 13  9  1  0
  1 14  1  0
  1 15  1  0
  2 16  1  6
  5 17  1  0
  7 18  1  0
  8 19  1  0
  8 20  1  0
  9 21  1  1
 10 22  1  0
 10 23  1  0
 12 24  1  0
 12 25  1  0
 13 26  1  1
M  END
$$$$

     RDKit          3D

 26 27  0  0  0  0  0  0  0  0999 V2000
   -1.8743   -1.7624   -1.1733 N   0  0  0  0  0  0  0  0  0  0  0  0
   -1.2620   -0.9364   -0.1611 C   0  0  2  0  0  0  0  0  0  0  0  0
   -2.3194   -0.2279    0.5927 C   0  0  0  0  0  0  0  0  0  0  0  0
   -3.5150   -0.4232    0.2774 O   0  0  0  0  0  0  0  0  0  0  0  0
   -2.0562    0.6442    1.6337 O   0  0  0  0  0  0  0  0  0  0  0  0
   -0.3656    0.1030   -0.7790 C   0  0  2  0  0  0  0  0  0  0  0  0
   -1.0814    0.9392   -1.6349 O   0  0  0  0  0  0  0  0  0  0  0  0
    0.8583   -0.4278   -1.4828 C   0  0  0  0  0  0  0  0  0  0  0  0
    1.6337    0.7368   -0.9035 C   0  0  2  0  0  0  0  0  0  0  0  0
    2.8056    0.3697   -0.0545 C   0  0  0  0  0  0  0  0  0  0  0  0
    2.4324    0.6458    1.2725 O   0  0  0  0  0  0  0  0  0  0  0  0
    1.0960    0.1873    1.3132 C   0  0  0  0  0  0  0  0  0  0  0  0
    0.5066    0.8789    0.1275 C   0  0  2  0  0  0  0  0  0  0  0  0
   -2.9231   -1.6921   -1.1702 H   0  0  0  0  0  0  0  0  0  0  0  0
   -1.5777   -1.5340   -2.1395 H   0  0  0  0  0  0  0  0  0  0  0  0
   -0.7024   -1.6260    0.5131 H   0  0  0  0  0  0  0  0  0  0  0  0
   -2.7547    0.7344    2.3551 H   0  0  0  0  0  0  0  0  0  0  0  0
   -1.3907    1.6998   -1.0777 H   0  0  0  0  0  0  0  0  0  0  0  0
    0.8057   -0.4359   -2.5912 H   0  0  0  0  0  0  0  0  0  0  0  0
    1.2587   -1.3775   -1.0540 H   0  0  0  0  0  0  0  0  0  0  0  0
    1.7191    1.6144   -1.5465 H   0  0  0  0  0  0  0  0  0  0  0  0
    3.0567   -0.7090   -0.1003 H   0  0  0  0  0  0  0  0  0  0  0  0
    3.6967    0.9617   -0.3535 H   0  0  0  0  0  0  0  0  0  0  0  0
    0.6566    0.6182    2.2344 H   0  0  0  0  0  0  0  0  0  0  0  0
    1.0501   -0.9100    1.2749 H   0  0  0  0  0  0  0  0  0  0  0  0
    0.2462    1.9288    0.3391 H   0  0  0  0  0  0  0  0  0  0  0  0
  1  2  1  0
  2  3  1  0
  3  4  2  0
  3  5  1  0
  2  6  1  0
  6  7  1  6
  6  8  1  0
  8  9  1  0
  9 10  1  0
 10 11  1  0
 11 12  1  0
 12 13  1  0
 13  6  1  0
 13  9  1  0
  1 14  1  0
  1 15  1  0
  2 16  1  1
  5 17  1  0
  7 18  1  0
  8 19  1  0
  8 20  1  0
  9 21  1  6
 10 22  1  0
 10 23  1  0
 12 24  1  0
 12 25  1  0
 13 26  1  1
M  END
$$$$

     RDKit          3D

 26 27  0  0  0  0  0  0  0  0999 V2000
    2.1339   -1.6616   -0.5122 N   0  0  0  0  0  0  0  0  0  0  0  0
    1.4819   -0.3486   -0.5719 C   0  0  2  0  0  0  0  0  0  0  0  0
    2.4917    0.6625   -0.1697 C   0  0  0  0  0  0  0  0  0  0  0  0
    3.6833    0.3366    0.1503 O   0  0  0  0  0  0  0  0  0  0  0  0
    2.2130    2.0212   -0.1140 O   0  0  0  0  0  0  0  0  0  0  0  0
    0.3647   -0.3749    0.4289 C   0  0  2  0  0  0  0  0  0  0  0  0
    0.7778   -0.6078    1.7396 O   0  0  0  0  0  0  0  0  0  0  0  0
   -0.7958   -1.2769    0.0896 C   0  0  0  0  0  0  0  0  0  0  0  0
   -1.6805   -0.2379    0.7939 C   0  0  2  0  0  0  0  0  0  0  0  0
   -2.8325    0.2460   -0.0201 C   0  0  0  0  0  0  0  0  0  0  0  0
   -2.2051    0.4872   -1.2649 O   0  0  0  0  0  0  0  0  0  0  0  0
   -1.0896    1.2388   -0.9286 C   0  0  0  0  0  0  0  0  0  0  0  0
   -0.5995    0.7775    0.3976 C   0  0  2  0  0  0  0  0  0  0  0  0
    1.4058   -2.3869   -0.4351 H   0  0  0  0  0  0  0  0  0  0  0  0
    2.7677   -1.6889    0.3307 H   0  0  0  0  0  0  0  0  0  0  0  0
    1.1081   -0.2311   -1.5854 H   0  0  0  0  0  0  0  0  0  0  0  0
    2.8622    2.7286   -0.4180 H   0  0  0  0  0  0  0  0  0  0  0  0
    0.6555   -1.5894    1.8975 H   0  0  0  0  0  0  0  0  0  0  0  0
   -1.0748   -1.3016   -0.9834 H   0  0  0  0  0  0  0  0  0  0  0  0
   -0.8155   -2.2373    0.6167 H   0  0  0  0  0  0  0  0  0  0  0  0
   -1.8145   -0.3849    1.8577 H   0  0  0  0  0  0  0  0  0  0  0  0
   -3.6650   -0.4486   -0.1108 H   0  0  0  0  0  0  0  0  0  0  0  0
   -3.1346    1.2607    0.3534 H   0  0  0  0  0  0  0  0  0  0  0  0
   -0.3711    1.1575   -1.7580 H   0  0  0  0  0  0  0  0  0  0  0  0
   -1.4317    2.3012   -0.8373 H   0  0  0  0  0  0  0  0  0  0  0  0
   -0.4354    1.5588    1.1645 H   0  0  0  0  0  0  0  0  0  0  0  0
  1  2  1  0
  2  3  1  0
  3  4  2  0
  3  5  1  0
  2  6  1  0
  6  7  1  1
  6  8  1  0
  8  9  1  0
  9 10  1  0
 10 11  1  0
 11 12  1  0
 12 13  1  0
 13  6  1  0
 13  9  1  0
  1 14  1  0
  1 15  1  0
  2 16  1  6
  5 17  1  0
  7 18  1  0
  8 19  1  0
  8 20  1  0
  9 21  1  1
 10 22  1  0
 10 23  1  0
 12 24  1  0
 12 25  1  0
 13 26  1  1
M  END
$$$$

     RDKit          3D

 26 27  0  0  0  0  0  0  0  0999 V2000
   -2.5093   -0.2915   -0.8937 N   0  0  0  0  0  0  0  0  0  0  0  0
   -1.6563   -0.1259    0.2999 C   0  0  2  0  0  0  0  0  0  0  0  0
   -1.6777    1.2697    0.6525 C   0  0  0  0  0  0  0  0  0  0  0  0
   -1.0746    1.7750    1.6547 O   0  0  0  0  0  0  0  0  0  0  0  0
   -2.3904    2.1912   -0.1148 O   0  0  0  0  0  0  0  0  0  0  0  0
   -0.3778   -0.8135    0.0774 C   0  0  2  0  0  0  0  0  0  0  0  0
   -0.6420   -2.1928   -0.1567 O   0  0  0  0  0  0  0  0  0  0  0  0
    0.5787   -0.7598    1.2477 C   0  0  0  0  0  0  0  0  0  0  0  0
    1.6890   -0.9288    0.2009 C   0  0  2  0  0  0  0  0  0  0  0  0
    2.7200    0.1305    0.3334 C   0  0  0  0  0  0  0  0  0  0  0  0
    2.2007    1.3008   -0.1270 O   0  0  0  0  0  0  0  0  0  0  0  0
    1.1102    1.0379   -0.9325 C   0  0  0  0  0  0  0  0  0  0  0  0
    0.6727   -0.3371   -0.7922 C   0  0  2  0  0  0  0  0  0  0  0  0
   -3.4737   -0.0045   -0.6589 H   0  0  0  0  0  0  0  0  0  0  0  0
   -2.4180   -1.2466   -1.2774 H   0  0  0  0  0  0  0  0  0  0  0  0
   -2.2145   -0.6966    1.1025 H   0  0  0  0  0  0  0  0  0  0  0  0
   -2.3372    3.1969    0.0427 H   0  0  0  0  0  0  0  0  0  0  0  0
   -0.6228   -2.3825   -1.1297 H   0  0  0  0  0  0  0  0  0  0  0  0
    0.5780   -1.6589    1.9107 H   0  0  0  0  0  0  0  0  0  0  0  0
    0.6050    0.1982    1.7545 H   0  0  0  0  0  0  0  0  0  0  0  0
    1.9909   -1.9490    0.0002 H   0  0  0  0  0  0  0  0  0  0  0  0
    3.6691   -0.0919   -0.1716 H   0  0  0  0  0  0  0  0  0  0  0  0
    2.9811    0.2521    1.4248 H   0  0  0  0  0  0  0  0  0  0  0  0
    0.3715    1.8363   -0.7242 H   0  0  0  0  0  0  0  0  0  0  0  0
    1.4527    1.2365   -1.9826 H   0  0  0  0  0  0  0  0  0  0  0  0
    0.7747   -0.9458   -1.7406 H   0  0  0  0  0  0  0  0  0  0  0  0
  1  2  1  0
  2  3  1  0
  3  4  2  0
  3  5  1  0
  2  6  1  0
  6  7  1  6
  6  8  1  0
  8  9  1  0
  9 10  1  0
 10 11  1  0
 11 12  1  0
 12 13  1  0
 13  6  1  0
 13  9  1  0
  1 14  1  0
  1 15  1  0
  2 16  1  1
  5 17  1  0
  7 18  1  0
  8 19  1  0
  8 20  1  0
  9 21  1  6
 10 22  1  0
 10 23  1  0
 12 24  1  0
 12 25  1  0
 13 26  1  6
M  END
$$$$

     RDKit          3D

 26 27  0  0  0  0  0  0  0  0999 V2000
    1.1715    0.0618    1.7204 N   0  0  0  0  0  0  0  0  0  0  0  0
    1.4847   -0.5479    0.4615 C   0  0  2  0  0  0  0  0  0  0  0  0
    2.6796    0.0663   -0.1376 C   0  0  0  0  0  0  0  0  0  0  0  0
    3.2617    0.9905    0.4641 O   0  0  0  0  0  0  0  0  0  0  0  0
    3.1715   -0.3576   -1.3521 O   0  0  0  0  0  0  0  0  0  0  0  0
    0.3566   -0.6290   -0.4981 C   0  0  2  0  0  0  0  0  0  0  0  0
    0.7733   -1.2391   -1.6898 O   0  0  0  0  0  0  0  0  0  0  0  0
   -0.4231    0.6052   -0.8010 C   0  0  0  0  0  0  0  0  0  0  0  0
   -1.6404   -0.3191   -0.9724 C   0  0  2  0  0  0  0  0  0  0  0  0
   -2.8338    0.0492   -0.1673 C   0  0  0  0  0  0  0  0  0  0  0  0
   -2.8362   -0.7562    0.9836 O   0  0  0  0  0  0  0  0  0  0  0  0
   -1.4560   -0.8170    1.3010 C   0  0  0  0  0  0  0  0  0  0  0  0
   -0.8955   -1.2671   -0.0178 C   0  0  2  0  0  0  0  0  0  0  0  0
    1.9709   -0.1409    2.3708 H   0  0  0  0  0  0  0  0  0  0  0  0
    1.0463    1.0956    1.6542 H   0  0  0  0  0  0  0  0  0  0  0  0
    1.7781   -1.6142    0.7024 H   0  0  0  0  0  0  0  0  0  0  0  0
    4.0788   -0.0249   -1.7001 H   0  0  0  0  0  0  0  0  0  0  0  0
    1.0083   -2.1573   -1.4741 H   0  0  0  0  0  0  0  0  0  0  0  0
   -0.5351    1.3494    0.0001 H   0  0  0  0  0  0  0  0  0  0  0  0
   -0.2324    1.0979   -1.7744 H   0  0  0  0  0  0  0  0  0  0  0  0
   -1.7806   -0.7075   -1.9770 H   0  0  0  0  0  0  0  0  0  0  0  0
   -2.8943    1.0926    0.1459 H   0  0  0  0  0  0  0  0  0  0  0  0
   -3.7444   -0.2682   -0.7448 H   0  0  0  0  0  0  0  0  0  0  0  0
   -1.1908    0.2217    1.5684 H   0  0  0  0  0  0  0  0  0  0  0  0
   -1.2676   -1.4969    2.1336 H   0  0  0  0  0  0  0  0  0  0  0  0
   -1.0511   -2.3218   -0.1993 H   0  0  0  0  0  0  0  0  0  0  0  0
  1  2  1  0
  2  3  1  0
  3  4  2  0
  3  5  1  0
  2  6  1  0
  6  7  1  6
  6  8  1  0
  8  9  1  0
  9 10  1  0
 10 11  1  0
 11 12  1  0
 12 13  1  0
 13  6  1  0
 13  9  1  0
  1 14  1  0
  1 15  1  0
  2 16  1  1
  5 17  1  0
  7 18  1  0
  8 19  1  0
  8 20  1  0
  9 21  1  6
 10 22  1  0
 10 23  1  0
 12 24  1  0
 12 25  1  0
 13 26  1  6
M  END
$$$$
