
     RDKit          3D

 21 21  0  0  0  0  0  0  0  0999 V2000
   -3.1990    0.4728    1.1957 N   0  0  0  0  0  0  0  0  0  0  0  0
   -1.7921    0.4399    1.0849 C   0  0  0  0  0  0  0  0  0  0  0  0
   -1.1061    0.9840    1.9746 O   0  0  0  0  0  0  0  0  0  0  0  0
   -1.1541   -0.2061   -0.0289 C   0  0  1  0  0  0  0  0  0  0  0  0
   -1.0980    0.5958   -1.3380 C   0  0  0  0  0  0  0  0  0  0  0  0
    0.0298   -0.4132   -1.5588 C   0  0  0  0  0  0  0  0  0  0  0  0
    0.2730   -0.2248   -0.1165 N   0  0  0  0  0  0  0  0  0  0  0  0
    1.4436   -0.1288    0.6576 C   0  0  0  0  0  0  0  0  0  0  0  0
    1.3543    0.0350    1.8999 O   0  0  0  0  0  0  0  0  0  0  0  0
    2.7871   -0.2155    0.0491 C   0  0  0  0  0  0  0  0  0  0  0  0
    3.7974   -0.0991    0.9711 O   0  0  0  0  0  0  0  0  0  0  0  0
   -3.7978   -0.3699    1.2706 H   0  0  0  0  0  0  0  0  0  0  0  0
   -3.6935    1.4003    1.2049 H   0  0  0  0  0  0  0  0  0  0  0  0
   -1.5613   -1.2169   -0.2772 H   0  0  0  0  0  0  0  0  0  0  0  0
   -1.9829    0.4467   -1.9478 H   0  0  0  0  0  0  0  0  0  0  0  0
   -0.7381    1.6157   -1.1806 H   0  0  0  0  0  0  0  0  0  0  0  0
    0.8318   -0.0951   -2.2064 H   0  0  0  0  0  0  0  0  0  0  0  0
   -0.4211   -1.4075   -1.7226 H   0  0  0  0  0  0  0  0  0  0  0  0
    2.9488    0.5529   -0.7366 H   0  0  0  0  0  0  0  0  0  0  0  0
    2.9128   -1.1988   -0.4615 H   0  0  0  0  0  0  0  0  0  0  0  0
    4.1653   -0.9673    1.2665 H   0  0  0  0  0  0  0  0  0  0  0  0
  1  2  1  0
  2  3  2  0
  2  4  1  0
  4  5  1  0
  5  6  1  0
  6  7  1  0
  7  8  1  0
  8  9  2  0
  8 10  1  0
 10 11  1  0
  7  4  1  0
  1 12  1  0
  1 13  1  0
  4 14  1  6
  5 15  1  0
  5 16  1  0
  6 17  1  0
  6 18  1  0
 10 19  1  0
 10 20  1  0
 11 21  1  0
M  END
$$$$

     RDKit          3D

 21 21  0  0  0  0  0  0  0  0999 V2000
   -3.2694    0.7693   -0.0482 N   0  0  0  0  0  0  0  0  0  0  0  0
   -1.8780    0.7640   -0.3011 C   0  0  0  0  0  0  0  0  0  0  0  0
   -1.4576    1.4786   -1.2541 O   0  0  0  0  0  0  0  0  0  0  0  0
   -0.9903   -0.0525    0.5331 C   0  0  1  0  0  0  0  0  0  0  0  0
   -1.0204   -1.5308    0.2999 C   0  0  0  0  0  0  0  0  0  0  0  0
    0.3425   -1.3085   -0.3067 C   0  0  0  0  0  0  0  0  0  0  0  0
    0.4098    0.0364    0.1636 N   0  0  0  0  0  0  0  0  0  0  0  0
    1.3619    1.0673    0.2657 C   0  0  0  0  0  0  0  0  0  0  0  0
    1.0957    2.1969    0.7532 O   0  0  0  0  0  0  0  0  0  0  0  0
    2.7685    0.8764   -0.2073 C   0  0  0  0  0  0  0  0  0  0  0  0
    2.9444   -0.3985   -0.7217 O   0  0  0  0  0  0  0  0  0  0  0  0
   -3.6843    1.5820    0.4411 H   0  0  0  0  0  0  0  0  0  0  0  0
   -3.8362   -0.0371   -0.3579 H   0  0  0  0  0  0  0  0  0  0  0  0
   -1.0941    0.2106    1.6111 H   0  0  0  0  0  0  0  0  0  0  0  0
   -1.0601   -2.1321    1.2132 H   0  0  0  0  0  0  0  0  0  0  0  0
   -1.8133   -1.8168   -0.4367 H   0  0  0  0  0  0  0  0  0  0  0  0
    1.0854   -1.9976    0.1388 H   0  0  0  0  0  0  0  0  0  0  0  0
    0.3279   -1.4222   -1.3888 H   0  0  0  0  0  0  0  0  0  0  0  0
    3.4651    1.0811    0.6171 H   0  0  0  0  0  0  0  0  0  0  0  0
    2.9971    1.6001   -1.0286 H   0  0  0  0  0  0  0  0  0  0  0  0
    3.3055   -0.9665    0.0146 H   0  0  0  0  0  0  0  0  0  0  0  0
  1  2  1  0
  2  3  2  0
  2  4  1  0
  4  5  1  0
  5  6  1  0
  6  7  1  0
  7  8  1  0
  8  9  2  0
  8 10  1  0
 10 11  1  0
  7  4  1  0
  1 12  1  0
  1 13  1  0
  4 14  1  1
  5 15  1  0
  5 16  1  0
  6 17  1  0
  6 18  1  0
 10 19  1  0
 10 20  1  0
 11 21  1  0
M  END
$$$$

     RDKit          3D

 21 21  0  0  0  0  0  0  0  0999 V2000
   -1.2870    1.2038   -1.7926 N   0  0  0  0  0  0  0  0  0  0  0  0
   -1.7969    0.6544   -0.5844 C   0  0  0  0  0  0  0  0  0  0  0  0
   -2.9780    0.9619   -0.2774 O   0  0  0  0  0  0  0  0  0  0  0  0
   -1.0576   -0.2330    0.3193 C   0  0  1  0  0  0  0  0  0  0  0  0
   -1.4789   -1.6740    0.1123 C   0  0  0  0  0  0  0  0  0  0  0  0
   -0.2366   -1.7450   -0.7131 C   0  0  0  0  0  0  0  0  0  0  0  0
    0.2848   -0.5674   -0.0535 N   0  0  0  0  0  0  0  0  0  0  0  0
    1.6160   -0.0655    0.0895 C   0  0  0  0  0  0  0  0  0  0  0  0
    2.5899   -0.6848   -0.4128 O   0  0  0  0  0  0  0  0  0  0  0  0
    1.8992    1.1884    0.8257 C   0  0  0  0  0  0  0  0  0  0  0  0
    3.2654    1.4307    0.8045 O   0  0  0  0  0  0  0  0  0  0  0  0
   -1.3106    0.6815   -2.7076 H   0  0  0  0  0  0  0  0  0  0  0  0
   -0.8777    2.1617   -1.7526 H   0  0  0  0  0  0  0  0  0  0  0  0
   -1.1491    0.0067    1.4068 H   0  0  0  0  0  0  0  0  0  0  0  0
   -1.4877   -2.2943    1.0366 H   0  0  0  0  0  0  0  0  0  0  0  0
   -2.4022   -1.7805   -0.4967 H   0  0  0  0  0  0  0  0  0  0  0  0
   -0.4118   -1.5953   -1.8064 H   0  0  0  0  0  0  0  0  0  0  0  0
    0.3347   -2.6776   -0.5261 H   0  0  0  0  0  0  0  0  0  0  0  0
    1.6196    1.0972    1.9102 H   0  0  0  0  0  0  0  0  0  0  0  0
    1.3037    2.0429    0.4455 H   0  0  0  0  0  0  0  0  0  0  0  0
    3.5609    1.8881   -0.0150 H   0  0  0  0  0  0  0  0  0  0  0  0
  1  2  1  0
  2  3  2  0
  2  4  1  0
  4  5  1  0
  5  6  1  0
  6  7  1  0
  7  8  1  0
  8  9  2  0
  8 10  1  0
 10 11  1  0
  7  4  1  0
  1 12  1  0
  1 13  1  0
  4 14  1  1
  5 15  1  0
  5 16  1  0
  6 17  1  0
  6 18  1  0
 10 19  1  0
 10 20  1  0
 11 21  1  0
M  END
$$$$

     RDKit          3D

 21 21  0  0  0  0  0  0  0  0999 V2000
   -2.5727    1.5429   -0.2906 N   0  0  0  0  0  0  0  0  0  0  0  0
   -1.3560    0.9085   -0.6266 C   0  0  0  0  0  0  0  0  0  0  0  0
   -0.7964    1.2112   -1.7019 O   0  0  0  0  0  0  0  0  0  0  0  0
   -0.7717   -0.0869    0.2820 C   0  0  1  0  0  0  0  0  0  0  0  0
   -1.5025   -1.4213    0.1199 C   0  0  0  0  0  0  0  0  0  0  0  0
   -0.1811   -1.9472   -0.3955 C   0  0  0  0  0  0  0  0  0  0  0  0
    0.4626   -0.6797   -0.1373 N   0  0  0  0  0  0  0  0  0  0  0  0
    1.7944   -0.2280   -0.2596 C   0  0  0  0  0  0  0  0  0  0  0  0
    2.6976   -0.9982   -0.6683 O   0  0  0  0  0  0  0  0  0  0  0  0
    2.1802    1.1780    0.0907 C   0  0  0  0  0  0  0  0  0  0  0  0
    3.5427    1.3793   -0.1137 O   0  0  0  0  0  0  0  0  0  0  0  0
   -3.5053    1.1072   -0.4460 H   0  0  0  0  0  0  0  0  0  0  0  0
   -2.5304    2.4925    0.1329 H   0  0  0  0  0  0  0  0  0  0  0  0
   -0.7956    0.2038    1.3630 H   0  0  0  0  0  0  0  0  0  0  0  0
   -2.2828   -1.4244   -0.6523 H   0  0  0  0  0  0  0  0  0  0  0  0
   -1.8567   -1.8691    1.0591 H   0  0  0  0  0  0  0  0  0  0  0  0
    0.2013   -2.7934    0.2428 H   0  0  0  0  0  0  0  0  0  0  0  0
   -0.2185   -2.2696   -1.4419 H   0  0  0  0  0  0  0  0  0  0  0  0
    1.5582    1.9027   -0.4614 H   0  0  0  0  0  0  0  0  0  0  0  0
    1.9439    1.2957    1.1738 H   0  0  0  0  0  0  0  0  0  0  0  0
    3.9888    0.4958   -0.1639 H   0  0  0  0  0  0  0  0  0  0  0  0
  1  2  1  0
  2  3  2  0
  2  4  1  0
  4  5  1  0
  5  6  1  0
  6  7  1  0
  7  8  1  0
  8  9  2  0
  8 10  1  0
 10 11  1  0
  7  4  1  0
  1 12  1  0
  1 13  1  0
  4 14  1  1
  5 15  1  0
  5 16  1  0
  6 17  1  0
  6 18  1  0
 10 19  1  0
 10 20  1  0
 11 21  1  0
M  END
$$$$

     RDKit          3D

 21 21  0  0  0  0  0  0  0  0999 V2000
   -1.8316    1.6234    0.0493 N   0  0  0  0  0  0  0  0  0  0  0  0
   -2.0719    0.3164    0.5350 C   0  0  0  0  0  0  0  0  0  0  0  0
   -3.2158    0.0402    0.9805 O   0  0  0  0  0  0  0  0  0  0  0  0
   -1.0623   -0.7629    0.5573 C   0  0  1  0  0  0  0  0  0  0  0  0
   -1.2481   -1.6419   -0.6806 C   0  0  0  0  0  0  0  0  0  0  0  0
    0.2637   -1.7426   -0.5748 C   0  0  0  0  0  0  0  0  0  0  0  0
    0.2334   -0.4343    0.0479 N   0  0  0  0  0  0  0  0  0  0  0  0
    1.0844    0.6882    0.1343 C   0  0  0  0  0  0  0  0  0  0  0  0
    0.7434    1.7010    0.7786 O   0  0  0  0  0  0  0  0  0  0  0  0
    2.4165    0.7064   -0.5377 C   0  0  0  0  0  0  0  0  0  0  0  0
    3.0654    1.9160   -0.3077 O   0  0  0  0  0  0  0  0  0  0  0  0
   -1.8995    2.4546    0.6728 H   0  0  0  0  0  0  0  0  0  0  0  0
   -1.5831    1.7291   -0.9577 H   0  0  0  0  0  0  0  0  0  0  0  0
   -1.0287   -1.3884    1.4566 H   0  0  0  0  0  0  0  0  0  0  0  0
   -1.7960   -2.5702   -0.4972 H   0  0  0  0  0  0  0  0  0  0  0  0
   -1.5817   -1.0208   -1.5326 H   0  0  0  0  0  0  0  0  0  0  0  0
    0.5512   -2.4953    0.1890 H   0  0  0  0  0  0  0  0  0  0  0  0
    0.7979   -1.8070   -1.5246 H   0  0  0  0  0  0  0  0  0  0  0  0
    2.3322    0.5202   -1.6310 H   0  0  0  0  0  0  0  0  0  0  0  0
    3.0336   -0.0844   -0.0429 H   0  0  0  0  0  0  0  0  0  0  0  0
    2.7970    2.2525    0.5896 H   0  0  0  0  0  0  0  0  0  0  0  0
  1  2  1  0
  2  3  2  0
  2  4  1  0
  4  5  1  0
  5  6  1  0
  6  7  1  0
  7  8  1  0
  8  9  2  0
  8 10  1  0
 10 11  1  0
  7  4  1  0
  1 12  1  0
  1 13  1  0
  4 14  1  1
  5 15  1  0
  5 16  1  0
  6 17  1  0
  6 18  1  0
 10 19  1  0
 10 20  1  0
 11 21  1  0
M  END
$$$$

     RDKit          3D

 21 21  0  0  0  0  0  0  0  0999 V2000
   -2.5933    1.2072   -0.9676 N   0  0  0  0  0  0  0  0  0  0  0  0
   -1.3971    0.4499   -0.9187 C   0  0  0  0  0  0  0  0  0  0  0  0
   -0.8970    0.0079   -1.9596 O   0  0  0  0  0  0  0  0  0  0  0  0
   -0.7671    0.2029    0.3917 C   0  0  1  0  0  0  0  0  0  0  0  0
   -1.4369   -0.8950    1.1835 C   0  0  0  0  0  0  0  0  0  0  0  0
   -0.2779   -1.7643    0.7334 C   0  0  0  0  0  0  0  0  0  0  0  0
    0.4517   -0.5826    0.3219 N   0  0  0  0  0  0  0  0  0  0  0  0
    1.7993   -0.3378   -0.0046 C   0  0  0  0  0  0  0  0  0  0  0  0
    2.6569   -1.2402    0.0245 O   0  0  0  0  0  0  0  0  0  0  0  0
    2.2171    1.0476   -0.3987 C   0  0  0  0  0  0  0  0  0  0  0  0
    3.5686    1.0870   -0.6800 O   0  0  0  0  0  0  0  0  0  0  0  0
   -3.4972    0.8111   -1.3410 H   0  0  0  0  0  0  0  0  0  0  0  0
   -2.5945    2.1911   -0.6261 H   0  0  0  0  0  0  0  0  0  0  0  0
   -0.6629    1.1000    1.0105 H   0  0  0  0  0  0  0  0  0  0  0  0
   -2.3933   -1.2262    0.7068 H   0  0  0  0  0  0  0  0  0  0  0  0
   -1.4991   -0.7130    2.2586 H   0  0  0  0  0  0  0  0  0  0  0  0
    0.1618   -2.2754    1.6136 H   0  0  0  0  0  0  0  0  0  0  0  0
   -0.5033   -2.4165   -0.1295 H   0  0  0  0  0  0  0  0  0  0  0  0
    1.6099    1.3458   -1.2531 H   0  0  0  0  0  0  0  0  0  0  0  0
    2.0038    1.7250    0.4681 H   0  0  0  0  0  0  0  0  0  0  0  0
    4.0506    0.2754   -0.4336 H   0  0  0  0  0  0  0  0  0  0  0  0
  1  2  1  0
  2  3  2  0
  2  4  1  0
  4  5  1  0
  5  6  1  0
  6  7  1  0
  7  8  1  0
  8  9  2  0
  8 10  1  0
 10 11  1  0
  7  4  1  0
  1 12  1  0
  1 13  1  0
  4 14  1  1
  5 15  1  0
  5 16  1  0
  6 17  1  0
  6 18  1  0
 10 19  1  0
 10 20  1  0
 11 21  1  0
M  END
$$$$

     RDKit          3D

 21 21  0  0  0  0  0  0  0  0999 V2000
   -1.5469   -0.4237   -1.6360 N   0  0  0  0  0  0  0  0  0  0  0  0
   -1.8880    0.2854   -0.4830 C   0  0  0  0  0  0  0  0  0  0  0  0
   -3.0783    0.7373   -0.4071 O   0  0  0  0  0  0  0  0  0  0  0  0
   -1.0201    0.5528    0.6304 C   0  0  1  0  0  0  0  0  0  0  0  0
   -1.2018   -0.5197    1.7379 C   0  0  0  0  0  0  0  0  0  0  0  0
    0.1608    0.0045    2.1077 C   0  0  0  0  0  0  0  0  0  0  0  0
    0.3653    0.1922    0.6393 N   0  0  0  0  0  0  0  0  0  0  0  0
    1.5473    0.0262   -0.0906 C   0  0  0  0  0  0  0  0  0  0  0  0
    2.6116   -0.3257    0.5380 O   0  0  0  0  0  0  0  0  0  0  0  0
    1.5967    0.2482   -1.5511 C   0  0  0  0  0  0  0  0  0  0  0  0
    2.9553    0.2032   -1.9792 O   0  0  0  0  0  0  0  0  0  0  0  0
   -1.3081    0.1072   -2.5074 H   0  0  0  0  0  0  0  0  0  0  0  0
   -1.5155   -1.4658   -1.6810 H   0  0  0  0  0  0  0  0  0  0  0  0
   -1.1235    1.5845    1.0621 H   0  0  0  0  0  0  0  0  0  0  0  0
   -2.0212   -0.2928    2.4228 H   0  0  0  0  0  0  0  0  0  0  0  0
   -1.1413   -1.5118    1.2971 H   0  0  0  0  0  0  0  0  0  0  0  0
    0.8270   -0.7161    2.5711 H   0  0  0  0  0  0  0  0  0  0  0  0
    0.0783    1.0064    2.5576 H   0  0  0  0  0  0  0  0  0  0  0  0
    1.0840   -0.5881   -2.0864 H   0  0  0  0  0  0  0  0  0  0  0  0
    1.1764    1.2019   -1.8484 H   0  0  0  0  0  0  0  0  0  0  0  0
    3.4418   -0.3061   -1.2939 H   0  0  0  0  0  0  0  0  0  0  0  0
  1  2  1  0
  2  3  2  0
  2  4  1  0
  4  5  1  0
  5  6  1  0
  6  7  1  0
  7  8  1  0
  8  9  2  0
  8 10  1  0
 10 11  1  0
  7  4  1  0
  1 12  1  0
  1 13  1  0
  4 14  1  1
  5 15  1  0
  5 16  1  0
  6 17  1  0
  6 18  1  0
 10 19  1  0
 10 20  1  0
 11 21  1  0
M  END
$$$$

     RDKit          3D

 21 21  0  0  0  0  0  0  0  0999 V2000
   -2.8150    1.1160   -0.0137 N   0  0  0  0  0  0  0  0  0  0  0  0
   -1.4963    0.7735   -0.4011 C   0  0  0  0  0  0  0  0  0  0  0  0
   -1.0373    1.3788   -1.3925 O   0  0  0  0  0  0  0  0  0  0  0  0
   -0.8217   -0.2493    0.4027 C   0  0  1  0  0  0  0  0  0  0  0  0
   -1.2585   -1.6212   -0.1437 C   0  0  0  0  0  0  0  0  0  0  0  0
    0.1068   -2.0205    0.2732 C   0  0  0  0  0  0  0  0  0  0  0  0
    0.5188   -0.6105    0.1378 N   0  0  0  0  0  0  0  0  0  0  0  0
    1.8056   -0.0861   -0.1372 C   0  0  0  0  0  0  0  0  0  0  0  0
    2.8164   -0.8525   -0.3164 O   0  0  0  0  0  0  0  0  0  0  0  0
    2.0827    1.3586   -0.2355 C   0  0  0  0  0  0  0  0  0  0  0  0
    3.4483    1.6045   -0.4364 O   0  0  0  0  0  0  0  0  0  0  0  0
   -2.9820    1.8916    0.6403 H   0  0  0  0  0  0  0  0  0  0  0  0
   -3.6044    0.5791   -0.3948 H   0  0  0  0  0  0  0  0  0  0  0  0
   -1.1071   -0.1726    1.4844 H   0  0  0  0  0  0  0  0  0  0  0  0
   -2.1093   -2.0262    0.4330 H   0  0  0  0  0  0  0  0  0  0  0  0
   -1.4170   -1.6273   -1.2303 H   0  0  0  0  0  0  0  0  0  0  0  0
    0.1268   -2.2512    1.3731 H   0  0  0  0  0  0  0  0  0  0  0  0
    0.6644   -2.7179   -0.3620 H   0  0  0  0  0  0  0  0  0  0  0  0
    1.5922    1.8542   -1.1110 H   0  0  0  0  0  0  0  0  0  0  0  0
    1.8130    1.8804    0.7099 H   0  0  0  0  0  0  0  0  0  0  0  0
    3.6736    1.7985   -1.3667 H   0  0  0  0  0  0  0  0  0  0  0  0
  1  2  1  0
  2  3  2  0
  2  4  1  0
  4  5  1  0
  5  6  1  0
  6  7  1  0
  7  8  1  0
  8  9  2  0
  8 10  1  0
 10 11  1  0
  7  4  1  0
  1 12  1  0
  1 13  1  0
  4 14  1  1
  5 15  1  0
  5 16  1  0
  6 17  1  0
  6 18  1  0
 10 19  1  0
 10 20  1  0
 11 21  1  0
M  END
$$$$
