
     RDKit          3D

 26 27  0  0  0  0  0  0  0  0999 V2000
    4.7847    0.4719   -0.6854 N   0  0  0  0  0  0  0  0  0  0  0  0
    3.6988    1.0408    0.0309 C   0  0  0  0  0  0  0  0  0  0  0  0
    3.8447    2.0949    0.6982 O   0  0  0  0  0  0  0  0  0  0  0  0
    2.4312    0.3811   -0.0271 N   0  0  0  0  0  0  0  0  0  0  0  0
    1.8683   -0.7966   -0.6505 C   0  0  0  0  0  0  0  0  0  0  0  0
    0.4963   -0.2063   -0.5395 C   0  0  0  0  0  0  0  0  0  0  0  0
   -0.5075   -1.0649    0.0415 N   0  0  0  0  0  0  0  0  0  0  0  0
   -1.8383   -0.5933    0.1885 C   0  0  0  0  0  0  0  0  0  0  0  0
   -2.2727    0.4597   -0.4142 N   0  0  0  0  0  0  0  0  0  0  0  0
   -3.6627    0.7143   -0.0884 C   0  0  0  0  0  0  0  0  0  0  0  0
   -3.8757   -0.0958    1.1822 C   0  0  0  0  0  0  0  0  0  0  0  0
   -2.8923   -1.1588    0.9845 N   0  0  0  0  0  0  0  0  0  0  0  0
    1.1466    0.6447    0.5437 C   0  0  0  0  0  0  0  0  0  0  0  0
    4.8959    0.7298   -1.6895 H   0  0  0  0  0  0  0  0  0  0  0  0
    5.4663   -0.1866   -0.2477 H   0  0  0  0  0  0  0  0  0  0  0  0
    2.0155   -1.7154   -0.0247 H   0  0  0  0  0  0  0  0  0  0  0  0
    2.1480   -0.9292   -1.7191 H   0  0  0  0  0  0  0  0  0  0  0  0
    0.1789    0.3802   -1.4121 H   0  0  0  0  0  0  0  0  0  0  0  0
   -0.2500   -2.0192    0.3471 H   0  0  0  0  0  0  0  0  0  0  0  0
   -4.3197    0.2823   -0.8968 H   0  0  0  0  0  0  0  0  0  0  0  0
   -3.8724    1.7905    0.0598 H   0  0  0  0  0  0  0  0  0  0  0  0
   -4.8885   -0.4865    1.2805 H   0  0  0  0  0  0  0  0  0  0  0  0
   -3.5696    0.5544    2.0506 H   0  0  0  0  0  0  0  0  0  0  0  0
   -2.9043   -2.1421    1.3282 H   0  0  0  0  0  0  0  0  0  0  0  0
    0.8116    1.7026    0.5416 H   0  0  0  0  0  0  0  0  0  0  0  0
    1.0671    0.1476    1.5466 H   0  0  0  0  0  0  0  0  0  0  0  0
  1  2  1  0
  2  3  2  0
  2  4  1  0
  4  5  1  0
  5  6  1  0
  6  7  1  0
  7  8  1  0
  8  9  2  0
  9 10  1  0
 10 11  1  0
 11 12  1  0
  6 13  1  0
 13  4  1  0
 12  8  1  0
  1 14  1  0
  1 15  1  0
  5 16  1  0
  5 17  1  0
  6 18  1  0
  7 19  1  0
 10 20  1  0
 10 21  1  0
 11 22  1  0
 11 23  1  0
 12 24  1  0
 13 25  1  0
 13 26  1  0
M  END
$$$$

     RDKit          3D

 26 27  0  0  0  0  0  0  0  0999 V2000
    4.5435    0.1886   -0.9231 N   0  0  0  0  0  0  0  0  0  0  0  0
    3.5657    0.7691   -0.0933 C   0  0  0  0  0  0  0  0  0  0  0  0
    3.7588    1.9476    0.2984 O   0  0  0  0  0  0  0  0  0  0  0  0
    2.3904    0.1117    0.3217 N   0  0  0  0  0  0  0  0  0  0  0  0
    1.8350   -1.2137    0.0816 C   0  0  0  0  0  0  0  0  0  0  0  0
    0.4815   -0.7198    0.5312 C   0  0  0  0  0  0  0  0  0  0  0  0
   -0.4027   -0.5288   -0.5424 N   0  0  0  0  0  0  0  0  0  0  0  0
   -1.7316   -0.0669   -0.3388 C   0  0  0  0  0  0  0  0  0  0  0  0
   -2.1423    0.4560    0.7324 N   0  0  0  0  0  0  0  0  0  0  0  0
   -3.5459    0.8312    0.6486 C   0  0  0  0  0  0  0  0  0  0  0  0
   -4.0152    0.1082   -0.5819 C   0  0  0  0  0  0  0  0  0  0  0  0
   -2.7638   -0.1308   -1.2990 N   0  0  0  0  0  0  0  0  0  0  0  0
    1.2378    0.3958    1.1281 C   0  0  0  0  0  0  0  0  0  0  0  0
    4.3395   -0.4139   -1.7431 H   0  0  0  0  0  0  0  0  0  0  0  0
    5.5539    0.3703   -0.7082 H   0  0  0  0  0  0  0  0  0  0  0  0
    2.2992   -1.9745    0.7076 H   0  0  0  0  0  0  0  0  0  0  0  0
    1.8816   -1.5190   -0.9977 H   0  0  0  0  0  0  0  0  0  0  0  0
    0.0618   -1.4371    1.2794 H   0  0  0  0  0  0  0  0  0  0  0  0
   -0.0517   -0.7399   -1.5230 H   0  0  0  0  0  0  0  0  0  0  0  0
   -3.6060    1.9221    0.4550 H   0  0  0  0  0  0  0  0  0  0  0  0
   -4.1179    0.5021    1.5238 H   0  0  0  0  0  0  0  0  0  0  0  0
   -4.7145    0.7302   -1.1464 H   0  0  0  0  0  0  0  0  0  0  0  0
   -4.4504   -0.8885   -0.3202 H   0  0  0  0  0  0  0  0  0  0  0  0
   -2.7103   -0.3078   -2.3206 H   0  0  0  0  0  0  0  0  0  0  0  0
    0.8283    1.4166    1.0532 H   0  0  0  0  0  0  0  0  0  0  0  0
    1.4753    0.1912    2.1991 H   0  0  0  0  0  0  0  0  0  0  0  0
  1  2  1  0
  2  3  2  0
  2  4  1  0
  4  5  1  0
  5  6  1  0
  6  7  1  0
  7  8  1  0
  8  9  2  0
  9 10  1  0
 10 11  1  0
 11 12  1  0
  6 13  1  0
 13  4  1  0
 12  8  1  0
  1 14  1  0
  1 15  1  0
  5 16  1  0
  5 17  1  0
  6 18  1  0
  7 19  1  0
 10 20  1  0
 10 21  1  0
 11 22  1  0
 11 23  1  0
 12 24  1  0
 13 25  1  0
 13 26  1  0
M  END
$$$$

     RDKit          3D

 26 27  0  0  0  0  0  0  0  0999 V2000
   -4.7865   -0.8497    0.0231 N   0  0  0  0  0  0  0  0  0  0  0  0
   -3.5422   -1.1998   -0.5415 C   0  0  0  0  0  0  0  0  0  0  0  0
   -3.4976   -1.9806   -1.5405 O   0  0  0  0  0  0  0  0  0  0  0  0
   -2.3179   -0.7143   -0.0395 N   0  0  0  0  0  0  0  0  0  0  0  0
   -0.9172   -0.8555   -0.3528 C   0  0  0  0  0  0  0  0  0  0  0  0
   -0.7273    0.5396    0.2011 C   0  0  0  0  0  0  0  0  0  0  0  0
    0.4908    0.7361    0.9470 N   0  0  0  0  0  0  0  0  0  0  0  0
    1.7524    0.5341    0.3227 C   0  0  0  0  0  0  0  0  0  0  0  0
    1.9769   -0.1629   -0.7308 N   0  0  0  0  0  0  0  0  0  0  0  0
    3.3717   -0.1552   -1.0916 C   0  0  0  0  0  0  0  0  0  0  0  0
    4.0022    0.8762   -0.1793 C   0  0  0  0  0  0  0  0  0  0  0  0
    2.9583    1.1050    0.8149 N   0  0  0  0  0  0  0  0  0  0  0  0
   -1.9316    0.1627    1.0409 C   0  0  0  0  0  0  0  0  0  0  0  0
   -5.0460   -1.1787    0.9629 H   0  0  0  0  0  0  0  0  0  0  0  0
   -5.4341   -0.2599   -0.5165 H   0  0  0  0  0  0  0  0  0  0  0  0
   -0.4747   -1.6585    0.2843 H   0  0  0  0  0  0  0  0  0  0  0  0
   -0.6555   -0.8996   -1.4139 H   0  0  0  0  0  0  0  0  0  0  0  0
   -0.9787    1.3048   -0.5330 H   0  0  0  0  0  0  0  0  0  0  0  0
    0.3884    1.0283    1.9474 H   0  0  0  0  0  0  0  0  0  0  0  0
    3.8533   -1.1414   -1.0098 H   0  0  0  0  0  0  0  0  0  0  0  0
    3.5393    0.2026   -2.1397 H   0  0  0  0  0  0  0  0  0  0  0  0
    4.1779    1.8368   -0.6968 H   0  0  0  0  0  0  0  0  0  0  0  0
    4.9165    0.4875    0.3119 H   0  0  0  0  0  0  0  0  0  0  0  0
    3.0806    1.6005    1.7247 H   0  0  0  0  0  0  0  0  0  0  0  0
   -2.6156    1.0066    1.2397 H   0  0  0  0  0  0  0  0  0  0  0  0
   -1.5834   -0.3645    1.9684 H   0  0  0  0  0  0  0  0  0  0  0  0
  1  2  1  0
  2  3  2  0
  2  4  1  0
  4  5  1  0
  5  6  1  0
  6  7  1  0
  7  8  1  0
  8  9  2  0
  9 10  1  0
 10 11  1  0
 11 12  1  0
  6 13  1  0
 13  4  1  0
 12  8  1  0
  1 14  1  0
  1 15  1  0
  5 16  1  0
  5 17  1  0
  6 18  1  0
  7 19  1  0
 10 20  1  0
 10 21  1  0
 11 22  1  0
 11 23  1  0
 12 24  1  0
 13 25  1  0
 13 26  1  0
M  END
$$$$

     RDKit          3D

 26 27  0  0  0  0  0  0  0  0999 V2000
   -4.0463    1.6876   -0.1854 N   0  0  0  0  0  0  0  0  0  0  0  0
   -3.7613    0.2987   -0.2716 C   0  0  0  0  0  0  0  0  0  0  0  0
   -4.7468   -0.4801   -0.3245 O   0  0  0  0  0  0  0  0  0  0  0  0
   -2.4341   -0.2109   -0.2985 N   0  0  0  0  0  0  0  0  0  0  0  0
   -1.1016    0.3268   -0.2595 C   0  0  0  0  0  0  0  0  0  0  0  0
   -0.5193   -0.9724   -0.8052 C   0  0  0  0  0  0  0  0  0  0  0  0
    0.5953   -1.3700    0.0307 N   0  0  0  0  0  0  0  0  0  0  0  0
    1.7117   -0.4974    0.1624 C   0  0  0  0  0  0  0  0  0  0  0  0
    1.8563    0.6047   -0.4691 N   0  0  0  0  0  0  0  0  0  0  0  0
    3.0890    1.2675   -0.1265 C   0  0  0  0  0  0  0  0  0  0  0  0
    3.9079    0.2079    0.6244 C   0  0  0  0  0  0  0  0  0  0  0  0
    2.8523   -0.7059    1.0185 N   0  0  0  0  0  0  0  0  0  0  0  0
   -1.8561   -1.5322   -0.3796 C   0  0  0  0  0  0  0  0  0  0  0  0
   -3.5661    2.3674   -0.8146 H   0  0  0  0  0  0  0  0  0  0  0  0
   -4.7389    2.0542    0.5065 H   0  0  0  0  0  0  0  0  0  0  0  0
   -0.8021    0.5496    0.7905 H   0  0  0  0  0  0  0  0  0  0  0  0
   -0.9753    1.1805   -0.9466 H   0  0  0  0  0  0  0  0  0  0  0  0
   -0.3324   -0.9771   -1.8865 H   0  0  0  0  0  0  0  0  0  0  0  0
    0.5338   -2.2942    0.5098 H   0  0  0  0  0  0  0  0  0  0  0  0
    2.9118    2.1290    0.5378 H   0  0  0  0  0  0  0  0  0  0  0  0
    3.6726    1.5558   -1.0386 H   0  0  0  0  0  0  0  0  0  0  0  0
    4.4267    0.6467    1.4980 H   0  0  0  0  0  0  0  0  0  0  0  0
    4.6017   -0.2873   -0.0851 H   0  0  0  0  0  0  0  0  0  0  0  0
    2.8931   -1.4022    1.7875 H   0  0  0  0  0  0  0  0  0  0  0  0
   -1.7987   -1.9982    0.6206 H   0  0  0  0  0  0  0  0  0  0  0  0
   -2.3729   -2.1485   -1.1613 H   0  0  0  0  0  0  0  0  0  0  0  0
  1  2  1  0
  2  3  2  0
  2  4  1  0
  4  5  1  0
  5  6  1  0
  6  7  1  0
  7  8  1  0
  8  9  2  0
  9 10  1  0
 10 11  1  0
 11 12  1  0
  6 13  1  0
 13  4  1  0
 12  8  1  0
  1 14  1  0
  1 15  1  0
  5 16  1  0
  5 17  1  0
  6 18  1  0
  7 19  1  0
 10 20  1  0
 10 21  1  0
 11 22  1  0
 11 23  1  0
 12 24  1  0
 13 25  1  0
 13 26  1  0
M  END
$$$$

     RDKit          3D

 26 27  0  0  0  0  0  0  0  0999 V2000
   -4.3540    1.0159   -0.4914 N   0  0  0  0  0  0  0  0  0  0  0  0
   -3.3477    0.1135   -0.8997 C   0  0  0  0  0  0  0  0  0  0  0  0
   -3.3962   -0.4171   -2.0355 O   0  0  0  0  0  0  0  0  0  0  0  0
   -2.2748   -0.2072   -0.0436 N   0  0  0  0  0  0  0  0  0  0  0  0
   -1.0933   -1.0563   -0.0992 C   0  0  0  0  0  0  0  0  0  0  0  0
   -0.5468   -0.3781    1.1573 C   0  0  0  0  0  0  0  0  0  0  0  0
    0.4991    0.5762    0.8626 N   0  0  0  0  0  0  0  0  0  0  0  0
    1.6974    0.1653    0.2160 C   0  0  0  0  0  0  0  0  0  0  0  0
    2.0770   -1.0632    0.1359 N   0  0  0  0  0  0  0  0  0  0  0  0
    3.3287   -1.1831   -0.5745 C   0  0  0  0  0  0  0  0  0  0  0  0
    3.8433    0.2482   -0.7440 C   0  0  0  0  0  0  0  0  0  0  0  0
    2.6452    1.0038   -0.4274 N   0  0  0  0  0  0  0  0  0  0  0  0
   -1.9264    0.2155    1.2950 C   0  0  0  0  0  0  0  0  0  0  0  0
   -5.3565    0.8516   -0.7355 H   0  0  0  0  0  0  0  0  0  0  0  0
   -4.1591    1.8860    0.0692 H   0  0  0  0  0  0  0  0  0  0  0  0
   -1.2910   -2.1237    0.0647 H   0  0  0  0  0  0  0  0  0  0  0  0
   -0.5016   -0.8034   -0.9860 H   0  0  0  0  0  0  0  0  0  0  0  0
   -0.2973   -1.0793    1.9684 H   0  0  0  0  0  0  0  0  0  0  0  0
    0.3648    1.5899    1.1338 H   0  0  0  0  0  0  0  0  0  0  0  0
    4.0899   -1.7141    0.0192 H   0  0  0  0  0  0  0  0  0  0  0  0
    3.1845   -1.6013   -1.5846 H   0  0  0  0  0  0  0  0  0  0  0  0
    4.5842    0.4856    0.0637 H   0  0  0  0  0  0  0  0  0  0  0  0
    4.2271    0.4366   -1.7517 H   0  0  0  0  0  0  0  0  0  0  0  0
    2.5071    2.0136   -0.6434 H   0  0  0  0  0  0  0  0  0  0  0  0
   -2.5910   -0.2942    2.0241 H   0  0  0  0  0  0  0  0  0  0  0  0
   -1.9126    1.3193    1.4499 H   0  0  0  0  0  0  0  0  0  0  0  0
  1  2  1  0
  2  3  2  0
  2  4  1  0
  4  5  1  0
  5  6  1  0
  6  7  1  0
  7  8  1  0
  8  9  2  0
  9 10  1  0
 10 11  1  0
 11 12  1  0
  6 13  1  0
 13  4  1  0
 12  8  1  0
  1 14  1  0
  1 15  1  0
  5 16  1  0
  5 17  1  0
  6 18  1  0
  7 19  1  0
 10 20  1  0
 10 21  1  0
 11 22  1  0
 11 23  1  0
 12 24  1  0
 13 25  1  0
 13 26  1  0
M  END
$$$$

     RDKit          3D

 26 27  0  0  0  0  0  0  0  0999 V2000
    4.8406   -0.1944    0.4510 N   0  0  0  0  0  0  0  0  0  0  0  0
    3.6630   -0.9603    0.4841 C   0  0  0  0  0  0  0  0  0  0  0  0
    3.7271   -2.1631    0.8276 O   0  0  0  0  0  0  0  0  0  0  0  0
    2.4246   -0.3677    0.1311 N   0  0  0  0  0  0  0  0  0  0  0  0
    1.0361   -0.8468    0.0527 C   0  0  0  0  0  0  0  0  0  0  0  0
    0.6112    0.5748    0.3607 C   0  0  0  0  0  0  0  0  0  0  0  0
   -0.5413    1.0423   -0.3635 N   0  0  0  0  0  0  0  0  0  0  0  0
   -1.8171    0.4133   -0.2699 C   0  0  0  0  0  0  0  0  0  0  0  0
   -2.0239   -0.7808    0.1534 N   0  0  0  0  0  0  0  0  0  0  0  0
   -3.4317   -1.1090    0.1197 C   0  0  0  0  0  0  0  0  0  0  0  0
   -4.0827    0.2574    0.0909 C   0  0  0  0  0  0  0  0  0  0  0  0
   -3.0755    1.0177   -0.6332 N   0  0  0  0  0  0  0  0  0  0  0  0
    1.9223    0.9225   -0.3033 C   0  0  0  0  0  0  0  0  0  0  0  0
    5.1947    0.2665    1.3032 H   0  0  0  0  0  0  0  0  0  0  0  0
    5.3593   -0.0902   -0.4345 H   0  0  0  0  0  0  0  0  0  0  0  0
    0.7526   -1.5612    0.8223 H   0  0  0  0  0  0  0  0  0  0  0  0
    0.7947   -1.1117   -1.0021 H   0  0  0  0  0  0  0  0  0  0  0  0
    0.6400    0.8001    1.4354 H   0  0  0  0  0  0  0  0  0  0  0  0
   -0.5026    1.8838   -1.0085 H   0  0  0  0  0  0  0  0  0  0  0  0
   -3.6683   -1.6525   -0.8184 H   0  0  0  0  0  0  0  0  0  0  0  0
   -3.7418   -1.6850    1.0173 H   0  0  0  0  0  0  0  0  0  0  0  0
   -4.1801    0.5871    1.1383 H   0  0  0  0  0  0  0  0  0  0  0  0
   -5.0416    0.2494   -0.4651 H   0  0  0  0  0  0  0  0  0  0  0  0
   -3.2412    1.8231   -1.2729 H   0  0  0  0  0  0  0  0  0  0  0  0
    1.9038    0.9430   -1.4120 H   0  0  0  0  0  0  0  0  0  0  0  0
    2.4777    1.7416    0.1804 H   0  0  0  0  0  0  0  0  0  0  0  0
  1  2  1  0
  2  3  2  0
  2  4  1  0
  4  5  1  0
  5  6  1  0
  6  7  1  0
  7  8  1  0
  8  9  2  0
  9 10  1  0
 10 11  1  0
 11 12  1  0
  6 13  1  0
 13  4  1  0
 12  8  1  0
  1 14  1  0
  1 15  1  0
  5 16  1  0
  5 17  1  0
  6 18  1  0
  7 19  1  0
 10 20  1  0
 10 21  1  0
 11 22  1  0
 11 23  1  0
 12 24  1  0
 13 25  1  0
 13 26  1  0
M  END
$$$$

     RDKit          3D

 26 27  0  0  0  0  0  0  0  0999 V2000
   -4.0397    1.2530   -0.7581 N   0  0  0  0  0  0  0  0  0  0  0  0
   -3.6776    0.2440    0.1693 C   0  0  0  0  0  0  0  0  0  0  0  0
   -4.5125   -0.0089    1.0810 O   0  0  0  0  0  0  0  0  0  0  0  0
   -2.4379   -0.4328    0.0599 N   0  0  0  0  0  0  0  0  0  0  0  0
   -1.7983   -1.4817    0.8307 C   0  0  0  0  0  0  0  0  0  0  0  0
   -0.4872   -1.1946    0.1797 C   0  0  0  0  0  0  0  0  0  0  0  0
    0.4398   -0.4439    0.9989 N   0  0  0  0  0  0  0  0  0  0  0  0
    1.7342   -0.0891    0.5229 C   0  0  0  0  0  0  0  0  0  0  0  0
    2.3631   -0.7152   -0.4353 N   0  0  0  0  0  0  0  0  0  0  0  0
    3.6539   -0.1082   -0.6796 C   0  0  0  0  0  0  0  0  0  0  0  0
    3.5578    1.2535    0.0018 C   0  0  0  0  0  0  0  0  0  0  0  0
    2.5472    0.9807    0.9953 N   0  0  0  0  0  0  0  0  0  0  0  0
   -1.2887   -0.4158   -0.8034 C   0  0  0  0  0  0  0  0  0  0  0  0
   -4.5467    2.1151   -0.4683 H   0  0  0  0  0  0  0  0  0  0  0  0
   -3.7956    1.1387   -1.7638 H   0  0  0  0  0  0  0  0  0  0  0  0
   -2.2039   -2.4745    0.5837 H   0  0  0  0  0  0  0  0  0  0  0  0
   -1.8133   -1.2061    1.9041 H   0  0  0  0  0  0  0  0  0  0  0  0
    0.0250   -2.1062   -0.2342 H   0  0  0  0  0  0  0  0  0  0  0  0
    0.1995   -0.1338    1.9655 H   0  0  0  0  0  0  0  0  0  0  0  0
    4.4933   -0.7105   -0.2655 H   0  0  0  0  0  0  0  0  0  0  0  0
    3.8157    0.0047   -1.7561 H   0  0  0  0  0  0  0  0  0  0  0  0
    3.1485    1.9447   -0.7390 H   0  0  0  0  0  0  0  0  0  0  0  0
    4.5237    1.5664    0.4303 H   0  0  0  0  0  0  0  0  0  0  0  0
    2.3758    1.4406    1.9207 H   0  0  0  0  0  0  0  0  0  0  0  0
   -0.8325    0.5764   -0.9830 H   0  0  0  0  0  0  0  0  0  0  0  0
   -1.4433   -0.9966   -1.7414 H   0  0  0  0  0  0  0  0  0  0  0  0
  1  2  1  0
  2  3  2  0
  2  4  1  0
  4  5  1  0
  5  6  1  0
  6  7  1  0
  7  8  1  0
  8  9  2  0
  9 10  1  0
 10 11  1  0
 11 12  1  0
  6 13  1  0
 13  4  1  0
 12  8  1  0
  1 14  1  0
  1 15  1  0
  5 16  1  0
  5 17  1  0
  6 18  1  0
  7 19  1  0
 10 20  1  0
 10 21  1  0
 11 22  1  0
 11 23  1  0
 12 24  1  0
 13 25  1  0
 13 26  1  0
M  END
$$$$

     RDKit          3D

 26 27  0  0  0  0  0  0  0  0999 V2000
    4.0107   -0.4926   -1.7830 N   0  0  0  0  0  0  0  0  0  0  0  0
    3.7617    0.3138   -0.6513 C   0  0  0  0  0  0  0  0  0  0  0  0
    4.6964    0.9338   -0.1065 O   0  0  0  0  0  0  0  0  0  0  0  0
    2.4540    0.4075   -0.1502 N   0  0  0  0  0  0  0  0  0  0  0  0
    1.1534   -0.1317   -0.4830 C   0  0  0  0  0  0  0  0  0  0  0  0
    0.7570    0.0222    0.9455 C   0  0  0  0  0  0  0  0  0  0  0  0
   -0.5251    0.5997    1.2159 N   0  0  0  0  0  0  0  0  0  0  0  0
   -1.7489    0.0021    0.7428 C   0  0  0  0  0  0  0  0  0  0  0  0
   -1.8531   -1.2028    0.3307 N   0  0  0  0  0  0  0  0  0  0  0  0
   -3.2122   -1.4755   -0.0680 C   0  0  0  0  0  0  0  0  0  0  0  0
   -3.7923   -0.0908   -0.2340 C   0  0  0  0  0  0  0  0  0  0  0  0
   -2.9801    0.6812    0.6733 N   0  0  0  0  0  0  0  0  0  0  0  0
    1.8212    1.1027    0.9463 C   0  0  0  0  0  0  0  0  0  0  0  0
    4.7827   -1.1773   -1.8660 H   0  0  0  0  0  0  0  0  0  0  0  0
    3.3654   -0.3884   -2.5972 H   0  0  0  0  0  0  0  0  0  0  0  0
    1.1956   -1.1876   -0.8638 H   0  0  0  0  0  0  0  0  0  0  0  0
    0.6288    0.5546   -1.1824 H   0  0  0  0  0  0  0  0  0  0  0  0
    1.0386   -0.8525    1.5630 H   0  0  0  0  0  0  0  0  0  0  0  0
   -0.6014    1.4807    1.7710 H   0  0  0  0  0  0  0  0  0  0  0  0
   -3.7863   -1.9608    0.7539 H   0  0  0  0  0  0  0  0  0  0  0  0
   -3.2695   -2.0637   -1.0069 H   0  0  0  0  0  0  0  0  0  0  0  0
   -4.8673   -0.0421    0.0320 H   0  0  0  0  0  0  0  0  0  0  0  0
   -3.6201    0.2034   -1.3015 H   0  0  0  0  0  0  0  0  0  0  0  0
   -3.2323    1.5459    1.1713 H   0  0  0  0  0  0  0  0  0  0  0  0
    2.4157    1.1545    1.8805 H   0  0  0  0  0  0  0  0  0  0  0  0
    1.4072    2.0637    0.6039 H   0  0  0  0  0  0  0  0  0  0  0  0
  1  2  1  0
  2  3  2  0
  2  4  1  0
  4  5  1  0
  5  6  1  0
  6  7  1  0
  7  8  1  0
  8  9  2  0
  9 10  1  0
 10 11  1  0
 11 12  1  0
  6 13  1  0
 13  4  1  0
 12  8  1  0
  1 14  1  0
  1 15  1  0
  5 16  1  0
  5 17  1  0
  6 18  1  0
  7 19  1  0
 10 20  1  0
 10 21  1  0
 11 22  1  0
 11 23  1  0
 12 24  1  0
 13 25  1  0
 13 26  1  0
M  END
$$$$
