
     RDKit          3D

 22 23  0  0  0  0  0  0  0  0999 V2000
    1.8320   -1.7402    1.2786 O   0  0  0  0  0  0  0  0  0  0  0  0
    1.9301   -0.9375    0.1515 C   0  0  0  0  0  0  0  0  0  0  0  0
    2.7438   -1.2859   -0.8870 N   0  0  0  0  0  0  0  0  0  0  0  0
    2.6491   -0.3554   -1.8207 N   0  0  0  0  0  0  0  0  0  0  0  0
    1.7862    0.5668   -1.3744 C   0  0  0  0  0  0  0  0  0  0  0  0
    1.3311    0.2229   -0.1553 N   0  0  0  0  0  0  0  0  0  0  0  0
    0.4032    0.9185    0.6698 C   0  0  0  0  0  0  0  0  0  0  0  0
   -1.0328    0.5778    0.4735 C   0  0  0  0  0  0  0  0  0  0  0  0
   -1.8726    1.2875    1.3031 O   0  0  0  0  0  0  0  0  0  0  0  0
   -1.5127    0.6010   -0.9677 C   0  0  0  0  0  0  0  0  0  0  0  0
   -1.1278   -0.8185   -1.0237 N   0  0  0  0  0  0  0  0  0  0  0  0
   -1.4256   -0.8567    0.4012 C   0  0  0  0  0  0  0  0  0  0  0  0
    2.3159   -1.4543    2.1187 H   0  0  0  0  0  0  0  0  0  0  0  0
    1.5278    1.4536   -1.9645 H   0  0  0  0  0  0  0  0  0  0  0  0
    0.6220    0.7611    1.7669 H   0  0  0  0  0  0  0  0  0  0  0  0
    0.5279    2.0265    0.5319 H   0  0  0  0  0  0  0  0  0  0  0  0
   -1.9054    0.8901    2.2108 H   0  0  0  0  0  0  0  0  0  0  0  0
   -0.8999    1.2465   -1.6333 H   0  0  0  0  0  0  0  0  0  0  0  0
   -2.6047    0.7714   -1.0371 H   0  0  0  0  0  0  0  0  0  0  0  0
   -1.8608   -1.3213   -1.5870 H   0  0  0  0  0  0  0  0  0  0  0  0
   -0.8875   -1.5918    0.9989 H   0  0  0  0  0  0  0  0  0  0  0  0
   -2.5392   -0.9621    0.5455 H   0  0  0  0  0  0  0  0  0  0  0  0
  1  2  1  0
  2  3  2  0
  3  4  1  0
  4  5  2  0
  5  6  1  0
  6  7  1  0
  7  8  1  0
  8  9  1  0
  8 10  1  0
 10 11  1  0
 11 12  1  0
  6  2  1  0
 12  8  1  0
  1 13  1  0
  5 14  1  0
  7 15  1  0
  7 16  1  0
  9 17  1  0
 10 18  1  0
 10 19  1  0
 11 20  1  0
 12 21  1  0
 12 22  1  0
M  END
$$$$

     RDKit          3D

 22 23  0  0  0  0  0  0  0  0999 V2000
    2.5532    0.5674   -1.1176 O   0  0  0  0  0  0  0  0  0  0  0  0
    2.1931   -0.3480   -0.1040 C   0  0  0  0  0  0  0  0  0  0  0  0
    2.8427   -1.4784    0.1495 N   0  0  0  0  0  0  0  0  0  0  0  0
    2.2462   -2.0792    1.1431 N   0  0  0  0  0  0  0  0  0  0  0  0
    1.2106   -1.3373    1.5325 C   0  0  0  0  0  0  0  0  0  0  0  0
    1.1727   -0.2522    0.7548 N   0  0  0  0  0  0  0  0  0  0  0  0
    0.2534    0.8333    0.7809 C   0  0  0  0  0  0  0  0  0  0  0  0
   -0.9535    0.6913   -0.0657 C   0  0  0  0  0  0  0  0  0  0  0  0
   -1.7816    1.8088    0.0362 O   0  0  0  0  0  0  0  0  0  0  0  0
   -0.8102    0.2540   -1.4689 C   0  0  0  0  0  0  0  0  0  0  0  0
   -2.0575   -0.5123   -1.3141 N   0  0  0  0  0  0  0  0  0  0  0  0
   -1.7763   -0.5570    0.1293 C   0  0  0  0  0  0  0  0  0  0  0  0
    2.3517    1.5536   -0.8993 H   0  0  0  0  0  0  0  0  0  0  0  0
    0.5339   -1.6116    2.3549 H   0  0  0  0  0  0  0  0  0  0  0  0
   -0.0940    1.0085    1.8388 H   0  0  0  0  0  0  0  0  0  0  0  0
    0.7725    1.7715    0.4911 H   0  0  0  0  0  0  0  0  0  0  0  0
   -1.8596    2.3084   -0.8143 H   0  0  0  0  0  0  0  0  0  0  0  0
    0.0464   -0.3923   -1.7315 H   0  0  0  0  0  0  0  0  0  0  0  0
   -0.8978    1.0772   -2.1903 H   0  0  0  0  0  0  0  0  0  0  0  0
   -2.0727   -1.4211   -1.7850 H   0  0  0  0  0  0  0  0  0  0  0  0
   -1.2166   -1.4575    0.4424 H   0  0  0  0  0  0  0  0  0  0  0  0
   -2.6563   -0.4271    0.7699 H   0  0  0  0  0  0  0  0  0  0  0  0
  1  2  1  0
  2  3  2  0
  3  4  1  0
  4  5  2  0
  5  6  1  0
  6  7  1  0
  7  8  1  0
  8  9  1  0
  8 10  1  0
 10 11  1  0
 11 12  1  0
  6  2  1  0
 12  8  1  0
  1 13  1  0
  5 14  1  0
  7 15  1  0
  7 16  1  0
  9 17  1  0
 10 18  1  0
 10 19  1  0
 11 20  1  0
 12 21  1  0
 12 22  1  0
M  END
$$$$

     RDKit          3D

 22 23  0  0  0  0  0  0  0  0999 V2000
    2.0699   -0.4775    1.7591 O   0  0  0  0  0  0  0  0  0  0  0  0
    2.2149   -0.7466    0.4044 C   0  0  0  0  0  0  0  0  0  0  0  0
    3.0719   -1.5856   -0.2117 N   0  0  0  0  0  0  0  0  0  0  0  0
    2.8841   -1.5478   -1.5139 N   0  0  0  0  0  0  0  0  0  0  0  0
    1.8849   -0.6622   -1.7070 C   0  0  0  0  0  0  0  0  0  0  0  0
    1.4646   -0.1637   -0.5487 N   0  0  0  0  0  0  0  0  0  0  0  0
    0.4266    0.7967   -0.3521 C   0  0  0  0  0  0  0  0  0  0  0  0
   -0.9363    0.1947   -0.1647 C   0  0  0  0  0  0  0  0  0  0  0  0
   -1.3988   -0.5716   -1.2101 O   0  0  0  0  0  0  0  0  0  0  0  0
   -1.9351    1.2973    0.2035 C   0  0  0  0  0  0  0  0  0  0  0  0
   -2.6205    0.2574    0.9905 N   0  0  0  0  0  0  0  0  0  0  0  0
   -1.2769   -0.3189    1.1882 C   0  0  0  0  0  0  0  0  0  0  0  0
    2.3046    0.4027    2.1781 H   0  0  0  0  0  0  0  0  0  0  0  0
    1.5119   -0.4240   -2.6888 H   0  0  0  0  0  0  0  0  0  0  0  0
    0.3605    1.4614   -1.2541 H   0  0  0  0  0  0  0  0  0  0  0  0
    0.6955    1.4624    0.4916 H   0  0  0  0  0  0  0  0  0  0  0  0
   -1.4535   -1.5459   -1.0028 H   0  0  0  0  0  0  0  0  0  0  0  0
   -1.5117    2.0342    0.9260 H   0  0  0  0  0  0  0  0  0  0  0  0
   -2.5124    1.6976   -0.6291 H   0  0  0  0  0  0  0  0  0  0  0  0
   -3.1235   -0.3632    0.2856 H   0  0  0  0  0  0  0  0  0  0  0  0
   -1.4015   -1.4047    1.3118 H   0  0  0  0  0  0  0  0  0  0  0  0
   -0.7193    0.2074    1.9909 H   0  0  0  0  0  0  0  0  0  0  0  0
  1  2  1  0
  2  3  2  0
  3  4  1  0
  4  5  2  0
  5  6  1  0
  6  7  1  0
  7  8  1  0
  8  9  1  0
  8 10  1  0
 10 11  1  0
 11 12  1  0
  6  2  1  0
 12  8  1  0
  1 13  1  0
  5 14  1  0
  7 15  1  0
  7 16  1  0
  9 17  1  0
 10 18  1  0
 10 19  1  0
 11 20  1  0
 12 21  1  0
 12 22  1  0
M  END
$$$$

     RDKit          3D

 22 23  0  0  0  0  0  0  0  0999 V2000
    2.3838    1.9116   -0.1918 O   0  0  0  0  0  0  0  0  0  0  0  0
    2.4014    0.5232   -0.1647 C   0  0  0  0  0  0  0  0  0  0  0  0
    3.3758   -0.2580   -0.6596 N   0  0  0  0  0  0  0  0  0  0  0  0
    3.0626   -1.5442   -0.4603 N   0  0  0  0  0  0  0  0  0  0  0  0
    1.8705   -1.5945    0.1715 C   0  0  0  0  0  0  0  0  0  0  0  0
    1.4823   -0.3194    0.3435 N   0  0  0  0  0  0  0  0  0  0  0  0
    0.2736    0.1033    0.9717 C   0  0  0  0  0  0  0  0  0  0  0  0
   -0.8826    0.2520    0.0295 C   0  0  0  0  0  0  0  0  0  0  0  0
   -0.7358    1.1527   -0.9908 O   0  0  0  0  0  0  0  0  0  0  0  0
   -2.2334    0.4172    0.6930 C   0  0  0  0  0  0  0  0  0  0  0  0
   -2.7777   -0.3225   -0.4580 N   0  0  0  0  0  0  0  0  0  0  0  0
   -1.5010   -1.0345   -0.4650 C   0  0  0  0  0  0  0  0  0  0  0  0
    3.1861    2.4946   -0.1532 H   0  0  0  0  0  0  0  0  0  0  0  0
    1.3801   -2.5191    0.4551 H   0  0  0  0  0  0  0  0  0  0  0  0
   -0.0097   -0.6710    1.7313 H   0  0  0  0  0  0  0  0  0  0  0  0
    0.3689    1.0500    1.5445 H   0  0  0  0  0  0  0  0  0  0  0  0
   -1.2775    1.9618   -0.7940 H   0  0  0  0  0  0  0  0  0  0  0  0
   -2.6034    1.4596    0.7488 H   0  0  0  0  0  0  0  0  0  0  0  0
   -2.2472   -0.1578    1.6373 H   0  0  0  0  0  0  0  0  0  0  0  0
   -2.7895    0.3260   -1.2782 H   0  0  0  0  0  0  0  0  0  0  0  0
   -1.5566   -1.8547    0.2538 H   0  0  0  0  0  0  0  0  0  0  0  0
   -1.1705   -1.3761   -1.4565 H   0  0  0  0  0  0  0  0  0  0  0  0
  1  2  1  0
  2  3  2  0
  3  4  1  0
  4  5  2  0
  5  6  1  0
  6  7  1  0
  7  8  1  0
  8  9  1  0
  8 10  1  0
 10 11  1  0
 11 12  1  0
  6  2  1  0
 12  8  1  0
  1 13  1  0
  5 14  1  0
  7 15  1  0
  7 16  1  0
  9 17  1  0
 10 18  1  0
 10 19  1  0
 11 20  1  0
 12 21  1  0
 12 22  1  0
M  END
$$$$

     RDKit          3D

 22 23  0  0  0  0  0  0  0  0999 V2000
    2.0733    0.8758    2.1513 O   0  0  0  0  0  0  0  0  0  0  0  0
    2.2982    0.4845    0.8570 C   0  0  0  0  0  0  0  0  0  0  0  0
    3.4108    0.8169    0.1539 N   0  0  0  0  0  0  0  0  0  0  0  0
    3.2934    0.2760   -1.0430 N   0  0  0  0  0  0  0  0  0  0  0  0
    2.1343   -0.3948   -1.1260 C   0  0  0  0  0  0  0  0  0  0  0  0
    1.5156   -0.2631    0.0605 N   0  0  0  0  0  0  0  0  0  0  0  0
    0.2516   -0.8222    0.4032 C   0  0  0  0  0  0  0  0  0  0  0  0
   -0.9230    0.0650    0.1027 C   0  0  0  0  0  0  0  0  0  0  0  0
   -0.8921    1.2724    0.7632 O   0  0  0  0  0  0  0  0  0  0  0  0
   -2.2193   -0.7277    0.2891 C   0  0  0  0  0  0  0  0  0  0  0  0
   -2.7528    0.0136   -0.8365 N   0  0  0  0  0  0  0  0  0  0  0  0
   -1.3683    0.1386   -1.3152 C   0  0  0  0  0  0  0  0  0  0  0  0
    1.8914    1.8614    2.3412 H   0  0  0  0  0  0  0  0  0  0  0  0
    1.8060   -0.9261   -2.0073 H   0  0  0  0  0  0  0  0  0  0  0  0
    0.2454   -0.9941    1.5184 H   0  0  0  0  0  0  0  0  0  0  0  0
    0.1219   -1.8301   -0.0396 H   0  0  0  0  0  0  0  0  0  0  0  0
   -0.7339    1.1479    1.7325 H   0  0  0  0  0  0  0  0  0  0  0  0
   -2.0548   -1.7992   -0.0056 H   0  0  0  0  0  0  0  0  0  0  0  0
   -2.7169   -0.5866    1.2495 H   0  0  0  0  0  0  0  0  0  0  0  0
   -3.0774    0.9620   -0.4919 H   0  0  0  0  0  0  0  0  0  0  0  0
   -1.2538    1.1096   -1.8291 H   0  0  0  0  0  0  0  0  0  0  0  0
   -1.0496   -0.6799   -1.9777 H   0  0  0  0  0  0  0  0  0  0  0  0
  1  2  1  0
  2  3  2  0
  3  4  1  0
  4  5  2  0
  5  6  1  0
  6  7  1  0
  7  8  1  0
  8  9  1  0
  8 10  1  0
 10 11  1  0
 11 12  1  0
  6  2  1  0
 12  8  1  0
  1 13  1  0
  5 14  1  0
  7 15  1  0
  7 16  1  0
  9 17  1  0
 10 18  1  0
 10 19  1  0
 11 20  1  0
 12 21  1  0
 12 22  1  0
M  END
$$$$

     RDKit          3D

 22 23  0  0  0  0  0  0  0  0999 V2000
    2.0182    0.9780   -1.6637 O   0  0  0  0  0  0  0  0  0  0  0  0
    2.2253   -0.0501   -0.7538 C   0  0  0  0  0  0  0  0  0  0  0  0
    3.2387   -0.9354   -0.8253 N   0  0  0  0  0  0  0  0  0  0  0  0
    3.1423   -1.7848    0.2004 N   0  0  0  0  0  0  0  0  0  0  0  0
    2.0486   -1.4375    0.9411 C   0  0  0  0  0  0  0  0  0  0  0  0
    1.5036   -0.3696    0.3336 N   0  0  0  0  0  0  0  0  0  0  0  0
    0.3307    0.3339    0.7662 C   0  0  0  0  0  0  0  0  0  0  0  0
   -0.9410   -0.2067    0.1842 C   0  0  0  0  0  0  0  0  0  0  0  0
   -1.2392   -1.5153    0.4613 O   0  0  0  0  0  0  0  0  0  0  0  0
   -1.2781    0.1728   -1.2152 C   0  0  0  0  0  0  0  0  0  0  0  0
   -2.6424    0.4593   -0.7540 N   0  0  0  0  0  0  0  0  0  0  0  0
   -2.1152    0.6931    0.5893 C   0  0  0  0  0  0  0  0  0  0  0  0
    2.3460    1.9028   -1.3630 H   0  0  0  0  0  0  0  0  0  0  0  0
    1.7201   -1.9535    1.8404 H   0  0  0  0  0  0  0  0  0  0  0  0
    0.2481    0.2930    1.8915 H   0  0  0  0  0  0  0  0  0  0  0  0
    0.4317    1.4129    0.5297 H   0  0  0  0  0  0  0  0  0  0  0  0
   -1.4288   -1.6871    1.3987 H   0  0  0  0  0  0  0  0  0  0  0  0
   -0.7252    1.0769   -1.5376 H   0  0  0  0  0  0  0  0  0  0  0  0
   -1.2753   -0.6689   -1.9359 H   0  0  0  0  0  0  0  0  0  0  0  0
   -3.0710    1.2890   -1.2083 H   0  0  0  0  0  0  0  0  0  0  0  0
   -2.7280    0.2518    1.3980 H   0  0  0  0  0  0  0  0  0  0  0  0
   -1.8091    1.7454    0.7224 H   0  0  0  0  0  0  0  0  0  0  0  0
  1  2  1  0
  2  3  2  0
  3  4  1  0
  4  5  2  0
  5  6  1  0
  6  7  1  0
  7  8  1  0
  8  9  1  0
  8 10  1  0
 10 11  1  0
 11 12  1  0
  6  2  1  0
 12  8  1  0
  1 13  1  0
  5 14  1  0
  7 15  1  0
  7 16  1  0
  9 17  1  0
 10 18  1  0
 10 19  1  0
 11 20  1  0
 12 21  1  0
 12 22  1  0
M  END
$$$$

     RDKit          3D

 22 23  0  0  0  0  0  0  0  0999 V2000
    2.1005    1.7840    0.3534 O   0  0  0  0  0  0  0  0  0  0  0  0
    2.3135    0.3914    0.2996 C   0  0  0  0  0  0  0  0  0  0  0  0
    3.4273   -0.2334    0.7723 N   0  0  0  0  0  0  0  0  0  0  0  0
    3.2766   -1.5261    0.5517 N   0  0  0  0  0  0  0  0  0  0  0  0
    2.0934   -1.7309   -0.0492 C   0  0  0  0  0  0  0  0  0  0  0  0
    1.4904   -0.5377   -0.2078 N   0  0  0  0  0  0  0  0  0  0  0  0
    0.2093   -0.2513   -0.7976 C   0  0  0  0  0  0  0  0  0  0  0  0
   -0.9403   -0.2774    0.1441 C   0  0  0  0  0  0  0  0  0  0  0  0
   -1.1595   -1.4850    0.7962 O   0  0  0  0  0  0  0  0  0  0  0  0
   -2.2089    0.1586   -0.6048 C   0  0  0  0  0  0  0  0  0  0  0  0
   -2.5863    1.0175    0.5044 N   0  0  0  0  0  0  0  0  0  0  0  0
   -1.2018    0.9165    0.9976 C   0  0  0  0  0  0  0  0  0  0  0  0
    2.3305    2.3022   -0.5075 H   0  0  0  0  0  0  0  0  0  0  0  0
    1.6642   -2.6954   -0.3684 H   0  0  0  0  0  0  0  0  0  0  0  0
   -0.0017   -0.9694   -1.6348 H   0  0  0  0  0  0  0  0  0  0  0  0
    0.2609    0.7587   -1.2634 H   0  0  0  0  0  0  0  0  0  0  0  0
   -1.4665   -2.2068    0.1936 H   0  0  0  0  0  0  0  0  0  0  0  0
   -2.0063    0.7884   -1.4946 H   0  0  0  0  0  0  0  0  0  0  0  0
   -2.9003   -0.6757   -0.7984 H   0  0  0  0  0  0  0  0  0  0  0  0
   -2.8276    2.0080    0.2275 H   0  0  0  0  0  0  0  0  0  0  0  0
   -1.2709    0.6662    2.0964 H   0  0  0  0  0  0  0  0  0  0  0  0
   -0.5964    1.7978    0.7899 H   0  0  0  0  0  0  0  0  0  0  0  0
  1  2  1  0
  2  3  2  0
  3  4  1  0
  4  5  2  0
  5  6  1  0
  6  7  1  0
  7  8  1  0
  8  9  1  0
  8 10  1  0
 10 11  1  0
 11 12  1  0
  6  2  1  0
 12  8  1  0
  1 13  1  0
  5 14  1  0
  7 15  1  0
  7 16  1  0
  9 17  1  0
 10 18  1  0
 10 19  1  0
 11 20  1  0
 12 21  1  0
 12 22  1  0
M  END
$$$$

     RDKit          3D

 22 23  0  0  0  0  0  0  0  0999 V2000
    2.2445   -1.9940    0.9830 O   0  0  0  0  0  0  0  0  0  0  0  0
    2.3447   -0.8702    0.1785 C   0  0  0  0  0  0  0  0  0  0  0  0
    3.3805   -0.6466   -0.6474 N   0  0  0  0  0  0  0  0  0  0  0  0
    3.1655    0.5106   -1.2674 N   0  0  0  0  0  0  0  0  0  0  0  0
    2.0157    0.9890   -0.8284 C   0  0  0  0  0  0  0  0  0  0  0  0
    1.4919    0.1490    0.0672 N   0  0  0  0  0  0  0  0  0  0  0  0
    0.2567    0.3413    0.7503 C   0  0  0  0  0  0  0  0  0  0  0  0
   -0.9344   -0.2404    0.0330 C   0  0  0  0  0  0  0  0  0  0  0  0
   -0.8899   -1.6015   -0.1875 O   0  0  0  0  0  0  0  0  0  0  0  0
   -2.2360    0.2184    0.6582 C   0  0  0  0  0  0  0  0  0  0  0  0
   -2.7725    0.4043   -0.6779 N   0  0  0  0  0  0  0  0  0  0  0  0
   -1.4096    0.5471   -1.1614 C   0  0  0  0  0  0  0  0  0  0  0  0
    3.0840   -2.3038    1.4568 H   0  0  0  0  0  0  0  0  0  0  0  0
    1.5560    1.9135   -1.1349 H   0  0  0  0  0  0  0  0  0  0  0  0
    0.0838    1.4185    0.9463 H   0  0  0  0  0  0  0  0  0  0  0  0
    0.3103   -0.1341    1.7686 H   0  0  0  0  0  0  0  0  0  0  0  0
   -1.0402   -2.1360    0.6237 H   0  0  0  0  0  0  0  0  0  0  0  0
   -2.1567    1.1979    1.1972 H   0  0  0  0  0  0  0  0  0  0  0  0
   -2.7595   -0.5426    1.2719 H   0  0  0  0  0  0  0  0  0  0  0  0
   -3.3574    1.2459   -0.7154 H   0  0  0  0  0  0  0  0  0  0  0  0
   -1.2891   -0.0545   -2.0960 H   0  0  0  0  0  0  0  0  0  0  0  0
   -1.0883    1.5880   -1.2181 H   0  0  0  0  0  0  0  0  0  0  0  0
  1  2  1  0
  2  3  2  0
  3  4  1  0
  4  5  2  0
  5  6  1  0
  6  7  1  0
  7  8  1  0
  8  9  1  0
  8 10  1  0
 10 11  1  0
 11 12  1  0
  6  2  1  0
 12  8  1  0
  1 13  1  0
  5 14  1  0
  7 15  1  0
  7 16  1  0
  9 17  1  0
 10 18  1  0
 10 19  1  0
 11 20  1  0
 12 21  1  0
 12 22  1  0
M  END
$$$$
