
     RDKit          3D

 25 25  0  0  0  0  0  0  0  0999 V2000
   -1.9330   -0.9486    0.7918 C   0  0  0  0  0  0  0  0  0  0  0  0
   -1.4809   -0.0516   -0.3663 C   0  0  1  0  0  0  0  0  0  0  0  0
   -1.8532   -0.7270   -1.5264 O   0  0  0  0  0  0  0  0  0  0  0  0
   -2.1393    1.2491   -0.3375 C   0  0  0  0  0  0  0  0  0  0  0  0
   -2.8992    1.5790   -1.2810 O   0  0  0  0  0  0  0  0  0  0  0  0
   -2.0021    2.1942    0.6705 O   0  0  0  0  0  0  0  0  0  0  0  0
    0.0131   -0.0044   -0.3346 C   0  0  1  0  0  0  0  0  0  0  0  0
    0.6022    0.7295    0.8111 C   0  0  0  0  0  0  0  0  0  0  0  0
    1.9280    0.2074    1.1078 N   0  0  0  0  0  0  0  0  0  0  0  0
    2.5963   -0.2563   -0.0877 C   0  0  0  0  0  0  0  0  0  0  0  0
    1.8172   -1.4203   -0.6406 C   0  0  0  0  0  0  0  0  0  0  0  0
    0.4824   -1.3174   -0.3269 O   0  0  0  0  0  0  0  0  0  0  0  0
   -1.1075   -1.0189    1.5552 H   0  0  0  0  0  0  0  0  0  0  0  0
   -2.8393   -0.5444    1.2842 H   0  0  0  0  0  0  0  0  0  0  0  0
   -2.1032   -1.9897    0.4570 H   0  0  0  0  0  0  0  0  0  0  0  0
   -1.1730   -0.6892   -2.2363 H   0  0  0  0  0  0  0  0  0  0  0  0
   -2.0164    3.1680    0.3944 H   0  0  0  0  0  0  0  0  0  0  0  0
    0.3708    0.4538   -1.2857 H   0  0  0  0  0  0  0  0  0  0  0  0
    0.0258    0.6662    1.7486 H   0  0  0  0  0  0  0  0  0  0  0  0
    0.7700    1.7987    0.4953 H   0  0  0  0  0  0  0  0  0  0  0  0
    2.5039    0.8833    1.6611 H   0  0  0  0  0  0  0  0  0  0  0  0
    3.6063   -0.5869    0.2141 H   0  0  0  0  0  0  0  0  0  0  0  0
    2.6858    0.5090   -0.8662 H   0  0  0  0  0  0  0  0  0  0  0  0
    2.2098   -2.3514   -0.1645 H   0  0  0  0  0  0  0  0  0  0  0  0
    1.9355   -1.5318   -1.7373 H   0  0  0  0  0  0  0  0  0  0  0  0
  1  2  1  0
  2  3  1  6
  2  4  1  0
  4  5  2  0
  4  6  1  0
  2  7  1  0
  7  8  1  0
  8  9  1  0
  9 10  1  0
 10 11  1  0
 11 12  1  0
 12  7  1  0
  1 13  1  0
  1 14  1  0
  1 15  1  0
  3 16  1  0
  6 17  1  0
  7 18  1  6
  8 19  1  0
  8 20  1  0
  9 21  1  0
 10 22  1  0
 10 23  1  0
 11 24  1  0
 11 25  1  0
M  END
$$$$

     RDKit          3D

 25 25  0  0  0  0  0  0  0  0999 V2000
   -1.9191   -1.2737   -0.2739 C   0  0  0  0  0  0  0  0  0  0  0  0
   -1.3070    0.0832   -0.5373 C   0  0  1  0  0  0  0  0  0  0  0  0
   -1.3766    0.3504   -1.9089 O   0  0  0  0  0  0  0  0  0  0  0  0
   -2.0811    1.1321    0.1553 C   0  0  0  0  0  0  0  0  0  0  0  0
   -2.1551    1.0880    1.4183 O   0  0  0  0  0  0  0  0  0  0  0  0
   -2.7212    2.1482   -0.5064 O   0  0  0  0  0  0  0  0  0  0  0  0
    0.1481    0.1290   -0.1540 C   0  0  1  0  0  0  0  0  0  0  0  0
    0.4170   -0.1685    1.2727 C   0  0  0  0  0  0  0  0  0  0  0  0
    1.8019   -0.3798    1.5130 N   0  0  0  0  0  0  0  0  0  0  0  0
    2.6836   -0.1492    0.4315 C   0  0  0  0  0  0  0  0  0  0  0  0
    2.1461   -0.4504   -0.9297 C   0  0  0  0  0  0  0  0  0  0  0  0
    0.8151   -0.8601   -0.9139 O   0  0  0  0  0  0  0  0  0  0  0  0
   -2.4770   -1.6255   -1.1826 H   0  0  0  0  0  0  0  0  0  0  0  0
   -1.1919   -2.0487   -0.0328 H   0  0  0  0  0  0  0  0  0  0  0  0
   -2.6923   -1.1884    0.5344 H   0  0  0  0  0  0  0  0  0  0  0  0
   -1.2047    1.3342   -2.0290 H   0  0  0  0  0  0  0  0  0  0  0  0
   -2.8866    3.0642   -0.0818 H   0  0  0  0  0  0  0  0  0  0  0  0
    0.5347    1.1207   -0.4052 H   0  0  0  0  0  0  0  0  0  0  0  0
   -0.1401   -1.0861    1.6160 H   0  0  0  0  0  0  0  0  0  0  0  0
    0.0778    0.6564    1.9576 H   0  0  0  0  0  0  0  0  0  0  0  0
    1.9839   -1.1946    2.1017 H   0  0  0  0  0  0  0  0  0  0  0  0
    3.6178   -0.7559    0.5625 H   0  0  0  0  0  0  0  0  0  0  0  0
    3.0128    0.9136    0.4524 H   0  0  0  0  0  0  0  0  0  0  0  0
    2.7112   -1.2688   -1.4568 H   0  0  0  0  0  0  0  0  0  0  0  0
    2.2029    0.4297   -1.6031 H   0  0  0  0  0  0  0  0  0  0  0  0
  1  2  1  0
  2  3  1  6
  2  4  1  0
  4  5  2  0
  4  6  1  0
  2  7  1  0
  7  8  1  0
  8  9  1  0
  9 10  1  0
 10 11  1  0
 11 12  1  0
 12  7  1  0
  1 13  1  0
  1 14  1  0
  1 15  1  0
  3 16  1  0
  6 17  1  0
  7 18  1  6
  8 19  1  0
  8 20  1  0
  9 21  1  0
 10 22  1  0
 10 23  1  0
 11 24  1  0
 11 25  1  0
M  END
$$$$

     RDKit          3D

 25 25  0  0  0  0  0  0  0  0999 V2000
   -2.3062   -0.8185    0.7923 C   0  0  0  0  0  0  0  0  0  0  0  0
   -1.4282   -0.0650   -0.1961 C   0  0  1  0  0  0  0  0  0  0  0  0
   -1.9533   -0.3250   -1.4604 O   0  0  0  0  0  0  0  0  0  0  0  0
   -1.5378    1.3644    0.0848 C   0  0  0  0  0  0  0  0  0  0  0  0
   -2.0461    2.1384   -0.7644 O   0  0  0  0  0  0  0  0  0  0  0  0
   -1.1015    1.9436    1.2706 O   0  0  0  0  0  0  0  0  0  0  0  0
   -0.0148   -0.5838   -0.1897 C   0  0  1  0  0  0  0  0  0  0  0  0
    0.7626    0.0524   -1.2927 C   0  0  0  0  0  0  0  0  0  0  0  0
    1.7171    0.9750   -0.7284 N   0  0  0  0  0  0  0  0  0  0  0  0
    2.7203    0.1860   -0.0344 C   0  0  0  0  0  0  0  0  0  0  0  0
    1.9697   -0.7559    0.8855 C   0  0  0  0  0  0  0  0  0  0  0  0
    0.6324   -0.3916    1.0098 O   0  0  0  0  0  0  0  0  0  0  0  0
   -1.9676   -1.8554    0.9341 H   0  0  0  0  0  0  0  0  0  0  0  0
   -3.3663   -0.8015    0.4156 H   0  0  0  0  0  0  0  0  0  0  0  0
   -2.3285   -0.2606    1.7567 H   0  0  0  0  0  0  0  0  0  0  0  0
   -2.1605   -1.2910   -1.5509 H   0  0  0  0  0  0  0  0  0  0  0  0
   -1.5403    2.7828    1.6699 H   0  0  0  0  0  0  0  0  0  0  0  0
   -0.0941   -1.7005   -0.3325 H   0  0  0  0  0  0  0  0  0  0  0  0
    0.1177    0.4998   -2.0686 H   0  0  0  0  0  0  0  0  0  0  0  0
    1.3499   -0.7493   -1.8068 H   0  0  0  0  0  0  0  0  0  0  0  0
    1.3060    1.6192   -0.0169 H   0  0  0  0  0  0  0  0  0  0  0  0
    3.3352   -0.3447   -0.7830 H   0  0  0  0  0  0  0  0  0  0  0  0
    3.3663    0.8860    0.5436 H   0  0  0  0  0  0  0  0  0  0  0  0
    2.4866   -0.7060    1.8761 H   0  0  0  0  0  0  0  0  0  0  0  0
    2.0813   -1.7987    0.5015 H   0  0  0  0  0  0  0  0  0  0  0  0
  1  2  1  0
  2  3  1  6
  2  4  1  0
  4  5  2  0
  4  6  1  0
  2  7  1  0
  7  8  1  0
  8  9  1  0
  9 10  1  0
 10 11  1  0
 11 12  1  0
 12  7  1  0
  1 13  1  0
  1 14  1  0
  1 15  1  0
  3 16  1  0
  6 17  1  0
  7 18  1  6
  8 19  1  0
  8 20  1  0
  9 21  1  0
 10 22  1  0
 10 23  1  0
 11 24  1  0
 11 25  1  0
M  END
$$$$

     RDKit          3D

 25 25  0  0  0  0  0  0  0  0999 V2000
   -1.9176    1.2473   -0.5810 C   0  0  0  0  0  0  0  0  0  0  0  0
   -1.3722    0.0629    0.2182 C   0  0  1  0  0  0  0  0  0  0  0  0
   -1.5050    0.3084    1.5845 O   0  0  0  0  0  0  0  0  0  0  0  0
   -2.1804   -1.1452   -0.1151 C   0  0  0  0  0  0  0  0  0  0  0  0
   -2.8326   -1.7600    0.7688 O   0  0  0  0  0  0  0  0  0  0  0  0
   -2.2518   -1.6463   -1.4071 O   0  0  0  0  0  0  0  0  0  0  0  0
    0.0752   -0.1040   -0.1385 C   0  0  1  0  0  0  0  0  0  0  0  0
    0.7784    1.1993    0.1418 C   0  0  0  0  0  0  0  0  0  0  0  0
    2.2169    1.0482    0.1988 N   0  0  0  0  0  0  0  0  0  0  0  0
    2.6172   -0.1945   -0.4323 C   0  0  0  0  0  0  0  0  0  0  0  0
    1.9800   -1.3265    0.3113 C   0  0  0  0  0  0  0  0  0  0  0  0
    0.6440   -1.1694    0.5531 O   0  0  0  0  0  0  0  0  0  0  0  0
   -1.3164    1.4401   -1.4894 H   0  0  0  0  0  0  0  0  0  0  0  0
   -2.9488    0.9957   -0.9623 H   0  0  0  0  0  0  0  0  0  0  0  0
   -2.0409    2.1470    0.0590 H   0  0  0  0  0  0  0  0  0  0  0  0
   -1.6649    1.2637    1.7908 H   0  0  0  0  0  0  0  0  0  0  0  0
   -2.6834   -2.5302   -1.6235 H   0  0  0  0  0  0  0  0  0  0  0  0
    0.1848   -0.3196   -1.2211 H   0  0  0  0  0  0  0  0  0  0  0  0
    0.4894    1.9081   -0.6639 H   0  0  0  0  0  0  0  0  0  0  0  0
    0.3898    1.5931    1.0855 H   0  0  0  0  0  0  0  0  0  0  0  0
    2.5759    1.1028    1.1820 H   0  0  0  0  0  0  0  0  0  0  0  0
    2.3389   -0.1465   -1.5040 H   0  0  0  0  0  0  0  0  0  0  0  0
    3.7105   -0.2802   -0.3266 H   0  0  0  0  0  0  0  0  0  0  0  0
    2.1989   -2.2620   -0.2786 H   0  0  0  0  0  0  0  0  0  0  0  0
    2.5141   -1.4322    1.2822 H   0  0  0  0  0  0  0  0  0  0  0  0
  1  2  1  0
  2  3  1  1
  2  4  1  0
  4  5  2  0
  4  6  1  0
  2  7  1  0
  7  8  1  0
  8  9  1  0
  9 10  1  0
 10 11  1  0
 11 12  1  0
 12  7  1  0
  1 13  1  0
  1 14  1  0
  1 15  1  0
  3 16  1  0
  6 17  1  0
  7 18  1  6
  8 19  1  0
  8 20  1  0
  9 21  1  0
 10 22  1  0
 10 23  1  0
 11 24  1  0
 11 25  1  0
M  END
$$$$

     RDKit          3D

 25 25  0  0  0  0  0  0  0  0999 V2000
   -1.9790   -1.1495    0.9947 C   0  0  0  0  0  0  0  0  0  0  0  0
   -1.2295   -0.5175   -0.1531 C   0  0  1  0  0  0  0  0  0  0  0  0
   -0.7931   -1.4984   -1.0118 O   0  0  0  0  0  0  0  0  0  0  0  0
   -2.1747    0.3618   -0.8839 C   0  0  0  0  0  0  0  0  0  0  0  0
   -2.4909    0.1954   -2.0865 O   0  0  0  0  0  0  0  0  0  0  0  0
   -2.7462    1.4374   -0.1944 O   0  0  0  0  0  0  0  0  0  0  0  0
   -0.0649    0.3086    0.2810 C   0  0  1  0  0  0  0  0  0  0  0  0
    0.9541   -0.4283    1.0876 C   0  0  0  0  0  0  0  0  0  0  0  0
    2.1143    0.4553    1.2368 N   0  0  0  0  0  0  0  0  0  0  0  0
    2.7711    0.5401   -0.0499 C   0  0  0  0  0  0  0  0  0  0  0  0
    1.7549    0.3419   -1.1396 C   0  0  0  0  0  0  0  0  0  0  0  0
    0.5133    0.8817   -0.8358 O   0  0  0  0  0  0  0  0  0  0  0  0
   -3.0538   -0.8431    1.0063 H   0  0  0  0  0  0  0  0  0  0  0  0
   -1.9516   -2.2501    0.9156 H   0  0  0  0  0  0  0  0  0  0  0  0
   -1.5628   -0.8653    1.9801 H   0  0  0  0  0  0  0  0  0  0  0  0
   -0.7079   -1.1291   -1.9453 H   0  0  0  0  0  0  0  0  0  0  0  0
   -3.0649    2.2324   -0.7170 H   0  0  0  0  0  0  0  0  0  0  0  0
   -0.4800    1.1533    0.9063 H   0  0  0  0  0  0  0  0  0  0  0  0
    1.2532   -1.3440    0.5512 H   0  0  0  0  0  0  0  0  0  0  0  0
    0.6235   -0.6673    2.1098 H   0  0  0  0  0  0  0  0  0  0  0  0
    1.7450    1.3835    1.5397 H   0  0  0  0  0  0  0  0  0  0  0  0
    3.2651    1.5353   -0.0983 H   0  0  0  0  0  0  0  0  0  0  0  0
    3.5347   -0.2735   -0.0698 H   0  0  0  0  0  0  0  0  0  0  0  0
    1.6422   -0.7398   -1.3818 H   0  0  0  0  0  0  0  0  0  0  0  0
    2.1279    0.8792   -2.0420 H   0  0  0  0  0  0  0  0  0  0  0  0
  1  2  1  0
  2  3  1  6
  2  4  1  0
  4  5  2  0
  4  6  1  0
  2  7  1  0
  7  8  1  0
  8  9  1  0
  9 10  1  0
 10 11  1  0
 11 12  1  0
 12  7  1  0
  1 13  1  0
  1 14  1  0
  1 15  1  0
  3 16  1  0
  6 17  1  0
  7 18  1  1
  8 19  1  0
  8 20  1  0
  9 21  1  0
 10 22  1  0
 10 23  1  0
 11 24  1  0
 11 25  1  0
M  END
$$$$

     RDKit          3D

 25 25  0  0  0  0  0  0  0  0999 V2000
   -1.8009   -1.5880    0.6584 C   0  0  0  0  0  0  0  0  0  0  0  0
   -1.3908   -0.4925   -0.2886 C   0  0  1  0  0  0  0  0  0  0  0  0
   -1.6607   -0.8590   -1.6218 O   0  0  0  0  0  0  0  0  0  0  0  0
   -2.0779    0.7941   -0.0086 C   0  0  0  0  0  0  0  0  0  0  0  0
   -2.7649    1.3757   -0.8955 O   0  0  0  0  0  0  0  0  0  0  0  0
   -1.9660    1.3723    1.2498 O   0  0  0  0  0  0  0  0  0  0  0  0
    0.1265   -0.3000   -0.2215 C   0  0  1  0  0  0  0  0  0  0  0  0
    0.5368    0.8263   -1.1395 C   0  0  0  0  0  0  0  0  0  0  0  0
    1.9737    0.9965   -1.0269 N   0  0  0  0  0  0  0  0  0  0  0  0
    2.5803    0.1235   -0.0719 C   0  0  0  0  0  0  0  0  0  0  0  0
    1.8477    0.0296    1.2339 C   0  0  0  0  0  0  0  0  0  0  0  0
    0.4662    0.0648    1.0734 O   0  0  0  0  0  0  0  0  0  0  0  0
   -0.9539   -2.0529    1.1810 H   0  0  0  0  0  0  0  0  0  0  0  0
   -2.5386   -1.1355    1.3773 H   0  0  0  0  0  0  0  0  0  0  0  0
   -2.3983   -2.3468    0.0844 H   0  0  0  0  0  0  0  0  0  0  0  0
   -1.3147   -1.7799   -1.7174 H   0  0  0  0  0  0  0  0  0  0  0  0
   -2.3343    2.3109    1.3768 H   0  0  0  0  0  0  0  0  0  0  0  0
    0.6287   -1.2397   -0.4561 H   0  0  0  0  0  0  0  0  0  0  0  0
    0.2404    0.6654   -2.1868 H   0  0  0  0  0  0  0  0  0  0  0  0
    0.0191    1.7530   -0.8005 H   0  0  0  0  0  0  0  0  0  0  0  0
    2.1770    1.9860   -0.8419 H   0  0  0  0  0  0  0  0  0  0  0  0
    2.7216   -0.8841   -0.5372 H   0  0  0  0  0  0  0  0  0  0  0  0
    3.6090    0.5019    0.1243 H   0  0  0  0  0  0  0  0  0  0  0  0
    2.1196   -0.9447    1.6958 H   0  0  0  0  0  0  0  0  0  0  0  0
    2.1542    0.8233    1.9123 H   0  0  0  0  0  0  0  0  0  0  0  0
  1  2  1  0
  2  3  1  6
  2  4  1  0
  4  5  2  0
  4  6  1  0
  2  7  1  0
  7  8  1  0
  8  9  1  0
  9 10  1  0
 10 11  1  0
 11 12  1  0
 12  7  1  0
  1 13  1  0
  1 14  1  0
  1 15  1  0
  3 16  1  0
  6 17  1  0
  7 18  1  6
  8 19  1  0
  8 20  1  0
  9 21  1  0
 10 22  1  0
 10 23  1  0
 11 24  1  0
 11 25  1  0
M  END
$$$$

     RDKit          3D

 25 25  0  0  0  0  0  0  0  0999 V2000
    2.1797   -0.1082   -1.0857 C   0  0  0  0  0  0  0  0  0  0  0  0
    1.3814   -0.5870    0.1334 C   0  0  1  0  0  0  0  0  0  0  0  0
    1.5193   -1.9750    0.1523 O   0  0  0  0  0  0  0  0  0  0  0  0
    1.8813    0.0468    1.3489 C   0  0  0  0  0  0  0  0  0  0  0  0
    2.3689   -0.6447    2.2692 O   0  0  0  0  0  0  0  0  0  0  0  0
    1.8358    1.4138    1.5268 O   0  0  0  0  0  0  0  0  0  0  0  0
   -0.0654   -0.2883   -0.1600 C   0  0  1  0  0  0  0  0  0  0  0  0
   -1.0093   -0.9364    0.8030 C   0  0  0  0  0  0  0  0  0  0  0  0
   -2.1462   -0.1355    1.1466 N   0  0  0  0  0  0  0  0  0  0  0  0
   -2.6669    0.6437    0.0614 C   0  0  0  0  0  0  0  0  0  0  0  0
   -1.5954    1.1713   -0.8477 C   0  0  0  0  0  0  0  0  0  0  0  0
   -0.3422    1.0680   -0.2074 O   0  0  0  0  0  0  0  0  0  0  0  0
    3.0651   -0.7851   -1.1878 H   0  0  0  0  0  0  0  0  0  0  0  0
    2.5854    0.9061   -0.9328 H   0  0  0  0  0  0  0  0  0  0  0  0
    1.5769   -0.1232   -1.9966 H   0  0  0  0  0  0  0  0  0  0  0  0
    1.2124   -2.3713    1.0079 H   0  0  0  0  0  0  0  0  0  0  0  0
    2.5145    1.9297    2.1079 H   0  0  0  0  0  0  0  0  0  0  0  0
   -0.2787   -0.6951   -1.1746 H   0  0  0  0  0  0  0  0  0  0  0  0
   -0.4891   -1.2066    1.7499 H   0  0  0  0  0  0  0  0  0  0  0  0
   -1.3943   -1.9046    0.3899 H   0  0  0  0  0  0  0  0  0  0  0  0
   -2.0529    0.3920    2.0360 H   0  0  0  0  0  0  0  0  0  0  0  0
   -3.2641    1.4747    0.5096 H   0  0  0  0  0  0  0  0  0  0  0  0
   -3.4234    0.0129   -0.4820 H   0  0  0  0  0  0  0  0  0  0  0  0
   -1.8151    2.2068   -1.1495 H   0  0  0  0  0  0  0  0  0  0  0  0
   -1.5777    0.4952   -1.7474 H   0  0  0  0  0  0  0  0  0  0  0  0
  1  2  1  0
  2  3  1  1
  2  4  1  0
  4  5  2  0
  4  6  1  0
  2  7  1  0
  7  8  1  0
  8  9  1  0
  9 10  1  0
 10 11  1  0
 11 12  1  0
 12  7  1  0
  1 13  1  0
  1 14  1  0
  1 15  1  0
  3 16  1  0
  6 17  1  0
  7 18  1  6
  8 19  1  0
  8 20  1  0
  9 21  1  0
 10 22  1  0
 10 23  1  0
 11 24  1  0
 11 25  1  0
M  END
$$$$

     RDKit          3D

 25 25  0  0  0  0  0  0  0  0999 V2000
    2.1311   -0.8210   -1.1321 C   0  0  0  0  0  0  0  0  0  0  0  0
    1.3755   -0.6639    0.1716 C   0  0  1  0  0  0  0  0  0  0  0  0
    1.3592   -1.9193    0.7780 O   0  0  0  0  0  0  0  0  0  0  0  0
    2.0358    0.3062    1.0444 C   0  0  0  0  0  0  0  0  0  0  0  0
    2.4837   -0.0616    2.1595 O   0  0  0  0  0  0  0  0  0  0  0  0
    2.2018    1.6369    0.7094 O   0  0  0  0  0  0  0  0  0  0  0  0
   -0.0536   -0.3014   -0.1337 C   0  0  1  0  0  0  0  0  0  0  0  0
   -0.8878   -0.2881    1.1317 C   0  0  0  0  0  0  0  0  0  0  0  0
   -2.2744   -0.3605    0.6576 N   0  0  0  0  0  0  0  0  0  0  0  0
   -2.5731    0.6561   -0.2870 C   0  0  0  0  0  0  0  0  0  0  0  0
   -1.4867    1.0444   -1.2083 C   0  0  0  0  0  0  0  0  0  0  0  0
   -0.2116    0.9143   -0.7367 O   0  0  0  0  0  0  0  0  0  0  0  0
    2.1935   -1.8974   -1.4386 H   0  0  0  0  0  0  0  0  0  0  0  0
    3.1690   -0.4869   -0.9685 H   0  0  0  0  0  0  0  0  0  0  0  0
    1.6676   -0.2456   -1.9571 H   0  0  0  0  0  0  0  0  0  0  0  0
    0.5171   -2.3987    0.5738 H   0  0  0  0  0  0  0  0  0  0  0  0
    2.8129    2.2751    1.1982 H   0  0  0  0  0  0  0  0  0  0  0  0
   -0.4583   -1.0967   -0.8051 H   0  0  0  0  0  0  0  0  0  0  0  0
   -0.7337    0.7085    1.6068 H   0  0  0  0  0  0  0  0  0  0  0  0
   -0.6716   -1.1088    1.8116 H   0  0  0  0  0  0  0  0  0  0  0  0
   -2.9540   -0.3791    1.4275 H   0  0  0  0  0  0  0  0  0  0  0  0
   -3.4397    0.2886   -0.9125 H   0  0  0  0  0  0  0  0  0  0  0  0
   -3.0004    1.5561    0.2451 H   0  0  0  0  0  0  0  0  0  0  0  0
   -1.6357    2.1313   -1.4788 H   0  0  0  0  0  0  0  0  0  0  0  0
   -1.5667    0.5115   -2.1947 H   0  0  0  0  0  0  0  0  0  0  0  0
  1  2  1  0
  2  3  1  1
  2  4  1  0
  4  5  2  0
  4  6  1  0
  2  7  1  0
  7  8  1  0
  8  9  1  0
  9 10  1  0
 10 11  1  0
 11 12  1  0
 12  7  1  0
  1 13  1  0
  1 14  1  0
  1 15  1  0
  3 16  1  0
  6 17  1  0
  7 18  1  6
  8 19  1  0
  8 20  1  0
  9 21  1  0
 10 22  1  0
 10 23  1  0
 11 24  1  0
 11 25  1  0
M  END
$$$$
