
     RDKit          3D

 29 28  0  0  0  0  0  0  0  0999 V2000
    3.1752    0.4397   -1.1860 C   0  0  0  0  0  0  0  0  0  0  0  0
    2.3586    0.1324   -0.0304 N   0  0  0  0  0  0  0  0  0  0  0  0
    2.9360   -0.6442    1.0412 C   0  0  0  0  0  0  0  0  0  0  0  0
    1.0240    0.5886    0.0368 C   0  0  0  0  0  0  0  0  0  0  0  0
    0.7274    1.7915    0.3575 N   0  0  0  0  0  0  0  0  0  0  0  0
   -0.0541   -0.2927   -0.2555 N   0  0  0  0  0  0  0  0  0  0  0  0
   -1.4243   -0.0020   -0.0460 C   0  0  0  0  0  0  0  0  0  0  0  0
   -1.9354    1.1931   -0.8055 C   0  0  0  0  0  0  0  0  0  0  0  0
   -2.2679   -1.2016   -0.4114 C   0  0  0  0  0  0  0  0  0  0  0  0
   -2.0603   -1.5119   -1.7516 O   0  0  0  0  0  0  0  0  0  0  0  0
   -1.6859    0.2888    1.4374 C   0  0  0  0  0  0  0  0  0  0  0  0
   -1.3281   -0.8341    2.1574 O   0  0  0  0  0  0  0  0  0  0  0  0
    2.6317    0.1235   -2.1120 H   0  0  0  0  0  0  0  0  0  0  0  0
    4.1285   -0.1008   -1.1807 H   0  0  0  0  0  0  0  0  0  0  0  0
    3.3571    1.5295   -1.2167 H   0  0  0  0  0  0  0  0  0  0  0  0
    4.0382   -0.5000    1.0368 H   0  0  0  0  0  0  0  0  0  0  0  0
    2.5446   -0.3308    2.0317 H   0  0  0  0  0  0  0  0  0  0  0  0
    2.6740   -1.7038    0.8541 H   0  0  0  0  0  0  0  0  0  0  0  0
    1.5098    2.4459    0.5739 H   0  0  0  0  0  0  0  0  0  0  0  0
    0.2131   -1.2185   -0.6545 H   0  0  0  0  0  0  0  0  0  0  0  0
   -1.5789    1.1283   -1.8324 H   0  0  0  0  0  0  0  0  0  0  0  0
   -3.0549    1.0888   -0.8375 H   0  0  0  0  0  0  0  0  0  0  0  0
   -1.7331    2.1464   -0.2985 H   0  0  0  0  0  0  0  0  0  0  0  0
   -1.9702   -2.1031    0.1708 H   0  0  0  0  0  0  0  0  0  0  0  0
   -3.3443   -1.0328   -0.2077 H   0  0  0  0  0  0  0  0  0  0  0  0
   -2.9274   -1.5748   -2.2243 H   0  0  0  0  0  0  0  0  0  0  0  0
   -2.7783    0.4858    1.5058 H   0  0  0  0  0  0  0  0  0  0  0  0
   -1.1281    1.1839    1.7246 H   0  0  0  0  0  0  0  0  0  0  0  0
   -2.0470   -1.5151    2.1228 H   0  0  0  0  0  0  0  0  0  0  0  0
  1  2  1  0
  2  3  1  0
  2  4  1  0
  4  5  2  3
  4  6  1  0
  6  7  1  0
  7  8  1  0
  7  9  1  0
  9 10  1  0
  7 11  1  0
 11 12  1  0
  1 13  1  0
  1 14  1  0
  1 15  1  0
  3 16  1  0
  3 17  1  0
  3 18  1  0
  5 19  1  0
  6 20  1  0
  8 21  1  0
  8 22  1  0
  8 23  1  0
  9 24  1  0
  9 25  1  0
 10 26  1  0
 11 27  1  0
 11 28  1  0
 12 29  1  0
M  END
$$$$

     RDKit          3D

 29 28  0  0  0  0  0  0  0  0999 V2000
    3.2777   -0.6741    1.0042 C   0  0  0  0  0  0  0  0  0  0  0  0
    2.3414   -0.0555    0.0929 N   0  0  0  0  0  0  0  0  0  0  0  0
    2.8348    0.4049   -1.1856 C   0  0  0  0  0  0  0  0  0  0  0  0
    0.9868    0.0693    0.4967 C   0  0  0  0  0  0  0  0  0  0  0  0
    0.6581    0.4640    1.6940 N   0  0  0  0  0  0  0  0  0  0  0  0
   -0.0823   -0.2353   -0.4012 N   0  0  0  0  0  0  0  0  0  0  0  0
   -1.4483    0.0681   -0.1549 C   0  0  0  0  0  0  0  0  0  0  0  0
   -1.6766    1.5694    0.0264 C   0  0  0  0  0  0  0  0  0  0  0  0
   -2.0095   -0.5946    1.0843 C   0  0  0  0  0  0  0  0  0  0  0  0
   -1.9484   -1.9734    1.0359 O   0  0  0  0  0  0  0  0  0  0  0  0
   -2.2928   -0.3892   -1.3196 C   0  0  0  0  0  0  0  0  0  0  0  0
   -1.8248    0.3046   -2.4537 O   0  0  0  0  0  0  0  0  0  0  0  0
    3.4871    0.0714    1.8024 H   0  0  0  0  0  0  0  0  0  0  0  0
    2.9124   -1.6309    1.4206 H   0  0  0  0  0  0  0  0  0  0  0  0
    4.2479   -0.9114    0.4897 H   0  0  0  0  0  0  0  0  0  0  0  0
    3.6383   -0.2949   -1.5157 H   0  0  0  0  0  0  0  0  0  0  0  0
    2.0320    0.4448   -1.9481 H   0  0  0  0  0  0  0  0  0  0  0  0
    3.2746    1.4271   -1.0055 H   0  0  0  0  0  0  0  0  0  0  0  0
    1.4270    0.6846    2.3444 H   0  0  0  0  0  0  0  0  0  0  0  0
    0.1920   -0.7115   -1.2859 H   0  0  0  0  0  0  0  0  0  0  0  0
   -1.3598    2.1435   -0.8638 H   0  0  0  0  0  0  0  0  0  0  0  0
   -1.1071    1.8636    0.9288 H   0  0  0  0  0  0  0  0  0  0  0  0
   -2.7751    1.7132    0.1892 H   0  0  0  0  0  0  0  0  0  0  0  0
   -3.1087   -0.3330    1.0909 H   0  0  0  0  0  0  0  0  0  0  0  0
   -1.6131   -0.1607    2.0240 H   0  0  0  0  0  0  0  0  0  0  0  0
   -1.9779   -2.3094    1.9774 H   0  0  0  0  0  0  0  0  0  0  0  0
   -3.3725   -0.2213   -1.1608 H   0  0  0  0  0  0  0  0  0  0  0  0
   -2.1143   -1.4696   -1.5013 H   0  0  0  0  0  0  0  0  0  0  0  0
   -2.5987    0.7366   -2.9058 H   0  0  0  0  0  0  0  0  0  0  0  0
  1  2  1  0
  2  3  1  0
  2  4  1  0
  4  5  2  3
  4  6  1  0
  6  7  1  0
  7  8  1  0
  7  9  1  0
  9 10  1  0
  7 11  1  0
 11 12  1  0
  1 13  1  0
  1 14  1  0
  1 15  1  0
  3 16  1  0
  3 17  1  0
  3 18  1  0
  5 19  1  0
  6 20  1  0
  8 21  1  0
  8 22  1  0
  8 23  1  0
  9 24  1  0
  9 25  1  0
 10 26  1  0
 11 27  1  0
 11 28  1  0
 12 29  1  0
M  END
$$$$

     RDKit          3D

 29 28  0  0  0  0  0  0  0  0999 V2000
    3.1204   -0.5731    0.8344 C   0  0  0  0  0  0  0  0  0  0  0  0
    2.2073    0.2195    0.0322 N   0  0  0  0  0  0  0  0  0  0  0  0
    2.7075    0.8251   -1.1780 C   0  0  0  0  0  0  0  0  0  0  0  0
    0.8771    0.3455    0.4953 C   0  0  0  0  0  0  0  0  0  0  0  0
    0.5171    1.3252    1.2452 N   0  0  0  0  0  0  0  0  0  0  0  0
   -0.0855   -0.6276    0.1278 N   0  0  0  0  0  0  0  0  0  0  0  0
   -1.4822   -0.2809    0.0568 C   0  0  0  0  0  0  0  0  0  0  0  0
   -2.0326    0.2089    1.3676 C   0  0  0  0  0  0  0  0  0  0  0  0
   -2.2734   -1.5486   -0.2858 C   0  0  0  0  0  0  0  0  0  0  0  0
   -1.8539   -2.0553   -1.5016 O   0  0  0  0  0  0  0  0  0  0  0  0
   -1.7863    0.7396   -1.0033 C   0  0  0  0  0  0  0  0  0  0  0  0
   -1.1075    1.9264   -0.7950 O   0  0  0  0  0  0  0  0  0  0  0  0
    3.5664   -1.3673    0.1808 H   0  0  0  0  0  0  0  0  0  0  0  0
    3.9218    0.1047    1.1963 H   0  0  0  0  0  0  0  0  0  0  0  0
    2.6277   -1.0882    1.6675 H   0  0  0  0  0  0  0  0  0  0  0  0
    3.6349    1.3907   -0.8808 H   0  0  0  0  0  0  0  0  0  0  0  0
    3.0301    0.0318   -1.9110 H   0  0  0  0  0  0  0  0  0  0  0  0
    2.0087    1.5347   -1.6321 H   0  0  0  0  0  0  0  0  0  0  0  0
    1.2177    2.0531    1.5259 H   0  0  0  0  0  0  0  0  0  0  0  0
    0.2454   -1.6144   -0.0933 H   0  0  0  0  0  0  0  0  0  0  0  0
   -1.5693   -0.3753    2.2034 H   0  0  0  0  0  0  0  0  0  0  0  0
   -1.8927    1.2945    1.5177 H   0  0  0  0  0  0  0  0  0  0  0  0
   -3.1213   -0.0054    1.3757 H   0  0  0  0  0  0  0  0  0  0  0  0
   -1.9743   -2.2865    0.5139 H   0  0  0  0  0  0  0  0  0  0  0  0
   -3.3609   -1.3705   -0.2306 H   0  0  0  0  0  0  0  0  0  0  0  0
   -1.0688   -2.6380   -1.4327 H   0  0  0  0  0  0  0  0  0  0  0  0
   -1.5388    0.3030   -2.0122 H   0  0  0  0  0  0  0  0  0  0  0  0
   -2.8636    0.9631   -0.9693 H   0  0  0  0  0  0  0  0  0  0  0  0
   -1.6711    2.5653   -0.2659 H   0  0  0  0  0  0  0  0  0  0  0  0
  1  2  1  0
  2  3  1  0
  2  4  1  0
  4  5  2  3
  4  6  1  0
  6  7  1  0
  7  8  1  0
  7  9  1  0
  9 10  1  0
  7 11  1  0
 11 12  1  0
  1 13  1  0
  1 14  1  0
  1 15  1  0
  3 16  1  0
  3 17  1  0
  3 18  1  0
  5 19  1  0
  6 20  1  0
  8 21  1  0
  8 22  1  0
  8 23  1  0
  9 24  1  0
  9 25  1  0
 10 26  1  0
 11 27  1  0
 11 28  1  0
 12 29  1  0
M  END
$$$$

     RDKit          3D

 29 28  0  0  0  0  0  0  0  0999 V2000
    3.0950    0.8583   -0.1088 C   0  0  0  0  0  0  0  0  0  0  0  0
    2.2595   -0.2899   -0.3113 N   0  0  0  0  0  0  0  0  0  0  0  0
    2.6727   -1.3330   -1.2248 C   0  0  0  0  0  0  0  0  0  0  0  0
    1.0216   -0.4562    0.3545 C   0  0  0  0  0  0  0  0  0  0  0  0
    0.6563   -1.5258    0.9596 N   0  0  0  0  0  0  0  0  0  0  0  0
    0.1274    0.6454    0.3497 N   0  0  0  0  0  0  0  0  0  0  0  0
   -1.2859    0.4533    0.3633 C   0  0  0  0  0  0  0  0  0  0  0  0
   -1.7786   -0.3171    1.5596 C   0  0  0  0  0  0  0  0  0  0  0  0
   -1.7113   -0.2870   -0.8837 C   0  0  0  0  0  0  0  0  0  0  0  0
   -1.1357   -1.5268   -1.0149 O   0  0  0  0  0  0  0  0  0  0  0  0
   -1.9548    1.8089    0.3055 C   0  0  0  0  0  0  0  0  0  0  0  0
   -3.3264    1.7606    0.3123 O   0  0  0  0  0  0  0  0  0  0  0  0
    3.7525    1.0762   -0.9829 H   0  0  0  0  0  0  0  0  0  0  0  0
    3.7816    0.7210    0.7743 H   0  0  0  0  0  0  0  0  0  0  0  0
    2.5259    1.7897    0.0793 H   0  0  0  0  0  0  0  0  0  0  0  0
    2.0949   -1.1893   -2.1639 H   0  0  0  0  0  0  0  0  0  0  0  0
    2.3901   -2.2992   -0.7570 H   0  0  0  0  0  0  0  0  0  0  0  0
    3.7417   -1.2903   -1.4623 H   0  0  0  0  0  0  0  0  0  0  0  0
    1.2076   -2.3892    1.0384 H   0  0  0  0  0  0  0  0  0  0  0  0
    0.4880    1.6465    0.3361 H   0  0  0  0  0  0  0  0  0  0  0  0
   -2.2433   -1.2776    1.2584 H   0  0  0  0  0  0  0  0  0  0  0  0
   -2.5802    0.2747    2.0433 H   0  0  0  0  0  0  0  0  0  0  0  0
   -0.9774   -0.4506    2.3134 H   0  0  0  0  0  0  0  0  0  0  0  0
   -2.8058   -0.2869   -0.9930 H   0  0  0  0  0  0  0  0  0  0  0  0
   -1.3294    0.3345   -1.7468 H   0  0  0  0  0  0  0  0  0  0  0  0
   -1.7903   -2.1205   -1.4796 H   0  0  0  0  0  0  0  0  0  0  0  0
   -1.6511    2.4171    1.2077 H   0  0  0  0  0  0  0  0  0  0  0  0
   -1.5590    2.3879   -0.5639 H   0  0  0  0  0  0  0  0  0  0  0  0
   -3.6856    0.8654    0.4378 H   0  0  0  0  0  0  0  0  0  0  0  0
  1  2  1  0
  2  3  1  0
  2  4  1  0
  4  5  2  3
  4  6  1  0
  6  7  1  0
  7  8  1  0
  7  9  1  0
  9 10  1  0
  7 11  1  0
 11 12  1  0
  1 13  1  0
  1 14  1  0
  1 15  1  0
  3 16  1  0
  3 17  1  0
  3 18  1  0
  5 19  1  0
  6 20  1  0
  8 21  1  0
  8 22  1  0
  8 23  1  0
  9 24  1  0
  9 25  1  0
 10 26  1  0
 11 27  1  0
 11 28  1  0
 12 29  1  0
M  END
$$$$

     RDKit          3D

 29 28  0  0  0  0  0  0  0  0999 V2000
    3.0210   -0.9319    0.5657 C   0  0  0  0  0  0  0  0  0  0  0  0
    2.3389    0.3542    0.3525 N   0  0  0  0  0  0  0  0  0  0  0  0
    3.1144    1.4473   -0.1791 C   0  0  0  0  0  0  0  0  0  0  0  0
    0.9590    0.4596    0.6773 C   0  0  0  0  0  0  0  0  0  0  0  0
    0.4820    1.3627    1.4503 N   0  0  0  0  0  0  0  0  0  0  0  0
    0.0674   -0.4986    0.1043 N   0  0  0  0  0  0  0  0  0  0  0  0
   -1.3246   -0.2759   -0.0428 C   0  0  0  0  0  0  0  0  0  0  0  0
   -1.9601   -1.4934   -0.6882 C   0  0  0  0  0  0  0  0  0  0  0  0
   -2.0661   -0.0483    1.2453 C   0  0  0  0  0  0  0  0  0  0  0  0
   -1.9517   -1.1274    2.0903 O   0  0  0  0  0  0  0  0  0  0  0  0
   -1.5863    0.8817   -1.0182 C   0  0  0  0  0  0  0  0  0  0  0  0
   -2.9669    1.0354   -1.1070 O   0  0  0  0  0  0  0  0  0  0  0  0
    3.4776   -1.2991   -0.3826 H   0  0  0  0  0  0  0  0  0  0  0  0
    3.7869   -0.7460    1.3367 H   0  0  0  0  0  0  0  0  0  0  0  0
    2.2887   -1.7050    0.8975 H   0  0  0  0  0  0  0  0  0  0  0  0
    3.2564    1.3628   -1.2771 H   0  0  0  0  0  0  0  0  0  0  0  0
    4.1441    1.3739    0.2743 H   0  0  0  0  0  0  0  0  0  0  0  0
    2.7358    2.4372    0.0919 H   0  0  0  0  0  0  0  0  0  0  0  0
    1.1470    2.0564    1.8613 H   0  0  0  0  0  0  0  0  0  0  0  0
    0.4913   -1.3973   -0.2119 H   0  0  0  0  0  0  0  0  0  0  0  0
   -1.6863   -1.5612   -1.7665 H   0  0  0  0  0  0  0  0  0  0  0  0
   -3.0369   -1.4976   -0.5128 H   0  0  0  0  0  0  0  0  0  0  0  0
   -1.5103   -2.3990   -0.2148 H   0  0  0  0  0  0  0  0  0  0  0  0
   -3.1580    0.0294    0.9664 H   0  0  0  0  0  0  0  0  0  0  0  0
   -1.8189    0.8608    1.7747 H   0  0  0  0  0  0  0  0  0  0  0  0
   -2.7205   -1.2273    2.7215 H   0  0  0  0  0  0  0  0  0  0  0  0
   -1.0727    1.7631   -0.6207 H   0  0  0  0  0  0  0  0  0  0  0  0
   -1.1508    0.5438   -1.9891 H   0  0  0  0  0  0  0  0  0  0  0  0
   -3.3002    0.2396   -1.6215 H   0  0  0  0  0  0  0  0  0  0  0  0
  1  2  1  0
  2  3  1  0
  2  4  1  0
  4  5  2  3
  4  6  1  0
  6  7  1  0
  7  8  1  0
  7  9  1  0
  9 10  1  0
  7 11  1  0
 11 12  1  0
  1 13  1  0
  1 14  1  0
  1 15  1  0
  3 16  1  0
  3 17  1  0
  3 18  1  0
  5 19  1  0
  6 20  1  0
  8 21  1  0
  8 22  1  0
  8 23  1  0
  9 24  1  0
  9 25  1  0
 10 26  1  0
 11 27  1  0
 11 28  1  0
 12 29  1  0
M  END
$$$$

     RDKit          3D

 29 28  0  0  0  0  0  0  0  0999 V2000
    2.7228   -1.0583    1.0360 C   0  0  0  0  0  0  0  0  0  0  0  0
    2.4578   -0.0023    0.0527 N   0  0  0  0  0  0  0  0  0  0  0  0
    3.5394    0.5463   -0.7007 C   0  0  0  0  0  0  0  0  0  0  0  0
    1.1130    0.4575   -0.1309 C   0  0  0  0  0  0  0  0  0  0  0  0
    0.7954    1.7128   -0.0320 N   0  0  0  0  0  0  0  0  0  0  0  0
    0.0480   -0.4303   -0.4315 N   0  0  0  0  0  0  0  0  0  0  0  0
   -1.3121   -0.0430   -0.2599 C   0  0  0  0  0  0  0  0  0  0  0  0
   -1.7011    1.1576   -1.0950 C   0  0  0  0  0  0  0  0  0  0  0  0
   -2.2377   -1.1749   -0.6647 C   0  0  0  0  0  0  0  0  0  0  0  0
   -3.5697   -0.8304   -0.5096 O   0  0  0  0  0  0  0  0  0  0  0  0
   -1.5837    0.2134    1.2219 C   0  0  0  0  0  0  0  0  0  0  0  0
   -2.8980    0.5944    1.4440 O   0  0  0  0  0  0  0  0  0  0  0  0
    2.8946   -1.9855    0.4382 H   0  0  0  0  0  0  0  0  0  0  0  0
    1.8629   -1.1647    1.7314 H   0  0  0  0  0  0  0  0  0  0  0  0
    3.6745   -0.8500    1.5532 H   0  0  0  0  0  0  0  0  0  0  0  0
    3.2538    0.5638   -1.7850 H   0  0  0  0  0  0  0  0  0  0  0  0
    4.4347   -0.0987   -0.6358 H   0  0  0  0  0  0  0  0  0  0  0  0
    3.8400    1.5583   -0.3695 H   0  0  0  0  0  0  0  0  0  0  0  0
    1.5690    2.3777    0.1889 H   0  0  0  0  0  0  0  0  0  0  0  0
    0.2799   -1.3798   -0.7836 H   0  0  0  0  0  0  0  0  0  0  0  0
   -2.7601    1.1049   -1.4449 H   0  0  0  0  0  0  0  0  0  0  0  0
   -1.0835    1.2676   -1.9970 H   0  0  0  0  0  0  0  0  0  0  0  0
   -1.6496    2.0451   -0.4203 H   0  0  0  0  0  0  0  0  0  0  0  0
   -2.0658   -1.3198   -1.7702 H   0  0  0  0  0  0  0  0  0  0  0  0
   -2.0260   -2.0989   -0.0943 H   0  0  0  0  0  0  0  0  0  0  0  0
   -4.1161   -1.5575   -0.1218 H   0  0  0  0  0  0  0  0  0  0  0  0
   -0.9219    1.0431    1.6051 H   0  0  0  0  0  0  0  0  0  0  0  0
   -1.3506   -0.7409    1.7380 H   0  0  0  0  0  0  0  0  0  0  0  0
   -3.2098    0.0927    2.2372 H   0  0  0  0  0  0  0  0  0  0  0  0
  1  2  1  0
  2  3  1  0
  2  4  1  0
  4  5  2  3
  4  6  1  0
  6  7  1  0
  7  8  1  0
  7  9  1  0
  9 10  1  0
  7 11  1  0
 11 12  1  0
  1 13  1  0
  1 14  1  0
  1 15  1  0
  3 16  1  0
  3 17  1  0
  3 18  1  0
  5 19  1  0
  6 20  1  0
  8 21  1  0
  8 22  1  0
  8 23  1  0
  9 24  1  0
  9 25  1  0
 10 26  1  0
 11 27  1  0
 11 28  1  0
 12 29  1  0
M  END
$$$$

     RDKit          3D

 29 28  0  0  0  0  0  0  0  0999 V2000
    3.2346    0.5636    1.0963 C   0  0  0  0  0  0  0  0  0  0  0  0
    2.4222    0.0779   -0.0136 N   0  0  0  0  0  0  0  0  0  0  0  0
    3.0069   -0.8117   -1.0237 C   0  0  0  0  0  0  0  0  0  0  0  0
    1.0658    0.4658   -0.1168 C   0  0  0  0  0  0  0  0  0  0  0  0
    0.7204    1.4354   -0.8799 N   0  0  0  0  0  0  0  0  0  0  0  0
    0.0443   -0.1950    0.6119 N   0  0  0  0  0  0  0  0  0  0  0  0
   -1.3367   -0.1347    0.1999 C   0  0  0  0  0  0  0  0  0  0  0  0
   -1.8745    1.2770    0.1618 C   0  0  0  0  0  0  0  0  0  0  0  0
   -2.1565   -0.8937    1.2130 C   0  0  0  0  0  0  0  0  0  0  0  0
   -3.5011   -0.9138    0.9375 O   0  0  0  0  0  0  0  0  0  0  0  0
   -1.4308   -0.7030   -1.1827 C   0  0  0  0  0  0  0  0  0  0  0  0
   -2.6974   -0.7103   -1.7090 O   0  0  0  0  0  0  0  0  0  0  0  0
    2.7017    0.4534    2.0638 H   0  0  0  0  0  0  0  0  0  0  0  0
    4.1861   -0.0245    1.1011 H   0  0  0  0  0  0  0  0  0  0  0  0
    3.3878    1.6376    0.9259 H   0  0  0  0  0  0  0  0  0  0  0  0
    2.1607   -1.3905   -1.4823 H   0  0  0  0  0  0  0  0  0  0  0  0
    3.7324   -1.4931   -0.5587 H   0  0  0  0  0  0  0  0  0  0  0  0
    3.4745   -0.1380   -1.7793 H   0  0  0  0  0  0  0  0  0  0  0  0
    1.4536    1.9347   -1.4241 H   0  0  0  0  0  0  0  0  0  0  0  0
    0.3374   -0.7308    1.4649 H   0  0  0  0  0  0  0  0  0  0  0  0
   -2.9871    1.1879    0.2194 H   0  0  0  0  0  0  0  0  0  0  0  0
   -1.5527    1.8409    1.0465 H   0  0  0  0  0  0  0  0  0  0  0  0
   -1.6626    1.7913   -0.7922 H   0  0  0  0  0  0  0  0  0  0  0  0
   -1.8273   -1.9735    1.2754 H   0  0  0  0  0  0  0  0  0  0  0  0
   -2.0063   -0.4978    2.2378 H   0  0  0  0  0  0  0  0  0  0  0  0
   -4.0394   -0.3207    1.5196 H   0  0  0  0  0  0  0  0  0  0  0  0
   -0.7778   -0.1259   -1.8682 H   0  0  0  0  0  0  0  0  0  0  0  0
   -1.0538   -1.7624   -1.2258 H   0  0  0  0  0  0  0  0  0  0  0  0
   -3.0245    0.1538   -2.0187 H   0  0  0  0  0  0  0  0  0  0  0  0
  1  2  1  0
  2  3  1  0
  2  4  1  0
  4  5  2  3
  4  6  1  0
  6  7  1  0
  7  8  1  0
  7  9  1  0
  9 10  1  0
  7 11  1  0
 11 12  1  0
  1 13  1  0
  1 14  1  0
  1 15  1  0
  3 16  1  0
  3 17  1  0
  3 18  1  0
  5 19  1  0
  6 20  1  0
  8 21  1  0
  8 22  1  0
  8 23  1  0
  9 24  1  0
  9 25  1  0
 10 26  1  0
 11 27  1  0
 11 28  1  0
 12 29  1  0
M  END
$$$$

     RDKit          3D

 29 28  0  0  0  0  0  0  0  0999 V2000
    2.9226    1.4232    0.5637 C   0  0  0  0  0  0  0  0  0  0  0  0
    2.3138    0.1938    0.0998 N   0  0  0  0  0  0  0  0  0  0  0  0
    3.0583   -1.0334    0.2931 C   0  0  0  0  0  0  0  0  0  0  0  0
    1.0368    0.2492   -0.5127 C   0  0  0  0  0  0  0  0  0  0  0  0
    0.6896    1.1821   -1.3507 N   0  0  0  0  0  0  0  0  0  0  0  0
    0.0237   -0.7333   -0.2481 N   0  0  0  0  0  0  0  0  0  0  0  0
   -1.3625   -0.3865   -0.3288 C   0  0  0  0  0  0  0  0  0  0  0  0
   -1.7681    0.1148   -1.6974 C   0  0  0  0  0  0  0  0  0  0  0  0
   -1.7665    0.6562    0.6887 C   0  0  0  0  0  0  0  0  0  0  0  0
   -1.0691    1.8487    0.5487 O   0  0  0  0  0  0  0  0  0  0  0  0
   -2.1799   -1.6346   -0.0665 C   0  0  0  0  0  0  0  0  0  0  0  0
   -3.5374   -1.3145   -0.1414 O   0  0  0  0  0  0  0  0  0  0  0  0
    3.7295    1.2294    1.2689 H   0  0  0  0  0  0  0  0  0  0  0  0
    2.1054    2.0480    0.9783 H   0  0  0  0  0  0  0  0  0  0  0  0
    3.3746    1.9018   -0.3510 H   0  0  0  0  0  0  0  0  0  0  0  0
    4.0387   -0.9745   -0.2390 H   0  0  0  0  0  0  0  0  0  0  0  0
    2.4717   -1.9210   -0.0418 H   0  0  0  0  0  0  0  0  0  0  0  0
    3.3026   -1.0932    1.3779 H   0  0  0  0  0  0  0  0  0  0  0  0
    1.3202    1.9554   -1.6341 H   0  0  0  0  0  0  0  0  0  0  0  0
    0.3318   -1.7011    0.0040 H   0  0  0  0  0  0  0  0  0  0  0  0
   -1.6604    1.2086   -1.8045 H   0  0  0  0  0  0  0  0  0  0  0  0
   -2.8361   -0.1274   -1.8423 H   0  0  0  0  0  0  0  0  0  0  0  0
   -1.1936   -0.3529   -2.5104 H   0  0  0  0  0  0  0  0  0  0  0  0
   -2.8460    0.8919    0.6015 H   0  0  0  0  0  0  0  0  0  0  0  0
   -1.6064    0.2957    1.7329 H   0  0  0  0  0  0  0  0  0  0  0  0
   -0.9585    2.3042    1.4334 H   0  0  0  0  0  0  0  0  0  0  0  0
   -1.8985   -2.4647   -0.7444 H   0  0  0  0  0  0  0  0  0  0  0  0
   -1.9588   -1.9352    0.9911 H   0  0  0  0  0  0  0  0  0  0  0  0
   -4.0774   -1.8305    0.5311 H   0  0  0  0  0  0  0  0  0  0  0  0
  1  2  1  0
  2  3  1  0
  2  4  1  0
  4  5  2  3
  4  6  1  0
  6  7  1  0
  7  8  1  0
  7  9  1  0
  9 10  1  0
  7 11  1  0
 11 12  1  0
  1 13  1  0
  1 14  1  0
  1 15  1  0
  3 16  1  0
  3 17  1  0
  3 18  1  0
  5 19  1  0
  6 20  1  0
  8 21  1  0
  8 22  1  0
  8 23  1  0
  9 24  1  0
  9 25  1  0
 10 26  1  0
 11 27  1  0
 11 28  1  0
 12 29  1  0
M  END
$$$$
