
     RDKit          3D

 28 27  0  0  0  0  0  0  0  0999 V2000
   -1.6584   -1.7238   -1.0529 C   0  0  0  0  0  0  0  0  0  0  0  0
   -1.3749   -0.5059   -0.3159 N   0  0  0  0  0  0  0  0  0  0  0  0
   -0.0460    0.0541   -0.2154 C   0  0  0  0  0  0  0  0  0  0  0  0
    0.8339   -0.8370    0.6122 C   0  0  0  0  0  0  0  0  0  0  0  0
    2.1228   -0.3904    0.7744 O   0  0  0  0  0  0  0  0  0  0  0  0
    2.7664   -0.2809   -0.4215 C   0  0  0  0  0  0  0  0  0  0  0  0
    4.2033    0.1921   -0.2797 C   0  0  0  0  0  0  0  0  0  0  0  0
    4.2945    1.4445    0.3208 O   0  0  0  0  0  0  0  0  0  0  0  0
   -2.4520    0.1449    0.3262 C   0  0  0  0  0  0  0  0  0  0  0  0
   -2.7623   -0.2182    1.5248 N   0  0  0  0  0  0  0  0  0  0  0  0
   -3.2137    1.1786   -0.2754 N   0  0  0  0  0  0  0  0  0  0  0  0
   -3.8042    2.1123    0.5858 N   0  0  0  0  0  0  0  0  0  0  0  0
   -2.3428   -1.5514   -1.8998 H   0  0  0  0  0  0  0  0  0  0  0  0
   -0.6799   -2.0981   -1.4388 H   0  0  0  0  0  0  0  0  0  0  0  0
   -2.0880   -2.4466   -0.3412 H   0  0  0  0  0  0  0  0  0  0  0  0
    0.3258    0.1615   -1.2501 H   0  0  0  0  0  0  0  0  0  0  0  0
   -0.1343    1.0724    0.2148 H   0  0  0  0  0  0  0  0  0  0  0  0
    0.3918   -0.9949    1.6192 H   0  0  0  0  0  0  0  0  0  0  0  0
    0.8113   -1.8530    0.1187 H   0  0  0  0  0  0  0  0  0  0  0  0
    2.8249   -1.2500   -0.9663 H   0  0  0  0  0  0  0  0  0  0  0  0
    2.2853    0.4370   -1.0906 H   0  0  0  0  0  0  0  0  0  0  0  0
    4.6368    0.1992   -1.2996 H   0  0  0  0  0  0  0  0  0  0  0  0
    4.7878   -0.5091    0.3805 H   0  0  0  0  0  0  0  0  0  0  0  0
    3.8534    2.1613   -0.1903 H   0  0  0  0  0  0  0  0  0  0  0  0
   -2.2299   -0.9866    2.0291 H   0  0  0  0  0  0  0  0  0  0  0  0
   -3.2980    1.1969   -1.3045 H   0  0  0  0  0  0  0  0  0  0  0  0
   -4.7869    2.2683    0.3275 H   0  0  0  0  0  0  0  0  0  0  0  0
   -3.2666    3.0227    0.5115 H   0  0  0  0  0  0  0  0  0  0  0  0
  1  2  1  0
  2  3  1  0
  3  4  1  0
  4  5  1  0
  5  6  1  0
  6  7  1  0
  7  8  1  0
  2  9  1  0
  9 10  2  3
  9 11  1  0
 11 12  1  0
  1 13  1  0
  1 14  1  0
  1 15  1  0
  3 16  1  0
  3 17  1  0
  4 18  1  0
  4 19  1  0
  6 20  1  0
  6 21  1  0
  7 22  1  0
  7 23  1  0
  8 24  1  0
 10 25  1  0
 11 26  1  0
 12 27  1  0
 12 28  1  0
M  END
$$$$

     RDKit          3D

 28 27  0  0  0  0  0  0  0  0999 V2000
   -1.9406   -1.9551   -0.1002 C   0  0  0  0  0  0  0  0  0  0  0  0
   -1.6989   -0.5628    0.2523 N   0  0  0  0  0  0  0  0  0  0  0  0
   -0.4594   -0.2747    0.9327 C   0  0  0  0  0  0  0  0  0  0  0  0
    0.7343   -0.4780    0.0213 C   0  0  0  0  0  0  0  0  0  0  0  0
    1.9329   -0.2048    0.6683 O   0  0  0  0  0  0  0  0  0  0  0  0
    2.9556   -0.4336   -0.2589 C   0  0  0  0  0  0  0  0  0  0  0  0
    4.3113   -0.1644    0.3290 C   0  0  0  0  0  0  0  0  0  0  0  0
    4.4770    1.1336    0.7640 O   0  0  0  0  0  0  0  0  0  0  0  0
   -2.6851    0.3953   -0.0867 C   0  0  0  0  0  0  0  0  0  0  0  0
   -3.9344    0.0709   -0.2827 N   0  0  0  0  0  0  0  0  0  0  0  0
   -2.3902    1.7725   -0.2409 N   0  0  0  0  0  0  0  0  0  0  0  0
   -3.3901    2.7106   -0.5654 N   0  0  0  0  0  0  0  0  0  0  0  0
   -2.7749   -2.2720    0.5910 H   0  0  0  0  0  0  0  0  0  0  0  0
   -2.3826   -2.0125   -1.1323 H   0  0  0  0  0  0  0  0  0  0  0  0
   -1.0628   -2.5915    0.0067 H   0  0  0  0  0  0  0  0  0  0  0  0
   -0.4801    0.7959    1.2030 H   0  0  0  0  0  0  0  0  0  0  0  0
   -0.3512   -0.8442    1.8743 H   0  0  0  0  0  0  0  0  0  0  0  0
    0.7724   -1.5464   -0.2616 H   0  0  0  0  0  0  0  0  0  0  0  0
    0.6899    0.1763   -0.8759 H   0  0  0  0  0  0  0  0  0  0  0  0
    2.7808    0.3006   -1.0784 H   0  0  0  0  0  0  0  0  0  0  0  0
    2.9247   -1.4575   -0.6537 H   0  0  0  0  0  0  0  0  0  0  0  0
    5.0503   -0.3574   -0.5002 H   0  0  0  0  0  0  0  0  0  0  0  0
    4.5634   -0.8698    1.1329 H   0  0  0  0  0  0  0  0  0  0  0  0
    5.4325    1.4533    0.7118 H   0  0  0  0  0  0  0  0  0  0  0  0
   -4.1625   -0.9442   -0.1742 H   0  0  0  0  0  0  0  0  0  0  0  0
   -1.4125    2.1000   -0.1114 H   0  0  0  0  0  0  0  0  0  0  0  0
   -4.3262    2.4204   -0.1738 H   0  0  0  0  0  0  0  0  0  0  0  0
   -3.1740    3.6393   -0.1118 H   0  0  0  0  0  0  0  0  0  0  0  0
  1  2  1  0
  2  3  1  0
  3  4  1  0
  4  5  1  0
  5  6  1  0
  6  7  1  0
  7  8  1  0
  2  9  1  0
  9 10  2  3
  9 11  1  0
 11 12  1  0
  1 13  1  0
  1 14  1  0
  1 15  1  0
  3 16  1  0
  3 17  1  0
  4 18  1  0
  4 19  1  0
  6 20  1  0
  6 21  1  0
  7 22  1  0
  7 23  1  0
  8 24  1  0
 10 25  1  0
 11 26  1  0
 12 27  1  0
 12 28  1  0
M  END
$$$$

     RDKit          3D

 28 27  0  0  0  0  0  0  0  0999 V2000
   -1.5498   -1.7305   -1.1967 C   0  0  0  0  0  0  0  0  0  0  0  0
   -1.3419   -0.8604   -0.0480 N   0  0  0  0  0  0  0  0  0  0  0  0
   -0.4684   -1.2113    1.0432 C   0  0  0  0  0  0  0  0  0  0  0  0
    0.9930   -1.2368    0.6577 C   0  0  0  0  0  0  0  0  0  0  0  0
    1.3916    0.0149    0.2058 O   0  0  0  0  0  0  0  0  0  0  0  0
    2.7335   -0.0545   -0.1394 C   0  0  0  0  0  0  0  0  0  0  0  0
    3.2310    1.3026   -0.6327 C   0  0  0  0  0  0  0  0  0  0  0  0
    4.5732    1.1288   -0.9516 O   0  0  0  0  0  0  0  0  0  0  0  0
   -2.0310    0.3710   -0.0203 C   0  0  0  0  0  0  0  0  0  0  0  0
   -2.1033    1.0306   -1.1519 N   0  0  0  0  0  0  0  0  0  0  0  0
   -2.6437    0.9384    1.1253 N   0  0  0  0  0  0  0  0  0  0  0  0
   -3.7822    1.7617    1.0385 N   0  0  0  0  0  0  0  0  0  0  0  0
   -1.1760   -1.3214   -2.1336 H   0  0  0  0  0  0  0  0  0  0  0  0
   -2.6387   -1.9705   -1.2075 H   0  0  0  0  0  0  0  0  0  0  0  0
   -1.0410   -2.7097   -0.9483 H   0  0  0  0  0  0  0  0  0  0  0  0
   -0.5710   -0.4885    1.8686 H   0  0  0  0  0  0  0  0  0  0  0  0
   -0.6901   -2.2466    1.4380 H   0  0  0  0  0  0  0  0  0  0  0  0
    1.2324   -2.0408   -0.0662 H   0  0  0  0  0  0  0  0  0  0  0  0
    1.5642   -1.4479    1.5837 H   0  0  0  0  0  0  0  0  0  0  0  0
    2.8379   -0.7449   -1.0213 H   0  0  0  0  0  0  0  0  0  0  0  0
    3.4028   -0.3821    0.6547 H   0  0  0  0  0  0  0  0  0  0  0  0
    2.6584    1.6724   -1.4813 H   0  0  0  0  0  0  0  0  0  0  0  0
    3.1951    2.0010    0.2347 H   0  0  0  0  0  0  0  0  0  0  0  0
    4.7156    0.9448   -1.9039 H   0  0  0  0  0  0  0  0  0  0  0  0
   -2.5987    1.9482   -1.1998 H   0  0  0  0  0  0  0  0  0  0  0  0
   -2.1986    0.7082    2.0473 H   0  0  0  0  0  0  0  0  0  0  0  0
   -3.5794    2.7085    0.6562 H   0  0  0  0  0  0  0  0  0  0  0  0
   -4.1151    1.9148    2.0395 H   0  0  0  0  0  0  0  0  0  0  0  0
  1  2  1  0
  2  3  1  0
  3  4  1  0
  4  5  1  0
  5  6  1  0
  6  7  1  0
  7  8  1  0
  2  9  1  0
  9 10  2  3
  9 11  1  0
 11 12  1  0
  1 13  1  0
  1 14  1  0
  1 15  1  0
  3 16  1  0
  3 17  1  0
  4 18  1  0
  4 19  1  0
  6 20  1  0
  6 21  1  0
  7 22  1  0
  7 23  1  0
  8 24  1  0
 10 25  1  0
 11 26  1  0
 12 27  1  0
 12 28  1  0
M  END
$$$$

     RDKit          3D

 28 27  0  0  0  0  0  0  0  0999 V2000
   -1.6872   -2.0341   -0.4982 C   0  0  0  0  0  0  0  0  0  0  0  0
   -1.4207   -0.9378    0.4009 N   0  0  0  0  0  0  0  0  0  0  0  0
   -0.5078   -1.0335    1.5198 C   0  0  0  0  0  0  0  0  0  0  0  0
    0.9320   -1.1806    1.0927 C   0  0  0  0  0  0  0  0  0  0  0  0
    1.3283   -0.0853    0.3308 O   0  0  0  0  0  0  0  0  0  0  0  0
    2.6489   -0.1899   -0.0756 C   0  0  0  0  0  0  0  0  0  0  0  0
    2.9875    1.0452   -0.8972 C   0  0  0  0  0  0  0  0  0  0  0  0
    2.8342    2.2048   -0.1769 O   0  0  0  0  0  0  0  0  0  0  0  0
   -2.0944    0.2875    0.1645 C   0  0  0  0  0  0  0  0  0  0  0  0
   -2.9869    0.7714    0.9885 N   0  0  0  0  0  0  0  0  0  0  0  0
   -1.8452    1.0823   -0.9920 N   0  0  0  0  0  0  0  0  0  0  0  0
   -2.2114    2.4270   -1.0641 N   0  0  0  0  0  0  0  0  0  0  0  0
   -2.6403   -2.5644   -0.2235 H   0  0  0  0  0  0  0  0  0  0  0  0
   -1.8918   -1.5988   -1.5192 H   0  0  0  0  0  0  0  0  0  0  0  0
   -0.8550   -2.7493   -0.5836 H   0  0  0  0  0  0  0  0  0  0  0  0
   -0.8383   -1.8712    2.1676 H   0  0  0  0  0  0  0  0  0  0  0  0
   -0.5494   -0.1268    2.1655 H   0  0  0  0  0  0  0  0  0  0  0  0
    1.1792   -2.1325    0.6341 H   0  0  0  0  0  0  0  0  0  0  0  0
    1.5355   -1.1159    2.0402 H   0  0  0  0  0  0  0  0  0  0  0  0
    2.7708   -1.0995   -0.6643 H   0  0  0  0  0  0  0  0  0  0  0  0
    3.3624   -0.1646    0.7993 H   0  0  0  0  0  0  0  0  0  0  0  0
    2.3599    1.0394   -1.7989 H   0  0  0  0  0  0  0  0  0  0  0  0
    4.0460    1.0128   -1.2477 H   0  0  0  0  0  0  0  0  0  0  0  0
    1.8575    2.4262   -0.1147 H   0  0  0  0  0  0  0  0  0  0  0  0
   -3.1755    0.2012    1.8338 H   0  0  0  0  0  0  0  0  0  0  0  0
   -1.3708    0.6032   -1.7898 H   0  0  0  0  0  0  0  0  0  0  0  0
   -1.6656    3.0334   -0.4407 H   0  0  0  0  0  0  0  0  0  0  0  0
   -2.1019    2.7498   -2.0512 H   0  0  0  0  0  0  0  0  0  0  0  0
  1  2  1  0
  2  3  1  0
  3  4  1  0
  4  5  1  0
  5  6  1  0
  6  7  1  0
  7  8  1  0
  2  9  1  0
  9 10  2  3
  9 11  1  0
 11 12  1  0
  1 13  1  0
  1 14  1  0
  1 15  1  0
  3 16  1  0
  3 17  1  0
  4 18  1  0
  4 19  1  0
  6 20  1  0
  6 21  1  0
  7 22  1  0
  7 23  1  0
  8 24  1  0
 10 25  1  0
 11 26  1  0
 12 27  1  0
 12 28  1  0
M  END
$$$$

     RDKit          3D

 28 27  0  0  0  0  0  0  0  0999 V2000
   -1.9815   -1.5666    0.6044 C   0  0  0  0  0  0  0  0  0  0  0  0
   -1.1877   -0.7542   -0.2989 N   0  0  0  0  0  0  0  0  0  0  0  0
    0.2058   -1.0655   -0.5452 C   0  0  0  0  0  0  0  0  0  0  0  0
    1.0446   -0.8194    0.7038 C   0  0  0  0  0  0  0  0  0  0  0  0
    2.3553   -1.0899    0.5480 O   0  0  0  0  0  0  0  0  0  0  0  0
    3.0592   -0.4155   -0.3817 C   0  0  0  0  0  0  0  0  0  0  0  0
    3.1182    1.0777   -0.2119 C   0  0  0  0  0  0  0  0  0  0  0  0
    3.6926    1.4626    0.9877 O   0  0  0  0  0  0  0  0  0  0  0  0
   -1.8271    0.3480   -0.9280 C   0  0  0  0  0  0  0  0  0  0  0  0
   -1.6180    0.5784   -2.1712 N   0  0  0  0  0  0  0  0  0  0  0  0
   -2.6921    1.1990   -0.2118 N   0  0  0  0  0  0  0  0  0  0  0  0
   -3.6672    2.0009   -0.8345 N   0  0  0  0  0  0  0  0  0  0  0  0
   -1.3525   -2.2814    1.1730 H   0  0  0  0  0  0  0  0  0  0  0  0
   -2.7471   -2.1294    0.0211 H   0  0  0  0  0  0  0  0  0  0  0  0
   -2.5431   -0.9435    1.3366 H   0  0  0  0  0  0  0  0  0  0  0  0
    0.3244   -2.1249   -0.8469 H   0  0  0  0  0  0  0  0  0  0  0  0
    0.5407   -0.4264   -1.3902 H   0  0  0  0  0  0  0  0  0  0  0  0
    0.7794    0.1884    1.0603 H   0  0  0  0  0  0  0  0  0  0  0  0
    0.6331   -1.5301    1.4741 H   0  0  0  0  0  0  0  0  0  0  0  0
    4.1314   -0.7690   -0.3260 H   0  0  0  0  0  0  0  0  0  0  0  0
    2.7599   -0.6141   -1.4433 H   0  0  0  0  0  0  0  0  0  0  0  0
    2.1646    1.5931   -0.4377 H   0  0  0  0  0  0  0  0  0  0  0  0
    3.8308    1.4446   -1.0120 H   0  0  0  0  0  0  0  0  0  0  0  0
    3.0804    1.7986    1.6570 H   0  0  0  0  0  0  0  0  0  0  0  0
   -0.9840   -0.0307   -2.7337 H   0  0  0  0  0  0  0  0  0  0  0  0
   -2.6432    1.2691    0.8280 H   0  0  0  0  0  0  0  0  0  0  0  0
   -3.9371    1.5510   -1.7439 H   0  0  0  0  0  0  0  0  0  0  0  0
   -4.5397    2.0495   -0.2705 H   0  0  0  0  0  0  0  0  0  0  0  0
  1  2  1  0
  2  3  1  0
  3  4  1  0
  4  5  1  0
  5  6  1  0
  6  7  1  0
  7  8  1  0
  2  9  1  0
  9 10  2  3
  9 11  1  0
 11 12  1  0
  1 13  1  0
  1 14  1  0
  1 15  1  0
  3 16  1  0
  3 17  1  0
  4 18  1  0
  4 19  1  0
  6 20  1  0
  6 21  1  0
  7 22  1  0
  7 23  1  0
  8 24  1  0
 10 25  1  0
 11 26  1  0
 12 27  1  0
 12 28  1  0
M  END
$$$$

     RDKit          3D

 28 27  0  0  0  0  0  0  0  0999 V2000
   -0.9292   -0.8565   -1.4829 C   0  0  0  0  0  0  0  0  0  0  0  0
   -1.0774   -0.5462   -0.0746 N   0  0  0  0  0  0  0  0  0  0  0  0
   -0.2025   -1.1481    0.9043 C   0  0  0  0  0  0  0  0  0  0  0  0
    1.1705   -0.6004    0.7469 C   0  0  0  0  0  0  0  0  0  0  0  0
    1.6599   -0.8610   -0.5008 O   0  0  0  0  0  0  0  0  0  0  0  0
    2.9248   -0.4096   -0.7384 C   0  0  0  0  0  0  0  0  0  0  0  0
    3.1430    1.0615   -0.6014 C   0  0  0  0  0  0  0  0  0  0  0  0
    4.4662    1.4121   -0.8655 O   0  0  0  0  0  0  0  0  0  0  0  0
   -2.0917    0.3659    0.3573 C   0  0  0  0  0  0  0  0  0  0  0  0
   -1.7709    1.3433    1.1239 N   0  0  0  0  0  0  0  0  0  0  0  0
   -3.4510    0.2350   -0.0300 N   0  0  0  0  0  0  0  0  0  0  0  0
   -4.5044    0.6840    0.8003 N   0  0  0  0  0  0  0  0  0  0  0  0
   -0.5683    0.0100   -2.0862 H   0  0  0  0  0  0  0  0  0  0  0  0
   -1.9033   -1.2546   -1.9032 H   0  0  0  0  0  0  0  0  0  0  0  0
   -0.1851   -1.6657   -1.6163 H   0  0  0  0  0  0  0  0  0  0  0  0
   -0.5904   -0.9283    1.9409 H   0  0  0  0  0  0  0  0  0  0  0  0
   -0.2469   -2.2538    0.8208 H   0  0  0  0  0  0  0  0  0  0  0  0
    1.7888   -1.0290    1.5676 H   0  0  0  0  0  0  0  0  0  0  0  0
    1.1682    0.5149    0.9137 H   0  0  0  0  0  0  0  0  0  0  0  0
    3.2288   -0.7054   -1.7802 H   0  0  0  0  0  0  0  0  0  0  0  0
    3.6818   -0.9314   -0.0847 H   0  0  0  0  0  0  0  0  0  0  0  0
    2.5244    1.6346   -1.3469 H   0  0  0  0  0  0  0  0  0  0  0  0
    2.9305    1.4066    0.4461 H   0  0  0  0  0  0  0  0  0  0  0  0
    4.9657    1.3509   -0.0137 H   0  0  0  0  0  0  0  0  0  0  0  0
   -2.3917    2.0594    1.5009 H   0  0  0  0  0  0  0  0  0  0  0  0
   -3.6423   -0.2144   -0.9701 H   0  0  0  0  0  0  0  0  0  0  0  0
   -5.1152   -0.1489    0.9482 H   0  0  0  0  0  0  0  0  0  0  0  0
   -4.9823    1.4749    0.3146 H   0  0  0  0  0  0  0  0  0  0  0  0
  1  2  1  0
  2  3  1  0
  3  4  1  0
  4  5  1  0
  5  6  1  0
  6  7  1  0
  7  8  1  0
  2  9  1  0
  9 10  2  3
  9 11  1  0
 11 12  1  0
  1 13  1  0
  1 14  1  0
  1 15  1  0
  3 16  1  0
  3 17  1  0
  4 18  1  0
  4 19  1  0
  6 20  1  0
  6 21  1  0
  7 22  1  0
  7 23  1  0
  8 24  1  0
 10 25  1  0
 11 26  1  0
 12 27  1  0
 12 28  1  0
M  END
$$$$

     RDKit          3D

 28 27  0  0  0  0  0  0  0  0999 V2000
   -1.3253   -1.6171   -1.7404 C   0  0  0  0  0  0  0  0  0  0  0  0
   -1.2830   -0.8858   -0.4974 N   0  0  0  0  0  0  0  0  0  0  0  0
   -0.2656   -1.1728    0.4793 C   0  0  0  0  0  0  0  0  0  0  0  0
    1.1271   -0.7597    0.0379 C   0  0  0  0  0  0  0  0  0  0  0  0
    1.1528    0.5963   -0.1997 O   0  0  0  0  0  0  0  0  0  0  0  0
    2.3321    1.1226   -0.5992 C   0  0  0  0  0  0  0  0  0  0  0  0
    3.4834    0.9860    0.3467 C   0  0  0  0  0  0  0  0  0  0  0  0
    3.2558    1.5946    1.5783 O   0  0  0  0  0  0  0  0  0  0  0  0
   -2.2454    0.1184   -0.2426 C   0  0  0  0  0  0  0  0  0  0  0  0
   -3.2243    0.3730   -1.0301 N   0  0  0  0  0  0  0  0  0  0  0  0
   -2.1820    0.9301    0.9412 N   0  0  0  0  0  0  0  0  0  0  0  0
   -3.3381    1.3352    1.6225 N   0  0  0  0  0  0  0  0  0  0  0  0
   -2.3098   -1.6521   -2.2071 H   0  0  0  0  0  0  0  0  0  0  0  0
   -0.6011   -1.2389   -2.5053 H   0  0  0  0  0  0  0  0  0  0  0  0
   -1.0058   -2.6908   -1.5697 H   0  0  0  0  0  0  0  0  0  0  0  0
   -0.5012   -0.6523    1.4253 H   0  0  0  0  0  0  0  0  0  0  0  0
   -0.2884   -2.2812    0.6908 H   0  0  0  0  0  0  0  0  0  0  0  0
    1.8983   -1.1164    0.7207 H   0  0  0  0  0  0  0  0  0  0  0  0
    1.3102   -1.2670   -0.9301 H   0  0  0  0  0  0  0  0  0  0  0  0
    2.1850    2.2183   -0.7730 H   0  0  0  0  0  0  0  0  0  0  0  0
    2.6353    0.6945   -1.5715 H   0  0  0  0  0  0  0  0  0  0  0  0
    3.8204   -0.0574    0.4964 H   0  0  0  0  0  0  0  0  0  0  0  0
    4.3454    1.5139   -0.1140 H   0  0  0  0  0  0  0  0  0  0  0  0
    3.0708    0.9395    2.2938 H   0  0  0  0  0  0  0  0  0  0  0  0
   -3.4425   -0.0831   -1.9094 H   0  0  0  0  0  0  0  0  0  0  0  0
   -1.2540    1.2111    1.2814 H   0  0  0  0  0  0  0  0  0  0  0  0
   -4.1811    0.7774    1.3403 H   0  0  0  0  0  0  0  0  0  0  0  0
   -3.1691    1.0636    2.6349 H   0  0  0  0  0  0  0  0  0  0  0  0
  1  2  1  0
  2  3  1  0
  3  4  1  0
  4  5  1  0
  5  6  1  0
  6  7  1  0
  7  8  1  0
  2  9  1  0
  9 10  2  3
  9 11  1  0
 11 12  1  0
  1 13  1  0
  1 14  1  0
  1 15  1  0
  3 16  1  0
  3 17  1  0
  4 18  1  0
  4 19  1  0
  6 20  1  0
  6 21  1  0
  7 22  1  0
  7 23  1  0
  8 24  1  0
 10 25  1  0
 11 26  1  0
 12 27  1  0
 12 28  1  0
M  END
$$$$

     RDKit          3D

 28 27  0  0  0  0  0  0  0  0999 V2000
   -1.3971   -1.3243   -1.7217 C   0  0  0  0  0  0  0  0  0  0  0  0
   -1.4204   -0.4351   -0.6055 N   0  0  0  0  0  0  0  0  0  0  0  0
   -0.3548    0.4944   -0.3552 C   0  0  0  0  0  0  0  0  0  0  0  0
    0.8931   -0.2745    0.0544 C   0  0  0  0  0  0  0  0  0  0  0  0
    1.9455    0.6284    0.3026 O   0  0  0  0  0  0  0  0  0  0  0  0
    3.0534   -0.1148    0.6734 C   0  0  0  0  0  0  0  0  0  0  0  0
    4.2028    0.8503    0.9528 C   0  0  0  0  0  0  0  0  0  0  0  0
    4.4807    1.5808   -0.2010 O   0  0  0  0  0  0  0  0  0  0  0  0
   -2.5337   -0.4479    0.3105 C   0  0  0  0  0  0  0  0  0  0  0  0
   -2.6171   -1.2623    1.3026 N   0  0  0  0  0  0  0  0  0  0  0  0
   -3.6191    0.4752    0.1449 N   0  0  0  0  0  0  0  0  0  0  0  0
   -4.4540    0.7078    1.2001 N   0  0  0  0  0  0  0  0  0  0  0  0
   -0.7450   -2.2221   -1.5344 H   0  0  0  0  0  0  0  0  0  0  0  0
   -1.0305   -0.7722   -2.6265 H   0  0  0  0  0  0  0  0  0  0  0  0
   -2.4050   -1.7551   -1.9534 H   0  0  0  0  0  0  0  0  0  0  0  0
   -0.6011    1.1282    0.5190 H   0  0  0  0  0  0  0  0  0  0  0  0
   -0.1465    1.1406   -1.2363 H   0  0  0  0  0  0  0  0  0  0  0  0
    0.6671   -0.8303    0.9756 H   0  0  0  0  0  0  0  0  0  0  0  0
    1.1667   -1.0067   -0.7176 H   0  0  0  0  0  0  0  0  0  0  0  0
    3.4023   -0.7647   -0.1812 H   0  0  0  0  0  0  0  0  0  0  0  0
    2.8368   -0.7436    1.5593 H   0  0  0  0  0  0  0  0  0  0  0  0
    3.9225    1.5711    1.7386 H   0  0  0  0  0  0  0  0  0  0  0  0
    5.1043    0.2996    1.3167 H   0  0  0  0  0  0  0  0  0  0  0  0
    5.1664    2.2749   -0.0072 H   0  0  0  0  0  0  0  0  0  0  0  0
   -1.8581   -1.9602    1.4789 H   0  0  0  0  0  0  0  0  0  0  0  0
   -3.7300    0.9380   -0.7833 H   0  0  0  0  0  0  0  0  0  0  0  0
   -4.6155    1.6999    1.4398 H   0  0  0  0  0  0  0  0  0  0  0  0
   -5.3136    0.1245    1.2199 H   0  0  0  0  0  0  0  0  0  0  0  0
  1  2  1  0
  2  3  1  0
  3  4  1  0
  4  5  1  0
  5  6  1  0
  6  7  1  0
  7  8  1  0
  2  9  1  0
  9 10  2  3
  9 11  1  0
 11 12  1  0
  1 13  1  0
  1 14  1  0
  1 15  1  0
  3 16  1  0
  3 17  1  0
  4 18  1  0
  4 19  1  0
  6 20  1  0
  6 21  1  0
  7 22  1  0
  7 23  1  0
  8 24  1  0
 10 25  1  0
 11 26  1  0
 12 27  1  0
 12 28  1  0
M  END
$$$$
