
     RDKit          3D

 28 29  0  0  0  0  0  0  0  0999 V2000
   -4.2738   -0.6806    0.2322 C   0  0  0  0  0  0  0  0  0  0  0  0
   -3.0954    0.2057   -0.0061 C   0  0  1  0  0  0  0  0  0  0  0  0
   -2.7335    0.9426    1.2639 C   0  0  0  0  0  0  0  0  0  0  0  0
   -1.3135    1.0342    1.1865 N   0  0  0  0  0  0  0  0  0  0  0  0
   -0.7814    0.2009    0.3621 C   0  0  0  0  0  0  0  0  0  0  0  0
    0.6020    0.0554    0.0718 N   0  0  0  0  0  0  0  0  0  0  0  0
    1.4366   -0.4078   -1.0232 C   0  0  0  0  0  0  0  0  0  0  0  0
    2.4838    0.6076   -0.5481 C   0  0  0  0  0  0  0  0  0  0  0  0
    2.2265    1.8634   -1.0446 O   0  0  0  0  0  0  0  0  0  0  0  0
    3.8669    0.1537   -0.6200 C   0  0  0  0  0  0  0  0  0  0  0  0
    4.2477   -1.1160   -0.1414 N   0  0  0  0  0  0  0  0  0  0  0  0
    4.7441    0.8963   -1.1141 O   0  0  0  0  0  0  0  0  0  0  0  0
    1.8222    0.3311    0.8056 C   0  0  0  0  0  0  0  0  0  0  0  0
   -1.8568   -0.5571   -0.2138 N   0  0  0  0  0  0  0  0  0  0  0  0
   -4.2183   -1.5689   -0.4064 H   0  0  0  0  0  0  0  0  0  0  0  0
   -5.1923   -0.0757    0.0086 H   0  0  0  0  0  0  0  0  0  0  0  0
   -4.3387   -0.9919    1.3159 H   0  0  0  0  0  0  0  0  0  0  0  0
   -3.2509    0.9542   -0.7977 H   0  0  0  0  0  0  0  0  0  0  0  0
   -3.0845    0.3950    2.1669 H   0  0  0  0  0  0  0  0  0  0  0  0
   -3.1434    1.9780    1.2793 H   0  0  0  0  0  0  0  0  0  0  0  0
    1.0526   -0.2363   -2.0303 H   0  0  0  0  0  0  0  0  0  0  0  0
    1.7674   -1.4650   -0.8360 H   0  0  0  0  0  0  0  0  0  0  0  0
    2.0320    1.8611   -2.0295 H   0  0  0  0  0  0  0  0  0  0  0  0
    4.5843   -1.2027    0.8360 H   0  0  0  0  0  0  0  0  0  0  0  0
    4.2043   -1.9651   -0.7274 H   0  0  0  0  0  0  0  0  0  0  0  0
    2.2102   -0.6177    1.2251 H   0  0  0  0  0  0  0  0  0  0  0  0
    1.8031    1.1889    1.4770 H   0  0  0  0  0  0  0  0  0  0  0  0
   -1.8012   -1.4726   -0.6924 H   0  0  0  0  0  0  0  0  0  0  0  0
  1  2  1  0
  2  3  1  0
  3  4  1  0
  4  5  2  0
  5  6  1  0
  6  7  1  0
  7  8  1  0
  8  9  1  0
  8 10  1  0
 10 11  1  0
 10 12  2  0
  8 13  1  0
  5 14  1  0
 14  2  1  0
 13  6  1  0
  1 15  1  0
  1 16  1  0
  1 17  1  0
  2 18  1  6
  3 19  1  0
  3 20  1  0
  7 21  1  0
  7 22  1  0
  9 23  1  0
 11 24  1  0
 11 25  1  0
 13 26  1  0
 13 27  1  0
 14 28  1  0
M  END
$$$$

     RDKit          3D

 28 29  0  0  0  0  0  0  0  0999 V2000
   -4.3305   -0.0931    0.8944 C   0  0  0  0  0  0  0  0  0  0  0  0
   -3.1060   -0.3530    0.0561 C   0  0  1  0  0  0  0  0  0  0  0  0
   -2.9528    0.6289   -1.0709 C   0  0  0  0  0  0  0  0  0  0  0  0
   -1.5222    0.7612   -1.1948 N   0  0  0  0  0  0  0  0  0  0  0  0
   -0.9280    0.3092   -0.1437 C   0  0  0  0  0  0  0  0  0  0  0  0
    0.4817    0.2758    0.0917 N   0  0  0  0  0  0  0  0  0  0  0  0
    1.4495   -0.5538    0.7836 C   0  0  0  0  0  0  0  0  0  0  0  0
    2.4746   -0.1086   -0.2403 C   0  0  0  0  0  0  0  0  0  0  0  0
    2.3967   -0.8518   -1.4037 O   0  0  0  0  0  0  0  0  0  0  0  0
    3.8342    0.1033    0.2677 C   0  0  0  0  0  0  0  0  0  0  0  0
    4.9463   -0.4419   -0.4319 N   0  0  0  0  0  0  0  0  0  0  0  0
    4.0271    0.7575    1.3082 O   0  0  0  0  0  0  0  0  0  0  0  0
    1.5986    1.1324   -0.3025 C   0  0  0  0  0  0  0  0  0  0  0  0
   -1.8802   -0.1756    0.7876 N   0  0  0  0  0  0  0  0  0  0  0  0
   -4.0838   -0.3469    1.9401 H   0  0  0  0  0  0  0  0  0  0  0  0
   -4.5914    0.9745    0.8077 H   0  0  0  0  0  0  0  0  0  0  0  0
   -5.1794   -0.6816    0.5023 H   0  0  0  0  0  0  0  0  0  0  0  0
   -3.1502   -1.3870   -0.3227 H   0  0  0  0  0  0  0  0  0  0  0  0
   -3.3807    0.2008   -2.0115 H   0  0  0  0  0  0  0  0  0  0  0  0
   -3.4412    1.5965   -0.8268 H   0  0  0  0  0  0  0  0  0  0  0  0
    1.7438   -0.1791    1.7814 H   0  0  0  0  0  0  0  0  0  0  0  0
    1.2513   -1.6310    0.7076 H   0  0  0  0  0  0  0  0  0  0  0  0
    1.9965   -1.7300   -1.1638 H   0  0  0  0  0  0  0  0  0  0  0  0
    4.8850   -1.4039   -0.8102 H   0  0  0  0  0  0  0  0  0  0  0  0
    5.8352    0.0791   -0.5891 H   0  0  0  0  0  0  0  0  0  0  0  0
    1.4821    1.5786   -1.3004 H   0  0  0  0  0  0  0  0  0  0  0  0
    1.8401    1.8938    0.4701 H   0  0  0  0  0  0  0  0  0  0  0  0
   -1.6965   -0.3541    1.7833 H   0  0  0  0  0  0  0  0  0  0  0  0
  1  2  1  0
  2  3  1  0
  3  4  1  0
  4  5  2  0
  5  6  1  0
  6  7  1  0
  7  8  1  0
  8  9  1  0
  8 10  1  0
 10 11  1  0
 10 12  2  0
  8 13  1  0
  5 14  1  0
 14  2  1  0
 13  6  1  0
  1 15  1  0
  1 16  1  0
  1 17  1  0
  2 18  1  6
  3 19  1  0
  3 20  1  0
  7 21  1  0
  7 22  1  0
  9 23  1  0
 11 24  1  0
 11 25  1  0
 13 26  1  0
 13 27  1  0
 14 28  1  0
M  END
$$$$

     RDKit          3D

 28 29  0  0  0  0  0  0  0  0999 V2000
   -4.3150    0.7921   -0.3372 C   0  0  0  0  0  0  0  0  0  0  0  0
   -3.0660    0.4192    0.3928 C   0  0  1  0  0  0  0  0  0  0  0  0
   -2.9779   -1.0608    0.6943 C   0  0  0  0  0  0  0  0  0  0  0  0
   -1.5436   -1.2542    0.7621 N   0  0  0  0  0  0  0  0  0  0  0  0
   -0.9283   -0.3000    0.1385 C   0  0  0  0  0  0  0  0  0  0  0  0
    0.4976   -0.2446    0.0498 N   0  0  0  0  0  0  0  0  0  0  0  0
    1.4747   -0.8516   -0.8397 C   0  0  0  0  0  0  0  0  0  0  0  0
    2.5076    0.0968   -0.3173 C   0  0  0  0  0  0  0  0  0  0  0  0
    2.7803    1.2008   -1.1298 O   0  0  0  0  0  0  0  0  0  0  0  0
    3.7417   -0.5925    0.1713 C   0  0  0  0  0  0  0  0  0  0  0  0
    5.0276   -0.1109   -0.1989 N   0  0  0  0  0  0  0  0  0  0  0  0
    3.6097   -1.6007    0.9120 O   0  0  0  0  0  0  0  0  0  0  0  0
    1.5216    0.4325    0.8048 C   0  0  0  0  0  0  0  0  0  0  0  0
   -1.8700    0.6180   -0.4020 N   0  0  0  0  0  0  0  0  0  0  0  0
   -4.8965   -0.1143   -0.6039 H   0  0  0  0  0  0  0  0  0  0  0  0
   -4.0978    1.3776   -1.2469 H   0  0  0  0  0  0  0  0  0  0  0  0
   -4.9246    1.4325    0.3509 H   0  0  0  0  0  0  0  0  0  0  0  0
   -2.9383    0.9591    1.3524 H   0  0  0  0  0  0  0  0  0  0  0  0
   -3.3379   -1.6421   -0.1765 H   0  0  0  0  0  0  0  0  0  0  0  0
   -3.4892   -1.3366    1.6373 H   0  0  0  0  0  0  0  0  0  0  0  0
    1.6408   -1.9196   -0.5367 H   0  0  0  0  0  0  0  0  0  0  0  0
    1.2460   -0.7711   -1.9129 H   0  0  0  0  0  0  0  0  0  0  0  0
    1.9381    1.6035   -1.4271 H   0  0  0  0  0  0  0  0  0  0  0  0
    5.0991    0.7750   -0.7375 H   0  0  0  0  0  0  0  0  0  0  0  0
    5.8712   -0.6516    0.0747 H   0  0  0  0  0  0  0  0  0  0  0  0
    1.8102   -0.0516    1.7568 H   0  0  0  0  0  0  0  0  0  0  0  0
    1.3229    1.5223    0.8758 H   0  0  0  0  0  0  0  0  0  0  0  0
   -1.7039    1.2724   -1.1929 H   0  0  0  0  0  0  0  0  0  0  0  0
  1  2  1  0
  2  3  1  0
  3  4  1  0
  4  5  2  0
  5  6  1  0
  6  7  1  0
  7  8  1  0
  8  9  1  0
  8 10  1  0
 10 11  1  0
 10 12  2  0
  8 13  1  0
  5 14  1  0
 14  2  1  0
 13  6  1  0
  1 15  1  0
  1 16  1  0
  1 17  1  0
  2 18  1  1
  3 19  1  0
  3 20  1  0
  7 21  1  0
  7 22  1  0
  9 23  1  0
 11 24  1  0
 11 25  1  0
 13 26  1  0
 13 27  1  0
 14 28  1  0
M  END
$$$$

     RDKit          3D

 28 29  0  0  0  0  0  0  0  0999 V2000
    4.3925   -0.4941    0.2082 C   0  0  0  0  0  0  0  0  0  0  0  0
    3.1270    0.2890    0.3393 C   0  0  1  0  0  0  0  0  0  0  0  0
    2.9440    1.2810   -0.8143 C   0  0  0  0  0  0  0  0  0  0  0  0
    1.5214    1.3246   -0.9479 N   0  0  0  0  0  0  0  0  0  0  0  0
    0.9385    0.3191   -0.4153 C   0  0  0  0  0  0  0  0  0  0  0  0
   -0.4610    0.0658   -0.3768 N   0  0  0  0  0  0  0  0  0  0  0  0
   -1.3191   -0.9709    0.1590 C   0  0  0  0  0  0  0  0  0  0  0  0
   -2.4966   -0.0299    0.1017 C   0  0  0  0  0  0  0  0  0  0  0  0
   -2.7686    0.6705    1.2510 O   0  0  0  0  0  0  0  0  0  0  0  0
   -3.6875   -0.5361   -0.6026 C   0  0  0  0  0  0  0  0  0  0  0  0
   -4.9560   -0.2639   -0.0498 N   0  0  0  0  0  0  0  0  0  0  0  0
   -3.6346   -1.1969   -1.6686 O   0  0  0  0  0  0  0  0  0  0  0  0
   -1.6335    0.7607   -0.8717 C   0  0  0  0  0  0  0  0  0  0  0  0
    1.9384   -0.5412    0.1548 N   0  0  0  0  0  0  0  0  0  0  0  0
    4.2540   -1.4475   -0.3451 H   0  0  0  0  0  0  0  0  0  0  0  0
    5.1465    0.1396   -0.3303 H   0  0  0  0  0  0  0  0  0  0  0  0
    4.8025   -0.6890    1.2275 H   0  0  0  0  0  0  0  0  0  0  0  0
    3.0461    0.8649    1.2833 H   0  0  0  0  0  0  0  0  0  0  0  0
    3.4035    0.8063   -1.7057 H   0  0  0  0  0  0  0  0  0  0  0  0
    3.3924    2.2636   -0.5646 H   0  0  0  0  0  0  0  0  0  0  0  0
   -1.4017   -1.8760   -0.4782 H   0  0  0  0  0  0  0  0  0  0  0  0
   -1.0857   -1.2261    1.2137 H   0  0  0  0  0  0  0  0  0  0  0  0
   -2.9930    0.0073    1.9649 H   0  0  0  0  0  0  0  0  0  0  0  0
   -5.4583    0.5926   -0.3269 H   0  0  0  0  0  0  0  0  0  0  0  0
   -5.3843   -0.9112    0.6268 H   0  0  0  0  0  0  0  0  0  0  0  0
   -1.7941    0.4893   -1.9349 H   0  0  0  0  0  0  0  0  0  0  0  0
   -1.6242    1.8445   -0.7194 H   0  0  0  0  0  0  0  0  0  0  0  0
    1.7915   -1.5359    0.3694 H   0  0  0  0  0  0  0  0  0  0  0  0
  1  2  1  0
  2  3  1  0
  3  4  1  0
  4  5  2  0
  5  6  1  0
  6  7  1  0
  7  8  1  0
  8  9  1  0
  8 10  1  0
 10 11  1  0
 10 12  2  0
  8 13  1  0
  5 14  1  0
 14  2  1  0
 13  6  1  0
  1 15  1  0
  1 16  1  0
  1 17  1  0
  2 18  1  1
  3 19  1  0
  3 20  1  0
  7 21  1  0
  7 22  1  0
  9 23  1  0
 11 24  1  0
 11 25  1  0
 13 26  1  0
 13 27  1  0
 14 28  1  0
M  END
$$$$

     RDKit          3D

 28 29  0  0  0  0  0  0  0  0999 V2000
    4.2053    0.0337    0.0955 C   0  0  0  0  0  0  0  0  0  0  0  0
    2.8210    0.6219    0.0299 C   0  0  1  0  0  0  0  0  0  0  0  0
    2.4627    0.7683   -1.4349 C   0  0  0  0  0  0  0  0  0  0  0  0
    1.0526    0.5206   -1.4241 N   0  0  0  0  0  0  0  0  0  0  0  0
    0.6595   -0.1006   -0.3639 C   0  0  0  0  0  0  0  0  0  0  0  0
   -0.6729   -0.4970   -0.0433 N   0  0  0  0  0  0  0  0  0  0  0  0
   -1.8152   -0.8322   -0.8738 C   0  0  0  0  0  0  0  0  0  0  0  0
   -2.7180   -0.7923    0.3383 C   0  0  0  0  0  0  0  0  0  0  0  0
   -3.4710   -1.9436    0.4988 O   0  0  0  0  0  0  0  0  0  0  0  0
   -3.5426    0.4100    0.3269 C   0  0  0  0  0  0  0  0  0  0  0  0
   -2.9951    1.7192    0.1743 N   0  0  0  0  0  0  0  0  0  0  0  0
   -4.7855    0.3007    0.4559 O   0  0  0  0  0  0  0  0  0  0  0  0
   -1.4543   -0.7336    1.1543 C   0  0  0  0  0  0  0  0  0  0  0  0
    1.8039   -0.3340    0.4619 N   0  0  0  0  0  0  0  0  0  0  0  0
    4.2898   -0.6292    0.9828 H   0  0  0  0  0  0  0  0  0  0  0  0
    4.4662   -0.5451   -0.8263 H   0  0  0  0  0  0  0  0  0  0  0  0
    4.9587    0.8368    0.2317 H   0  0  0  0  0  0  0  0  0  0  0  0
    2.7337    1.5764    0.5699 H   0  0  0  0  0  0  0  0  0  0  0  0
    2.9577   -0.0209   -2.0338 H   0  0  0  0  0  0  0  0  0  0  0  0
    2.6835    1.7845   -1.8255 H   0  0  0  0  0  0  0  0  0  0  0  0
   -1.9830   -0.0056   -1.5972 H   0  0  0  0  0  0  0  0  0  0  0  0
   -1.7334   -1.8267   -1.3632 H   0  0  0  0  0  0  0  0  0  0  0  0
   -3.6936   -2.0101    1.4597 H   0  0  0  0  0  0  0  0  0  0  0  0
   -3.5818    2.5575    0.1103 H   0  0  0  0  0  0  0  0  0  0  0  0
   -1.9546    1.8456    0.1239 H   0  0  0  0  0  0  0  0  0  0  0  0
   -1.2007   -1.7358    1.5688 H   0  0  0  0  0  0  0  0  0  0  0  0
   -1.4048    0.0647    1.9152 H   0  0  0  0  0  0  0  0  0  0  0  0
    1.9116   -1.0330    1.2181 H   0  0  0  0  0  0  0  0  0  0  0  0
  1  2  1  0
  2  3  1  0
  3  4  1  0
  4  5  2  0
  5  6  1  0
  6  7  1  0
  7  8  1  0
  8  9  1  0
  8 10  1  0
 10 11  1  0
 10 12  2  0
  8 13  1  0
  5 14  1  0
 14  2  1  0
 13  6  1  0
  1 15  1  0
  1 16  1  0
  1 17  1  0
  2 18  1  1
  3 19  1  0
  3 20  1  0
  7 21  1  0
  7 22  1  0
  9 23  1  0
 11 24  1  0
 11 25  1  0
 13 26  1  0
 13 27  1  0
 14 28  1  0
M  END
$$$$

     RDKit          3D

 28 29  0  0  0  0  0  0  0  0999 V2000
    4.4225   -0.4056   -0.3327 C   0  0  0  0  0  0  0  0  0  0  0  0
    3.1383   -0.8329    0.3004 C   0  0  1  0  0  0  0  0  0  0  0  0
    2.8165    0.0785    1.4673 C   0  0  0  0  0  0  0  0  0  0  0  0
    1.3961    0.2391    1.3233 N   0  0  0  0  0  0  0  0  0  0  0  0
    0.9265   -0.1772    0.2149 C   0  0  0  0  0  0  0  0  0  0  0  0
   -0.4632   -0.1272   -0.1681 N   0  0  0  0  0  0  0  0  0  0  0  0
   -1.5180    0.8388    0.0376 C   0  0  0  0  0  0  0  0  0  0  0  0
   -2.5192   -0.3059   -0.0768 C   0  0  0  0  0  0  0  0  0  0  0  0
   -2.8060   -0.9465    1.1036 O   0  0  0  0  0  0  0  0  0  0  0  0
   -3.6939    0.1211   -0.8438 C   0  0  0  0  0  0  0  0  0  0  0  0
   -5.0034   -0.1512   -0.3249 N   0  0  0  0  0  0  0  0  0  0  0  0
   -3.5561    0.7098   -1.9269 O   0  0  0  0  0  0  0  0  0  0  0  0
   -1.4104   -0.9446   -0.8846 C   0  0  0  0  0  0  0  0  0  0  0  0
    1.9904   -0.6838   -0.5514 N   0  0  0  0  0  0  0  0  0  0  0  0
    5.1608   -1.2570   -0.3615 H   0  0  0  0  0  0  0  0  0  0  0  0
    4.9395    0.3933    0.2447 H   0  0  0  0  0  0  0  0  0  0  0  0
    4.2541   -0.1237   -1.3837 H   0  0  0  0  0  0  0  0  0  0  0  0
    3.2087   -1.8627    0.6687 H   0  0  0  0  0  0  0  0  0  0  0  0
    3.3650    1.0424    1.3773 H   0  0  0  0  0  0  0  0  0  0  0  0
    3.0367   -0.4253    2.4385 H   0  0  0  0  0  0  0  0  0  0  0  0
   -1.5871    1.5686   -0.7816 H   0  0  0  0  0  0  0  0  0  0  0  0
   -1.5167    1.2433    1.0683 H   0  0  0  0  0  0  0  0  0  0  0  0
   -2.7644   -0.3665    1.8874 H   0  0  0  0  0  0  0  0  0  0  0  0
   -5.8149   -0.3302   -0.9473 H   0  0  0  0  0  0  0  0  0  0  0  0
   -5.1742   -0.1763    0.7005 H   0  0  0  0  0  0  0  0  0  0  0  0
   -1.3231   -2.0344   -0.7258 H   0  0  0  0  0  0  0  0  0  0  0  0
   -1.4874   -0.6222   -1.9477 H   0  0  0  0  0  0  0  0  0  0  0  0
    1.9830   -0.9241   -1.5755 H   0  0  0  0  0  0  0  0  0  0  0  0
  1  2  1  0
  2  3  1  0
  3  4  1  0
  4  5  2  0
  5  6  1  0
  6  7  1  0
  7  8  1  0
  8  9  1  0
  8 10  1  0
 10 11  1  0
 10 12  2  0
  8 13  1  0
  5 14  1  0
 14  2  1  0
 13  6  1  0
  1 15  1  0
  1 16  1  0
  1 17  1  0
  2 18  1  1
  3 19  1  0
  3 20  1  0
  7 21  1  0
  7 22  1  0
  9 23  1  0
 11 24  1  0
 11 25  1  0
 13 26  1  0
 13 27  1  0
 14 28  1  0
M  END
$$$$

     RDKit          3D

 28 29  0  0  0  0  0  0  0  0999 V2000
   -4.0237    1.0077    0.5227 C   0  0  0  0  0  0  0  0  0  0  0  0
   -2.9732    0.2971   -0.2899 C   0  0  1  0  0  0  0  0  0  0  0  0
   -2.2128    1.3541   -1.0738 C   0  0  0  0  0  0  0  0  0  0  0  0
   -0.8483    0.8845   -1.0145 N   0  0  0  0  0  0  0  0  0  0  0  0
   -0.6580   -0.0122   -0.1159 C   0  0  0  0  0  0  0  0  0  0  0  0
    0.5959   -0.6781    0.1891 N   0  0  0  0  0  0  0  0  0  0  0  0
    1.6293   -1.3345   -0.5963 C   0  0  0  0  0  0  0  0  0  0  0  0
    2.6236   -1.1476    0.5276 C   0  0  0  0  0  0  0  0  0  0  0  0
    3.3315   -2.3119    0.7355 O   0  0  0  0  0  0  0  0  0  0  0  0
    3.4714    0.0474    0.4243 C   0  0  0  0  0  0  0  0  0  0  0  0
    2.9951    1.3531    0.2134 N   0  0  0  0  0  0  0  0  0  0  0  0
    4.7338   -0.1040    0.5331 O   0  0  0  0  0  0  0  0  0  0  0  0
    1.3745   -0.9885    1.3645 C   0  0  0  0  0  0  0  0  0  0  0  0
   -1.9016   -0.2308    0.5280 N   0  0  0  0  0  0  0  0  0  0  0  0
   -4.7464    0.2817    0.9409 H   0  0  0  0  0  0  0  0  0  0  0  0
   -4.5934    1.6529   -0.1861 H   0  0  0  0  0  0  0  0  0  0  0  0
   -3.5759    1.6661    1.2727 H   0  0  0  0  0  0  0  0  0  0  0  0
   -3.4054   -0.4792   -0.9189 H   0  0  0  0  0  0  0  0  0  0  0  0
   -2.3557    2.3613   -0.6899 H   0  0  0  0  0  0  0  0  0  0  0  0
   -2.5444    1.2270   -2.1410 H   0  0  0  0  0  0  0  0  0  0  0  0
    1.3489   -2.3721   -0.8241 H   0  0  0  0  0  0  0  0  0  0  0  0
    1.8333   -0.7090   -1.4998 H   0  0  0  0  0  0  0  0  0  0  0  0
    3.6456   -2.6218   -0.1717 H   0  0  0  0  0  0  0  0  0  0  0  0
    3.0598    1.8122   -0.7112 H   0  0  0  0  0  0  0  0  0  0  0  0
    2.5678    1.8726    1.0004 H   0  0  0  0  0  0  0  0  0  0  0  0
    1.1376   -1.9519    1.8608 H   0  0  0  0  0  0  0  0  0  0  0  0
    1.4862   -0.1634    2.0904 H   0  0  0  0  0  0  0  0  0  0  0  0
   -1.9956   -0.7128    1.4688 H   0  0  0  0  0  0  0  0  0  0  0  0
  1  2  1  0
  2  3  1  0
  3  4  1  0
  4  5  2  0
  5  6  1  0
  6  7  1  0
  7  8  1  0
  8  9  1  0
  8 10  1  0
 10 11  1  0
 10 12  2  0
  8 13  1  0
  5 14  1  0
 14  2  1  0
 13  6  1  0
  1 15  1  0
  1 16  1  0
  1 17  1  0
  2 18  1  6
  3 19  1  0
  3 20  1  0
  7 21  1  0
  7 22  1  0
  9 23  1  0
 11 24  1  0
 11 25  1  0
 13 26  1  0
 13 27  1  0
 14 28  1  0
M  END
$$$$

     RDKit          3D

 28 29  0  0  0  0  0  0  0  0999 V2000
   -4.2812    0.0611   -0.7089 C   0  0  0  0  0  0  0  0  0  0  0  0
   -2.8580    0.4911   -0.8579 C   0  0  1  0  0  0  0  0  0  0  0  0
   -2.5004    1.5231    0.1871 C   0  0  0  0  0  0  0  0  0  0  0  0
   -1.0666    1.3473    0.2650 N   0  0  0  0  0  0  0  0  0  0  0  0
   -0.7348    0.1650   -0.1194 C   0  0  0  0  0  0  0  0  0  0  0  0
    0.6107   -0.2725   -0.1420 N   0  0  0  0  0  0  0  0  0  0  0  0
    1.7107   -0.0197   -1.0477 C   0  0  0  0  0  0  0  0  0  0  0  0
    2.6461   -0.8774   -0.2232 C   0  0  0  0  0  0  0  0  0  0  0  0
    3.0915   -2.0390   -0.8408 O   0  0  0  0  0  0  0  0  0  0  0  0
    3.7220   -0.1185    0.4841 C   0  0  0  0  0  0  0  0  0  0  0  0
    3.4359    1.0866    1.1642 N   0  0  0  0  0  0  0  0  0  0  0  0
    4.8887   -0.5903    0.4522 O   0  0  0  0  0  0  0  0  0  0  0  0
    1.4527   -1.1178    0.6746 C   0  0  0  0  0  0  0  0  0  0  0  0
   -1.9149   -0.5723   -0.4967 N   0  0  0  0  0  0  0  0  0  0  0  0
   -4.8056    0.8290   -0.0997 H   0  0  0  0  0  0  0  0  0  0  0  0
   -4.3837   -0.9178   -0.2162 H   0  0  0  0  0  0  0  0  0  0  0  0
   -4.7950    0.0538   -1.6941 H   0  0  0  0  0  0  0  0  0  0  0  0
   -2.5817    0.8084   -1.8805 H   0  0  0  0  0  0  0  0  0  0  0  0
   -2.7980    2.5471   -0.0916 H   0  0  0  0  0  0  0  0  0  0  0  0
   -2.9324    1.1893    1.1488 H   0  0  0  0  0  0  0  0  0  0  0  0
    2.0385    1.0246   -1.1322 H   0  0  0  0  0  0  0  0  0  0  0  0
    1.5012   -0.4231   -2.0777 H   0  0  0  0  0  0  0  0  0  0  0  0
    3.1736   -2.7740   -0.1537 H   0  0  0  0  0  0  0  0  0  0  0  0
    3.9936    1.9333    0.9641 H   0  0  0  0  0  0  0  0  0  0  0  0
    2.6659    1.1134    1.8616 H   0  0  0  0  0  0  0  0  0  0  0  0
    1.1299   -2.1689    0.7430 H   0  0  0  0  0  0  0  0  0  0  0  0
    1.5994   -0.6912    1.6980 H   0  0  0  0  0  0  0  0  0  0  0  0
   -2.0081   -1.5907   -0.4919 H   0  0  0  0  0  0  0  0  0  0  0  0
  1  2  1  0
  2  3  1  0
  3  4  1  0
  4  5  2  0
  5  6  1  0
  6  7  1  0
  7  8  1  0
  8  9  1  0
  8 10  1  0
 10 11  1  0
 10 12  2  0
  8 13  1  0
  5 14  1  0
 14  2  1  0
 13  6  1  0
  1 15  1  0
  1 16  1  0
  1 17  1  0
  2 18  1  6
  3 19  1  0
  3 20  1  0
  7 21  1  0
  7 22  1  0
  9 23  1  0
 11 24  1  0
 11 25  1  0
 13 26  1  0
 13 27  1  0
 14 28  1  0
M  END
$$$$
