
     RDKit          3D

 27 28  0  0  0  0  0  0  0  0999 V2000
   -2.9909    0.5296    1.6773 N   0  0  0  0  0  0  0  0  0  0  0  0
   -2.5755    0.6258    0.3161 C   0  0  2  0  0  0  0  0  0  0  0  0
   -3.4470   -0.1428   -0.6846 C   0  0  0  0  0  0  0  0  0  0  0  0
   -2.1472   -0.3744   -1.4697 C   0  0  0  0  0  0  0  0  0  0  0  0
   -1.4528   -0.3154   -0.1012 C   0  0  1  0  0  0  0  0  0  0  0  0
   -0.1438    0.2994   -0.1451 N   0  0  0  0  0  0  0  0  0  0  0  0
    1.0044   -0.3534    0.3644 C   0  0  0  0  0  0  0  0  0  0  0  0
    0.8649   -1.4993    0.8658 O   0  0  0  0  0  0  0  0  0  0  0  0
    2.3119    0.3312    0.2880 C   0  0  0  0  0  0  0  0  0  0  0  0
    3.4666   -0.4446    0.8555 C   0  0  0  0  0  0  0  0  0  0  0  0
    4.2609    0.0098   -0.2944 N   0  0  0  0  0  0  0  0  0  0  0  0
    2.9931    0.0689   -1.0381 C   0  0  0  0  0  0  0  0  0  0  0  0
   -3.7770   -0.0982    1.8669 H   0  0  0  0  0  0  0  0  0  0  0  0
   -2.2391    0.5500    2.3730 H   0  0  0  0  0  0  0  0  0  0  0  0
   -2.3861    1.6426   -0.0856 H   0  0  0  0  0  0  0  0  0  0  0  0
   -4.1955    0.4549   -1.1994 H   0  0  0  0  0  0  0  0  0  0  0  0
   -3.7845   -1.1361   -0.2980 H   0  0  0  0  0  0  0  0  0  0  0  0
   -2.0932   -1.3530   -1.9584 H   0  0  0  0  0  0  0  0  0  0  0  0
   -1.8919    0.5088   -2.0927 H   0  0  0  0  0  0  0  0  0  0  0  0
   -1.5044   -1.3161    0.3495 H   0  0  0  0  0  0  0  0  0  0  0  0
   -0.0881    1.2492   -0.5716 H   0  0  0  0  0  0  0  0  0  0  0  0
    2.3312    1.3770    0.6367 H   0  0  0  0  0  0  0  0  0  0  0  0
    3.3497   -1.5553    0.7512 H   0  0  0  0  0  0  0  0  0  0  0  0
    3.8738   -0.0917    1.8066 H   0  0  0  0  0  0  0  0  0  0  0  0
    4.5890    1.0029   -0.1045 H   0  0  0  0  0  0  0  0  0  0  0  0
    2.7017   -0.9021   -1.4573 H   0  0  0  0  0  0  0  0  0  0  0  0
    2.9700    0.9324   -1.7402 H   0  0  0  0  0  0  0  0  0  0  0  0
  1  2  1  0
  2  3  1  0
  3  4  1  0
  4  5  1  0
  5  6  1  0
  6  7  1  0
  7  8  2  0
  7  9  1  0
  9 10  1  0
 10 11  1  0
 11 12  1  0
  5  2  1  0
 12  9  1  0
  1 13  1  0
  1 14  1  0
  2 15  1  6
  3 16  1  0
  3 17  1  0
  4 18  1  0
  4 19  1  0
  5 20  1  1
  6 21  1  0
  9 22  1  0
 10 23  1  0
 10 24  1  0
 11 25  1  0
 12 26  1  0
 12 27  1  0
M  END
$$$$

     RDKit          3D

 27 28  0  0  0  0  0  0  0  0999 V2000
   -2.8453    0.5380   -1.5887 N   0  0  0  0  0  0  0  0  0  0  0  0
   -2.5733   -0.1781   -0.3828 C   0  0  2  0  0  0  0  0  0  0  0  0
   -3.2849    0.3831    0.8556 C   0  0  0  0  0  0  0  0  0  0  0  0
   -2.0452   -0.1404    1.6088 C   0  0  0  0  0  0  0  0  0  0  0  0
   -1.3059    0.1971    0.3501 C   0  0  1  0  0  0  0  0  0  0  0  0
   -0.1252   -0.4752    0.0271 N   0  0  0  0  0  0  0  0  0  0  0  0
    1.0678    0.2095   -0.3240 C   0  0  0  0  0  0  0  0  0  0  0  0
    1.0038    1.4663   -0.3286 O   0  0  0  0  0  0  0  0  0  0  0  0
    2.3253   -0.5253   -0.6676 C   0  0  0  0  0  0  0  0  0  0  0  0
    3.4411    0.4249   -1.0015 C   0  0  0  0  0  0  0  0  0  0  0  0
    3.8103    0.4534    0.3919 N   0  0  0  0  0  0  0  0  0  0  0  0
    3.1476   -0.8295    0.5543 C   0  0  0  0  0  0  0  0  0  0  0  0
   -3.8885    0.7289   -1.6809 H   0  0  0  0  0  0  0  0  0  0  0  0
   -2.4994   -0.0373   -2.3873 H   0  0  0  0  0  0  0  0  0  0  0  0
   -2.7064   -1.2773   -0.5037 H   0  0  0  0  0  0  0  0  0  0  0  0
   -4.2151   -0.1178    1.1106 H   0  0  0  0  0  0  0  0  0  0  0  0
   -3.2813    1.4797    0.8379 H   0  0  0  0  0  0  0  0  0  0  0  0
   -1.7967    0.4366    2.5007 H   0  0  0  0  0  0  0  0  0  0  0  0
   -2.2313   -1.1966    1.8152 H   0  0  0  0  0  0  0  0  0  0  0  0
   -1.1883    1.3177    0.2965 H   0  0  0  0  0  0  0  0  0  0  0  0
   -0.0737   -1.5214    0.0315 H   0  0  0  0  0  0  0  0  0  0  0  0
    2.1754   -1.3625   -1.3684 H   0  0  0  0  0  0  0  0  0  0  0  0
    3.0927    1.4143   -1.3850 H   0  0  0  0  0  0  0  0  0  0  0  0
    4.2444   -0.0211   -1.6032 H   0  0  0  0  0  0  0  0  0  0  0  0
    3.3804    1.2061    0.9605 H   0  0  0  0  0  0  0  0  0  0  0  0
    2.5386   -0.8798    1.4827 H   0  0  0  0  0  0  0  0  0  0  0  0
    3.8329   -1.6935    0.3983 H   0  0  0  0  0  0  0  0  0  0  0  0
  1  2  1  0
  2  3  1  0
  3  4  1  0
  4  5  1  0
  5  6  1  0
  6  7  1  0
  7  8  2  0
  7  9  1  0
  9 10  1  0
 10 11  1  0
 11 12  1  0
  5  2  1  0
 12  9  1  0
  1 13  1  0
  1 14  1  0
  2 15  1  6
  3 16  1  0
  3 17  1  0
  4 18  1  0
  4 19  1  0
  5 20  1  1
  6 21  1  0
  9 22  1  0
 10 23  1  0
 10 24  1  0
 11 25  1  0
 12 26  1  0
 12 27  1  0
M  END
$$$$

     RDKit          3D

 27 28  0  0  0  0  0  0  0  0999 V2000
   -2.7476   -1.8989    1.1740 N   0  0  0  0  0  0  0  0  0  0  0  0
   -2.1798   -0.5481    1.0808 C   0  0  2  0  0  0  0  0  0  0  0  0
   -3.2738    0.4145    0.6118 C   0  0  0  0  0  0  0  0  0  0  0  0
   -2.6271    0.4454   -0.7762 C   0  0  0  0  0  0  0  0  0  0  0  0
   -1.4441   -0.2617   -0.1715 C   0  0  1  0  0  0  0  0  0  0  0  0
   -0.2169    0.4461   -0.1211 N   0  0  0  0  0  0  0  0  0  0  0  0
    1.0129    0.0101   -0.6898 C   0  0  0  0  0  0  0  0  0  0  0  0
    0.9408   -1.1120   -1.2770 O   0  0  0  0  0  0  0  0  0  0  0  0
    2.2683    0.7533   -0.6278 C   0  0  0  0  0  0  0  0  0  0  0  0
    2.8366    1.0613    0.7095 C   0  0  0  0  0  0  0  0  0  0  0  0
    4.0894    0.3864    0.3368 N   0  0  0  0  0  0  0  0  0  0  0  0
    3.4413   -0.2086   -0.8044 C   0  0  0  0  0  0  0  0  0  0  0  0
   -3.0484   -2.1713    0.2133 H   0  0  0  0  0  0  0  0  0  0  0  0
   -2.0258   -2.5656    1.5184 H   0  0  0  0  0  0  0  0  0  0  0  0
   -1.7245   -0.3021    2.0354 H   0  0  0  0  0  0  0  0  0  0  0  0
   -4.2821   -0.0040    0.6431 H   0  0  0  0  0  0  0  0  0  0  0  0
   -3.2333    1.4118    1.0525 H   0  0  0  0  0  0  0  0  0  0  0  0
   -2.4581    1.4353   -1.1910 H   0  0  0  0  0  0  0  0  0  0  0  0
   -3.2509   -0.1733   -1.4703 H   0  0  0  0  0  0  0  0  0  0  0  0
   -1.2890   -1.2266   -0.7352 H   0  0  0  0  0  0  0  0  0  0  0  0
   -0.1477    1.3889    0.3699 H   0  0  0  0  0  0  0  0  0  0  0  0
    2.3970    1.5927   -1.3273 H   0  0  0  0  0  0  0  0  0  0  0  0
    3.0804    2.1361    0.8796 H   0  0  0  0  0  0  0  0  0  0  0  0
    2.3380    0.6209    1.5912 H   0  0  0  0  0  0  0  0  0  0  0  0
    4.3808   -0.2692    1.0919 H   0  0  0  0  0  0  0  0  0  0  0  0
    3.1931   -1.2670   -0.5925 H   0  0  0  0  0  0  0  0  0  0  0  0
    3.9704   -0.0945   -1.7743 H   0  0  0  0  0  0  0  0  0  0  0  0
  1  2  1  0
  2  3  1  0
  3  4  1  0
  4  5  1  0
  5  6  1  0
  6  7  1  0
  7  8  2  0
  7  9  1  0
  9 10  1  0
 10 11  1  0
 11 12  1  0
  5  2  1  0
 12  9  1  0
  1 13  1  0
  1 14  1  0
  2 15  1  1
  3 16  1  0
  3 17  1  0
  4 18  1  0
  4 19  1  0
  5 20  1  6
  6 21  1  0
  9 22  1  0
 10 23  1  0
 10 24  1  0
 11 25  1  0
 12 26  1  0
 12 27  1  0
M  END
$$$$

     RDKit          3D

 27 28  0  0  0  0  0  0  0  0999 V2000
    3.0819    1.2509   -0.5049 N   0  0  0  0  0  0  0  0  0  0  0  0
    2.1629    0.7437    0.4988 C   0  0  2  0  0  0  0  0  0  0  0  0
    2.8630   -0.2441    1.4445 C   0  0  0  0  0  0  0  0  0  0  0  0
    1.5672   -1.0635    1.3850 C   0  0  0  0  0  0  0  0  0  0  0  0
    1.3392   -0.4415    0.0211 C   0  0  1  0  0  0  0  0  0  0  0  0
   -0.0562   -0.1659   -0.1848 N   0  0  0  0  0  0  0  0  0  0  0  0
   -0.8081   -0.5598   -1.2994 C   0  0  0  0  0  0  0  0  0  0  0  0
   -0.2189   -1.2171   -2.2132 O   0  0  0  0  0  0  0  0  0  0  0  0
   -2.2426   -0.2303   -1.4258 C   0  0  0  0  0  0  0  0  0  0  0  0
   -3.1215   -0.7805   -0.3289 C   0  0  0  0  0  0  0  0  0  0  0  0
   -3.0083    0.4642    0.4226 N   0  0  0  0  0  0  0  0  0  0  0  0
   -2.6027    1.1156   -0.8114 C   0  0  0  0  0  0  0  0  0  0  0  0
    3.6850    0.4437   -0.8123 H   0  0  0  0  0  0  0  0  0  0  0  0
    3.7333    1.9075    0.0099 H   0  0  0  0  0  0  0  0  0  0  0  0
    1.6153    1.4934    1.0753 H   0  0  0  0  0  0  0  0  0  0  0  0
    3.6611   -0.7595    0.8951 H   0  0  0  0  0  0  0  0  0  0  0  0
    3.0961    0.1765    2.4213 H   0  0  0  0  0  0  0  0  0  0  0  0
    1.7017   -2.1440    1.4094 H   0  0  0  0  0  0  0  0  0  0  0  0
    0.8299   -0.6445    2.1119 H   0  0  0  0  0  0  0  0  0  0  0  0
    1.8574   -1.0032   -0.7521 H   0  0  0  0  0  0  0  0  0  0  0  0
   -0.5429    0.3805    0.5762 H   0  0  0  0  0  0  0  0  0  0  0  0
   -2.6858   -0.3585   -2.4180 H   0  0  0  0  0  0  0  0  0  0  0  0
   -4.1782   -0.9340   -0.6296 H   0  0  0  0  0  0  0  0  0  0  0  0
   -2.7117   -1.6377    0.2281 H   0  0  0  0  0  0  0  0  0  0  0  0
   -3.9002    0.8025    0.8361 H   0  0  0  0  0  0  0  0  0  0  0  0
   -1.7063    1.7456   -0.6202 H   0  0  0  0  0  0  0  0  0  0  0  0
   -3.4106    1.6601   -1.3345 H   0  0  0  0  0  0  0  0  0  0  0  0
  1  2  1  0
  2  3  1  0
  3  4  1  0
  4  5  1  0
  5  6  1  0
  6  7  1  0
  7  8  2  0
  7  9  1  0
  9 10  1  0
 10 11  1  0
 11 12  1  0
  5  2  1  0
 12  9  1  0
  1 13  1  0
  1 14  1  0
  2 15  1  1
  3 16  1  0
  3 17  1  0
  4 18  1  0
  4 19  1  0
  5 20  1  6
  6 21  1  0
  9 22  1  0
 10 23  1  0
 10 24  1  0
 11 25  1  0
 12 26  1  0
 12 27  1  0
M  END
$$$$

     RDKit          3D

 27 28  0  0  0  0  0  0  0  0999 V2000
   -3.3129   -0.6671    1.1304 N   0  0  0  0  0  0  0  0  0  0  0  0
   -2.3032    0.1859    0.5749 C   0  0  2  0  0  0  0  0  0  0  0  0
   -2.8016    1.1659   -0.4756 C   0  0  0  0  0  0  0  0  0  0  0  0
   -2.3654    0.1696   -1.5295 C   0  0  0  0  0  0  0  0  0  0  0  0
   -1.4365   -0.4378   -0.4984 C   0  0  1  0  0  0  0  0  0  0  0  0
   -0.1128    0.1124   -0.4683 N   0  0  0  0  0  0  0  0  0  0  0  0
    1.0777   -0.6649   -0.4247 C   0  0  0  0  0  0  0  0  0  0  0  0
    0.9577   -1.9136   -0.4118 O   0  0  0  0  0  0  0  0  0  0  0  0
    2.3774    0.0451   -0.3974 C   0  0  0  0  0  0  0  0  0  0  0  0
    3.5888   -0.8283   -0.3521 C   0  0  0  0  0  0  0  0  0  0  0  0
    4.1517    0.1022    0.6398 N   0  0  0  0  0  0  0  0  0  0  0  0
    2.7619    0.3423    1.0579 C   0  0  0  0  0  0  0  0  0  0  0  0
   -3.5831   -1.4464    0.4908 H   0  0  0  0  0  0  0  0  0  0  0  0
   -4.1308   -0.0649    1.3976 H   0  0  0  0  0  0  0  0  0  0  0  0
   -1.7025    0.6866    1.3713 H   0  0  0  0  0  0  0  0  0  0  0  0
   -2.1512    2.0634   -0.5325 H   0  0  0  0  0  0  0  0  0  0  0  0
   -3.8845    1.3658   -0.4377 H   0  0  0  0  0  0  0  0  0  0  0  0
   -1.8759    0.6043   -2.4136 H   0  0  0  0  0  0  0  0  0  0  0  0
   -3.2108   -0.5317   -1.7431 H   0  0  0  0  0  0  0  0  0  0  0  0
   -1.4711   -1.5450   -0.4848 H   0  0  0  0  0  0  0  0  0  0  0  0
   -0.0314    1.1614   -0.4797 H   0  0  0  0  0  0  0  0  0  0  0  0
    2.4452    0.9509   -1.0017 H   0  0  0  0  0  0  0  0  0  0  0  0
    4.1860   -0.8925   -1.2765 H   0  0  0  0  0  0  0  0  0  0  0  0
    3.3828   -1.7835    0.1658 H   0  0  0  0  0  0  0  0  0  0  0  0
    4.4789    0.9479    0.1180 H   0  0  0  0  0  0  0  0  0  0  0  0
    2.4169   -0.4884    1.7026 H   0  0  0  0  0  0  0  0  0  0  0  0
    2.5486    1.3605    1.3904 H   0  0  0  0  0  0  0  0  0  0  0  0
  1  2  1  0
  2  3  1  0
  3  4  1  0
  4  5  1  0
  5  6  1  0
  6  7  1  0
  7  8  2  0
  7  9  1  0
  9 10  1  0
 10 11  1  0
 11 12  1  0
  5  2  1  0
 12  9  1  0
  1 13  1  0
  1 14  1  0
  2 15  1  1
  3 16  1  0
  3 17  1  0
  4 18  1  0
  4 19  1  0
  5 20  1  1
  6 21  1  0
  9 22  1  0
 10 23  1  0
 10 24  1  0
 11 25  1  0
 12 26  1  0
 12 27  1  0
M  END
$$$$

     RDKit          3D

 27 28  0  0  0  0  0  0  0  0999 V2000
    3.0145   -1.5622    0.4837 N   0  0  0  0  0  0  0  0  0  0  0  0
    2.5942   -0.4636   -0.3418 C   0  0  2  0  0  0  0  0  0  0  0  0
    3.3030    0.8610   -0.0199 C   0  0  0  0  0  0  0  0  0  0  0  0
    1.9874    1.5207   -0.4443 C   0  0  0  0  0  0  0  0  0  0  0  0
    1.3355    0.2388    0.0899 C   0  0  1  0  0  0  0  0  0  0  0  0
    0.1292   -0.1363   -0.5856 N   0  0  0  0  0  0  0  0  0  0  0  0
   -1.0231   -0.3847    0.2119 C   0  0  0  0  0  0  0  0  0  0  0  0
   -0.9615   -0.2718    1.4765 O   0  0  0  0  0  0  0  0  0  0  0  0
   -2.3150   -0.7760   -0.3748 C   0  0  0  0  0  0  0  0  0  0  0  0
   -2.8069    0.2969   -1.3239 C   0  0  0  0  0  0  0  0  0  0  0  0
   -3.9956    0.5254   -0.5286 N   0  0  0  0  0  0  0  0  0  0  0  0
   -3.5294   -0.4542    0.4449 C   0  0  0  0  0  0  0  0  0  0  0  0
    4.0577   -1.6472    0.3829 H   0  0  0  0  0  0  0  0  0  0  0  0
    2.7959   -1.3186    1.4765 H   0  0  0  0  0  0  0  0  0  0  0  0
    2.7106   -0.6627   -1.4111 H   0  0  0  0  0  0  0  0  0  0  0  0
    3.4054    0.9415    1.0719 H   0  0  0  0  0  0  0  0  0  0  0  0
    4.1628    1.0878   -0.6418 H   0  0  0  0  0  0  0  0  0  0  0  0
    1.7257    2.4266    0.0978 H   0  0  0  0  0  0  0  0  0  0  0  0
    1.9497    1.5496   -1.5492 H   0  0  0  0  0  0  0  0  0  0  0  0
    1.2717    0.3043    1.1768 H   0  0  0  0  0  0  0  0  0  0  0  0
    0.0745   -0.2290   -1.6093 H   0  0  0  0  0  0  0  0  0  0  0  0
   -2.2602   -1.7940   -0.7883 H   0  0  0  0  0  0  0  0  0  0  0  0
   -3.0259   -0.1504   -2.3190 H   0  0  0  0  0  0  0  0  0  0  0  0
   -2.1510    1.2061   -1.3759 H   0  0  0  0  0  0  0  0  0  0  0  0
   -4.8881    0.2656   -0.9883 H   0  0  0  0  0  0  0  0  0  0  0  0
   -4.1936   -1.3577    0.5091 H   0  0  0  0  0  0  0  0  0  0  0  0
   -3.3677   -0.0158    1.4321 H   0  0  0  0  0  0  0  0  0  0  0  0
  1  2  1  0
  2  3  1  0
  3  4  1  0
  4  5  1  0
  5  6  1  0
  6  7  1  0
  7  8  2  0
  7  9  1  0
  9 10  1  0
 10 11  1  0
 11 12  1  0
  5  2  1  0
 12  9  1  0
  1 13  1  0
  1 14  1  0
  2 15  1  6
  3 16  1  0
  3 17  1  0
  4 18  1  0
  4 19  1  0
  5 20  1  1
  6 21  1  0
  9 22  1  0
 10 23  1  0
 10 24  1  0
 11 25  1  0
 12 26  1  0
 12 27  1  0
M  END
$$$$

     RDKit          3D

 27 28  0  0  0  0  0  0  0  0999 V2000
   -3.3314   -1.2231    0.8510 N   0  0  0  0  0  0  0  0  0  0  0  0
   -2.3558   -0.1386    0.8684 C   0  0  2  0  0  0  0  0  0  0  0  0
   -2.9588    1.0800    0.2100 C   0  0  0  0  0  0  0  0  0  0  0  0
   -2.2803    0.6615   -1.0787 C   0  0  0  0  0  0  0  0  0  0  0  0
   -1.3858   -0.2482   -0.2318 C   0  0  1  0  0  0  0  0  0  0  0  0
   -0.0784    0.2674   -0.1099 N   0  0  0  0  0  0  0  0  0  0  0  0
    1.0549   -0.4482   -0.5702 C   0  0  0  0  0  0  0  0  0  0  0  0
    0.8244   -1.5626   -1.0899 O   0  0  0  0  0  0  0  0  0  0  0  0
    2.4234    0.1176   -0.4300 C   0  0  0  0  0  0  0  0  0  0  0  0
    2.8598    0.4032    0.9801 C   0  0  0  0  0  0  0  0  0  0  0  0
    4.1214   -0.2794    0.6617 N   0  0  0  0  0  0  0  0  0  0  0  0
    3.5275   -0.8888   -0.5391 C   0  0  0  0  0  0  0  0  0  0  0  0
   -3.4472   -1.6018   -0.1273 H   0  0  0  0  0  0  0  0  0  0  0  0
   -4.2842   -0.8834    1.1337 H   0  0  0  0  0  0  0  0  0  0  0  0
   -1.9970   -0.0090    1.8959 H   0  0  0  0  0  0  0  0  0  0  0  0
   -4.0867    1.0514    0.1570 H   0  0  0  0  0  0  0  0  0  0  0  0
   -2.6509    2.0479    0.6001 H   0  0  0  0  0  0  0  0  0  0  0  0
   -1.7250    1.4627   -1.5860 H   0  0  0  0  0  0  0  0  0  0  0  0
   -3.0066    0.1253   -1.7121 H   0  0  0  0  0  0  0  0  0  0  0  0
   -1.3940   -1.2615   -0.7241 H   0  0  0  0  0  0  0  0  0  0  0  0
    0.0467    1.2220    0.3423 H   0  0  0  0  0  0  0  0  0  0  0  0
    2.5942    1.0350   -1.0565 H   0  0  0  0  0  0  0  0  0  0  0  0
    2.2732   -0.0708    1.7801 H   0  0  0  0  0  0  0  0  0  0  0  0
    3.0657    1.4577    1.2203 H   0  0  0  0  0  0  0  0  0  0  0  0
    4.8943    0.3706    0.3815 H   0  0  0  0  0  0  0  0  0  0  0  0
    3.1860   -1.9391   -0.3680 H   0  0  0  0  0  0  0  0  0  0  0  0
    4.1105   -0.7479   -1.4584 H   0  0  0  0  0  0  0  0  0  0  0  0
  1  2  1  0
  2  3  1  0
  3  4  1  0
  4  5  1  0
  5  6  1  0
  6  7  1  0
  7  8  2  0
  7  9  1  0
  9 10  1  0
 10 11  1  0
 11 12  1  0
  5  2  1  0
 12  9  1  0
  1 13  1  0
  1 14  1  0
  2 15  1  1
  3 16  1  0
  3 17  1  0
  4 18  1  0
  4 19  1  0
  5 20  1  6
  6 21  1  0
  9 22  1  0
 10 23  1  0
 10 24  1  0
 11 25  1  0
 12 26  1  0
 12 27  1  0
M  END
$$$$

     RDKit          3D

 27 28  0  0  0  0  0  0  0  0999 V2000
    2.6225   -1.6241    0.4610 N   0  0  0  0  0  0  0  0  0  0  0  0
    2.1306   -0.8145   -0.6485 C   0  0  2  0  0  0  0  0  0  0  0  0
    3.2231    0.1581   -1.1188 C   0  0  0  0  0  0  0  0  0  0  0  0
    2.0750    1.1584   -1.3322 C   0  0  0  0  0  0  0  0  0  0  0  0
    1.3501    0.4015   -0.2464 C   0  0  1  0  0  0  0  0  0  0  0  0
   -0.0612    0.3396   -0.3274 N   0  0  0  0  0  0  0  0  0  0  0  0
   -0.9467    0.7113    0.7362 C   0  0  0  0  0  0  0  0  0  0  0  0
   -0.3998    1.1139    1.7957 O   0  0  0  0  0  0  0  0  0  0  0  0
   -2.4184    0.6272    0.5987 C   0  0  0  0  0  0  0  0  0  0  0  0
   -2.8565   -0.7906    0.3119 C   0  0  0  0  0  0  0  0  0  0  0  0
   -3.7805   -0.7885    1.4308 N   0  0  0  0  0  0  0  0  0  0  0  0
   -3.1843    0.4609    1.8682 C   0  0  0  0  0  0  0  0  0  0  0  0
    2.7392   -0.9599    1.2749 H   0  0  0  0  0  0  0  0  0  0  0  0
    3.5727   -1.9519    0.1761 H   0  0  0  0  0  0  0  0  0  0  0  0
    1.7719   -1.3755   -1.5128 H   0  0  0  0  0  0  0  0  0  0  0  0
    3.7373   -0.1372   -2.0303 H   0  0  0  0  0  0  0  0  0  0  0  0
    3.8474    0.5375   -0.2832 H   0  0  0  0  0  0  0  0  0  0  0  0
    1.6904    1.0194   -2.3541 H   0  0  0  0  0  0  0  0  0  0  0  0
    2.3518    2.2017   -1.0878 H   0  0  0  0  0  0  0  0  0  0  0  0
    1.6968    0.7745    0.7457 H   0  0  0  0  0  0  0  0  0  0  0  0
   -0.5440    0.0049   -1.2064 H   0  0  0  0  0  0  0  0  0  0  0  0
   -2.8616    1.3139   -0.1633 H   0  0  0  0  0  0  0  0  0  0  0  0
   -3.4317   -0.9143   -0.6325 H   0  0  0  0  0  0  0  0  0  0  0  0
   -2.0641   -1.5592    0.3794 H   0  0  0  0  0  0  0  0  0  0  0  0
   -3.6544   -1.5481    2.1081 H   0  0  0  0  0  0  0  0  0  0  0  0
   -3.9959    1.2387    1.9508 H   0  0  0  0  0  0  0  0  0  0  0  0
   -2.6097    0.4022    2.8031 H   0  0  0  0  0  0  0  0  0  0  0  0
  1  2  1  0
  2  3  1  0
  3  4  1  0
  4  5  1  0
  5  6  1  0
  6  7  1  0
  7  8  2  0
  7  9  1  0
  9 10  1  0
 10 11  1  0
 11 12  1  0
  5  2  1  0
 12  9  1  0
  1 13  1  0
  1 14  1  0
  2 15  1  6
  3 16  1  0
  3 17  1  0
  4 18  1  0
  4 19  1  0
  5 20  1  1
  6 21  1  0
  9 22  1  0
 10 23  1  0
 10 24  1  0
 11 25  1  0
 12 26  1  0
 12 27  1  0
M  END
$$$$
