
     RDKit          3D

 25 25  0  0  0  0  0  0  0  0999 V2000
    3.8224   -0.6899   -0.2242 C   0  0  0  0  0  0  0  0  0  0  0  0
    2.5996    0.0505   -0.4210 N   0  0  0  0  0  0  0  0  0  0  0  0
    1.3253   -0.3704    0.0158 C   0  0  0  0  0  0  0  0  0  0  0  0
    1.2217   -1.4657    0.6213 O   0  0  0  0  0  0  0  0  0  0  0  0
    0.0900    0.4224   -0.2059 C   0  0  2  0  0  0  0  0  0  0  0  0
    0.3397    1.7918    0.3495 C   0  0  0  0  0  0  0  0  0  0  0  0
   -1.0790   -0.2112    0.3473 N   0  0  0  0  0  0  0  0  0  0  0  0
   -2.1818    0.7196    0.1857 C   0  0  0  0  0  0  0  0  0  0  0  0
   -3.3710   -0.0695    0.0477 N   0  0  0  0  0  0  0  0  0  0  0  0
   -2.9711   -1.3601   -0.3402 C   0  0  0  0  0  0  0  0  0  0  0  0
   -3.7576   -2.3215   -0.5068 O   0  0  0  0  0  0  0  0  0  0  0  0
   -1.4725   -1.3382   -0.5038 C   0  0  0  0  0  0  0  0  0  0  0  0
    4.4785   -0.4892   -1.1005 H   0  0  0  0  0  0  0  0  0  0  0  0
    3.6877   -1.7626   -0.0924 H   0  0  0  0  0  0  0  0  0  0  0  0
    4.3972   -0.3281    0.6614 H   0  0  0  0  0  0  0  0  0  0  0  0
    2.6347    0.9770   -0.9256 H   0  0  0  0  0  0  0  0  0  0  0  0
   -0.1058    0.5118   -1.3122 H   0  0  0  0  0  0  0  0  0  0  0  0
    0.8466    1.7161    1.3541 H   0  0  0  0  0  0  0  0  0  0  0  0
    1.0855    2.2915   -0.3145 H   0  0  0  0  0  0  0  0  0  0  0  0
   -0.5714    2.4083    0.4369 H   0  0  0  0  0  0  0  0  0  0  0  0
   -2.0734    1.3445   -0.7208 H   0  0  0  0  0  0  0  0  0  0  0  0
   -2.2408    1.3121    1.1211 H   0  0  0  0  0  0  0  0  0  0  0  0
   -4.3339    0.2636    0.2073 H   0  0  0  0  0  0  0  0  0  0  0  0
   -1.2982   -1.1081   -1.5840 H   0  0  0  0  0  0  0  0  0  0  0  0
   -1.0727   -2.2948   -0.1736 H   0  0  0  0  0  0  0  0  0  0  0  0
  1  2  1  0
  2  3  1  0
  3  4  2  0
  3  5  1  0
  5  6  1  0
  5  7  1  0
  7  8  1  0
  8  9  1  0
  9 10  1  0
 10 11  2  0
 10 12  1  0
 12  7  1  0
  1 13  1  0
  1 14  1  0
  1 15  1  0
  2 16  1  0
  5 17  1  6
  6 18  1  0
  6 19  1  0
  6 20  1  0
  8 21  1  0
  8 22  1  0
  9 23  1  0
 12 24  1  0
 12 25  1  0
M  END
$$$$

     RDKit          3D

 25 25  0  0  0  0  0  0  0  0999 V2000
    3.8596    0.3836    0.2231 C   0  0  0  0  0  0  0  0  0  0  0  0
    2.4743    0.1178    0.5537 N   0  0  0  0  0  0  0  0  0  0  0  0
    1.3916    0.3189   -0.3680 C   0  0  0  0  0  0  0  0  0  0  0  0
    1.6314    0.7360   -1.5185 O   0  0  0  0  0  0  0  0  0  0  0  0
   -0.0052    0.0298    0.0691 C   0  0  2  0  0  0  0  0  0  0  0  0
   -0.0513   -1.5015    0.1729 C   0  0  0  0  0  0  0  0  0  0  0  0
   -0.9677    0.5364   -0.8523 N   0  0  0  0  0  0  0  0  0  0  0  0
   -1.9796   -0.4214   -1.2169 C   0  0  0  0  0  0  0  0  0  0  0  0
   -2.8020   -0.5378    0.0008 N   0  0  0  0  0  0  0  0  0  0  0  0
   -2.4296    0.5559    0.8525 C   0  0  0  0  0  0  0  0  0  0  0  0
   -2.6033    0.6612    2.0914 O   0  0  0  0  0  0  0  0  0  0  0  0
   -1.7855    1.5134   -0.1094 C   0  0  0  0  0  0  0  0  0  0  0  0
    4.2566   -0.2957   -0.5278 H   0  0  0  0  0  0  0  0  0  0  0  0
    4.4482    0.3236    1.1486 H   0  0  0  0  0  0  0  0  0  0  0  0
    3.9870    1.4424   -0.1375 H   0  0  0  0  0  0  0  0  0  0  0  0
    2.2002   -0.2451    1.5102 H   0  0  0  0  0  0  0  0  0  0  0  0
   -0.1377    0.3872    1.1139 H   0  0  0  0  0  0  0  0  0  0  0  0
    0.1150   -1.9458   -0.8299 H   0  0  0  0  0  0  0  0  0  0  0  0
   -0.9286   -1.8850    0.6899 H   0  0  0  0  0  0  0  0  0  0  0  0
    0.8305   -1.7867    0.7958 H   0  0  0  0  0  0  0  0  0  0  0  0
   -1.6392   -1.3800   -1.5816 H   0  0  0  0  0  0  0  0  0  0  0  0
   -2.6154    0.0727   -1.9898 H   0  0  0  0  0  0  0  0  0  0  0  0
   -3.5229   -1.2476    0.2486 H   0  0  0  0  0  0  0  0  0  0  0  0
   -2.5708    1.9141   -0.7490 H   0  0  0  0  0  0  0  0  0  0  0  0
   -1.1555    2.2539    0.4101 H   0  0  0  0  0  0  0  0  0  0  0  0
  1  2  1  0
  2  3  1  0
  3  4  2  0
  3  5  1  0
  5  6  1  0
  5  7  1  0
  7  8  1  0
  8  9  1  0
  9 10  1  0
 10 11  2  0
 10 12  1  0
 12  7  1  0
  1 13  1  0
  1 14  1  0
  1 15  1  0
  2 16  1  0
  5 17  1  1
  6 18  1  0
  6 19  1  0
  6 20  1  0
  8 21  1  0
  8 22  1  0
  9 23  1  0
 12 24  1  0
 12 25  1  0
M  END
$$$$

     RDKit          3D

 25 25  0  0  0  0  0  0  0  0999 V2000
    3.2869    1.3457   -0.1383 C   0  0  0  0  0  0  0  0  0  0  0  0
    1.9044    0.8748   -0.2670 N   0  0  0  0  0  0  0  0  0  0  0  0
    1.4492   -0.2713    0.4360 C   0  0  0  0  0  0  0  0  0  0  0  0
    2.3279   -0.8393    1.1680 O   0  0  0  0  0  0  0  0  0  0  0  0
    0.0899   -0.8226    0.3771 C   0  0  2  0  0  0  0  0  0  0  0  0
    0.1488   -2.1898   -0.2857 C   0  0  0  0  0  0  0  0  0  0  0  0
   -0.7640   -0.0080   -0.4342 N   0  0  0  0  0  0  0  0  0  0  0  0
   -2.0296   -0.6601   -0.7199 C   0  0  0  0  0  0  0  0  0  0  0  0
   -2.9233   -0.0863    0.2719 N   0  0  0  0  0  0  0  0  0  0  0  0
   -2.3580    1.1351    0.7245 C   0  0  0  0  0  0  0  0  0  0  0  0
   -2.8381    1.9861    1.5250 O   0  0  0  0  0  0  0  0  0  0  0  0
   -1.0279    1.2870    0.0814 C   0  0  0  0  0  0  0  0  0  0  0  0
    3.2867    2.4487   -0.0620 H   0  0  0  0  0  0  0  0  0  0  0  0
    3.6887    0.8758    0.7772 H   0  0  0  0  0  0  0  0  0  0  0  0
    3.8781    1.0291   -1.0090 H   0  0  0  0  0  0  0  0  0  0  0  0
    1.2415    1.3750   -0.8783 H   0  0  0  0  0  0  0  0  0  0  0  0
   -0.2992   -0.9859    1.4068 H   0  0  0  0  0  0  0  0  0  0  0  0
   -0.5474   -2.9001    0.2250 H   0  0  0  0  0  0  0  0  0  0  0  0
   -0.1364   -2.1174   -1.3562 H   0  0  0  0  0  0  0  0  0  0  0  0
    1.1982   -2.5758   -0.2359 H   0  0  0  0  0  0  0  0  0  0  0  0
   -2.3462   -0.3077   -1.7215 H   0  0  0  0  0  0  0  0  0  0  0  0
   -1.9988   -1.7451   -0.6194 H   0  0  0  0  0  0  0  0  0  0  0  0
   -3.8275   -0.5008    0.5970 H   0  0  0  0  0  0  0  0  0  0  0  0
   -1.0632    2.0275   -0.7475 H   0  0  0  0  0  0  0  0  0  0  0  0
   -0.3406    1.6254    0.8849 H   0  0  0  0  0  0  0  0  0  0  0  0
  1  2  1  0
  2  3  1  0
  3  4  2  0
  3  5  1  0
  5  6  1  0
  5  7  1  0
  7  8  1  0
  8  9  1  0
  9 10  1  0
 10 11  2  0
 10 12  1  0
 12  7  1  0
  1 13  1  0
  1 14  1  0
  1 15  1  0
  2 16  1  0
  5 17  1  1
  6 18  1  0
  6 19  1  0
  6 20  1  0
  8 21  1  0
  8 22  1  0
  9 23  1  0
 12 24  1  0
 12 25  1  0
M  END
$$$$

     RDKit          3D

 25 25  0  0  0  0  0  0  0  0999 V2000
    3.7970   -0.3446   -0.6783 C   0  0  0  0  0  0  0  0  0  0  0  0
    2.6676   -0.0567    0.1902 N   0  0  0  0  0  0  0  0  0  0  0  0
    1.3520    0.1340   -0.2969 C   0  0  0  0  0  0  0  0  0  0  0  0
    1.1478    0.0518   -1.5301 O   0  0  0  0  0  0  0  0  0  0  0  0
    0.1917    0.4284    0.5789 C   0  0  2  0  0  0  0  0  0  0  0  0
    0.1804   -0.6141    1.6623 C   0  0  0  0  0  0  0  0  0  0  0  0
   -0.9898    0.5699   -0.1589 N   0  0  0  0  0  0  0  0  0  0  0  0
   -1.4808   -0.5312   -0.8970 C   0  0  0  0  0  0  0  0  0  0  0  0
   -2.9203   -0.3444   -1.0070 N   0  0  0  0  0  0  0  0  0  0  0  0
   -3.3196    0.6781   -0.1088 C   0  0  0  0  0  0  0  0  0  0  0  0
   -4.4649    1.1119    0.0669 O   0  0  0  0  0  0  0  0  0  0  0  0
   -2.0930    1.1390    0.5917 C   0  0  0  0  0  0  0  0  0  0  0  0
    4.3840    0.5875   -0.7917 H   0  0  0  0  0  0  0  0  0  0  0  0
    3.4396   -0.7226   -1.6567 H   0  0  0  0  0  0  0  0  0  0  0  0
    4.4471   -1.0847   -0.1825 H   0  0  0  0  0  0  0  0  0  0  0  0
    2.8059    0.0174    1.2265 H   0  0  0  0  0  0  0  0  0  0  0  0
    0.3917    1.4234    1.0802 H   0  0  0  0  0  0  0  0  0  0  0  0
    0.5596   -1.5648    1.2545 H   0  0  0  0  0  0  0  0  0  0  0  0
    0.9024   -0.2869    2.4406 H   0  0  0  0  0  0  0  0  0  0  0  0
   -0.7943   -0.7127    2.1712 H   0  0  0  0  0  0  0  0  0  0  0  0
   -1.0840   -0.4977   -1.9438 H   0  0  0  0  0  0  0  0  0  0  0  0
   -1.3184   -1.5300   -0.4586 H   0  0  0  0  0  0  0  0  0  0  0  0
   -3.5770   -0.8560   -1.6287 H   0  0  0  0  0  0  0  0  0  0  0  0
   -2.0663    2.2512    0.5345 H   0  0  0  0  0  0  0  0  0  0  0  0
   -2.1586    0.7537    1.6243 H   0  0  0  0  0  0  0  0  0  0  0  0
  1  2  1  0
  2  3  1  0
  3  4  2  0
  3  5  1  0
  5  6  1  0
  5  7  1  0
  7  8  1  0
  8  9  1  0
  9 10  1  0
 10 11  2  0
 10 12  1  0
 12  7  1  0
  1 13  1  0
  1 14  1  0
  1 15  1  0
  2 16  1  0
  5 17  1  1
  6 18  1  0
  6 19  1  0
  6 20  1  0
  8 21  1  0
  8 22  1  0
  9 23  1  0
 12 24  1  0
 12 25  1  0
M  END
$$$$

     RDKit          3D

 25 25  0  0  0  0  0  0  0  0999 V2000
    3.1024   -1.0526   -0.0137 C   0  0  0  0  0  0  0  0  0  0  0  0
    1.9387   -0.2221    0.1982 N   0  0  0  0  0  0  0  0  0  0  0  0
    1.1135    0.2720   -0.8617 C   0  0  0  0  0  0  0  0  0  0  0  0
    1.4677   -0.0670   -2.0209 O   0  0  0  0  0  0  0  0  0  0  0  0
   -0.0460    1.1090   -0.5420 C   0  0  2  0  0  0  0  0  0  0  0  0
    0.2815    2.1843    0.4788 C   0  0  0  0  0  0  0  0  0  0  0  0
   -1.2466    0.4511   -0.2142 N   0  0  0  0  0  0  0  0  0  0  0  0
   -1.8385   -0.3578   -1.2184 C   0  0  0  0  0  0  0  0  0  0  0  0
   -2.5211   -1.4332   -0.4835 N   0  0  0  0  0  0  0  0  0  0  0  0
   -1.8867   -1.4787    0.7875 C   0  0  0  0  0  0  0  0  0  0  0  0
   -1.7451   -2.5135    1.4840 O   0  0  0  0  0  0  0  0  0  0  0  0
   -1.4586   -0.0672    1.0654 C   0  0  0  0  0  0  0  0  0  0  0  0
    3.2056   -1.8089    0.8021 H   0  0  0  0  0  0  0  0  0  0  0  0
    3.1213   -1.5468   -1.0039 H   0  0  0  0  0  0  0  0  0  0  0  0
    3.9955   -0.3970    0.1011 H   0  0  0  0  0  0  0  0  0  0  0  0
    1.7015    0.0257    1.1771 H   0  0  0  0  0  0  0  0  0  0  0  0
   -0.2503    1.6950   -1.4922 H   0  0  0  0  0  0  0  0  0  0  0  0
    0.4494    1.7843    1.4855 H   0  0  0  0  0  0  0  0  0  0  0  0
   -0.5428    2.9228    0.4152 H   0  0  0  0  0  0  0  0  0  0  0  0
    1.1852    2.7180    0.0654 H   0  0  0  0  0  0  0  0  0  0  0  0
   -1.0723   -0.8251   -1.8351 H   0  0  0  0  0  0  0  0  0  0  0  0
   -2.5673    0.2223   -1.8221 H   0  0  0  0  0  0  0  0  0  0  0  0
   -3.3170   -2.0394   -0.8354 H   0  0  0  0  0  0  0  0  0  0  0  0
   -0.6839    0.0173    1.8091 H   0  0  0  0  0  0  0  0  0  0  0  0
   -2.3866    0.4076    1.5031 H   0  0  0  0  0  0  0  0  0  0  0  0
  1  2  1  0
  2  3  1  0
  3  4  2  0
  3  5  1  0
  5  6  1  0
  5  7  1  0
  7  8  1  0
  8  9  1  0
  9 10  1  0
 10 11  2  0
 10 12  1  0
 12  7  1  0
  1 13  1  0
  1 14  1  0
  1 15  1  0
  2 16  1  0
  5 17  1  6
  6 18  1  0
  6 19  1  0
  6 20  1  0
  8 21  1  0
  8 22  1  0
  9 23  1  0
 12 24  1  0
 12 25  1  0
M  END
$$$$

     RDKit          3D

 25 25  0  0  0  0  0  0  0  0999 V2000
    3.2237    0.9888    1.0831 C   0  0  0  0  0  0  0  0  0  0  0  0
    2.3868   -0.0369    0.5005 N   0  0  0  0  0  0  0  0  0  0  0  0
    0.9826    0.1067    0.4256 C   0  0  0  0  0  0  0  0  0  0  0  0
    0.5222    1.2011    0.9070 O   0  0  0  0  0  0  0  0  0  0  0  0
    0.1283   -0.9200   -0.1579 C   0  0  2  0  0  0  0  0  0  0  0  0
    0.6414   -1.3025   -1.5269 C   0  0  0  0  0  0  0  0  0  0  0  0
   -1.2426   -0.6469   -0.2178 N   0  0  0  0  0  0  0  0  0  0  0  0
   -1.9224   -0.4667    1.0222 C   0  0  0  0  0  0  0  0  0  0  0  0
   -2.4595    0.8729    0.9060 N   0  0  0  0  0  0  0  0  0  0  0  0
   -2.6207    1.1258   -0.4842 C   0  0  0  0  0  0  0  0  0  0  0  0
   -3.3673    2.0258   -0.9652 O   0  0  0  0  0  0  0  0  0  0  0  0
   -1.7692    0.1581   -1.2265 C   0  0  0  0  0  0  0  0  0  0  0  0
    4.2435    0.6124    1.2723 H   0  0  0  0  0  0  0  0  0  0  0  0
    2.7674    1.2094    2.0873 H   0  0  0  0  0  0  0  0  0  0  0  0
    3.1842    1.9440    0.5353 H   0  0  0  0  0  0  0  0  0  0  0  0
    2.8450   -0.8898    0.1332 H   0  0  0  0  0  0  0  0  0  0  0  0
    0.2522   -1.8454    0.4798 H   0  0  0  0  0  0  0  0  0  0  0  0
    1.3199   -0.5289   -1.9320 H   0  0  0  0  0  0  0  0  0  0  0  0
   -0.1705   -1.4571   -2.2614 H   0  0  0  0  0  0  0  0  0  0  0  0
    1.2169   -2.2516   -1.5223 H   0  0  0  0  0  0  0  0  0  0  0  0
   -1.1967   -0.5554    1.8577 H   0  0  0  0  0  0  0  0  0  0  0  0
   -2.7646   -1.1722    1.1288 H   0  0  0  0  0  0  0  0  0  0  0  0
   -2.6867    1.5337    1.6991 H   0  0  0  0  0  0  0  0  0  0  0  0
   -2.4381   -0.4280   -1.8858 H   0  0  0  0  0  0  0  0  0  0  0  0
   -1.0760    0.7229   -1.8581 H   0  0  0  0  0  0  0  0  0  0  0  0
  1  2  1  0
  2  3  1  0
  3  4  2  0
  3  5  1  0
  5  6  1  0
  5  7  1  0
  7  8  1  0
  8  9  1  0
  9 10  1  0
 10 11  2  0
 10 12  1  0
 12  7  1  0
  1 13  1  0
  1 14  1  0
  1 15  1  0
  2 16  1  0
  5 17  1  1
  6 18  1  0
  6 19  1  0
  6 20  1  0
  8 21  1  0
  8 22  1  0
  9 23  1  0
 12 24  1  0
 12 25  1  0
M  END
$$$$

     RDKit          3D

 25 25  0  0  0  0  0  0  0  0999 V2000
    3.4126    0.6689    0.1108 C   0  0  0  0  0  0  0  0  0  0  0  0
    2.3769   -0.3518    0.1557 N   0  0  0  0  0  0  0  0  0  0  0  0
    0.9976   -0.0261    0.1850 C   0  0  0  0  0  0  0  0  0  0  0  0
    0.6887    1.1908    0.1714 O   0  0  0  0  0  0  0  0  0  0  0  0
   -0.0741   -1.0269    0.2301 C   0  0  2  0  0  0  0  0  0  0  0  0
    0.0459   -1.9430   -0.9739 C   0  0  0  0  0  0  0  0  0  0  0  0
   -1.3867   -0.4771    0.2530 N   0  0  0  0  0  0  0  0  0  0  0  0
   -1.7110    0.3256    1.3759 C   0  0  0  0  0  0  0  0  0  0  0  0
   -2.0569    1.6379    0.8664 N   0  0  0  0  0  0  0  0  0  0  0  0
   -2.4818    1.4224   -0.4727 C   0  0  0  0  0  0  0  0  0  0  0  0
   -3.3100    2.0980   -1.1272 O   0  0  0  0  0  0  0  0  0  0  0  0
   -1.7388    0.2268   -0.9389 C   0  0  0  0  0  0  0  0  0  0  0  0
    4.4130    0.2001    0.1190 H   0  0  0  0  0  0  0  0  0  0  0  0
    3.2320    1.3092   -0.7767 H   0  0  0  0  0  0  0  0  0  0  0  0
    3.3460    1.3323    0.9967 H   0  0  0  0  0  0  0  0  0  0  0  0
    2.6584   -1.3413    0.1662 H   0  0  0  0  0  0  0  0  0  0  0  0
    0.0252   -1.6972    1.1271 H   0  0  0  0  0  0  0  0  0  0  0  0
    0.8741   -2.6800   -0.7800 H   0  0  0  0  0  0  0  0  0  0  0  0
    0.2954   -1.4159   -1.8994 H   0  0  0  0  0  0  0  0  0  0  0  0
   -0.8919   -2.5256   -1.0924 H   0  0  0  0  0  0  0  0  0  0  0  0
   -0.9173    0.4060    2.1440 H   0  0  0  0  0  0  0  0  0  0  0  0
   -2.6042   -0.1073    1.9107 H   0  0  0  0  0  0  0  0  0  0  0  0
   -2.0093    2.5685    1.3725 H   0  0  0  0  0  0  0  0  0  0  0  0
   -2.3376   -0.3927   -1.6336 H   0  0  0  0  0  0  0  0  0  0  0  0
   -0.8460    0.5985   -1.4900 H   0  0  0  0  0  0  0  0  0  0  0  0
  1  2  1  0
  2  3  1  0
  3  4  2  0
  3  5  1  0
  5  6  1  0
  5  7  1  0
  7  8  1  0
  8  9  1  0
  9 10  1  0
 10 11  2  0
 10 12  1  0
 12  7  1  0
  1 13  1  0
  1 14  1  0
  1 15  1  0
  2 16  1  0
  5 17  1  1
  6 18  1  0
  6 19  1  0
  6 20  1  0
  8 21  1  0
  8 22  1  0
  9 23  1  0
 12 24  1  0
 12 25  1  0
M  END
$$$$

     RDKit          3D

 25 25  0  0  0  0  0  0  0  0999 V2000
    3.7105    0.4830   -0.0417 C   0  0  0  0  0  0  0  0  0  0  0  0
    2.5655   -0.2744    0.3924 N   0  0  0  0  0  0  0  0  0  0  0  0
    1.2723    0.2298    0.0686 C   0  0  0  0  0  0  0  0  0  0  0  0
    1.1493    1.2962   -0.5731 O   0  0  0  0  0  0  0  0  0  0  0  0
    0.0613   -0.5077    0.4931 C   0  0  2  0  0  0  0  0  0  0  0  0
    0.2146   -1.9227   -0.0336 C   0  0  0  0  0  0  0  0  0  0  0  0
   -1.0770    0.1557    0.1162 N   0  0  0  0  0  0  0  0  0  0  0  0
   -1.4681    0.4139   -1.1786 C   0  0  0  0  0  0  0  0  0  0  0  0
   -2.8664    0.7741   -1.0575 N   0  0  0  0  0  0  0  0  0  0  0  0
   -3.2557    0.7081    0.3043 C   0  0  0  0  0  0  0  0  0  0  0  0
   -4.4131    0.6757    0.8097 O   0  0  0  0  0  0  0  0  0  0  0  0
   -1.9640    0.6821    1.0809 C   0  0  0  0  0  0  0  0  0  0  0  0
    4.1369    0.1149   -0.9944 H   0  0  0  0  0  0  0  0  0  0  0  0
    3.4116    1.5508   -0.1669 H   0  0  0  0  0  0  0  0  0  0  0  0
    4.4796    0.4344    0.7646 H   0  0  0  0  0  0  0  0  0  0  0  0
    2.6096   -1.1672    0.9276 H   0  0  0  0  0  0  0  0  0  0  0  0
    0.1229   -0.5628    1.6203 H   0  0  0  0  0  0  0  0  0  0  0  0
    0.7574   -1.8988   -1.0011 H   0  0  0  0  0  0  0  0  0  0  0  0
   -0.7378   -2.4519   -0.1422 H   0  0  0  0  0  0  0  0  0  0  0  0
    0.8320   -2.5528    0.6757 H   0  0  0  0  0  0  0  0  0  0  0  0
   -1.4179   -0.4010   -1.9283 H   0  0  0  0  0  0  0  0  0  0  0  0
   -0.9243    1.3025   -1.5899 H   0  0  0  0  0  0  0  0  0  0  0  0
   -3.4822    1.0354   -1.8372 H   0  0  0  0  0  0  0  0  0  0  0  0
   -1.6760    1.7443    1.2710 H   0  0  0  0  0  0  0  0  0  0  0  0
   -2.0409    0.1387    2.0200 H   0  0  0  0  0  0  0  0  0  0  0  0
  1  2  1  0
  2  3  1  0
  3  4  2  0
  3  5  1  0
  5  6  1  0
  5  7  1  0
  7  8  1  0
  8  9  1  0
  9 10  1  0
 10 11  2  0
 10 12  1  0
 12  7  1  0
  1 13  1  0
  1 14  1  0
  1 15  1  0
  2 16  1  0
  5 17  1  1
  6 18  1  0
  6 19  1  0
  6 20  1  0
  8 21  1  0
  8 22  1  0
  9 23  1  0
 12 24  1  0
 12 25  1  0
M  END
$$$$
