
     RDKit          3D

 25 26  0  0  0  0  0  0  0  0999 V2000
    3.7567   -0.4936    1.1393 N   0  0  0  0  0  0  0  0  0  0  0  0
    2.3664   -0.4199    0.7045 C   0  0  2  0  0  0  0  0  0  0  0  0
    1.9070   -1.5122   -0.1866 C   0  0  0  0  0  0  0  0  0  0  0  0
    2.0583   -0.1177   -0.7199 C   0  0  1  0  0  0  0  0  0  0  0  0
    0.7856    0.5406   -1.0796 C   0  0  0  0  0  0  0  0  0  0  0  0
    0.7338    1.3196   -2.0642 O   0  0  0  0  0  0  0  0  0  0  0  0
   -0.3888    0.3160   -0.3385 N   0  0  0  0  0  0  0  0  0  0  0  0
   -1.6709    0.9228   -0.6281 C   0  0  1  0  0  0  0  0  0  0  0  0
   -2.7142   -0.1716   -0.7774 C   0  0  0  0  0  0  0  0  0  0  0  0
   -3.2238   -0.3449    0.5339 N   0  0  0  0  0  0  0  0  0  0  0  0
   -2.9116    0.6706    1.3064 O   0  0  0  0  0  0  0  0  0  0  0  0
   -2.1678    1.5941    0.6348 C   0  0  0  0  0  0  0  0  0  0  0  0
    4.1986   -1.3975    0.8449 H   0  0  0  0  0  0  0  0  0  0  0  0
    3.8474   -0.3945    2.1596 H   0  0  0  0  0  0  0  0  0  0  0  0
    1.6955    0.0380    1.4491 H   0  0  0  0  0  0  0  0  0  0  0  0
    2.6594   -2.2299   -0.5636 H   0  0  0  0  0  0  0  0  0  0  0  0
    0.8822   -1.9461   -0.0874 H   0  0  0  0  0  0  0  0  0  0  0  0
    2.9362    0.1119   -1.3533 H   0  0  0  0  0  0  0  0  0  0  0  0
   -0.3363   -0.3308    0.4755 H   0  0  0  0  0  0  0  0  0  0  0  0
   -1.6482    1.5880   -1.4948 H   0  0  0  0  0  0  0  0  0  0  0  0
   -2.2159   -1.0892   -1.1900 H   0  0  0  0  0  0  0  0  0  0  0  0
   -3.5287    0.1465   -1.4550 H   0  0  0  0  0  0  0  0  0  0  0  0
   -2.9185   -1.2324    1.0000 H   0  0  0  0  0  0  0  0  0  0  0  0
   -1.3198    1.9417    1.2807 H   0  0  0  0  0  0  0  0  0  0  0  0
   -2.7825    2.4905    0.4100 H   0  0  0  0  0  0  0  0  0  0  0  0
  1  2  1  0
  2  3  1  0
  3  4  1  0
  4  5  1  0
  5  6  2  0
  5  7  1  0
  7  8  1  0
  8  9  1  0
  9 10  1  0
 10 11  1  0
 11 12  1  0
  4  2  1  0
 12  8  1  0
  1 13  1  0
  1 14  1  0
  2 15  1  1
  3 16  1  0
  3 17  1  0
  4 18  1  6
  7 19  1  0
  8 20  1  6
  9 21  1  0
  9 22  1  0
 10 23  1  0
 12 24  1  0
 12 25  1  0
M  END
$$$$

     RDKit          3D

 25 26  0  0  0  0  0  0  0  0999 V2000
    3.9669    0.9833    1.1677 N   0  0  0  0  0  0  0  0  0  0  0  0
    3.0158   -0.1156    0.9433 C   0  0  2  0  0  0  0  0  0  0  0  0
    2.9772   -0.7138   -0.4185 C   0  0  0  0  0  0  0  0  0  0  0  0
    1.8445    0.2055    0.1284 C   0  0  1  0  0  0  0  0  0  0  0  0
    0.5480   -0.4794    0.2824 C   0  0  0  0  0  0  0  0  0  0  0  0
    0.5369   -1.5983    0.8437 O   0  0  0  0  0  0  0  0  0  0  0  0
   -0.6803    0.0425   -0.1608 N   0  0  0  0  0  0  0  0  0  0  0  0
   -1.9555   -0.6012   -0.0243 C   0  0  1  0  0  0  0  0  0  0  0  0
   -2.8359    0.4067    0.7160 C   0  0  0  0  0  0  0  0  0  0  0  0
   -3.0254    1.3687   -0.3538 N   0  0  0  0  0  0  0  0  0  0  0  0
   -2.9756    0.7283   -1.5094 O   0  0  0  0  0  0  0  0  0  0  0  0
   -2.7683   -0.6075   -1.2987 C   0  0  0  0  0  0  0  0  0  0  0  0
    4.0389    1.5566    0.2749 H   0  0  0  0  0  0  0  0  0  0  0  0
    4.8893    0.5262    1.3765 H   0  0  0  0  0  0  0  0  0  0  0  0
    2.9385   -0.7734    1.8287 H   0  0  0  0  0  0  0  0  0  0  0  0
    2.7274   -1.7688   -0.5764 H   0  0  0  0  0  0  0  0  0  0  0  0
    3.5900   -0.2766   -1.2453 H   0  0  0  0  0  0  0  0  0  0  0  0
    1.7873    1.2055   -0.3832 H   0  0  0  0  0  0  0  0  0  0  0  0
   -0.6635    0.9792   -0.6297 H   0  0  0  0  0  0  0  0  0  0  0  0
   -1.9167   -1.5713    0.4696 H   0  0  0  0  0  0  0  0  0  0  0  0
   -3.8042   -0.0855    0.9777 H   0  0  0  0  0  0  0  0  0  0  0  0
   -2.3291    0.8309    1.5952 H   0  0  0  0  0  0  0  0  0  0  0  0
   -3.8409    1.9852   -0.2166 H   0  0  0  0  0  0  0  0  0  0  0  0
   -2.3185   -1.1556   -2.1156 H   0  0  0  0  0  0  0  0  0  0  0  0
   -3.7467   -1.0715   -1.0483 H   0  0  0  0  0  0  0  0  0  0  0  0
  1  2  1  0
  2  3  1  0
  3  4  1  0
  4  5  1  0
  5  6  2  0
  5  7  1  0
  7  8  1  0
  8  9  1  0
  9 10  1  0
 10 11  1  0
 11 12  1  0
  4  2  1  0
 12  8  1  0
  1 13  1  0
  1 14  1  0
  2 15  1  1
  3 16  1  0
  3 17  1  0
  4 18  1  6
  7 19  1  0
  8 20  1  1
  9 21  1  0
  9 22  1  0
 10 23  1  0
 12 24  1  0
 12 25  1  0
M  END
$$$$

     RDKit          3D

 25 26  0  0  0  0  0  0  0  0999 V2000
    3.9594    1.3879    0.0007 N   0  0  0  0  0  0  0  0  0  0  0  0
    2.9805    0.5076    0.6116 C   0  0  2  0  0  0  0  0  0  0  0  0
    2.9218   -0.8972   -0.0171 C   0  0  0  0  0  0  0  0  0  0  0  0
    1.8136    0.1137   -0.2079 C   0  0  1  0  0  0  0  0  0  0  0  0
    0.5370   -0.2852    0.4654 C   0  0  0  0  0  0  0  0  0  0  0  0
    0.5724   -0.8610    1.5834 O   0  0  0  0  0  0  0  0  0  0  0  0
   -0.7146   -0.0374   -0.1122 N   0  0  0  0  0  0  0  0  0  0  0  0
   -1.9854   -0.4004    0.4919 C   0  0  1  0  0  0  0  0  0  0  0  0
   -2.8716    0.8402    0.6544 C   0  0  0  0  0  0  0  0  0  0  0  0
   -3.5219    0.8733   -0.6447 N   0  0  0  0  0  0  0  0  0  0  0  0
   -3.9022   -0.4172   -0.7992 O   0  0  0  0  0  0  0  0  0  0  0  0
   -2.7712   -1.1904   -0.5295 C   0  0  0  0  0  0  0  0  0  0  0  0
    3.6108    1.6847   -0.9579 H   0  0  0  0  0  0  0  0  0  0  0  0
    4.8418    0.8442   -0.2076 H   0  0  0  0  0  0  0  0  0  0  0  0
    2.8743    0.5703    1.7166 H   0  0  0  0  0  0  0  0  0  0  0  0
    2.7838   -1.7146    0.7159 H   0  0  0  0  0  0  0  0  0  0  0  0
    3.6123   -1.1039   -0.8499 H   0  0  0  0  0  0  0  0  0  0  0  0
    1.7129    0.6119   -1.1809 H   0  0  0  0  0  0  0  0  0  0  0  0
   -0.7416    0.4403   -1.0396 H   0  0  0  0  0  0  0  0  0  0  0  0
   -1.8798   -0.8933    1.4544 H   0  0  0  0  0  0  0  0  0  0  0  0
   -3.5722    0.6177    1.4797 H   0  0  0  0  0  0  0  0  0  0  0  0
   -2.2504    1.7335    0.8380 H   0  0  0  0  0  0  0  0  0  0  0  0
   -2.7842    1.1272   -1.3358 H   0  0  0  0  0  0  0  0  0  0  0  0
   -2.1834   -1.3471   -1.4758 H   0  0  0  0  0  0  0  0  0  0  0  0
   -3.0421   -2.2048   -0.1731 H   0  0  0  0  0  0  0  0  0  0  0  0
  1  2  1  0
  2  3  1  0
  3  4  1  0
  4  5  1  0
  5  6  2  0
  5  7  1  0
  7  8  1  0
  8  9  1  0
  9 10  1  0
 10 11  1  0
 11 12  1  0
  4  2  1  0
 12  8  1  0
  1 13  1  0
  1 14  1  0
  2 15  1  1
  3 16  1  0
  3 17  1  0
  4 18  1  6
  7 19  1  0
  8 20  1  1
  9 21  1  0
  9 22  1  0
 10 23  1  0
 12 24  1  0
 12 25  1  0
M  END
$$$$

     RDKit          3D

 25 26  0  0  0  0  0  0  0  0999 V2000
    3.8946   -0.0578    0.4375 N   0  0  0  0  0  0  0  0  0  0  0  0
    2.4912   -0.2303    0.1783 C   0  0  2  0  0  0  0  0  0  0  0  0
    2.1635   -1.0205   -1.0697 C   0  0  0  0  0  0  0  0  0  0  0  0
    1.8831    0.4329   -1.0514 C   0  0  1  0  0  0  0  0  0  0  0  0
    0.5155    0.9516   -0.8852 C   0  0  0  0  0  0  0  0  0  0  0  0
    0.2259    2.0815   -1.3520 O   0  0  0  0  0  0  0  0  0  0  0  0
   -0.5205    0.2467   -0.2192 N   0  0  0  0  0  0  0  0  0  0  0  0
   -1.8578    0.7410   -0.0503 C   0  0  1  0  0  0  0  0  0  0  0  0
   -2.8102   -0.3093   -0.6002 C   0  0  0  0  0  0  0  0  0  0  0  0
   -2.9586   -1.2026    0.5017 N   0  0  0  0  0  0  0  0  0  0  0  0
   -2.4190   -0.6833    1.5873 O   0  0  0  0  0  0  0  0  0  0  0  0
   -2.2245    0.6631    1.4215 C   0  0  0  0  0  0  0  0  0  0  0  0
    4.4733   -0.6332   -0.2071 H   0  0  0  0  0  0  0  0  0  0  0  0
    4.1827    0.9432    0.4720 H   0  0  0  0  0  0  0  0  0  0  0  0
    1.8208   -0.3582    1.0693 H   0  0  0  0  0  0  0  0  0  0  0  0
    1.3731   -1.7804   -0.9514 H   0  0  0  0  0  0  0  0  0  0  0  0
    3.0026   -1.3758   -1.7095 H   0  0  0  0  0  0  0  0  0  0  0  0
    2.5860    1.0741   -1.5834 H   0  0  0  0  0  0  0  0  0  0  0  0
   -0.2897   -0.6854    0.1684 H   0  0  0  0  0  0  0  0  0  0  0  0
   -2.0283    1.7299   -0.4842 H   0  0  0  0  0  0  0  0  0  0  0  0
   -3.8140    0.1793   -0.7682 H   0  0  0  0  0  0  0  0  0  0  0  0
   -2.4369   -0.7724   -1.5207 H   0  0  0  0  0  0  0  0  0  0  0  0
   -2.7238   -2.1798    0.2978 H   0  0  0  0  0  0  0  0  0  0  0  0
   -3.1678    1.1830    1.6392 H   0  0  0  0  0  0  0  0  0  0  0  0
   -1.3612    1.0626    1.9863 H   0  0  0  0  0  0  0  0  0  0  0  0
  1  2  1  0
  2  3  1  0
  3  4  1  0
  4  5  1  0
  5  6  2  0
  5  7  1  0
  7  8  1  0
  8  9  1  0
  9 10  1  0
 10 11  1  0
 11 12  1  0
  4  2  1  0
 12  8  1  0
  1 13  1  0
  1 14  1  0
  2 15  1  1
  3 16  1  0
  3 17  1  0
  4 18  1  6
  7 19  1  0
  8 20  1  6
  9 21  1  0
  9 22  1  0
 10 23  1  0
 12 24  1  0
 12 25  1  0
M  END
$$$$

     RDKit          3D

 25 26  0  0  0  0  0  0  0  0999 V2000
    3.7490    0.8974    0.2067 N   0  0  0  0  0  0  0  0  0  0  0  0
    2.3775    0.3975    0.1391 C   0  0  2  0  0  0  0  0  0  0  0  0
    2.1935   -1.0229    0.4633 C   0  0  0  0  0  0  0  0  0  0  0  0
    1.9528   -0.4813   -0.9689 C   0  0  1  0  0  0  0  0  0  0  0  0
    0.5179   -0.4874   -1.3585 C   0  0  0  0  0  0  0  0  0  0  0  0
    0.1142   -0.7852   -2.5071 O   0  0  0  0  0  0  0  0  0  0  0  0
   -0.4236   -0.1335   -0.3577 N   0  0  0  0  0  0  0  0  0  0  0  0
   -1.8525   -0.0935   -0.5837 C   0  0  1  0  0  0  0  0  0  0  0  0
   -2.5237   -0.9916    0.4268 C   0  0  0  0  0  0  0  0  0  0  0  0
   -2.8490   -0.0586    1.4942 N   0  0  0  0  0  0  0  0  0  0  0  0
   -3.1980    1.1005    0.9006 O   0  0  0  0  0  0  0  0  0  0  0  0
   -2.3916    1.2654   -0.1991 C   0  0  0  0  0  0  0  0  0  0  0  0
    3.7983    1.8842   -0.1806 H   0  0  0  0  0  0  0  0  0  0  0  0
    3.9635    0.9523    1.2473 H   0  0  0  0  0  0  0  0  0  0  0  0
    1.6412    1.1726    0.4480 H   0  0  0  0  0  0  0  0  0  0  0  0
    3.1111   -1.6534    0.5689 H   0  0  0  0  0  0  0  0  0  0  0  0
    1.3362   -1.4298    1.0053 H   0  0  0  0  0  0  0  0  0  0  0  0
    2.7138   -0.7517   -1.7227 H   0  0  0  0  0  0  0  0  0  0  0  0
   -0.1101    0.1222    0.6203 H   0  0  0  0  0  0  0  0  0  0  0  0
   -2.1365   -0.3632   -1.6032 H   0  0  0  0  0  0  0  0  0  0  0  0
   -1.8377   -1.7684    0.8259 H   0  0  0  0  0  0  0  0  0  0  0  0
   -3.4542   -1.4490    0.0463 H   0  0  0  0  0  0  0  0  0  0  0  0
   -2.0396    0.0303    2.1257 H   0  0  0  0  0  0  0  0  0  0  0  0
   -1.6097    2.0004   -0.0090 H   0  0  0  0  0  0  0  0  0  0  0  0
   -3.0427    1.6466   -1.0282 H   0  0  0  0  0  0  0  0  0  0  0  0
  1  2  1  0
  2  3  1  0
  3  4  1  0
  4  5  1  0
  5  6  2  0
  5  7  1  0
  7  8  1  0
  8  9  1  0
  9 10  1  0
 10 11  1  0
 11 12  1  0
  4  2  1  0
 12  8  1  0
  1 13  1  0
  1 14  1  0
  2 15  1  1
  3 16  1  0
  3 17  1  0
  4 18  1  6
  7 19  1  0
  8 20  1  6
  9 21  1  0
  9 22  1  0
 10 23  1  0
 12 24  1  0
 12 25  1  0
M  END
$$$$

     RDKit          3D

 25 26  0  0  0  0  0  0  0  0999 V2000
    4.1328    0.7229    0.9542 N   0  0  0  0  0  0  0  0  0  0  0  0
    2.9586   -0.1458    1.0537 C   0  0  2  0  0  0  0  0  0  0  0  0
    2.9048   -1.3085    0.0526 C   0  0  0  0  0  0  0  0  0  0  0  0
    1.9693   -0.0884   -0.0976 C   0  0  1  0  0  0  0  0  0  0  0  0
    0.5518   -0.3483    0.1993 C   0  0  0  0  0  0  0  0  0  0  0  0
    0.2821   -1.1518    1.1276 O   0  0  0  0  0  0  0  0  0  0  0  0
   -0.5393    0.2372   -0.4803 N   0  0  0  0  0  0  0  0  0  0  0  0
   -1.8714   -0.0521   -0.1492 C   0  0  1  0  0  0  0  0  0  0  0  0
   -2.7383    1.1271    0.2099 C   0  0  0  0  0  0  0  0  0  0  0  0
   -4.0412    0.4896    0.1031 N   0  0  0  0  0  0  0  0  0  0  0  0
   -3.9867   -0.4395   -0.8310 O   0  0  0  0  0  0  0  0  0  0  0  0
   -2.7083   -0.6029   -1.2856 C   0  0  0  0  0  0  0  0  0  0  0  0
    4.9191    0.1233    0.6105 H   0  0  0  0  0  0  0  0  0  0  0  0
    3.9549    1.4063    0.1647 H   0  0  0  0  0  0  0  0  0  0  0  0
    2.5035   -0.3092    2.0447 H   0  0  0  0  0  0  0  0  0  0  0  0
    2.4616   -2.2352    0.4552 H   0  0  0  0  0  0  0  0  0  0  0  0
    3.7634   -1.3858   -0.6196 H   0  0  0  0  0  0  0  0  0  0  0  0
    2.2427    0.6117   -0.9067 H   0  0  0  0  0  0  0  0  0  0  0  0
   -0.3289    0.9043   -1.2511 H   0  0  0  0  0  0  0  0  0  0  0  0
   -1.9534   -0.7778    0.6909 H   0  0  0  0  0  0  0  0  0  0  0  0
   -2.7372    1.9096   -0.5815 H   0  0  0  0  0  0  0  0  0  0  0  0
   -2.5450    1.5225    1.2190 H   0  0  0  0  0  0  0  0  0  0  0  0
   -4.1963    0.0102    1.0359 H   0  0  0  0  0  0  0  0  0  0  0  0
   -2.5672    0.1254   -2.1382 H   0  0  0  0  0  0  0  0  0  0  0  0
   -2.4314   -1.6191   -1.5808 H   0  0  0  0  0  0  0  0  0  0  0  0
  1  2  1  0
  2  3  1  0
  3  4  1  0
  4  5  1  0
  5  6  2  0
  5  7  1  0
  7  8  1  0
  8  9  1  0
  9 10  1  0
 10 11  1  0
 11 12  1  0
  4  2  1  0
 12  8  1  0
  1 13  1  0
  1 14  1  0
  2 15  1  1
  3 16  1  0
  3 17  1  0
  4 18  1  6
  7 19  1  0
  8 20  1  1
  9 21  1  0
  9 22  1  0
 10 23  1  0
 12 24  1  0
 12 25  1  0
M  END
$$$$

     RDKit          3D

 25 26  0  0  0  0  0  0  0  0999 V2000
    3.9496   -0.6772   -0.8647 N   0  0  0  0  0  0  0  0  0  0  0  0
    2.9906    0.3629   -0.5644 C   0  0  2  0  0  0  0  0  0  0  0  0
    2.9694    1.0089    0.7677 C   0  0  0  0  0  0  0  0  0  0  0  0
    1.9294    0.0052    0.4715 C   0  0  1  0  0  0  0  0  0  0  0  0
    0.5585    0.4240    0.0567 C   0  0  0  0  0  0  0  0  0  0  0  0
    0.4150    1.5413   -0.5043 O   0  0  0  0  0  0  0  0  0  0  0  0
   -0.5885   -0.3690    0.2610 N   0  0  0  0  0  0  0  0  0  0  0  0
   -1.8754    0.1116   -0.1706 C   0  0  1  0  0  0  0  0  0  0  0  0
   -2.5164   -0.8380   -1.1940 C   0  0  0  0  0  0  0  0  0  0  0  0
   -3.9154   -0.4135   -1.0067 N   0  0  0  0  0  0  0  0  0  0  0  0
   -4.0751   -0.4380    0.3315 O   0  0  0  0  0  0  0  0  0  0  0  0
   -2.9208    0.0967    0.8945 C   0  0  0  0  0  0  0  0  0  0  0  0
    3.6393   -1.6096   -0.4893 H   0  0  0  0  0  0  0  0  0  0  0  0
    4.8682   -0.3847   -0.4835 H   0  0  0  0  0  0  0  0  0  0  0  0
    2.7153    0.9851   -1.4200 H   0  0  0  0  0  0  0  0  0  0  0  0
    2.6930    2.0704    0.8201 H   0  0  0  0  0  0  0  0  0  0  0  0
    3.7848    0.6850    1.4566 H   0  0  0  0  0  0  0  0  0  0  0  0
    2.0106   -0.9880    0.9630 H   0  0  0  0  0  0  0  0  0  0  0  0
   -0.4759   -1.2877    0.7214 H   0  0  0  0  0  0  0  0  0  0  0  0
   -1.8458    1.0956   -0.6405 H   0  0  0  0  0  0  0  0  0  0  0  0
   -2.4720   -1.8771   -0.8519 H   0  0  0  0  0  0  0  0  0  0  0  0
   -2.1599   -0.6546   -2.2074 H   0  0  0  0  0  0  0  0  0  0  0  0
   -3.9996    0.5906   -1.3035 H   0  0  0  0  0  0  0  0  0  0  0  0
   -3.0880    1.1049    1.3279 H   0  0  0  0  0  0  0  0  0  0  0  0
   -2.5911   -0.5450    1.7401 H   0  0  0  0  0  0  0  0  0  0  0  0
  1  2  1  0
  2  3  1  0
  3  4  1  0
  4  5  1  0
  5  6  2  0
  5  7  1  0
  7  8  1  0
  8  9  1  0
  9 10  1  0
 10 11  1  0
 11 12  1  0
  4  2  1  0
 12  8  1  0
  1 13  1  0
  1 14  1  0
  2 15  1  6
  3 16  1  0
  3 17  1  0
  4 18  1  1
  7 19  1  0
  8 20  1  6
  9 21  1  0
  9 22  1  0
 10 23  1  0
 12 24  1  0
 12 25  1  0
M  END
$$$$

     RDKit          3D

 25 26  0  0  0  0  0  0  0  0999 V2000
   -3.8728    0.6084   -1.0449 N   0  0  0  0  0  0  0  0  0  0  0  0
   -2.5618    0.0390   -0.8049 C   0  0  2  0  0  0  0  0  0  0  0  0
   -2.4227   -1.2915   -0.1653 C   0  0  0  0  0  0  0  0  0  0  0  0
   -2.1254   -0.0990    0.6648 C   0  0  1  0  0  0  0  0  0  0  0  0
   -0.7290    0.2707    0.9841 C   0  0  0  0  0  0  0  0  0  0  0  0
   -0.4834    0.8898    2.0607 O   0  0  0  0  0  0  0  0  0  0  0  0
    0.3658   -0.0270    0.1526 N   0  0  0  0  0  0  0  0  0  0  0  0
    1.7101    0.3291    0.4605 C   0  0  1  0  0  0  0  0  0  0  0  0
    2.6582   -0.8758    0.4108 C   0  0  0  0  0  0  0  0  0  0  0  0
    3.8831   -0.3233   -0.1123 N   0  0  0  0  0  0  0  0  0  0  0  0
    3.7063    0.9796   -0.3138 O   0  0  0  0  0  0  0  0  0  0  0  0
    2.3610    1.1891   -0.6205 C   0  0  0  0  0  0  0  0  0  0  0  0
   -4.5639    0.2381   -0.3763 H   0  0  0  0  0  0  0  0  0  0  0  0
   -3.8400    1.6526   -1.0307 H   0  0  0  0  0  0  0  0  0  0  0  0
   -1.7768    0.3292   -1.5268 H   0  0  0  0  0  0  0  0  0  0  0  0
   -1.6196   -1.9593   -0.5340 H   0  0  0  0  0  0  0  0  0  0  0  0
   -3.3731   -1.8454    0.0224 H   0  0  0  0  0  0  0  0  0  0  0  0
   -2.8931    0.1857    1.3878 H   0  0  0  0  0  0  0  0  0  0  0  0
    0.1784   -0.5364   -0.7369 H   0  0  0  0  0  0  0  0  0  0  0  0
    1.8368    0.8598    1.4053 H   0  0  0  0  0  0  0  0  0  0  0  0
    2.2714   -1.5992   -0.3649 H   0  0  0  0  0  0  0  0  0  0  0  0
    2.7871   -1.3326    1.3909 H   0  0  0  0  0  0  0  0  0  0  0  0
    4.1856   -0.7575   -1.0128 H   0  0  0  0  0  0  0  0  0  0  0  0
    2.1354    2.2605   -0.4733 H   0  0  0  0  0  0  0  0  0  0  0  0
    2.1824    0.8157   -1.6274 H   0  0  0  0  0  0  0  0  0  0  0  0
  1  2  1  0
  2  3  1  0
  3  4  1  0
  4  5  1  0
  5  6  2  0
  5  7  1  0
  7  8  1  0
  8  9  1  0
  9 10  1  0
 10 11  1  0
 11 12  1  0
  4  2  1  0
 12  8  1  0
  1 13  1  0
  1 14  1  0
  2 15  1  6
  3 16  1  0
  3 17  1  0
  4 18  1  1
  7 19  1  0
  8 20  1  1
  9 21  1  0
  9 22  1  0
 10 23  1  0
 12 24  1  0
 12 25  1  0
M  END
$$$$
