
     RDKit          3D

 24 24  0  0  0  0  0  0  0  0999 V2000
    1.7941   -2.1610    0.1096 O   0  0  0  0  0  0  0  0  0  0  0  0
    1.6615   -0.8984   -0.0464 C   0  0  0  0  0  0  0  0  0  0  0  0
    2.8965   -0.1095    0.1383 C   0  0  0  0  0  0  0  0  0  0  0  0
    2.7288    1.2371   -0.0338 O   0  0  0  0  0  0  0  0  0  0  0  0
    0.4062   -0.3716   -0.3684 N   0  0  0  0  0  0  0  0  0  0  0  0
   -0.7450   -1.2319   -0.5279 C   0  0  0  0  0  0  0  0  0  0  0  0
   -1.9297   -0.7582    0.2866 C   0  0  1  0  0  0  0  0  0  0  0  0
   -1.8576   -1.2428    1.5877 O   0  0  0  0  0  0  0  0  0  0  0  0
   -2.0450    0.7468    0.2923 C   0  0  0  0  0  0  0  0  0  0  0  0
   -1.2448    1.2637   -0.8847 C   0  0  1  0  0  0  0  0  0  0  0  0
   -1.5507    2.5939   -1.0456 F   0  0  0  0  0  0  0  0  0  0  0  0
    0.2214    1.0501   -0.5517 C   0  0  0  0  0  0  0  0  0  0  0  0
    3.6476   -0.5145   -0.5738 H   0  0  0  0  0  0  0  0  0  0  0  0
    3.2832   -0.3250    1.1576 H   0  0  0  0  0  0  0  0  0  0  0  0
    3.5172    1.5791   -0.5532 H   0  0  0  0  0  0  0  0  0  0  0  0
   -1.0386   -1.3727   -1.5741 H   0  0  0  0  0  0  0  0  0  0  0  0
   -0.5052   -2.2643   -0.1386 H   0  0  0  0  0  0  0  0  0  0  0  0
   -2.8376   -1.1810   -0.1928 H   0  0  0  0  0  0  0  0  0  0  0  0
   -1.3793   -2.0940    1.5669 H   0  0  0  0  0  0  0  0  0  0  0  0
   -3.1115    1.0830    0.2317 H   0  0  0  0  0  0  0  0  0  0  0  0
   -1.6028    1.1881    1.2196 H   0  0  0  0  0  0  0  0  0  0  0  0
   -1.5479    0.7299   -1.7870 H   0  0  0  0  0  0  0  0  0  0  0  0
    0.4082    1.5937    0.3983 H   0  0  0  0  0  0  0  0  0  0  0  0
    0.8311    1.4595   -1.3804 H   0  0  0  0  0  0  0  0  0  0  0  0
  1  2  2  0
  2  3  1  0
  3  4  1  0
  2  5  1  0
  5  6  1  0
  6  7  1  0
  7  8  1  0
  7  9  1  0
  9 10  1  0
 10 11  1  0
 10 12  1  0
 12  5  1  0
  3 13  1  0
  3 14  1  0
  4 15  1  0
  6 16  1  0
  6 17  1  0
  7 18  1  6
  8 19  1  0
  9 20  1  0
  9 21  1  0
 10 22  1  6
 12 23  1  0
 12 24  1  0
M  END
$$$$

     RDKit          3D

 24 24  0  0  0  0  0  0  0  0999 V2000
    2.2043    1.5311    1.0803 O   0  0  0  0  0  0  0  0  0  0  0  0
    1.8297    0.4836    0.4662 C   0  0  0  0  0  0  0  0  0  0  0  0
    2.8583   -0.5281    0.1481 C   0  0  0  0  0  0  0  0  0  0  0  0
    4.0800   -0.0978    0.6114 O   0  0  0  0  0  0  0  0  0  0  0  0
    0.4765    0.3443    0.1268 N   0  0  0  0  0  0  0  0  0  0  0  0
   -0.0078   -0.8237   -0.5711 C   0  0  0  0  0  0  0  0  0  0  0  0
   -1.4103   -1.1577   -0.1363 C   0  0  1  0  0  0  0  0  0  0  0  0
   -1.3224   -1.6717    1.1643 O   0  0  0  0  0  0  0  0  0  0  0  0
   -2.3562   -0.0035   -0.1967 C   0  0  0  0  0  0  0  0  0  0  0  0
   -1.6120    1.2708   -0.5351 C   0  0  1  0  0  0  0  0  0  0  0  0
   -2.4259    2.3707   -0.4871 F   0  0  0  0  0  0  0  0  0  0  0  0
   -0.4675    1.3763    0.4720 C   0  0  0  0  0  0  0  0  0  0  0  0
    2.9462   -0.7209   -0.9402 H   0  0  0  0  0  0  0  0  0  0  0  0
    2.5504   -1.4886    0.6300 H   0  0  0  0  0  0  0  0  0  0  0  0
    4.0831    0.8947    0.6027 H   0  0  0  0  0  0  0  0  0  0  0  0
    0.6142   -1.7226   -0.3720 H   0  0  0  0  0  0  0  0  0  0  0  0
    0.0039   -0.6816   -1.6834 H   0  0  0  0  0  0  0  0  0  0  0  0
   -1.7747   -1.9825   -0.8082 H   0  0  0  0  0  0  0  0  0  0  0  0
   -2.2122   -2.0059    1.4418 H   0  0  0  0  0  0  0  0  0  0  0  0
   -3.2071   -0.1682   -0.8868 H   0  0  0  0  0  0  0  0  0  0  0  0
   -2.7986    0.1482    0.8086 H   0  0  0  0  0  0  0  0  0  0  0  0
   -1.1152    1.1660   -1.5408 H   0  0  0  0  0  0  0  0  0  0  0  0
   -0.0483    2.3785    0.5269 H   0  0  0  0  0  0  0  0  0  0  0  0
   -0.8885    1.0884    1.4780 H   0  0  0  0  0  0  0  0  0  0  0  0
  1  2  2  0
  2  3  1  0
  3  4  1  0
  2  5  1  0
  5  6  1  0
  6  7  1  0
  7  8  1  0
  7  9  1  0
  9 10  1  0
 10 11  1  0
 10 12  1  0
 12  5  1  0
  3 13  1  0
  3 14  1  0
  4 15  1  0
  6 16  1  0
  6 17  1  0
  7 18  1  6
  8 19  1  0
  9 20  1  0
  9 21  1  0
 10 22  1  6
 12 23  1  0
 12 24  1  0
M  END
$$$$

     RDKit          3D

 24 24  0  0  0  0  0  0  0  0999 V2000
    2.4744   -1.5619   -0.2218 O   0  0  0  0  0  0  0  0  0  0  0  0
    1.9237   -0.4385   -0.1027 C   0  0  0  0  0  0  0  0  0  0  0  0
    2.7791    0.7818   -0.0325 C   0  0  0  0  0  0  0  0  0  0  0  0
    4.1092    0.4372   -0.1162 O   0  0  0  0  0  0  0  0  0  0  0  0
    0.5237   -0.3514   -0.0382 N   0  0  0  0  0  0  0  0  0  0  0  0
   -0.1850    0.9151    0.0997 C   0  0  0  0  0  0  0  0  0  0  0  0
   -1.4139    0.6672    0.9288 C   0  0  1  0  0  0  0  0  0  0  0  0
   -1.9971    1.9240    1.1932 O   0  0  0  0  0  0  0  0  0  0  0  0
   -2.3661   -0.1957    0.1507 C   0  0  0  0  0  0  0  0  0  0  0  0
   -1.6628   -1.2464   -0.6778 C   0  0  1  0  0  0  0  0  0  0  0  0
   -1.6048   -0.8912   -1.9968 F   0  0  0  0  0  0  0  0  0  0  0  0
   -0.2732   -1.5432   -0.1083 C   0  0  0  0  0  0  0  0  0  0  0  0
    2.5885    1.3188    0.9106 H   0  0  0  0  0  0  0  0  0  0  0  0
    2.5536    1.4749   -0.8777 H   0  0  0  0  0  0  0  0  0  0  0  0
    4.2886   -0.0986   -0.9310 H   0  0  0  0  0  0  0  0  0  0  0  0
   -0.5217    1.2002   -0.9188 H   0  0  0  0  0  0  0  0  0  0  0  0
    0.4713    1.6911    0.5132 H   0  0  0  0  0  0  0  0  0  0  0  0
   -1.1847    0.2302    1.9119 H   0  0  0  0  0  0  0  0  0  0  0  0
   -1.9840    2.4153    0.3372 H   0  0  0  0  0  0  0  0  0  0  0  0
   -3.0015    0.4041   -0.5067 H   0  0  0  0  0  0  0  0  0  0  0  0
   -3.0442   -0.6899    0.9029 H   0  0  0  0  0  0  0  0  0  0  0  0
   -2.2208   -2.2052   -0.6055 H   0  0  0  0  0  0  0  0  0  0  0  0
    0.1934   -2.3054   -0.7372 H   0  0  0  0  0  0  0  0  0  0  0  0
   -0.4454   -1.9327    0.9227 H   0  0  0  0  0  0  0  0  0  0  0  0
  1  2  2  0
  2  3  1  0
  3  4  1  0
  2  5  1  0
  5  6  1  0
  6  7  1  0
  7  8  1  0
  7  9  1  0
  9 10  1  0
 10 11  1  0
 10 12  1  0
 12  5  1  0
  3 13  1  0
  3 14  1  0
  4 15  1  0
  6 16  1  0
  6 17  1  0
  7 18  1  1
  8 19  1  0
  9 20  1  0
  9 21  1  0
 10 22  1  6
 12 23  1  0
 12 24  1  0
M  END
$$$$

     RDKit          3D

 24 24  0  0  0  0  0  0  0  0999 V2000
    2.2008   -1.8055   -0.2258 O   0  0  0  0  0  0  0  0  0  0  0  0
    1.7956   -0.6161   -0.2907 C   0  0  0  0  0  0  0  0  0  0  0  0
    2.7917    0.4526   -0.1643 C   0  0  0  0  0  0  0  0  0  0  0  0
    4.0725   -0.0577    0.0139 O   0  0  0  0  0  0  0  0  0  0  0  0
    0.4086   -0.3775   -0.4810 N   0  0  0  0  0  0  0  0  0  0  0  0
   -0.1389    0.9571   -0.5665 C   0  0  0  0  0  0  0  0  0  0  0  0
   -1.1934    1.0715    0.5166 C   0  0  1  0  0  0  0  0  0  0  0  0
   -1.6575    2.3543    0.6755 O   0  0  0  0  0  0  0  0  0  0  0  0
   -2.2868    0.0891    0.1341 C   0  0  0  0  0  0  0  0  0  0  0  0
   -1.6946   -1.3056    0.3500 C   0  0  1  0  0  0  0  0  0  0  0  0
   -2.6366   -2.2441    0.0425 F   0  0  0  0  0  0  0  0  0  0  0  0
   -0.5258   -1.4760   -0.5988 C   0  0  0  0  0  0  0  0  0  0  0  0
    2.6006    1.1368    0.6845 H   0  0  0  0  0  0  0  0  0  0  0  0
    2.7903    1.0260   -1.1233 H   0  0  0  0  0  0  0  0  0  0  0  0
    4.2358   -0.2135    0.9959 H   0  0  0  0  0  0  0  0  0  0  0  0
    0.6063    1.7487   -0.5310 H   0  0  0  0  0  0  0  0  0  0  0  0
   -0.6869    1.0109   -1.5364 H   0  0  0  0  0  0  0  0  0  0  0  0
   -0.7075    0.6616    1.4494 H   0  0  0  0  0  0  0  0  0  0  0  0
   -2.0271    2.4187    1.6039 H   0  0  0  0  0  0  0  0  0  0  0  0
   -3.2028    0.2315    0.7202 H   0  0  0  0  0  0  0  0  0  0  0  0
   -2.4582    0.2121   -0.9707 H   0  0  0  0  0  0  0  0  0  0  0  0
   -1.3174   -1.3600    1.3725 H   0  0  0  0  0  0  0  0  0  0  0  0
   -0.8883   -1.4562   -1.6664 H   0  0  0  0  0  0  0  0  0  0  0  0
   -0.0806   -2.4586   -0.4042 H   0  0  0  0  0  0  0  0  0  0  0  0
  1  2  2  0
  2  3  1  0
  3  4  1  0
  2  5  1  0
  5  6  1  0
  6  7  1  0
  7  8  1  0
  7  9  1  0
  9 10  1  0
 10 11  1  0
 10 12  1  0
 12  5  1  0
  3 13  1  0
  3 14  1  0
  4 15  1  0
  6 16  1  0
  6 17  1  0
  7 18  1  1
  8 19  1  0
  9 20  1  0
  9 21  1  0
 10 22  1  1
 12 23  1  0
 12 24  1  0
M  END
$$$$

     RDKit          3D

 24 24  0  0  0  0  0  0  0  0999 V2000
    2.2654   -1.7561   -0.5882 O   0  0  0  0  0  0  0  0  0  0  0  0
    1.9090   -0.6082   -0.1238 C   0  0  0  0  0  0  0  0  0  0  0  0
    2.9102    0.2415    0.5239 C   0  0  0  0  0  0  0  0  0  0  0  0
    2.4097    1.4355    0.9565 O   0  0  0  0  0  0  0  0  0  0  0  0
    0.5565   -0.2763   -0.2898 N   0  0  0  0  0  0  0  0  0  0  0  0
    0.0364    0.9704    0.1905 C   0  0  0  0  0  0  0  0  0  0  0  0
   -1.4541    1.0011    0.0021 C   0  0  1  0  0  0  0  0  0  0  0  0
   -1.7948    1.0942   -1.3411 O   0  0  0  0  0  0  0  0  0  0  0  0
   -2.0231   -0.2556    0.6526 C   0  0  0  0  0  0  0  0  0  0  0  0
   -1.5692   -1.4887   -0.1075 C   0  0  1  0  0  0  0  0  0  0  0  0
   -2.5812   -1.9131   -0.9498 F   0  0  0  0  0  0  0  0  0  0  0  0
   -0.3663   -1.1866   -0.9624 C   0  0  0  0  0  0  0  0  0  0  0  0
    3.3220   -0.3111    1.4012 H   0  0  0  0  0  0  0  0  0  0  0  0
    3.7646    0.3546   -0.1834 H   0  0  0  0  0  0  0  0  0  0  0  0
    2.9980    2.1878    0.7047 H   0  0  0  0  0  0  0  0  0  0  0  0
    0.5343    1.8472   -0.2810 H   0  0  0  0  0  0  0  0  0  0  0  0
    0.1959    1.0736    1.2993 H   0  0  0  0  0  0  0  0  0  0  0  0
   -1.9044    1.9106    0.4780 H   0  0  0  0  0  0  0  0  0  0  0  0
   -2.6922    1.4850   -1.4203 H   0  0  0  0  0  0  0  0  0  0  0  0
   -3.1137   -0.2007    0.7718 H   0  0  0  0  0  0  0  0  0  0  0  0
   -1.5662   -0.3138    1.6549 H   0  0  0  0  0  0  0  0  0  0  0  0
   -1.3512   -2.3378    0.5965 H   0  0  0  0  0  0  0  0  0  0  0  0
   -0.6718   -0.7956   -1.9328 H   0  0  0  0  0  0  0  0  0  0  0  0
    0.1862   -2.1578   -1.0517 H   0  0  0  0  0  0  0  0  0  0  0  0
  1  2  2  0
  2  3  1  0
  3  4  1  0
  2  5  1  0
  5  6  1  0
  6  7  1  0
  7  8  1  0
  7  9  1  0
  9 10  1  0
 10 11  1  0
 10 12  1  0
 12  5  1  0
  3 13  1  0
  3 14  1  0
  4 15  1  0
  6 16  1  0
  6 17  1  0
  7 18  1  1
  8 19  1  0
  9 20  1  0
  9 21  1  0
 10 22  1  1
 12 23  1  0
 12 24  1  0
M  END
$$$$

     RDKit          3D

 24 24  0  0  0  0  0  0  0  0999 V2000
    2.3539   -1.4735   -0.6347 O   0  0  0  0  0  0  0  0  0  0  0  0
    1.8365   -0.4081   -0.1886 C   0  0  0  0  0  0  0  0  0  0  0  0
    2.7345    0.6944    0.1845 C   0  0  0  0  0  0  0  0  0  0  0  0
    4.0604    0.3661   -0.0249 O   0  0  0  0  0  0  0  0  0  0  0  0
    0.4249   -0.3137   -0.0648 N   0  0  0  0  0  0  0  0  0  0  0  0
   -0.1890    0.8905    0.4413 C   0  0  0  0  0  0  0  0  0  0  0  0
   -1.5969    1.0782   -0.0342 C   0  0  1  0  0  0  0  0  0  0  0  0
   -1.5512    1.5967   -1.3351 O   0  0  0  0  0  0  0  0  0  0  0  0
   -2.4403   -0.1492    0.0307 C   0  0  0  0  0  0  0  0  0  0  0  0
   -1.6456   -1.3563    0.4749 C   0  0  1  0  0  0  0  0  0  0  0  0
   -2.3825   -2.5016    0.3911 F   0  0  0  0  0  0  0  0  0  0  0  0
   -0.4203   -1.4212   -0.4433 C   0  0  0  0  0  0  0  0  0  0  0  0
    2.5914    1.0223    1.2369 H   0  0  0  0  0  0  0  0  0  0  0  0
    2.4863    1.5771   -0.4528 H   0  0  0  0  0  0  0  0  0  0  0  0
    4.3720   -0.2312    0.7032 H   0  0  0  0  0  0  0  0  0  0  0  0
   -0.1117    0.9540    1.5381 H   0  0  0  0  0  0  0  0  0  0  0  0
    0.4163    1.7472    0.0341 H   0  0  0  0  0  0  0  0  0  0  0  0
   -2.0804    1.8605    0.5887 H   0  0  0  0  0  0  0  0  0  0  0  0
   -0.7148    1.3282   -1.7885 H   0  0  0  0  0  0  0  0  0  0  0  0
   -3.3154   -0.0548    0.7068 H   0  0  0  0  0  0  0  0  0  0  0  0
   -2.8274   -0.3657   -0.9988 H   0  0  0  0  0  0  0  0  0  0  0  0
   -1.2795   -1.2197    1.5167 H   0  0  0  0  0  0  0  0  0  0  0  0
   -0.7953   -1.2299   -1.4721 H   0  0  0  0  0  0  0  0  0  0  0  0
    0.0741   -2.3901   -0.4091 H   0  0  0  0  0  0  0  0  0  0  0  0
  1  2  2  0
  2  3  1  0
  3  4  1  0
  2  5  1  0
  5  6  1  0
  6  7  1  0
  7  8  1  0
  7  9  1  0
  9 10  1  0
 10 11  1  0
 10 12  1  0
 12  5  1  0
  3 13  1  0
  3 14  1  0
  4 15  1  0
  6 16  1  0
  6 17  1  0
  7 18  1  1
  8 19  1  0
  9 20  1  0
  9 21  1  0
 10 22  1  1
 12 23  1  0
 12 24  1  0
M  END
$$$$

     RDKit          3D

 24 24  0  0  0  0  0  0  0  0999 V2000
    1.9803   -1.6522   -1.4881 O   0  0  0  0  0  0  0  0  0  0  0  0
    1.6643   -0.6365   -0.7950 C   0  0  0  0  0  0  0  0  0  0  0  0
    2.7079    0.3871   -0.5513 C   0  0  0  0  0  0  0  0  0  0  0  0
    3.8748    0.0033   -1.1621 O   0  0  0  0  0  0  0  0  0  0  0  0
    0.3415   -0.5104   -0.2801 N   0  0  0  0  0  0  0  0  0  0  0  0
    0.0515    0.6655    0.4972 C   0  0  0  0  0  0  0  0  0  0  0  0
   -1.3837    0.9799    0.6570 C   0  0  1  0  0  0  0  0  0  0  0  0
   -1.6766    2.3315    0.3898 O   0  0  0  0  0  0  0  0  0  0  0  0
   -2.3083    0.0716   -0.1322 C   0  0  0  0  0  0  0  0  0  0  0  0
   -1.8483   -1.3497    0.2280 C   0  0  1  0  0  0  0  0  0  0  0  0
   -2.8200   -2.2688   -0.0580 F   0  0  0  0  0  0  0  0  0  0  0  0
   -0.5882   -1.5552   -0.5741 C   0  0  0  0  0  0  0  0  0  0  0  0
    2.8821    0.4461    0.5589 H   0  0  0  0  0  0  0  0  0  0  0  0
    2.3742    1.4073   -0.8658 H   0  0  0  0  0  0  0  0  0  0  0  0
    4.3685    0.8127   -1.4541 H   0  0  0  0  0  0  0  0  0  0  0  0
    0.5618    1.5513    0.0578 H   0  0  0  0  0  0  0  0  0  0  0  0
    0.5358    0.5208    1.4991 H   0  0  0  0  0  0  0  0  0  0  0  0
   -1.6838    0.8385    1.7368 H   0  0  0  0  0  0  0  0  0  0  0  0
   -0.9451    2.8594    0.8000 H   0  0  0  0  0  0  0  0  0  0  0  0
   -2.1013    0.2575   -1.2110 H   0  0  0  0  0  0  0  0  0  0  0  0
   -3.3450    0.2403    0.1549 H   0  0  0  0  0  0  0  0  0  0  0  0
   -1.5902   -1.3899    1.3112 H   0  0  0  0  0  0  0  0  0  0  0  0
   -0.8829   -1.4350   -1.6580 H   0  0  0  0  0  0  0  0  0  0  0  0
   -0.1693   -2.5748   -0.4475 H   0  0  0  0  0  0  0  0  0  0  0  0
  1  2  2  0
  2  3  1  0
  3  4  1  0
  2  5  1  0
  5  6  1  0
  6  7  1  0
  7  8  1  0
  7  9  1  0
  9 10  1  0
 10 11  1  0
 10 12  1  0
 12  5  1  0
  3 13  1  0
  3 14  1  0
  4 15  1  0
  6 16  1  0
  6 17  1  0
  7 18  1  1
  8 19  1  0
  9 20  1  0
  9 21  1  0
 10 22  1  1
 12 23  1  0
 12 24  1  0
M  END
$$$$

     RDKit          3D

 24 24  0  0  0  0  0  0  0  0999 V2000
    2.1908    1.6551   -0.0317 O   0  0  0  0  0  0  0  0  0  0  0  0
    1.8203    0.4523   -0.0835 C   0  0  0  0  0  0  0  0  0  0  0  0
    2.8351   -0.6181    0.0803 C   0  0  0  0  0  0  0  0  0  0  0  0
    4.0731   -0.0227    0.2704 O   0  0  0  0  0  0  0  0  0  0  0  0
    0.4543    0.1432   -0.2952 N   0  0  0  0  0  0  0  0  0  0  0  0
   -0.4875    1.2199   -0.4477 C   0  0  0  0  0  0  0  0  0  0  0  0
   -1.5943    1.0411    0.5611 C   0  0  1  0  0  0  0  0  0  0  0  0
   -2.6796    1.8702    0.2005 O   0  0  0  0  0  0  0  0  0  0  0  0
   -2.0593   -0.3724    0.6722 C   0  0  0  0  0  0  0  0  0  0  0  0
   -1.4806   -1.2953   -0.3584 C   0  0  1  0  0  0  0  0  0  0  0  0
   -2.0032   -1.1329   -1.6067 F   0  0  0  0  0  0  0  0  0  0  0  0
    0.0328   -1.2260   -0.3540 C   0  0  0  0  0  0  0  0  0  0  0  0
    2.8967   -1.2749   -0.8205 H   0  0  0  0  0  0  0  0  0  0  0  0
    2.6306   -1.2408    0.9958 H   0  0  0  0  0  0  0  0  0  0  0  0
    3.9906    0.8368    0.7430 H   0  0  0  0  0  0  0  0  0  0  0  0
   -0.8786    1.1808   -1.4902 H   0  0  0  0  0  0  0  0  0  0  0  0
   -0.0278    2.2082   -0.3061 H   0  0  0  0  0  0  0  0  0  0  0  0
   -1.2275    1.4237    1.5375 H   0  0  0  0  0  0  0  0  0  0  0  0
   -2.5818    2.1683   -0.7455 H   0  0  0  0  0  0  0  0  0  0  0  0
   -3.1698   -0.4117    0.5959 H   0  0  0  0  0  0  0  0  0  0  0  0
   -1.7820   -0.7868    1.6836 H   0  0  0  0  0  0  0  0  0  0  0  0
   -1.7361   -2.3410   -0.0341 H   0  0  0  0  0  0  0  0  0  0  0  0
    0.3855   -1.7814    0.5361 H   0  0  0  0  0  0  0  0  0  0  0  0
    0.3981   -1.6957   -1.3029 H   0  0  0  0  0  0  0  0  0  0  0  0
  1  2  2  0
  2  3  1  0
  3  4  1  0
  2  5  1  0
  5  6  1  0
  6  7  1  0
  7  8  1  0
  7  9  1  0
  9 10  1  0
 10 11  1  0
 10 12  1  0
 12  5  1  0
  3 13  1  0
  3 14  1  0
  4 15  1  0
  6 16  1  0
  6 17  1  0
  7 18  1  1
  8 19  1  0
  9 20  1  0
  9 21  1  0
 10 22  1  1
 12 23  1  0
 12 24  1  0
M  END
$$$$
