
     RDKit          3D

 23 23  0  0  0  0  0  0  0  0999 V2000
    2.6030    1.1481    1.1128 O   0  0  0  0  0  0  0  0  0  0  0  0
    2.6625    0.1027    0.2254 C   0  0  0  0  0  0  0  0  0  0  0  0
    1.4681   -0.7914    0.1750 C   0  0  0  0  0  0  0  0  0  0  0  0
    0.2388   -0.1215   -0.1862 N   0  0  0  0  0  0  0  0  0  0  0  0
   -0.7577   -1.1381   -0.5123 C   0  0  0  0  0  0  0  0  0  0  0  0
   -2.1055   -0.6135   -0.7476 C   0  0  0  0  0  0  0  0  0  0  0  0
   -2.4755    0.5873   -0.0932 N   0  0  0  0  0  0  0  0  0  0  0  0
   -1.4294    1.4391    0.3483 C   0  0  0  0  0  0  0  0  0  0  0  0
   -0.3492    0.5532    0.9753 C   0  0  0  0  0  0  0  0  0  0  0  0
    3.5169    1.5853    1.0746 H   0  0  0  0  0  0  0  0  0  0  0  0
    3.5398   -0.5395    0.5012 H   0  0  0  0  0  0  0  0  0  0  0  0
    2.9126    0.5244   -0.7852 H   0  0  0  0  0  0  0  0  0  0  0  0
    1.6505   -1.6079   -0.5370 H   0  0  0  0  0  0  0  0  0  0  0  0
    1.3804   -1.2719    1.1799 H   0  0  0  0  0  0  0  0  0  0  0  0
   -0.6911   -1.9636    0.2078 H   0  0  0  0  0  0  0  0  0  0  0  0
   -0.3642   -1.5676   -1.4843 H   0  0  0  0  0  0  0  0  0  0  0  0
   -2.2750   -0.4477   -1.8536 H   0  0  0  0  0  0  0  0  0  0  0  0
   -2.8403   -1.4006   -0.4747 H   0  0  0  0  0  0  0  0  0  0  0  0
   -3.3097    0.5309    0.5067 H   0  0  0  0  0  0  0  0  0  0  0  0
   -0.9510    1.9387   -0.5461 H   0  0  0  0  0  0  0  0  0  0  0  0
   -1.8181    2.1766    1.0573 H   0  0  0  0  0  0  0  0  0  0  0  0
    0.3403    1.0663    1.6153 H   0  0  0  0  0  0  0  0  0  0  0  0
   -0.9459   -0.1893    1.5766 H   0  0  0  0  0  0  0  0  0  0  0  0
  1  2  1  0
  2  3  1  0
  3  4  1  0
  4  5  1  0
  5  6  1  0
  6  7  1  0
  7  8  1  0
  8  9  1  0
  9  4  1  0
  1 10  1  0
  2 11  1  0
  2 12  1  0
  3 13  1  0
  3 14  1  0
  5 15  1  0
  5 16  1  0
  6 17  1  0
  6 18  1  0
  7 19  1  0
  8 20  1  0
  8 21  1  0
  9 22  1  0
  9 23  1  0
M  END
$$$$

     RDKit          3D

 23 23  0  0  0  0  0  0  0  0999 V2000
    3.6693   -0.6923   -0.5261 O   0  0  0  0  0  0  0  0  0  0  0  0
    2.4846   -0.7818    0.1780 C   0  0  0  0  0  0  0  0  0  0  0  0
    1.5178    0.3019   -0.2969 C   0  0  0  0  0  0  0  0  0  0  0  0
    0.2648    0.2248    0.4323 N   0  0  0  0  0  0  0  0  0  0  0  0
   -0.5890    1.2749   -0.0714 C   0  0  0  0  0  0  0  0  0  0  0  0
   -1.8941    1.3677    0.6524 C   0  0  0  0  0  0  0  0  0  0  0  0
   -2.3072    0.0493    1.0424 N   0  0  0  0  0  0  0  0  0  0  0  0
   -1.8486   -0.9871    0.1771 C   0  0  0  0  0  0  0  0  0  0  0  0
   -0.3281   -1.0826    0.3117 C   0  0  0  0  0  0  0  0  0  0  0  0
    4.0037    0.2363   -0.6096 H   0  0  0  0  0  0  0  0  0  0  0  0
    1.9948   -1.7571   -0.0638 H   0  0  0  0  0  0  0  0  0  0  0  0
    2.6021   -0.7568    1.2744 H   0  0  0  0  0  0  0  0  0  0  0  0
    1.9483    1.3114   -0.0904 H   0  0  0  0  0  0  0  0  0  0  0  0
    1.2632    0.1679   -1.3660 H   0  0  0  0  0  0  0  0  0  0  0  0
   -0.0456    2.2361    0.0934 H   0  0  0  0  0  0  0  0  0  0  0  0
   -0.6813    1.1462   -1.1615 H   0  0  0  0  0  0  0  0  0  0  0  0
   -2.6325    1.9201    0.0580 H   0  0  0  0  0  0  0  0  0  0  0  0
   -1.7004    1.9497    1.5974 H   0  0  0  0  0  0  0  0  0  0  0  0
   -3.3095   -0.0215    1.3076 H   0  0  0  0  0  0  0  0  0  0  0  0
   -2.3047   -1.9387    0.4901 H   0  0  0  0  0  0  0  0  0  0  0  0
   -2.0821   -0.8436   -0.8860 H   0  0  0  0  0  0  0  0  0  0  0  0
    0.0227   -1.6438   -0.5725 H   0  0  0  0  0  0  0  0  0  0  0  0
   -0.0483   -1.6808    1.2168 H   0  0  0  0  0  0  0  0  0  0  0  0
  1  2  1  0
  2  3  1  0
  3  4  1  0
  4  5  1  0
  5  6  1  0
  6  7  1  0
  7  8  1  0
  8  9  1  0
  9  4  1  0
  1 10  1  0
  2 11  1  0
  2 12  1  0
  3 13  1  0
  3 14  1  0
  5 15  1  0
  5 16  1  0
  6 17  1  0
  6 18  1  0
  7 19  1  0
  8 20  1  0
  8 21  1  0
  9 22  1  0
  9 23  1  0
M  END
$$$$

     RDKit          3D

 23 23  0  0  0  0  0  0  0  0999 V2000
    3.4835    0.1818   -0.3598 O   0  0  0  0  0  0  0  0  0  0  0  0
    2.1104   -0.0456   -0.4418 C   0  0  0  0  0  0  0  0  0  0  0  0
    1.4238    0.4440    0.8049 C   0  0  0  0  0  0  0  0  0  0  0  0
    0.0416    0.2756    0.8503 N   0  0  0  0  0  0  0  0  0  0  0  0
   -0.5120   -1.0045    0.9343 C   0  0  0  0  0  0  0  0  0  0  0  0
   -1.5660   -1.3487   -0.0688 C   0  0  0  0  0  0  0  0  0  0  0  0
   -1.9932   -0.3238   -0.9289 N   0  0  0  0  0  0  0  0  0  0  0  0
   -1.3415    0.9167   -0.9522 C   0  0  0  0  0  0  0  0  0  0  0  0
   -0.8162    1.3084    0.4206 C   0  0  0  0  0  0  0  0  0  0  0  0
    3.9264   -0.4578   -1.0046 H   0  0  0  0  0  0  0  0  0  0  0  0
    1.9872   -1.1362   -0.6020 H   0  0  0  0  0  0  0  0  0  0  0  0
    1.7621    0.4645   -1.3624 H   0  0  0  0  0  0  0  0  0  0  0  0
    1.9556   -0.0024    1.6735 H   0  0  0  0  0  0  0  0  0  0  0  0
    1.6499    1.5420    0.8697 H   0  0  0  0  0  0  0  0  0  0  0  0
    0.3227   -1.7667    0.8814 H   0  0  0  0  0  0  0  0  0  0  0  0
   -0.9383   -1.1481    1.9519 H   0  0  0  0  0  0  0  0  0  0  0  0
   -1.2079   -2.2121   -0.7033 H   0  0  0  0  0  0  0  0  0  0  0  0
   -2.4821   -1.7664    0.4397 H   0  0  0  0  0  0  0  0  0  0  0  0
   -3.0424   -0.2474   -1.0488 H   0  0  0  0  0  0  0  0  0  0  0  0
   -2.1045    1.7133   -1.2038 H   0  0  0  0  0  0  0  0  0  0  0  0
   -0.5468    1.0344   -1.6940 H   0  0  0  0  0  0  0  0  0  0  0  0
   -1.7315    1.2784    1.0847 H   0  0  0  0  0  0  0  0  0  0  0  0
   -0.3808    2.3006    0.4596 H   0  0  0  0  0  0  0  0  0  0  0  0
  1  2  1  0
  2  3  1  0
  3  4  1  0
  4  5  1  0
  5  6  1  0
  6  7  1  0
  7  8  1  0
  8  9  1  0
  9  4  1  0
  1 10  1  0
  2 11  1  0
  2 12  1  0
  3 13  1  0
  3 14  1  0
  5 15  1  0
  5 16  1  0
  6 17  1  0
  6 18  1  0
  7 19  1  0
  8 20  1  0
  8 21  1  0
  9 22  1  0
  9 23  1  0
M  END
$$$$

     RDKit          3D

 23 23  0  0  0  0  0  0  0  0999 V2000
    2.3876    0.6710    1.0285 O   0  0  0  0  0  0  0  0  0  0  0  0
    2.2534   -0.5316    0.3636 C   0  0  0  0  0  0  0  0  0  0  0  0
    1.4666   -0.4276   -0.9268 C   0  0  0  0  0  0  0  0  0  0  0  0
    0.1619    0.0223   -0.8079 N   0  0  0  0  0  0  0  0  0  0  0  0
   -0.1455    1.3305   -0.4437 C   0  0  0  0  0  0  0  0  0  0  0  0
   -1.2240    1.3032    0.6290 C   0  0  0  0  0  0  0  0  0  0  0  0
   -1.2593   -0.0124    1.2518 N   0  0  0  0  0  0  0  0  0  0  0  0
   -1.6932   -1.0024    0.2744 C   0  0  0  0  0  0  0  0  0  0  0  0
   -0.9117   -0.8756   -1.0229 C   0  0  0  0  0  0  0  0  0  0  0  0
    1.7871    0.6832    1.8155 H   0  0  0  0  0  0  0  0  0  0  0  0
    1.8546   -1.3399    1.0096 H   0  0  0  0  0  0  0  0  0  0  0  0
    3.3037   -0.8553    0.1041 H   0  0  0  0  0  0  0  0  0  0  0  0
    2.0505    0.2910   -1.5758 H   0  0  0  0  0  0  0  0  0  0  0  0
    1.5116   -1.3860   -1.4889 H   0  0  0  0  0  0  0  0  0  0  0  0
    0.7509    1.8678   -0.0904 H   0  0  0  0  0  0  0  0  0  0  0  0
   -0.5406    1.9553   -1.2888 H   0  0  0  0  0  0  0  0  0  0  0  0
   -2.2132    1.4278    0.1312 H   0  0  0  0  0  0  0  0  0  0  0  0
   -1.0024    2.0808    1.3589 H   0  0  0  0  0  0  0  0  0  0  0  0
   -1.9973    0.0211    1.9915 H   0  0  0  0  0  0  0  0  0  0  0  0
   -1.5684   -2.0111    0.7149 H   0  0  0  0  0  0  0  0  0  0  0  0
   -2.7840   -0.8416    0.1224 H   0  0  0  0  0  0  0  0  0  0  0  0
   -0.5477   -1.8494   -1.3400 H   0  0  0  0  0  0  0  0  0  0  0  0
   -1.6404   -0.5210   -1.8101 H   0  0  0  0  0  0  0  0  0  0  0  0
  1  2  1  0
  2  3  1  0
  3  4  1  0
  4  5  1  0
  5  6  1  0
  6  7  1  0
  7  8  1  0
  8  9  1  0
  9  4  1  0
  1 10  1  0
  2 11  1  0
  2 12  1  0
  3 13  1  0
  3 14  1  0
  5 15  1  0
  5 16  1  0
  6 17  1  0
  6 18  1  0
  7 19  1  0
  8 20  1  0
  8 21  1  0
  9 22  1  0
  9 23  1  0
M  END
$$$$

     RDKit          3D

 23 23  0  0  0  0  0  0  0  0999 V2000
    2.9495   -0.3632   -1.0991 O   0  0  0  0  0  0  0  0  0  0  0  0
    2.6279   -0.3531    0.2558 C   0  0  0  0  0  0  0  0  0  0  0  0
    1.4775    0.5332    0.5699 C   0  0  0  0  0  0  0  0  0  0  0  0
    0.2452    0.2022   -0.0868 N   0  0  0  0  0  0  0  0  0  0  0  0
   -0.3396   -1.0230    0.3490 C   0  0  0  0  0  0  0  0  0  0  0  0
   -1.7685   -1.2202    0.0796 C   0  0  0  0  0  0  0  0  0  0  0  0
   -2.5224   -0.1417   -0.4155 N   0  0  0  0  0  0  0  0  0  0  0  0
   -1.8840    1.0773   -0.6804 C   0  0  0  0  0  0  0  0  0  0  0  0
   -0.6147    1.3561    0.0332 C   0  0  0  0  0  0  0  0  0  0  0  0
    3.4670   -1.1748   -1.3556 H   0  0  0  0  0  0  0  0  0  0  0  0
    3.5186    0.0636    0.7903 H   0  0  0  0  0  0  0  0  0  0  0  0
    2.5241   -1.3902    0.6027 H   0  0  0  0  0  0  0  0  0  0  0  0
    1.7552    1.5706    0.2643 H   0  0  0  0  0  0  0  0  0  0  0  0
    1.2744    0.5909    1.6563 H   0  0  0  0  0  0  0  0  0  0  0  0
    0.2941   -1.8556   -0.0625 H   0  0  0  0  0  0  0  0  0  0  0  0
   -0.1769   -1.0821    1.4663 H   0  0  0  0  0  0  0  0  0  0  0  0
   -1.8673   -2.0698   -0.6648 H   0  0  0  0  0  0  0  0  0  0  0  0
   -2.3090   -1.6304    0.9870 H   0  0  0  0  0  0  0  0  0  0  0  0
   -3.4652   -0.0482    0.0048 H   0  0  0  0  0  0  0  0  0  0  0  0
   -2.6006    1.9131   -0.4260 H   0  0  0  0  0  0  0  0  0  0  0  0
   -1.7206    1.1742   -1.7945 H   0  0  0  0  0  0  0  0  0  0  0  0
   -0.1016    2.1992   -0.4920 H   0  0  0  0  0  0  0  0  0  0  0  0
   -0.7630    1.6720    1.0839 H   0  0  0  0  0  0  0  0  0  0  0  0
  1  2  1  0
  2  3  1  0
  3  4  1  0
  4  5  1  0
  5  6  1  0
  6  7  1  0
  7  8  1  0
  8  9  1  0
  9  4  1  0
  1 10  1  0
  2 11  1  0
  2 12  1  0
  3 13  1  0
  3 14  1  0
  5 15  1  0
  5 16  1  0
  6 17  1  0
  6 18  1  0
  7 19  1  0
  8 20  1  0
  8 21  1  0
  9 22  1  0
  9 23  1  0
M  END
$$$$

     RDKit          3D

 23 23  0  0  0  0  0  0  0  0999 V2000
    2.8627    0.6861    0.0588 O   0  0  0  0  0  0  0  0  0  0  0  0
    2.5673   -0.6711   -0.0078 C   0  0  0  0  0  0  0  0  0  0  0  0
    1.2012   -0.9904    0.4864 C   0  0  0  0  0  0  0  0  0  0  0  0
    0.1244   -0.3537   -0.2363 N   0  0  0  0  0  0  0  0  0  0  0  0
    0.0556    1.0398   -0.0855 C   0  0  0  0  0  0  0  0  0  0  0  0
   -1.2791    1.6698    0.0221 C   0  0  0  0  0  0  0  0  0  0  0  0
   -2.1682    0.9127    0.8412 N   0  0  0  0  0  0  0  0  0  0  0  0
   -2.2974   -0.4127    0.3399 C   0  0  0  0  0  0  0  0  0  0  0  0
   -1.0669   -1.1042   -0.0612 C   0  0  0  0  0  0  0  0  0  0  0  0
    3.5875    0.8986    0.6834 H   0  0  0  0  0  0  0  0  0  0  0  0
    3.2939   -1.1960    0.6456 H   0  0  0  0  0  0  0  0  0  0  0  0
    2.7547   -1.0393   -1.0338 H   0  0  0  0  0  0  0  0  0  0  0  0
    1.0946   -0.7571    1.5464 H   0  0  0  0  0  0  0  0  0  0  0  0
    1.0566   -2.0922    0.3508 H   0  0  0  0  0  0  0  0  0  0  0  0
    0.6534    1.3418    0.8145 H   0  0  0  0  0  0  0  0  0  0  0  0
    0.5790    1.5234   -0.9615 H   0  0  0  0  0  0  0  0  0  0  0  0
   -1.7543    1.7883   -0.9818 H   0  0  0  0  0  0  0  0  0  0  0  0
   -1.1470    2.6879    0.4419 H   0  0  0  0  0  0  0  0  0  0  0  0
   -2.0544    1.0176    1.8473 H   0  0  0  0  0  0  0  0  0  0  0  0
   -2.8705   -0.9885    1.1308 H   0  0  0  0  0  0  0  0  0  0  0  0
   -3.0426   -0.3647   -0.5103 H   0  0  0  0  0  0  0  0  0  0  0  0
   -1.2660   -1.6576   -1.0255 H   0  0  0  0  0  0  0  0  0  0  0  0
   -0.8845   -1.9386    0.6753 H   0  0  0  0  0  0  0  0  0  0  0  0
  1  2  1  0
  2  3  1  0
  3  4  1  0
  4  5  1  0
  5  6  1  0
  6  7  1  0
  7  8  1  0
  8  9  1  0
  9  4  1  0
  1 10  1  0
  2 11  1  0
  2 12  1  0
  3 13  1  0
  3 14  1  0
  5 15  1  0
  5 16  1  0
  6 17  1  0
  6 18  1  0
  7 19  1  0
  8 20  1  0
  8 21  1  0
  9 22  1  0
  9 23  1  0
M  END
$$$$

     RDKit          3D

 23 23  0  0  0  0  0  0  0  0999 V2000
    3.0006   -0.1519   -1.0394 O   0  0  0  0  0  0  0  0  0  0  0  0
    2.6378    0.0362    0.2895 C   0  0  0  0  0  0  0  0  0  0  0  0
    1.3752   -0.6954    0.6130 C   0  0  0  0  0  0  0  0  0  0  0  0
    0.2343   -0.3166   -0.1454 N   0  0  0  0  0  0  0  0  0  0  0  0
   -0.8857   -1.1022    0.2794 C   0  0  0  0  0  0  0  0  0  0  0  0
   -2.1996   -0.6754   -0.2449 C   0  0  0  0  0  0  0  0  0  0  0  0
   -2.3464    0.7174   -0.5049 N   0  0  0  0  0  0  0  0  0  0  0  0
   -1.4112    1.4502    0.3102 C   0  0  0  0  0  0  0  0  0  0  0  0
   -0.0145    1.0944   -0.1934 C   0  0  0  0  0  0  0  0  0  0  0  0
    3.4753   -1.0250   -1.1125 H   0  0  0  0  0  0  0  0  0  0  0  0
    3.4485   -0.4228    0.9020 H   0  0  0  0  0  0  0  0  0  0  0  0
    2.6266    1.1027    0.5317 H   0  0  0  0  0  0  0  0  0  0  0  0
    1.5670   -1.7824    0.4166 H   0  0  0  0  0  0  0  0  0  0  0  0
    1.1356   -0.6274    1.6890 H   0  0  0  0  0  0  0  0  0  0  0  0
   -0.6991   -2.1565   -0.0752 H   0  0  0  0  0  0  0  0  0  0  0  0
   -0.8602   -1.1724    1.3936 H   0  0  0  0  0  0  0  0  0  0  0  0
   -2.9820   -0.9560    0.5196 H   0  0  0  0  0  0  0  0  0  0  0  0
   -2.5058   -1.2523   -1.1650 H   0  0  0  0  0  0  0  0  0  0  0  0
   -3.3099    1.0616   -0.2833 H   0  0  0  0  0  0  0  0  0  0  0  0
   -1.5092    2.5436    0.1786 H   0  0  0  0  0  0  0  0  0  0  0  0
   -1.4832    1.2169    1.3768 H   0  0  0  0  0  0  0  0  0  0  0  0
    0.6779    1.6971    0.4128 H   0  0  0  0  0  0  0  0  0  0  0  0
    0.0280    1.4161   -1.2514 H   0  0  0  0  0  0  0  0  0  0  0  0
  1  2  1  0
  2  3  1  0
  3  4  1  0
  4  5  1  0
  5  6  1  0
  6  7  1  0
  7  8  1  0
  8  9  1  0
  9  4  1  0
  1 10  1  0
  2 11  1  0
  2 12  1  0
  3 13  1  0
  3 14  1  0
  5 15  1  0
  5 16  1  0
  6 17  1  0
  6 18  1  0
  7 19  1  0
  8 20  1  0
  8 21  1  0
  9 22  1  0
  9 23  1  0
M  END
$$$$

     RDKit          3D

 23 23  0  0  0  0  0  0  0  0999 V2000
    2.8092    0.8587   -0.0331 O   0  0  0  0  0  0  0  0  0  0  0  0
    2.5164   -0.5005   -0.0896 C   0  0  0  0  0  0  0  0  0  0  0  0
    1.3053   -0.8794    0.7127 C   0  0  0  0  0  0  0  0  0  0  0  0
    0.0968   -0.2601    0.3612 N   0  0  0  0  0  0  0  0  0  0  0  0
   -0.1195    1.0933    0.5878 C   0  0  0  0  0  0  0  0  0  0  0  0
   -1.5861    1.4934    0.6484 C   0  0  0  0  0  0  0  0  0  0  0  0
   -2.3396    0.8160   -0.3946 N   0  0  0  0  0  0  0  0  0  0  0  0
   -2.3020   -0.5843   -0.0373 C   0  0  0  0  0  0  0  0  0  0  0  0
   -0.8801   -1.0631   -0.2061 C   0  0  0  0  0  0  0  0  0  0  0  0
    3.7610    0.9227   -0.3694 H   0  0  0  0  0  0  0  0  0  0  0  0
    3.3973   -0.9967    0.4057 H   0  0  0  0  0  0  0  0  0  0  0  0
    2.5097   -0.8970   -1.1255 H   0  0  0  0  0  0  0  0  0  0  0  0
    1.2161   -2.0032    0.5967 H   0  0  0  0  0  0  0  0  0  0  0  0
    1.5915   -0.7649    1.7821 H   0  0  0  0  0  0  0  0  0  0  0  0
    0.3309    1.4936    1.5384 H   0  0  0  0  0  0  0  0  0  0  0  0
    0.3237    1.7005   -0.2297 H   0  0  0  0  0  0  0  0  0  0  0  0
   -2.0369    1.1544    1.6251 H   0  0  0  0  0  0  0  0  0  0  0  0
   -1.6970    2.5906    0.5811 H   0  0  0  0  0  0  0  0  0  0  0  0
   -1.8169    0.9631   -1.2830 H   0  0  0  0  0  0  0  0  0  0  0  0
   -2.5668   -0.7148    1.0464 H   0  0  0  0  0  0  0  0  0  0  0  0
   -2.9760   -1.2087   -0.6271 H   0  0  0  0  0  0  0  0  0  0  0  0
   -0.8336   -2.0936    0.2074 H   0  0  0  0  0  0  0  0  0  0  0  0
   -0.7035   -1.1201   -1.3162 H   0  0  0  0  0  0  0  0  0  0  0  0
  1  2  1  0
  2  3  1  0
  3  4  1  0
  4  5  1  0
  5  6  1  0
  6  7  1  0
  7  8  1  0
  8  9  1  0
  9  4  1  0
  1 10  1  0
  2 11  1  0
  2 12  1  0
  3 13  1  0
  3 14  1  0
  5 15  1  0
  5 16  1  0
  6 17  1  0
  6 18  1  0
  7 19  1  0
  8 20  1  0
  8 21  1  0
  9 22  1  0
  9 23  1  0
M  END
$$$$
