
     RDKit          3D

 26 26  0  0  0  0  0  0  0  0999 V2000
    2.3697    1.5346    0.0195 O   0  0  0  0  0  0  0  0  0  0  0  0
    2.7943    0.3467    0.6117 C   0  0  0  0  0  0  0  0  0  0  0  0
    2.0229   -0.8235    0.0365 C   0  0  1  0  0  0  0  0  0  0  0  0
    2.4595   -1.9768    0.7059 F   0  0  0  0  0  0  0  0  0  0  0  0
    0.6190   -0.7311    0.2528 N   0  0  0  0  0  0  0  0  0  0  0  0
   -0.1186   -1.7040   -0.4881 C   0  0  0  0  0  0  0  0  0  0  0  0
   -1.5424   -1.2548   -0.4285 C   0  0  0  0  0  0  0  0  0  0  0  0
   -1.4846    0.1720    0.0123 C   0  0  2  0  0  0  0  0  0  0  0  0
   -1.9048    0.3243    1.3437 O   0  0  0  0  0  0  0  0  0  0  0  0
   -2.3077    1.1058   -0.8173 C   0  0  0  0  0  0  0  0  0  0  0  0
   -2.0887    2.4090   -0.3663 O   0  0  0  0  0  0  0  0  0  0  0  0
    0.0023    0.5141   -0.0618 C   0  0  0  0  0  0  0  0  0  0  0  0
    3.1362    2.1273   -0.0835 H   0  0  0  0  0  0  0  0  0  0  0  0
    3.8780    0.2343    0.4195 H   0  0  0  0  0  0  0  0  0  0  0  0
    2.6194    0.4167    1.7250 H   0  0  0  0  0  0  0  0  0  0  0  0
    2.2562   -0.9089   -1.0324 H   0  0  0  0  0  0  0  0  0  0  0  0
   -0.0119   -2.7310   -0.0403 H   0  0  0  0  0  0  0  0  0  0  0  0
    0.2805   -1.7735   -1.5286 H   0  0  0  0  0  0  0  0  0  0  0  0
   -2.0881   -1.9007    0.3081 H   0  0  0  0  0  0  0  0  0  0  0  0
   -2.0165   -1.3789   -1.4261 H   0  0  0  0  0  0  0  0  0  0  0  0
   -2.3784   -0.5266    1.5672 H   0  0  0  0  0  0  0  0  0  0  0  0
   -3.3639    0.8787   -0.6694 H   0  0  0  0  0  0  0  0  0  0  0  0
   -2.0251    1.0249   -1.8831 H   0  0  0  0  0  0  0  0  0  0  0  0
   -1.4916    2.4430    0.4237 H   0  0  0  0  0  0  0  0  0  0  0  0
    0.2176    0.8834   -1.0676 H   0  0  0  0  0  0  0  0  0  0  0  0
    0.1665    1.2951    0.7224 H   0  0  0  0  0  0  0  0  0  0  0  0
  1  2  1  0
  2  3  1  0
  3  4  1  0
  3  5  1  0
  5  6  1  0
  6  7  1  0
  7  8  1  0
  8  9  1  1
  8 10  1  0
 10 11  1  0
  8 12  1  0
 12  5  1  0
  1 13  1  0
  2 14  1  0
  2 15  1  0
  3 16  1  6
  6 17  1  0
  6 18  1  0
  7 19  1  0
  7 20  1  0
  9 21  1  0
 10 22  1  0
 10 23  1  0
 11 24  1  0
 12 25  1  0
 12 26  1  0
M  END
$$$$

     RDKit          3D

 26 26  0  0  0  0  0  0  0  0999 V2000
    2.5926    1.3200    0.4980 O   0  0  0  0  0  0  0  0  0  0  0  0
    2.8942   -0.0326    0.6128 C   0  0  0  0  0  0  0  0  0  0  0  0
    1.9693   -0.9038   -0.1991 C   0  0  1  0  0  0  0  0  0  0  0  0
    2.3733   -2.2242    0.0639 F   0  0  0  0  0  0  0  0  0  0  0  0
    0.6036   -0.8041    0.1546 N   0  0  0  0  0  0  0  0  0  0  0  0
   -0.2049   -1.5369   -0.7813 C   0  0  0  0  0  0  0  0  0  0  0  0
   -1.5111   -0.7781   -0.8986 C   0  0  0  0  0  0  0  0  0  0  0  0
   -1.4599    0.1923    0.2621 C   0  0  2  0  0  0  0  0  0  0  0  0
   -1.9199   -0.4305    1.3917 O   0  0  0  0  0  0  0  0  0  0  0  0
   -2.2238    1.4456   -0.0848 C   0  0  0  0  0  0  0  0  0  0  0  0
   -2.1660    2.3927    0.9197 O   0  0  0  0  0  0  0  0  0  0  0  0
    0.0436    0.4860    0.3153 C   0  0  0  0  0  0  0  0  0  0  0  0
    2.9146    1.7081   -0.3547 H   0  0  0  0  0  0  0  0  0  0  0  0
    3.9149   -0.1680    0.1925 H   0  0  0  0  0  0  0  0  0  0  0  0
    2.8864   -0.3357    1.6606 H   0  0  0  0  0  0  0  0  0  0  0  0
    2.1701   -0.7590   -1.2787 H   0  0  0  0  0  0  0  0  0  0  0  0
   -0.3925   -2.5490   -0.3723 H   0  0  0  0  0  0  0  0  0  0  0  0
    0.2677   -1.6770   -1.7778 H   0  0  0  0  0  0  0  0  0  0  0  0
   -2.3792   -1.4776   -0.8193 H   0  0  0  0  0  0  0  0  0  0  0  0
   -1.5606   -0.2349   -1.8575 H   0  0  0  0  0  0  0  0  0  0  0  0
   -2.7375   -0.9626    1.1253 H   0  0  0  0  0  0  0  0  0  0  0  0
   -3.2758    1.1906   -0.2693 H   0  0  0  0  0  0  0  0  0  0  0  0
   -1.7520    1.8945   -0.9806 H   0  0  0  0  0  0  0  0  0  0  0  0
   -1.5306    2.1454    1.6431 H   0  0  0  0  0  0  0  0  0  0  0  0
    0.2282    1.2072   -0.4904 H   0  0  0  0  0  0  0  0  0  0  0  0
    0.2553    0.8918    1.3250 H   0  0  0  0  0  0  0  0  0  0  0  0
  1  2  1  0
  2  3  1  0
  3  4  1  0
  3  5  1  0
  5  6  1  0
  6  7  1  0
  7  8  1  0
  8  9  1  1
  8 10  1  0
 10 11  1  0
  8 12  1  0
 12  5  1  0
  1 13  1  0
  2 14  1  0
  2 15  1  0
  3 16  1  6
  6 17  1  0
  6 18  1  0
  7 19  1  0
  7 20  1  0
  9 21  1  0
 10 22  1  0
 10 23  1  0
 11 24  1  0
 12 25  1  0
 12 26  1  0
M  END
$$$$

     RDKit          3D

 26 26  0  0  0  0  0  0  0  0999 V2000
    4.0179   -0.3874   -0.8163 O   0  0  0  0  0  0  0  0  0  0  0  0
    2.7586   -0.8705   -0.4768 C   0  0  0  0  0  0  0  0  0  0  0  0
    1.7382    0.2653   -0.4452 C   0  0  1  0  0  0  0  0  0  0  0  0
    1.8282    0.9253   -1.6694 F   0  0  0  0  0  0  0  0  0  0  0  0
    0.5038   -0.2335   -0.1077 N   0  0  0  0  0  0  0  0  0  0  0  0
   -0.1850   -1.1441   -0.8731 C   0  0  0  0  0  0  0  0  0  0  0  0
   -1.6544   -0.9017   -0.5021 C   0  0  0  0  0  0  0  0  0  0  0  0
   -1.6183   -0.0174    0.7225 C   0  0  2  0  0  0  0  0  0  0  0  0
   -2.2817   -0.5602    1.7973 O   0  0  0  0  0  0  0  0  0  0  0  0
   -2.0879    1.3893    0.4023 C   0  0  0  0  0  0  0  0  0  0  0  0
   -1.3707    1.8608   -0.6850 O   0  0  0  0  0  0  0  0  0  0  0  0
   -0.1378    0.1084    1.0870 C   0  0  0  0  0  0  0  0  0  0  0  0
    4.0096    0.5965   -0.7800 H   0  0  0  0  0  0  0  0  0  0  0  0
    2.7742   -1.3347    0.5341 H   0  0  0  0  0  0  0  0  0  0  0  0
    2.4303   -1.5782   -1.2424 H   0  0  0  0  0  0  0  0  0  0  0  0
    2.0910    0.9846    0.3446 H   0  0  0  0  0  0  0  0  0  0  0  0
   -0.0515   -1.0808   -1.9712 H   0  0  0  0  0  0  0  0  0  0  0  0
    0.0797   -2.1968   -0.5456 H   0  0  0  0  0  0  0  0  0  0  0  0
   -2.1297   -1.8634   -0.2490 H   0  0  0  0  0  0  0  0  0  0  0  0
   -2.1264   -0.3982   -1.3799 H   0  0  0  0  0  0  0  0  0  0  0  0
   -1.9097   -0.1724    2.6391 H   0  0  0  0  0  0  0  0  0  0  0  0
   -3.1586    1.3699    0.1081 H   0  0  0  0  0  0  0  0  0  0  0  0
   -1.9681    2.0623    1.2796 H   0  0  0  0  0  0  0  0  0  0  0  0
   -1.7622    2.6805   -1.0680 H   0  0  0  0  0  0  0  0  0  0  0  0
    0.1086    1.1403    1.4115 H   0  0  0  0  0  0  0  0  0  0  0  0
    0.1019   -0.6438    1.8755 H   0  0  0  0  0  0  0  0  0  0  0  0
  1  2  1  0
  2  3  1  0
  3  4  1  0
  3  5  1  0
  5  6  1  0
  6  7  1  0
  7  8  1  0
  8  9  1  1
  8 10  1  0
 10 11  1  0
  8 12  1  0
 12  5  1  0
  1 13  1  0
  2 14  1  0
  2 15  1  0
  3 16  1  1
  6 17  1  0
  6 18  1  0
  7 19  1  0
  7 20  1  0
  9 21  1  0
 10 22  1  0
 10 23  1  0
 11 24  1  0
 12 25  1  0
 12 26  1  0
M  END
$$$$

     RDKit          3D

 26 26  0  0  0  0  0  0  0  0999 V2000
    3.7633   -0.4705    0.0723 O   0  0  0  0  0  0  0  0  0  0  0  0
    3.0677    0.7205    0.1036 C   0  0  0  0  0  0  0  0  0  0  0  0
    1.7975    0.6709   -0.7150 C   0  0  1  0  0  0  0  0  0  0  0  0
    2.1547    0.3278   -2.0147 F   0  0  0  0  0  0  0  0  0  0  0  0
    0.9124   -0.3655   -0.2174 N   0  0  0  0  0  0  0  0  0  0  0  0
    0.4888   -0.1065    1.1473 C   0  0  0  0  0  0  0  0  0  0  0  0
   -0.8901   -0.7820    1.1499 C   0  0  0  0  0  0  0  0  0  0  0  0
   -1.4317   -0.1009   -0.1174 C   0  0  2  0  0  0  0  0  0  0  0  0
   -1.4935    1.2576    0.1897 O   0  0  0  0  0  0  0  0  0  0  0  0
   -2.7527   -0.6418   -0.5255 C   0  0  0  0  0  0  0  0  0  0  0  0
   -3.6348   -0.4436    0.5607 O   0  0  0  0  0  0  0  0  0  0  0  0
   -0.2926   -0.4061   -1.0440 C   0  0  0  0  0  0  0  0  0  0  0  0
    3.1298   -1.2340    0.1069 H   0  0  0  0  0  0  0  0  0  0  0  0
    2.8783    1.0202    1.1576 H   0  0  0  0  0  0  0  0  0  0  0  0
    3.6925    1.5596   -0.3208 H   0  0  0  0  0  0  0  0  0  0  0  0
    1.3168    1.6683   -0.6857 H   0  0  0  0  0  0  0  0  0  0  0  0
    1.1517   -0.5228    1.9023 H   0  0  0  0  0  0  0  0  0  0  0  0
    0.2658    0.9929    1.2951 H   0  0  0  0  0  0  0  0  0  0  0  0
   -0.7531   -1.8465    0.8957 H   0  0  0  0  0  0  0  0  0  0  0  0
   -1.4719   -0.5642    2.0358 H   0  0  0  0  0  0  0  0  0  0  0  0
   -2.0582    1.6954   -0.4752 H   0  0  0  0  0  0  0  0  0  0  0  0
   -3.1357   -0.0042   -1.3530 H   0  0  0  0  0  0  0  0  0  0  0  0
   -2.6811   -1.7032   -0.7738 H   0  0  0  0  0  0  0  0  0  0  0  0
   -3.3968    0.4619    0.9243 H   0  0  0  0  0  0  0  0  0  0  0  0
   -0.4106   -1.4545   -1.3892 H   0  0  0  0  0  0  0  0  0  0  0  0
   -0.2164    0.2711   -1.9095 H   0  0  0  0  0  0  0  0  0  0  0  0
  1  2  1  0
  2  3  1  0
  3  4  1  0
  3  5  1  0
  5  6  1  0
  6  7  1  0
  7  8  1  0
  8  9  1  1
  8 10  1  0
 10 11  1  0
  8 12  1  0
 12  5  1  0
  1 13  1  0
  2 14  1  0
  2 15  1  0
  3 16  1  6
  6 17  1  0
  6 18  1  0
  7 19  1  0
  7 20  1  0
  9 21  1  0
 10 22  1  0
 10 23  1  0
 11 24  1  0
 12 25  1  0
 12 26  1  0
M  END
$$$$

     RDKit          3D

 26 26  0  0  0  0  0  0  0  0999 V2000
    2.3332   -1.7575    0.9676 O   0  0  0  0  0  0  0  0  0  0  0  0
    2.9597   -0.6608    0.4190 C   0  0  0  0  0  0  0  0  0  0  0  0
    2.0410    0.1297   -0.4900 C   0  0  1  0  0  0  0  0  0  0  0  0
    1.7092   -0.6085   -1.5922 F   0  0  0  0  0  0  0  0  0  0  0  0
    0.8752    0.6177    0.2240 N   0  0  0  0  0  0  0  0  0  0  0  0
    0.2145    1.5634   -0.6791 C   0  0  0  0  0  0  0  0  0  0  0  0
   -1.1949    1.5617   -0.0849 C   0  0  0  0  0  0  0  0  0  0  0  0
   -1.4232    0.0492   -0.0930 C   0  0  2  0  0  0  0  0  0  0  0  0
   -1.6680   -0.3543   -1.3903 O   0  0  0  0  0  0  0  0  0  0  0  0
   -2.5823   -0.2481    0.8045 C   0  0  0  0  0  0  0  0  0  0  0  0
   -2.8616   -1.6199    0.8337 O   0  0  0  0  0  0  0  0  0  0  0  0
   -0.1084   -0.4434    0.4161 C   0  0  0  0  0  0  0  0  0  0  0  0
    2.8698   -2.5872    0.8686 H   0  0  0  0  0  0  0  0  0  0  0  0
    3.4127    0.0169    1.1962 H   0  0  0  0  0  0  0  0  0  0  0  0
    3.8256   -1.0218   -0.1738 H   0  0  0  0  0  0  0  0  0  0  0  0
    2.6114    1.0178   -0.8279 H   0  0  0  0  0  0  0  0  0  0  0  0
    0.6619    2.5656   -0.6588 H   0  0  0  0  0  0  0  0  0  0  0  0
    0.1482    1.0818   -1.6552 H   0  0  0  0  0  0  0  0  0  0  0  0
   -1.9106    2.0697   -0.7357 H   0  0  0  0  0  0  0  0  0  0  0  0
   -1.2013    1.9223    0.9557 H   0  0  0  0  0  0  0  0  0  0  0  0
   -2.0059    0.4441   -1.9050 H   0  0  0  0  0  0  0  0  0  0  0  0
   -3.4871    0.2412    0.3654 H   0  0  0  0  0  0  0  0  0  0  0  0
   -2.4808    0.1432    1.8165 H   0  0  0  0  0  0  0  0  0  0  0  0
   -2.7012   -2.0492   -0.0475 H   0  0  0  0  0  0  0  0  0  0  0  0
   -0.1991   -0.7230    1.4846 H   0  0  0  0  0  0  0  0  0  0  0  0
    0.1622   -1.3506   -0.1626 H   0  0  0  0  0  0  0  0  0  0  0  0
  1  2  1  0
  2  3  1  0
  3  4  1  0
  3  5  1  0
  5  6  1  0
  6  7  1  0
  7  8  1  0
  8  9  1  6
  8 10  1  0
 10 11  1  0
  8 12  1  0
 12  5  1  0
  1 13  1  0
  2 14  1  0
  2 15  1  0
  3 16  1  6
  6 17  1  0
  6 18  1  0
  7 19  1  0
  7 20  1  0
  9 21  1  0
 10 22  1  0
 10 23  1  0
 11 24  1  0
 12 25  1  0
 12 26  1  0
M  END
$$$$

     RDKit          3D

 26 26  0  0  0  0  0  0  0  0999 V2000
    4.0879    0.1545   -0.6213 O   0  0  0  0  0  0  0  0  0  0  0  0
    3.0813   -0.4380    0.1437 C   0  0  0  0  0  0  0  0  0  0  0  0
    1.8464    0.4142   -0.0496 C   0  0  1  0  0  0  0  0  0  0  0  0
    1.6193    0.5792   -1.3978 F   0  0  0  0  0  0  0  0  0  0  0  0
    0.7193   -0.0493    0.6923 N   0  0  0  0  0  0  0  0  0  0  0  0
    0.2312   -1.3458    0.3724 C   0  0  0  0  0  0  0  0  0  0  0  0
   -1.2349   -1.2842    0.7921 C   0  0  0  0  0  0  0  0  0  0  0  0
   -1.6449    0.1500    0.5941 C   0  0  2  0  0  0  0  0  0  0  0  0
   -2.3534    0.6329    1.6909 O   0  0  0  0  0  0  0  0  0  0  0  0
   -2.5513    0.2422   -0.6093 C   0  0  0  0  0  0  0  0  0  0  0  0
   -2.9416    1.5566   -0.8456 O   0  0  0  0  0  0  0  0  0  0  0  0
   -0.3706    0.8888    0.3854 C   0  0  0  0  0  0  0  0  0  0  0  0
    4.7288    0.6000   -0.0022 H   0  0  0  0  0  0  0  0  0  0  0  0
    2.8997   -1.4437   -0.3163 H   0  0  0  0  0  0  0  0  0  0  0  0
    3.3501   -0.4887    1.2065 H   0  0  0  0  0  0  0  0  0  0  0  0
    2.1106    1.4102    0.3580 H   0  0  0  0  0  0  0  0  0  0  0  0
    0.6899   -2.1406    1.0026 H   0  0  0  0  0  0  0  0  0  0  0  0
    0.3512   -1.6551   -0.6692 H   0  0  0  0  0  0  0  0  0  0  0  0
   -1.3168   -1.5809    1.8526 H   0  0  0  0  0  0  0  0  0  0  0  0
   -1.7887   -1.9452    0.1122 H   0  0  0  0  0  0  0  0  0  0  0  0
   -3.1830    1.1090    1.4372 H   0  0  0  0  0  0  0  0  0  0  0  0
   -2.0086   -0.1433   -1.5113 H   0  0  0  0  0  0  0  0  0  0  0  0
   -3.4137   -0.4335   -0.4672 H   0  0  0  0  0  0  0  0  0  0  0  0
   -2.3768    2.1795   -0.3392 H   0  0  0  0  0  0  0  0  0  0  0  0
   -0.2860    1.2634   -0.6640 H   0  0  0  0  0  0  0  0  0  0  0  0
   -0.2454    1.7676    1.0783 H   0  0  0  0  0  0  0  0  0  0  0  0
  1  2  1  0
  2  3  1  0
  3  4  1  0
  3  5  1  0
  5  6  1  0
  6  7  1  0
  7  8  1  0
  8  9  1  1
  8 10  1  0
 10 11  1  0
  8 12  1  0
 12  5  1  0
  1 13  1  0
  2 14  1  0
  2 15  1  0
  3 16  1  1
  6 17  1  0
  6 18  1  0
  7 19  1  0
  7 20  1  0
  9 21  1  0
 10 22  1  0
 10 23  1  0
 11 24  1  0
 12 25  1  0
 12 26  1  0
M  END
$$$$

     RDKit          3D

 26 26  0  0  0  0  0  0  0  0999 V2000
    3.1660   -0.0525   -0.7995 O   0  0  0  0  0  0  0  0  0  0  0  0
    2.8974   -0.3688    0.5079 C   0  0  0  0  0  0  0  0  0  0  0  0
    1.7248    0.4340    1.0645 C   0  0  1  0  0  0  0  0  0  0  0  0
    2.0693    1.7688    1.1849 F   0  0  0  0  0  0  0  0  0  0  0  0
    0.5834    0.1750    0.3257 N   0  0  0  0  0  0  0  0  0  0  0  0
    0.4610    0.4805   -1.0279 C   0  0  0  0  0  0  0  0  0  0  0  0
   -1.0126    0.2226   -1.3317 C   0  0  0  0  0  0  0  0  0  0  0  0
   -1.4364   -0.7939   -0.2752 C   0  0  2  0  0  0  0  0  0  0  0  0
   -1.2524   -2.0858   -0.7368 O   0  0  0  0  0  0  0  0  0  0  0  0
   -2.8720   -0.5524    0.1501 C   0  0  0  0  0  0  0  0  0  0  0  0
   -2.9706    0.7702    0.6011 O   0  0  0  0  0  0  0  0  0  0  0  0
   -0.5152   -0.5047    0.8657 C   0  0  0  0  0  0  0  0  0  0  0  0
    4.1137    0.2178   -0.8828 H   0  0  0  0  0  0  0  0  0  0  0  0
    3.7910   -0.1799    1.1496 H   0  0  0  0  0  0  0  0  0  0  0  0
    2.6965   -1.4605    0.5700 H   0  0  0  0  0  0  0  0  0  0  0  0
    1.5661    0.0849    2.1263 H   0  0  0  0  0  0  0  0  0  0  0  0
    1.0190   -0.2871   -1.6435 H   0  0  0  0  0  0  0  0  0  0  0  0
    0.7934    1.4630   -1.3692 H   0  0  0  0  0  0  0  0  0  0  0  0
   -1.5388    1.1831   -1.2261 H   0  0  0  0  0  0  0  0  0  0  0  0
   -1.1420   -0.2031   -2.3309 H   0  0  0  0  0  0  0  0  0  0  0  0
   -1.3829   -2.1381   -1.7342 H   0  0  0  0  0  0  0  0  0  0  0  0
   -3.5606   -0.7432   -0.6901 H   0  0  0  0  0  0  0  0  0  0  0  0
   -3.1300   -1.2694    0.9564 H   0  0  0  0  0  0  0  0  0  0  0  0
   -2.8940    0.8439    1.5736 H   0  0  0  0  0  0  0  0  0  0  0  0
   -1.0248    0.0138    1.7089 H   0  0  0  0  0  0  0  0  0  0  0  0
   -0.1494   -1.4967    1.2633 H   0  0  0  0  0  0  0  0  0  0  0  0
  1  2  1  0
  2  3  1  0
  3  4  1  0
  3  5  1  0
  5  6  1  0
  6  7  1  0
  7  8  1  0
  8  9  1  6
  8 10  1  0
 10 11  1  0
  8 12  1  0
 12  5  1  0
  1 13  1  0
  2 14  1  0
  2 15  1  0
  3 16  1  1
  6 17  1  0
  6 18  1  0
  7 19  1  0
  7 20  1  0
  9 21  1  0
 10 22  1  0
 10 23  1  0
 11 24  1  0
 12 25  1  0
 12 26  1  0
M  END
$$$$

     RDKit          3D

 26 26  0  0  0  0  0  0  0  0999 V2000
   -3.8126   -1.1742   -0.0878 O   0  0  0  0  0  0  0  0  0  0  0  0
   -2.4188   -0.9457   -0.1892 C   0  0  0  0  0  0  0  0  0  0  0  0
   -2.1677    0.4023    0.3802 C   0  0  1  0  0  0  0  0  0  0  0  0
   -2.7146    0.5205    1.6521 F   0  0  0  0  0  0  0  0  0  0  0  0
   -0.8095    0.8659    0.3807 N   0  0  0  0  0  0  0  0  0  0  0  0
   -0.2794    1.0492   -0.9488 C   0  0  0  0  0  0  0  0  0  0  0  0
    1.1841    0.7507   -0.9174 C   0  0  0  0  0  0  0  0  0  0  0  0
    1.4530    0.3249    0.5113 C   0  0  2  0  0  0  0  0  0  0  0  0
    2.1602    1.2949    1.2160 O   0  0  0  0  0  0  0  0  0  0  0  0
    2.2977   -0.9515    0.4830 C   0  0  0  0  0  0  0  0  0  0  0  0
    3.5134   -0.6916   -0.1537 O   0  0  0  0  0  0  0  0  0  0  0  0
    0.1023    0.0166    1.0941 C   0  0  0  0  0  0  0  0  0  0  0  0
   -4.2307   -0.7713   -0.8977 H   0  0  0  0  0  0  0  0  0  0  0  0
   -2.1295   -1.0189   -1.2237 H   0  0  0  0  0  0  0  0  0  0  0  0
   -1.9425   -1.7069    0.4764 H   0  0  0  0  0  0  0  0  0  0  0  0
   -2.7579    1.1366   -0.2516 H   0  0  0  0  0  0  0  0  0  0  0  0
   -0.5040    2.0941   -1.2796 H   0  0  0  0  0  0  0  0  0  0  0  0
   -0.7783    0.3780   -1.6557 H   0  0  0  0  0  0  0  0  0  0  0  0
    1.4455   -0.0749   -1.6320 H   0  0  0  0  0  0  0  0  0  0  0  0
    1.7709    1.6695   -1.0957 H   0  0  0  0  0  0  0  0  0  0  0  0
    2.9158    1.5812    0.6204 H   0  0  0  0  0  0  0  0  0  0  0  0
    2.5118   -1.2610    1.5312 H   0  0  0  0  0  0  0  0  0  0  0  0
    1.7418   -1.7628   -0.0306 H   0  0  0  0  0  0  0  0  0  0  0  0
    3.4316   -0.9284   -1.1123 H   0  0  0  0  0  0  0  0  0  0  0  0
   -0.0687   -1.0700    0.9532 H   0  0  0  0  0  0  0  0  0  0  0  0
    0.0858    0.2729    2.1772 H   0  0  0  0  0  0  0  0  0  0  0  0
  1  2  1  0
  2  3  1  0
  3  4  1  0
  3  5  1  0
  5  6  1  0
  6  7  1  0
  7  8  1  0
  8  9  1  1
  8 10  1  0
 10 11  1  0
  8 12  1  0
 12  5  1  0
  1 13  1  0
  2 14  1  0
  2 15  1  0
  3 16  1  6
  6 17  1  0
  6 18  1  0
  7 19  1  0
  7 20  1  0
  9 21  1  0
 10 22  1  0
 10 23  1  0
 11 24  1  0
 12 25  1  0
 12 26  1  0
M  END
$$$$
