
     RDKit          3D

 22 21  0  0  0  0  0  0  0  0999 V2000
    3.9961    0.8822    0.7049 N   0  0  0  0  0  0  0  0  0  0  0  0
    3.0916   -0.2442    0.5203 C   0  0  0  0  0  0  0  0  0  0  0  0
    2.4466   -0.1678   -0.7947 C   0  0  0  0  0  0  0  0  0  0  0  0
    1.1740   -0.0787   -0.9755 C   0  0  0  0  0  0  0  0  0  0  0  0
    0.0864   -0.0300   -0.0322 C   0  0  0  0  0  0  0  0  0  0  0  0
    0.2101   -0.0681    1.2289 O   0  0  0  0  0  0  0  0  0  0  0  0
   -1.2899    0.0699   -0.4508 N   0  0  0  0  0  0  0  0  0  0  0  0
   -2.3689    0.1183    0.4840 C   0  0  0  0  0  0  0  0  0  0  0  0
   -3.6679    0.2216   -0.2849 C   0  0  0  0  0  0  0  0  0  0  0  0
   -3.7695   -0.9197   -1.1090 O   0  0  0  0  0  0  0  0  0  0  0  0
    4.8505    0.7008    0.1365 H   0  0  0  0  0  0  0  0  0  0  0  0
    4.3122    0.8737    1.7036 H   0  0  0  0  0  0  0  0  0  0  0  0
    3.6971   -1.2102    0.5171 H   0  0  0  0  0  0  0  0  0  0  0  0
    2.3683   -0.3411    1.3308 H   0  0  0  0  0  0  0  0  0  0  0  0
    3.1207   -0.1897   -1.6930 H   0  0  0  0  0  0  0  0  0  0  0  0
    0.8387   -0.0298   -2.0426 H   0  0  0  0  0  0  0  0  0  0  0  0
   -1.4622    0.1055   -1.4741 H   0  0  0  0  0  0  0  0  0  0  0  0
   -2.4168   -0.7762    1.1466 H   0  0  0  0  0  0  0  0  0  0  0  0
   -2.3321    0.9945    1.1624 H   0  0  0  0  0  0  0  0  0  0  0  0
   -4.5295    0.2590    0.3859 H   0  0  0  0  0  0  0  0  0  0  0  0
   -3.6743    1.1551   -0.8893 H   0  0  0  0  0  0  0  0  0  0  0  0
   -4.6813   -1.3251   -1.0422 H   0  0  0  0  0  0  0  0  0  0  0  0
  1  2  1  0
  2  3  1  0
  3  4  2  3
  4  5  1  0
  5  6  2  0
  5  7  1  0
  7  8  1  0
  8  9  1  0
  9 10  1  0
  1 11  1  0
  1 12  1  0
  2 13  1  0
  2 14  1  0
  3 15  1  0
  4 16  1  0
  7 17  1  0
  8 18  1  0
  8 19  1  0
  9 20  1  0
  9 21  1  0
 10 22  1  0
M  END
$$$$

     RDKit          3D

 22 21  0  0  0  0  0  0  0  0999 V2000
   -3.7331   -0.3326    0.4907 N   0  0  0  0  0  0  0  0  0  0  0  0
   -3.4698    0.1359   -0.8365 C   0  0  0  0  0  0  0  0  0  0  0  0
   -2.0076    0.3317   -0.9952 C   0  0  0  0  0  0  0  0  0  0  0  0
   -1.1936    0.0749    0.0130 C   0  0  0  0  0  0  0  0  0  0  0  0
    0.2456    0.2529   -0.0988 C   0  0  0  0  0  0  0  0  0  0  0  0
    0.7351    0.6620   -1.1820 O   0  0  0  0  0  0  0  0  0  0  0  0
    1.1240   -0.0192    0.9744 N   0  0  0  0  0  0  0  0  0  0  0  0
    2.5535    0.1689    0.8274 C   0  0  0  0  0  0  0  0  0  0  0  0
    3.1491   -0.6789   -0.2570 C   0  0  0  0  0  0  0  0  0  0  0  0
    4.5222   -0.3977   -0.2868 O   0  0  0  0  0  0  0  0  0  0  0  0
   -4.7323   -0.2404    0.7770 H   0  0  0  0  0  0  0  0  0  0  0  0
   -3.3451   -1.2752    0.6183 H   0  0  0  0  0  0  0  0  0  0  0  0
   -3.8119   -0.5780   -1.6226 H   0  0  0  0  0  0  0  0  0  0  0  0
   -3.9526    1.1001   -1.0638 H   0  0  0  0  0  0  0  0  0  0  0  0
   -1.5644    0.6838   -1.9210 H   0  0  0  0  0  0  0  0  0  0  0  0
   -1.5935   -0.2832    0.9697 H   0  0  0  0  0  0  0  0  0  0  0  0
    0.7207   -0.3657    1.8964 H   0  0  0  0  0  0  0  0  0  0  0  0
    2.7680    1.2525    0.6810 H   0  0  0  0  0  0  0  0  0  0  0  0
    3.0417   -0.1188    1.7772 H   0  0  0  0  0  0  0  0  0  0  0  0
    2.7247   -0.5484   -1.2504 H   0  0  0  0  0  0  0  0  0  0  0  0
    3.0165   -1.7481    0.0540 H   0  0  0  0  0  0  0  0  0  0  0  0
    4.8027    0.2108    0.4351 H   0  0  0  0  0  0  0  0  0  0  0  0
  1  2  1  0
  2  3  1  0
  3  4  2  3
  4  5  1  0
  5  6  2  0
  5  7  1  0
  7  8  1  0
  8  9  1  0
  9 10  1  0
  1 11  1  0
  1 12  1  0
  2 13  1  0
  2 14  1  0
  3 15  1  0
  4 16  1  0
  7 17  1  0
  8 18  1  0
  8 19  1  0
  9 20  1  0
  9 21  1  0
 10 22  1  0
M  END
$$$$

     RDKit          3D

 22 21  0  0  0  0  0  0  0  0999 V2000
    3.8246   -0.6769    0.1398 N   0  0  0  0  0  0  0  0  0  0  0  0
    3.4786    0.6166   -0.3805 C   0  0  0  0  0  0  0  0  0  0  0  0
    2.0080    0.7698   -0.5150 C   0  0  0  0  0  0  0  0  0  0  0  0
    1.1497   -0.1671   -0.1946 C   0  0  0  0  0  0  0  0  0  0  0  0
   -0.2770    0.0343   -0.3456 C   0  0  0  0  0  0  0  0  0  0  0  0
   -0.7739    1.1078   -0.7881 O   0  0  0  0  0  0  0  0  0  0  0  0
   -1.2070   -0.9852    0.0032 N   0  0  0  0  0  0  0  0  0  0  0  0
   -2.6182   -0.7851   -0.1462 C   0  0  0  0  0  0  0  0  0  0  0  0
   -3.1711    0.3534    0.6493 C   0  0  0  0  0  0  0  0  0  0  0  0
   -4.5505    0.4084    0.3903 O   0  0  0  0  0  0  0  0  0  0  0  0
    4.0017   -1.3502   -0.6293 H   0  0  0  0  0  0  0  0  0  0  0  0
    4.7081   -0.6043    0.6873 H   0  0  0  0  0  0  0  0  0  0  0  0
    3.9361    0.7222   -1.3958 H   0  0  0  0  0  0  0  0  0  0  0  0
    3.8808    1.4120    0.2725 H   0  0  0  0  0  0  0  0  0  0  0  0
    1.6188    1.7132   -0.9014 H   0  0  0  0  0  0  0  0  0  0  0  0
    1.5130   -1.1017    0.1870 H   0  0  0  0  0  0  0  0  0  0  0  0
   -0.8906   -1.9127    0.3795 H   0  0  0  0  0  0  0  0  0  0  0  0
   -2.7860   -0.5260   -1.2330 H   0  0  0  0  0  0  0  0  0  0  0  0
   -3.2121   -1.6776    0.0484 H   0  0  0  0  0  0  0  0  0  0  0  0
   -3.0811    0.1194    1.7490 H   0  0  0  0  0  0  0  0  0  0  0  0
   -2.7683    1.3380    0.4035 H   0  0  0  0  0  0  0  0  0  0  0  0
   -4.7834    1.1917   -0.1580 H   0  0  0  0  0  0  0  0  0  0  0  0
  1  2  1  0
  2  3  1  0
  3  4  2  3
  4  5  1  0
  5  6  2  0
  5  7  1  0
  7  8  1  0
  8  9  1  0
  9 10  1  0
  1 11  1  0
  1 12  1  0
  2 13  1  0
  2 14  1  0
  3 15  1  0
  4 16  1  0
  7 17  1  0
  8 18  1  0
  8 19  1  0
  9 20  1  0
  9 21  1  0
 10 22  1  0
M  END
$$$$

     RDKit          3D

 22 21  0  0  0  0  0  0  0  0999 V2000
   -4.1229    0.4117   -0.8389 N   0  0  0  0  0  0  0  0  0  0  0  0
   -3.3894   -0.4611    0.0611 C   0  0  0  0  0  0  0  0  0  0  0  0
   -2.0430    0.0636    0.3652 C   0  0  0  0  0  0  0  0  0  0  0  0
   -0.9895   -0.6232    0.0695 C   0  0  0  0  0  0  0  0  0  0  0  0
    0.3859   -0.1903    0.3299 C   0  0  0  0  0  0  0  0  0  0  0  0
    0.5392    0.9260    0.8783 O   0  0  0  0  0  0  0  0  0  0  0  0
    1.5324   -0.9488    0.0027 N   0  0  0  0  0  0  0  0  0  0  0  0
    2.8894   -0.5961    0.2195 C   0  0  0  0  0  0  0  0  0  0  0  0
    3.3794    0.6360   -0.4646 C   0  0  0  0  0  0  0  0  0  0  0  0
    2.7403    1.8025   -0.1453 O   0  0  0  0  0  0  0  0  0  0  0  0
   -3.7705    1.3743   -0.7851 H   0  0  0  0  0  0  0  0  0  0  0  0
   -5.1244    0.2907   -0.6515 H   0  0  0  0  0  0  0  0  0  0  0  0
   -3.9608   -0.4287    1.0344 H   0  0  0  0  0  0  0  0  0  0  0  0
   -3.3076   -1.4819   -0.3270 H   0  0  0  0  0  0  0  0  0  0  0  0
   -1.9667    1.0278    0.8368 H   0  0  0  0  0  0  0  0  0  0  0  0
   -1.0873   -1.5952   -0.4067 H   0  0  0  0  0  0  0  0  0  0  0  0
    1.2975   -1.8850   -0.4578 H   0  0  0  0  0  0  0  0  0  0  0  0
    3.1601   -0.4814    1.3000 H   0  0  0  0  0  0  0  0  0  0  0  0
    3.5331   -1.4601   -0.1086 H   0  0  0  0  0  0  0  0  0  0  0  0
    3.3183    0.4971   -1.5867 H   0  0  0  0  0  0  0  0  0  0  0  0
    4.4815    0.7896   -0.2954 H   0  0  0  0  0  0  0  0  0  0  0  0
    2.5050    2.3325   -0.9449 H   0  0  0  0  0  0  0  0  0  0  0  0
  1  2  1  0
  2  3  1  0
  3  4  2  3
  4  5  1  0
  5  6  2  0
  5  7  1  0
  7  8  1  0
  8  9  1  0
  9 10  1  0
  1 11  1  0
  1 12  1  0
  2 13  1  0
  2 14  1  0
  3 15  1  0
  4 16  1  0
  7 17  1  0
  8 18  1  0
  8 19  1  0
  9 20  1  0
  9 21  1  0
 10 22  1  0
M  END
$$$$

     RDKit          3D

 22 21  0  0  0  0  0  0  0  0999 V2000
    3.7944    0.4706    1.0053 N   0  0  0  0  0  0  0  0  0  0  0  0
    2.7792    0.6337   -0.0340 C   0  0  0  0  0  0  0  0  0  0  0  0
    2.3001   -0.6668   -0.5356 C   0  0  0  0  0  0  0  0  0  0  0  0
    1.0811   -1.1128   -0.4968 C   0  0  0  0  0  0  0  0  0  0  0  0
   -0.0934   -0.4511    0.0420 C   0  0  0  0  0  0  0  0  0  0  0  0
   -0.1335    0.6778    0.5690 O   0  0  0  0  0  0  0  0  0  0  0  0
   -1.3812   -1.1113   -0.0044 N   0  0  0  0  0  0  0  0  0  0  0  0
   -2.5673   -0.5039    0.5117 C   0  0  0  0  0  0  0  0  0  0  0  0
   -2.9278    0.7938   -0.1421 C   0  0  0  0  0  0  0  0  0  0  0  0
   -3.1380    0.6039   -1.5015 O   0  0  0  0  0  0  0  0  0  0  0  0
    3.5285   -0.3027    1.6515 H   0  0  0  0  0  0  0  0  0  0  0  0
    3.8714    1.3969    1.4798 H   0  0  0  0  0  0  0  0  0  0  0  0
    3.2203    1.2071   -0.8938 H   0  0  0  0  0  0  0  0  0  0  0  0
    2.0076    1.2810    0.3753 H   0  0  0  0  0  0  0  0  0  0  0  0
    3.0789   -1.3250   -0.9936 H   0  0  0  0  0  0  0  0  0  0  0  0
    0.9373   -2.1293   -0.9351 H   0  0  0  0  0  0  0  0  0  0  0  0
   -1.4079   -2.0613   -0.4360 H   0  0  0  0  0  0  0  0  0  0  0  0
   -3.4162   -1.2013    0.3920 H   0  0  0  0  0  0  0  0  0  0  0  0
   -2.4681   -0.3352    1.6226 H   0  0  0  0  0  0  0  0  0  0  0  0
   -3.9169    1.1075    0.2826 H   0  0  0  0  0  0  0  0  0  0  0  0
   -2.2263    1.6152    0.0808 H   0  0  0  0  0  0  0  0  0  0  0  0
   -2.9221    1.4133   -2.0396 H   0  0  0  0  0  0  0  0  0  0  0  0
  1  2  1  0
  2  3  1  0
  3  4  2  3
  4  5  1  0
  5  6  2  0
  5  7  1  0
  7  8  1  0
  8  9  1  0
  9 10  1  0
  1 11  1  0
  1 12  1  0
  2 13  1  0
  2 14  1  0
  3 15  1  0
  4 16  1  0
  7 17  1  0
  8 18  1  0
  8 19  1  0
  9 20  1  0
  9 21  1  0
 10 22  1  0
M  END
$$$$

     RDKit          3D

 22 21  0  0  0  0  0  0  0  0999 V2000
   -3.8462    1.1298    0.7859 N   0  0  0  0  0  0  0  0  0  0  0  0
   -3.3108   -0.1994    0.5875 C   0  0  0  0  0  0  0  0  0  0  0  0
   -1.8384   -0.2182    0.4796 C   0  0  0  0  0  0  0  0  0  0  0  0
   -1.2771   -0.6763   -0.6167 C   0  0  0  0  0  0  0  0  0  0  0  0
    0.1588   -0.7481   -0.8471 C   0  0  0  0  0  0  0  0  0  0  0  0
    0.5600   -1.2207   -1.9705 O   0  0  0  0  0  0  0  0  0  0  0  0
    1.0842   -0.3149    0.1264 N   0  0  0  0  0  0  0  0  0  0  0  0
    2.5170   -0.4313   -0.2082 C   0  0  0  0  0  0  0  0  0  0  0  0
    3.3661    0.0718    0.9324 C   0  0  0  0  0  0  0  0  0  0  0  0
    3.0661    1.4093    1.1811 O   0  0  0  0  0  0  0  0  0  0  0  0
   -4.3383    1.4994   -0.0560 H   0  0  0  0  0  0  0  0  0  0  0  0
   -3.1586    1.7893    1.1695 H   0  0  0  0  0  0  0  0  0  0  0  0
   -3.5917   -0.8147    1.4657 H   0  0  0  0  0  0  0  0  0  0  0  0
   -3.7740   -0.6648   -0.2918 H   0  0  0  0  0  0  0  0  0  0  0  0
   -1.2012    0.1321    1.2716 H   0  0  0  0  0  0  0  0  0  0  0  0
   -1.9522   -1.0283   -1.4110 H   0  0  0  0  0  0  0  0  0  0  0  0
    0.7650    0.0613    1.0207 H   0  0  0  0  0  0  0  0  0  0  0  0
    2.7791   -1.4611   -0.5056 H   0  0  0  0  0  0  0  0  0  0  0  0
    2.6715    0.2357   -1.0784 H   0  0  0  0  0  0  0  0  0  0  0  0
    4.4226   -0.0694    0.6283 H   0  0  0  0  0  0  0  0  0  0  0  0
    3.1985   -0.4788    1.8681 H   0  0  0  0  0  0  0  0  0  0  0  0
    3.6996    1.9971    0.6705 H   0  0  0  0  0  0  0  0  0  0  0  0
  1  2  1  0
  2  3  1  0
  3  4  2  3
  4  5  1  0
  5  6  2  0
  5  7  1  0
  7  8  1  0
  8  9  1  0
  9 10  1  0
  1 11  1  0
  1 12  1  0
  2 13  1  0
  2 14  1  0
  3 15  1  0
  4 16  1  0
  7 17  1  0
  8 18  1  0
  8 19  1  0
  9 20  1  0
  9 21  1  0
 10 22  1  0
M  END
$$$$

     RDKit          3D

 22 21  0  0  0  0  0  0  0  0999 V2000
    4.4489   -0.1740    0.5245 N   0  0  0  0  0  0  0  0  0  0  0  0
    3.5924    0.4938   -0.4318 C   0  0  0  0  0  0  0  0  0  0  0  0
    2.2508    0.6535    0.1767 C   0  0  0  0  0  0  0  0  0  0  0  0
    1.1539    0.1328   -0.3415 C   0  0  0  0  0  0  0  0  0  0  0  0
   -0.1528    0.3062    0.2790 C   0  0  0  0  0  0  0  0  0  0  0  0
   -0.2342    0.9698    1.3359 O   0  0  0  0  0  0  0  0  0  0  0  0
   -1.3422   -0.2413   -0.2564 N   0  0  0  0  0  0  0  0  0  0  0  0
   -2.6420   -0.0596    0.3753 C   0  0  0  0  0  0  0  0  0  0  0  0
   -3.6921   -0.7608   -0.4372 C   0  0  0  0  0  0  0  0  0  0  0  0
   -4.9355   -0.5623    0.2056 O   0  0  0  0  0  0  0  0  0  0  0  0
    5.4335    0.1130    0.2874 H   0  0  0  0  0  0  0  0  0  0  0  0
    4.3307   -1.2189    0.4659 H   0  0  0  0  0  0  0  0  0  0  0  0
    3.5573   -0.0525   -1.3913 H   0  0  0  0  0  0  0  0  0  0  0  0
    3.9978    1.5371   -0.5619 H   0  0  0  0  0  0  0  0  0  0  0  0
    2.1571    1.2224    1.0892 H   0  0  0  0  0  0  0  0  0  0  0  0
    1.2563   -0.4359   -1.2562 H   0  0  0  0  0  0  0  0  0  0  0  0
   -1.2546   -0.7952   -1.1439 H   0  0  0  0  0  0  0  0  0  0  0  0
   -2.8530    1.0422    0.3356 H   0  0  0  0  0  0  0  0  0  0  0  0
   -2.6088   -0.3831    1.4165 H   0  0  0  0  0  0  0  0  0  0  0  0
   -3.7048   -0.2956   -1.4534 H   0  0  0  0  0  0  0  0  0  0  0  0
   -3.4828   -1.8370   -0.5376 H   0  0  0  0  0  0  0  0  0  0  0  0
   -5.2759    0.3456    0.0317 H   0  0  0  0  0  0  0  0  0  0  0  0
  1  2  1  0
  2  3  1  0
  3  4  2  3
  4  5  1  0
  5  6  2  0
  5  7  1  0
  7  8  1  0
  8  9  1  0
  9 10  1  0
  1 11  1  0
  1 12  1  0
  2 13  1  0
  2 14  1  0
  3 15  1  0
  4 16  1  0
  7 17  1  0
  8 18  1  0
  8 19  1  0
  9 20  1  0
  9 21  1  0
 10 22  1  0
M  END
$$$$

     RDKit          3D

 22 21  0  0  0  0  0  0  0  0999 V2000
    3.8478   -0.5520   -1.0536 N   0  0  0  0  0  0  0  0  0  0  0  0
    2.9756    0.5433   -1.4341 C   0  0  0  0  0  0  0  0  0  0  0  0
    1.6194    0.3668   -0.8567 C   0  0  0  0  0  0  0  0  0  0  0  0
    1.1051    1.2597   -0.0394 C   0  0  0  0  0  0  0  0  0  0  0  0
   -0.2067    1.1260    0.5422 C   0  0  0  0  0  0  0  0  0  0  0  0
   -0.6768    1.9951    1.3223 O   0  0  0  0  0  0  0  0  0  0  0  0
   -1.0178    0.0059    0.2552 N   0  0  0  0  0  0  0  0  0  0  0  0
   -2.3425   -0.0445    0.8953 C   0  0  0  0  0  0  0  0  0  0  0  0
   -3.0364   -1.3148    0.4553 C   0  0  0  0  0  0  0  0  0  0  0  0
   -3.2046   -1.3688   -0.9186 O   0  0  0  0  0  0  0  0  0  0  0  0
    3.3259   -1.4109   -0.7889 H   0  0  0  0  0  0  0  0  0  0  0  0
    4.4577   -0.3184   -0.2377 H   0  0  0  0  0  0  0  0  0  0  0  0
    3.4352    1.4665   -0.9772 H   0  0  0  0  0  0  0  0  0  0  0  0
    2.9578    0.7248   -2.5177 H   0  0  0  0  0  0  0  0  0  0  0  0
    1.0620   -0.5051   -1.1176 H   0  0  0  0  0  0  0  0  0  0  0  0
    1.6787    2.1640    0.2335 H   0  0  0  0  0  0  0  0  0  0  0  0
   -0.7410   -0.7782   -0.3739 H   0  0  0  0  0  0  0  0  0  0  0  0
   -2.9621    0.8104    0.5117 H   0  0  0  0  0  0  0  0  0  0  0  0
   -2.2894    0.0554    1.9767 H   0  0  0  0  0  0  0  0  0  0  0  0
   -3.9903   -1.4639    0.9707 H   0  0  0  0  0  0  0  0  0  0  0  0
   -2.3908   -2.2036    0.7184 H   0  0  0  0  0  0  0  0  0  0  0  0
   -3.6070   -0.5579   -1.2658 H   0  0  0  0  0  0  0  0  0  0  0  0
  1  2  1  0
  2  3  1  0
  3  4  2  3
  4  5  1  0
  5  6  2  0
  5  7  1  0
  7  8  1  0
  8  9  1  0
  9 10  1  0
  1 11  1  0
  1 12  1  0
  2 13  1  0
  2 14  1  0
  3 15  1  0
  4 16  1  0
  7 17  1  0
  8 18  1  0
  8 19  1  0
  9 20  1  0
  9 21  1  0
 10 22  1  0
M  END
$$$$
