
     RDKit          3D

 26 27  0  0  0  0  0  0  0  0999 V2000
   -1.6954    1.4113    0.1339 N   0  0  0  0  0  0  0  0  0  0  0  0
   -1.8024    0.3144   -0.8154 C   0  0  2  0  0  0  0  0  0  0  0  0
   -2.9266   -0.5786   -0.2806 C   0  0  0  0  0  0  0  0  0  0  0  0
   -2.3572   -1.5393    0.5067 O   0  0  0  0  0  0  0  0  0  0  0  0
   -0.9896   -1.2730    0.6410 C   0  0  0  0  0  0  0  0  0  0  0  0
   -0.6558   -0.6604   -0.6720 C   0  0  2  0  0  0  0  0  0  0  0  0
    0.6202   -0.1354   -0.8586 N   0  0  0  0  0  0  0  0  0  0  0  0
    1.0682    0.8692    0.0350 C   0  0  0  0  0  0  0  0  0  0  0  0
    2.5910    0.6620   -0.0224 C   0  0  1  0  0  0  0  0  0  0  0  0
    3.2302    1.1060    1.1042 O   0  0  0  0  0  0  0  0  0  0  0  0
    2.5900   -0.8698   -0.1402 C   0  0  0  0  0  0  0  0  0  0  0  0
    1.5231   -1.1137   -0.9600 O   0  0  0  0  0  0  0  0  0  0  0  0
   -2.1199    1.1588    1.0729 H   0  0  0  0  0  0  0  0  0  0  0  0
   -2.2960    2.1835   -0.2307 H   0  0  0  0  0  0  0  0  0  0  0  0
   -1.9782    0.6429   -1.8448 H   0  0  0  0  0  0  0  0  0  0  0  0
   -3.4110   -1.0035   -1.2029 H   0  0  0  0  0  0  0  0  0  0  0  0
   -3.6657    0.0130    0.2814 H   0  0  0  0  0  0  0  0  0  0  0  0
   -0.4307   -2.2206    0.7689 H   0  0  0  0  0  0  0  0  0  0  0  0
   -0.8781   -0.5697    1.4682 H   0  0  0  0  0  0  0  0  0  0  0  0
   -0.8320   -1.4470   -1.4578 H   0  0  0  0  0  0  0  0  0  0  0  0
    0.7419    0.7439    1.0681 H   0  0  0  0  0  0  0  0  0  0  0  0
    0.9118    1.9127   -0.3462 H   0  0  0  0  0  0  0  0  0  0  0  0
    3.0107    1.0274   -0.9744 H   0  0  0  0  0  0  0  0  0  0  0  0
    3.7578    1.9459    0.9288 H   0  0  0  0  0  0  0  0  0  0  0  0
    2.4842   -1.3295    0.8654 H   0  0  0  0  0  0  0  0  0  0  0  0
    3.5092   -1.2505   -0.5994 H   0  0  0  0  0  0  0  0  0  0  0  0
  1  2  1  0
  2  3  1  0
  3  4  1  0
  4  5  1  0
  5  6  1  0
  6  7  1  0
  7  8  1  0
  8  9  1  0
  9 10  1  0
  9 11  1  0
 11 12  1  0
  6  2  1  0
 12  7  1  0
  1 13  1  0
  1 14  1  0
  2 15  1  6
  3 16  1  0
  3 17  1  0
  5 18  1  0
  5 19  1  0
  6 20  1  6
  8 21  1  0
  8 22  1  0
  9 23  1  6
 10 24  1  0
 11 25  1  0
 11 26  1  0
M  END
$$$$

     RDKit          3D

 26 27  0  0  0  0  0  0  0  0999 V2000
   -1.6196   -1.7178   -0.4472 N   0  0  0  0  0  0  0  0  0  0  0  0
   -1.8283   -0.4366    0.0803 C   0  0  2  0  0  0  0  0  0  0  0  0
   -2.5311    0.5456   -0.8317 C   0  0  0  0  0  0  0  0  0  0  0  0
   -2.2995    1.7781   -0.2783 O   0  0  0  0  0  0  0  0  0  0  0  0
   -1.3305    1.7122    0.6858 C   0  0  0  0  0  0  0  0  0  0  0  0
   -0.6467    0.3392    0.5188 C   0  0  2  0  0  0  0  0  0  0  0  0
    0.4058    0.5354   -0.3870 N   0  0  0  0  0  0  0  0  0  0  0  0
    1.1316   -0.5302   -0.8939 C   0  0  0  0  0  0  0  0  0  0  0  0
    2.3909   -0.6640   -0.0387 C   0  0  1  0  0  0  0  0  0  0  0  0
    3.5440   -0.6377   -0.7805 O   0  0  0  0  0  0  0  0  0  0  0  0
    2.2620    0.5669    0.8240 C   0  0  0  0  0  0  0  0  0  0  0  0
    1.3171    1.3683    0.2188 O   0  0  0  0  0  0  0  0  0  0  0  0
   -2.4109   -2.0290   -1.0238 H   0  0  0  0  0  0  0  0  0  0  0  0
   -1.4944   -2.4083    0.3318 H   0  0  0  0  0  0  0  0  0  0  0  0
   -2.5019   -0.5314    0.9849 H   0  0  0  0  0  0  0  0  0  0  0  0
   -2.2384    0.4369   -1.8826 H   0  0  0  0  0  0  0  0  0  0  0  0
   -3.6310    0.3211   -0.7919 H   0  0  0  0  0  0  0  0  0  0  0  0
   -0.5946    2.5224    0.4849 H   0  0  0  0  0  0  0  0  0  0  0  0
   -1.7098    1.8531    1.6986 H   0  0  0  0  0  0  0  0  0  0  0  0
   -0.3385    0.0370    1.5292 H   0  0  0  0  0  0  0  0  0  0  0  0
    1.5114   -0.2668   -1.9240 H   0  0  0  0  0  0  0  0  0  0  0  0
    0.6873   -1.5062   -0.9723 H   0  0  0  0  0  0  0  0  0  0  0  0
    2.3384   -1.6087    0.5584 H   0  0  0  0  0  0  0  0  0  0  0  0
    4.2785   -1.0940   -0.3208 H   0  0  0  0  0  0  0  0  0  0  0  0
    2.0655    0.3062    1.8616 H   0  0  0  0  0  0  0  0  0  0  0  0
    3.2426    1.1081    0.7959 H   0  0  0  0  0  0  0  0  0  0  0  0
  1  2  1  0
  2  3  1  0
  3  4  1  0
  4  5  1  0
  5  6  1  0
  6  7  1  0
  7  8  1  0
  8  9  1  0
  9 10  1  0
  9 11  1  0
 11 12  1  0
  6  2  1  0
 12  7  1  0
  1 13  1  0
  1 14  1  0
  2 15  1  1
  3 16  1  0
  3 17  1  0
  5 18  1  0
  5 19  1  0
  6 20  1  1
  8 21  1  0
  8 22  1  0
  9 23  1  1
 10 24  1  0
 11 25  1  0
 11 26  1  0
M  END
$$$$

     RDKit          3D

 26 27  0  0  0  0  0  0  0  0999 V2000
   -1.6688    1.5532   -0.3534 N   0  0  0  0  0  0  0  0  0  0  0  0
   -1.8690    0.1826   -0.7880 C   0  0  2  0  0  0  0  0  0  0  0  0
   -2.7380   -0.5747    0.1843 C   0  0  0  0  0  0  0  0  0  0  0  0
   -2.0926   -1.7615    0.4867 O   0  0  0  0  0  0  0  0  0  0  0  0
   -0.7312   -1.5493    0.3153 C   0  0  0  0  0  0  0  0  0  0  0  0
   -0.6189   -0.6210   -0.8411 C   0  0  2  0  0  0  0  0  0  0  0  0
    0.5617    0.1688   -0.8937 N   0  0  0  0  0  0  0  0  0  0  0  0
    1.7778   -0.5534   -0.8267 C   0  0  0  0  0  0  0  0  0  0  0  0
    2.5226    0.0912    0.3090 C   0  0  1  0  0  0  0  0  0  0  0  0
    3.6941    0.6862   -0.1396 O   0  0  0  0  0  0  0  0  0  0  0  0
    1.5374    1.0956    0.8543 C   0  0  0  0  0  0  0  0  0  0  0  0
    0.5994    1.2459   -0.1412 O   0  0  0  0  0  0  0  0  0  0  0  0
   -2.5697    1.8311    0.1210 H   0  0  0  0  0  0  0  0  0  0  0  0
   -1.5342    2.2024   -1.1726 H   0  0  0  0  0  0  0  0  0  0  0  0
   -2.3204    0.2418   -1.7985 H   0  0  0  0  0  0  0  0  0  0  0  0
   -3.7063   -0.8372   -0.2878 H   0  0  0  0  0  0  0  0  0  0  0  0
   -2.9752    0.0269    1.0761 H   0  0  0  0  0  0  0  0  0  0  0  0
   -0.2645   -2.5320    0.1004 H   0  0  0  0  0  0  0  0  0  0  0  0
   -0.3261   -1.1813    1.2640 H   0  0  0  0  0  0  0  0  0  0  0  0
   -0.6360   -1.2520   -1.7697 H   0  0  0  0  0  0  0  0  0  0  0  0
    1.5679   -1.6345   -0.6273 H   0  0  0  0  0  0  0  0  0  0  0  0
    2.3742   -0.5381   -1.7742 H   0  0  0  0  0  0  0  0  0  0  0  0
    2.7513   -0.7053    1.0572 H   0  0  0  0  0  0  0  0  0  0  0  0
    3.5744    1.6617   -0.3060 H   0  0  0  0  0  0  0  0  0  0  0  0
    2.0331    2.0488    1.1531 H   0  0  0  0  0  0  0  0  0  0  0  0
    1.0569    0.7041    1.7755 H   0  0  0  0  0  0  0  0  0  0  0  0
  1  2  1  0
  2  3  1  0
  3  4  1  0
  4  5  1  0
  5  6  1  0
  6  7  1  0
  7  8  1  0
  8  9  1  0
  9 10  1  0
  9 11  1  0
 11 12  1  0
  6  2  1  0
 12  7  1  0
  1 13  1  0
  1 14  1  0
  2 15  1  6
  3 16  1  0
  3 17  1  0
  5 18  1  0
  5 19  1  0
  6 20  1  6
  8 21  1  0
  8 22  1  0
  9 23  1  1
 10 24  1  0
 11 25  1  0
 11 26  1  0
M  END
$$$$

     RDKit          3D

 26 27  0  0  0  0  0  0  0  0999 V2000
   -1.4358   -1.2977   -1.0408 N   0  0  0  0  0  0  0  0  0  0  0  0
   -1.8778   -0.5551    0.1020 C   0  0  2  0  0  0  0  0  0  0  0  0
   -2.8594    0.5416   -0.2792 C   0  0  0  0  0  0  0  0  0  0  0  0
   -2.7017    1.4476    0.7671 O   0  0  0  0  0  0  0  0  0  0  0  0
   -1.3315    1.6312    0.7722 C   0  0  0  0  0  0  0  0  0  0  0  0
   -0.7711    0.2047    0.7815 C   0  0  2  0  0  0  0  0  0  0  0  0
    0.4494    0.2468    0.0412 N   0  0  0  0  0  0  0  0  0  0  0  0
    1.0995   -0.9915   -0.1999 C   0  0  0  0  0  0  0  0  0  0  0  0
    2.6044   -0.6933   -0.0944 C   0  0  1  0  0  0  0  0  0  0  0  0
    3.2557   -0.9368   -1.2768 O   0  0  0  0  0  0  0  0  0  0  0  0
    2.5641    0.8166    0.1241 C   0  0  0  0  0  0  0  0  0  0  0  0
    1.3429    0.9353    0.7895 O   0  0  0  0  0  0  0  0  0  0  0  0
   -1.4244   -2.3141   -0.8114 H   0  0  0  0  0  0  0  0  0  0  0  0
   -2.1616   -1.1796   -1.7983 H   0  0  0  0  0  0  0  0  0  0  0  0
   -2.3882   -1.2067    0.8358 H   0  0  0  0  0  0  0  0  0  0  0  0
   -2.5020    0.9935   -1.2388 H   0  0  0  0  0  0  0  0  0  0  0  0
   -3.8997    0.1768   -0.3776 H   0  0  0  0  0  0  0  0  0  0  0  0
   -0.9749    2.2090    1.6472 H   0  0  0  0  0  0  0  0  0  0  0  0
   -1.0680    2.1234   -0.1850 H   0  0  0  0  0  0  0  0  0  0  0  0
   -0.6221   -0.1133    1.8272 H   0  0  0  0  0  0  0  0  0  0  0  0
    0.9012   -1.7845    0.5253 H   0  0  0  0  0  0  0  0  0  0  0  0
    0.9281   -1.3141   -1.2644 H   0  0  0  0  0  0  0  0  0  0  0  0
    3.0600   -1.1653    0.7972 H   0  0  0  0  0  0  0  0  0  0  0  0
    3.9921   -0.2851   -1.3576 H   0  0  0  0  0  0  0  0  0  0  0  0
    3.3734    1.1316    0.7791 H   0  0  0  0  0  0  0  0  0  0  0  0
    2.4473    1.3789   -0.8149 H   0  0  0  0  0  0  0  0  0  0  0  0
  1  2  1  0
  2  3  1  0
  3  4  1  0
  4  5  1  0
  5  6  1  0
  6  7  1  0
  7  8  1  0
  8  9  1  0
  9 10  1  0
  9 11  1  0
 11 12  1  0
  6  2  1  0
 12  7  1  0
  1 13  1  0
  1 14  1  0
  2 15  1  1
  3 16  1  0
  3 17  1  0
  5 18  1  0
  5 19  1  0
  6 20  1  1
  8 21  1  0
  8 22  1  0
  9 23  1  1
 10 24  1  0
 11 25  1  0
 11 26  1  0
M  END
$$$$

     RDKit          3D

 26 27  0  0  0  0  0  0  0  0999 V2000
   -1.9954    1.1043    0.7343 N   0  0  0  0  0  0  0  0  0  0  0  0
   -1.6677    0.5234   -0.5410 C   0  0  2  0  0  0  0  0  0  0  0  0
   -2.8334   -0.3541   -1.0011 C   0  0  0  0  0  0  0  0  0  0  0  0
   -2.6266   -1.6158   -0.4981 O   0  0  0  0  0  0  0  0  0  0  0  0
   -1.6010   -1.5419    0.4588 C   0  0  0  0  0  0  0  0  0  0  0  0
   -0.6469   -0.5874   -0.2619 C   0  0  2  0  0  0  0  0  0  0  0  0
    0.4367   -0.1527    0.5529 N   0  0  0  0  0  0  0  0  0  0  0  0
    1.6593   -0.8721    0.3160 C   0  0  0  0  0  0  0  0  0  0  0  0
    2.6866    0.2528    0.4781 C   0  0  1  0  0  0  0  0  0  0  0  0
    3.8712   -0.0129   -0.1566 O   0  0  0  0  0  0  0  0  0  0  0  0
    1.8779    1.3600   -0.2104 C   0  0  0  0  0  0  0  0  0  0  0  0
    0.6363    1.1490    0.3448 O   0  0  0  0  0  0  0  0  0  0  0  0
   -2.0346    2.1422    0.7263 H   0  0  0  0  0  0  0  0  0  0  0  0
   -1.3638    0.8349    1.5079 H   0  0  0  0  0  0  0  0  0  0  0  0
   -1.3336    1.2265   -1.2984 H   0  0  0  0  0  0  0  0  0  0  0  0
   -3.8044    0.0319   -0.6744 H   0  0  0  0  0  0  0  0  0  0  0  0
   -2.7632   -0.3505   -2.1195 H   0  0  0  0  0  0  0  0  0  0  0  0
   -1.1589   -2.5244    0.6318 H   0  0  0  0  0  0  0  0  0  0  0  0
   -2.0566   -1.0753    1.3496 H   0  0  0  0  0  0  0  0  0  0  0  0
   -0.3490   -1.0638   -1.2082 H   0  0  0  0  0  0  0  0  0  0  0  0
    1.6872   -1.1507   -0.7645 H   0  0  0  0  0  0  0  0  0  0  0  0
    1.8425   -1.7084    0.9939 H   0  0  0  0  0  0  0  0  0  0  0  0
    2.7736    0.5485    1.5320 H   0  0  0  0  0  0  0  0  0  0  0  0
    4.6211    0.3651    0.3791 H   0  0  0  0  0  0  0  0  0  0  0  0
    1.8856    1.1136   -1.2922 H   0  0  0  0  0  0  0  0  0  0  0  0
    2.2571    2.3580    0.0208 H   0  0  0  0  0  0  0  0  0  0  0  0
  1  2  1  0
  2  3  1  0
  3  4  1  0
  4  5  1  0
  5  6  1  0
  6  7  1  0
  7  8  1  0
  8  9  1  0
  9 10  1  0
  9 11  1  0
 11 12  1  0
  6  2  1  0
 12  7  1  0
  1 13  1  0
  1 14  1  0
  2 15  1  6
  3 16  1  0
  3 17  1  0
  5 18  1  0
  5 19  1  0
  6 20  1  6
  8 21  1  0
  8 22  1  0
  9 23  1  1
 10 24  1  0
 11 25  1  0
 11 26  1  0
M  END
$$$$

     RDKit          3D

 26 27  0  0  0  0  0  0  0  0999 V2000
   -1.3407    1.7795    0.4683 N   0  0  0  0  0  0  0  0  0  0  0  0
   -1.9322    0.5652   -0.0783 C   0  0  2  0  0  0  0  0  0  0  0  0
   -2.6713   -0.1340    1.0310 C   0  0  0  0  0  0  0  0  0  0  0  0
   -1.7630   -1.0599    1.5496 O   0  0  0  0  0  0  0  0  0  0  0  0
   -1.2132   -1.6207    0.4081 C   0  0  0  0  0  0  0  0  0  0  0  0
   -0.8527   -0.4443   -0.4554 C   0  0  2  0  0  0  0  0  0  0  0  0
    0.4670    0.0635   -0.2231 N   0  0  0  0  0  0  0  0  0  0  0  0
    1.3796   -0.1885   -1.3370 C   0  0  0  0  0  0  0  0  0  0  0  0
    2.6579    0.2940   -0.6553 C   0  0  1  0  0  0  0  0  0  0  0  0
    2.5635    1.6578   -0.4535 O   0  0  0  0  0  0  0  0  0  0  0  0
    2.4312   -0.3905    0.6892 C   0  0  0  0  0  0  0  0  0  0  0  0
    1.0613   -0.3902    0.8809 O   0  0  0  0  0  0  0  0  0  0  0  0
   -1.9978    2.1612    1.1964 H   0  0  0  0  0  0  0  0  0  0  0  0
   -1.2420    2.5155   -0.2589 H   0  0  0  0  0  0  0  0  0  0  0  0
   -2.5934    0.8038   -0.9320 H   0  0  0  0  0  0  0  0  0  0  0  0
   -3.5449   -0.6552    0.5709 H   0  0  0  0  0  0  0  0  0  0  0  0
   -3.0231    0.5577    1.8261 H   0  0  0  0  0  0  0  0  0  0  0  0
   -0.3444   -2.2708    0.6035 H   0  0  0  0  0  0  0  0  0  0  0  0
   -1.9900   -2.1992   -0.1495 H   0  0  0  0  0  0  0  0  0  0  0  0
   -0.9880   -0.6959   -1.5195 H   0  0  0  0  0  0  0  0  0  0  0  0
    1.4487   -1.2722   -1.5044 H   0  0  0  0  0  0  0  0  0  0  0  0
    1.1176    0.4016   -2.2178 H   0  0  0  0  0  0  0  0  0  0  0  0
    3.5647   -0.0400   -1.1617 H   0  0  0  0  0  0  0  0  0  0  0  0
    3.0767    1.9427    0.3502 H   0  0  0  0  0  0  0  0  0  0  0  0
    3.0020    0.0762    1.5018 H   0  0  0  0  0  0  0  0  0  0  0  0
    2.7265   -1.4571    0.5196 H   0  0  0  0  0  0  0  0  0  0  0  0
  1  2  1  0
  2  3  1  0
  3  4  1  0
  4  5  1  0
  5  6  1  0
  6  7  1  0
  7  8  1  0
  8  9  1  0
  9 10  1  0
  9 11  1  0
 11 12  1  0
  6  2  1  0
 12  7  1  0
  1 13  1  0
  1 14  1  0
  2 15  1  6
  3 16  1  0
  3 17  1  0
  5 18  1  0
  5 19  1  0
  6 20  1  6
  8 21  1  0
  8 22  1  0
  9 23  1  6
 10 24  1  0
 11 25  1  0
 11 26  1  0
M  END
$$$$

     RDKit          3D

 26 27  0  0  0  0  0  0  0  0999 V2000
   -2.0532    0.8592    1.4681 N   0  0  0  0  0  0  0  0  0  0  0  0
   -2.0355    0.4710    0.0878 C   0  0  2  0  0  0  0  0  0  0  0  0
   -2.6774   -0.9098   -0.1067 C   0  0  0  0  0  0  0  0  0  0  0  0
   -2.2280   -1.2093   -1.4027 O   0  0  0  0  0  0  0  0  0  0  0  0
   -0.8412   -1.0653   -1.2260 C   0  0  0  0  0  0  0  0  0  0  0  0
   -0.6643    0.2328   -0.4677 C   0  0  2  0  0  0  0  0  0  0  0  0
    0.3446    0.0178    0.5377 N   0  0  0  0  0  0  0  0  0  0  0  0
    1.5385   -0.4536   -0.1811 C   0  0  0  0  0  0  0  0  0  0  0  0
    2.5739   -0.2477    0.9355 C   0  0  1  0  0  0  0  0  0  0  0  0
    3.8298   -0.1719    0.3922 O   0  0  0  0  0  0  0  0  0  0  0  0
    2.0602    1.1102    1.4346 C   0  0  0  0  0  0  0  0  0  0  0  0
    0.7002    1.1060    1.2114 O   0  0  0  0  0  0  0  0  0  0  0  0
   -2.9993    0.5905    1.8495 H   0  0  0  0  0  0  0  0  0  0  0  0
   -2.0178    1.9086    1.5480 H   0  0  0  0  0  0  0  0  0  0  0  0
   -2.5784    1.1871   -0.5646 H   0  0  0  0  0  0  0  0  0  0  0  0
   -3.7675   -0.8784   -0.0350 H   0  0  0  0  0  0  0  0  0  0  0  0
   -2.1887   -1.6085    0.5875 H   0  0  0  0  0  0  0  0  0  0  0  0
   -0.5481   -1.9165   -0.5571 H   0  0  0  0  0  0  0  0  0  0  0  0
   -0.2990   -1.0634   -2.1830 H   0  0  0  0  0  0  0  0  0  0  0  0
   -0.3662    1.0417   -1.1959 H   0  0  0  0  0  0  0  0  0  0  0  0
    1.7191    0.2452   -1.0083 H   0  0  0  0  0  0  0  0  0  0  0  0
    1.4465   -1.5059   -0.4662 H   0  0  0  0  0  0  0  0  0  0  0  0
    2.4356   -1.0376    1.6878 H   0  0  0  0  0  0  0  0  0  0  0  0
    3.7544    0.1307   -0.5462 H   0  0  0  0  0  0  0  0  0  0  0  0
    2.4971    1.8519    0.7093 H   0  0  0  0  0  0  0  0  0  0  0  0
    2.3647    1.3154    2.4621 H   0  0  0  0  0  0  0  0  0  0  0  0
  1  2  1  0
  2  3  1  0
  3  4  1  0
  4  5  1  0
  5  6  1  0
  6  7  1  0
  7  8  1  0
  8  9  1  0
  9 10  1  0
  9 11  1  0
 11 12  1  0
  6  2  1  0
 12  7  1  0
  1 13  1  0
  1 14  1  0
  2 15  1  6
  3 16  1  0
  3 17  1  0
  5 18  1  0
  5 19  1  0
  6 20  1  6
  8 21  1  0
  8 22  1  0
  9 23  1  1
 10 24  1  0
 11 25  1  0
 11 26  1  0
M  END
$$$$

     RDKit          3D

 26 27  0  0  0  0  0  0  0  0999 V2000
    1.7746   -1.6866    0.2958 N   0  0  0  0  0  0  0  0  0  0  0  0
    1.8909   -0.4917   -0.4726 C   0  0  2  0  0  0  0  0  0  0  0  0
    2.9864    0.3434    0.1922 C   0  0  0  0  0  0  0  0  0  0  0  0
    2.2976    0.8535    1.2934 O   0  0  0  0  0  0  0  0  0  0  0  0
    1.1804    1.4268    0.6883 C   0  0  0  0  0  0  0  0  0  0  0  0
    0.6772    0.3998   -0.2898 C   0  0  2  0  0  0  0  0  0  0  0  0
   -0.4197   -0.3256    0.3454 N   0  0  0  0  0  0  0  0  0  0  0  0
   -1.4423    0.6601    0.6347 C   0  0  0  0  0  0  0  0  0  0  0  0
   -2.7134    0.0043    0.1719 C   0  0  1  0  0  0  0  0  0  0  0  0
   -3.0900    0.5267   -1.0522 O   0  0  0  0  0  0  0  0  0  0  0  0
   -2.2419   -1.4251   -0.0727 C   0  0  0  0  0  0  0  0  0  0  0  0
   -0.9492   -1.1821   -0.5626 O   0  0  0  0  0  0  0  0  0  0  0  0
    1.9335   -2.5678   -0.1955 H   0  0  0  0  0  0  0  0  0  0  0  0
    1.0847   -1.6825    1.0523 H   0  0  0  0  0  0  0  0  0  0  0  0
    2.0990   -0.6662   -1.5451 H   0  0  0  0  0  0  0  0  0  0  0  0
    3.3252    1.1378   -0.4845 H   0  0  0  0  0  0  0  0  0  0  0  0
    3.8211   -0.3241    0.4793 H   0  0  0  0  0  0  0  0  0  0  0  0
    0.4189    1.7091    1.4330 H   0  0  0  0  0  0  0  0  0  0  0  0
    1.5047    2.3210    0.0999 H   0  0  0  0  0  0  0  0  0  0  0  0
    0.3813    0.8341   -1.2617 H   0  0  0  0  0  0  0  0  0  0  0  0
   -1.3083    1.6028    0.0840 H   0  0  0  0  0  0  0  0  0  0  0  0
   -1.4833    0.8515    1.7299 H   0  0  0  0  0  0  0  0  0  0  0  0
   -3.5241    0.0597    0.9135 H   0  0  0  0  0  0  0  0  0  0  0  0
   -3.1233    1.5198   -0.9514 H   0  0  0  0  0  0  0  0  0  0  0  0
   -2.2111   -1.9558    0.9101 H   0  0  0  0  0  0  0  0  0  0  0  0
   -2.8688   -1.9428   -0.8116 H   0  0  0  0  0  0  0  0  0  0  0  0
  1  2  1  0
  2  3  1  0
  3  4  1  0
  4  5  1  0
  5  6  1  0
  6  7  1  0
  7  8  1  0
  8  9  1  0
  9 10  1  0
  9 11  1  0
 11 12  1  0
  6  2  1  0
 12  7  1  0
  1 13  1  0
  1 14  1  0
  2 15  1  6
  3 16  1  0
  3 17  1  0
  5 18  1  0
  5 19  1  0
  6 20  1  6
  8 21  1  0
  8 22  1  0
  9 23  1  1
 10 24  1  0
 11 25  1  0
 11 26  1  0
M  END
$$$$
