
     RDKit          3D

 25 26  0  0  0  0  0  0  0  0999 V2000
    1.5257    1.3367    1.4734 O   0  0  0  0  0  0  0  0  0  0  0  0
    1.7621    0.6170    0.3489 C   0  0  1  0  0  0  0  0  0  0  0  0
    2.0928   -0.8471    0.6288 C   0  0  0  0  0  0  0  0  0  0  0  0
    1.9392   -1.4870   -0.6644 N   0  0  0  0  0  0  0  0  0  0  0  0
    1.2391   -0.5938   -1.5382 C   0  0  0  0  0  0  0  0  0  0  0  0
    0.5894    0.4273   -0.5836 C   0  0  1  0  0  0  0  0  0  0  0  0
   -0.5471   -0.1923   -0.0282 N   0  0  0  0  0  0  0  0  0  0  0  0
   -1.1587    0.5580    1.0028 C   0  0  0  0  0  0  0  0  0  0  0  0
   -2.5979    0.6911    0.5062 C   0  0  0  0  0  0  0  0  0  0  0  0
   -2.6824   -0.5577   -0.3447 C   0  0  0  0  0  0  0  0  0  0  0  0
   -1.4032   -0.6978   -0.8815 O   0  0  0  0  0  0  0  0  0  0  0  0
    2.0832    2.1609    1.4550 H   0  0  0  0  0  0  0  0  0  0  0  0
    2.5861    1.0132   -0.2876 H   0  0  0  0  0  0  0  0  0  0  0  0
    3.1045   -0.9502    1.0145 H   0  0  0  0  0  0  0  0  0  0  0  0
    1.3132   -1.2736    1.2978 H   0  0  0  0  0  0  0  0  0  0  0  0
    1.5031   -2.4180   -0.5434 H   0  0  0  0  0  0  0  0  0  0  0  0
    1.9968    0.0153   -2.1135 H   0  0  0  0  0  0  0  0  0  0  0  0
    0.4968   -1.0727   -2.1943 H   0  0  0  0  0  0  0  0  0  0  0  0
    0.3863    1.3758   -1.1252 H   0  0  0  0  0  0  0  0  0  0  0  0
   -1.2134   -0.0238    1.9567 H   0  0  0  0  0  0  0  0  0  0  0  0
   -0.7154    1.5633    1.1667 H   0  0  0  0  0  0  0  0  0  0  0  0
   -3.3327    0.7204    1.3173 H   0  0  0  0  0  0  0  0  0  0  0  0
   -2.6605    1.5675   -0.1726 H   0  0  0  0  0  0  0  0  0  0  0  0
   -2.8424   -1.4105    0.3457 H   0  0  0  0  0  0  0  0  0  0  0  0
   -3.4646   -0.5219   -1.1206 H   0  0  0  0  0  0  0  0  0  0  0  0
  1  2  1  0
  2  3  1  0
  3  4  1  0
  4  5  1  0
  5  6  1  0
  6  7  1  0
  7  8  1  0
  8  9  1  0
  9 10  1  0
 10 11  1  0
  6  2  1  0
 11  7  1  0
  1 12  1  0
  2 13  1  6
  3 14  1  0
  3 15  1  0
  4 16  1  0
  5 17  1  0
  5 18  1  0
  6 19  1  6
  8 20  1  0
  8 21  1  0
  9 22  1  0
  9 23  1  0
 10 24  1  0
 10 25  1  0
M  END
$$$$

     RDKit          3D

 25 26  0  0  0  0  0  0  0  0999 V2000
   -0.4287    1.4807    0.4323 O   0  0  0  0  0  0  0  0  0  0  0  0
   -1.0208    0.3317    0.9410 C   0  0  1  0  0  0  0  0  0  0  0  0
   -2.5145    0.4424    0.6537 C   0  0  0  0  0  0  0  0  0  0  0  0
   -2.5351    0.2100   -0.7848 N   0  0  0  0  0  0  0  0  0  0  0  0
   -1.6327   -0.8852   -0.9834 C   0  0  0  0  0  0  0  0  0  0  0  0
   -0.6611   -0.9029    0.1691 C   0  0  1  0  0  0  0  0  0  0  0  0
    0.6855   -0.8836   -0.3436 N   0  0  0  0  0  0  0  0  0  0  0  0
    1.6837   -0.8338    0.6852 C   0  0  0  0  0  0  0  0  0  0  0  0
    2.5830    0.3127    0.2698 C   0  0  0  0  0  0  0  0  0  0  0  0
    2.2504    0.4084   -1.2047 C   0  0  0  0  0  0  0  0  0  0  0  0
    0.9142    0.0844   -1.2179 O   0  0  0  0  0  0  0  0  0  0  0  0
   -1.0823    2.2200    0.5713 H   0  0  0  0  0  0  0  0  0  0  0  0
   -0.8823    0.2443    2.0199 H   0  0  0  0  0  0  0  0  0  0  0  0
   -3.0453   -0.3935    1.1382 H   0  0  0  0  0  0  0  0  0  0  0  0
   -2.8913    1.4400    0.9272 H   0  0  0  0  0  0  0  0  0  0  0  0
   -2.1702    1.0569   -1.2815 H   0  0  0  0  0  0  0  0  0  0  0  0
   -1.0919   -0.7032   -1.9553 H   0  0  0  0  0  0  0  0  0  0  0  0
   -2.1749   -1.8608   -1.0682 H   0  0  0  0  0  0  0  0  0  0  0  0
   -0.8194   -1.7812    0.8260 H   0  0  0  0  0  0  0  0  0  0  0  0
    1.2669   -0.6739    1.6991 H   0  0  0  0  0  0  0  0  0  0  0  0
    2.3022   -1.7536    0.6318 H   0  0  0  0  0  0  0  0  0  0  0  0
    3.6572    0.0579    0.4269 H   0  0  0  0  0  0  0  0  0  0  0  0
    2.3001    1.2637    0.7597 H   0  0  0  0  0  0  0  0  0  0  0  0
    2.4207    1.4361   -1.5765 H   0  0  0  0  0  0  0  0  0  0  0  0
    2.8866   -0.3172   -1.7352 H   0  0  0  0  0  0  0  0  0  0  0  0
  1  2  1  0
  2  3  1  0
  3  4  1  0
  4  5  1  0
  5  6  1  0
  6  7  1  0
  7  8  1  0
  8  9  1  0
  9 10  1  0
 10 11  1  0
  6  2  1  0
 11  7  1  0
  1 12  1  0
  2 13  1  1
  3 14  1  0
  3 15  1  0
  4 16  1  0
  5 17  1  0
  5 18  1  0
  6 19  1  1
  8 20  1  0
  8 21  1  0
  9 22  1  0
  9 23  1  0
 10 24  1  0
 10 25  1  0
M  END
$$$$

     RDKit          3D

 25 26  0  0  0  0  0  0  0  0999 V2000
    1.6360   -1.7635    0.7280 O   0  0  0  0  0  0  0  0  0  0  0  0
    1.7544   -0.3757    0.6611 C   0  0  1  0  0  0  0  0  0  0  0  0
    2.7115    0.0544   -0.4294 C   0  0  0  0  0  0  0  0  0  0  0  0
    2.2549    1.3834   -0.7730 N   0  0  0  0  0  0  0  0  0  0  0  0
    0.8235    1.1685   -0.9087 C   0  0  0  0  0  0  0  0  0  0  0  0
    0.4602    0.2943    0.2577 C   0  0  1  0  0  0  0  0  0  0  0  0
   -0.5824   -0.6481   -0.0467 N   0  0  0  0  0  0  0  0  0  0  0  0
   -1.5018   -0.2130   -1.0530 C   0  0  0  0  0  0  0  0  0  0  0  0
   -2.8819   -0.2045   -0.4086 C   0  0  0  0  0  0  0  0  0  0  0  0
   -2.5109   -0.5151    1.0248 C   0  0  0  0  0  0  0  0  0  0  0  0
   -1.2574   -1.0881    1.0131 O   0  0  0  0  0  0  0  0  0  0  0  0
    2.5711   -2.1111    0.7990 H   0  0  0  0  0  0  0  0  0  0  0  0
    2.1419    0.0234    1.6095 H   0  0  0  0  0  0  0  0  0  0  0  0
    2.7354   -0.6363   -1.2838 H   0  0  0  0  0  0  0  0  0  0  0  0
    3.7274    0.1200   -0.0188 H   0  0  0  0  0  0  0  0  0  0  0  0
    2.4061    1.9881    0.0707 H   0  0  0  0  0  0  0  0  0  0  0  0
    0.6693    0.6908   -1.8907 H   0  0  0  0  0  0  0  0  0  0  0  0
    0.3057    2.1290   -0.7869 H   0  0  0  0  0  0  0  0  0  0  0  0
    0.1142    0.9103    1.1248 H   0  0  0  0  0  0  0  0  0  0  0  0
   -1.5161   -0.9942   -1.8500 H   0  0  0  0  0  0  0  0  0  0  0  0
   -1.3157    0.7960   -1.4486 H   0  0  0  0  0  0  0  0  0  0  0  0
   -3.5275   -1.0124   -0.8332 H   0  0  0  0  0  0  0  0  0  0  0  0
   -3.3649    0.7992   -0.5083 H   0  0  0  0  0  0  0  0  0  0  0  0
   -3.2926   -1.2028    1.4310 H   0  0  0  0  0  0  0  0  0  0  0  0
   -2.5603    0.4075    1.6347 H   0  0  0  0  0  0  0  0  0  0  0  0
  1  2  1  0
  2  3  1  0
  3  4  1  0
  4  5  1  0
  5  6  1  0
  6  7  1  0
  7  8  1  0
  8  9  1  0
  9 10  1  0
 10 11  1  0
  6  2  1  0
 11  7  1  0
  1 12  1  0
  2 13  1  1
  3 14  1  0
  3 15  1  0
  4 16  1  0
  5 17  1  0
  5 18  1  0
  6 19  1  1
  8 20  1  0
  8 21  1  0
  9 22  1  0
  9 23  1  0
 10 24  1  0
 10 25  1  0
M  END
$$$$

     RDKit          3D

 25 26  0  0  0  0  0  0  0  0999 V2000
   -1.5360    1.0442   -1.5946 O   0  0  0  0  0  0  0  0  0  0  0  0
   -1.7920    0.7410   -0.2719 C   0  0  1  0  0  0  0  0  0  0  0  0
   -2.6901   -0.4803   -0.1167 C   0  0  0  0  0  0  0  0  0  0  0  0
   -2.3040   -0.9105    1.2266 N   0  0  0  0  0  0  0  0  0  0  0  0
   -0.8538   -0.9759    1.0540 C   0  0  0  0  0  0  0  0  0  0  0  0
   -0.5256    0.3908    0.5008 C   0  0  1  0  0  0  0  0  0  0  0  0
    0.6201    0.3872   -0.3720 N   0  0  0  0  0  0  0  0  0  0  0  0
    1.7429    1.1212    0.1337 C   0  0  0  0  0  0  0  0  0  0  0  0
    2.8482    0.0714    0.1689 C   0  0  0  0  0  0  0  0  0  0  0  0
    2.3790   -0.7895   -1.0000 C   0  0  0  0  0  0  0  0  0  0  0  0
    1.0201   -0.8313   -0.7425 O   0  0  0  0  0  0  0  0  0  0  0  0
   -2.1793    0.6477   -2.2318 H   0  0  0  0  0  0  0  0  0  0  0  0
   -2.3310    1.5938    0.1708 H   0  0  0  0  0  0  0  0  0  0  0  0
   -2.3632   -1.2892   -0.7946 H   0  0  0  0  0  0  0  0  0  0  0  0
   -3.7579   -0.2345   -0.1904 H   0  0  0  0  0  0  0  0  0  0  0  0
   -2.5029   -0.0789    1.8434 H   0  0  0  0  0  0  0  0  0  0  0  0
   -0.6889   -1.7194    0.2422 H   0  0  0  0  0  0  0  0  0  0  0  0
   -0.3263   -1.2140    1.9869 H   0  0  0  0  0  0  0  0  0  0  0  0
   -0.4047    1.1048    1.3358 H   0  0  0  0  0  0  0  0  0  0  0  0
    1.5800    1.5972    1.1090 H   0  0  0  0  0  0  0  0  0  0  0  0
    2.0517    1.8430   -0.6635 H   0  0  0  0  0  0  0  0  0  0  0  0
    2.7945   -0.5141    1.1108 H   0  0  0  0  0  0  0  0  0  0  0  0
    3.8449    0.5007    0.0034 H   0  0  0  0  0  0  0  0  0  0  0  0
    2.5541   -0.2130   -1.9195 H   0  0  0  0  0  0  0  0  0  0  0  0
    2.8203   -1.7925   -0.9887 H   0  0  0  0  0  0  0  0  0  0  0  0
  1  2  1  0
  2  3  1  0
  3  4  1  0
  4  5  1  0
  5  6  1  0
  6  7  1  0
  7  8  1  0
  8  9  1  0
  9 10  1  0
 10 11  1  0
  6  2  1  0
 11  7  1  0
  1 12  1  0
  2 13  1  1
  3 14  1  0
  3 15  1  0
  4 16  1  0
  5 17  1  0
  5 18  1  0
  6 19  1  1
  8 20  1  0
  8 21  1  0
  9 22  1  0
  9 23  1  0
 10 24  1  0
 10 25  1  0
M  END
$$$$

     RDKit          3D

 25 26  0  0  0  0  0  0  0  0999 V2000
   -0.6119    2.1082   -0.1851 O   0  0  0  0  0  0  0  0  0  0  0  0
   -1.3965    1.0177    0.2248 C   0  0  1  0  0  0  0  0  0  0  0  0
   -2.3527    0.5731   -0.8455 C   0  0  0  0  0  0  0  0  0  0  0  0
   -2.6690   -0.7693   -0.4349 N   0  0  0  0  0  0  0  0  0  0  0  0
   -1.4823   -1.3352    0.1351 C   0  0  0  0  0  0  0  0  0  0  0  0
   -0.5211   -0.1974    0.4302 C   0  0  1  0  0  0  0  0  0  0  0  0
    0.5370   -0.2673   -0.5236 N   0  0  0  0  0  0  0  0  0  0  0  0
    1.5437   -1.2343   -0.2614 C   0  0  0  0  0  0  0  0  0  0  0  0
    2.8432   -0.4429   -0.1083 C   0  0  0  0  0  0  0  0  0  0  0  0
    2.3227    0.9835   -0.2637 C   0  0  0  0  0  0  0  0  0  0  0  0
    1.0886    0.8767   -0.8922 O   0  0  0  0  0  0  0  0  0  0  0  0
   -1.0648    2.7069   -0.8097 H   0  0  0  0  0  0  0  0  0  0  0  0
   -1.9030    1.2870    1.1549 H   0  0  0  0  0  0  0  0  0  0  0  0
   -3.2533    1.2148   -0.9202 H   0  0  0  0  0  0  0  0  0  0  0  0
   -1.7830    0.5180   -1.7926 H   0  0  0  0  0  0  0  0  0  0  0  0
   -3.5021   -0.8334    0.1895 H   0  0  0  0  0  0  0  0  0  0  0  0
   -1.6603   -1.9693    1.0173 H   0  0  0  0  0  0  0  0  0  0  0  0
   -1.0601   -2.0338   -0.6449 H   0  0  0  0  0  0  0  0  0  0  0  0
   -0.1350   -0.2830    1.4474 H   0  0  0  0  0  0  0  0  0  0  0  0
    1.6285   -1.9824   -1.0642 H   0  0  0  0  0  0  0  0  0  0  0  0
    1.3501   -1.6988    0.7353 H   0  0  0  0  0  0  0  0  0  0  0  0
    3.2847   -0.5621    0.8960 H   0  0  0  0  0  0  0  0  0  0  0  0
    3.5281   -0.6849   -0.9349 H   0  0  0  0  0  0  0  0  0  0  0  0
    3.0465    1.5484   -0.8774 H   0  0  0  0  0  0  0  0  0  0  0  0
    2.2219    1.4599    0.7527 H   0  0  0  0  0  0  0  0  0  0  0  0
  1  2  1  0
  2  3  1  0
  3  4  1  0
  4  5  1  0
  5  6  1  0
  6  7  1  0
  7  8  1  0
  8  9  1  0
  9 10  1  0
 10 11  1  0
  6  2  1  0
 11  7  1  0
  1 12  1  0
  2 13  1  1
  3 14  1  0
  3 15  1  0
  4 16  1  0
  5 17  1  0
  5 18  1  0
  6 19  1  1
  8 20  1  0
  8 21  1  0
  9 22  1  0
  9 23  1  0
 10 24  1  0
 10 25  1  0
M  END
$$$$

     RDKit          3D

 25 26  0  0  0  0  0  0  0  0999 V2000
   -1.6590   -0.1759   -1.5879 O   0  0  0  0  0  0  0  0  0  0  0  0
   -1.4881    0.7430   -0.5695 C   0  0  1  0  0  0  0  0  0  0  0  0
   -2.6962    0.7128    0.3671 C   0  0  0  0  0  0  0  0  0  0  0  0
   -2.6385   -0.6252    0.8959 N   0  0  0  0  0  0  0  0  0  0  0  0
   -1.2443   -1.0257    0.9001 C   0  0  0  0  0  0  0  0  0  0  0  0
   -0.4585    0.1377    0.3974 C   0  0  1  0  0  0  0  0  0  0  0  0
    0.6895   -0.2324   -0.4004 N   0  0  0  0  0  0  0  0  0  0  0  0
    1.7420   -0.8143    0.3626 C   0  0  0  0  0  0  0  0  0  0  0  0
    3.0156   -0.2157   -0.1905 C   0  0  0  0  0  0  0  0  0  0  0  0
    2.4793    0.8287   -1.1332 C   0  0  0  0  0  0  0  0  0  0  0  0
    1.1239    0.8650   -1.0030 O   0  0  0  0  0  0  0  0  0  0  0  0
   -2.5973   -0.4880   -1.6710 H   0  0  0  0  0  0  0  0  0  0  0  0
   -1.2190    1.7435   -0.8866 H   0  0  0  0  0  0  0  0  0  0  0  0
   -2.4527    1.4715    1.1670 H   0  0  0  0  0  0  0  0  0  0  0  0
   -3.6222    0.9653   -0.1423 H   0  0  0  0  0  0  0  0  0  0  0  0
   -3.0478   -0.6204    1.8567 H   0  0  0  0  0  0  0  0  0  0  0  0
   -0.9259   -1.4089    1.8779 H   0  0  0  0  0  0  0  0  0  0  0  0
   -1.1640   -1.8729    0.1682 H   0  0  0  0  0  0  0  0  0  0  0  0
   -0.2339    0.8182    1.2196 H   0  0  0  0  0  0  0  0  0  0  0  0
    1.7962   -1.9189    0.1367 H   0  0  0  0  0  0  0  0  0  0  0  0
    1.6891   -0.6622    1.4406 H   0  0  0  0  0  0  0  0  0  0  0  0
    3.6409    0.2472    0.5759 H   0  0  0  0  0  0  0  0  0  0  0  0
    3.6238   -0.9440   -0.7597 H   0  0  0  0  0  0  0  0  0  0  0  0
    2.7717    0.6316   -2.1685 H   0  0  0  0  0  0  0  0  0  0  0  0
    2.8753    1.8401   -0.8242 H   0  0  0  0  0  0  0  0  0  0  0  0
  1  2  1  0
  2  3  1  0
  3  4  1  0
  4  5  1  0
  5  6  1  0
  6  7  1  0
  7  8  1  0
  8  9  1  0
  9 10  1  0
 10 11  1  0
  6  2  1  0
 11  7  1  0
  1 12  1  0
  2 13  1  6
  3 14  1  0
  3 15  1  0
  4 16  1  0
  5 17  1  0
  5 18  1  0
  6 19  1  1
  8 20  1  0
  8 21  1  0
  9 22  1  0
  9 23  1  0
 10 24  1  0
 10 25  1  0
M  END
$$$$

     RDKit          3D

 25 26  0  0  0  0  0  0  0  0999 V2000
   -1.3434    0.7105    1.9251 O   0  0  0  0  0  0  0  0  0  0  0  0
   -1.6719   -0.0749    0.8336 C   0  0  1  0  0  0  0  0  0  0  0  0
   -2.3960    0.6630   -0.2501 C   0  0  0  0  0  0  0  0  0  0  0  0
   -2.2441   -0.1648   -1.4148 N   0  0  0  0  0  0  0  0  0  0  0  0
   -1.0802   -0.9841   -1.2446 C   0  0  0  0  0  0  0  0  0  0  0  0
   -0.4826   -0.6391    0.1152 C   0  0  1  0  0  0  0  0  0  0  0  0
    0.5590    0.3299   -0.1326 N   0  0  0  0  0  0  0  0  0  0  0  0
    1.6725   -0.3832   -0.7158 C   0  0  0  0  0  0  0  0  0  0  0  0
    2.8338   -0.0257    0.2199 C   0  0  0  0  0  0  0  0  0  0  0  0
    2.3162    1.3364    0.7118 C   0  0  0  0  0  0  0  0  0  0  0  0
    0.9711    0.9746    0.9488 O   0  0  0  0  0  0  0  0  0  0  0  0
   -1.7940    0.3190    2.7273 H   0  0  0  0  0  0  0  0  0  0  0  0
   -2.3145   -0.9419    1.1255 H   0  0  0  0  0  0  0  0  0  0  0  0
   -1.9373    1.6588   -0.3464 H   0  0  0  0  0  0  0  0  0  0  0  0
   -3.4817    0.7584   -0.0239 H   0  0  0  0  0  0  0  0  0  0  0  0
   -3.0666   -0.8127   -1.4933 H   0  0  0  0  0  0  0  0  0  0  0  0
   -0.3674   -0.7385   -2.0710 H   0  0  0  0  0  0  0  0  0  0  0  0
   -1.2979   -2.0710   -1.3250 H   0  0  0  0  0  0  0  0  0  0  0  0
   -0.0539   -1.5413    0.5975 H   0  0  0  0  0  0  0  0  0  0  0  0
    1.8587    0.0419   -1.7280 H   0  0  0  0  0  0  0  0  0  0  0  0
    1.5187   -1.4738   -0.7395 H   0  0  0  0  0  0  0  0  0  0  0  0
    2.8092   -0.7060    1.0804 H   0  0  0  0  0  0  0  0  0  0  0  0
    3.7862    0.0516   -0.2955 H   0  0  0  0  0  0  0  0  0  0  0  0
    2.3925    2.0551   -0.1322 H   0  0  0  0  0  0  0  0  0  0  0  0
    2.8136    1.6580    1.6275 H   0  0  0  0  0  0  0  0  0  0  0  0
  1  2  1  0
  2  3  1  0
  3  4  1  0
  4  5  1  0
  5  6  1  0
  6  7  1  0
  7  8  1  0
  8  9  1  0
  9 10  1  0
 10 11  1  0
  6  2  1  0
 11  7  1  0
  1 12  1  0
  2 13  1  1
  3 14  1  0
  3 15  1  0
  4 16  1  0
  5 17  1  0
  5 18  1  0
  6 19  1  1
  8 20  1  0
  8 21  1  0
  9 22  1  0
  9 23  1  0
 10 24  1  0
 10 25  1  0
M  END
$$$$

     RDKit          3D

 25 26  0  0  0  0  0  0  0  0999 V2000
   -1.0262   -0.8344   -1.8530 O   0  0  0  0  0  0  0  0  0  0  0  0
   -1.6376    0.1039   -1.0248 C   0  0  1  0  0  0  0  0  0  0  0  0
   -2.7381   -0.4628   -0.1903 C   0  0  0  0  0  0  0  0  0  0  0  0
   -2.3116   -0.4619    1.1737 N   0  0  0  0  0  0  0  0  0  0  0  0
   -0.9400   -0.0041    1.2160 C   0  0  0  0  0  0  0  0  0  0  0  0
   -0.6639    0.7454   -0.0606 C   0  0  1  0  0  0  0  0  0  0  0  0
    0.6699    0.4146   -0.5130 N   0  0  0  0  0  0  0  0  0  0  0  0
    1.6878    1.1829    0.2242 C   0  0  0  0  0  0  0  0  0  0  0  0
    2.9130    0.4023   -0.2727 C   0  0  0  0  0  0  0  0  0  0  0  0
    2.3352   -0.9977   -0.0797 C   0  0  0  0  0  0  0  0  0  0  0  0
    0.9826   -0.8751   -0.2936 O   0  0  0  0  0  0  0  0  0  0  0  0
   -1.2347   -1.7344   -1.4865 H   0  0  0  0  0  0  0  0  0  0  0  0
   -2.0402    0.9008   -1.7172 H   0  0  0  0  0  0  0  0  0  0  0  0
   -2.9886   -1.5096   -0.4934 H   0  0  0  0  0  0  0  0  0  0  0  0
   -3.6681    0.1645   -0.3257 H   0  0  0  0  0  0  0  0  0  0  0  0
   -2.9281    0.0424    1.8206 H   0  0  0  0  0  0  0  0  0  0  0  0
   -0.7148    0.6081    2.1061 H   0  0  0  0  0  0  0  0  0  0  0  0
   -0.2763   -0.9054    1.2566 H   0  0  0  0  0  0  0  0  0  0  0  0
   -0.7639    1.8265    0.0076 H   0  0  0  0  0  0  0  0  0  0  0  0
    1.5368    0.9829    1.2836 H   0  0  0  0  0  0  0  0  0  0  0  0
    1.7074    2.2241   -0.0802 H   0  0  0  0  0  0  0  0  0  0  0  0
    2.9740    0.5706   -1.3492 H   0  0  0  0  0  0  0  0  0  0  0  0
    3.8041    0.5885    0.3068 H   0  0  0  0  0  0  0  0  0  0  0  0
    2.4767   -1.2171    1.0144 H   0  0  0  0  0  0  0  0  0  0  0  0
    2.8444   -1.7550   -0.6697 H   0  0  0  0  0  0  0  0  0  0  0  0
  1  2  1  0
  2  3  1  0
  3  4  1  0
  4  5  1  0
  5  6  1  0
  6  7  1  0
  7  8  1  0
  8  9  1  0
  9 10  1  0
 10 11  1  0
  6  2  1  0
 11  7  1  0
  1 12  1  0
  2 13  1  6
  3 14  1  0
  3 15  1  0
  4 16  1  0
  5 17  1  0
  5 18  1  0
  6 19  1  1
  8 20  1  0
  8 21  1  0
  9 22  1  0
  9 23  1  0
 10 24  1  0
 10 25  1  0
M  END
$$$$
