
     RDKit          3D

 27 27  0  0  0  0  0  0  0  0999 V2000
    2.8741   -0.1412    0.3837 C   0  0  0  0  0  0  0  0  0  0  0  0
    1.6103   -0.6425    0.6865 O   0  0  0  0  0  0  0  0  0  0  0  0
    0.6910   -0.3880   -0.3198 C   0  0  1  0  0  0  0  0  0  0  0  0
    0.2304   -1.6686   -0.9040 C   0  0  0  0  0  0  0  0  0  0  0  0
   -0.8429   -2.3004   -0.1492 N   0  0  0  0  0  0  0  0  0  0  0  0
   -1.9779   -1.3885   -0.2462 C   0  0  0  0  0  0  0  0  0  0  0  0
   -1.6346   -0.1906    0.6096 C   0  0  0  0  0  0  0  0  0  0  0  0
   -0.3978    0.5248    0.1561 C   0  0  1  0  0  0  0  0  0  0  0  0
    0.1206    1.2558    1.2985 N   0  0  0  0  0  0  0  0  0  0  0  0
   -0.7937    1.5162   -0.8604 C   0  0  0  0  0  0  0  0  0  0  0  0
   -0.6494    2.8964   -0.6511 N   0  0  0  0  0  0  0  0  0  0  0  0
   -1.2723    1.1123   -1.9408 O   0  0  0  0  0  0  0  0  0  0  0  0
    3.5418   -0.3858    1.2330 H   0  0  0  0  0  0  0  0  0  0  0  0
    3.3025   -0.5831   -0.5398 H   0  0  0  0  0  0  0  0  0  0  0  0
    2.8571    0.9764    0.2840 H   0  0  0  0  0  0  0  0  0  0  0  0
    1.2446    0.1732   -1.1291 H   0  0  0  0  0  0  0  0  0  0  0  0
    1.0729   -2.3949   -0.9086 H   0  0  0  0  0  0  0  0  0  0  0  0
   -0.1022   -1.5859   -1.9745 H   0  0  0  0  0  0  0  0  0  0  0  0
   -1.0276   -3.2126   -0.6186 H   0  0  0  0  0  0  0  0  0  0  0  0
   -2.2018   -1.1056   -1.2906 H   0  0  0  0  0  0  0  0  0  0  0  0
   -2.8936   -1.8373    0.1761 H   0  0  0  0  0  0  0  0  0  0  0  0
   -2.5126    0.4629    0.6217 H   0  0  0  0  0  0  0  0  0  0  0  0
   -1.4498   -0.5777    1.6391 H   0  0  0  0  0  0  0  0  0  0  0  0
    0.7632    1.9995    0.9219 H   0  0  0  0  0  0  0  0  0  0  0  0
    0.6244    0.5976    1.9313 H   0  0  0  0  0  0  0  0  0  0  0  0
   -0.4607    3.5183   -1.4681 H   0  0  0  0  0  0  0  0  0  0  0  0
   -0.7162    3.3691    0.2759 H   0  0  0  0  0  0  0  0  0  0  0  0
  1  2  1  0
  2  3  1  0
  3  4  1  0
  4  5  1  0
  5  6  1  0
  6  7  1  0
  7  8  1  0
  8  9  1  1
  8 10  1  0
 10 11  1  0
 10 12  2  0
  8  3  1  0
  1 13  1  0
  1 14  1  0
  1 15  1  0
  3 16  1  6
  4 17  1  0
  4 18  1  0
  5 19  1  0
  6 20  1  0
  6 21  1  0
  7 22  1  0
  7 23  1  0
  9 24  1  0
  9 25  1  0
 11 26  1  0
 11 27  1  0
M  END
$$$$

     RDKit          3D

 27 27  0  0  0  0  0  0  0  0999 V2000
    2.1426   -2.0677   -0.0094 C   0  0  0  0  0  0  0  0  0  0  0  0
    1.2243   -1.3477   -0.7680 O   0  0  0  0  0  0  0  0  0  0  0  0
    0.8840   -0.2102   -0.0947 C   0  0  1  0  0  0  0  0  0  0  0  0
    1.2814    1.0556   -0.8316 C   0  0  0  0  0  0  0  0  0  0  0  0
    0.4439    2.1594   -0.6014 N   0  0  0  0  0  0  0  0  0  0  0  0
   -0.2022    2.2677    0.6445 C   0  0  0  0  0  0  0  0  0  0  0  0
   -0.7051    0.9955    1.2379 C   0  0  0  0  0  0  0  0  0  0  0  0
   -0.6071   -0.0761    0.1689 C   0  0  1  0  0  0  0  0  0  0  0  0
   -1.1912    0.5080   -1.0368 N   0  0  0  0  0  0  0  0  0  0  0  0
   -1.2629   -1.3181    0.5584 C   0  0  0  0  0  0  0  0  0  0  0  0
   -2.3337   -1.8378   -0.2170 N   0  0  0  0  0  0  0  0  0  0  0  0
   -0.8791   -1.9284    1.5818 O   0  0  0  0  0  0  0  0  0  0  0  0
    3.0701   -1.4639    0.1769 H   0  0  0  0  0  0  0  0  0  0  0  0
    2.4221   -3.0285   -0.5031 H   0  0  0  0  0  0  0  0  0  0  0  0
    1.7688   -2.3391    0.9976 H   0  0  0  0  0  0  0  0  0  0  0  0
    1.4188   -0.1626    0.8750 H   0  0  0  0  0  0  0  0  0  0  0  0
    2.3665    1.2227   -0.6500 H   0  0  0  0  0  0  0  0  0  0  0  0
    1.2191    0.7872   -1.9280 H   0  0  0  0  0  0  0  0  0  0  0  0
    0.0098    2.6133   -1.4057 H   0  0  0  0  0  0  0  0  0  0  0  0
    0.4297    2.7802    1.4112 H   0  0  0  0  0  0  0  0  0  0  0  0
   -1.0943    2.9454    0.5222 H   0  0  0  0  0  0  0  0  0  0  0  0
   -0.0228    0.6685    2.0716 H   0  0  0  0  0  0  0  0  0  0  0  0
   -1.7340    1.0631    1.6353 H   0  0  0  0  0  0  0  0  0  0  0  0
   -0.9864   -0.0295   -1.8812 H   0  0  0  0  0  0  0  0  0  0  0  0
   -2.1630    0.8017   -0.9080 H   0  0  0  0  0  0  0  0  0  0  0  0
   -2.7086   -2.8113   -0.0987 H   0  0  0  0  0  0  0  0  0  0  0  0
   -2.7905   -1.2474   -0.9478 H   0  0  0  0  0  0  0  0  0  0  0  0
  1  2  1  0
  2  3  1  0
  3  4  1  0
  4  5  1  0
  5  6  1  0
  6  7  1  0
  7  8  1  0
  8  9  1  6
  8 10  1  0
 10 11  1  0
 10 12  2  0
  8  3  1  0
  1 13  1  0
  1 14  1  0
  1 15  1  0
  3 16  1  1
  4 17  1  0
  4 18  1  0
  5 19  1  0
  6 20  1  0
  6 21  1  0
  7 22  1  0
  7 23  1  0
  9 24  1  0
  9 25  1  0
 11 26  1  0
 11 27  1  0
M  END
$$$$

     RDKit          3D

 27 27  0  0  0  0  0  0  0  0999 V2000
    2.4177    1.6069   -0.4764 C   0  0  0  0  0  0  0  0  0  0  0  0
    1.4799    1.1280    0.4351 O   0  0  0  0  0  0  0  0  0  0  0  0
    0.8654   -0.0029   -0.0975 C   0  0  1  0  0  0  0  0  0  0  0  0
    1.2479   -1.1635    0.8239 C   0  0  0  0  0  0  0  0  0  0  0  0
    0.6763   -2.4016    0.3211 N   0  0  0  0  0  0  0  0  0  0  0  0
   -0.7794   -2.2738    0.4864 C   0  0  0  0  0  0  0  0  0  0  0  0
   -1.2235   -1.1954   -0.4609 C   0  0  0  0  0  0  0  0  0  0  0  0
   -0.6231    0.1295   -0.0392 C   0  0  1  0  0  0  0  0  0  0  0  0
   -1.0196    0.3674    1.3358 N   0  0  0  0  0  0  0  0  0  0  0  0
   -1.0664    1.2044   -0.9292 C   0  0  0  0  0  0  0  0  0  0  0  0
   -1.7947    2.3182   -0.4337 N   0  0  0  0  0  0  0  0  0  0  0  0
   -0.8061    1.1537   -2.1484 O   0  0  0  0  0  0  0  0  0  0  0  0
    3.1517    0.7732   -0.6258 H   0  0  0  0  0  0  0  0  0  0  0  0
    1.9618    1.9026   -1.4259 H   0  0  0  0  0  0  0  0  0  0  0  0
    2.9917    2.4490   -0.0451 H   0  0  0  0  0  0  0  0  0  0  0  0
    1.2361   -0.2750   -1.0956 H   0  0  0  0  0  0  0  0  0  0  0  0
    0.7717   -0.9138    1.8093 H   0  0  0  0  0  0  0  0  0  0  0  0
    2.3551   -1.2174    0.9186 H   0  0  0  0  0  0  0  0  0  0  0  0
    0.9047   -2.4600   -0.7022 H   0  0  0  0  0  0  0  0  0  0  0  0
   -0.9162   -1.9659    1.5541 H   0  0  0  0  0  0  0  0  0  0  0  0
   -1.2892   -3.2226    0.3314 H   0  0  0  0  0  0  0  0  0  0  0  0
   -0.8961   -1.4745   -1.4808 H   0  0  0  0  0  0  0  0  0  0  0  0
   -2.3163   -1.0784   -0.4774 H   0  0  0  0  0  0  0  0  0  0  0  0
   -1.3147    1.3813    1.3875 H   0  0  0  0  0  0  0  0  0  0  0  0
   -1.8942   -0.1711    1.5616 H   0  0  0  0  0  0  0  0  0  0  0  0
   -2.8382    2.2556   -0.4618 H   0  0  0  0  0  0  0  0  0  0  0  0
   -1.2823    3.1460   -0.0651 H   0  0  0  0  0  0  0  0  0  0  0  0
  1  2  1  0
  2  3  1  0
  3  4  1  0
  4  5  1  0
  5  6  1  0
  6  7  1  0
  7  8  1  0
  8  9  1  1
  8 10  1  0
 10 11  1  0
 10 12  2  0
  8  3  1  0
  1 13  1  0
  1 14  1  0
  1 15  1  0
  3 16  1  6
  4 17  1  0
  4 18  1  0
  5 19  1  0
  6 20  1  0
  6 21  1  0
  7 22  1  0
  7 23  1  0
  9 24  1  0
  9 25  1  0
 11 26  1  0
 11 27  1  0
M  END
$$$$

     RDKit          3D

 27 27  0  0  0  0  0  0  0  0999 V2000
    2.3827   -1.6945    0.3530 C   0  0  0  0  0  0  0  0  0  0  0  0
    1.7610   -0.6999   -0.3945 O   0  0  0  0  0  0  0  0  0  0  0  0
    0.7795   -0.0348    0.3729 C   0  0  1  0  0  0  0  0  0  0  0  0
    1.1454    1.4150    0.3812 C   0  0  0  0  0  0  0  0  0  0  0  0
    0.1063    2.3040   -0.0091 N   0  0  0  0  0  0  0  0  0  0  0  0
   -0.5588    1.9757   -1.2224 C   0  0  0  0  0  0  0  0  0  0  0  0
   -0.4983    0.5431   -1.6128 C   0  0  0  0  0  0  0  0  0  0  0  0
   -0.5309   -0.3103   -0.3619 C   0  0  1  0  0  0  0  0  0  0  0  0
   -0.4673   -1.6891   -0.7944 N   0  0  0  0  0  0  0  0  0  0  0  0
   -1.7063   -0.0844    0.4631 C   0  0  0  0  0  0  0  0  0  0  0  0
   -2.5888   -1.1683    0.7274 N   0  0  0  0  0  0  0  0  0  0  0  0
   -2.0240    1.0216    0.9822 O   0  0  0  0  0  0  0  0  0  0  0  0
    1.6772   -2.4612    0.7110 H   0  0  0  0  0  0  0  0  0  0  0  0
    2.9878   -1.2799    1.1929 H   0  0  0  0  0  0  0  0  0  0  0  0
    3.1003   -2.1961   -0.3280 H   0  0  0  0  0  0  0  0  0  0  0  0
    0.7265   -0.4565    1.3985 H   0  0  0  0  0  0  0  0  0  0  0  0
    1.4626    1.7124    1.4228 H   0  0  0  0  0  0  0  0  0  0  0  0
    2.0430    1.6450   -0.2519 H   0  0  0  0  0  0  0  0  0  0  0  0
    0.4941    3.2587   -0.0859 H   0  0  0  0  0  0  0  0  0  0  0  0
   -0.1823    2.5986   -2.0741 H   0  0  0  0  0  0  0  0  0  0  0  0
   -1.6409    2.2663   -1.1208 H   0  0  0  0  0  0  0  0  0  0  0  0
   -1.3184    0.2531   -2.2805 H   0  0  0  0  0  0  0  0  0  0  0  0
    0.4992    0.3396   -2.0980 H   0  0  0  0  0  0  0  0  0  0  0  0
   -0.7435   -2.2918    0.0115 H   0  0  0  0  0  0  0  0  0  0  0  0
   -1.1097   -1.8446   -1.6266 H   0  0  0  0  0  0  0  0  0  0  0  0
   -3.3316   -1.4382    0.0636 H   0  0  0  0  0  0  0  0  0  0  0  0
   -2.4648   -1.6836    1.6111 H   0  0  0  0  0  0  0  0  0  0  0  0
  1  2  1  0
  2  3  1  0
  3  4  1  0
  4  5  1  0
  5  6  1  0
  6  7  1  0
  7  8  1  0
  8  9  1  6
  8 10  1  0
 10 11  1  0
 10 12  2  0
  8  3  1  0
  1 13  1  0
  1 14  1  0
  1 15  1  0
  3 16  1  1
  4 17  1  0
  4 18  1  0
  5 19  1  0
  6 20  1  0
  6 21  1  0
  7 22  1  0
  7 23  1  0
  9 24  1  0
  9 25  1  0
 11 26  1  0
 11 27  1  0
M  END
$$$$

     RDKit          3D

 27 27  0  0  0  0  0  0  0  0999 V2000
   -2.0010   -2.1348   -0.2267 C   0  0  0  0  0  0  0  0  0  0  0  0
   -1.5548   -1.0569    0.4835 O   0  0  0  0  0  0  0  0  0  0  0  0
   -0.8578   -0.1171   -0.2205 C   0  0  1  0  0  0  0  0  0  0  0  0
   -1.4979    1.2491   -0.2040 C   0  0  0  0  0  0  0  0  0  0  0  0
   -0.6820    2.1978   -0.8905 N   0  0  0  0  0  0  0  0  0  0  0  0
    0.6682    2.2815   -0.4269 C   0  0  0  0  0  0  0  0  0  0  0  0
    1.0007    1.3144    0.6602 C   0  0  0  0  0  0  0  0  0  0  0  0
    0.5548   -0.0890    0.3283 C   0  0  1  0  0  0  0  0  0  0  0  0
    0.6622   -0.8508    1.5709 N   0  0  0  0  0  0  0  0  0  0  0  0
    1.5308   -0.6813   -0.6429 C   0  0  0  0  0  0  0  0  0  0  0  0
    2.3613   -1.7858   -0.3057 N   0  0  0  0  0  0  0  0  0  0  0  0
    1.6224   -0.1876   -1.7984 O   0  0  0  0  0  0  0  0  0  0  0  0
   -2.6950   -1.8707   -1.0625 H   0  0  0  0  0  0  0  0  0  0  0  0
   -1.1749   -2.8082   -0.5923 H   0  0  0  0  0  0  0  0  0  0  0  0
   -2.6009   -2.7706    0.4601 H   0  0  0  0  0  0  0  0  0  0  0  0
   -0.7714   -0.4097   -1.3045 H   0  0  0  0  0  0  0  0  0  0  0  0
   -1.7304    1.4943    0.8372 H   0  0  0  0  0  0  0  0  0  0  0  0
   -2.4436    1.1633   -0.7867 H   0  0  0  0  0  0  0  0  0  0  0  0
   -1.1398    3.0905   -1.0895 H   0  0  0  0  0  0  0  0  0  0  0  0
    0.9264    3.3085   -0.0455 H   0  0  0  0  0  0  0  0  0  0  0  0
    1.3393    2.1141   -1.3035 H   0  0  0  0  0  0  0  0  0  0  0  0
    2.0941    1.2885    0.7851 H   0  0  0  0  0  0  0  0  0  0  0  0
    0.4768    1.6362    1.5907 H   0  0  0  0  0  0  0  0  0  0  0  0
    0.3847   -0.2821    2.4029 H   0  0  0  0  0  0  0  0  0  0  0  0
    0.1395   -1.7476    1.5323 H   0  0  0  0  0  0  0  0  0  0  0  0
    3.3150   -1.5640    0.0676 H   0  0  0  0  0  0  0  0  0  0  0  0
    2.0732   -2.7821   -0.4097 H   0  0  0  0  0  0  0  0  0  0  0  0
  1  2  1  0
  2  3  1  0
  3  4  1  0
  4  5  1  0
  5  6  1  0
  6  7  1  0
  7  8  1  0
  8  9  1  1
  8 10  1  0
 10 11  1  0
 10 12  2  0
  8  3  1  0
  1 13  1  0
  1 14  1  0
  1 15  1  0
  3 16  1  6
  4 17  1  0
  4 18  1  0
  5 19  1  0
  6 20  1  0
  6 21  1  0
  7 22  1  0
  7 23  1  0
  9 24  1  0
  9 25  1  0
 11 26  1  0
 11 27  1  0
M  END
$$$$

     RDKit          3D

 27 27  0  0  0  0  0  0  0  0999 V2000
    0.9224    2.7357   -0.6054 C   0  0  0  0  0  0  0  0  0  0  0  0
    0.5719    1.7511    0.2947 O   0  0  0  0  0  0  0  0  0  0  0  0
    0.7291    0.4773   -0.2005 C   0  0  1  0  0  0  0  0  0  0  0  0
    1.7390   -0.2883    0.6294 C   0  0  0  0  0  0  0  0  0  0  0  0
    1.8828   -1.6325    0.1623 N   0  0  0  0  0  0  0  0  0  0  0  0
    0.6302   -2.3546    0.0972 C   0  0  0  0  0  0  0  0  0  0  0  0
   -0.4294   -1.6182   -0.6518 C   0  0  0  0  0  0  0  0  0  0  0  0
   -0.5880   -0.2503   -0.0758 C   0  0  1  0  0  0  0  0  0  0  0  0
   -0.8308   -0.4055    1.3648 N   0  0  0  0  0  0  0  0  0  0  0  0
   -1.6907    0.5098   -0.7145 C   0  0  0  0  0  0  0  0  0  0  0  0
   -2.7823    0.9827    0.0439 N   0  0  0  0  0  0  0  0  0  0  0  0
   -1.6160    0.7146   -1.9457 O   0  0  0  0  0  0  0  0  0  0  0  0
    0.7736    3.7271   -0.1481 H   0  0  0  0  0  0  0  0  0  0  0  0
    0.3252    2.6121   -1.5158 H   0  0  0  0  0  0  0  0  0  0  0  0
    2.0105    2.6530   -0.8504 H   0  0  0  0  0  0  0  0  0  0  0  0
    1.1094    0.5254   -1.2355 H   0  0  0  0  0  0  0  0  0  0  0  0
    1.4111   -0.3279    1.6880 H   0  0  0  0  0  0  0  0  0  0  0  0
    2.7189    0.2106    0.5456 H   0  0  0  0  0  0  0  0  0  0  0  0
    2.4979   -2.1635    0.8183 H   0  0  0  0  0  0  0  0  0  0  0  0
    0.2805   -2.6152    1.1114 H   0  0  0  0  0  0  0  0  0  0  0  0
    0.8462   -3.2959   -0.4764 H   0  0  0  0  0  0  0  0  0  0  0  0
   -1.3883   -2.1591   -0.5142 H   0  0  0  0  0  0  0  0  0  0  0  0
   -0.1813   -1.5227   -1.7262 H   0  0  0  0  0  0  0  0  0  0  0  0
   -1.5609   -1.1104    1.5241 H   0  0  0  0  0  0  0  0  0  0  0  0
   -1.0229    0.5278    1.7528 H   0  0  0  0  0  0  0  0  0  0  0  0
   -2.9957    0.5535    0.9549 H   0  0  0  0  0  0  0  0  0  0  0  0
   -3.3623    1.7633   -0.3271 H   0  0  0  0  0  0  0  0  0  0  0  0
  1  2  1  0
  2  3  1  0
  3  4  1  0
  4  5  1  0
  5  6  1  0
  6  7  1  0
  7  8  1  0
  8  9  1  1
  8 10  1  0
 10 11  1  0
 10 12  2  0
  8  3  1  0
  1 13  1  0
  1 14  1  0
  1 15  1  0
  3 16  1  6
  4 17  1  0
  4 18  1  0
  5 19  1  0
  6 20  1  0
  6 21  1  0
  7 22  1  0
  7 23  1  0
  9 24  1  0
  9 25  1  0
 11 26  1  0
 11 27  1  0
M  END
$$$$

     RDKit          3D

 27 27  0  0  0  0  0  0  0  0999 V2000
    0.1991    2.8941    0.2797 C   0  0  0  0  0  0  0  0  0  0  0  0
    0.2667    1.8383   -0.6161 O   0  0  0  0  0  0  0  0  0  0  0  0
   -0.4355    0.7602   -0.0956 C   0  0  1  0  0  0  0  0  0  0  0  0
   -1.5517    0.3587   -1.0471 C   0  0  0  0  0  0  0  0  0  0  0  0
   -2.3493   -0.6883   -0.4776 N   0  0  0  0  0  0  0  0  0  0  0  0
   -1.6069   -1.8644   -0.1302 C   0  0  0  0  0  0  0  0  0  0  0  0
   -0.4307   -1.5134    0.7363 C   0  0  0  0  0  0  0  0  0  0  0  0
    0.4488   -0.4737    0.0440 C   0  0  1  0  0  0  0  0  0  0  0  0
    0.7901   -0.9043   -1.2876 N   0  0  0  0  0  0  0  0  0  0  0  0
    1.6175   -0.2314    0.8904 C   0  0  0  0  0  0  0  0  0  0  0  0
    2.9470   -0.4017    0.4485 N   0  0  0  0  0  0  0  0  0  0  0  0
    1.4444    0.1488    2.0761 O   0  0  0  0  0  0  0  0  0  0  0  0
    0.7719    3.7593   -0.1551 H   0  0  0  0  0  0  0  0  0  0  0  0
   -0.8532    3.2123    0.3976 H   0  0  0  0  0  0  0  0  0  0  0  0
    0.6760    2.6594    1.2569 H   0  0  0  0  0  0  0  0  0  0  0  0
   -0.8694    1.0047    0.8897 H   0  0  0  0  0  0  0  0  0  0  0  0
   -1.0798   -0.0450   -1.9674 H   0  0  0  0  0  0  0  0  0  0  0  0
   -2.2068    1.1955   -1.3146 H   0  0  0  0  0  0  0  0  0  0  0  0
   -2.9167   -0.3398    0.3259 H   0  0  0  0  0  0  0  0  0  0  0  0
   -1.3220   -2.4355   -1.0191 H   0  0  0  0  0  0  0  0  0  0  0  0
   -2.2901   -2.4966    0.5079 H   0  0  0  0  0  0  0  0  0  0  0  0
    0.1439   -2.3963    1.0376 H   0  0  0  0  0  0  0  0  0  0  0  0
   -0.8349   -0.9836    1.6461 H   0  0  0  0  0  0  0  0  0  0  0  0
    1.1119   -1.9007   -1.3202 H   0  0  0  0  0  0  0  0  0  0  0  0
    1.4710   -0.2415   -1.6920 H   0  0  0  0  0  0  0  0  0  0  0  0
    3.1770   -1.1513   -0.2093 H   0  0  0  0  0  0  0  0  0  0  0  0
    3.6816    0.2365    0.7954 H   0  0  0  0  0  0  0  0  0  0  0  0
  1  2  1  0
  2  3  1  0
  3  4  1  0
  4  5  1  0
  5  6  1  0
  6  7  1  0
  7  8  1  0
  8  9  1  6
  8 10  1  0
 10 11  1  0
 10 12  2  0
  8  3  1  0
  1 13  1  0
  1 14  1  0
  1 15  1  0
  3 16  1  1
  4 17  1  0
  4 18  1  0
  5 19  1  0
  6 20  1  0
  6 21  1  0
  7 22  1  0
  7 23  1  0
  9 24  1  0
  9 25  1  0
 11 26  1  0
 11 27  1  0
M  END
$$$$

     RDKit          3D

 27 27  0  0  0  0  0  0  0  0999 V2000
    2.8944    0.2618   -0.0505 C   0  0  0  0  0  0  0  0  0  0  0  0
    1.8547   -0.1891    0.7082 O   0  0  0  0  0  0  0  0  0  0  0  0
    0.6990   -0.4872    0.0773 C   0  0  1  0  0  0  0  0  0  0  0  0
    0.2226   -1.9033    0.2282 C   0  0  0  0  0  0  0  0  0  0  0  0
   -0.9324   -2.1385   -0.5940 N   0  0  0  0  0  0  0  0  0  0  0  0
   -1.6808   -0.9565   -0.8977 C   0  0  0  0  0  0  0  0  0  0  0  0
   -1.7629   -0.1068    0.3362 C   0  0  0  0  0  0  0  0  0  0  0  0
   -0.3822    0.4728    0.5873 C   0  0  1  0  0  0  0  0  0  0  0  0
   -0.1777    0.6002    2.0119 N   0  0  0  0  0  0  0  0  0  0  0  0
   -0.2139    1.7790   -0.0744 C   0  0  0  0  0  0  0  0  0  0  0  0
   -0.3516    1.9759   -1.4672 N   0  0  0  0  0  0  0  0  0  0  0  0
    0.0692    2.7853    0.6333 O   0  0  0  0  0  0  0  0  0  0  0  0
    2.5595    1.2113   -0.5623 H   0  0  0  0  0  0  0  0  0  0  0  0
    3.7117    0.5866    0.6355 H   0  0  0  0  0  0  0  0  0  0  0  0
    3.2546   -0.3985   -0.8293 H   0  0  0  0  0  0  0  0  0  0  0  0
    0.8222   -0.2956   -1.0151 H   0  0  0  0  0  0  0  0  0  0  0  0
   -0.0781   -2.1212    1.2809 H   0  0  0  0  0  0  0  0  0  0  0  0
    1.0274   -2.5773   -0.1308 H   0  0  0  0  0  0  0  0  0  0  0  0
   -1.5930   -2.8378   -0.1803 H   0  0  0  0  0  0  0  0  0  0  0  0
   -1.2945   -0.4105   -1.7776 H   0  0  0  0  0  0  0  0  0  0  0  0
   -2.7230   -1.2733   -1.1743 H   0  0  0  0  0  0  0  0  0  0  0  0
   -2.5318    0.6701    0.2819 H   0  0  0  0  0  0  0  0  0  0  0  0
   -1.9843   -0.8020    1.1899 H   0  0  0  0  0  0  0  0  0  0  0  0
   -1.1006    0.7105    2.4943 H   0  0  0  0  0  0  0  0  0  0  0  0
    0.5011    1.3509    2.2280 H   0  0  0  0  0  0  0  0  0  0  0  0
    0.4879    2.1051   -2.0540 H   0  0  0  0  0  0  0  0  0  0  0  0
   -1.2973    1.9884   -1.8856 H   0  0  0  0  0  0  0  0  0  0  0  0
  1  2  1  0
  2  3  1  0
  3  4  1  0
  4  5  1  0
  5  6  1  0
  6  7  1  0
  7  8  1  0
  8  9  1  1
  8 10  1  0
 10 11  1  0
 10 12  2  0
  8  3  1  0
  1 13  1  0
  1 14  1  0
  1 15  1  0
  3 16  1  6
  4 17  1  0
  4 18  1  0
  5 19  1  0
  6 20  1  0
  6 21  1  0
  7 22  1  0
  7 23  1  0
  9 24  1  0
  9 25  1  0
 11 26  1  0
 11 27  1  0
M  END
$$$$
