
     RDKit          3D

 24 24  0  0  0  0  0  0  0  0999 V2000
    3.4235   -0.6026    0.6857 C   0  0  0  0  0  0  0  0  0  0  0  0
    2.8077    0.5562    0.1322 N   0  0  0  0  0  0  0  0  0  0  0  0
    1.4665    0.2033   -0.8844 S   0  0  0  0  0  6  0  0  0  0  0  0
    1.3770    1.2688   -1.9523 O   0  0  0  0  0  0  0  0  0  0  0  0
    1.6890   -1.1195   -1.5556 O   0  0  0  0  0  0  0  0  0  0  0  0
    0.0687    0.1855    0.1175 N   0  0  0  0  0  0  0  0  0  0  0  0
   -0.2488    1.3992    0.7828 C   0  0  0  0  0  0  0  0  0  0  0  0
   -1.5970    1.3882    0.0960 C   0  0  0  0  0  0  0  0  0  0  0  0
   -1.1869    0.0838   -0.5474 C   0  0  2  0  0  0  0  0  0  0  0  0
   -1.9522   -1.1304   -0.0153 C   0  0  0  0  0  0  0  0  0  0  0  0
   -3.2271   -1.2838   -0.6496 N   0  0  0  0  0  0  0  0  0  0  0  0
    4.5234   -0.4683    0.7848 H   0  0  0  0  0  0  0  0  0  0  0  0
    2.9685   -0.7806    1.7016 H   0  0  0  0  0  0  0  0  0  0  0  0
    3.1825   -1.4894    0.0825 H   0  0  0  0  0  0  0  0  0  0  0  0
    2.6308    1.3210    0.7901 H   0  0  0  0  0  0  0  0  0  0  0  0
   -0.3506    1.2332    1.8893 H   0  0  0  0  0  0  0  0  0  0  0  0
    0.3722    2.2897    0.5378 H   0  0  0  0  0  0  0  0  0  0  0  0
   -1.7144    2.2358   -0.6258 H   0  0  0  0  0  0  0  0  0  0  0  0
   -2.4635    1.2172    0.7601 H   0  0  0  0  0  0  0  0  0  0  0  0
   -1.1870    0.1302   -1.6489 H   0  0  0  0  0  0  0  0  0  0  0  0
   -2.0910   -1.0660    1.0666 H   0  0  0  0  0  0  0  0  0  0  0  0
   -1.2811   -2.0073   -0.2192 H   0  0  0  0  0  0  0  0  0  0  0  0
   -3.2122   -2.0449   -1.3739 H   0  0  0  0  0  0  0  0  0  0  0  0
   -3.9980   -1.5193    0.0450 H   0  0  0  0  0  0  0  0  0  0  0  0
  1  2  1  0
  2  3  1  0
  3  4  2  0
  3  5  2  0
  3  6  1  0
  6  7  1  0
  7  8  1  0
  8  9  1  0
  9 10  1  0
 10 11  1  0
  9  6  1  0
  1 12  1  0
  1 13  1  0
  1 14  1  0
  2 15  1  0
  7 16  1  0
  7 17  1  0
  8 18  1  0
  8 19  1  0
  9 20  1  6
 10 21  1  0
 10 22  1  0
 11 23  1  0
 11 24  1  0
M  END
$$$$

     RDKit          3D

 24 24  0  0  0  0  0  0  0  0999 V2000
   -3.4114   -0.1857   -0.1247 C   0  0  0  0  0  0  0  0  0  0  0  0
   -2.6242   -1.3081    0.3383 N   0  0  0  0  0  0  0  0  0  0  0  0
   -1.1566   -0.8169    1.0962 S   0  0  0  0  0  6  0  0  0  0  0  0
   -1.4210    0.5670    1.6743 O   0  0  0  0  0  0  0  0  0  0  0  0
   -0.8821   -1.7038    2.2788 O   0  0  0  0  0  0  0  0  0  0  0  0
    0.1282   -0.7935   -0.0203 N   0  0  0  0  0  0  0  0  0  0  0  0
   -0.1049    0.1444   -1.0889 C   0  0  0  0  0  0  0  0  0  0  0  0
    0.6487    1.1910   -0.2858 C   0  0  0  0  0  0  0  0  0  0  0  0
    1.2587   -0.0069    0.4063 C   0  0  2  0  0  0  0  0  0  0  0  0
    2.5684   -0.3756   -0.2501 C   0  0  0  0  0  0  0  0  0  0  0  0
    3.6073    0.4820    0.2630 N   0  0  0  0  0  0  0  0  0  0  0  0
   -2.9831    0.7804    0.2052 H   0  0  0  0  0  0  0  0  0  0  0  0
   -3.4941   -0.1535   -1.2462 H   0  0  0  0  0  0  0  0  0  0  0  0
   -4.4468   -0.2270    0.3133 H   0  0  0  0  0  0  0  0  0  0  0  0
   -2.4056   -1.9562   -0.4621 H   0  0  0  0  0  0  0  0  0  0  0  0
   -1.1659    0.3801   -1.2926 H   0  0  0  0  0  0  0  0  0  0  0  0
    0.4367   -0.1095   -2.0233 H   0  0  0  0  0  0  0  0  0  0  0  0
    1.3666    1.7414   -0.9238 H   0  0  0  0  0  0  0  0  0  0  0  0
    0.0522    1.8239    0.3680 H   0  0  0  0  0  0  0  0  0  0  0  0
    1.4018    0.1057    1.4910 H   0  0  0  0  0  0  0  0  0  0  0  0
    2.5165   -0.3174   -1.3526 H   0  0  0  0  0  0  0  0  0  0  0  0
    2.8184   -1.4275    0.0048 H   0  0  0  0  0  0  0  0  0  0  0  0
    4.0361    1.0831   -0.4666 H   0  0  0  0  0  0  0  0  0  0  0  0
    3.2562    1.0827    1.0270 H   0  0  0  0  0  0  0  0  0  0  0  0
  1  2  1  0
  2  3  1  0
  3  4  2  0
  3  5  2  0
  3  6  1  0
  6  7  1  0
  7  8  1  0
  8  9  1  0
  9 10  1  0
 10 11  1  0
  9  6  1  0
  1 12  1  0
  1 13  1  0
  1 14  1  0
  2 15  1  0
  7 16  1  0
  7 17  1  0
  8 18  1  0
  8 19  1  0
  9 20  1  1
 10 21  1  0
 10 22  1  0
 11 23  1  0
 11 24  1  0
M  END
$$$$

     RDKit          3D

 24 24  0  0  0  0  0  0  0  0999 V2000
   -3.1895   -0.5300   -0.4726 C   0  0  0  0  0  0  0  0  0  0  0  0
   -2.1842    0.0931   -1.3159 N   0  0  0  0  0  0  0  0  0  0  0  0
   -1.2728    1.1697   -0.3762 S   0  0  0  0  0  6  0  0  0  0  0  0
   -2.1839    1.7237    0.7094 O   0  0  0  0  0  0  0  0  0  0  0  0
   -0.8624    2.3336   -1.2327 O   0  0  0  0  0  0  0  0  0  0  0  0
    0.0953    0.5217    0.3654 N   0  0  0  0  0  0  0  0  0  0  0  0
   -0.1195   -0.5459    1.3148 C   0  0  0  0  0  0  0  0  0  0  0  0
    1.1473   -1.1966    0.7699 C   0  0  0  0  0  0  0  0  0  0  0  0
    1.0305   -0.2117   -0.4025 C   0  0  2  0  0  0  0  0  0  0  0  0
    2.3878    0.4871   -0.5597 C   0  0  0  0  0  0  0  0  0  0  0  0
    2.9218    0.6684    0.7772 N   0  0  0  0  0  0  0  0  0  0  0  0
   -3.1127   -0.1889    0.5902 H   0  0  0  0  0  0  0  0  0  0  0  0
   -3.1103   -1.6290   -0.4550 H   0  0  0  0  0  0  0  0  0  0  0  0
   -4.2207   -0.2505   -0.7915 H   0  0  0  0  0  0  0  0  0  0  0  0
   -1.6359   -0.6503   -1.7703 H   0  0  0  0  0  0  0  0  0  0  0  0
   -0.0133   -0.1510    2.3462 H   0  0  0  0  0  0  0  0  0  0  0  0
   -1.0001   -1.1861    1.1392 H   0  0  0  0  0  0  0  0  0  0  0  0
    1.0359   -2.2564    0.4799 H   0  0  0  0  0  0  0  0  0  0  0  0
    1.9888   -0.9838    1.4532 H   0  0  0  0  0  0  0  0  0  0  0  0
    0.6932   -0.7531   -1.2865 H   0  0  0  0  0  0  0  0  0  0  0  0
    2.2528    1.4535   -1.0984 H   0  0  0  0  0  0  0  0  0  0  0  0
    3.1024   -0.1716   -1.0950 H   0  0  0  0  0  0  0  0  0  0  0  0
    3.9226    0.9286    0.7868 H   0  0  0  0  0  0  0  0  0  0  0  0
    2.3269    1.3258    1.3384 H   0  0  0  0  0  0  0  0  0  0  0  0
  1  2  1  0
  2  3  1  0
  3  4  2  0
  3  5  2  0
  3  6  1  0
  6  7  1  0
  7  8  1  0
  8  9  1  0
  9 10  1  0
 10 11  1  0
  9  6  1  0
  1 12  1  0
  1 13  1  0
  1 14  1  0
  2 15  1  0
  7 16  1  0
  7 17  1  0
  8 18  1  0
  8 19  1  0
  9 20  1  6
 10 21  1  0
 10 22  1  0
 11 23  1  0
 11 24  1  0
M  END
$$$$

     RDKit          3D

 24 24  0  0  0  0  0  0  0  0999 V2000
    3.2479    0.1566    0.9315 C   0  0  0  0  0  0  0  0  0  0  0  0
    2.5373   -0.3718   -0.1890 N   0  0  0  0  0  0  0  0  0  0  0  0
    0.9778    0.3913   -0.3971 S   0  0  0  0  0  6  0  0  0  0  0  0
    0.7186    0.3766   -1.8926 O   0  0  0  0  0  0  0  0  0  0  0  0
    1.1200    1.8142    0.0036 O   0  0  0  0  0  0  0  0  0  0  0  0
   -0.1410   -0.4985    0.4914 N   0  0  0  0  0  0  0  0  0  0  0  0
   -0.2219   -1.8635   -0.0034 C   0  0  0  0  0  0  0  0  0  0  0  0
   -1.4128   -1.4252   -0.8320 C   0  0  0  0  0  0  0  0  0  0  0  0
   -1.5229   -0.3627    0.2402 C   0  0  2  0  0  0  0  0  0  0  0  0
   -2.0658    0.9490   -0.2023 C   0  0  0  0  0  0  0  0  0  0  0  0
   -1.8549    2.0260    0.7117 N   0  0  0  0  0  0  0  0  0  0  0  0
    2.9963   -0.4973    1.8151 H   0  0  0  0  0  0  0  0  0  0  0  0
    4.3405    0.0259    0.7281 H   0  0  0  0  0  0  0  0  0  0  0  0
    2.9756    1.2090    1.1097 H   0  0  0  0  0  0  0  0  0  0  0  0
    3.0624   -0.4291   -1.0660 H   0  0  0  0  0  0  0  0  0  0  0  0
    0.6507   -2.1867   -0.6080 H   0  0  0  0  0  0  0  0  0  0  0  0
   -0.5403   -2.5508    0.7877 H   0  0  0  0  0  0  0  0  0  0  0  0
   -1.1830   -0.9786   -1.8072 H   0  0  0  0  0  0  0  0  0  0  0  0
   -2.2573   -2.1487   -0.8217 H   0  0  0  0  0  0  0  0  0  0  0  0
   -2.1175   -0.7830    1.0936 H   0  0  0  0  0  0  0  0  0  0  0  0
   -3.1710    0.8316   -0.3292 H   0  0  0  0  0  0  0  0  0  0  0  0
   -1.6849    1.1878   -1.2345 H   0  0  0  0  0  0  0  0  0  0  0  0
   -1.7665    2.9136    0.1318 H   0  0  0  0  0  0  0  0  0  0  0  0
   -2.6874    2.2141    1.3386 H   0  0  0  0  0  0  0  0  0  0  0  0
  1  2  1  0
  2  3  1  0
  3  4  2  0
  3  5  2  0
  3  6  1  0
  6  7  1  0
  7  8  1  0
  8  9  1  0
  9 10  1  0
 10 11  1  0
  9  6  1  0
  1 12  1  0
  1 13  1  0
  1 14  1  0
  2 15  1  0
  7 16  1  0
  7 17  1  0
  8 18  1  0
  8 19  1  0
  9 20  1  1
 10 21  1  0
 10 22  1  0
 11 23  1  0
 11 24  1  0
M  END
$$$$

     RDKit          3D

 24 24  0  0  0  0  0  0  0  0999 V2000
    3.1951   -0.7463   -0.0403 C   0  0  0  0  0  0  0  0  0  0  0  0
    2.6531    0.2946    0.7781 N   0  0  0  0  0  0  0  0  0  0  0  0
    1.1197    0.8811    0.2466 S   0  0  0  0  0  6  0  0  0  0  0  0
    1.0926    0.6888   -1.2643 O   0  0  0  0  0  0  0  0  0  0  0  0
    1.1049    2.3577    0.4741 O   0  0  0  0  0  0  0  0  0  0  0  0
   -0.1014    0.0306    1.0283 N   0  0  0  0  0  0  0  0  0  0  0  0
   -0.0491   -1.3837    0.7138 C   0  0  0  0  0  0  0  0  0  0  0  0
   -1.0741   -1.1017   -0.3885 C   0  0  0  0  0  0  0  0  0  0  0  0
   -1.4260    0.0567    0.5101 C   0  0  2  0  0  0  0  0  0  0  0  0
   -1.8835    1.2974   -0.1861 C   0  0  0  0  0  0  0  0  0  0  0  0
   -3.2518    1.1101   -0.6310 N   0  0  0  0  0  0  0  0  0  0  0  0
    3.2784   -1.6816    0.5310 H   0  0  0  0  0  0  0  0  0  0  0  0
    2.6253   -0.8357   -0.9878 H   0  0  0  0  0  0  0  0  0  0  0  0
    4.2418   -0.4494   -0.2951 H   0  0  0  0  0  0  0  0  0  0  0  0
    3.3241    1.0400    0.9846 H   0  0  0  0  0  0  0  0  0  0  0  0
    0.8958   -1.7904    0.3596 H   0  0  0  0  0  0  0  0  0  0  0  0
   -0.5565   -1.9483    1.5232 H   0  0  0  0  0  0  0  0  0  0  0  0
   -1.8745   -1.8726   -0.4191 H   0  0  0  0  0  0  0  0  0  0  0  0
   -0.6526   -0.8618   -1.3652 H   0  0  0  0  0  0  0  0  0  0  0  0
   -2.1466   -0.2904    1.2899 H   0  0  0  0  0  0  0  0  0  0  0  0
   -1.2711    1.3933   -1.1258 H   0  0  0  0  0  0  0  0  0  0  0  0
   -1.8640    2.1966    0.4230 H   0  0  0  0  0  0  0  0  0  0  0  0
   -3.9476    1.4542    0.0493 H   0  0  0  0  0  0  0  0  0  0  0  0
   -3.4321    0.1608   -0.9957 H   0  0  0  0  0  0  0  0  0  0  0  0
  1  2  1  0
  2  3  1  0
  3  4  2  0
  3  5  2  0
  3  6  1  0
  6  7  1  0
  7  8  1  0
  8  9  1  0
  9 10  1  0
 10 11  1  0
  9  6  1  0
  1 12  1  0
  1 13  1  0
  1 14  1  0
  2 15  1  0
  7 16  1  0
  7 17  1  0
  8 18  1  0
  8 19  1  0
  9 20  1  1
 10 21  1  0
 10 22  1  0
 11 23  1  0
 11 24  1  0
M  END
$$$$

     RDKit          3D

 24 24  0  0  0  0  0  0  0  0999 V2000
    3.1923    0.2138   -1.0913 C   0  0  0  0  0  0  0  0  0  0  0  0
    2.4340    1.2812   -0.5145 N   0  0  0  0  0  0  0  0  0  0  0  0
    1.3253    0.7651    0.6924 S   0  0  0  0  0  6  0  0  0  0  0  0
    1.8191   -0.4698    1.4008 O   0  0  0  0  0  0  0  0  0  0  0  0
    1.1824    1.8372    1.7195 O   0  0  0  0  0  0  0  0  0  0  0  0
   -0.1697    0.4054   -0.0811 N   0  0  0  0  0  0  0  0  0  0  0  0
   -0.1417   -0.6379   -1.0508 C   0  0  0  0  0  0  0  0  0  0  0  0
   -1.4730   -1.1281   -0.5057 C   0  0  0  0  0  0  0  0  0  0  0  0
   -1.0524   -0.4184    0.7591 C   0  0  2  0  0  0  0  0  0  0  0  0
   -2.0788    0.4570    1.3982 C   0  0  0  0  0  0  0  0  0  0  0  0
   -2.9971   -0.2436    2.2434 N   0  0  0  0  0  0  0  0  0  0  0  0
    2.6055   -0.2741   -1.8946 H   0  0  0  0  0  0  0  0  0  0  0  0
    3.4707   -0.5189   -0.2923 H   0  0  0  0  0  0  0  0  0  0  0  0
    4.1323    0.6549   -1.5231 H   0  0  0  0  0  0  0  0  0  0  0  0
    3.0189    2.0823   -0.1791 H   0  0  0  0  0  0  0  0  0  0  0  0
    0.6804   -1.3735   -0.9746 H   0  0  0  0  0  0  0  0  0  0  0  0
   -0.2969   -0.2597   -2.0807 H   0  0  0  0  0  0  0  0  0  0  0  0
   -2.3467   -0.7155   -1.0174 H   0  0  0  0  0  0  0  0  0  0  0  0
   -1.4338   -2.2258   -0.3807 H   0  0  0  0  0  0  0  0  0  0  0  0
   -0.4758   -1.0677    1.4223 H   0  0  0  0  0  0  0  0  0  0  0  0
   -2.6098    1.0265    0.6154 H   0  0  0  0  0  0  0  0  0  0  0  0
   -1.5375    1.1990    2.0335 H   0  0  0  0  0  0  0  0  0  0  0  0
   -3.4796   -1.0331    1.7572 H   0  0  0  0  0  0  0  0  0  0  0  0
   -3.7681    0.4436    2.4935 H   0  0  0  0  0  0  0  0  0  0  0  0
  1  2  1  0
  2  3  1  0
  3  4  2  0
  3  5  2  0
  3  6  1  0
  6  7  1  0
  7  8  1  0
  8  9  1  0
  9 10  1  0
 10 11  1  0
  9  6  1  0
  1 12  1  0
  1 13  1  0
  1 14  1  0
  2 15  1  0
  7 16  1  0
  7 17  1  0
  8 18  1  0
  8 19  1  0
  9 20  1  1
 10 21  1  0
 10 22  1  0
 11 23  1  0
 11 24  1  0
M  END
$$$$

     RDKit          3D

 24 24  0  0  0  0  0  0  0  0999 V2000
    2.8151    1.1309   -0.0497 C   0  0  0  0  0  0  0  0  0  0  0  0
    2.3419   -0.2171   -0.2784 N   0  0  0  0  0  0  0  0  0  0  0  0
    1.4452   -0.7968    1.0468 S   0  0  0  0  0  6  0  0  0  0  0  0
    1.6174   -2.3063    1.1178 O   0  0  0  0  0  0  0  0  0  0  0  0
    1.9960   -0.2581    2.3502 O   0  0  0  0  0  0  0  0  0  0  0  0
   -0.2239   -0.4743    0.9609 N   0  0  0  0  0  0  0  0  0  0  0  0
   -0.4752    0.9549    0.9353 C   0  0  0  0  0  0  0  0  0  0  0  0
   -0.7633    0.8572   -0.5274 C   0  0  0  0  0  0  0  0  0  0  0  0
   -0.8512   -0.6232   -0.3102 C   0  0  2  0  0  0  0  0  0  0  0  0
   -2.3162   -1.0363   -0.1886 C   0  0  0  0  0  0  0  0  0  0  0  0
   -2.9371   -1.1831   -1.4743 N   0  0  0  0  0  0  0  0  0  0  0  0
    3.8880    1.1949   -0.3488 H   0  0  0  0  0  0  0  0  0  0  0  0
    2.2211    1.8729   -0.5987 H   0  0  0  0  0  0  0  0  0  0  0  0
    2.7676    1.3760    1.0484 H   0  0  0  0  0  0  0  0  0  0  0  0
    3.1406   -0.8349   -0.5373 H   0  0  0  0  0  0  0  0  0  0  0  0
    0.3840    1.5882    1.2331 H   0  0  0  0  0  0  0  0  0  0  0  0
   -1.3830    1.1783    1.5372 H   0  0  0  0  0  0  0  0  0  0  0  0
   -1.7320    1.3428   -0.8381 H   0  0  0  0  0  0  0  0  0  0  0  0
    0.0161    1.1640   -1.2265 H   0  0  0  0  0  0  0  0  0  0  0  0
   -0.2855   -1.2574   -1.0069 H   0  0  0  0  0  0  0  0  0  0  0  0
   -2.4168   -1.9187    0.4428 H   0  0  0  0  0  0  0  0  0  0  0  0
   -2.8657   -0.2069    0.3458 H   0  0  0  0  0  0  0  0  0  0  0  0
   -2.4358   -0.6566   -2.2249 H   0  0  0  0  0  0  0  0  0  0  0  0
   -3.9473   -0.8902   -1.4083 H   0  0  0  0  0  0  0  0  0  0  0  0
  1  2  1  0
  2  3  1  0
  3  4  2  0
  3  5  2  0
  3  6  1  0
  6  7  1  0
  7  8  1  0
  8  9  1  0
  9 10  1  0
 10 11  1  0
  9  6  1  0
  1 12  1  0
  1 13  1  0
  1 14  1  0
  2 15  1  0
  7 16  1  0
  7 17  1  0
  8 18  1  0
  8 19  1  0
  9 20  1  6
 10 21  1  0
 10 22  1  0
 11 23  1  0
 11 24  1  0
M  END
$$$$

     RDKit          3D

 24 24  0  0  0  0  0  0  0  0999 V2000
    2.4481    0.4982   -0.8858 C   0  0  0  0  0  0  0  0  0  0  0  0
    1.3126    1.0944   -0.2193 N   0  0  0  0  0  0  0  0  0  0  0  0
    0.8663    0.2779    1.2124 S   0  0  0  0  0  6  0  0  0  0  0  0
    0.5285    1.2619    2.3284 O   0  0  0  0  0  0  0  0  0  0  0  0
    2.1353   -0.4095    1.7152 O   0  0  0  0  0  0  0  0  0  0  0  0
   -0.3060   -0.9119    1.0259 N   0  0  0  0  0  0  0  0  0  0  0  0
    0.1125   -1.9806    0.1428 C   0  0  0  0  0  0  0  0  0  0  0  0
   -0.7109   -1.2821   -0.9478 C   0  0  0  0  0  0  0  0  0  0  0  0
   -1.4566   -0.7261    0.2326 C   0  0  2  0  0  0  0  0  0  0  0  0
   -2.0889    0.6040    0.0926 C   0  0  0  0  0  0  0  0  0  0  0  0
   -1.3076    1.6516   -0.4576 N   0  0  0  0  0  0  0  0  0  0  0  0
    2.2090   -0.4159   -1.4593 H   0  0  0  0  0  0  0  0  0  0  0  0
    3.2477    0.2178   -0.1722 H   0  0  0  0  0  0  0  0  0  0  0  0
    2.9066    1.2141   -1.5961 H   0  0  0  0  0  0  0  0  0  0  0  0
    1.5637    2.0850   -0.0115 H   0  0  0  0  0  0  0  0  0  0  0  0
    1.1755   -2.0695   -0.0616 H   0  0  0  0  0  0  0  0  0  0  0  0
   -0.4286   -2.9141    0.4208 H   0  0  0  0  0  0  0  0  0  0  0  0
   -1.3221   -1.9867   -1.5492 H   0  0  0  0  0  0  0  0  0  0  0  0
   -0.1819   -0.5206   -1.5269 H   0  0  0  0  0  0  0  0  0  0  0  0
   -2.2327   -1.4979    0.5411 H   0  0  0  0  0  0  0  0  0  0  0  0
   -2.9835    0.4689   -0.5856 H   0  0  0  0  0  0  0  0  0  0  0  0
   -2.5473    0.8791    1.0774 H   0  0  0  0  0  0  0  0  0  0  0  0
   -1.3386    2.5556    0.0688 H   0  0  0  0  0  0  0  0  0  0  0  0
   -1.6010    1.9066   -1.4430 H   0  0  0  0  0  0  0  0  0  0  0  0
  1  2  1  0
  2  3  1  0
  3  4  2  0
  3  5  2  0
  3  6  1  0
  6  7  1  0
  7  8  1  0
  8  9  1  0
  9 10  1  0
 10 11  1  0
  9  6  1  0
  1 12  1  0
  1 13  1  0
  1 14  1  0
  2 15  1  0
  7 16  1  0
  7 17  1  0
  8 18  1  0
  8 19  1  0
  9 20  1  1
 10 21  1  0
 10 22  1  0
 11 23  1  0
 11 24  1  0
M  END
$$$$
