
     RDKit          3D

 26 27  0  0  0  0  0  0  0  0999 V2000
    2.7495    1.6861    0.5522 N   0  0  0  0  0  0  0  0  0  0  0  0
    2.2390    0.5152    0.3395 C   0  0  0  0  0  0  0  0  0  0  0  0
    3.1316   -0.5781    0.2690 N   0  0  0  0  0  0  0  0  0  0  0  0
    4.5145   -0.4036    0.3086 N   0  0  0  0  0  0  0  0  0  0  0  0
    0.8392    0.4251    0.1958 N   0  0  0  0  0  0  0  0  0  0  0  0
   -0.2916    0.0159    1.0094 C   0  0  0  0  0  0  0  0  0  0  0  0
   -1.1584    0.1722   -0.1808 C   0  0  0  0  0  0  0  0  0  0  0  0
   -2.4268    0.9209   -0.0533 C   0  0  0  0  0  0  0  0  0  0  0  0
   -3.1316   -0.4399   -0.0194 C   0  0  0  0  0  0  0  0  0  0  0  0
   -3.1835   -0.8785    1.2986 O   0  0  0  0  0  0  0  0  0  0  0  0
   -1.8833   -0.9988   -0.7041 C   0  0  0  0  0  0  0  0  0  0  0  0
   -0.0368    0.7474   -0.9415 C   0  0  0  0  0  0  0  0  0  0  0  0
    2.1761    2.5557    0.6211 H   0  0  0  0  0  0  0  0  0  0  0  0
    2.7373   -1.5409    0.1851 H   0  0  0  0  0  0  0  0  0  0  0  0
    4.9659   -0.9842    1.0387 H   0  0  0  0  0  0  0  0  0  0  0  0
    4.9488   -0.6429   -0.6077 H   0  0  0  0  0  0  0  0  0  0  0  0
   -0.5421    0.6940    1.8471 H   0  0  0  0  0  0  0  0  0  0  0  0
   -0.1587   -1.0499    1.3314 H   0  0  0  0  0  0  0  0  0  0  0  0
   -2.5966    1.5325    0.8383 H   0  0  0  0  0  0  0  0  0  0  0  0
   -2.7183    1.4204   -1.0170 H   0  0  0  0  0  0  0  0  0  0  0  0
   -4.0497   -0.4965   -0.5997 H   0  0  0  0  0  0  0  0  0  0  0  0
   -2.7689   -1.7942    1.3171 H   0  0  0  0  0  0  0  0  0  0  0  0
   -2.0626   -1.0050   -1.7934 H   0  0  0  0  0  0  0  0  0  0  0  0
   -1.5436   -1.9675   -0.2981 H   0  0  0  0  0  0  0  0  0  0  0  0
    0.3148    0.2323   -1.8457 H   0  0  0  0  0  0  0  0  0  0  0  0
   -0.0643    1.8622   -1.0258 H   0  0  0  0  0  0  0  0  0  0  0  0
  1  2  2  3
  2  3  1  0
  3  4  1  0
  2  5  1  0
  5  6  1  0
  6  7  1  0
  7  8  1  0
  8  9  1  0
  9 10  1  0
  9 11  1  0
  7 12  1  0
 12  5  1  0
 11  7  1  0
  1 13  1  0
  3 14  1  0
  4 15  1  0
  4 16  1  0
  6 17  1  0
  6 18  1  0
  8 19  1  0
  8 20  1  0
  9 21  1  0
 10 22  1  0
 11 23  1  0
 11 24  1  0
 12 25  1  0
 12 26  1  0
M  END
$$$$

     RDKit          3D

 26 27  0  0  0  0  0  0  0  0999 V2000
    3.0289   -0.1436   -1.2812 N   0  0  0  0  0  0  0  0  0  0  0  0
    2.2785    0.0564   -0.2542 C   0  0  0  0  0  0  0  0  0  0  0  0
    2.8488    0.6917    0.8746 N   0  0  0  0  0  0  0  0  0  0  0  0
    4.1852    1.0924    0.8782 N   0  0  0  0  0  0  0  0  0  0  0  0
    0.9425   -0.3582   -0.2947 N   0  0  0  0  0  0  0  0  0  0  0  0
    0.0434   -1.3158    0.3616 C   0  0  0  0  0  0  0  0  0  0  0  0
   -1.0798   -0.4917   -0.0401 C   0  0  0  0  0  0  0  0  0  0  0  0
   -1.7239    0.4517    0.9044 C   0  0  0  0  0  0  0  0  0  0  0  0
   -2.9571    0.3275   -0.0050 C   0  0  0  0  0  0  0  0  0  0  0  0
   -4.1565    0.3128    0.6329 O   0  0  0  0  0  0  0  0  0  0  0  0
   -2.3912   -1.0480   -0.3881 C   0  0  0  0  0  0  0  0  0  0  0  0
   -0.2094    0.0584   -1.1093 C   0  0  0  0  0  0  0  0  0  0  0  0
    4.0300    0.1459   -1.3023 H   0  0  0  0  0  0  0  0  0  0  0  0
    2.2771    0.8706    1.7236 H   0  0  0  0  0  0  0  0  0  0  0  0
    4.7474    0.2259    0.6663 H   0  0  0  0  0  0  0  0  0  0  0  0
    4.4007    1.7480    0.0750 H   0  0  0  0  0  0  0  0  0  0  0  0
    0.0764   -2.2943   -0.1990 H   0  0  0  0  0  0  0  0  0  0  0  0
    0.2369   -1.4805    1.4231 H   0  0  0  0  0  0  0  0  0  0  0  0
   -1.9258    0.0338    1.9136 H   0  0  0  0  0  0  0  0  0  0  0  0
   -1.2693    1.4591    0.8923 H   0  0  0  0  0  0  0  0  0  0  0  0
   -2.8243    1.0308   -0.8537 H   0  0  0  0  0  0  0  0  0  0  0  0
   -4.6572    1.1452    0.4039 H   0  0  0  0  0  0  0  0  0  0  0  0
   -2.5649   -1.2771   -1.4508 H   0  0  0  0  0  0  0  0  0  0  0  0
   -2.7727   -1.8172    0.3145 H   0  0  0  0  0  0  0  0  0  0  0  0
   -0.3076    1.1340   -1.2422 H   0  0  0  0  0  0  0  0  0  0  0  0
   -0.2563   -0.5578   -2.0318 H   0  0  0  0  0  0  0  0  0  0  0  0
  1  2  2  3
  2  3  1  0
  3  4  1  0
  2  5  1  0
  5  6  1  0
  6  7  1  0
  7  8  1  0
  8  9  1  0
  9 10  1  0
  9 11  1  0
  7 12  1  0
 12  5  1  0
 11  7  1  0
  1 13  1  0
  3 14  1  0
  4 15  1  0
  4 16  1  0
  6 17  1  0
  6 18  1  0
  8 19  1  0
  8 20  1  0
  9 21  1  0
 10 22  1  0
 11 23  1  0
 11 24  1  0
 12 25  1  0
 12 26  1  0
M  END
$$$$

     RDKit          3D

 26 27  0  0  0  0  0  0  0  0999 V2000
    3.0874   -1.2740   -0.2983 N   0  0  0  0  0  0  0  0  0  0  0  0
    2.3370   -0.3254    0.1769 C   0  0  0  0  0  0  0  0  0  0  0  0
    3.0123    0.8371    0.6349 N   0  0  0  0  0  0  0  0  0  0  0  0
    4.2837    1.1629    0.1826 N   0  0  0  0  0  0  0  0  0  0  0  0
    0.9297   -0.4775    0.2200 N   0  0  0  0  0  0  0  0  0  0  0  0
   -0.0112   -1.3191   -0.4908 C   0  0  0  0  0  0  0  0  0  0  0  0
   -1.0753   -0.3551   -0.1742 C   0  0  0  0  0  0  0  0  0  0  0  0
   -1.4997    0.6338   -1.1823 C   0  0  0  0  0  0  0  0  0  0  0  0
   -2.9420    0.3943   -0.7111 C   0  0  0  0  0  0  0  0  0  0  0  0
   -3.3478    1.4287    0.1228 O   0  0  0  0  0  0  0  0  0  0  0  0
   -2.4424   -0.8018    0.0953 C   0  0  0  0  0  0  0  0  0  0  0  0
   -0.1980    0.0827    0.9363 C   0  0  0  0  0  0  0  0  0  0  0  0
    2.6382   -2.1529   -0.6493 H   0  0  0  0  0  0  0  0  0  0  0  0
    2.5208    1.4501    1.3311 H   0  0  0  0  0  0  0  0  0  0  0  0
    4.4415    0.8921   -0.8277 H   0  0  0  0  0  0  0  0  0  0  0  0
    4.4302    2.2068    0.1951 H   0  0  0  0  0  0  0  0  0  0  0  0
   -0.1549   -2.3040    0.0231 H   0  0  0  0  0  0  0  0  0  0  0  0
    0.1932   -1.4351   -1.5785 H   0  0  0  0  0  0  0  0  0  0  0  0
   -1.1571    1.6695   -1.0291 H   0  0  0  0  0  0  0  0  0  0  0  0
   -1.3170    0.2729   -2.2186 H   0  0  0  0  0  0  0  0  0  0  0  0
   -3.6437    0.1450   -1.5131 H   0  0  0  0  0  0  0  0  0  0  0  0
   -4.0027    1.1185    0.8159 H   0  0  0  0  0  0  0  0  0  0  0  0
   -2.7227   -1.7420   -0.4490 H   0  0  0  0  0  0  0  0  0  0  0  0
   -2.8045   -0.8409    1.1286 H   0  0  0  0  0  0  0  0  0  0  0  0
   -0.1668    1.1785    1.0657 H   0  0  0  0  0  0  0  0  0  0  0  0
   -0.3883   -0.4451    1.9030 H   0  0  0  0  0  0  0  0  0  0  0  0
  1  2  2  3
  2  3  1  0
  3  4  1  0
  2  5  1  0
  5  6  1  0
  6  7  1  0
  7  8  1  0
  8  9  1  0
  9 10  1  0
  9 11  1  0
  7 12  1  0
 12  5  1  0
 11  7  1  0
  1 13  1  0
  3 14  1  0
  4 15  1  0
  4 16  1  0
  6 17  1  0
  6 18  1  0
  8 19  1  0
  8 20  1  0
  9 21  1  0
 10 22  1  0
 11 23  1  0
 11 24  1  0
 12 25  1  0
 12 26  1  0
M  END
$$$$

     RDKit          3D

 26 27  0  0  0  0  0  0  0  0999 V2000
    2.8878   -0.8398   -1.5263 N   0  0  0  0  0  0  0  0  0  0  0  0
    2.3212   -0.3154   -0.5102 C   0  0  0  0  0  0  0  0  0  0  0  0
    3.1005    0.2657    0.5099 N   0  0  0  0  0  0  0  0  0  0  0  0
    4.5046    0.4009    0.4153 N   0  0  0  0  0  0  0  0  0  0  0  0
    0.9157   -0.3118   -0.3979 N   0  0  0  0  0  0  0  0  0  0  0  0
   -0.1131    0.5279   -0.9817 C   0  0  0  0  0  0  0  0  0  0  0  0
   -1.0965   -0.1463   -0.0912 C   0  0  0  0  0  0  0  0  0  0  0  0
   -2.3535   -0.6470   -0.6614 C   0  0  0  0  0  0  0  0  0  0  0  0
   -3.0903    0.0009    0.5189 C   0  0  0  0  0  0  0  0  0  0  0  0
   -4.0613    0.9177    0.1225 O   0  0  0  0  0  0  0  0  0  0  0  0
   -1.7712    0.6531    0.9521 C   0  0  0  0  0  0  0  0  0  0  0  0
   -0.0496   -1.1217    0.3256 C   0  0  0  0  0  0  0  0  0  0  0  0
    2.3869   -1.2873   -2.3193 H   0  0  0  0  0  0  0  0  0  0  0  0
    2.6801    0.6374    1.4118 H   0  0  0  0  0  0  0  0  0  0  0  0
    4.8810   -0.0416    1.3017 H   0  0  0  0  0  0  0  0  0  0  0  0
    4.7713    1.4168    0.3773 H   0  0  0  0  0  0  0  0  0  0  0  0
   -0.0377    1.5985   -0.7554 H   0  0  0  0  0  0  0  0  0  0  0  0
   -0.2144    0.2723   -2.0667 H   0  0  0  0  0  0  0  0  0  0  0  0
   -2.6858   -0.1720   -1.6275 H   0  0  0  0  0  0  0  0  0  0  0  0
   -2.5178   -1.7311   -0.7140 H   0  0  0  0  0  0  0  0  0  0  0  0
   -3.4522   -0.7722    1.2132 H   0  0  0  0  0  0  0  0  0  0  0  0
   -3.7135    1.8236    0.3619 H   0  0  0  0  0  0  0  0  0  0  0  0
   -1.7312    1.7412    0.7342 H   0  0  0  0  0  0  0  0  0  0  0  0
   -1.4946    0.4012    2.0127 H   0  0  0  0  0  0  0  0  0  0  0  0
    0.0844   -1.1110    1.4404 H   0  0  0  0  0  0  0  0  0  0  0  0
   -0.1508   -2.1602   -0.0461 H   0  0  0  0  0  0  0  0  0  0  0  0
  1  2  2  3
  2  3  1  0
  3  4  1  0
  2  5  1  0
  5  6  1  0
  6  7  1  0
  7  8  1  0
  8  9  1  0
  9 10  1  0
  9 11  1  0
  7 12  1  0
 12  5  1  0
 11  7  1  0
  1 13  1  0
  3 14  1  0
  4 15  1  0
  4 16  1  0
  6 17  1  0
  6 18  1  0
  8 19  1  0
  8 20  1  0
  9 21  1  0
 10 22  1  0
 11 23  1  0
 11 24  1  0
 12 25  1  0
 12 26  1  0
M  END
$$$$

     RDKit          3D

 26 27  0  0  0  0  0  0  0  0999 V2000
    2.9621   -0.0734   -1.7121 N   0  0  0  0  0  0  0  0  0  0  0  0
    2.3709    0.1390   -0.5723 C   0  0  0  0  0  0  0  0  0  0  0  0
    3.1480    0.3039    0.6074 N   0  0  0  0  0  0  0  0  0  0  0  0
    4.4221   -0.2995    0.6927 N   0  0  0  0  0  0  0  0  0  0  0  0
    0.9505    0.2011   -0.5365 N   0  0  0  0  0  0  0  0  0  0  0  0
    0.0248    0.9348    0.3420 C   0  0  0  0  0  0  0  0  0  0  0  0
   -1.0707    0.1021   -0.2343 C   0  0  0  0  0  0  0  0  0  0  0  0
   -1.7616   -0.8608    0.6467 C   0  0  0  0  0  0  0  0  0  0  0  0
   -2.9355    0.1195    0.6913 C   0  0  0  0  0  0  0  0  0  0  0  0
   -4.1664   -0.4438    0.4924 O   0  0  0  0  0  0  0  0  0  0  0  0
   -2.3459    0.7456   -0.5805 C   0  0  0  0  0  0  0  0  0  0  0  0
   -0.1683   -0.3837   -1.2899 C   0  0  0  0  0  0  0  0  0  0  0  0
    2.4045   -0.1960   -2.5844 H   0  0  0  0  0  0  0  0  0  0  0  0
    2.7379    0.8715    1.3703 H   0  0  0  0  0  0  0  0  0  0  0  0
    4.8010   -0.0476    1.6451 H   0  0  0  0  0  0  0  0  0  0  0  0
    4.3271   -1.3557    0.6510 H   0  0  0  0  0  0  0  0  0  0  0  0
   -0.0990    1.9951    0.0534 H   0  0  0  0  0  0  0  0  0  0  0  0
    0.1740    0.7606    1.4098 H   0  0  0  0  0  0  0  0  0  0  0  0
   -2.0240   -1.7914    0.1058 H   0  0  0  0  0  0  0  0  0  0  0  0
   -1.2853   -1.0309    1.6454 H   0  0  0  0  0  0  0  0  0  0  0  0
   -2.8307    0.8299    1.5178 H   0  0  0  0  0  0  0  0  0  0  0  0
   -4.0485   -1.3610    0.1289 H   0  0  0  0  0  0  0  0  0  0  0  0
   -2.4087    1.8484   -0.5701 H   0  0  0  0  0  0  0  0  0  0  0  0
   -2.8188    0.2522   -1.4740 H   0  0  0  0  0  0  0  0  0  0  0  0
   -0.0839   -1.4592   -1.4622 H   0  0  0  0  0  0  0  0  0  0  0  0
   -0.2756    0.1994   -2.2311 H   0  0  0  0  0  0  0  0  0  0  0  0
  1  2  2  3
  2  3  1  0
  3  4  1  0
  2  5  1  0
  5  6  1  0
  6  7  1  0
  7  8  1  0
  8  9  1  0
  9 10  1  0
  9 11  1  0
  7 12  1  0
 12  5  1  0
 11  7  1  0
  1 13  1  0
  3 14  1  0
  4 15  1  0
  4 16  1  0
  6 17  1  0
  6 18  1  0
  8 19  1  0
  8 20  1  0
  9 21  1  0
 10 22  1  0
 11 23  1  0
 11 24  1  0
 12 25  1  0
 12 26  1  0
M  END
$$$$

     RDKit          3D

 26 27  0  0  0  0  0  0  0  0999 V2000
    2.8158   -0.3914    1.6549 N   0  0  0  0  0  0  0  0  0  0  0  0
    2.3770   -0.1756    0.4631 C   0  0  0  0  0  0  0  0  0  0  0  0
    3.3163    0.1555   -0.5479 N   0  0  0  0  0  0  0  0  0  0  0  0
    4.5843    0.6794   -0.2738 N   0  0  0  0  0  0  0  0  0  0  0  0
    0.9845   -0.2717    0.1882 N   0  0  0  0  0  0  0  0  0  0  0  0
    0.0091   -1.2887   -0.1797 C   0  0  0  0  0  0  0  0  0  0  0  0
   -1.0323   -0.2555   -0.1907 C   0  0  0  0  0  0  0  0  0  0  0  0
   -2.2507   -0.4168    0.6376 C   0  0  0  0  0  0  0  0  0  0  0  0
   -3.0098    0.3529   -0.4543 C   0  0  0  0  0  0  0  0  0  0  0  0
   -4.2346   -0.1685   -0.7813 O   0  0  0  0  0  0  0  0  0  0  0  0
   -1.8633   -0.0528   -1.3932 C   0  0  0  0  0  0  0  0  0  0  0  0
   -0.0459    0.7786    0.1918 C   0  0  0  0  0  0  0  0  0  0  0  0
    2.1940   -0.6394    2.4537 H   0  0  0  0  0  0  0  0  0  0  0  0
    3.0761    0.0117   -1.5506 H   0  0  0  0  0  0  0  0  0  0  0  0
    4.7893    0.6572    0.7653 H   0  0  0  0  0  0  0  0  0  0  0  0
    4.5984    1.7134   -0.5163 H   0  0  0  0  0  0  0  0  0  0  0  0
    0.2517   -1.6478   -1.2105 H   0  0  0  0  0  0  0  0  0  0  0  0
   -0.0747   -2.1268    0.5357 H   0  0  0  0  0  0  0  0  0  0  0  0
   -2.6525   -1.4504    0.7322 H   0  0  0  0  0  0  0  0  0  0  0  0
   -2.1801    0.1513    1.5880 H   0  0  0  0  0  0  0  0  0  0  0  0
   -2.9936    1.4434   -0.2576 H   0  0  0  0  0  0  0  0  0  0  0  0
   -4.9094    0.5795   -0.8330 H   0  0  0  0  0  0  0  0  0  0  0  0
   -2.1213   -1.0384   -1.8692 H   0  0  0  0  0  0  0  0  0  0  0  0
   -1.5822    0.7090   -2.1206 H   0  0  0  0  0  0  0  0  0  0  0  0
    0.1446    1.5900   -0.5323 H   0  0  0  0  0  0  0  0  0  0  0  0
   -0.1908    1.1021    1.2435 H   0  0  0  0  0  0  0  0  0  0  0  0
  1  2  2  3
  2  3  1  0
  3  4  1  0
  2  5  1  0
  5  6  1  0
  6  7  1  0
  7  8  1  0
  8  9  1  0
  9 10  1  0
  9 11  1  0
  7 12  1  0
 12  5  1  0
 11  7  1  0
  1 13  1  0
  3 14  1  0
  4 15  1  0
  4 16  1  0
  6 17  1  0
  6 18  1  0
  8 19  1  0
  8 20  1  0
  9 21  1  0
 10 22  1  0
 11 23  1  0
 11 24  1  0
 12 25  1  0
 12 26  1  0
M  END
$$$$

     RDKit          3D

 26 27  0  0  0  0  0  0  0  0999 V2000
   -2.7215    0.4355   -1.6041 N   0  0  0  0  0  0  0  0  0  0  0  0
   -2.2494   -0.1593   -0.5546 C   0  0  0  0  0  0  0  0  0  0  0  0
   -3.0845   -1.0820    0.1493 N   0  0  0  0  0  0  0  0  0  0  0  0
   -4.4655   -0.9275    0.1569 N   0  0  0  0  0  0  0  0  0  0  0  0
   -0.9285    0.1022   -0.1149 N   0  0  0  0  0  0  0  0  0  0  0  0
    0.1510   -0.7296    0.4040 C   0  0  0  0  0  0  0  0  0  0  0  0
    1.0953    0.3129   -0.0111 C   0  0  0  0  0  0  0  0  0  0  0  0
    1.8429    0.1506   -1.2885 C   0  0  0  0  0  0  0  0  0  0  0  0
    3.0809    0.6608   -0.5404 C   0  0  0  0  0  0  0  0  0  0  0  0
    4.1313   -0.2413   -0.6133 O   0  0  0  0  0  0  0  0  0  0  0  0
    2.3088    0.5820    0.7770 C   0  0  0  0  0  0  0  0  0  0  0  0
   -0.0388    1.2535    0.0323 C   0  0  0  0  0  0  0  0  0  0  0  0
   -2.1320    1.1023   -2.1212 H   0  0  0  0  0  0  0  0  0  0  0  0
   -2.5813   -1.8677    0.6486 H   0  0  0  0  0  0  0  0  0  0  0  0
   -4.8997   -1.0469    1.0834 H   0  0  0  0  0  0  0  0  0  0  0  0
   -4.9564   -1.3740   -0.6226 H   0  0  0  0  0  0  0  0  0  0  0  0
    0.1037   -0.8314    1.5185 H   0  0  0  0  0  0  0  0  0  0  0  0
    0.2029   -1.7226   -0.0765 H   0  0  0  0  0  0  0  0  0  0  0  0
    1.9229   -0.8990   -1.6200 H   0  0  0  0  0  0  0  0  0  0  0  0
    1.5308    0.8146   -2.1202 H   0  0  0  0  0  0  0  0  0  0  0  0
    3.2986    1.6908   -0.8525 H   0  0  0  0  0  0  0  0  0  0  0  0
    3.7414   -1.1506   -0.7608 H   0  0  0  0  0  0  0  0  0  0  0  0
    2.3456    1.4892    1.3885 H   0  0  0  0  0  0  0  0  0  0  0  0
    2.5967   -0.2949    1.4108 H   0  0  0  0  0  0  0  0  0  0  0  0
   -0.1495    1.7626    1.0273 H   0  0  0  0  0  0  0  0  0  0  0  0
   -0.1456    1.9696   -0.7956 H   0  0  0  0  0  0  0  0  0  0  0  0
  1  2  2  3
  2  3  1  0
  3  4  1  0
  2  5  1  0
  5  6  1  0
  6  7  1  0
  7  8  1  0
  8  9  1  0
  9 10  1  0
  9 11  1  0
  7 12  1  0
 12  5  1  0
 11  7  1  0
  1 13  1  0
  3 14  1  0
  4 15  1  0
  4 16  1  0
  6 17  1  0
  6 18  1  0
  8 19  1  0
  8 20  1  0
  9 21  1  0
 10 22  1  0
 11 23  1  0
 11 24  1  0
 12 25  1  0
 12 26  1  0
M  END
$$$$

     RDKit          3D

 26 27  0  0  0  0  0  0  0  0999 V2000
    2.6921   -1.8389    0.6626 N   0  0  0  0  0  0  0  0  0  0  0  0
    2.1189   -0.8221    0.1337 C   0  0  0  0  0  0  0  0  0  0  0  0
    2.9043    0.2349   -0.4055 N   0  0  0  0  0  0  0  0  0  0  0  0
    4.1885    0.4807    0.0945 N   0  0  0  0  0  0  0  0  0  0  0  0
    0.7112   -0.7483    0.0849 N   0  0  0  0  0  0  0  0  0  0  0  0
   -0.2009   -0.1665   -0.8819 C   0  0  0  0  0  0  0  0  0  0  0  0
   -1.2497   -0.1954    0.1419 C   0  0  0  0  0  0  0  0  0  0  0  0
   -1.6936    1.0667    0.7799 C   0  0  0  0  0  0  0  0  0  0  0  0
   -2.8343    1.0553   -0.2497 C   0  0  0  0  0  0  0  0  0  0  0  0
   -2.3671    1.6640   -1.4162 O   0  0  0  0  0  0  0  0  0  0  0  0
   -2.6524   -0.4695   -0.2484 C   0  0  0  0  0  0  0  0  0  0  0  0
   -0.4450   -1.1557    0.8643 C   0  0  0  0  0  0  0  0  0  0  0  0
    3.7200   -1.9521    0.7288 H   0  0  0  0  0  0  0  0  0  0  0  0
    2.4976    0.8269   -1.1882 H   0  0  0  0  0  0  0  0  0  0  0  0
    4.2420    1.4748    0.4436 H   0  0  0  0  0  0  0  0  0  0  0  0
    4.8648    0.3779   -0.6860 H   0  0  0  0  0  0  0  0  0  0  0  0
    0.1141    0.8147   -1.2862 H   0  0  0  0  0  0  0  0  0  0  0  0
   -0.3627   -0.8947   -1.7118 H   0  0  0  0  0  0  0  0  0  0  0  0
   -1.0273    1.9272    0.7109 H   0  0  0  0  0  0  0  0  0  0  0  0
   -2.1552    0.8730    1.7787 H   0  0  0  0  0  0  0  0  0  0  0  0
   -3.7885    1.4079    0.1122 H   0  0  0  0  0  0  0  0  0  0  0  0
   -2.1851    1.0465   -2.1417 H   0  0  0  0  0  0  0  0  0  0  0  0
   -2.8406   -0.9558   -1.2050 H   0  0  0  0  0  0  0  0  0  0  0  0
   -3.2591   -0.9009    0.5694 H   0  0  0  0  0  0  0  0  0  0  0  0
   -0.3472   -0.9218    1.9552 H   0  0  0  0  0  0  0  0  0  0  0  0
   -0.6447   -2.2289    0.6804 H   0  0  0  0  0  0  0  0  0  0  0  0
  1  2  2  3
  2  3  1  0
  3  4  1  0
  2  5  1  0
  5  6  1  0
  6  7  1  0
  7  8  1  0
  8  9  1  0
  9 10  1  0
  9 11  1  0
  7 12  1  0
 12  5  1  0
 11  7  1  0
  1 13  1  0
  3 14  1  0
  4 15  1  0
  4 16  1  0
  6 17  1  0
  6 18  1  0
  8 19  1  0
  8 20  1  0
  9 21  1  0
 10 22  1  0
 11 23  1  0
 11 24  1  0
 12 25  1  0
 12 26  1  0
M  END
$$$$
