
     RDKit          3D

 28 28  0  0  0  0  0  0  0  0999 V2000
    4.4853    1.3153   -0.3147 N   0  0  0  0  0  0  0  0  0  0  0  0
    3.3263    1.1951    0.3346 O   0  0  0  0  0  0  0  0  0  0  0  0
    2.4910    0.2403   -0.2613 C   0  0  0  0  0  0  0  0  0  0  0  0
    1.2212    0.1905    0.5522 C   0  0  0  0  0  0  0  0  0  0  0  0
    0.2458   -0.7551    0.0671 N   0  0  0  0  0  0  0  0  0  0  0  0
   -0.3598   -0.4678   -1.1679 C   0  0  0  0  0  0  0  0  0  0  0  0
   -1.7682   -0.9099   -1.3599 C   0  0  0  0  0  0  0  0  0  0  0  0
   -2.4586   -1.2842   -0.2491 O   0  0  0  0  0  0  0  0  0  0  0  0
   -2.0691   -0.6945    0.9294 C   0  0  2  0  0  0  0  0  0  0  0  0
   -2.3629    0.7713    0.9263 C   0  0  0  0  0  0  0  0  0  0  0  0
   -3.7618    0.9023    0.7582 O   0  0  0  0  0  0  0  0  0  0  0  0
   -0.6376   -1.0432    1.1635 C   0  0  0  0  0  0  0  0  0  0  0  0
    5.0271    0.4233   -0.1120 H   0  0  0  0  0  0  0  0  0  0  0  0
    5.0282    2.1091    0.1151 H   0  0  0  0  0  0  0  0  0  0  0  0
    2.2917    0.6114   -1.2951 H   0  0  0  0  0  0  0  0  0  0  0  0
    3.0030   -0.7407   -0.2660 H   0  0  0  0  0  0  0  0  0  0  0  0
    0.8085    1.2085    0.6766 H   0  0  0  0  0  0  0  0  0  0  0  0
    1.4799   -0.1534    1.5954 H   0  0  0  0  0  0  0  0  0  0  0  0
   -0.2186    0.6241   -1.4116 H   0  0  0  0  0  0  0  0  0  0  0  0
    0.2476   -0.9802   -1.9752 H   0  0  0  0  0  0  0  0  0  0  0  0
   -2.3383   -0.0620   -1.8313 H   0  0  0  0  0  0  0  0  0  0  0  0
   -1.8646   -1.7560   -2.1053 H   0  0  0  0  0  0  0  0  0  0  0  0
   -2.6584   -1.1423    1.7582 H   0  0  0  0  0  0  0  0  0  0  0  0
   -2.0995    1.2546    1.8793 H   0  0  0  0  0  0  0  0  0  0  0  0
   -1.9111    1.3499    0.1214 H   0  0  0  0  0  0  0  0  0  0  0  0
   -4.2532    0.5090    1.5007 H   0  0  0  0  0  0  0  0  0  0  0  0
   -0.3223   -0.5720    2.1170 H   0  0  0  0  0  0  0  0  0  0  0  0
   -0.5715   -2.1433    1.3457 H   0  0  0  0  0  0  0  0  0  0  0  0
  1  2  1  0
  2  3  1  0
  3  4  1  0
  4  5  1  0
  5  6  1  0
  6  7  1  0
  7  8  1  0
  8  9  1  0
  9 10  1  0
 10 11  1  0
  9 12  1  0
 12  5  1  0
  1 13  1  0
  1 14  1  0
  3 15  1  0
  3 16  1  0
  4 17  1  0
  4 18  1  0
  6 19  1  0
  6 20  1  0
  7 21  1  0
  7 22  1  0
  9 23  1  1
 10 24  1  0
 10 25  1  0
 11 26  1  0
 12 27  1  0
 12 28  1  0
M  END
$$$$

     RDKit          3D

 28 28  0  0  0  0  0  0  0  0999 V2000
    3.4887    1.6357   -0.1905 N   0  0  0  0  0  0  0  0  0  0  0  0
    2.4309    0.8835    0.2004 O   0  0  0  0  0  0  0  0  0  0  0  0
    2.5719   -0.3491   -0.3754 C   0  0  0  0  0  0  0  0  0  0  0  0
    1.4709   -1.2924   -0.0427 C   0  0  0  0  0  0  0  0  0  0  0  0
    0.1793   -0.7836   -0.4903 N   0  0  0  0  0  0  0  0  0  0  0  0
   -0.7387   -1.9084   -0.2988 C   0  0  0  0  0  0  0  0  0  0  0  0
   -2.1527   -1.5570   -0.5952 C   0  0  0  0  0  0  0  0  0  0  0  0
   -2.2313   -0.1549   -0.7628 O   0  0  0  0  0  0  0  0  0  0  0  0
   -1.7350    0.3273    0.4658 C   0  0  2  0  0  0  0  0  0  0  0  0
   -2.3709    1.6380    0.7901 C   0  0  0  0  0  0  0  0  0  0  0  0
   -2.1393    2.6287   -0.1361 O   0  0  0  0  0  0  0  0  0  0  0  0
   -0.2411    0.3522    0.3173 C   0  0  0  0  0  0  0  0  0  0  0  0
    4.2797    1.6395    0.4711 H   0  0  0  0  0  0  0  0  0  0  0  0
    3.1539    2.5935   -0.3984 H   0  0  0  0  0  0  0  0  0  0  0  0
    3.5378   -0.8619   -0.1111 H   0  0  0  0  0  0  0  0  0  0  0  0
    2.6207   -0.1641   -1.4945 H   0  0  0  0  0  0  0  0  0  0  0  0
    1.3832   -1.4084    1.0669 H   0  0  0  0  0  0  0  0  0  0  0  0
    1.6726   -2.2935   -0.4903 H   0  0  0  0  0  0  0  0  0  0  0  0
   -0.5886   -2.3041    0.7018 H   0  0  0  0  0  0  0  0  0  0  0  0
   -0.4210   -2.7090   -1.0270 H   0  0  0  0  0  0  0  0  0  0  0  0
   -2.6282   -2.0930   -1.4114 H   0  0  0  0  0  0  0  0  0  0  0  0
   -2.7651   -1.7661    0.3247 H   0  0  0  0  0  0  0  0  0  0  0  0
   -1.9860   -0.3875    1.2738 H   0  0  0  0  0  0  0  0  0  0  0  0
   -2.0984    1.9919    1.7998 H   0  0  0  0  0  0  0  0  0  0  0  0
   -3.4818    1.4122    0.8637 H   0  0  0  0  0  0  0  0  0  0  0  0
   -1.5985    3.3850    0.2369 H   0  0  0  0  0  0  0  0  0  0  0  0
    0.1335    1.2715   -0.1610 H   0  0  0  0  0  0  0  0  0  0  0  0
    0.2535    0.2740    1.3083 H   0  0  0  0  0  0  0  0  0  0  0  0
  1  2  1  0
  2  3  1  0
  3  4  1  0
  4  5  1  0
  5  6  1  0
  6  7  1  0
  7  8  1  0
  8  9  1  0
  9 10  1  0
 10 11  1  0
  9 12  1  0
 12  5  1  0
  1 13  1  0
  1 14  1  0
  3 15  1  0
  3 16  1  0
  4 17  1  0
  4 18  1  0
  6 19  1  0
  6 20  1  0
  7 21  1  0
  7 22  1  0
  9 23  1  1
 10 24  1  0
 10 25  1  0
 11 26  1  0
 12 27  1  0
 12 28  1  0
M  END
$$$$

     RDKit          3D

 28 28  0  0  0  0  0  0  0  0999 V2000
    4.0956    1.4672   -0.4596 N   0  0  0  0  0  0  0  0  0  0  0  0
    2.8970    0.9954   -0.8751 O   0  0  0  0  0  0  0  0  0  0  0  0
    2.7615   -0.3216   -0.4401 C   0  0  0  0  0  0  0  0  0  0  0  0
    1.4239   -0.8643   -0.8997 C   0  0  0  0  0  0  0  0  0  0  0  0
    0.3232   -0.0936   -0.3727 N   0  0  0  0  0  0  0  0  0  0  0  0
    0.2106   -0.2641    1.0674 C   0  0  0  0  0  0  0  0  0  0  0  0
   -1.0712    0.3683    1.5632 C   0  0  0  0  0  0  0  0  0  0  0  0
   -1.7986    0.9710    0.5475 O   0  0  0  0  0  0  0  0  0  0  0  0
   -2.1099    0.1363   -0.4956 C   0  0  2  0  0  0  0  0  0  0  0  0
   -3.1792   -0.8578   -0.0697 C   0  0  0  0  0  0  0  0  0  0  0  0
   -4.3139   -0.1317    0.3174 O   0  0  0  0  0  0  0  0  0  0  0  0
   -0.8919   -0.5629   -1.0381 C   0  0  0  0  0  0  0  0  0  0  0  0
    3.9975    2.4719   -0.1770 H   0  0  0  0  0  0  0  0  0  0  0  0
    4.4501    0.9373    0.3749 H   0  0  0  0  0  0  0  0  0  0  0  0
    2.9123   -0.3889    0.6400 H   0  0  0  0  0  0  0  0  0  0  0  0
    3.5466   -0.9463   -0.9165 H   0  0  0  0  0  0  0  0  0  0  0  0
    1.3955   -0.7989   -2.0056 H   0  0  0  0  0  0  0  0  0  0  0  0
    1.3317   -1.9210   -0.6019 H   0  0  0  0  0  0  0  0  0  0  0  0
    1.0616    0.2893    1.5380 H   0  0  0  0  0  0  0  0  0  0  0  0
    0.2327   -1.3530    1.3139 H   0  0  0  0  0  0  0  0  0  0  0  0
   -1.6760   -0.3960    2.1051 H   0  0  0  0  0  0  0  0  0  0  0  0
   -0.8549    1.1896    2.3079 H   0  0  0  0  0  0  0  0  0  0  0  0
   -2.5645    0.7586   -1.2989 H   0  0  0  0  0  0  0  0  0  0  0  0
   -3.4923   -1.4813   -0.9348 H   0  0  0  0  0  0  0  0  0  0  0  0
   -2.8407   -1.4593    0.7978 H   0  0  0  0  0  0  0  0  0  0  0  0
   -4.1072    0.4523    1.0957 H   0  0  0  0  0  0  0  0  0  0  0  0
   -0.9745   -1.6712   -0.9665 H   0  0  0  0  0  0  0  0  0  0  0  0
   -0.7650   -0.3277   -2.1170 H   0  0  0  0  0  0  0  0  0  0  0  0
  1  2  1  0
  2  3  1  0
  3  4  1  0
  4  5  1  0
  5  6  1  0
  6  7  1  0
  7  8  1  0
  8  9  1  0
  9 10  1  0
 10 11  1  0
  9 12  1  0
 12  5  1  0
  1 13  1  0
  1 14  1  0
  3 15  1  0
  3 16  1  0
  4 17  1  0
  4 18  1  0
  6 19  1  0
  6 20  1  0
  7 21  1  0
  7 22  1  0
  9 23  1  6
 10 24  1  0
 10 25  1  0
 11 26  1  0
 12 27  1  0
 12 28  1  0
M  END
$$$$

     RDKit          3D

 28 28  0  0  0  0  0  0  0  0999 V2000
    2.7369    1.3992    0.7249 N   0  0  0  0  0  0  0  0  0  0  0  0
    3.0108    0.5805   -0.2482 O   0  0  0  0  0  0  0  0  0  0  0  0
    2.7293   -0.7451   -0.1412 C   0  0  0  0  0  0  0  0  0  0  0  0
    1.4898   -0.9772   -1.0680 C   0  0  0  0  0  0  0  0  0  0  0  0
    0.3657   -0.4930   -0.3319 N   0  0  0  0  0  0  0  0  0  0  0  0
    0.0555   -1.2724    0.8444 C   0  0  0  0  0  0  0  0  0  0  0  0
   -1.4187   -1.4949    0.9717 C   0  0  0  0  0  0  0  0  0  0  0  0
   -2.1693   -0.3283    0.8980 O   0  0  0  0  0  0  0  0  0  0  0  0
   -1.6824    0.5764    0.0013 C   0  0  2  0  0  0  0  0  0  0  0  0
   -2.6638    1.5351   -0.5933 C   0  0  0  0  0  0  0  0  0  0  0  0
   -3.0982    2.4747    0.3227 O   0  0  0  0  0  0  0  0  0  0  0  0
   -0.7811   -0.0805   -1.0374 C   0  0  0  0  0  0  0  0  0  0  0  0
    2.7680    2.3979    0.3916 H   0  0  0  0  0  0  0  0  0  0  0  0
    3.0982    1.2722    1.6284 H   0  0  0  0  0  0  0  0  0  0  0  0
    3.4868   -1.4212   -0.4835 H   0  0  0  0  0  0  0  0  0  0  0  0
    2.4338   -1.0048    0.9122 H   0  0  0  0  0  0  0  0  0  0  0  0
    1.4813   -1.8984   -1.5441 H   0  0  0  0  0  0  0  0  0  0  0  0
    1.6495   -0.1461   -1.8517 H   0  0  0  0  0  0  0  0  0  0  0  0
    0.5259   -2.2724    0.8550 H   0  0  0  0  0  0  0  0  0  0  0  0
    0.3745   -0.6914    1.7290 H   0  0  0  0  0  0  0  0  0  0  0  0
   -1.6286   -1.9171    2.0014 H   0  0  0  0  0  0  0  0  0  0  0  0
   -1.8288   -2.2345    0.2784 H   0  0  0  0  0  0  0  0  0  0  0  0
   -0.9630    1.2345    0.6003 H   0  0  0  0  0  0  0  0  0  0  0  0
   -3.5409    0.9899   -1.0343 H   0  0  0  0  0  0  0  0  0  0  0  0
   -2.1791    2.0507   -1.4427 H   0  0  0  0  0  0  0  0  0  0  0  0
   -2.3231    2.7039    0.9173 H   0  0  0  0  0  0  0  0  0  0  0  0
   -1.4035   -0.9004   -1.4782 H   0  0  0  0  0  0  0  0  0  0  0  0
   -0.5256    0.6629   -1.8221 H   0  0  0  0  0  0  0  0  0  0  0  0
  1  2  1  0
  2  3  1  0
  3  4  1  0
  4  5  1  0
  5  6  1  0
  6  7  1  0
  7  8  1  0
  8  9  1  0
  9 10  1  0
 10 11  1  0
  9 12  1  0
 12  5  1  0
  1 13  1  0
  1 14  1  0
  3 15  1  0
  3 16  1  0
  4 17  1  0
  4 18  1  0
  6 19  1  0
  6 20  1  0
  7 21  1  0
  7 22  1  0
  9 23  1  1
 10 24  1  0
 10 25  1  0
 11 26  1  0
 12 27  1  0
 12 28  1  0
M  END
$$$$

     RDKit          3D

 28 28  0  0  0  0  0  0  0  0999 V2000
    4.4463    0.9198   -0.1734 N   0  0  0  0  0  0  0  0  0  0  0  0
    3.3825    0.4229    0.4451 O   0  0  0  0  0  0  0  0  0  0  0  0
    2.3889   -0.0757   -0.4258 C   0  0  0  0  0  0  0  0  0  0  0  0
    1.3087   -0.5987    0.4846 C   0  0  0  0  0  0  0  0  0  0  0  0
    0.2055   -1.1434   -0.2948 N   0  0  0  0  0  0  0  0  0  0  0  0
   -0.6711   -1.9253    0.5760 C   0  0  0  0  0  0  0  0  0  0  0  0
   -2.1058   -1.7488    0.1895 C   0  0  0  0  0  0  0  0  0  0  0  0
   -2.5568   -0.4593    0.4867 O   0  0  0  0  0  0  0  0  0  0  0  0
   -1.5947    0.4946    0.1406 C   0  0  2  0  0  0  0  0  0  0  0  0
   -2.2906    1.6798   -0.5383 C   0  0  0  0  0  0  0  0  0  0  0  0
   -3.2415    2.2276    0.3097 O   0  0  0  0  0  0  0  0  0  0  0  0
   -0.6061   -0.0513   -0.8531 C   0  0  0  0  0  0  0  0  0  0  0  0
    4.2829    1.4649   -1.0340 H   0  0  0  0  0  0  0  0  0  0  0  0
    5.1159    1.3340    0.4972 H   0  0  0  0  0  0  0  0  0  0  0  0
    2.7752   -0.9309   -1.0285 H   0  0  0  0  0  0  0  0  0  0  0  0
    2.0020    0.7286   -1.0757 H   0  0  0  0  0  0  0  0  0  0  0  0
    0.8938    0.3081    1.0463 H   0  0  0  0  0  0  0  0  0  0  0  0
    1.6801   -1.3206    1.2368 H   0  0  0  0  0  0  0  0  0  0  0  0
   -0.4176   -2.9993    0.3624 H   0  0  0  0  0  0  0  0  0  0  0  0
   -0.5346   -1.7018    1.6410 H   0  0  0  0  0  0  0  0  0  0  0  0
   -2.2463   -1.9932   -0.8964 H   0  0  0  0  0  0  0  0  0  0  0  0
   -2.7348   -2.4416    0.7809 H   0  0  0  0  0  0  0  0  0  0  0  0
   -1.0648    0.8372    1.0307 H   0  0  0  0  0  0  0  0  0  0  0  0
   -1.5933    2.4778   -0.8031 H   0  0  0  0  0  0  0  0  0  0  0  0
   -2.8269    1.3230   -1.4294 H   0  0  0  0  0  0  0  0  0  0  0  0
   -2.8674    2.8951    0.9539 H   0  0  0  0  0  0  0  0  0  0  0  0
    0.0488    0.7598   -1.1500 H   0  0  0  0  0  0  0  0  0  0  0  0
   -1.1783   -0.4834   -1.7223 H   0  0  0  0  0  0  0  0  0  0  0  0
  1  2  1  0
  2  3  1  0
  3  4  1  0
  4  5  1  0
  5  6  1  0
  6  7  1  0
  7  8  1  0
  8  9  1  0
  9 10  1  0
 10 11  1  0
  9 12  1  0
 12  5  1  0
  1 13  1  0
  1 14  1  0
  3 15  1  0
  3 16  1  0
  4 17  1  0
  4 18  1  0
  6 19  1  0
  6 20  1  0
  7 21  1  0
  7 22  1  0
  9 23  1  1
 10 24  1  0
 10 25  1  0
 11 26  1  0
 12 27  1  0
 12 28  1  0
M  END
$$$$

     RDKit          3D

 28 28  0  0  0  0  0  0  0  0999 V2000
    4.0068    1.1743   -1.1229 N   0  0  0  0  0  0  0  0  0  0  0  0
    2.6758    1.0976   -0.7974 O   0  0  0  0  0  0  0  0  0  0  0  0
    2.5454    0.6589    0.5372 C   0  0  0  0  0  0  0  0  0  0  0  0
    1.0960    0.6035    0.8868 C   0  0  0  0  0  0  0  0  0  0  0  0
    0.2585   -0.2271    0.1585 N   0  0  0  0  0  0  0  0  0  0  0  0
    0.3368   -1.6147    0.2311 C   0  0  0  0  0  0  0  0  0  0  0  0
   -1.0688   -2.1874    0.1070 C   0  0  0  0  0  0  0  0  0  0  0  0
   -2.0145   -1.3963    0.7403 O   0  0  0  0  0  0  0  0  0  0  0  0
   -2.0957   -0.1047    0.3012 C   0  0  2  0  0  0  0  0  0  0  0  0
   -3.3352    0.1963   -0.5099 C   0  0  0  0  0  0  0  0  0  0  0  0
   -3.2734    1.5372   -0.8810 O   0  0  0  0  0  0  0  0  0  0  0  0
   -0.8776    0.3551   -0.4782 C   0  0  0  0  0  0  0  0  0  0  0  0
    4.5642    0.4452   -0.6150 H   0  0  0  0  0  0  0  0  0  0  0  0
    4.3930    2.0990   -0.7922 H   0  0  0  0  0  0  0  0  0  0  0  0
    3.0196    1.4370    1.1674 H   0  0  0  0  0  0  0  0  0  0  0  0
    3.0776   -0.3055    0.6666 H   0  0  0  0  0  0  0  0  0  0  0  0
    0.7143    1.6649    0.7696 H   0  0  0  0  0  0  0  0  0  0  0  0
    0.9771    0.4174    1.9949 H   0  0  0  0  0  0  0  0  0  0  0  0
    0.8320   -2.0117    1.1409 H   0  0  0  0  0  0  0  0  0  0  0  0
    0.8998   -2.0174   -0.6385 H   0  0  0  0  0  0  0  0  0  0  0  0
   -1.0406   -3.1576    0.6568 H   0  0  0  0  0  0  0  0  0  0  0  0
   -1.3459   -2.4067   -0.9238 H   0  0  0  0  0  0  0  0  0  0  0  0
   -2.1521    0.5482    1.2030 H   0  0  0  0  0  0  0  0  0  0  0  0
   -3.3479   -0.4021   -1.4322 H   0  0  0  0  0  0  0  0  0  0  0  0
   -4.2041    0.0327    0.1335 H   0  0  0  0  0  0  0  0  0  0  0  0
   -2.9179    2.1220   -0.1905 H   0  0  0  0  0  0  0  0  0  0  0  0
   -0.7783    1.4575   -0.4065 H   0  0  0  0  0  0  0  0  0  0  0  0
   -0.9449   -0.0156   -1.5087 H   0  0  0  0  0  0  0  0  0  0  0  0
  1  2  1  0
  2  3  1  0
  3  4  1  0
  4  5  1  0
  5  6  1  0
  6  7  1  0
  7  8  1  0
  8  9  1  0
  9 10  1  0
 10 11  1  0
  9 12  1  0
 12  5  1  0
  1 13  1  0
  1 14  1  0
  3 15  1  0
  3 16  1  0
  4 17  1  0
  4 18  1  0
  6 19  1  0
  6 20  1  0
  7 21  1  0
  7 22  1  0
  9 23  1  1
 10 24  1  0
 10 25  1  0
 11 26  1  0
 12 27  1  0
 12 28  1  0
M  END
$$$$

     RDKit          3D

 28 28  0  0  0  0  0  0  0  0999 V2000
    4.5307    0.2053    0.6165 N   0  0  0  0  0  0  0  0  0  0  0  0
    3.6395   -0.6932    0.1673 O   0  0  0  0  0  0  0  0  0  0  0  0
    2.6024   -0.1301   -0.5475 C   0  0  0  0  0  0  0  0  0  0  0  0
    1.4494    0.2737    0.3822 C   0  0  0  0  0  0  0  0  0  0  0  0
    0.2690   -0.2887   -0.1635 N   0  0  0  0  0  0  0  0  0  0  0  0
   -0.0330    0.0763   -1.5010 C   0  0  0  0  0  0  0  0  0  0  0  0
   -1.4157    0.6407   -1.6251 C   0  0  0  0  0  0  0  0  0  0  0  0
   -2.2880   -0.3602   -1.2178 O   0  0  0  0  0  0  0  0  0  0  0  0
   -2.1292   -0.7295    0.0981 C   0  0  2  0  0  0  0  0  0  0  0  0
   -3.2773   -0.0920    0.8716 C   0  0  0  0  0  0  0  0  0  0  0  0
   -3.0677   -0.1174    2.2387 O   0  0  0  0  0  0  0  0  0  0  0  0
   -0.8384   -0.3812    0.7331 C   0  0  0  0  0  0  0  0  0  0  0  0
    4.7508    0.9622   -0.0498 H   0  0  0  0  0  0  0  0  0  0  0  0
    4.2914    0.5498    1.5770 H   0  0  0  0  0  0  0  0  0  0  0  0
    2.9029    0.7439   -1.1680 H   0  0  0  0  0  0  0  0  0  0  0  0
    2.2622   -0.9017   -1.2864 H   0  0  0  0  0  0  0  0  0  0  0  0
    1.6165   -0.1203    1.3959 H   0  0  0  0  0  0  0  0  0  0  0  0
    1.4504    1.3845    0.4791 H   0  0  0  0  0  0  0  0  0  0  0  0
   -0.0386   -0.8815   -2.0981 H   0  0  0  0  0  0  0  0  0  0  0  0
    0.7549    0.7278   -1.9335 H   0  0  0  0  0  0  0  0  0  0  0  0
   -1.6693    0.8823   -2.6689 H   0  0  0  0  0  0  0  0  0  0  0  0
   -1.4943    1.4893   -0.9284 H   0  0  0  0  0  0  0  0  0  0  0  0
   -2.3224   -1.8370    0.1381 H   0  0  0  0  0  0  0  0  0  0  0  0
   -3.3862    0.9268    0.4903 H   0  0  0  0  0  0  0  0  0  0  0  0
   -4.2066   -0.6709    0.6564 H   0  0  0  0  0  0  0  0  0  0  0  0
   -2.7586    0.8022    2.5023 H   0  0  0  0  0  0  0  0  0  0  0  0
   -0.9901    0.5167    1.3851 H   0  0  0  0  0  0  0  0  0  0  0  0
   -0.6047   -1.2056    1.4564 H   0  0  0  0  0  0  0  0  0  0  0  0
  1  2  1  0
  2  3  1  0
  3  4  1  0
  4  5  1  0
  5  6  1  0
  6  7  1  0
  7  8  1  0
  8  9  1  0
  9 10  1  0
 10 11  1  0
  9 12  1  0
 12  5  1  0
  1 13  1  0
  1 14  1  0
  3 15  1  0
  3 16  1  0
  4 17  1  0
  4 18  1  0
  6 19  1  0
  6 20  1  0
  7 21  1  0
  7 22  1  0
  9 23  1  6
 10 24  1  0
 10 25  1  0
 11 26  1  0
 12 27  1  0
 12 28  1  0
M  END
$$$$

     RDKit          3D

 28 28  0  0  0  0  0  0  0  0999 V2000
    4.0509    0.3903    0.7441 N   0  0  0  0  0  0  0  0  0  0  0  0
    2.9535   -0.3219    0.4288 O   0  0  0  0  0  0  0  0  0  0  0  0
    2.5135   -0.0568   -0.8691 C   0  0  0  0  0  0  0  0  0  0  0  0
    1.2965   -0.8615   -1.1829 C   0  0  0  0  0  0  0  0  0  0  0  0
    0.1700   -0.6594   -0.3761 N   0  0  0  0  0  0  0  0  0  0  0  0
    0.1787   -1.0559    0.9690 C   0  0  0  0  0  0  0  0  0  0  0  0
   -1.1787   -0.6568    1.5644 C   0  0  0  0  0  0  0  0  0  0  0  0
   -1.2987    0.7103    1.4080 O   0  0  0  0  0  0  0  0  0  0  0  0
   -1.5468    1.0343    0.0911 C   0  0  2  0  0  0  0  0  0  0  0  0
   -3.0300    1.1762   -0.1134 C   0  0  0  0  0  0  0  0  0  0  0  0
   -3.7382    0.0193    0.1721 O   0  0  0  0  0  0  0  0  0  0  0  0
   -0.9359    0.0529   -0.8818 C   0  0  0  0  0  0  0  0  0  0  0  0
    4.8607    0.2171    0.1256 H   0  0  0  0  0  0  0  0  0  0  0  0
    3.8440    1.4147    0.8008 H   0  0  0  0  0  0  0  0  0  0  0  0
    2.3178    1.0117   -0.9968 H   0  0  0  0  0  0  0  0  0  0  0  0
    3.3262   -0.3793   -1.5680 H   0  0  0  0  0  0  0  0  0  0  0  0
    1.5450   -1.9620   -1.2009 H   0  0  0  0  0  0  0  0  0  0  0  0
    1.0139   -0.6285   -2.2416 H   0  0  0  0  0  0  0  0  0  0  0  0
    0.9745   -0.6815    1.6090 H   0  0  0  0  0  0  0  0  0  0  0  0
    0.1781   -2.1755    1.0143 H   0  0  0  0  0  0  0  0  0  0  0  0
   -1.9269   -1.2231    0.9734 H   0  0  0  0  0  0  0  0  0  0  0  0
   -1.2379   -0.9174    2.6374 H   0  0  0  0  0  0  0  0  0  0  0  0
   -1.1022    2.0262   -0.1401 H   0  0  0  0  0  0  0  0  0  0  0  0
   -3.3687    2.0158    0.5584 H   0  0  0  0  0  0  0  0  0  0  0  0
   -3.2634    1.4971   -1.1467 H   0  0  0  0  0  0  0  0  0  0  0  0
   -4.2268    0.1131    1.0426 H   0  0  0  0  0  0  0  0  0  0  0  0
   -1.7352   -0.6861   -1.1872 H   0  0  0  0  0  0  0  0  0  0  0  0
   -0.6339    0.5867   -1.8113 H   0  0  0  0  0  0  0  0  0  0  0  0
  1  2  1  0
  2  3  1  0
  3  4  1  0
  4  5  1  0
  5  6  1  0
  6  7  1  0
  7  8  1  0
  8  9  1  0
  9 10  1  0
 10 11  1  0
  9 12  1  0
 12  5  1  0
  1 13  1  0
  1 14  1  0
  3 15  1  0
  3 16  1  0
  4 17  1  0
  4 18  1  0
  6 19  1  0
  6 20  1  0
  7 21  1  0
  7 22  1  0
  9 23  1  6
 10 24  1  0
 10 25  1  0
 11 26  1  0
 12 27  1  0
 12 28  1  0
M  END
$$$$
