
     RDKit          3D

 23 23  0  0  0  0  0  0  0  0999 V2000
    3.0007    1.1668    0.4376 C   0  0  0  0  0  0  0  0  0  0  0  0
    2.3356   -0.0262    0.2060 O   0  0  0  0  0  0  0  0  0  0  0  0
    1.1076    0.1013   -0.3569 C   0  0  2  0  0  0  0  0  0  0  0  0
    0.0794   -0.5065    0.5763 C   0  0  0  0  0  0  0  0  0  0  0  0
   -0.9468   -1.0837   -0.2439 N   0  0  0  0  0  0  0  0  0  0  0  0
   -2.5311   -0.7016    0.2363 S   0  0  0  0  0  6  0  0  0  0  0  0
   -2.8948    0.9656    0.1900 N   0  0  0  0  0  0  0  0  0  0  0  0
   -3.4900   -1.4667   -0.6273 O   0  0  0  0  0  0  0  0  0  0  0  0
   -2.7290   -1.1831    1.6466 O   0  0  0  0  0  0  0  0  0  0  0  0
   -0.6497   -0.7752   -1.6127 C   0  0  0  0  0  0  0  0  0  0  0  0
    0.8855   -0.6985   -1.6056 C   0  0  1  0  0  0  0  0  0  0  0  0
    1.2967   -0.0776   -2.7455 F   0  0  0  0  0  0  0  0  0  0  0  0
    3.1854    1.7589   -0.4578 H   0  0  0  0  0  0  0  0  0  0  0  0
    2.5105    1.7807    1.2274 H   0  0  0  0  0  0  0  0  0  0  0  0
    4.0045    0.8895    0.8599 H   0  0  0  0  0  0  0  0  0  0  0  0
    0.7892    1.1403   -0.5609 H   0  0  0  0  0  0  0  0  0  0  0  0
   -0.3064    0.2368    1.3031 H   0  0  0  0  0  0  0  0  0  0  0  0
    0.5896   -1.3442    1.1053 H   0  0  0  0  0  0  0  0  0  0  0  0
   -3.3629    1.3254    1.0478 H   0  0  0  0  0  0  0  0  0  0  0  0
   -2.1204    1.5665   -0.1534 H   0  0  0  0  0  0  0  0  0  0  0  0
   -0.9844   -1.5581   -2.3251 H   0  0  0  0  0  0  0  0  0  0  0  0
   -1.0105    0.2327   -1.8810 H   0  0  0  0  0  0  0  0  0  0  0  0
    1.2414   -1.7431   -1.5194 H   0  0  0  0  0  0  0  0  0  0  0  0
  1  2  1  0
  2  3  1  0
  3  4  1  0
  4  5  1  0
  5  6  1  0
  6  7  1  0
  6  8  2  0
  6  9  2  0
  5 10  1  0
 10 11  1  0
 11 12  1  0
 11  3  1  0
  1 13  1  0
  1 14  1  0
  1 15  1  0
  3 16  1  6
  4 17  1  0
  4 18  1  0
  7 19  1  0
  7 20  1  0
 10 21  1  0
 10 22  1  0
 11 23  1  1
M  END
$$$$

     RDKit          3D

 23 23  0  0  0  0  0  0  0  0999 V2000
   -3.2047    0.7275   -0.8564 C   0  0  0  0  0  0  0  0  0  0  0  0
   -2.0110    0.0745   -1.1624 O   0  0  0  0  0  0  0  0  0  0  0  0
   -1.2236    0.1008   -0.0214 C   0  0  2  0  0  0  0  0  0  0  0  0
    0.1214    0.7082   -0.2329 C   0  0  0  0  0  0  0  0  0  0  0  0
    0.9513    0.1878    0.8125 N   0  0  0  0  0  0  0  0  0  0  0  0
    2.5095   -0.2923    0.2405 S   0  0  0  0  0  6  0  0  0  0  0  0
    3.2816    1.1274   -0.3993 N   0  0  0  0  0  0  0  0  0  0  0  0
    2.4167   -1.3567   -0.7992 O   0  0  0  0  0  0  0  0  0  0  0  0
    3.3417   -0.7655    1.3924 O   0  0  0  0  0  0  0  0  0  0  0  0
    0.2981   -0.9610    1.3738 C   0  0  0  0  0  0  0  0  0  0  0  0
   -0.8610   -1.2918    0.4551 C   0  0  1  0  0  0  0  0  0  0  0  0
   -1.9016   -1.8858    1.1392 F   0  0  0  0  0  0  0  0  0  0  0  0
   -3.7274    0.2052   -0.0128 H   0  0  0  0  0  0  0  0  0  0  0  0
   -3.0178    1.7676   -0.4943 H   0  0  0  0  0  0  0  0  0  0  0  0
   -3.9202    0.7094   -1.7037 H   0  0  0  0  0  0  0  0  0  0  0  0
   -1.7083    0.6143    0.8325 H   0  0  0  0  0  0  0  0  0  0  0  0
    0.0796    1.8225   -0.2462 H   0  0  0  0  0  0  0  0  0  0  0  0
    0.5159    0.3169   -1.2079 H   0  0  0  0  0  0  0  0  0  0  0  0
    4.1000    0.8570   -0.9885 H   0  0  0  0  0  0  0  0  0  0  0  0
    3.6195    1.7358    0.3777 H   0  0  0  0  0  0  0  0  0  0  0  0
    0.9769   -1.8260    1.5083 H   0  0  0  0  0  0  0  0  0  0  0  0
   -0.1502   -0.6441    2.3418 H   0  0  0  0  0  0  0  0  0  0  0  0
   -0.4863   -1.9315   -0.3846 H   0  0  0  0  0  0  0  0  0  0  0  0
  1  2  1  0
  2  3  1  0
  3  4  1  0
  4  5  1  0
  5  6  1  0
  6  7  1  0
  6  8  2  0
  6  9  2  0
  5 10  1  0
 10 11  1  0
 11 12  1  0
 11  3  1  0
  1 13  1  0
  1 14  1  0
  1 15  1  0
  3 16  1  1
  4 17  1  0
  4 18  1  0
  7 19  1  0
  7 20  1  0
 10 21  1  0
 10 22  1  0
 11 23  1  6
M  END
$$$$

     RDKit          3D

 23 23  0  0  0  0  0  0  0  0999 V2000
   -3.1460    1.1792    0.7116 C   0  0  0  0  0  0  0  0  0  0  0  0
   -2.1893    0.8595   -0.2458 O   0  0  0  0  0  0  0  0  0  0  0  0
   -1.2158    0.0131    0.2094 C   0  0  2  0  0  0  0  0  0  0  0  0
    0.1740    0.6340    0.1637 C   0  0  0  0  0  0  0  0  0  0  0  0
    1.0875   -0.4629    0.1526 N   0  0  0  0  0  0  0  0  0  0  0  0
    2.4778   -0.1672   -0.8194 S   0  0  0  0  0  6  0  0  0  0  0  0
    3.3786    1.1775   -0.2293 N   0  0  0  0  0  0  0  0  0  0  0  0
    3.3527   -1.3684   -0.9149 O   0  0  0  0  0  0  0  0  0  0  0  0
    2.0043    0.1771   -2.2206 O   0  0  0  0  0  0  0  0  0  0  0  0
    0.3871   -1.6484   -0.2211 C   0  0  0  0  0  0  0  0  0  0  0  0
   -1.0332   -1.2337   -0.5891 C   0  0  1  0  0  0  0  0  0  0  0  0
   -1.9451   -2.2020   -0.2772 F   0  0  0  0  0  0  0  0  0  0  0  0
   -2.6950    1.6802    1.5974 H   0  0  0  0  0  0  0  0  0  0  0  0
   -3.7634    0.2999    1.0100 H   0  0  0  0  0  0  0  0  0  0  0  0
   -3.8372    1.9106    0.2406 H   0  0  0  0  0  0  0  0  0  0  0  0
   -1.3859   -0.2584    1.2794 H   0  0  0  0  0  0  0  0  0  0  0  0
    0.2407    1.1320   -0.8457 H   0  0  0  0  0  0  0  0  0  0  0  0
    0.3218    1.3439    0.9815 H   0  0  0  0  0  0  0  0  0  0  0  0
    3.1487    1.3852    0.7534 H   0  0  0  0  0  0  0  0  0  0  0  0
    4.4141    1.0228   -0.2738 H   0  0  0  0  0  0  0  0  0  0  0  0
    0.8701   -2.0429   -1.1558 H   0  0  0  0  0  0  0  0  0  0  0  0
    0.4022   -2.4487    0.5432 H   0  0  0  0  0  0  0  0  0  0  0  0
   -1.0487   -0.9822   -1.6858 H   0  0  0  0  0  0  0  0  0  0  0  0
  1  2  1  0
  2  3  1  0
  3  4  1  0
  4  5  1  0
  5  6  1  0
  6  7  1  0
  6  8  2  0
  6  9  2  0
  5 10  1  0
 10 11  1  0
 11 12  1  0
 11  3  1  0
  1 13  1  0
  1 14  1  0
  1 15  1  0
  3 16  1  1
  4 17  1  0
  4 18  1  0
  7 19  1  0
  7 20  1  0
 10 21  1  0
 10 22  1  0
 11 23  1  6
M  END
$$$$

     RDKit          3D

 23 23  0  0  0  0  0  0  0  0999 V2000
   -3.1201    1.0203    0.0459 C   0  0  0  0  0  0  0  0  0  0  0  0
   -1.8268    0.9663   -0.4238 O   0  0  0  0  0  0  0  0  0  0  0  0
   -1.2095   -0.1592    0.0872 C   0  0  2  0  0  0  0  0  0  0  0  0
    0.0489    0.1664    0.8518 C   0  0  0  0  0  0  0  0  0  0  0  0
    1.0501   -0.5426    0.2098 N   0  0  0  0  0  0  0  0  0  0  0  0
    2.6363   -0.3823    0.6627 S   0  0  0  0  0  6  0  0  0  0  0  0
    3.1429    1.2681    0.4301 N   0  0  0  0  0  0  0  0  0  0  0  0
    3.5588   -1.2650   -0.1023 O   0  0  0  0  0  0  0  0  0  0  0  0
    2.7859   -0.7444    2.1307 O   0  0  0  0  0  0  0  0  0  0  0  0
    0.7185   -0.9564   -1.0846 C   0  0  0  0  0  0  0  0  0  0  0  0
   -0.7955   -1.0282   -1.0664 C   0  0  1  0  0  0  0  0  0  0  0  0
   -1.1950   -2.3424   -0.8336 F   0  0  0  0  0  0  0  0  0  0  0  0
   -3.6718    1.9029   -0.3284 H   0  0  0  0  0  0  0  0  0  0  0  0
   -3.1657    1.0535    1.1585 H   0  0  0  0  0  0  0  0  0  0  0  0
   -3.7270    0.1318   -0.2520 H   0  0  0  0  0  0  0  0  0  0  0  0
   -1.8998   -0.7320    0.7402 H   0  0  0  0  0  0  0  0  0  0  0  0
    0.2233    1.2731    0.8243 H   0  0  0  0  0  0  0  0  0  0  0  0
   -0.0206   -0.1445    1.9237 H   0  0  0  0  0  0  0  0  0  0  0  0
    2.4456    1.8716    0.9194 H   0  0  0  0  0  0  0  0  0  0  0  0
    3.0350    1.4623   -0.6030 H   0  0  0  0  0  0  0  0  0  0  0  0
    1.0272   -0.2058   -1.8642 H   0  0  0  0  0  0  0  0  0  0  0  0
    1.1307   -1.9373   -1.3919 H   0  0  0  0  0  0  0  0  0  0  0  0
   -1.1715   -0.6762   -2.0343 H   0  0  0  0  0  0  0  0  0  0  0  0
  1  2  1  0
  2  3  1  0
  3  4  1  0
  4  5  1  0
  5  6  1  0
  6  7  1  0
  6  8  2  0
  6  9  2  0
  5 10  1  0
 10 11  1  0
 11 12  1  0
 11  3  1  0
  1 13  1  0
  1 14  1  0
  1 15  1  0
  3 16  1  1
  4 17  1  0
  4 18  1  0
  7 19  1  0
  7 20  1  0
 10 21  1  0
 10 22  1  0
 11 23  1  6
M  END
$$$$

     RDKit          3D

 23 23  0  0  0  0  0  0  0  0999 V2000
    3.3097    0.8577    0.3758 C   0  0  0  0  0  0  0  0  0  0  0  0
    1.9919    0.7195    0.6872 O   0  0  0  0  0  0  0  0  0  0  0  0
    1.2104    0.0416   -0.1698 C   0  0  2  0  0  0  0  0  0  0  0  0
    0.0097    0.7931   -0.6950 C   0  0  0  0  0  0  0  0  0  0  0  0
   -0.9607    0.6681    0.3724 N   0  0  0  0  0  0  0  0  0  0  0  0
   -2.5613    0.4692   -0.2404 S   0  0  0  0  0  6  0  0  0  0  0  0
   -2.5871   -0.9893   -1.1624 N   0  0  0  0  0  0  0  0  0  0  0  0
   -3.5624    0.4236    0.8529 O   0  0  0  0  0  0  0  0  0  0  0  0
   -2.8371    1.6372   -1.1674 O   0  0  0  0  0  0  0  0  0  0  0  0
   -0.5696   -0.4221    1.2073 C   0  0  0  0  0  0  0  0  0  0  0  0
    0.5022   -1.1654    0.4343 C   0  0  1  0  0  0  0  0  0  0  0  0
   -0.0084   -1.9949   -0.5120 F   0  0  0  0  0  0  0  0  0  0  0  0
    3.5152    1.3831   -0.5757 H   0  0  0  0  0  0  0  0  0  0  0  0
    3.8262   -0.1143    0.4665 H   0  0  0  0  0  0  0  0  0  0  0  0
    3.7754    1.5094    1.1722 H   0  0  0  0  0  0  0  0  0  0  0  0
    1.7890   -0.3104   -1.0283 H   0  0  0  0  0  0  0  0  0  0  0  0
   -0.3784    0.3502   -1.6274 H   0  0  0  0  0  0  0  0  0  0  0  0
    0.2834    1.8573   -0.8384 H   0  0  0  0  0  0  0  0  0  0  0  0
   -3.4886   -0.9722   -1.7230 H   0  0  0  0  0  0  0  0  0  0  0  0
   -2.7167   -1.8043   -0.4998 H   0  0  0  0  0  0  0  0  0  0  0  0
   -1.4470   -1.1302    1.2724 H   0  0  0  0  0  0  0  0  0  0  0  0
   -0.2365   -0.1256    2.2158 H   0  0  0  0  0  0  0  0  0  0  0  0
    1.1407   -1.6811    1.1830 H   0  0  0  0  0  0  0  0  0  0  0  0
  1  2  1  0
  2  3  1  0
  3  4  1  0
  4  5  1  0
  5  6  1  0
  6  7  1  0
  6  8  2  0
  6  9  2  0
  5 10  1  0
 10 11  1  0
 11 12  1  0
 11  3  1  0
  1 13  1  0
  1 14  1  0
  1 15  1  0
  3 16  1  6
  4 17  1  0
  4 18  1  0
  7 19  1  0
  7 20  1  0
 10 21  1  0
 10 22  1  0
 11 23  1  1
M  END
$$$$

     RDKit          3D

 23 23  0  0  0  0  0  0  0  0999 V2000
    3.2724   -0.8092    0.7524 C   0  0  0  0  0  0  0  0  0  0  0  0
    1.9620   -1.1605    0.4998 O   0  0  0  0  0  0  0  0  0  0  0  0
    1.2425   -0.2425   -0.2061 C   0  0  2  0  0  0  0  0  0  0  0  0
    0.0853    0.3484    0.5846 C   0  0  0  0  0  0  0  0  0  0  0  0
   -1.1105   -0.2120    0.0390 N   0  0  0  0  0  0  0  0  0  0  0  0
   -2.4461    0.8723    0.0678 S   0  0  0  0  0  6  0  0  0  0  0  0
   -2.8389    1.3164    1.6988 N   0  0  0  0  0  0  0  0  0  0  0  0
   -2.2190    2.0857   -0.7554 O   0  0  0  0  0  0  0  0  0  0  0  0
   -3.6484    0.1598   -0.4845 O   0  0  0  0  0  0  0  0  0  0  0  0
   -0.8562   -0.6250   -1.3078 C   0  0  0  0  0  0  0  0  0  0  0  0
    0.6263   -0.7490   -1.4623 C   0  0  1  0  0  0  0  0  0  0  0  0
    1.0085    0.0753   -2.5272 F   0  0  0  0  0  0  0  0  0  0  0  0
    3.8841   -0.6386   -0.1361 H   0  0  0  0  0  0  0  0  0  0  0  0
    3.7553   -1.5662    1.3813 H   0  0  0  0  0  0  0  0  0  0  0  0
    3.2469    0.1603    1.3123 H   0  0  0  0  0  0  0  0  0  0  0  0
    1.9269    0.6252   -0.4238 H   0  0  0  0  0  0  0  0  0  0  0  0
    0.1090    1.4372    0.6340 H   0  0  0  0  0  0  0  0  0  0  0  0
    0.1938   -0.0591    1.6297 H   0  0  0  0  0  0  0  0  0  0  0  0
   -3.8113    1.6496    1.7862 H   0  0  0  0  0  0  0  0  0  0  0  0
   -2.6459    0.5314    2.3704 H   0  0  0  0  0  0  0  0  0  0  0  0
   -1.2955    0.1367   -2.0146 H   0  0  0  0  0  0  0  0  0  0  0  0
   -1.3981   -1.5691   -1.5194 H   0  0  0  0  0  0  0  0  0  0  0  0
    0.9572   -1.7671   -1.7486 H   0  0  0  0  0  0  0  0  0  0  0  0
  1  2  1  0
  2  3  1  0
  3  4  1  0
  4  5  1  0
  5  6  1  0
  6  7  1  0
  6  8  2  0
  6  9  2  0
  5 10  1  0
 10 11  1  0
 11 12  1  0
 11  3  1  0
  1 13  1  0
  1 14  1  0
  1 15  1  0
  3 16  1  6
  4 17  1  0
  4 18  1  0
  7 19  1  0
  7 20  1  0
 10 21  1  0
 10 22  1  0
 11 23  1  6
M  END
$$$$

     RDKit          3D

 23 23  0  0  0  0  0  0  0  0999 V2000
    2.8612    1.0584    0.8942 C   0  0  0  0  0  0  0  0  0  0  0  0
    1.6621    0.3711    1.0081 O   0  0  0  0  0  0  0  0  0  0  0  0
    1.1928    0.0960   -0.2715 C   0  0  2  0  0  0  0  0  0  0  0  0
   -0.1755    0.6195   -0.5404 C   0  0  0  0  0  0  0  0  0  0  0  0
   -1.0952   -0.4656   -0.5512 N   0  0  0  0  0  0  0  0  0  0  0  0
   -2.5122   -0.1980    0.3583 S   0  0  0  0  0  6  0  0  0  0  0  0
   -3.3452    1.1556   -0.3232 N   0  0  0  0  0  0  0  0  0  0  0  0
   -3.4071   -1.3951    0.2405 O   0  0  0  0  0  0  0  0  0  0  0  0
   -2.1742    0.0666    1.8082 O   0  0  0  0  0  0  0  0  0  0  0  0
   -0.4047   -1.6727   -0.2365 C   0  0  0  0  0  0  0  0  0  0  0  0
    1.0600   -1.3997   -0.4359 C   0  0  1  0  0  0  0  0  0  0  0  0
    1.4499   -1.7478   -1.7017 F   0  0  0  0  0  0  0  0  0  0  0  0
    2.7248    2.0103    0.3424 H   0  0  0  0  0  0  0  0  0  0  0  0
    3.3519    1.2269    1.8633 H   0  0  0  0  0  0  0  0  0  0  0  0
    3.5588    0.4302    0.2675 H   0  0  0  0  0  0  0  0  0  0  0  0
    1.8947    0.4949   -1.0541 H   0  0  0  0  0  0  0  0  0  0  0  0
   -0.4879    1.3853    0.2143 H   0  0  0  0  0  0  0  0  0  0  0  0
   -0.2243    1.1263   -1.5306 H   0  0  0  0  0  0  0  0  0  0  0  0
   -3.2030    1.2057   -1.3536 H   0  0  0  0  0  0  0  0  0  0  0  0
   -3.1087    2.0509    0.1370 H   0  0  0  0  0  0  0  0  0  0  0  0
   -0.5692   -2.0084    0.8116 H   0  0  0  0  0  0  0  0  0  0  0  0
   -0.7222   -2.4629   -0.9242 H   0  0  0  0  0  0  0  0  0  0  0  0
    1.6733   -1.9475    0.3209 H   0  0  0  0  0  0  0  0  0  0  0  0
  1  2  1  0
  2  3  1  0
  3  4  1  0
  4  5  1  0
  5  6  1  0
  6  7  1  0
  6  8  2  0
  6  9  2  0
  5 10  1  0
 10 11  1  0
 11 12  1  0
 11  3  1  0
  1 13  1  0
  1 14  1  0
  1 15  1  0
  3 16  1  6
  4 17  1  0
  4 18  1  0
  7 19  1  0
  7 20  1  0
 10 21  1  0
 10 22  1  0
 11 23  1  1
M  END
$$$$

     RDKit          3D

 23 23  0  0  0  0  0  0  0  0999 V2000
    3.3397    0.3677    0.1827 C   0  0  0  0  0  0  0  0  0  0  0  0
    2.2064    0.2016   -0.6216 O   0  0  0  0  0  0  0  0  0  0  0  0
    1.0940    0.3128    0.2107 C   0  0  2  0  0  0  0  0  0  0  0  0
    0.2315   -0.9230    0.1179 C   0  0  0  0  0  0  0  0  0  0  0  0
   -0.7252   -0.6864   -0.9307 N   0  0  0  0  0  0  0  0  0  0  0  0
   -2.2493   -1.4248   -0.4998 S   0  0  0  0  0  6  0  0  0  0  0  0
   -2.8670   -0.7228    0.9478 N   0  0  0  0  0  0  0  0  0  0  0  0
   -3.2321   -1.2011   -1.6220 O   0  0  0  0  0  0  0  0  0  0  0  0
   -2.0662   -2.8902   -0.2631 O   0  0  0  0  0  0  0  0  0  0  0  0
   -0.8556    0.7133   -1.1266 C   0  0  0  0  0  0  0  0  0  0  0  0
    0.2113    1.4128   -0.3248 C   0  0  1  0  0  0  0  0  0  0  0  0
   -0.3140    2.1629    0.7141 F   0  0  0  0  0  0  0  0  0  0  0  0
    3.2649    1.3809    0.6423 H   0  0  0  0  0  0  0  0  0  0  0  0
    4.2790    0.2384   -0.3930 H   0  0  0  0  0  0  0  0  0  0  0  0
    3.3227   -0.3713    1.0070 H   0  0  0  0  0  0  0  0  0  0  0  0
    1.3511    0.4976    1.2630 H   0  0  0  0  0  0  0  0  0  0  0  0
   -0.3108   -1.1251    1.0641 H   0  0  0  0  0  0  0  0  0  0  0  0
    0.8877   -1.7978   -0.0700 H   0  0  0  0  0  0  0  0  0  0  0  0
   -2.1090   -0.2238    1.4999 H   0  0  0  0  0  0  0  0  0  0  0  0
   -3.5938   -0.0096    0.6752 H   0  0  0  0  0  0  0  0  0  0  0  0
   -0.7743    0.9259   -2.2137 H   0  0  0  0  0  0  0  0  0  0  0  0
   -1.8396    1.0685   -0.7530 H   0  0  0  0  0  0  0  0  0  0  0  0
    0.7485    2.0935   -1.0189 H   0  0  0  0  0  0  0  0  0  0  0  0
  1  2  1  0
  2  3  1  0
  3  4  1  0
  4  5  1  0
  5  6  1  0
  6  7  1  0
  6  8  2  0
  6  9  2  0
  5 10  1  0
 10 11  1  0
 11 12  1  0
 11  3  1  0
  1 13  1  0
  1 14  1  0
  1 15  1  0
  3 16  1  1
  4 17  1  0
  4 18  1  0
  7 19  1  0
  7 20  1  0
 10 21  1  0
 10 22  1  0
 11 23  1  6
M  END
$$$$
