
     RDKit          3D

 26 28  0  0  0  0  0  0  0  0999 V2000
    4.4955   -0.2198   -0.0236 N   0  0  0  0  0  0  0  0  0  0  0  0
    3.3840    0.4256    0.0256 C   0  0  0  0  0  0  0  0  0  0  0  0
    3.2083    1.7520   -0.0677 N   0  0  0  0  0  0  0  0  0  0  0  0
    1.9306    1.9704    0.0320 N   0  0  0  0  0  0  0  0  0  0  0  0
    1.2705    0.7808    0.1911 C   0  0  0  0  0  0  0  0  0  0  0  0
   -0.1968    0.7211    0.3354 C   0  0  1  0  0  0  0  0  0  0  0  0
   -0.8539   -0.3098   -0.6144 C   0  0  2  0  0  0  0  0  0  0  0  0
   -1.8965    0.1876   -1.3285 O   0  0  0  0  0  0  0  0  0  0  0  0
   -2.9992    0.5952   -0.6499 C   0  0  0  0  0  0  0  0  0  0  0  0
   -3.3360   -0.2808    0.5377 C   0  0  0  0  0  0  0  0  0  0  0  0
   -2.2221   -0.2161    1.4405 N   0  0  0  0  0  0  0  0  0  0  0  0
   -0.9415   -0.4360    0.8136 C   0  0  2  0  0  0  0  0  0  0  0  0
    2.1770   -0.1853    0.1875 N   0  0  0  0  0  0  0  0  0  0  0  0
    1.9284   -1.5418    0.3262 N   0  0  0  0  0  0  0  0  0  0  0  0
    4.5581   -1.2540    0.0560 H   0  0  0  0  0  0  0  0  0  0  0  0
    3.9936    2.4399   -0.1970 H   0  0  0  0  0  0  0  0  0  0  0  0
   -0.7109    1.7022    0.4135 H   0  0  0  0  0  0  0  0  0  0  0  0
   -0.1836   -0.9736   -1.1967 H   0  0  0  0  0  0  0  0  0  0  0  0
   -3.8621    0.6517   -1.3457 H   0  0  0  0  0  0  0  0  0  0  0  0
   -2.8469    1.6256   -0.2556 H   0  0  0  0  0  0  0  0  0  0  0  0
   -4.2188    0.1647    1.0231 H   0  0  0  0  0  0  0  0  0  0  0  0
   -3.5650   -1.3160    0.2070 H   0  0  0  0  0  0  0  0  0  0  0  0
   -2.4081   -0.8478    2.2463 H   0  0  0  0  0  0  0  0  0  0  0  0
   -0.3619   -1.2534    1.3008 H   0  0  0  0  0  0  0  0  0  0  0  0
    1.8755   -2.0549    1.2385 H   0  0  0  0  0  0  0  0  0  0  0  0
    1.7819   -2.1276   -0.5235 H   0  0  0  0  0  0  0  0  0  0  0  0
  1  2  2  3
  2  3  1  0
  3  4  1  0
  4  5  2  0
  5  6  1  0
  6  7  1  0
  7  8  1  0
  8  9  1  0
  9 10  1  0
 10 11  1  0
 11 12  1  0
  5 13  1  0
 13 14  1  0
 13  2  1  0
 12  6  1  0
 12  7  1  0
  1 15  1  0
  3 16  1  0
  6 17  1  6
  7 18  1  6
  9 19  1  0
  9 20  1  0
 10 21  1  0
 10 22  1  0
 11 23  1  0
 12 24  1  1
 14 25  1  0
 14 26  1  0
M  END
$$$$

     RDKit          3D

 26 28  0  0  0  0  0  0  0  0999 V2000
    4.3741    0.5335   -0.6577 N   0  0  0  0  0  0  0  0  0  0  0  0
    3.4006   -0.0839   -0.0938 C   0  0  0  0  0  0  0  0  0  0  0  0
    3.4460   -1.0298    0.8463 N   0  0  0  0  0  0  0  0  0  0  0  0
    2.2334   -1.4250    1.1782 N   0  0  0  0  0  0  0  0  0  0  0  0
    1.3543   -0.7073    0.4234 C   0  0  0  0  0  0  0  0  0  0  0  0
   -0.1098   -0.7953    0.4307 C   0  0  1  0  0  0  0  0  0  0  0  0
   -0.8199    0.5622    0.6221 C   0  0  2  0  0  0  0  0  0  0  0  0
   -1.7737    0.5489    1.5846 O   0  0  0  0  0  0  0  0  0  0  0  0
   -3.0227    0.1139    1.2672 C   0  0  0  0  0  0  0  0  0  0  0  0
   -3.2264    0.2374   -0.2177 C   0  0  0  0  0  0  0  0  0  0  0  0
   -2.3180   -0.7601   -0.8078 N   0  0  0  0  0  0  0  0  0  0  0  0
   -0.9927   -0.2292   -0.5785 C   0  0  2  0  0  0  0  0  0  0  0  0
    2.0778    0.1122   -0.3537 N   0  0  0  0  0  0  0  0  0  0  0  0
    1.6457    1.0425   -1.3054 N   0  0  0  0  0  0  0  0  0  0  0  0
    4.2040    1.2483   -1.3748 H   0  0  0  0  0  0  0  0  0  0  0  0
    4.3246   -1.4188    1.2753 H   0  0  0  0  0  0  0  0  0  0  0  0
   -0.4997   -1.6393    1.0460 H   0  0  0  0  0  0  0  0  0  0  0  0
   -0.1888    1.4656    0.6032 H   0  0  0  0  0  0  0  0  0  0  0  0
   -3.8256    0.6825    1.7810 H   0  0  0  0  0  0  0  0  0  0  0  0
   -3.1275   -0.9409    1.6173 H   0  0  0  0  0  0  0  0  0  0  0  0
   -2.8661    1.2162   -0.5557 H   0  0  0  0  0  0  0  0  0  0  0  0
   -4.2692    0.0620   -0.5340 H   0  0  0  0  0  0  0  0  0  0  0  0
   -2.4504   -1.6920   -0.3608 H   0  0  0  0  0  0  0  0  0  0  0  0
   -0.5400    0.1533   -1.5149 H   0  0  0  0  0  0  0  0  0  0  0  0
    1.6225    0.7323   -2.3222 H   0  0  0  0  0  0  0  0  0  0  0  0
    1.3476    2.0109   -1.1186 H   0  0  0  0  0  0  0  0  0  0  0  0
  1  2  2  3
  2  3  1  0
  3  4  1  0
  4  5  2  0
  5  6  1  0
  6  7  1  0
  7  8  1  0
  8  9  1  0
  9 10  1  0
 10 11  1  0
 11 12  1  0
  5 13  1  0
 13 14  1  0
 13  2  1  0
 12  6  1  0
 12  7  1  0
  1 15  1  0
  3 16  1  0
  6 17  1  1
  7 18  1  6
  9 19  1  0
  9 20  1  0
 10 21  1  0
 10 22  1  0
 11 23  1  0
 12 24  1  6
 14 25  1  0
 14 26  1  0
M  END
$$$$

     RDKit          3D

 26 28  0  0  0  0  0  0  0  0999 V2000
    4.6127    0.2220   -0.4340 N   0  0  0  0  0  0  0  0  0  0  0  0
    3.3871    0.5043   -0.0817 C   0  0  0  0  0  0  0  0  0  0  0  0
    2.9257    1.6073    0.5146 N   0  0  0  0  0  0  0  0  0  0  0  0
    1.6331    1.4406    0.6700 N   0  0  0  0  0  0  0  0  0  0  0  0
    1.2489    0.2462    0.1835 C   0  0  0  0  0  0  0  0  0  0  0  0
   -0.1398   -0.3083    0.1758 C   0  0  1  0  0  0  0  0  0  0  0  0
   -1.1203    0.2114    1.2078 C   0  0  2  0  0  0  0  0  0  0  0  0
   -2.0624   -0.6218    1.6935 O   0  0  0  0  0  0  0  0  0  0  0  0
   -3.1627   -0.8552    0.9351 C   0  0  0  0  0  0  0  0  0  0  0  0
   -3.4776    0.2497   -0.0507 C   0  0  0  0  0  0  0  0  0  0  0  0
   -2.3272    0.3214   -0.9358 N   0  0  0  0  0  0  0  0  0  0  0  0
   -1.2076    0.7067   -0.1422 C   0  0  2  0  0  0  0  0  0  0  0  0
    2.3591   -0.3383   -0.2885 N   0  0  0  0  0  0  0  0  0  0  0  0
    2.4556   -1.6082   -0.8968 N   0  0  0  0  0  0  0  0  0  0  0  0
    5.3608    0.9450   -0.2324 H   0  0  0  0  0  0  0  0  0  0  0  0
    3.5264    2.4183    0.7837 H   0  0  0  0  0  0  0  0  0  0  0  0
   -0.2732   -1.2974   -0.2605 H   0  0  0  0  0  0  0  0  0  0  0  0
   -0.6267    0.8656    1.9845 H   0  0  0  0  0  0  0  0  0  0  0  0
   -4.0769   -1.0861    1.5044 H   0  0  0  0  0  0  0  0  0  0  0  0
   -2.9577   -1.7720    0.3076 H   0  0  0  0  0  0  0  0  0  0  0  0
   -4.4052   -0.0224   -0.5910 H   0  0  0  0  0  0  0  0  0  0  0  0
   -3.5883    1.2093    0.5030 H   0  0  0  0  0  0  0  0  0  0  0  0
   -2.1482   -0.6647   -1.2811 H   0  0  0  0  0  0  0  0  0  0  0  0
   -0.8861    1.7759   -0.3150 H   0  0  0  0  0  0  0  0  0  0  0  0
    1.8378   -2.3683   -0.5244 H   0  0  0  0  0  0  0  0  0  0  0  0
    3.1126   -1.7810   -1.6814 H   0  0  0  0  0  0  0  0  0  0  0  0
  1  2  2  3
  2  3  1  0
  3  4  1  0
  4  5  2  0
  5  6  1  0
  6  7  1  0
  7  8  1  0
  8  9  1  0
  9 10  1  0
 10 11  1  0
 11 12  1  0
  5 13  1  0
 13 14  1  0
 13  2  1  0
 12  6  1  0
 12  7  1  0
  1 15  1  0
  3 16  1  0
  6 17  1  6
  7 18  1  1
  9 19  1  0
  9 20  1  0
 10 21  1  0
 10 22  1  0
 11 23  1  0
 12 24  1  1
 14 25  1  0
 14 26  1  0
M  END
$$$$

     RDKit          3D

 26 28  0  0  0  0  0  0  0  0999 V2000
    4.6247   -0.0853    0.2894 N   0  0  0  0  0  0  0  0  0  0  0  0
    3.3901   -0.4050    0.1124 C   0  0  0  0  0  0  0  0  0  0  0  0
    2.9164   -1.6382   -0.1120 N   0  0  0  0  0  0  0  0  0  0  0  0
    1.5935   -1.5421   -0.2398 N   0  0  0  0  0  0  0  0  0  0  0  0
    1.2373   -0.2592   -0.0970 C   0  0  0  0  0  0  0  0  0  0  0  0
   -0.1685    0.2423   -0.1765 C   0  0  1  0  0  0  0  0  0  0  0  0
   -1.1344   -0.5200   -1.0784 C   0  0  2  0  0  0  0  0  0  0  0  0
   -2.0486    0.2220   -1.7283 O   0  0  0  0  0  0  0  0  0  0  0  0
   -3.0802    0.7419   -1.0099 C   0  0  0  0  0  0  0  0  0  0  0  0
   -3.4819   -0.2055    0.1188 C   0  0  0  0  0  0  0  0  0  0  0  0
   -2.3449   -0.1854    1.0391 N   0  0  0  0  0  0  0  0  0  0  0  0
   -1.2243   -0.7271    0.3424 C   0  0  2  0  0  0  0  0  0  0  0  0
    2.3630    0.4578    0.1243 N   0  0  0  0  0  0  0  0  0  0  0  0
    2.3605    1.8352    0.3182 N   0  0  0  0  0  0  0  0  0  0  0  0
    5.4034   -0.7685    0.2763 H   0  0  0  0  0  0  0  0  0  0  0  0
    3.5182   -2.4851   -0.1671 H   0  0  0  0  0  0  0  0  0  0  0  0
   -0.3413    1.3234   -0.0425 H   0  0  0  0  0  0  0  0  0  0  0  0
   -0.6326   -1.3151   -1.7029 H   0  0  0  0  0  0  0  0  0  0  0  0
   -3.9681    0.8996   -1.6455 H   0  0  0  0  0  0  0  0  0  0  0  0
   -2.7373    1.6758   -0.5045 H   0  0  0  0  0  0  0  0  0  0  0  0
   -4.3782    0.1233    0.6417 H   0  0  0  0  0  0  0  0  0  0  0  0
   -3.5514   -1.2535   -0.2695 H   0  0  0  0  0  0  0  0  0  0  0  0
   -2.1839    0.7908    1.3725 H   0  0  0  0  0  0  0  0  0  0  0  0
   -0.8450   -1.6884    0.7829 H   0  0  0  0  0  0  0  0  0  0  0  0
    2.0836    2.5147   -0.4481 H   0  0  0  0  0  0  0  0  0  0  0  0
    2.6298    2.2514    1.2213 H   0  0  0  0  0  0  0  0  0  0  0  0
  1  2  2  3
  2  3  1  0
  3  4  1  0
  4  5  2  0
  5  6  1  0
  6  7  1  0
  7  8  1  0
  8  9  1  0
  9 10  1  0
 10 11  1  0
 11 12  1  0
  5 13  1  0
 13 14  1  0
 13  2  1  0
 12  6  1  0
 12  7  1  0
  1 15  1  0
  3 16  1  0
  6 17  1  1
  7 18  1  6
  9 19  1  0
  9 20  1  0
 10 21  1  0
 10 22  1  0
 11 23  1  0
 12 24  1  6
 14 25  1  0
 14 26  1  0
M  END
$$$$

     RDKit          3D

 26 28  0  0  0  0  0  0  0  0999 V2000
    4.4288    0.6223   -0.2696 N   0  0  0  0  0  0  0  0  0  0  0  0
    3.2862    0.3725    0.2604 C   0  0  0  0  0  0  0  0  0  0  0  0
    3.0701    0.0223    1.5186 N   0  0  0  0  0  0  0  0  0  0  0  0
    1.7711   -0.1455    1.6773 N   0  0  0  0  0  0  0  0  0  0  0  0
    1.1263    0.0985    0.5048 C   0  0  0  0  0  0  0  0  0  0  0  0
   -0.3360   -0.0057    0.3545 C   0  0  1  0  0  0  0  0  0  0  0  0
   -0.9788    1.1163   -0.4443 C   0  0  2  0  0  0  0  0  0  0  0  0
   -2.1051    1.6627    0.0618 O   0  0  0  0  0  0  0  0  0  0  0  0
   -3.0121    0.8907    0.6780 C   0  0  0  0  0  0  0  0  0  0  0  0
   -3.0747   -0.5466    0.2922 C   0  0  0  0  0  0  0  0  0  0  0  0
   -2.3293   -0.8668   -0.8994 N   0  0  0  0  0  0  0  0  0  0  0  0
   -1.0126   -0.2686   -0.9082 C   0  0  2  0  0  0  0  0  0  0  0  0
    2.0795    0.4181   -0.3626 N   0  0  0  0  0  0  0  0  0  0  0  0
    1.8970    0.7448   -1.6825 N   0  0  0  0  0  0  0  0  0  0  0  0
    5.3242    0.5728    0.2525 H   0  0  0  0  0  0  0  0  0  0  0  0
    3.8404   -0.0894    2.2320 H   0  0  0  0  0  0  0  0  0  0  0  0
   -0.9146   -0.3263    1.2724 H   0  0  0  0  0  0  0  0  0  0  0  0
   -0.3363    1.8221   -1.0086 H   0  0  0  0  0  0  0  0  0  0  0  0
   -4.0201    1.3731    0.5752 H   0  0  0  0  0  0  0  0  0  0  0  0
   -2.8136    0.9215    1.7913 H   0  0  0  0  0  0  0  0  0  0  0  0
   -2.7366   -1.2298    1.1132 H   0  0  0  0  0  0  0  0  0  0  0  0
   -4.1316   -0.8256    0.0974 H   0  0  0  0  0  0  0  0  0  0  0  0
   -2.2552   -1.9133   -0.9388 H   0  0  0  0  0  0  0  0  0  0  0  0
   -0.4246   -0.5669   -1.7959 H   0  0  0  0  0  0  0  0  0  0  0  0
    1.8117    0.0076   -2.3998 H   0  0  0  0  0  0  0  0  0  0  0  0
    1.8456    1.7346   -1.9718 H   0  0  0  0  0  0  0  0  0  0  0  0
  1  2  2  3
  2  3  1  0
  3  4  1  0
  4  5  2  0
  5  6  1  0
  6  7  1  0
  7  8  1  0
  8  9  1  0
  9 10  1  0
 10 11  1  0
 11 12  1  0
  5 13  1  0
 13 14  1  0
 13  2  1  0
 12  6  1  0
 12  7  1  0
  1 15  1  0
  3 16  1  0
  6 17  1  1
  7 18  1  6
  9 19  1  0
  9 20  1  0
 10 21  1  0
 10 22  1  0
 11 23  1  0
 12 24  1  6
 14 25  1  0
 14 26  1  0
M  END
$$$$

     RDKit          3D

 26 28  0  0  0  0  0  0  0  0999 V2000
   -4.7067    0.5295   -0.3330 N   0  0  0  0  0  0  0  0  0  0  0  0
   -3.4435    0.6080   -0.4480 C   0  0  0  0  0  0  0  0  0  0  0  0
   -2.7848    1.5020   -1.2068 N   0  0  0  0  0  0  0  0  0  0  0  0
   -1.4735    1.2816   -1.0789 N   0  0  0  0  0  0  0  0  0  0  0  0
   -1.2749    0.2394   -0.2332 C   0  0  0  0  0  0  0  0  0  0  0  0
    0.0373   -0.3398    0.1886 C   0  0  1  0  0  0  0  0  0  0  0  0
    1.1872   -0.3277   -0.7522 C   0  0  2  0  0  0  0  0  0  0  0  0
    2.1264   -1.3122   -0.5727 O   0  0  0  0  0  0  0  0  0  0  0  0
    3.4244   -0.8330   -0.4258 C   0  0  0  0  0  0  0  0  0  0  0  0
    3.4256    0.4437    0.3941 C   0  0  0  0  0  0  0  0  0  0  0  0
    2.2450    0.3584    1.2686 N   0  0  0  0  0  0  0  0  0  0  0  0
    1.1034    0.6222    0.4504 C   0  0  2  0  0  0  0  0  0  0  0  0
   -2.5185   -0.1516    0.1370 N   0  0  0  0  0  0  0  0  0  0  0  0
   -2.7830   -1.2051    1.0106 N   0  0  0  0  0  0  0  0  0  0  0  0
   -5.2362   -0.1350    0.2325 H   0  0  0  0  0  0  0  0  0  0  0  0
   -3.1694    2.2600   -1.8123 H   0  0  0  0  0  0  0  0  0  0  0  0
   -0.0731   -1.1947    0.8934 H   0  0  0  0  0  0  0  0  0  0  0  0
    1.0361    0.1394   -1.7483 H   0  0  0  0  0  0  0  0  0  0  0  0
    3.8770   -0.6729   -1.4244 H   0  0  0  0  0  0  0  0  0  0  0  0
    4.0074   -1.6040    0.1493 H   0  0  0  0  0  0  0  0  0  0  0  0
    3.2291    1.2710   -0.3180 H   0  0  0  0  0  0  0  0  0  0  0  0
    4.3452    0.5988    0.9575 H   0  0  0  0  0  0  0  0  0  0  0  0
    2.2217   -0.5292    1.7859 H   0  0  0  0  0  0  0  0  0  0  0  0
    0.9504    1.7041    0.2223 H   0  0  0  0  0  0  0  0  0  0  0  0
   -2.5377   -2.1812    0.7190 H   0  0  0  0  0  0  0  0  0  0  0  0
   -3.2148   -1.0717    1.9445 H   0  0  0  0  0  0  0  0  0  0  0  0
  1  2  2  3
  2  3  1  0
  3  4  1  0
  4  5  2  0
  5  6  1  0
  6  7  1  0
  7  8  1  0
  8  9  1  0
  9 10  1  0
 10 11  1  0
 11 12  1  0
  5 13  1  0
 13 14  1  0
 13  2  1  0
 12  6  1  0
 12  7  1  0
  1 15  1  0
  3 16  1  0
  6 17  1  1
  7 18  1  6
  9 19  1  0
  9 20  1  0
 10 21  1  0
 10 22  1  0
 11 23  1  0
 12 24  1  6
 14 25  1  0
 14 26  1  0
M  END
$$$$

     RDKit          3D

 26 28  0  0  0  0  0  0  0  0999 V2000
    4.1745    1.1201   -0.9413 N   0  0  0  0  0  0  0  0  0  0  0  0
    3.2841    0.8649   -0.0516 C   0  0  0  0  0  0  0  0  0  0  0  0
    3.3835    0.9797    1.2785 N   0  0  0  0  0  0  0  0  0  0  0  0
    2.2262    0.6105    1.8141 N   0  0  0  0  0  0  0  0  0  0  0  0
    1.3550    0.2484    0.8242 C   0  0  0  0  0  0  0  0  0  0  0  0
   -0.0157   -0.2157    1.0538 C   0  0  1  0  0  0  0  0  0  0  0  0
   -1.0704    0.4770    0.2117 C   0  0  2  0  0  0  0  0  0  0  0  0
   -2.3344    0.6706    0.7553 O   0  0  0  0  0  0  0  0  0  0  0  0
   -3.2598    0.1782   -0.1731 C   0  0  0  0  0  0  0  0  0  0  0  0
   -3.0458   -1.3124   -0.2850 C   0  0  0  0  0  0  0  0  0  0  0  0
   -1.9306   -1.7529    0.5678 N   0  0  0  0  0  0  0  0  0  0  0  0
   -0.7640   -1.0313    0.0954 C   0  0  2  0  0  0  0  0  0  0  0  0
    2.0441    0.4188   -0.3131 N   0  0  0  0  0  0  0  0  0  0  0  0
    1.5377    0.1642   -1.5823 N   0  0  0  0  0  0  0  0  0  0  0  0
    5.1245    1.4652   -0.6854 H   0  0  0  0  0  0  0  0  0  0  0  0
    4.2355    1.3061    1.7868 H   0  0  0  0  0  0  0  0  0  0  0  0
   -0.3252   -0.3142    2.1255 H   0  0  0  0  0  0  0  0  0  0  0  0
   -0.7710    1.1283   -0.6275 H   0  0  0  0  0  0  0  0  0  0  0  0
   -4.2998    0.4301    0.1386 H   0  0  0  0  0  0  0  0  0  0  0  0
   -2.9988    0.6945   -1.1428 H   0  0  0  0  0  0  0  0  0  0  0  0
   -3.9684   -1.8518   -0.0733 H   0  0  0  0  0  0  0  0  0  0  0  0
   -2.7026   -1.5392   -1.3355 H   0  0  0  0  0  0  0  0  0  0  0  0
   -2.1421   -1.5415    1.5803 H   0  0  0  0  0  0  0  0  0  0  0  0
   -0.4186   -1.3573   -0.8826 H   0  0  0  0  0  0  0  0  0  0  0  0
    1.0868    0.9323   -2.1136 H   0  0  0  0  0  0  0  0  0  0  0  0
    1.5951   -0.7725   -2.0249 H   0  0  0  0  0  0  0  0  0  0  0  0
  1  2  2  3
  2  3  1  0
  3  4  1  0
  4  5  2  0
  5  6  1  0
  6  7  1  0
  7  8  1  0
  8  9  1  0
  9 10  1  0
 10 11  1  0
 11 12  1  0
  5 13  1  0
 13 14  1  0
 13  2  1  0
 12  6  1  0
 12  7  1  0
  1 15  1  0
  3 16  1  0
  6 17  1  1
  7 18  1  6
  9 19  1  0
  9 20  1  0
 10 21  1  0
 10 22  1  0
 11 23  1  0
 12 24  1  6
 14 25  1  0
 14 26  1  0
M  END
$$$$

     RDKit          3D

 26 28  0  0  0  0  0  0  0  0999 V2000
    4.7350    0.0040    0.1127 N   0  0  0  0  0  0  0  0  0  0  0  0
    3.4947    0.3780    0.0965 C   0  0  0  0  0  0  0  0  0  0  0  0
    2.9848    1.6242    0.1690 N   0  0  0  0  0  0  0  0  0  0  0  0
    1.6580    1.5719    0.1189 N   0  0  0  0  0  0  0  0  0  0  0  0
    1.2844    0.2912    0.0130 C   0  0  0  0  0  0  0  0  0  0  0  0
   -0.1127   -0.2578   -0.0757 C   0  0  1  0  0  0  0  0  0  0  0  0
   -1.1331    0.5012    0.7962 C   0  0  2  0  0  0  0  0  0  0  0  0
   -2.0601   -0.3133    1.3812 O   0  0  0  0  0  0  0  0  0  0  0  0
   -3.3306   -0.2255    0.8887 C   0  0  0  0  0  0  0  0  0  0  0  0
   -3.4548   -0.1777   -0.5864 C   0  0  0  0  0  0  0  0  0  0  0  0
   -2.2460   -0.0741   -1.3162 N   0  0  0  0  0  0  0  0  0  0  0  0
   -1.1867    0.6343   -0.6582 C   0  0  2  0  0  0  0  0  0  0  0  0
    2.4166   -0.4429   -0.0007 N   0  0  0  0  0  0  0  0  0  0  0  0
    2.4778   -1.8386   -0.0997 N   0  0  0  0  0  0  0  0  0  0  0  0
    5.4479    0.7606    0.1925 H   0  0  0  0  0  0  0  0  0  0  0  0
    3.5499    2.4899    0.2515 H   0  0  0  0  0  0  0  0  0  0  0  0
   -0.1984   -1.3394   -0.1572 H   0  0  0  0  0  0  0  0  0  0  0  0
   -0.7451    1.3833    1.3676 H   0  0  0  0  0  0  0  0  0  0  0  0
   -3.8440    0.6225    1.4094 H   0  0  0  0  0  0  0  0  0  0  0  0
   -3.8877   -1.1414    1.2463 H   0  0  0  0  0  0  0  0  0  0  0  0
   -4.0415   -1.0455   -1.0087 H   0  0  0  0  0  0  0  0  0  0  0  0
   -4.0883    0.7217   -0.8439 H   0  0  0  0  0  0  0  0  0  0  0  0
   -1.9512   -0.9102   -1.8308 H   0  0  0  0  0  0  0  0  0  0  0  0
   -0.8133    1.5368   -1.1402 H   0  0  0  0  0  0  0  0  0  0  0  0
    1.9552   -2.4864    0.5130 H   0  0  0  0  0  0  0  0  0  0  0  0
    3.0893   -2.2671   -0.8387 H   0  0  0  0  0  0  0  0  0  0  0  0
  1  2  2  3
  2  3  1  0
  3  4  1  0
  4  5  2  0
  5  6  1  0
  6  7  1  0
  7  8  1  0
  8  9  1  0
  9 10  1  0
 10 11  1  0
 11 12  1  0
  5 13  1  0
 13 14  1  0
 13  2  1  0
 12  6  1  0
 12  7  1  0
  1 15  1  0
  3 16  1  0
  6 17  1  6
  7 18  1  1
  9 19  1  0
  9 20  1  0
 10 21  1  0
 10 22  1  0
 11 23  1  0
 12 24  1  1
 14 25  1  0
 14 26  1  0
M  END
$$$$
