
     RDKit          3D

 25 24  0  0  0  0  0  0  0  0999 V2000
   -3.2826    0.4277   -1.2924 C   0  0  0  0  0  0  0  0  0  0  0  0
   -3.1901    0.1255    0.1882 C   0  0  1  0  0  0  0  0  0  0  0  0
   -4.2842   -0.6835    0.6449 N   0  0  0  0  0  0  0  0  0  0  0  0
   -1.9039   -0.5295    0.4609 C   0  0  0  0  0  0  0  0  0  0  0  0
   -0.7828    0.0562    0.1354 C   0  0  0  0  0  0  0  0  0  0  0  0
    0.5335   -0.5504    0.3835 C   0  0  0  0  0  0  0  0  0  0  0  0
    0.6209   -1.6654    0.9232 O   0  0  0  0  0  0  0  0  0  0  0  0
    1.6900    0.1372    0.0070 N   0  0  0  0  0  0  0  0  0  0  0  0
    3.0328   -0.3890    0.2150 C   0  0  0  0  0  0  0  0  0  0  0  0
    4.0265    0.5856   -0.2953 C   0  0  0  0  0  0  0  0  0  0  0  0
    5.4231    0.3339   -0.2230 N   0  0  0  0  0  0  0  0  0  0  0  0
    3.6451    1.6682   -0.8088 O   0  0  0  0  0  0  0  0  0  0  0  0
   -2.5449    1.2191   -1.5386 H   0  0  0  0  0  0  0  0  0  0  0  0
   -3.0612   -0.4828   -1.8912 H   0  0  0  0  0  0  0  0  0  0  0  0
   -4.2977    0.8236   -1.5145 H   0  0  0  0  0  0  0  0  0  0  0  0
   -3.1735    1.1227    0.7009 H   0  0  0  0  0  0  0  0  0  0  0  0
   -5.1086   -0.0727    0.8523 H   0  0  0  0  0  0  0  0  0  0  0  0
   -4.5307   -1.3734   -0.1118 H   0  0  0  0  0  0  0  0  0  0  0  0
   -1.8885   -1.4903    0.9282 H   0  0  0  0  0  0  0  0  0  0  0  0
   -0.8371    1.0346   -0.3391 H   0  0  0  0  0  0  0  0  0  0  0  0
    1.5708    1.0889   -0.4521 H   0  0  0  0  0  0  0  0  0  0  0  0
    3.2387   -0.5551    1.3106 H   0  0  0  0  0  0  0  0  0  0  0  0
    3.1921   -1.3442   -0.3240 H   0  0  0  0  0  0  0  0  0  0  0  0
    5.8689   -0.2090    0.5314 H   0  0  0  0  0  0  0  0  0  0  0  0
    6.0435    0.7222   -0.9817 H   0  0  0  0  0  0  0  0  0  0  0  0
  1  2  1  0
  2  3  1  0
  2  4  1  0
  4  5  2  3
  5  6  1  0
  6  7  2  0
  6  8  1  0
  8  9  1  0
  9 10  1  0
 10 11  1  0
 10 12  2  0
  1 13  1  0
  1 14  1  0
  1 15  1  0
  2 16  1  1
  3 17  1  0
  3 18  1  0
  4 19  1  0
  5 20  1  0
  8 21  1  0
  9 22  1  0
  9 23  1  0
 11 24  1  0
 11 25  1  0
M  END
$$$$

     RDKit          3D

 25 24  0  0  0  0  0  0  0  0999 V2000
   -3.5148    1.1728   -0.7772 C   0  0  0  0  0  0  0  0  0  0  0  0
   -3.1183    0.2378    0.3372 C   0  0  1  0  0  0  0  0  0  0  0  0
   -3.5436   -1.1003   -0.0445 N   0  0  0  0  0  0  0  0  0  0  0  0
   -1.6878    0.3037    0.6657 C   0  0  0  0  0  0  0  0  0  0  0  0
   -0.7897   -0.3494   -0.0163 C   0  0  0  0  0  0  0  0  0  0  0  0
    0.6247   -0.2830    0.3101 C   0  0  0  0  0  0  0  0  0  0  0  0
    0.9813    0.4275    1.2796 O   0  0  0  0  0  0  0  0  0  0  0  0
    1.6286   -0.9810   -0.4114 N   0  0  0  0  0  0  0  0  0  0  0  0
    3.0148   -0.8817   -0.0477 C   0  0  0  0  0  0  0  0  0  0  0  0
    3.5355    0.4923   -0.1115 C   0  0  0  0  0  0  0  0  0  0  0  0
    4.8733    0.7784    0.2110 N   0  0  0  0  0  0  0  0  0  0  0  0
    2.7812    1.4249   -0.4572 O   0  0  0  0  0  0  0  0  0  0  0  0
   -2.7585    1.2426   -1.5686 H   0  0  0  0  0  0  0  0  0  0  0  0
   -4.4411    0.7661   -1.2382 H   0  0  0  0  0  0  0  0  0  0  0  0
   -3.7771    2.1768   -0.3772 H   0  0  0  0  0  0  0  0  0  0  0  0
   -3.7244    0.5130    1.2280 H   0  0  0  0  0  0  0  0  0  0  0  0
   -3.1482   -1.3853   -0.9655 H   0  0  0  0  0  0  0  0  0  0  0  0
   -3.2850   -1.7842    0.7011 H   0  0  0  0  0  0  0  0  0  0  0  0
   -1.3756    0.9181    1.5048 H   0  0  0  0  0  0  0  0  0  0  0  0
   -1.1016   -0.9632   -0.8545 H   0  0  0  0  0  0  0  0  0  0  0  0
    1.3125   -1.5694   -1.2178 H   0  0  0  0  0  0  0  0  0  0  0  0
    3.6020   -1.5890   -0.7029 H   0  0  0  0  0  0  0  0  0  0  0  0
    3.1520   -1.3111    0.9884 H   0  0  0  0  0  0  0  0  0  0  0  0
    5.3435    1.6551   -0.0805 H   0  0  0  0  0  0  0  0  0  0  0  0
    5.4164    0.0885    0.7623 H   0  0  0  0  0  0  0  0  0  0  0  0
  1  2  1  0
  2  3  1  0
  2  4  1  0
  4  5  2  3
  5  6  1  0
  6  7  2  0
  6  8  1  0
  8  9  1  0
  9 10  1  0
 10 11  1  0
 10 12  2  0
  1 13  1  0
  1 14  1  0
  1 15  1  0
  2 16  1  1
  3 17  1  0
  3 18  1  0
  4 19  1  0
  5 20  1  0
  8 21  1  0
  9 22  1  0
  9 23  1  0
 11 24  1  0
 11 25  1  0
M  END
$$$$

     RDKit          3D

 25 24  0  0  0  0  0  0  0  0999 V2000
   -2.0264   -1.0161    0.3879 C   0  0  0  0  0  0  0  0  0  0  0  0
   -2.1379   -0.1320   -0.8556 C   0  0  1  0  0  0  0  0  0  0  0  0
   -3.4484   -0.4826   -1.4168 N   0  0  0  0  0  0  0  0  0  0  0  0
   -2.0587    1.2604   -0.4652 C   0  0  0  0  0  0  0  0  0  0  0  0
   -1.0365    1.9492   -0.1303 C   0  0  0  0  0  0  0  0  0  0  0  0
    0.3611    1.6636   -0.0064 C   0  0  0  0  0  0  0  0  0  0  0  0
    1.1528    2.6274    0.3691 O   0  0  0  0  0  0  0  0  0  0  0  0
    1.0452    0.4596   -0.2344 N   0  0  0  0  0  0  0  0  0  0  0  0
    2.5055    0.3502   -0.0539 C   0  0  0  0  0  0  0  0  0  0  0  0
    2.9453   -1.0258   -0.3636 C   0  0  0  0  0  0  0  0  0  0  0  0
    4.3042   -1.3986   -0.2692 N   0  0  0  0  0  0  0  0  0  0  0  0
    2.0900   -1.8706   -0.7158 O   0  0  0  0  0  0  0  0  0  0  0  0
   -1.8061   -2.0373    0.0223 H   0  0  0  0  0  0  0  0  0  0  0  0
   -1.2321   -0.6618    1.0573 H   0  0  0  0  0  0  0  0  0  0  0  0
   -3.0270   -1.0308    0.8702 H   0  0  0  0  0  0  0  0  0  0  0  0
   -1.4221   -0.3704   -1.6368 H   0  0  0  0  0  0  0  0  0  0  0  0
   -4.1928    0.1519   -1.0601 H   0  0  0  0  0  0  0  0  0  0  0  0
   -3.6649   -1.4897   -1.2651 H   0  0  0  0  0  0  0  0  0  0  0  0
   -3.0424    1.8032   -0.4582 H   0  0  0  0  0  0  0  0  0  0  0  0
   -1.2839    3.0283    0.1276 H   0  0  0  0  0  0  0  0  0  0  0  0
    0.5421   -0.3690   -0.5311 H   0  0  0  0  0  0  0  0  0  0  0  0
    2.9482    1.0158   -0.8251 H   0  0  0  0  0  0  0  0  0  0  0  0
    2.7798    0.6673    0.9685 H   0  0  0  0  0  0  0  0  0  0  0  0
    4.8979   -1.1237    0.5537 H   0  0  0  0  0  0  0  0  0  0  0  0
    4.8073   -1.9684   -1.0049 H   0  0  0  0  0  0  0  0  0  0  0  0
  1  2  1  0
  2  3  1  0
  2  4  1  0
  4  5  2  3
  5  6  1  0
  6  7  2  0
  6  8  1  0
  8  9  1  0
  9 10  1  0
 10 11  1  0
 10 12  2  0
  1 13  1  0
  1 14  1  0
  1 15  1  0
  2 16  1  6
  3 17  1  0
  3 18  1  0
  4 19  1  0
  5 20  1  0
  8 21  1  0
  9 22  1  0
  9 23  1  0
 11 24  1  0
 11 25  1  0
M  END
$$$$

     RDKit          3D

 25 24  0  0  0  0  0  0  0  0999 V2000
   -3.2298    0.0025   -1.3379 C   0  0  0  0  0  0  0  0  0  0  0  0
   -3.0451    0.4076    0.1082 C   0  0  1  0  0  0  0  0  0  0  0  0
   -4.2079   -0.0231    0.8431 N   0  0  0  0  0  0  0  0  0  0  0  0
   -1.8148   -0.2589    0.6010 C   0  0  0  0  0  0  0  0  0  0  0  0
   -0.6565    0.1813    0.1505 C   0  0  0  0  0  0  0  0  0  0  0  0
    0.5677   -0.4420    0.6067 C   0  0  0  0  0  0  0  0  0  0  0  0
    0.4866   -1.3931    1.4264 O   0  0  0  0  0  0  0  0  0  0  0  0
    1.8568    0.0137    0.1346 N   0  0  0  0  0  0  0  0  0  0  0  0
    2.9983   -0.6822    0.6583 C   0  0  0  0  0  0  0  0  0  0  0  0
    4.2802   -0.1883    0.1539 C   0  0  0  0  0  0  0  0  0  0  0  0
    4.4383    0.8773   -0.7689 N   0  0  0  0  0  0  0  0  0  0  0  0
    5.3310   -0.7461    0.5650 O   0  0  0  0  0  0  0  0  0  0  0  0
   -3.3669    0.8995   -1.9826 H   0  0  0  0  0  0  0  0  0  0  0  0
   -4.1059   -0.6608   -1.4610 H   0  0  0  0  0  0  0  0  0  0  0  0
   -2.3097   -0.5046   -1.7438 H   0  0  0  0  0  0  0  0  0  0  0  0
   -2.9468    1.5143    0.1625 H   0  0  0  0  0  0  0  0  0  0  0  0
   -3.9865   -0.8242    1.4710 H   0  0  0  0  0  0  0  0  0  0  0  0
   -4.5651    0.7613    1.3998 H   0  0  0  0  0  0  0  0  0  0  0  0
   -1.9043   -1.0663    1.2981 H   0  0  0  0  0  0  0  0  0  0  0  0
   -0.5850    0.9961   -0.5519 H   0  0  0  0  0  0  0  0  0  0  0  0
    1.8611    0.7917   -0.5320 H   0  0  0  0  0  0  0  0  0  0  0  0
    2.8977   -1.7602    0.4320 H   0  0  0  0  0  0  0  0  0  0  0  0
    2.9932   -0.5060    1.7716 H   0  0  0  0  0  0  0  0  0  0  0  0
    4.7501    1.8119   -0.4197 H   0  0  0  0  0  0  0  0  0  0  0  0
    4.2634    0.7987   -1.7933 H   0  0  0  0  0  0  0  0  0  0  0  0
  1  2  1  0
  2  3  1  0
  2  4  1  0
  4  5  2  3
  5  6  1  0
  6  7  2  0
  6  8  1  0
  8  9  1  0
  9 10  1  0
 10 11  1  0
 10 12  2  0
  1 13  1  0
  1 14  1  0
  1 15  1  0
  2 16  1  6
  3 17  1  0
  3 18  1  0
  4 19  1  0
  5 20  1  0
  8 21  1  0
  9 22  1  0
  9 23  1  0
 11 24  1  0
 11 25  1  0
M  END
$$$$

     RDKit          3D

 25 24  0  0  0  0  0  0  0  0999 V2000
   -3.7888   -0.9599    0.1229 C   0  0  0  0  0  0  0  0  0  0  0  0
   -2.7253   -0.0508   -0.4604 C   0  0  1  0  0  0  0  0  0  0  0  0
   -3.1728    1.2900   -0.3574 N   0  0  0  0  0  0  0  0  0  0  0  0
   -1.4127   -0.2501    0.1934 C   0  0  0  0  0  0  0  0  0  0  0  0
   -0.3724    0.3897   -0.2921 C   0  0  0  0  0  0  0  0  0  0  0  0
    0.9640    0.2740    0.2640 C   0  0  0  0  0  0  0  0  0  0  0  0
    1.1803   -0.4629    1.2576 O   0  0  0  0  0  0  0  0  0  0  0  0
    2.0538    0.9830   -0.2934 N   0  0  0  0  0  0  0  0  0  0  0  0
    3.4009    0.9003    0.2227 C   0  0  0  0  0  0  0  0  0  0  0  0
    3.8665   -0.4823    0.1458 C   0  0  0  0  0  0  0  0  0  0  0  0
    3.0178   -1.4881   -0.3823 N   0  0  0  0  0  0  0  0  0  0  0  0
    5.0070   -0.8395    0.5314 O   0  0  0  0  0  0  0  0  0  0  0  0
   -4.7648   -0.4625   -0.0266 H   0  0  0  0  0  0  0  0  0  0  0  0
   -3.7691   -1.9513   -0.3664 H   0  0  0  0  0  0  0  0  0  0  0  0
   -3.5513   -1.0574    1.2064 H   0  0  0  0  0  0  0  0  0  0  0  0
   -2.5936   -0.3240   -1.5398 H   0  0  0  0  0  0  0  0  0  0  0  0
   -2.5134    2.0250   -0.6159 H   0  0  0  0  0  0  0  0  0  0  0  0
   -3.8556    1.4996    0.3708 H   0  0  0  0  0  0  0  0  0  0  0  0
   -1.2625   -0.8916    1.0468 H   0  0  0  0  0  0  0  0  0  0  0  0
   -0.4899    1.0515   -1.1609 H   0  0  0  0  0  0  0  0  0  0  0  0
    1.8376    1.5955   -1.1293 H   0  0  0  0  0  0  0  0  0  0  0  0
    3.4589    1.2984    1.2727 H   0  0  0  0  0  0  0  0  0  0  0  0
    4.0277    1.6061   -0.3673 H   0  0  0  0  0  0  0  0  0  0  0  0
    2.8825   -2.3507    0.2082 H   0  0  0  0  0  0  0  0  0  0  0  0
    2.5753   -1.3419   -1.3017 H   0  0  0  0  0  0  0  0  0  0  0  0
  1  2  1  0
  2  3  1  0
  2  4  1  0
  4  5  2  3
  5  6  1  0
  6  7  2  0
  6  8  1  0
  8  9  1  0
  9 10  1  0
 10 11  1  0
 10 12  2  0
  1 13  1  0
  1 14  1  0
  1 15  1  0
  2 16  1  6
  3 17  1  0
  3 18  1  0
  4 19  1  0
  5 20  1  0
  8 21  1  0
  9 22  1  0
  9 23  1  0
 11 24  1  0
 11 25  1  0
M  END
$$$$

     RDKit          3D

 25 24  0  0  0  0  0  0  0  0999 V2000
    3.5439   -0.6056   -0.2022 C   0  0  0  0  0  0  0  0  0  0  0  0
    2.7007    0.6317    0.0812 C   0  0  1  0  0  0  0  0  0  0  0  0
    3.2246    1.7214   -0.6933 N   0  0  0  0  0  0  0  0  0  0  0  0
    1.2937    0.3133   -0.2816 C   0  0  0  0  0  0  0  0  0  0  0  0
    0.5321   -0.2054    0.6523 C   0  0  0  0  0  0  0  0  0  0  0  0
   -0.8556   -0.5258    0.3156 C   0  0  0  0  0  0  0  0  0  0  0  0
   -1.3182   -0.3084   -0.8549 O   0  0  0  0  0  0  0  0  0  0  0  0
   -1.7557   -1.0883    1.2544 N   0  0  0  0  0  0  0  0  0  0  0  0
   -3.1160   -1.3871    0.8739 C   0  0  0  0  0  0  0  0  0  0  0  0
   -3.8425   -0.1692    0.4283 C   0  0  0  0  0  0  0  0  0  0  0  0
   -3.2222    1.1000    0.4023 N   0  0  0  0  0  0  0  0  0  0  0  0
   -5.0368   -0.2845    0.0685 O   0  0  0  0  0  0  0  0  0  0  0  0
    4.4014   -0.6180    0.5148 H   0  0  0  0  0  0  0  0  0  0  0  0
    2.9597   -1.5318   -0.1069 H   0  0  0  0  0  0  0  0  0  0  0  0
    3.9370   -0.5023   -1.2529 H   0  0  0  0  0  0  0  0  0  0  0  0
    2.7926    0.9048    1.1724 H   0  0  0  0  0  0  0  0  0  0  0  0
    3.6435    2.4811   -0.0993 H   0  0  0  0  0  0  0  0  0  0  0  0
    2.5309    2.0930   -1.3874 H   0  0  0  0  0  0  0  0  0  0  0  0
    0.9294    0.5072   -1.2769 H   0  0  0  0  0  0  0  0  0  0  0  0
    0.8529   -0.4126    1.6480 H   0  0  0  0  0  0  0  0  0  0  0  0
   -1.4218   -1.2825    2.2206 H   0  0  0  0  0  0  0  0  0  0  0  0
   -3.6674   -1.9003    1.6827 H   0  0  0  0  0  0  0  0  0  0  0  0
   -3.1479   -2.0915   -0.0088 H   0  0  0  0  0  0  0  0  0  0  0  0
   -3.5241    1.8495   -0.2709 H   0  0  0  0  0  0  0  0  0  0  0  0
   -2.4342    1.3116    1.0720 H   0  0  0  0  0  0  0  0  0  0  0  0
  1  2  1  0
  2  3  1  0
  2  4  1  0
  4  5  2  3
  5  6  1  0
  6  7  2  0
  6  8  1  0
  8  9  1  0
  9 10  1  0
 10 11  1  0
 10 12  2  0
  1 13  1  0
  1 14  1  0
  1 15  1  0
  2 16  1  1
  3 17  1  0
  3 18  1  0
  4 19  1  0
  5 20  1  0
  8 21  1  0
  9 22  1  0
  9 23  1  0
 11 24  1  0
 11 25  1  0
M  END
$$$$

     RDKit          3D

 25 24  0  0  0  0  0  0  0  0999 V2000
   -4.0281   -0.8023    0.3391 C   0  0  0  0  0  0  0  0  0  0  0  0
   -3.2469    0.4958    0.1857 C   0  0  1  0  0  0  0  0  0  0  0  0
   -3.0159    1.1209    1.4601 N   0  0  0  0  0  0  0  0  0  0  0  0
   -2.0059    0.2800   -0.5942 C   0  0  0  0  0  0  0  0  0  0  0  0
   -0.8310    0.2541   -0.0195 C   0  0  0  0  0  0  0  0  0  0  0  0
    0.3913    0.0424   -0.7820 C   0  0  0  0  0  0  0  0  0  0  0  0
    0.3102   -0.1186   -2.0196 O   0  0  0  0  0  0  0  0  0  0  0  0
    1.6557    0.0154   -0.1572 N   0  0  0  0  0  0  0  0  0  0  0  0
    2.8940   -0.1925   -0.8815 C   0  0  0  0  0  0  0  0  0  0  0  0
    4.0548   -0.1685    0.0501 C   0  0  0  0  0  0  0  0  0  0  0  0
    5.3862   -0.3474   -0.3990 N   0  0  0  0  0  0  0  0  0  0  0  0
    3.8441    0.0160    1.2703 O   0  0  0  0  0  0  0  0  0  0  0  0
   -4.9805   -0.7590   -0.2456 H   0  0  0  0  0  0  0  0  0  0  0  0
   -4.2778   -0.9275    1.4217 H   0  0  0  0  0  0  0  0  0  0  0  0
   -3.4650   -1.6598   -0.0637 H   0  0  0  0  0  0  0  0  0  0  0  0
   -3.8800    1.2200   -0.4083 H   0  0  0  0  0  0  0  0  0  0  0  0
   -3.0397    0.4891    2.2658 H   0  0  0  0  0  0  0  0  0  0  0  0
   -2.2163    1.7611    1.4572 H   0  0  0  0  0  0  0  0  0  0  0  0
   -2.0862    0.1423   -1.6607 H   0  0  0  0  0  0  0  0  0  0  0  0
   -0.7563    0.3938    1.0574 H   0  0  0  0  0  0  0  0  0  0  0  0
    1.7035    0.1531    0.8868 H   0  0  0  0  0  0  0  0  0  0  0  0
    3.0583    0.6258   -1.6273 H   0  0  0  0  0  0  0  0  0  0  0  0
    2.8114   -1.1790   -1.4106 H   0  0  0  0  0  0  0  0  0  0  0  0
    5.7110   -1.3252   -0.5367 H   0  0  0  0  0  0  0  0  0  0  0  0
    6.0089    0.4701   -0.5820 H   0  0  0  0  0  0  0  0  0  0  0  0
  1  2  1  0
  2  3  1  0
  2  4  1  0
  4  5  2  3
  5  6  1  0
  6  7  2  0
  6  8  1  0
  8  9  1  0
  9 10  1  0
 10 11  1  0
 10 12  2  0
  1 13  1  0
  1 14  1  0
  1 15  1  0
  2 16  1  6
  3 17  1  0
  3 18  1  0
  4 19  1  0
  5 20  1  0
  8 21  1  0
  9 22  1  0
  9 23  1  0
 11 24  1  0
 11 25  1  0
M  END
$$$$

     RDKit          3D

 25 24  0  0  0  0  0  0  0  0999 V2000
   -3.4663   -0.7343    0.2478 C   0  0  0  0  0  0  0  0  0  0  0  0
   -3.0245    0.5806   -0.3570 C   0  0  1  0  0  0  0  0  0  0  0  0
   -3.1297    1.6245    0.6439 N   0  0  0  0  0  0  0  0  0  0  0  0
   -1.5886    0.4858   -0.7341 C   0  0  0  0  0  0  0  0  0  0  0  0
   -0.7655   -0.1390    0.0867 C   0  0  0  0  0  0  0  0  0  0  0  0
    0.6378   -0.2498   -0.2489 C   0  0  0  0  0  0  0  0  0  0  0  0
    1.0649    0.2566   -1.3328 O   0  0  0  0  0  0  0  0  0  0  0  0
    1.5387   -0.9193    0.6231 N   0  0  0  0  0  0  0  0  0  0  0  0
    2.9252   -0.9999    0.2425 C   0  0  0  0  0  0  0  0  0  0  0  0
    3.4748    0.3522    0.1113 C   0  0  0  0  0  0  0  0  0  0  0  0
    4.8404    0.5022   -0.2642 N   0  0  0  0  0  0  0  0  0  0  0  0
    2.7742    1.3579    0.3206 O   0  0  0  0  0  0  0  0  0  0  0  0
   -2.7609   -1.5257   -0.1215 H   0  0  0  0  0  0  0  0  0  0  0  0
   -3.3986   -0.6884    1.3448 H   0  0  0  0  0  0  0  0  0  0  0  0
   -4.4884   -0.9387   -0.0686 H   0  0  0  0  0  0  0  0  0  0  0  0
   -3.5939    0.8428   -1.2623 H   0  0  0  0  0  0  0  0  0  0  0  0
   -4.0744    2.0547    0.6411 H   0  0  0  0  0  0  0  0  0  0  0  0
   -2.9997    1.1449    1.5841 H   0  0  0  0  0  0  0  0  0  0  0  0
   -1.2178    0.9139   -1.6541 H   0  0  0  0  0  0  0  0  0  0  0  0
   -1.1260   -0.5749    1.0169 H   0  0  0  0  0  0  0  0  0  0  0  0
    1.1924   -1.3380    1.5143 H   0  0  0  0  0  0  0  0  0  0  0  0
    3.0106   -1.5152   -0.7316 H   0  0  0  0  0  0  0  0  0  0  0  0
    3.4957   -1.6129    0.9712 H   0  0  0  0  0  0  0  0  0  0  0  0
    5.5298   -0.2565   -0.0889 H   0  0  0  0  0  0  0  0  0  0  0  0
    5.1499    1.3765   -0.7167 H   0  0  0  0  0  0  0  0  0  0  0  0
  1  2  1  0
  2  3  1  0
  2  4  1  0
  4  5  2  3
  5  6  1  0
  6  7  2  0
  6  8  1  0
  8  9  1  0
  9 10  1  0
 10 11  1  0
 10 12  2  0
  1 13  1  0
  1 14  1  0
  1 15  1  0
  2 16  1  6
  3 17  1  0
  3 18  1  0
  4 19  1  0
  5 20  1  0
  8 21  1  0
  9 22  1  0
  9 23  1  0
 11 24  1  0
 11 25  1  0
M  END
$$$$
