
     RDKit          3D

 28 28  0  0  0  0  0  0  0  0999 V2000
   -3.0647   -1.1225   -0.5021 C   0  0  0  0  0  0  0  0  0  0  0  0
   -1.9165   -0.1791   -0.0365 C   0  0  1  0  0  0  0  0  0  0  0  0
   -2.1741    0.0568    1.4159 C   0  0  0  0  0  0  0  0  0  0  0  0
   -1.2481    0.9276    2.0829 N   0  0  0  0  0  0  0  0  0  0  0  0
   -0.6598   -1.0149   -0.2928 C   0  0  1  0  0  0  0  0  0  0  0  0
   -0.6284   -1.3249   -1.6892 O   0  0  0  0  0  0  0  0  0  0  0  0
    0.5970   -0.3108   -0.0042 C   0  0  0  0  0  0  0  0  0  0  0  0
    0.9702    0.0286    1.1485 O   0  0  0  0  0  0  0  0  0  0  0  0
    1.5283    0.0510   -1.0997 C   0  0  0  0  0  0  0  0  0  0  0  0
    1.3211   -0.2180   -2.3998 N   0  0  0  0  0  0  0  0  0  0  0  0
    2.3528    0.2457   -3.0990 N   0  0  0  0  0  0  0  0  0  0  0  0
    3.2370    0.8183   -2.2641 C   0  0  0  0  0  0  0  0  0  0  0  0
    2.6981    0.6808   -1.0409 N   0  0  0  0  0  0  0  0  0  0  0  0
    3.3228    1.1616    0.1738 C   0  0  0  0  0  0  0  0  0  0  0  0
   -2.7718   -1.5991   -1.4409 H   0  0  0  0  0  0  0  0  0  0  0  0
   -3.1483   -1.8831    0.3112 H   0  0  0  0  0  0  0  0  0  0  0  0
   -3.9887   -0.5352   -0.5373 H   0  0  0  0  0  0  0  0  0  0  0  0
   -1.9890    0.6973   -0.6865 H   0  0  0  0  0  0  0  0  0  0  0  0
   -2.1798   -0.9447    1.9134 H   0  0  0  0  0  0  0  0  0  0  0  0
   -3.2180    0.4575    1.5774 H   0  0  0  0  0  0  0  0  0  0  0  0
   -1.6867    1.2126    2.9875 H   0  0  0  0  0  0  0  0  0  0  0  0
   -1.1278    1.7757    1.4771 H   0  0  0  0  0  0  0  0  0  0  0  0
   -0.7466   -1.9574    0.2452 H   0  0  0  0  0  0  0  0  0  0  0  0
   -0.0516   -2.1483   -1.7310 H   0  0  0  0  0  0  0  0  0  0  0  0
    4.1549    1.2681   -2.5810 H   0  0  0  0  0  0  0  0  0  0  0  0
    3.6171    0.2945    0.7769 H   0  0  0  0  0  0  0  0  0  0  0  0
    4.1902    1.7970   -0.0405 H   0  0  0  0  0  0  0  0  0  0  0  0
    2.6103    1.7649    0.7911 H   0  0  0  0  0  0  0  0  0  0  0  0
  1  2  1  0
  2  3  1  0
  3  4  1  0
  2  5  1  0
  5  6  1  0
  5  7  1  0
  7  8  2  0
  7  9  1  0
  9 10  2  0
 10 11  1  0
 11 12  2  0
 12 13  1  0
 13 14  1  0
 13  9  1  0
  1 15  1  0
  1 16  1  0
  1 17  1  0
  2 18  1  6
  3 19  1  0
  3 20  1  0
  4 21  1  0
  4 22  1  0
  5 23  1  1
  6 24  1  0
 12 25  1  0
 14 26  1  0
 14 27  1  0
 14 28  1  0
M  END
$$$$

     RDKit          3D

 28 28  0  0  0  0  0  0  0  0999 V2000
   -3.0275   -1.0683    0.0284 C   0  0  0  0  0  0  0  0  0  0  0  0
   -1.8241   -0.1988   -0.3550 C   0  0  1  0  0  0  0  0  0  0  0  0
   -2.1867    1.2331   -0.0939 C   0  0  0  0  0  0  0  0  0  0  0  0
   -2.5111    1.4889    1.2782 N   0  0  0  0  0  0  0  0  0  0  0  0
   -0.6602   -0.6859    0.4349 C   0  0  1  0  0  0  0  0  0  0  0  0
   -0.4484   -2.0423    0.0939 O   0  0  0  0  0  0  0  0  0  0  0  0
    0.5728    0.0980    0.2901 C   0  0  0  0  0  0  0  0  0  0  0  0
    0.5741    1.3102    0.5567 O   0  0  0  0  0  0  0  0  0  0  0  0
    1.7906   -0.5328   -0.1623 C   0  0  0  0  0  0  0  0  0  0  0  0
    1.9713   -1.8257   -0.4929 N   0  0  0  0  0  0  0  0  0  0  0  0
    3.2117   -2.0569   -0.8629 N   0  0  0  0  0  0  0  0  0  0  0  0
    3.8629   -0.8859   -0.7732 C   0  0  0  0  0  0  0  0  0  0  0  0
    2.9991    0.0515   -0.3449 N   0  0  0  0  0  0  0  0  0  0  0  0
    3.3668    1.4360   -0.1349 C   0  0  0  0  0  0  0  0  0  0  0  0
   -3.4244   -0.8106    1.0172 H   0  0  0  0  0  0  0  0  0  0  0  0
   -2.6373   -2.1056    0.0916 H   0  0  0  0  0  0  0  0  0  0  0  0
   -3.7770   -1.0582   -0.7760 H   0  0  0  0  0  0  0  0  0  0  0  0
   -1.6720   -0.3550   -1.4405 H   0  0  0  0  0  0  0  0  0  0  0  0
   -3.1155    1.4986   -0.6814 H   0  0  0  0  0  0  0  0  0  0  0  0
   -1.4340    1.9611   -0.4242 H   0  0  0  0  0  0  0  0  0  0  0  0
   -3.4275    1.9395    1.4281 H   0  0  0  0  0  0  0  0  0  0  0  0
   -2.2665    0.7392    1.9371 H   0  0  0  0  0  0  0  0  0  0  0  0
   -0.8972   -0.7177    1.5331 H   0  0  0  0  0  0  0  0  0  0  0  0
   -0.4321   -2.0606   -0.8938 H   0  0  0  0  0  0  0  0  0  0  0  0
    4.9109   -0.7655   -1.0163 H   0  0  0  0  0  0  0  0  0  0  0  0
    4.2704    1.6663   -0.7325 H   0  0  0  0  0  0  0  0  0  0  0  0
    3.6737    1.6072    0.9350 H   0  0  0  0  0  0  0  0  0  0  0  0
    2.5370    2.1405   -0.3877 H   0  0  0  0  0  0  0  0  0  0  0  0
  1  2  1  0
  2  3  1  0
  3  4  1  0
  2  5  1  0
  5  6  1  0
  5  7  1  0
  7  8  2  0
  7  9  1  0
  9 10  2  0
 10 11  1  0
 11 12  2  0
 12 13  1  0
 13 14  1  0
 13  9  1  0
  1 15  1  0
  1 16  1  0
  1 17  1  0
  2 18  1  6
  3 19  1  0
  3 20  1  0
  4 21  1  0
  4 22  1  0
  5 23  1  1
  6 24  1  0
 12 25  1  0
 14 26  1  0
 14 27  1  0
 14 28  1  0
M  END
$$$$

     RDKit          3D

 28 28  0  0  0  0  0  0  0  0999 V2000
   -2.0404   -1.2195    1.7417 C   0  0  0  0  0  0  0  0  0  0  0  0
   -1.7758   -0.9262    0.2807 C   0  0  1  0  0  0  0  0  0  0  0  0
   -2.6029    0.2082   -0.2328 C   0  0  0  0  0  0  0  0  0  0  0  0
   -2.3044    0.4035   -1.6317 N   0  0  0  0  0  0  0  0  0  0  0  0
   -0.2910   -0.7410    0.0217 C   0  0  1  0  0  0  0  0  0  0  0  0
   -0.1243   -0.4818   -1.3301 O   0  0  0  0  0  0  0  0  0  0  0  0
    0.3768    0.1629    0.9359 C   0  0  0  0  0  0  0  0  0  0  0  0
   -0.2426    0.3785    2.0503 O   0  0  0  0  0  0  0  0  0  0  0  0
    1.6360    0.8516    0.7675 C   0  0  0  0  0  0  0  0  0  0  0  0
    2.1037    1.8053    1.6587 N   0  0  0  0  0  0  0  0  0  0  0  0
    3.2714    2.2359    1.3175 N   0  0  0  0  0  0  0  0  0  0  0  0
    3.5985    1.5823    0.2047 C   0  0  0  0  0  0  0  0  0  0  0  0
    2.5933    0.7222   -0.1432 N   0  0  0  0  0  0  0  0  0  0  0  0
    2.6765   -0.1711   -1.2986 C   0  0  0  0  0  0  0  0  0  0  0  0
   -2.4062   -0.3779    2.3235 H   0  0  0  0  0  0  0  0  0  0  0  0
   -2.8681   -1.9849    1.7778 H   0  0  0  0  0  0  0  0  0  0  0  0
   -1.1604   -1.7482    2.1345 H   0  0  0  0  0  0  0  0  0  0  0  0
   -2.0670   -1.8319   -0.2905 H   0  0  0  0  0  0  0  0  0  0  0  0
   -3.6753   -0.1481   -0.1989 H   0  0  0  0  0  0  0  0  0  0  0  0
   -2.4846    1.1393    0.3584 H   0  0  0  0  0  0  0  0  0  0  0  0
   -2.5483    1.3293   -1.9976 H   0  0  0  0  0  0  0  0  0  0  0  0
   -2.7450   -0.3912   -2.1566 H   0  0  0  0  0  0  0  0  0  0  0  0
    0.1182   -1.8028    0.2409 H   0  0  0  0  0  0  0  0  0  0  0  0
   -0.0366    0.5217   -1.3985 H   0  0  0  0  0  0  0  0  0  0  0  0
    4.5313    1.7221   -0.3371 H   0  0  0  0  0  0  0  0  0  0  0  0
    2.2731    0.2474   -2.2161 H   0  0  0  0  0  0  0  0  0  0  0  0
    3.7957   -0.2703   -1.5244 H   0  0  0  0  0  0  0  0  0  0  0  0
    2.3981   -1.2154   -1.0579 H   0  0  0  0  0  0  0  0  0  0  0  0
  1  2  1  0
  2  3  1  0
  3  4  1  0
  2  5  1  0
  5  6  1  0
  5  7  1  0
  7  8  2  0
  7  9  1  0
  9 10  2  0
 10 11  1  0
 11 12  2  0
 12 13  1  0
 13 14  1  0
 13  9  1  0
  1 15  1  0
  1 16  1  0
  1 17  1  0
  2 18  1  6
  3 19  1  0
  3 20  1  0
  4 21  1  0
  4 22  1  0
  5 23  1  6
  6 24  1  0
 12 25  1  0
 14 26  1  0
 14 27  1  0
 14 28  1  0
M  END
$$$$

     RDKit          3D

 28 28  0  0  0  0  0  0  0  0999 V2000
   -2.2996   -1.3173    0.4036 C   0  0  0  0  0  0  0  0  0  0  0  0
   -1.9098   -0.1881   -0.4962 C   0  0  1  0  0  0  0  0  0  0  0  0
   -1.8863    1.1204    0.2652 C   0  0  0  0  0  0  0  0  0  0  0  0
   -3.1830    1.3919    0.8041 N   0  0  0  0  0  0  0  0  0  0  0  0
   -0.6037   -0.4383   -1.2154 C   0  0  1  0  0  0  0  0  0  0  0  0
   -0.3173    0.6568   -2.0276 O   0  0  0  0  0  0  0  0  0  0  0  0
    0.5269   -0.6374   -0.3073 C   0  0  0  0  0  0  0  0  0  0  0  0
    0.4819   -1.5794    0.5210 O   0  0  0  0  0  0  0  0  0  0  0  0
    1.7271    0.2265   -0.3217 C   0  0  0  0  0  0  0  0  0  0  0  0
    1.9441    1.2692   -1.1315 N   0  0  0  0  0  0  0  0  0  0  0  0
    3.1095    1.7795   -0.8467 N   0  0  0  0  0  0  0  0  0  0  0  0
    3.6473    1.0621    0.1524 C   0  0  0  0  0  0  0  0  0  0  0  0
    2.7855    0.1023    0.4721 N   0  0  0  0  0  0  0  0  0  0  0  0
    3.0021   -0.8872    1.5121 C   0  0  0  0  0  0  0  0  0  0  0  0
   -2.0978   -2.2889   -0.1002 H   0  0  0  0  0  0  0  0  0  0  0  0
   -3.4235   -1.2821    0.5070 H   0  0  0  0  0  0  0  0  0  0  0  0
   -1.8492   -1.2587    1.4178 H   0  0  0  0  0  0  0  0  0  0  0  0
   -2.6907   -0.0884   -1.2792 H   0  0  0  0  0  0  0  0  0  0  0  0
   -1.6433    1.9171   -0.4704 H   0  0  0  0  0  0  0  0  0  0  0  0
   -1.1650    1.0959    1.1114 H   0  0  0  0  0  0  0  0  0  0  0  0
   -3.6050    0.5936    1.3180 H   0  0  0  0  0  0  0  0  0  0  0  0
   -3.8231    1.8803    0.1641 H   0  0  0  0  0  0  0  0  0  0  0  0
   -0.7787   -1.3100   -1.8935 H   0  0  0  0  0  0  0  0  0  0  0  0
    0.1992    0.3845   -2.8396 H   0  0  0  0  0  0  0  0  0  0  0  0
    4.6271    1.2993    0.5664 H   0  0  0  0  0  0  0  0  0  0  0  0
    3.2477   -1.8378    0.9924 H   0  0  0  0  0  0  0  0  0  0  0  0
    2.0967   -1.0610    2.1255 H   0  0  0  0  0  0  0  0  0  0  0  0
    3.8808   -0.6050    2.1116 H   0  0  0  0  0  0  0  0  0  0  0  0
  1  2  1  0
  2  3  1  0
  3  4  1  0
  2  5  1  0
  5  6  1  0
  5  7  1  0
  7  8  2  0
  7  9  1  0
  9 10  2  0
 10 11  1  0
 11 12  2  0
 12 13  1  0
 13 14  1  0
 13  9  1  0
  1 15  1  0
  1 16  1  0
  1 17  1  0
  2 18  1  6
  3 19  1  0
  3 20  1  0
  4 21  1  0
  4 22  1  0
  5 23  1  6
  6 24  1  0
 12 25  1  0
 14 26  1  0
 14 27  1  0
 14 28  1  0
M  END
$$$$

     RDKit          3D

 28 28  0  0  0  0  0  0  0  0999 V2000
   -2.2821   -1.1131   -0.5828 C   0  0  0  0  0  0  0  0  0  0  0  0
   -1.9113    0.2896   -0.2133 C   0  0  1  0  0  0  0  0  0  0  0  0
   -1.7660    0.4132    1.2742 C   0  0  0  0  0  0  0  0  0  0  0  0
   -3.0626    0.0560    1.8585 N   0  0  0  0  0  0  0  0  0  0  0  0
   -0.7082    0.7928   -0.9691 C   0  0  1  0  0  0  0  0  0  0  0  0
   -0.3992    2.0913   -0.5986 O   0  0  0  0  0  0  0  0  0  0  0  0
    0.4619   -0.0798   -0.8601 C   0  0  0  0  0  0  0  0  0  0  0  0
    0.4444   -1.3075   -1.1390 O   0  0  0  0  0  0  0  0  0  0  0  0
    1.7250    0.4966   -0.4034 C   0  0  0  0  0  0  0  0  0  0  0  0
    1.9613    1.7849   -0.0543 N   0  0  0  0  0  0  0  0  0  0  0  0
    3.2235    1.9259    0.3050 N   0  0  0  0  0  0  0  0  0  0  0  0
    3.8267    0.7330    0.1952 C   0  0  0  0  0  0  0  0  0  0  0  0
    2.8998   -0.1346   -0.2392 N   0  0  0  0  0  0  0  0  0  0  0  0
    3.0779   -1.5635   -0.5121 C   0  0  0  0  0  0  0  0  0  0  0  0
   -1.8542   -1.3634   -1.5731 H   0  0  0  0  0  0  0  0  0  0  0  0
   -1.9653   -1.8350    0.2005 H   0  0  0  0  0  0  0  0  0  0  0  0
   -3.3976   -1.2326   -0.7078 H   0  0  0  0  0  0  0  0  0  0  0  0
   -2.7694    0.9439   -0.5107 H   0  0  0  0  0  0  0  0  0  0  0  0
   -1.5277    1.4218    1.6150 H   0  0  0  0  0  0  0  0  0  0  0  0
   -1.0454   -0.3301    1.6943 H   0  0  0  0  0  0  0  0  0  0  0  0
   -3.4637   -0.8029    1.3875 H   0  0  0  0  0  0  0  0  0  0  0  0
   -3.7228    0.8301    1.6008 H   0  0  0  0  0  0  0  0  0  0  0  0
   -1.0059    0.8141   -2.0550 H   0  0  0  0  0  0  0  0  0  0  0  0
   -1.1610    2.5069   -0.1041 H   0  0  0  0  0  0  0  0  0  0  0  0
    4.8743    0.4790    0.4106 H   0  0  0  0  0  0  0  0  0  0  0  0
    4.1823   -1.7882   -0.5539 H   0  0  0  0  0  0  0  0  0  0  0  0
    2.6752   -2.1898    0.2891 H   0  0  0  0  0  0  0  0  0  0  0  0
    2.6903   -1.8389   -1.5133 H   0  0  0  0  0  0  0  0  0  0  0  0
  1  2  1  0
  2  3  1  0
  3  4  1  0
  2  5  1  0
  5  6  1  0
  5  7  1  0
  7  8  2  0
  7  9  1  0
  9 10  2  0
 10 11  1  0
 11 12  2  0
 12 13  1  0
 13 14  1  0
 13  9  1  0
  1 15  1  0
  1 16  1  0
  1 17  1  0
  2 18  1  6
  3 19  1  0
  3 20  1  0
  4 21  1  0
  4 22  1  0
  5 23  1  6
  6 24  1  0
 12 25  1  0
 14 26  1  0
 14 27  1  0
 14 28  1  0
M  END
$$$$

     RDKit          3D

 28 28  0  0  0  0  0  0  0  0999 V2000
   -2.1516    0.0118    1.5061 C   0  0  0  0  0  0  0  0  0  0  0  0
   -1.8354   -0.5894    0.1636 C   0  0  1  0  0  0  0  0  0  0  0  0
   -1.9207    0.4353   -0.9286 C   0  0  0  0  0  0  0  0  0  0  0  0
   -3.2934    0.9483   -0.9236 N   0  0  0  0  0  0  0  0  0  0  0  0
   -0.5231   -1.3394    0.1602 C   0  0  1  0  0  0  0  0  0  0  0  0
   -0.3343   -1.8459   -1.1119 O   0  0  0  0  0  0  0  0  0  0  0  0
    0.6163   -0.5105    0.5409 C   0  0  0  0  0  0  0  0  0  0  0  0
    0.6800    0.0636    1.6565 O   0  0  0  0  0  0  0  0  0  0  0  0
    1.7223   -0.3374   -0.3990 C   0  0  0  0  0  0  0  0  0  0  0  0
    1.8241   -0.8819   -1.6479 N   0  0  0  0  0  0  0  0  0  0  0  0
    2.9550   -0.5167   -2.2187 N   0  0  0  0  0  0  0  0  0  0  0  0
    3.5740    0.2681   -1.3180 C   0  0  0  0  0  0  0  0  0  0  0  0
    2.8385    0.3904   -0.2006 N   0  0  0  0  0  0  0  0  0  0  0  0
    3.1277    1.1366    1.0073 C   0  0  0  0  0  0  0  0  0  0  0  0
   -1.6676   -0.5397    2.3433 H   0  0  0  0  0  0  0  0  0  0  0  0
   -1.8373    1.0919    1.5127 H   0  0  0  0  0  0  0  0  0  0  0  0
   -3.2433   -0.0003    1.7071 H   0  0  0  0  0  0  0  0  0  0  0  0
   -2.6296   -1.3524   -0.0401 H   0  0  0  0  0  0  0  0  0  0  0  0
   -1.7973   -0.0939   -1.9082 H   0  0  0  0  0  0  0  0  0  0  0  0
   -1.2238    1.2647   -0.8289 H   0  0  0  0  0  0  0  0  0  0  0  0
   -3.9316    0.1323   -0.6832 H   0  0  0  0  0  0  0  0  0  0  0  0
   -3.4083    1.7087   -0.2043 H   0  0  0  0  0  0  0  0  0  0  0  0
   -0.6419   -2.1873    0.8674 H   0  0  0  0  0  0  0  0  0  0  0  0
   -1.1952   -2.0128   -1.5643 H   0  0  0  0  0  0  0  0  0  0  0  0
    4.5400    0.7481   -1.4571 H   0  0  0  0  0  0  0  0  0  0  0  0
    2.5708    2.0940    1.0619 H   0  0  0  0  0  0  0  0  0  0  0  0
    2.9802    0.5183    1.9200 H   0  0  0  0  0  0  0  0  0  0  0  0
    4.2055    1.3953    0.9875 H   0  0  0  0  0  0  0  0  0  0  0  0
  1  2  1  0
  2  3  1  0
  3  4  1  0
  2  5  1  0
  5  6  1  0
  5  7  1  0
  7  8  2  0
  7  9  1  0
  9 10  2  0
 10 11  1  0
 11 12  2  0
 12 13  1  0
 13 14  1  0
 13  9  1  0
  1 15  1  0
  1 16  1  0
  1 17  1  0
  2 18  1  6
  3 19  1  0
  3 20  1  0
  4 21  1  0
  4 22  1  0
  5 23  1  1
  6 24  1  0
 12 25  1  0
 14 26  1  0
 14 27  1  0
 14 28  1  0
M  END
$$$$

     RDKit          3D

 28 28  0  0  0  0  0  0  0  0999 V2000
    2.9243   -0.5512    0.8634 C   0  0  0  0  0  0  0  0  0  0  0  0
    1.6961   -0.1366    0.0326 C   0  0  1  0  0  0  0  0  0  0  0  0
    1.9771   -0.4214   -1.4324 C   0  0  0  0  0  0  0  0  0  0  0  0
    3.1435    0.3623   -1.7727 N   0  0  0  0  0  0  0  0  0  0  0  0
    0.5266   -0.9372    0.5676 C   0  0  1  0  0  0  0  0  0  0  0  0
    0.4230   -0.5739    1.9190 O   0  0  0  0  0  0  0  0  0  0  0  0
   -0.7272   -0.5657   -0.1065 C   0  0  0  0  0  0  0  0  0  0  0  0
   -0.8927   -0.8355   -1.3330 O   0  0  0  0  0  0  0  0  0  0  0  0
   -1.7713    0.1159    0.6605 C   0  0  0  0  0  0  0  0  0  0  0  0
   -1.7521    0.4699    1.9549 N   0  0  0  0  0  0  0  0  0  0  0  0
   -2.8924    1.0671    2.2676 N   0  0  0  0  0  0  0  0  0  0  0  0
   -3.6414    1.0922    1.1618 C   0  0  0  0  0  0  0  0  0  0  0  0
   -2.9610    0.5088    0.1647 N   0  0  0  0  0  0  0  0  0  0  0  0
   -3.4296    0.3328   -1.2111 C   0  0  0  0  0  0  0  0  0  0  0  0
    2.5587   -0.7788    1.8715 H   0  0  0  0  0  0  0  0  0  0  0  0
    3.6343    0.3022    0.9122 H   0  0  0  0  0  0  0  0  0  0  0  0
    3.4517   -1.3986    0.4111 H   0  0  0  0  0  0  0  0  0  0  0  0
    1.5475    0.9375    0.1712 H   0  0  0  0  0  0  0  0  0  0  0  0
    2.0625   -1.4832   -1.6575 H   0  0  0  0  0  0  0  0  0  0  0  0
    1.1242    0.0297   -2.0205 H   0  0  0  0  0  0  0  0  0  0  0  0
    2.9315    1.3032   -2.1302 H   0  0  0  0  0  0  0  0  0  0  0  0
    3.9146    0.2913   -1.1092 H   0  0  0  0  0  0  0  0  0  0  0  0
    0.7631   -2.0086    0.5131 H   0  0  0  0  0  0  0  0  0  0  0  0
    0.6685    0.3931    2.0182 H   0  0  0  0  0  0  0  0  0  0  0  0
   -4.6447    1.5024    1.0254 H   0  0  0  0  0  0  0  0  0  0  0  0
   -3.7749   -0.7069   -1.3554 H   0  0  0  0  0  0  0  0  0  0  0  0
   -2.6195    0.6202   -1.9309 H   0  0  0  0  0  0  0  0  0  0  0  0
   -4.2406    1.0690   -1.3728 H   0  0  0  0  0  0  0  0  0  0  0  0
  1  2  1  0
  2  3  1  0
  3  4  1  0
  2  5  1  0
  5  6  1  0
  5  7  1  0
  7  8  2  0
  7  9  1  0
  9 10  2  0
 10 11  1  0
 11 12  2  0
 12 13  1  0
 13 14  1  0
 13  9  1  0
  1 15  1  0
  1 16  1  0
  1 17  1  0
  2 18  1  6
  3 19  1  0
  3 20  1  0
  4 21  1  0
  4 22  1  0
  5 23  1  1
  6 24  1  0
 12 25  1  0
 14 26  1  0
 14 27  1  0
 14 28  1  0
M  END
$$$$

     RDKit          3D

 28 28  0  0  0  0  0  0  0  0999 V2000
   -2.3426   -1.7527    0.4315 C   0  0  0  0  0  0  0  0  0  0  0  0
   -1.7132   -0.7403   -0.4598 C   0  0  1  0  0  0  0  0  0  0  0  0
   -2.3641    0.6184   -0.3680 C   0  0  0  0  0  0  0  0  0  0  0  0
   -2.2633    1.1074    0.9926 N   0  0  0  0  0  0  0  0  0  0  0  0
   -0.2087   -0.6637   -0.1560 C   0  0  1  0  0  0  0  0  0  0  0  0
    0.2474   -1.9780   -0.4158 O   0  0  0  0  0  0  0  0  0  0  0  0
    0.4728    0.2060   -1.1249 C   0  0  0  0  0  0  0  0  0  0  0  0
   -0.1542    0.4017   -2.2318 O   0  0  0  0  0  0  0  0  0  0  0  0
    1.7454    0.8541   -0.9755 C   0  0  0  0  0  0  0  0  0  0  0  0
    2.3099    1.6490   -1.9216 N   0  0  0  0  0  0  0  0  0  0  0  0
    3.4578    2.0784   -1.4769 N   0  0  0  0  0  0  0  0  0  0  0  0
    3.6806    1.5900   -0.2498 C   0  0  0  0  0  0  0  0  0  0  0  0
    2.5955    0.8246    0.0470 N   0  0  0  0  0  0  0  0  0  0  0  0
    2.4897    0.1291    1.3145 C   0  0  0  0  0  0  0  0  0  0  0  0
   -2.8111   -2.5792   -0.1684 H   0  0  0  0  0  0  0  0  0  0  0  0
   -1.5659   -2.2449    1.0743 H   0  0  0  0  0  0  0  0  0  0  0  0
   -3.1367   -1.3721    1.0872 H   0  0  0  0  0  0  0  0  0  0  0  0
   -1.7902   -1.0808   -1.5078 H   0  0  0  0  0  0  0  0  0  0  0  0
   -3.4438    0.4751   -0.5707 H   0  0  0  0  0  0  0  0  0  0  0  0
   -1.9400    1.3355   -1.0782 H   0  0  0  0  0  0  0  0  0  0  0  0
   -2.9767    1.8203    1.2273 H   0  0  0  0  0  0  0  0  0  0  0  0
   -2.2434    0.3553    1.7033 H   0  0  0  0  0  0  0  0  0  0  0  0
   -0.0644   -0.3853    0.8793 H   0  0  0  0  0  0  0  0  0  0  0  0
   -0.0019   -2.2477   -1.3190 H   0  0  0  0  0  0  0  0  0  0  0  0
    4.5488    1.7653    0.3850 H   0  0  0  0  0  0  0  0  0  0  0  0
    3.4922    0.0949    1.8177 H   0  0  0  0  0  0  0  0  0  0  0  0
    1.7532    0.6640    1.9469 H   0  0  0  0  0  0  0  0  0  0  0  0
    2.2270   -0.9246    1.1177 H   0  0  0  0  0  0  0  0  0  0  0  0
  1  2  1  0
  2  3  1  0
  3  4  1  0
  2  5  1  0
  5  6  1  0
  5  7  1  0
  7  8  2  0
  7  9  1  0
  9 10  2  0
 10 11  1  0
 11 12  2  0
 12 13  1  0
 13 14  1  0
 13  9  1  0
  1 15  1  0
  1 16  1  0
  1 17  1  0
  2 18  1  6
  3 19  1  0
  3 20  1  0
  4 21  1  0
  4 22  1  0
  5 23  1  1
  6 24  1  0
 12 25  1  0
 14 26  1  0
 14 27  1  0
 14 28  1  0
M  END
$$$$
