
     RDKit          3D

 31 31  0  0  0  0  0  0  0  0999 V2000
   -1.9161   -0.0814   -1.3107 C   0  0  0  0  0  0  0  0  0  0  0  0
   -1.1328   -0.3794   -0.0805 C   0  0  0  0  0  0  0  0  0  0  0  0
   -1.9740   -0.0816    1.1690 C   0  0  0  0  0  0  0  0  0  0  0  0
   -0.8963   -1.8852   -0.0500 C   0  0  0  0  0  0  0  0  0  0  0  0
    0.1703    0.3856    0.0041 C   0  0  1  0  0  0  0  0  0  0  0  0
   -0.2160    1.8713   -0.0084 C   0  0  0  0  0  0  0  0  0  0  0  0
    0.9552    2.7154    0.0696 N   0  0  0  0  0  0  0  0  0  0  0  0
    0.8911    0.1466    1.1905 N   0  0  0  0  0  0  0  0  0  0  0  0
    1.8345   -0.8958    1.2134 C   0  0  0  0  0  0  0  0  0  0  0  0
    2.5658   -1.1502   -0.0300 C   0  0  0  0  0  0  0  0  0  0  0  0
    3.7063   -1.6950   -0.0030 O   0  0  0  0  0  0  0  0  0  0  0  0
    2.0095   -0.7906   -1.2873 N   0  0  0  0  0  0  0  0  0  0  0  0
    0.9317    0.1571   -1.2414 C   0  0  0  0  0  0  0  0  0  0  0  0
    0.6453    0.7937   -2.2873 O   0  0  0  0  0  0  0  0  0  0  0  0
   -2.8278   -0.7486   -1.2688 H   0  0  0  0  0  0  0  0  0  0  0  0
   -2.3076    0.9343   -1.3946 H   0  0  0  0  0  0  0  0  0  0  0  0
   -1.3789   -0.3644   -2.2146 H   0  0  0  0  0  0  0  0  0  0  0  0
   -2.6111    0.8025    1.0297 H   0  0  0  0  0  0  0  0  0  0  0  0
   -2.6306   -0.9542    1.3671 H   0  0  0  0  0  0  0  0  0  0  0  0
   -1.2378    0.0360    1.9989 H   0  0  0  0  0  0  0  0  0  0  0  0
   -0.0580   -2.2026   -0.6677 H   0  0  0  0  0  0  0  0  0  0  0  0
   -1.8142   -2.3611   -0.5089 H   0  0  0  0  0  0  0  0  0  0  0  0
   -0.8809   -2.2668    0.9917 H   0  0  0  0  0  0  0  0  0  0  0  0
   -0.8740    2.1375    0.8216 H   0  0  0  0  0  0  0  0  0  0  0  0
   -0.7321    2.1445   -0.9543 H   0  0  0  0  0  0  0  0  0  0  0  0
    1.1154    2.9685    1.0502 H   0  0  0  0  0  0  0  0  0  0  0  0
    0.9517    3.5005   -0.5934 H   0  0  0  0  0  0  0  0  0  0  0  0
    1.3009    1.0130    1.5982 H   0  0  0  0  0  0  0  0  0  0  0  0
    2.6168   -0.6640    1.9975 H   0  0  0  0  0  0  0  0  0  0  0  0
    1.4197   -1.8881    1.5530 H   0  0  0  0  0  0  0  0  0  0  0  0
    2.3740   -1.1973   -2.1534 H   0  0  0  0  0  0  0  0  0  0  0  0
  1  2  1  0
  2  3  1  0
  2  4  1  0
  5  2  1  6
  5  6  1  0
  6  7  1  0
  5  8  1  0
  8  9  1  0
  9 10  1  0
 10 11  2  0
 10 12  1  0
 12 13  1  0
 13 14  2  0
 13  5  1  0
  1 15  1  0
  1 16  1  0
  1 17  1  0
  3 18  1  0
  3 19  1  0
  3 20  1  0
  4 21  1  0
  4 22  1  0
  4 23  1  0
  6 24  1  0
  6 25  1  0
  7 26  1  0
  7 27  1  0
  8 28  1  0
  9 29  1  0
  9 30  1  0
 12 31  1  0
M  END
$$$$

     RDKit          3D

 31 31  0  0  0  0  0  0  0  0999 V2000
    1.4495    1.4930    0.9948 C   0  0  0  0  0  0  0  0  0  0  0  0
    1.0859    0.1862    0.3950 C   0  0  0  0  0  0  0  0  0  0  0  0
    2.0712   -0.1054   -0.7509 C   0  0  0  0  0  0  0  0  0  0  0  0
    1.3752   -0.8910    1.4276 C   0  0  0  0  0  0  0  0  0  0  0  0
   -0.2692    0.0586   -0.1972 C   0  0  1  0  0  0  0  0  0  0  0  0
   -0.4104    1.0897   -1.3020 C   0  0  0  0  0  0  0  0  0  0  0  0
   -0.2498    2.4498   -0.8263 N   0  0  0  0  0  0  0  0  0  0  0  0
   -0.3166   -1.2334   -0.8704 N   0  0  0  0  0  0  0  0  0  0  0  0
   -1.0959   -2.2182   -0.1947 C   0  0  0  0  0  0  0  0  0  0  0  0
   -2.5019   -1.7282   -0.1812 C   0  0  0  0  0  0  0  0  0  0  0  0
   -3.4799   -2.3361   -0.6591 O   0  0  0  0  0  0  0  0  0  0  0  0
   -2.6487   -0.4391    0.4561 N   0  0  0  0  0  0  0  0  0  0  0  0
   -1.4054    0.2318    0.7227 C   0  0  0  0  0  0  0  0  0  0  0  0
   -1.3670    0.9410    1.7492 O   0  0  0  0  0  0  0  0  0  0  0  0
    0.6946    1.9297    1.6617 H   0  0  0  0  0  0  0  0  0  0  0  0
    1.8413    2.2334    0.2664 H   0  0  0  0  0  0  0  0  0  0  0  0
    2.3372    1.3045    1.6738 H   0  0  0  0  0  0  0  0  0  0  0  0
    3.0184   -0.4287   -0.3020 H   0  0  0  0  0  0  0  0  0  0  0  0
    2.2475    0.7866   -1.3571 H   0  0  0  0  0  0  0  0  0  0  0  0
    1.6428   -0.9594   -1.2994 H   0  0  0  0  0  0  0  0  0  0  0  0
    1.5748   -1.8549    0.9221 H   0  0  0  0  0  0  0  0  0  0  0  0
    0.6502   -0.9288    2.2373 H   0  0  0  0  0  0  0  0  0  0  0  0
    2.3638   -0.5961    1.8875 H   0  0  0  0  0  0  0  0  0  0  0  0
   -1.4484    1.0356   -1.7282 H   0  0  0  0  0  0  0  0  0  0  0  0
    0.2803    0.9426   -2.1299 H   0  0  0  0  0  0  0  0  0  0  0  0
   -0.6393    3.0636   -1.6029 H   0  0  0  0  0  0  0  0  0  0  0  0
   -0.8715    2.6596   -0.0038 H   0  0  0  0  0  0  0  0  0  0  0  0
   -0.5869   -1.1694   -1.8610 H   0  0  0  0  0  0  0  0  0  0  0  0
   -0.7854   -2.2794    0.8706 H   0  0  0  0  0  0  0  0  0  0  0  0
   -0.9817   -3.1804   -0.6871 H   0  0  0  0  0  0  0  0  0  0  0  0
   -3.5745   -0.0572    0.6885 H   0  0  0  0  0  0  0  0  0  0  0  0
  1  2  1  0
  2  3  1  0
  2  4  1  0
  5  2  1  1
  5  6  1  0
  6  7  1  0
  5  8  1  0
  8  9  1  0
  9 10  1  0
 10 11  2  0
 10 12  1  0
 12 13  1  0
 13 14  2  0
 13  5  1  0
  1 15  1  0
  1 16  1  0
  1 17  1  0
  3 18  1  0
  3 19  1  0
  3 20  1  0
  4 21  1  0
  4 22  1  0
  4 23  1  0
  6 24  1  0
  6 25  1  0
  7 26  1  0
  7 27  1  0
  8 28  1  0
  9 29  1  0
  9 30  1  0
 12 31  1  0
M  END
$$$$

     RDKit          3D

 31 31  0  0  0  0  0  0  0  0999 V2000
   -0.6585   -1.9334   -0.4694 C   0  0  0  0  0  0  0  0  0  0  0  0
   -1.0606   -0.4680   -0.3597 C   0  0  0  0  0  0  0  0  0  0  0  0
   -1.7705   -0.0211   -1.6142 C   0  0  0  0  0  0  0  0  0  0  0  0
   -2.0552   -0.3705    0.7764 C   0  0  0  0  0  0  0  0  0  0  0  0
    0.1589    0.4038   -0.1005 C   0  0  1  0  0  0  0  0  0  0  0  0
   -0.3946    1.8344   -0.0143 C   0  0  0  0  0  0  0  0  0  0  0  0
    0.7011    2.7437    0.2327 N   0  0  0  0  0  0  0  0  0  0  0  0
    0.8431    0.1020    1.0746 N   0  0  0  0  0  0  0  0  0  0  0  0
    2.1213   -0.4526    1.0403 C   0  0  0  0  0  0  0  0  0  0  0  0
    2.4509   -1.2345   -0.1719 C   0  0  0  0  0  0  0  0  0  0  0  0
    3.0948   -2.2933   -0.2000 O   0  0  0  0  0  0  0  0  0  0  0  0
    1.9640   -0.6853   -1.4071 N   0  0  0  0  0  0  0  0  0  0  0  0
    1.0386    0.3879   -1.2828 C   0  0  0  0  0  0  0  0  0  0  0  0
    1.0065    1.2779   -2.1820 O   0  0  0  0  0  0  0  0  0  0  0  0
   -1.5611   -2.5619   -0.6087 H   0  0  0  0  0  0  0  0  0  0  0  0
   -0.1740   -2.2897    0.4543 H   0  0  0  0  0  0  0  0  0  0  0  0
   -0.0501   -2.0599   -1.3810 H   0  0  0  0  0  0  0  0  0  0  0  0
   -2.4014   -0.8698   -1.9552 H   0  0  0  0  0  0  0  0  0  0  0  0
   -2.4129    0.8677   -1.4179 H   0  0  0  0  0  0  0  0  0  0  0  0
   -1.0772    0.2367   -2.4343 H   0  0  0  0  0  0  0  0  0  0  0  0
   -2.6136   -1.3499    0.8466 H   0  0  0  0  0  0  0  0  0  0  0  0
   -2.8531    0.3827    0.5593 H   0  0  0  0  0  0  0  0  0  0  0  0
   -1.5994   -0.2158    1.7545 H   0  0  0  0  0  0  0  0  0  0  0  0
   -0.8283    2.1165   -0.9996 H   0  0  0  0  0  0  0  0  0  0  0  0
   -1.1162    1.9220    0.7979 H   0  0  0  0  0  0  0  0  0  0  0  0
    0.2535    3.6827    0.4582 H   0  0  0  0  0  0  0  0  0  0  0  0
    1.2260    2.4874    1.1141 H   0  0  0  0  0  0  0  0  0  0  0  0
    0.3788    0.2281    1.9689 H   0  0  0  0  0  0  0  0  0  0  0  0
    2.8876    0.3418    1.1870 H   0  0  0  0  0  0  0  0  0  0  0  0
    2.2379   -1.1663    1.9077 H   0  0  0  0  0  0  0  0  0  0  0  0
    2.2638   -1.0431   -2.3408 H   0  0  0  0  0  0  0  0  0  0  0  0
  1  2  1  0
  2  3  1  0
  2  4  1  0
  5  2  1  6
  5  6  1  0
  6  7  1  0
  5  8  1  0
  8  9  1  0
  9 10  1  0
 10 11  2  0
 10 12  1  0
 12 13  1  0
 13 14  2  0
 13  5  1  0
  1 15  1  0
  1 16  1  0
  1 17  1  0
  3 18  1  0
  3 19  1  0
  3 20  1  0
  4 21  1  0
  4 22  1  0
  4 23  1  0
  6 24  1  0
  6 25  1  0
  7 26  1  0
  7 27  1  0
  8 28  1  0
  9 29  1  0
  9 30  1  0
 12 31  1  0
M  END
$$$$

     RDKit          3D

 31 31  0  0  0  0  0  0  0  0999 V2000
   -1.1111   -1.0101    1.4240 C   0  0  0  0  0  0  0  0  0  0  0  0
   -1.1520   -0.2106    0.1393 C   0  0  0  0  0  0  0  0  0  0  0  0
   -1.9446   -1.0047   -0.8544 C   0  0  0  0  0  0  0  0  0  0  0  0
   -1.8965    1.0747    0.4291 C   0  0  0  0  0  0  0  0  0  0  0  0
    0.2738    0.0384   -0.2806 C   0  0  1  0  0  0  0  0  0  0  0  0
    0.3220    0.8488   -1.5824 C   0  0  0  0  0  0  0  0  0  0  0  0
   -0.3443    2.1150   -1.3479 N   0  0  0  0  0  0  0  0  0  0  0  0
    0.9834    0.7672    0.6839 N   0  0  0  0  0  0  0  0  0  0  0  0
    2.3966    0.6076    0.7137 C   0  0  0  0  0  0  0  0  0  0  0  0
    2.7064   -0.7991    1.0504 C   0  0  0  0  0  0  0  0  0  0  0  0
    3.5707   -1.1050    1.9055 O   0  0  0  0  0  0  0  0  0  0  0  0
    1.9511   -1.7974    0.3326 N   0  0  0  0  0  0  0  0  0  0  0  0
    0.9017   -1.2981   -0.4877 C   0  0  0  0  0  0  0  0  0  0  0  0
    0.5181   -2.0710   -1.4302 O   0  0  0  0  0  0  0  0  0  0  0  0
   -2.0394   -0.7740    1.9819 H   0  0  0  0  0  0  0  0  0  0  0  0
   -1.1951   -2.1098    1.1806 H   0  0  0  0  0  0  0  0  0  0  0  0
   -0.2490   -0.8023    2.0535 H   0  0  0  0  0  0  0  0  0  0  0  0
   -1.5359   -1.0446   -1.8618 H   0  0  0  0  0  0  0  0  0  0  0  0
   -2.0832   -2.0683   -0.5227 H   0  0  0  0  0  0  0  0  0  0  0  0
   -2.9916   -0.5931   -0.9408 H   0  0  0  0  0  0  0  0  0  0  0  0
   -2.6502    0.8439    1.2133 H   0  0  0  0  0  0  0  0  0  0  0  0
   -1.2105    1.8215    0.8486 H   0  0  0  0  0  0  0  0  0  0  0  0
   -2.4475    1.4430   -0.4604 H   0  0  0  0  0  0  0  0  0  0  0  0
   -0.1544    0.3437   -2.4172 H   0  0  0  0  0  0  0  0  0  0  0  0
    1.3962    1.0991   -1.7703 H   0  0  0  0  0  0  0  0  0  0  0  0
   -0.6698    2.5638   -2.2347 H   0  0  0  0  0  0  0  0  0  0  0  0
    0.2802    2.7774   -0.8187 H   0  0  0  0  0  0  0  0  0  0  0  0
    0.5231    1.0173    1.5553 H   0  0  0  0  0  0  0  0  0  0  0  0
    2.7849    0.7850   -0.3111 H   0  0  0  0  0  0  0  0  0  0  0  0
    2.8743    1.3338    1.3706 H   0  0  0  0  0  0  0  0  0  0  0  0
    2.1925   -2.7919    0.4388 H   0  0  0  0  0  0  0  0  0  0  0  0
  1  2  1  0
  2  3  1  0
  2  4  1  0
  5  2  1  1
  5  6  1  0
  6  7  1  0
  5  8  1  0
  8  9  1  0
  9 10  1  0
 10 11  2  0
 10 12  1  0
 12 13  1  0
 13 14  2  0
 13  5  1  0
  1 15  1  0
  1 16  1  0
  1 17  1  0
  3 18  1  0
  3 19  1  0
  3 20  1  0
  4 21  1  0
  4 22  1  0
  4 23  1  0
  6 24  1  0
  6 25  1  0
  7 26  1  0
  7 27  1  0
  8 28  1  0
  9 29  1  0
  9 30  1  0
 12 31  1  0
M  END
$$$$

     RDKit          3D

 31 31  0  0  0  0  0  0  0  0999 V2000
   -0.7810    0.0444    1.9925 C   0  0  0  0  0  0  0  0  0  0  0  0
   -1.0119    0.2478    0.5166 C   0  0  0  0  0  0  0  0  0  0  0  0
   -2.1850   -0.6402    0.1511 C   0  0  0  0  0  0  0  0  0  0  0  0
   -1.4952    1.6707    0.3191 C   0  0  0  0  0  0  0  0  0  0  0  0
    0.2225   -0.0439   -0.3097 C   0  0  1  0  0  0  0  0  0  0  0  0
   -0.0540    0.1736   -1.7622 C   0  0  0  0  0  0  0  0  0  0  0  0
   -0.4566    1.4918   -2.1166 N   0  0  0  0  0  0  0  0  0  0  0  0
    1.3797    0.6468    0.1497 N   0  0  0  0  0  0  0  0  0  0  0  0
    2.6105    0.0187   -0.2175 C   0  0  0  0  0  0  0  0  0  0  0  0
    2.7355   -1.2086    0.6528 C   0  0  0  0  0  0  0  0  0  0  0  0
    3.7223   -1.4786    1.3390 O   0  0  0  0  0  0  0  0  0  0  0  0
    1.5658   -2.0367    0.5933 N   0  0  0  0  0  0  0  0  0  0  0  0
    0.4812   -1.5135   -0.1456 C   0  0  0  0  0  0  0  0  0  0  0  0
   -0.3349   -2.3178   -0.7124 O   0  0  0  0  0  0  0  0  0  0  0  0
   -1.7408   -0.2084    2.4894 H   0  0  0  0  0  0  0  0  0  0  0  0
   -0.3366    0.9161    2.4952 H   0  0  0  0  0  0  0  0  0  0  0  0
   -0.1042   -0.8250    2.1659 H   0  0  0  0  0  0  0  0  0  0  0  0
   -3.1087   -0.1516    0.5853 H   0  0  0  0  0  0  0  0  0  0  0  0
   -2.3690   -0.6689   -0.9270 H   0  0  0  0  0  0  0  0  0  0  0  0
   -2.1179   -1.6453    0.6294 H   0  0  0  0  0  0  0  0  0  0  0  0
   -0.6793    2.3891    0.1700 H   0  0  0  0  0  0  0  0  0  0  0  0
   -2.0293    1.9952    1.2479 H   0  0  0  0  0  0  0  0  0  0  0  0
   -2.2442    1.7095   -0.5057 H   0  0  0  0  0  0  0  0  0  0  0  0
   -0.7602   -0.5737   -2.1510 H   0  0  0  0  0  0  0  0  0  0  0  0
    0.9042   -0.0257   -2.3306 H   0  0  0  0  0  0  0  0  0  0  0  0
   -1.0732    1.5177   -2.9587 H   0  0  0  0  0  0  0  0  0  0  0  0
    0.2662    2.2024   -2.1526 H   0  0  0  0  0  0  0  0  0  0  0  0
    1.3655    0.9783    1.1092 H   0  0  0  0  0  0  0  0  0  0  0  0
    3.4918    0.6568   -0.1274 H   0  0  0  0  0  0  0  0  0  0  0  0
    2.5966   -0.3714   -1.2546 H   0  0  0  0  0  0  0  0  0  0  0  0
    1.5402   -2.9497    1.0651 H   0  0  0  0  0  0  0  0  0  0  0  0
  1  2  1  0
  2  3  1  0
  2  4  1  0
  5  2  1  1
  5  6  1  0
  6  7  1  0
  5  8  1  0
  8  9  1  0
  9 10  1  0
 10 11  2  0
 10 12  1  0
 12 13  1  0
 13 14  2  0
 13  5  1  0
  1 15  1  0
  1 16  1  0
  1 17  1  0
  3 18  1  0
  3 19  1  0
  3 20  1  0
  4 21  1  0
  4 22  1  0
  4 23  1  0
  6 24  1  0
  6 25  1  0
  7 26  1  0
  7 27  1  0
  8 28  1  0
  9 29  1  0
  9 30  1  0
 12 31  1  0
M  END
$$$$

     RDKit          3D

 31 31  0  0  0  0  0  0  0  0999 V2000
   -1.7845   -1.0794    1.0786 C   0  0  0  0  0  0  0  0  0  0  0  0
   -1.2301    0.0593    0.2855 C   0  0  0  0  0  0  0  0  0  0  0  0
   -1.2264    1.2957    1.1547 C   0  0  0  0  0  0  0  0  0  0  0  0
   -2.2182    0.3225   -0.8528 C   0  0  0  0  0  0  0  0  0  0  0  0
    0.1559   -0.2119   -0.2498 C   0  0  1  0  0  0  0  0  0  0  0  0
    0.1431   -1.4239   -1.1579 C   0  0  0  0  0  0  0  0  0  0  0  0
    1.4975   -1.6475   -1.6500 N   0  0  0  0  0  0  0  0  0  0  0  0
    0.6404    0.8978   -0.9997 N   0  0  0  0  0  0  0  0  0  0  0  0
    2.0323    1.1911   -0.8582 C   0  0  0  0  0  0  0  0  0  0  0  0
    2.3343    1.4414    0.5817 C   0  0  0  0  0  0  0  0  0  0  0  0
    2.9276    2.4288    1.0250 O   0  0  0  0  0  0  0  0  0  0  0  0
    1.8795    0.4260    1.4846 N   0  0  0  0  0  0  0  0  0  0  0  0
    1.0104   -0.5635    0.9172 C   0  0  0  0  0  0  0  0  0  0  0  0
    0.9958   -1.7213    1.4326 O   0  0  0  0  0  0  0  0  0  0  0  0
   -2.8351   -0.8184    1.3419 H   0  0  0  0  0  0  0  0  0  0  0  0
   -1.2641   -1.2464    2.0394 H   0  0  0  0  0  0  0  0  0  0  0  0
   -1.8429   -1.9903    0.4589 H   0  0  0  0  0  0  0  0  0  0  0  0
   -1.2166    2.2348    0.5791 H   0  0  0  0  0  0  0  0  0  0  0  0
   -2.1670    1.3184    1.7605 H   0  0  0  0  0  0  0  0  0  0  0  0
   -0.3914    1.2850    1.8924 H   0  0  0  0  0  0  0  0  0  0  0  0
   -2.3704   -0.5739   -1.4644 H   0  0  0  0  0  0  0  0  0  0  0  0
   -3.1918    0.5735   -0.3822 H   0  0  0  0  0  0  0  0  0  0  0  0
   -1.9167    1.2179   -1.4320 H   0  0  0  0  0  0  0  0  0  0  0  0
   -0.5467   -1.3167   -2.0001 H   0  0  0  0  0  0  0  0  0  0  0  0
   -0.1257   -2.3360   -0.5854 H   0  0  0  0  0  0  0  0  0  0  0  0
    2.0967   -2.0787   -0.9132 H   0  0  0  0  0  0  0  0  0  0  0  0
    1.4232   -2.3897   -2.4049 H   0  0  0  0  0  0  0  0  0  0  0  0
    0.1041    1.7723   -0.9052 H   0  0  0  0  0  0  0  0  0  0  0  0
    2.6898    0.3806   -1.2510 H   0  0  0  0  0  0  0  0  0  0  0  0
    2.2363    2.1376   -1.3926 H   0  0  0  0  0  0  0  0  0  0  0  0
    2.1609    0.4149    2.4671 H   0  0  0  0  0  0  0  0  0  0  0  0
  1  2  1  0
  2  3  1  0
  2  4  1  0
  5  2  1  1
  5  6  1  0
  6  7  1  0
  5  8  1  0
  8  9  1  0
  9 10  1  0
 10 11  2  0
 10 12  1  0
 12 13  1  0
 13 14  2  0
 13  5  1  0
  1 15  1  0
  1 16  1  0
  1 17  1  0
  3 18  1  0
  3 19  1  0
  3 20  1  0
  4 21  1  0
  4 22  1  0
  4 23  1  0
  6 24  1  0
  6 25  1  0
  7 26  1  0
  7 27  1  0
  8 28  1  0
  9 29  1  0
  9 30  1  0
 12 31  1  0
M  END
$$$$

     RDKit          3D

 31 31  0  0  0  0  0  0  0  0999 V2000
   -2.0588   -0.4710    0.7127 C   0  0  0  0  0  0  0  0  0  0  0  0
   -1.1404   -0.0172   -0.4321 C   0  0  0  0  0  0  0  0  0  0  0  0
   -1.3406   -1.0163   -1.5463 C   0  0  0  0  0  0  0  0  0  0  0  0
   -1.6509    1.3139   -0.8595 C   0  0  0  0  0  0  0  0  0  0  0  0
    0.2565   -0.0371    0.1040 C   0  0  1  0  0  0  0  0  0  0  0  0
    0.3015    0.9361    1.2870 C   0  0  0  0  0  0  0  0  0  0  0  0
   -0.0478    2.2743    0.8619 N   0  0  0  0  0  0  0  0  0  0  0  0
    0.4964   -1.3831    0.5948 N   0  0  0  0  0  0  0  0  0  0  0  0
    1.7330   -1.9668    0.2154 C   0  0  0  0  0  0  0  0  0  0  0  0
    2.8742   -0.9962    0.2805 C   0  0  0  0  0  0  0  0  0  0  0  0
    3.9155   -1.1498    0.9167 O   0  0  0  0  0  0  0  0  0  0  0  0
    2.6453    0.1929   -0.5005 N   0  0  0  0  0  0  0  0  0  0  0  0
    1.2753    0.4225   -0.8548 C   0  0  0  0  0  0  0  0  0  0  0  0
    1.0528    0.9965   -1.9528 O   0  0  0  0  0  0  0  0  0  0  0  0
   -1.7145   -1.3814    1.2012 H   0  0  0  0  0  0  0  0  0  0  0  0
   -3.0765   -0.7240    0.2936 H   0  0  0  0  0  0  0  0  0  0  0  0
   -2.2379    0.3173    1.4441 H   0  0  0  0  0  0  0  0  0  0  0  0
   -1.0943   -2.0502   -1.2454 H   0  0  0  0  0  0  0  0  0  0  0  0
   -0.7743   -0.6765   -2.4359 H   0  0  0  0  0  0  0  0  0  0  0  0
   -2.4216   -1.0000   -1.8030 H   0  0  0  0  0  0  0  0  0  0  0  0
   -2.2077    1.8495   -0.0407 H   0  0  0  0  0  0  0  0  0  0  0  0
   -2.4536    1.1219   -1.6320 H   0  0  0  0  0  0  0  0  0  0  0  0
   -0.9456    1.9969   -1.3227 H   0  0  0  0  0  0  0  0  0  0  0  0
   -0.3464    0.6505    2.1088 H   0  0  0  0  0  0  0  0  0  0  0  0
    1.3566    1.0014    1.6688 H   0  0  0  0  0  0  0  0  0  0  0  0
    0.7624    2.7881    0.4621 H   0  0  0  0  0  0  0  0  0  0  0  0
   -0.4197    2.7797    1.6897 H   0  0  0  0  0  0  0  0  0  0  0  0
    0.2714   -1.4759    1.6095 H   0  0  0  0  0  0  0  0  0  0  0  0
    1.6554   -2.2517   -0.8704 H   0  0  0  0  0  0  0  0  0  0  0  0
    1.9121   -2.8557    0.8153 H   0  0  0  0  0  0  0  0  0  0  0  0
    3.4220    0.8113   -0.7701 H   0  0  0  0  0  0  0  0  0  0  0  0
  1  2  1  0
  2  3  1  0
  2  4  1  0
  5  2  1  6
  5  6  1  0
  6  7  1  0
  5  8  1  0
  8  9  1  0
  9 10  1  0
 10 11  2  0
 10 12  1  0
 12 13  1  0
 13 14  2  0
 13  5  1  0
  1 15  1  0
  1 16  1  0
  1 17  1  0
  3 18  1  0
  3 19  1  0
  3 20  1  0
  4 21  1  0
  4 22  1  0
  4 23  1  0
  6 24  1  0
  6 25  1  0
  7 26  1  0
  7 27  1  0
  8 28  1  0
  9 29  1  0
  9 30  1  0
 12 31  1  0
M  END
$$$$

     RDKit          3D

 31 31  0  0  0  0  0  0  0  0999 V2000
   -1.9684    0.6445   -1.0831 C   0  0  0  0  0  0  0  0  0  0  0  0
   -1.2375   -0.1062   -0.0168 C   0  0  0  0  0  0  0  0  0  0  0  0
   -1.3040   -1.5889   -0.3098 C   0  0  0  0  0  0  0  0  0  0  0  0
   -1.9604    0.1223    1.2914 C   0  0  0  0  0  0  0  0  0  0  0  0
    0.2072    0.3545    0.0607 C   0  0  1  0  0  0  0  0  0  0  0  0
    0.2798    1.8334    0.3829 C   0  0  0  0  0  0  0  0  0  0  0  0
    1.6400    2.3144    0.4656 N   0  0  0  0  0  0  0  0  0  0  0  0
    0.8235   -0.4047    1.1060 N   0  0  0  0  0  0  0  0  0  0  0  0
    2.1237   -0.9197    0.7523 C   0  0  0  0  0  0  0  0  0  0  0  0
    1.9340   -1.8420   -0.3913 C   0  0  0  0  0  0  0  0  0  0  0  0
    2.2251   -3.0539   -0.4178 O   0  0  0  0  0  0  0  0  0  0  0  0
    1.3597   -1.2223   -1.5397 N   0  0  0  0  0  0  0  0  0  0  0  0
    0.7971    0.0842   -1.2727 C   0  0  0  0  0  0  0  0  0  0  0  0
    0.8389    0.9351   -2.2016 O   0  0  0  0  0  0  0  0  0  0  0  0
   -2.1082    1.7197   -0.7876 H   0  0  0  0  0  0  0  0  0  0  0  0
   -1.4691    0.6108   -2.0788 H   0  0  0  0  0  0  0  0  0  0  0  0
   -2.9957    0.2574   -1.2401 H   0  0  0  0  0  0  0  0  0  0  0  0
   -2.3907   -1.8747   -0.2626 H   0  0  0  0  0  0  0  0  0  0  0  0
   -0.9139   -1.8674   -1.2890 H   0  0  0  0  0  0  0  0  0  0  0  0
   -0.8010   -2.1688    0.5080 H   0  0  0  0  0  0  0  0  0  0  0  0
   -2.8137   -0.5683    1.3978 H   0  0  0  0  0  0  0  0  0  0  0  0
   -1.2659   -0.0414    2.1406 H   0  0  0  0  0  0  0  0  0  0  0  0
   -2.3654    1.1689    1.3592 H   0  0  0  0  0  0  0  0  0  0  0  0
   -0.2529    2.4476   -0.3598 H   0  0  0  0  0  0  0  0  0  0  0  0
   -0.2076    2.0196    1.3629 H   0  0  0  0  0  0  0  0  0  0  0  0
    2.1453    2.0480    1.3304 H   0  0  0  0  0  0  0  0  0  0  0  0
    2.1739    2.1493   -0.4047 H   0  0  0  0  0  0  0  0  0  0  0  0
    0.8084    0.0501    2.0277 H   0  0  0  0  0  0  0  0  0  0  0  0
    2.7199   -0.0545    0.3465 H   0  0  0  0  0  0  0  0  0  0  0  0
    2.6400   -1.3972    1.6038 H   0  0  0  0  0  0  0  0  0  0  0  0
    1.3377   -1.6496   -2.4802 H   0  0  0  0  0  0  0  0  0  0  0  0
  1  2  1  0
  2  3  1  0
  2  4  1  0
  5  2  1  6
  5  6  1  0
  6  7  1  0
  5  8  1  0
  8  9  1  0
  9 10  1  0
 10 11  2  0
 10 12  1  0
 12 13  1  0
 13 14  2  0
 13  5  1  0
  1 15  1  0
  1 16  1  0
  1 17  1  0
  3 18  1  0
  3 19  1  0
  3 20  1  0
  4 21  1  0
  4 22  1  0
  4 23  1  0
  6 24  1  0
  6 25  1  0
  7 26  1  0
  7 27  1  0
  8 28  1  0
  9 29  1  0
  9 30  1  0
 12 31  1  0
M  END
$$$$
