
     RDKit          3D

 31 32  0  0  0  0  0  0  0  0999 V2000
    0.3763   -2.0357    0.3016 C   0  0  0  0  0  0  0  0  0  0  0  0
    0.2112   -0.8730   -0.5211 N   0  0  0  0  0  0  0  0  0  0  0  0
   -1.1159   -0.6738   -0.9920 C   0  0  0  0  0  0  0  0  0  0  0  0
   -2.1087   -0.3182    0.0459 C   0  0  2  0  0  0  0  0  0  0  0  0
   -3.5052   -0.1577   -0.5794 C   0  0  0  0  0  0  0  0  0  0  0  0
   -3.6540    0.7653    0.5870 C   0  0  0  0  0  0  0  0  0  0  0  0
   -4.5644    1.0774    1.3706 O   0  0  0  0  0  0  0  0  0  0  0  0
   -2.2789    1.0884    0.3550 N   0  0  0  0  0  0  0  0  0  0  0  0
    0.8496    0.3026   -0.1328 C   0  0  2  0  0  0  0  0  0  0  0  0
    1.4296    1.1278   -1.2819 C   0  0  0  0  0  0  0  0  0  0  0  0
    2.4593    1.8706   -0.7722 O   0  0  0  0  0  0  0  0  0  0  0  0
    2.6584    1.5320    0.5438 C   0  0  0  0  0  0  0  0  0  0  0  0
    2.1443    0.0822    0.6417 C   0  0  2  0  0  0  0  0  0  0  0  0
    3.0992   -0.7190   -0.0367 N   0  0  0  0  0  0  0  0  0  0  0  0
   -0.6428   -2.5060    0.4766 H   0  0  0  0  0  0  0  0  0  0  0  0
    0.9325   -2.8313   -0.2280 H   0  0  0  0  0  0  0  0  0  0  0  0
    0.7981   -1.8027    1.2967 H   0  0  0  0  0  0  0  0  0  0  0  0
   -1.4342   -1.6042   -1.5009 H   0  0  0  0  0  0  0  0  0  0  0  0
   -1.0755    0.1824   -1.7153 H   0  0  0  0  0  0  0  0  0  0  0  0
   -2.2108   -0.9620    0.9344 H   0  0  0  0  0  0  0  0  0  0  0  0
   -4.1143   -1.0847   -0.5294 H   0  0  0  0  0  0  0  0  0  0  0  0
   -3.4257    0.3751   -1.5204 H   0  0  0  0  0  0  0  0  0  0  0  0
   -1.8281    2.0056    0.4324 H   0  0  0  0  0  0  0  0  0  0  0  0
    0.2764    1.0041    0.4960 H   0  0  0  0  0  0  0  0  0  0  0  0
    1.8215    0.4493   -2.0576 H   0  0  0  0  0  0  0  0  0  0  0  0
    0.6343    1.7361   -1.7683 H   0  0  0  0  0  0  0  0  0  0  0  0
    1.9360    2.1254    1.1514 H   0  0  0  0  0  0  0  0  0  0  0  0
    3.6945    1.6072    0.8902 H   0  0  0  0  0  0  0  0  0  0  0  0
    1.9774   -0.1739    1.6869 H   0  0  0  0  0  0  0  0  0  0  0  0
    3.8997   -0.1798   -0.4735 H   0  0  0  0  0  0  0  0  0  0  0  0
    2.7601   -1.4095   -0.7077 H   0  0  0  0  0  0  0  0  0  0  0  0
  1  2  1  0
  2  3  1  0
  3  4  1  0
  4  5  1  0
  5  6  1  0
  6  7  2  0
  6  8  1  0
  2  9  1  0
  9 10  1  0
 10 11  1  0
 11 12  1  0
 12 13  1  0
 13 14  1  0
  8  4  1  0
 13  9  1  0
  1 15  1  0
  1 16  1  0
  1 17  1  0
  3 18  1  0
  3 19  1  0
  4 20  1  1
  5 21  1  0
  5 22  1  0
  8 23  1  0
  9 24  1  1
 10 25  1  0
 10 26  1  0
 12 27  1  0
 12 28  1  0
 13 29  1  1
 14 30  1  0
 14 31  1  0
M  END
$$$$

     RDKit          3D

 31 32  0  0  0  0  0  0  0  0999 V2000
   -0.3227   -1.3504    1.6343 C   0  0  0  0  0  0  0  0  0  0  0  0
   -0.1786   -0.7196    0.3708 N   0  0  0  0  0  0  0  0  0  0  0  0
    0.9734   -1.0307   -0.3843 C   0  0  0  0  0  0  0  0  0  0  0  0
    2.2749   -0.5504    0.1501 C   0  0  2  0  0  0  0  0  0  0  0  0
    2.4005    0.9464    0.3130 C   0  0  0  0  0  0  0  0  0  0  0  0
    3.5150    0.9654   -0.6984 C   0  0  0  0  0  0  0  0  0  0  0  0
    4.3113    1.8201   -1.1150 O   0  0  0  0  0  0  0  0  0  0  0  0
    3.2380   -0.4004   -0.9420 N   0  0  0  0  0  0  0  0  0  0  0  0
   -1.4023   -0.6676   -0.3644 C   0  0  2  0  0  0  0  0  0  0  0  0
   -1.2683    0.0168   -1.7033 C   0  0  0  0  0  0  0  0  0  0  0  0
   -2.5206    0.6662   -1.8321 O   0  0  0  0  0  0  0  0  0  0  0  0
   -2.5598    1.3611   -0.6248 C   0  0  0  0  0  0  0  0  0  0  0  0
   -2.3608    0.2453    0.3787 C   0  0  2  0  0  0  0  0  0  0  0  0
   -1.7460    0.7697    1.5921 N   0  0  0  0  0  0  0  0  0  0  0  0
    0.2095   -2.2972    1.7556 H   0  0  0  0  0  0  0  0  0  0  0  0
   -1.4069   -1.5753    1.7794 H   0  0  0  0  0  0  0  0  0  0  0  0
   -0.0582   -0.6733    2.4965 H   0  0  0  0  0  0  0  0  0  0  0  0
    0.8501   -0.6278   -1.4120 H   0  0  0  0  0  0  0  0  0  0  0  0
    1.0491   -2.1391   -0.5147 H   0  0  0  0  0  0  0  0  0  0  0  0
    2.7494   -1.1375    0.9482 H   0  0  0  0  0  0  0  0  0  0  0  0
    1.5181    1.5049   -0.0326 H   0  0  0  0  0  0  0  0  0  0  0  0
    2.8186    1.2702    1.2967 H   0  0  0  0  0  0  0  0  0  0  0  0
    3.6073   -1.0647   -1.6654 H   0  0  0  0  0  0  0  0  0  0  0  0
   -1.8532   -1.6765   -0.5115 H   0  0  0  0  0  0  0  0  0  0  0  0
   -0.5297    0.8478   -1.6725 H   0  0  0  0  0  0  0  0  0  0  0  0
   -1.0940   -0.6947   -2.5255 H   0  0  0  0  0  0  0  0  0  0  0  0
   -3.5179    1.8943   -0.4716 H   0  0  0  0  0  0  0  0  0  0  0  0
   -1.6853    2.0312   -0.6065 H   0  0  0  0  0  0  0  0  0  0  0  0
   -3.3072   -0.2755    0.6068 H   0  0  0  0  0  0  0  0  0  0  0  0
   -1.2805    1.6792    1.3823 H   0  0  0  0  0  0  0  0  0  0  0  0
   -2.4234    0.8620    2.3721 H   0  0  0  0  0  0  0  0  0  0  0  0
  1  2  1  0
  2  3  1  0
  3  4  1  0
  4  5  1  0
  5  6  1  0
  6  7  2  0
  6  8  1  0
  2  9  1  0
  9 10  1  0
 10 11  1  0
 11 12  1  0
 12 13  1  0
 13 14  1  0
  8  4  1  0
 13  9  1  0
  1 15  1  0
  1 16  1  0
  1 17  1  0
  3 18  1  0
  3 19  1  0
  4 20  1  1
  5 21  1  0
  5 22  1  0
  8 23  1  0
  9 24  1  6
 10 25  1  0
 10 26  1  0
 12 27  1  0
 12 28  1  0
 13 29  1  1
 14 30  1  0
 14 31  1  0
M  END
$$$$

     RDKit          3D

 31 32  0  0  0  0  0  0  0  0999 V2000
   -0.0248    1.6318   -0.6181 C   0  0  0  0  0  0  0  0  0  0  0  0
   -0.1611    0.2450   -0.2318 N   0  0  0  0  0  0  0  0  0  0  0  0
    0.9274   -0.2287    0.5645 C   0  0  0  0  0  0  0  0  0  0  0  0
    2.2388   -0.3186   -0.1679 C   0  0  2  0  0  0  0  0  0  0  0  0
    3.2977   -0.8401    0.8137 C   0  0  0  0  0  0  0  0  0  0  0  0
    3.8140    0.5436    0.9052 C   0  0  0  0  0  0  0  0  0  0  0  0
    4.5888    1.2159    1.6232 O   0  0  0  0  0  0  0  0  0  0  0  0
    3.0325    0.8644   -0.2318 N   0  0  0  0  0  0  0  0  0  0  0  0
   -1.3899    0.1286    0.5284 C   0  0  2  0  0  0  0  0  0  0  0  0
   -1.5911   -1.2508    1.1320 C   0  0  0  0  0  0  0  0  0  0  0  0
   -1.6298   -2.0917    0.0327 O   0  0  0  0  0  0  0  0  0  0  0  0
   -2.1973   -1.3693   -1.0174 C   0  0  0  0  0  0  0  0  0  0  0  0
   -2.5669   -0.0081   -0.4599 C   0  0  2  0  0  0  0  0  0  0  0  0
   -2.6493    1.0253   -1.4136 N   0  0  0  0  0  0  0  0  0  0  0  0
    0.0702    1.7450   -1.7058 H   0  0  0  0  0  0  0  0  0  0  0  0
   -0.9164    2.2128   -0.3086 H   0  0  0  0  0  0  0  0  0  0  0  0
    0.8302    2.0640   -0.0564 H   0  0  0  0  0  0  0  0  0  0  0  0
    1.0093    0.3832    1.4688 H   0  0  0  0  0  0  0  0  0  0  0  0
    0.6910   -1.3060    0.8205 H   0  0  0  0  0  0  0  0  0  0  0  0
    2.2206   -0.9766   -1.0479 H   0  0  0  0  0  0  0  0  0  0  0  0
    3.9880   -1.5797    0.3858 H   0  0  0  0  0  0  0  0  0  0  0  0
    2.9136   -1.1751    1.7851 H   0  0  0  0  0  0  0  0  0  0  0  0
    3.0505    1.6823   -0.8715 H   0  0  0  0  0  0  0  0  0  0  0  0
   -1.5440    0.9428    1.2394 H   0  0  0  0  0  0  0  0  0  0  0  0
   -0.9456   -1.5171    1.9417 H   0  0  0  0  0  0  0  0  0  0  0  0
   -2.6457   -1.2316    1.5251 H   0  0  0  0  0  0  0  0  0  0  0  0
   -3.0927   -1.8653   -1.4415 H   0  0  0  0  0  0  0  0  0  0  0  0
   -1.4020   -1.2743   -1.7996 H   0  0  0  0  0  0  0  0  0  0  0  0
   -3.4619   -0.1445    0.1772 H   0  0  0  0  0  0  0  0  0  0  0  0
   -3.1962    1.8223   -1.0009 H   0  0  0  0  0  0  0  0  0  0  0  0
   -3.2579    0.6705   -2.2042 H   0  0  0  0  0  0  0  0  0  0  0  0
  1  2  1  0
  2  3  1  0
  3  4  1  0
  4  5  1  0
  5  6  1  0
  6  7  2  0
  6  8  1  0
  2  9  1  0
  9 10  1  0
 10 11  1  0
 11 12  1  0
 12 13  1  0
 13 14  1  0
  8  4  1  0
 13  9  1  0
  1 15  1  0
  1 16  1  0
  1 17  1  0
  3 18  1  0
  3 19  1  0
  4 20  1  6
  5 21  1  0
  5 22  1  0
  8 23  1  0
  9 24  1  1
 10 25  1  0
 10 26  1  0
 12 27  1  0
 12 28  1  0
 13 29  1  1
 14 30  1  0
 14 31  1  0
M  END
$$$$

     RDKit          3D

 31 32  0  0  0  0  0  0  0  0999 V2000
   -0.3763    1.3661   -1.2411 C   0  0  0  0  0  0  0  0  0  0  0  0
   -0.0687    0.5024   -0.2112 N   0  0  0  0  0  0  0  0  0  0  0  0
    1.0038    0.8230    0.6468 C   0  0  0  0  0  0  0  0  0  0  0  0
    2.3526    0.7716    0.0327 C   0  0  2  0  0  0  0  0  0  0  0  0
    2.7841   -0.5702   -0.5323 C   0  0  0  0  0  0  0  0  0  0  0  0
    4.0941   -0.1437    0.0062 C   0  0  0  0  0  0  0  0  0  0  0  0
    5.2904   -0.2791   -0.2789 O   0  0  0  0  0  0  0  0  0  0  0  0
    3.3916    0.5172    1.0399 N   0  0  0  0  0  0  0  0  0  0  0  0
   -0.8760   -0.5051    0.2565 C   0  0  2  0  0  0  0  0  0  0  0  0
   -1.0939   -1.5163   -0.8587 C   0  0  0  0  0  0  0  0  0  0  0  0
   -2.4152   -1.3409   -1.2046 O   0  0  0  0  0  0  0  0  0  0  0  0
   -3.0531   -1.3042    0.0305 C   0  0  0  0  0  0  0  0  0  0  0  0
   -2.2329   -0.2422    0.7558 C   0  0  2  0  0  0  0  0  0  0  0  0
   -2.8075    1.0203    0.4505 N   0  0  0  0  0  0  0  0  0  0  0  0
    0.5947    1.7604   -1.6700 H   0  0  0  0  0  0  0  0  0  0  0  0
   -0.9019    2.2704   -0.8622 H   0  0  0  0  0  0  0  0  0  0  0  0
   -0.8821    0.9251   -2.1265 H   0  0  0  0  0  0  0  0  0  0  0  0
    0.8386    1.8781    1.0053 H   0  0  0  0  0  0  0  0  0  0  0  0
    0.9604    0.1709    1.5404 H   0  0  0  0  0  0  0  0  0  0  0  0
    2.6452    1.6604   -0.5589 H   0  0  0  0  0  0  0  0  0  0  0  0
    2.3575   -1.3751    0.0636 H   0  0  0  0  0  0  0  0  0  0  0  0
    2.7208   -0.6656   -1.6258 H   0  0  0  0  0  0  0  0  0  0  0  0
    3.5733    0.7106    2.0439 H   0  0  0  0  0  0  0  0  0  0  0  0
   -0.3152   -1.0587    1.0538 H   0  0  0  0  0  0  0  0  0  0  0  0
   -0.4024   -1.3148   -1.7216 H   0  0  0  0  0  0  0  0  0  0  0  0
   -0.9442   -2.5572   -0.5189 H   0  0  0  0  0  0  0  0  0  0  0  0
   -4.1103   -1.0504   -0.0286 H   0  0  0  0  0  0  0  0  0  0  0  0
   -2.8969   -2.3021    0.5162 H   0  0  0  0  0  0  0  0  0  0  0  0
   -2.3590   -0.4466    1.8366 H   0  0  0  0  0  0  0  0  0  0  0  0
   -3.3598    0.9840   -0.4402 H   0  0  0  0  0  0  0  0  0  0  0  0
   -3.5116    1.3118    1.1843 H   0  0  0  0  0  0  0  0  0  0  0  0
  1  2  1  0
  2  3  1  0
  3  4  1  0
  4  5  1  0
  5  6  1  0
  6  7  2  0
  6  8  1  0
  2  9  1  0
  9 10  1  0
 10 11  1  0
 11 12  1  0
 12 13  1  0
 13 14  1  0
  8  4  1  0
 13  9  1  0
  1 15  1  0
  1 16  1  0
  1 17  1  0
  3 18  1  0
  3 19  1  0
  4 20  1  6
  5 21  1  0
  5 22  1  0
  8 23  1  0
  9 24  1  1
 10 25  1  0
 10 26  1  0
 12 27  1  0
 12 28  1  0
 13 29  1  1
 14 30  1  0
 14 31  1  0
M  END
$$$$

     RDKit          3D

 31 32  0  0  0  0  0  0  0  0999 V2000
   -0.4502   -1.9287   -0.3147 C   0  0  0  0  0  0  0  0  0  0  0  0
   -0.3503   -0.5834    0.1824 N   0  0  0  0  0  0  0  0  0  0  0  0
    0.8652   -0.3510    0.8694 C   0  0  0  0  0  0  0  0  0  0  0  0
    2.1089   -0.3637    0.0216 C   0  0  2  0  0  0  0  0  0  0  0  0
    3.3426   -0.1031    0.8976 C   0  0  0  0  0  0  0  0  0  0  0  0
    3.8446    0.7073   -0.2357 C   0  0  0  0  0  0  0  0  0  0  0  0
    4.9610    1.0752   -0.6567 O   0  0  0  0  0  0  0  0  0  0  0  0
    2.4629    0.8757   -0.6317 N   0  0  0  0  0  0  0  0  0  0  0  0
   -0.8784    0.4156   -0.6516 C   0  0  2  0  0  0  0  0  0  0  0  0
   -0.8206    1.7701    0.0312 C   0  0  0  0  0  0  0  0  0  0  0  0
   -1.5500    1.5153    1.1959 O   0  0  0  0  0  0  0  0  0  0  0  0
   -2.5915    0.6819    0.8644 C   0  0  0  0  0  0  0  0  0  0  0  0
   -2.4122    0.2797   -0.6030 C   0  0  2  0  0  0  0  0  0  0  0  0
   -2.8786   -1.0147   -0.9003 N   0  0  0  0  0  0  0  0  0  0  0  0
    0.4532   -2.4924    0.0669 H   0  0  0  0  0  0  0  0  0  0  0  0
   -1.3093   -2.4765    0.1217 H   0  0  0  0  0  0  0  0  0  0  0  0
   -0.3861   -2.0074   -1.4153 H   0  0  0  0  0  0  0  0  0  0  0  0
    0.8221    0.5276    1.5434 H   0  0  0  0  0  0  0  0  0  0  0  0
    0.9949   -1.2231    1.5840 H   0  0  0  0  0  0  0  0  0  0  0  0
    2.2451   -1.2530   -0.5884 H   0  0  0  0  0  0  0  0  0  0  0  0
    3.9458   -1.0263    1.0735 H   0  0  0  0  0  0  0  0  0  0  0  0
    3.1413    0.5323    1.7711 H   0  0  0  0  0  0  0  0  0  0  0  0
    2.0482    1.6627   -1.1843 H   0  0  0  0  0  0  0  0  0  0  0  0
   -0.5179    0.4305   -1.6889 H   0  0  0  0  0  0  0  0  0  0  0  0
    0.1526    2.1819    0.1946 H   0  0  0  0  0  0  0  0  0  0  0  0
   -1.4704    2.4544   -0.5766 H   0  0  0  0  0  0  0  0  0  0  0  0
   -3.5880    1.0965    1.0404 H   0  0  0  0  0  0  0  0  0  0  0  0
   -2.4794   -0.2361    1.4985 H   0  0  0  0  0  0  0  0  0  0  0  0
   -2.8045    1.0987   -1.2066 H   0  0  0  0  0  0  0  0  0  0  0  0
   -3.1276   -1.0605   -1.9200 H   0  0  0  0  0  0  0  0  0  0  0  0
   -3.7732   -1.1854   -0.3829 H   0  0  0  0  0  0  0  0  0  0  0  0
  1  2  1  0
  2  3  1  0
  3  4  1  0
  4  5  1  0
  5  6  1  0
  6  7  2  0
  6  8  1  0
  2  9  1  0
  9 10  1  0
 10 11  1  0
 11 12  1  0
 12 13  1  0
 13 14  1  0
  8  4  1  0
 13  9  1  0
  1 15  1  0
  1 16  1  0
  1 17  1  0
  3 18  1  0
  3 19  1  0
  4 20  1  6
  5 21  1  0
  5 22  1  0
  8 23  1  0
  9 24  1  6
 10 25  1  0
 10 26  1  0
 12 27  1  0
 12 28  1  0
 13 29  1  6
 14 30  1  0
 14 31  1  0
M  END
$$$$

     RDKit          3D

 31 32  0  0  0  0  0  0  0  0999 V2000
    0.3055   -2.1098   -0.3175 C   0  0  0  0  0  0  0  0  0  0  0  0
   -0.1427   -0.7609   -0.3738 N   0  0  0  0  0  0  0  0  0  0  0  0
    0.6642    0.1534   -1.0271 C   0  0  0  0  0  0  0  0  0  0  0  0
    1.9566    0.5710   -0.4325 C   0  0  2  0  0  0  0  0  0  0  0  0
    3.0257   -0.4306   -0.1585 C   0  0  0  0  0  0  0  0  0  0  0  0
    3.3763    0.5552    0.9227 C   0  0  0  0  0  0  0  0  0  0  0  0
    4.4064    0.9169    1.4716 O   0  0  0  0  0  0  0  0  0  0  0  0
    1.9985    0.8491    0.9903 N   0  0  0  0  0  0  0  0  0  0  0  0
   -1.0762   -0.3759    0.5897 C   0  0  2  0  0  0  0  0  0  0  0  0
   -2.3318   -1.2345    0.3535 C   0  0  0  0  0  0  0  0  0  0  0  0
   -2.8073   -0.6985   -0.8447 O   0  0  0  0  0  0  0  0  0  0  0  0
   -2.6389    0.6708   -0.7700 C   0  0  0  0  0  0  0  0  0  0  0  0
   -1.7619    0.9360    0.4333 C   0  0  2  0  0  0  0  0  0  0  0  0
   -1.0067    2.1087    0.4057 N   0  0  0  0  0  0  0  0  0  0  0  0
    0.6805   -2.3720    0.6879 H   0  0  0  0  0  0  0  0  0  0  0  0
   -0.5019   -2.8350   -0.6410 H   0  0  0  0  0  0  0  0  0  0  0  0
    1.1204   -2.2890   -1.0433 H   0  0  0  0  0  0  0  0  0  0  0  0
    0.1613    1.1001   -1.3736 H   0  0  0  0  0  0  0  0  0  0  0  0
    0.9405   -0.3150   -2.0283 H   0  0  0  0  0  0  0  0  0  0  0  0
    2.4443    1.4527   -0.9617 H   0  0  0  0  0  0  0  0  0  0  0  0
    3.8096   -0.5328   -0.9423 H   0  0  0  0  0  0  0  0  0  0  0  0
    2.7914   -1.3718    0.3326 H   0  0  0  0  0  0  0  0  0  0  0  0
    1.3800    1.1296    1.7735 H   0  0  0  0  0  0  0  0  0  0  0  0
   -0.8021   -0.5283    1.6434 H   0  0  0  0  0  0  0  0  0  0  0  0
   -3.0324   -0.9977    1.1840 H   0  0  0  0  0  0  0  0  0  0  0  0
   -2.1462   -2.2932    0.3524 H   0  0  0  0  0  0  0  0  0  0  0  0
   -3.5999    1.2289   -0.6570 H   0  0  0  0  0  0  0  0  0  0  0  0
   -2.2068    1.0384   -1.7139 H   0  0  0  0  0  0  0  0  0  0  0  0
   -2.4886    1.0050    1.2998 H   0  0  0  0  0  0  0  0  0  0  0  0
   -1.1768    2.7277    1.2536 H   0  0  0  0  0  0  0  0  0  0  0  0
   -1.3410    2.7016   -0.4086 H   0  0  0  0  0  0  0  0  0  0  0  0
  1  2  1  0
  2  3  1  0
  3  4  1  0
  4  5  1  0
  5  6  1  0
  6  7  2  0
  6  8  1  0
  2  9  1  0
  9 10  1  0
 10 11  1  0
 11 12  1  0
 12 13  1  0
 13 14  1  0
  8  4  1  0
 13  9  1  0
  1 15  1  0
  1 16  1  0
  1 17  1  0
  3 18  1  0
  3 19  1  0
  4 20  1  6
  5 21  1  0
  5 22  1  0
  8 23  1  0
  9 24  1  1
 10 25  1  0
 10 26  1  0
 12 27  1  0
 12 28  1  0
 13 29  1  1
 14 30  1  0
 14 31  1  0
M  END
$$$$

     RDKit          3D

 31 32  0  0  0  0  0  0  0  0999 V2000
    0.2378   -0.2243    2.3107 C   0  0  0  0  0  0  0  0  0  0  0  0
   -0.1429   -0.1454    0.9032 N   0  0  0  0  0  0  0  0  0  0  0  0
    1.0699    0.3133    0.2364 C   0  0  0  0  0  0  0  0  0  0  0  0
    2.1398   -0.7341    0.1692 C   0  0  2  0  0  0  0  0  0  0  0  0
    3.3999   -0.2480   -0.5202 C   0  0  0  0  0  0  0  0  0  0  0  0
    2.5852   -0.4387   -1.7400 C   0  0  0  0  0  0  0  0  0  0  0  0
    2.3973    0.0206   -2.8868 O   0  0  0  0  0  0  0  0  0  0  0  0
    1.9540   -1.5338   -1.0561 N   0  0  0  0  0  0  0  0  0  0  0  0
   -1.2009    0.8232    0.7067 C   0  0  2  0  0  0  0  0  0  0  0  0
   -2.4197    0.4770    1.5481 C   0  0  0  0  0  0  0  0  0  0  0  0
   -3.4034   -0.0008    0.7338 O   0  0  0  0  0  0  0  0  0  0  0  0
   -2.8178   -0.3948   -0.4596 C   0  0  0  0  0  0  0  0  0  0  0  0
   -1.8335    0.7756   -0.6599 C   0  0  2  0  0  0  0  0  0  0  0  0
   -0.9885    0.5615   -1.7697 N   0  0  0  0  0  0  0  0  0  0  0  0
    0.1211    0.8045    2.7608 H   0  0  0  0  0  0  0  0  0  0  0  0
    1.3120   -0.4303    2.3672 H   0  0  0  0  0  0  0  0  0  0  0  0
   -0.2960   -0.9918    2.8796 H   0  0  0  0  0  0  0  0  0  0  0  0
    0.9556    0.7750   -0.7239 H   0  0  0  0  0  0  0  0  0  0  0  0
    1.4559    1.1594    0.9091 H   0  0  0  0  0  0  0  0  0  0  0  0
    2.2923   -1.4141    0.9958 H   0  0  0  0  0  0  0  0  0  0  0  0
    4.2464   -0.9345   -0.3946 H   0  0  0  0  0  0  0  0  0  0  0  0
    3.6146    0.8333   -0.3618 H   0  0  0  0  0  0  0  0  0  0  0  0
    1.5647   -2.4376   -1.3390 H   0  0  0  0  0  0  0  0  0  0  0  0
   -0.8101    1.8164    0.9666 H   0  0  0  0  0  0  0  0  0  0  0  0
   -2.2239   -0.2222    2.3612 H   0  0  0  0  0  0  0  0  0  0  0  0
   -2.7588    1.4420    2.0236 H   0  0  0  0  0  0  0  0  0  0  0  0
   -2.2417   -1.3194   -0.2507 H   0  0  0  0  0  0  0  0  0  0  0  0
   -3.5204   -0.4555   -1.2919 H   0  0  0  0  0  0  0  0  0  0  0  0
   -2.4646    1.7016   -0.7524 H   0  0  0  0  0  0  0  0  0  0  0  0
   -0.7225   -0.4385   -1.9327 H   0  0  0  0  0  0  0  0  0  0  0  0
   -1.5020    0.8606   -2.6300 H   0  0  0  0  0  0  0  0  0  0  0  0
  1  2  1  0
  2  3  1  0
  3  4  1  0
  4  5  1  0
  5  6  1  0
  6  7  2  0
  6  8  1  0
  2  9  1  0
  9 10  1  0
 10 11  1  0
 11 12  1  0
 12 13  1  0
 13 14  1  0
  8  4  1  0
 13  9  1  0
  1 15  1  0
  1 16  1  0
  1 17  1  0
  3 18  1  0
  3 19  1  0
  4 20  1  1
  5 21  1  0
  5 22  1  0
  8 23  1  0
  9 24  1  1
 10 25  1  0
 10 26  1  0
 12 27  1  0
 12 28  1  0
 13 29  1  6
 14 30  1  0
 14 31  1  0
M  END
$$$$

     RDKit          3D

 31 32  0  0  0  0  0  0  0  0999 V2000
   -0.3559    0.2663   -1.6797 C   0  0  0  0  0  0  0  0  0  0  0  0
   -0.1082    0.3068   -0.2772 N   0  0  0  0  0  0  0  0  0  0  0  0
    1.0821   -0.4383    0.0299 C   0  0  0  0  0  0  0  0  0  0  0  0
    2.3592    0.1713   -0.4545 C   0  0  2  0  0  0  0  0  0  0  0  0
    3.5864   -0.6770   -0.1054 C   0  0  0  0  0  0  0  0  0  0  0  0
    4.1769    0.6266    0.2054 C   0  0  0  0  0  0  0  0  0  0  0  0
    5.3175    1.1508    0.1852 O   0  0  0  0  0  0  0  0  0  0  0  0
    2.8922    1.0950    0.5609 N   0  0  0  0  0  0  0  0  0  0  0  0
   -1.1537   -0.1472    0.5710 C   0  0  2  0  0  0  0  0  0  0  0  0
   -1.5222   -1.6027    0.4143 C   0  0  0  0  0  0  0  0  0  0  0  0
   -2.4356   -1.6715   -0.6221 O   0  0  0  0  0  0  0  0  0  0  0  0
   -3.1201   -0.4708   -0.6572 C   0  0  0  0  0  0  0  0  0  0  0  0
   -2.4963    0.4915    0.2947 C   0  0  2  0  0  0  0  0  0  0  0  0
   -2.3857    1.8302   -0.2430 N   0  0  0  0  0  0  0  0  0  0  0  0
   -1.0407    1.0699   -2.0472 H   0  0  0  0  0  0  0  0  0  0  0  0
    0.5765    0.3836   -2.2563 H   0  0  0  0  0  0  0  0  0  0  0  0
   -0.8152   -0.6780   -2.0423 H   0  0  0  0  0  0  0  0  0  0  0  0
    1.0758   -0.6637    1.1019 H   0  0  0  0  0  0  0  0  0  0  0  0
    1.0110   -1.4436   -0.4755 H   0  0  0  0  0  0  0  0  0  0  0  0
    2.3777    0.6640   -1.4184 H   0  0  0  0  0  0  0  0  0  0  0  0
    4.0065   -1.2339   -0.9523 H   0  0  0  0  0  0  0  0  0  0  0  0
    3.3688   -1.2587    0.8140 H   0  0  0  0  0  0  0  0  0  0  0  0
    2.5530    1.7853    1.2447 H   0  0  0  0  0  0  0  0  0  0  0  0
   -0.8768    0.1207    1.6220 H   0  0  0  0  0  0  0  0  0  0  0  0
   -0.6859   -2.2803    0.2393 H   0  0  0  0  0  0  0  0  0  0  0  0
   -1.9820   -1.8943    1.3955 H   0  0  0  0  0  0  0  0  0  0  0  0
   -4.1779   -0.6612   -0.3117 H   0  0  0  0  0  0  0  0  0  0  0  0
   -3.1602   -0.0224   -1.6735 H   0  0  0  0  0  0  0  0  0  0  0  0
   -3.0609    0.5027    1.2522 H   0  0  0  0  0  0  0  0  0  0  0  0
   -1.6717    2.4166    0.2087 H   0  0  0  0  0  0  0  0  0  0  0  0
   -3.3349    2.2622   -0.1769 H   0  0  0  0  0  0  0  0  0  0  0  0
  1  2  1  0
  2  3  1  0
  3  4  1  0
  4  5  1  0
  5  6  1  0
  6  7  2  0
  6  8  1  0
  2  9  1  0
  9 10  1  0
 10 11  1  0
 11 12  1  0
 12 13  1  0
 13 14  1  0
  8  4  1  0
 13  9  1  0
  1 15  1  0
  1 16  1  0
  1 17  1  0
  3 18  1  0
  3 19  1  0
  4 20  1  6
  5 21  1  0
  5 22  1  0
  8 23  1  0
  9 24  1  1
 10 25  1  0
 10 26  1  0
 12 27  1  0
 12 28  1  0
 13 29  1  1
 14 30  1  0
 14 31  1  0
M  END
$$$$
