
     RDKit          3D

 26 27  0  0  0  0  0  0  0  0999 V2000
    3.6226   -0.8150    0.4551 C   0  0  0  0  0  0  0  0  0  0  0  0
    2.7050    0.1391   -0.1655 N   0  0  0  0  0  0  0  0  0  0  0  0
    3.0095    1.1684   -0.9173 N   0  0  0  0  0  0  0  0  0  0  0  0
    1.8924    1.7913   -1.2894 C   0  0  0  0  0  0  0  0  0  0  0  0
    0.8569    1.1271   -0.7507 N   0  0  0  0  0  0  0  0  0  0  0  0
    1.3695    0.1070   -0.0575 C   0  0  0  0  0  0  0  0  0  0  0  0
    0.6253   -0.9180    0.7192 C   0  0  0  0  0  0  0  0  0  0  0  0
   -0.8666   -0.6746    0.6414 C   0  0  1  0  0  0  0  0  0  0  0  0
   -1.1816    0.5581    1.1488 O   0  0  0  0  0  0  0  0  0  0  0  0
   -2.1949    1.2280    0.5301 C   0  0  0  0  0  0  0  0  0  0  0  0
   -3.3140    0.3571    0.0224 C   0  0  0  0  0  0  0  0  0  0  0  0
   -2.7404   -0.5365   -0.9674 N   0  0  0  0  0  0  0  0  0  0  0  0
   -1.3779   -0.9222   -0.7245 C   0  0  0  0  0  0  0  0  0  0  0  0
   -0.6756   -1.4377   -1.6281 O   0  0  0  0  0  0  0  0  0  0  0  0
    3.5326   -1.7655   -0.0995 H   0  0  0  0  0  0  0  0  0  0  0  0
    4.6577   -0.4611    0.4284 H   0  0  0  0  0  0  0  0  0  0  0  0
    3.2899   -1.0178    1.4943 H   0  0  0  0  0  0  0  0  0  0  0  0
    1.8301    2.6789   -1.9170 H   0  0  0  0  0  0  0  0  0  0  0  0
    0.9711   -0.8785    1.7606 H   0  0  0  0  0  0  0  0  0  0  0  0
    0.8599   -1.9242    0.3087 H   0  0  0  0  0  0  0  0  0  0  0  0
   -1.3558   -1.4390    1.3009 H   0  0  0  0  0  0  0  0  0  0  0  0
   -1.8170    1.8242   -0.3019 H   0  0  0  0  0  0  0  0  0  0  0  0
   -2.6386    1.9374    1.2881 H   0  0  0  0  0  0  0  0  0  0  0  0
   -3.7180   -0.2238    0.8963 H   0  0  0  0  0  0  0  0  0  0  0  0
   -4.1060    0.9890   -0.3799 H   0  0  0  0  0  0  0  0  0  0  0  0
   -3.2361   -0.8916   -1.7956 H   0  0  0  0  0  0  0  0  0  0  0  0
  1  2  1  0
  2  3  1  0
  3  4  2  0
  4  5  1  0
  5  6  2  0
  6  7  1  0
  7  8  1  0
  8  9  1  0
  9 10  1  0
 10 11  1  0
 11 12  1  0
 12 13  1  0
 13 14  2  0
  6  2  1  0
 13  8  1  0
  1 15  1  0
  1 16  1  0
  1 17  1  0
  4 18  1  0
  7 19  1  0
  7 20  1  0
  8 21  1  1
 10 22  1  0
 10 23  1  0
 11 24  1  0
 11 25  1  0
 12 26  1  0
M  END
$$$$

     RDKit          3D

 26 27  0  0  0  0  0  0  0  0999 V2000
   -3.1235   -0.8354    0.8779 C   0  0  0  0  0  0  0  0  0  0  0  0
   -2.6683    0.2984    0.0709 N   0  0  0  0  0  0  0  0  0  0  0  0
   -3.3057    1.4210   -0.1794 N   0  0  0  0  0  0  0  0  0  0  0  0
   -2.5428    2.2142   -0.9681 C   0  0  0  0  0  0  0  0  0  0  0  0
   -1.4227    1.5222   -1.1807 N   0  0  0  0  0  0  0  0  0  0  0  0
   -1.4838    0.3396   -0.5476 C   0  0  0  0  0  0  0  0  0  0  0  0
   -0.4215   -0.6929   -0.5592 C   0  0  0  0  0  0  0  0  0  0  0  0
    0.5660   -0.5253    0.5711 C   0  0  1  0  0  0  0  0  0  0  0  0
    1.5033   -1.5403    0.4556 O   0  0  0  0  0  0  0  0  0  0  0  0
    2.4939   -1.1424   -0.4258 C   0  0  0  0  0  0  0  0  0  0  0  0
    3.3938   -0.1795    0.3626 C   0  0  0  0  0  0  0  0  0  0  0  0
    2.5946    1.0165    0.5454 N   0  0  0  0  0  0  0  0  0  0  0  0
    1.1869    0.8198    0.6124 C   0  0  0  0  0  0  0  0  0  0  0  0
    0.4438    1.8136    0.7098 O   0  0  0  0  0  0  0  0  0  0  0  0
   -2.5914   -0.8504    1.8523 H   0  0  0  0  0  0  0  0  0  0  0  0
   -4.1999   -0.7286    1.0887 H   0  0  0  0  0  0  0  0  0  0  0  0
   -2.9585   -1.7989    0.3586 H   0  0  0  0  0  0  0  0  0  0  0  0
   -2.7750    3.2055   -1.3559 H   0  0  0  0  0  0  0  0  0  0  0  0
   -0.8740   -1.7152   -0.4040 H   0  0  0  0  0  0  0  0  0  0  0  0
    0.0827   -0.7242   -1.5440 H   0  0  0  0  0  0  0  0  0  0  0  0
    0.0302   -0.7175    1.5341 H   0  0  0  0  0  0  0  0  0  0  0  0
    2.0915   -0.5550   -1.2734 H   0  0  0  0  0  0  0  0  0  0  0  0
    3.1223   -1.9757   -0.7925 H   0  0  0  0  0  0  0  0  0  0  0  0
    4.3294   -0.0119   -0.1646 H   0  0  0  0  0  0  0  0  0  0  0  0
    3.5352   -0.6306    1.3693 H   0  0  0  0  0  0  0  0  0  0  0  0
    2.9932    1.9732    0.6261 H   0  0  0  0  0  0  0  0  0  0  0  0
  1  2  1  0
  2  3  1  0
  3  4  2  0
  4  5  1  0
  5  6  2  0
  6  7  1  0
  7  8  1  0
  8  9  1  0
  9 10  1  0
 10 11  1  0
 11 12  1  0
 12 13  1  0
 13 14  2  0
  6  2  1  0
 13  8  1  0
  1 15  1  0
  1 16  1  0
  1 17  1  0
  4 18  1  0
  7 19  1  0
  7 20  1  0
  8 21  1  1
 10 22  1  0
 10 23  1  0
 11 24  1  0
 11 25  1  0
 12 26  1  0
M  END
$$$$

     RDKit          3D

 26 27  0  0  0  0  0  0  0  0999 V2000
    2.6763    1.6856    0.6184 C   0  0  0  0  0  0  0  0  0  0  0  0
    2.6817    0.2700    0.2534 N   0  0  0  0  0  0  0  0  0  0  0  0
    3.6200   -0.5952    0.5858 N   0  0  0  0  0  0  0  0  0  0  0  0
    3.3174   -1.8027    0.0919 C   0  0  0  0  0  0  0  0  0  0  0  0
    2.1450   -1.6389   -0.5621 N   0  0  0  0  0  0  0  0  0  0  0  0
    1.7508   -0.3653   -0.4650 C   0  0  0  0  0  0  0  0  0  0  0  0
    0.5455    0.2181   -1.0294 C   0  0  0  0  0  0  0  0  0  0  0  0
   -0.6544    0.1716   -0.1273 C   0  0  1  0  0  0  0  0  0  0  0  0
   -1.7142    0.7701   -0.8232 O   0  0  0  0  0  0  0  0  0  0  0  0
   -2.7413    1.0012    0.1128 C   0  0  0  0  0  0  0  0  0  0  0  0
   -3.4238   -0.3093    0.4696 C   0  0  0  0  0  0  0  0  0  0  0  0
   -2.4788   -1.4255    0.3093 N   0  0  0  0  0  0  0  0  0  0  0  0
   -1.0774   -1.1817    0.2393 C   0  0  0  0  0  0  0  0  0  0  0  0
   -0.3193   -2.1504    0.4985 O   0  0  0  0  0  0  0  0  0  0  0  0
    2.0867    1.7849    1.5439 H   0  0  0  0  0  0  0  0  0  0  0  0
    3.7093    2.0590    0.6949 H   0  0  0  0  0  0  0  0  0  0  0  0
    2.1357    2.2593   -0.1681 H   0  0  0  0  0  0  0  0  0  0  0  0
    3.9250   -2.6694    0.2275 H   0  0  0  0  0  0  0  0  0  0  0  0
    0.6770    1.2947   -1.3255 H   0  0  0  0  0  0  0  0  0  0  0  0
    0.2700   -0.2955   -1.9946 H   0  0  0  0  0  0  0  0  0  0  0  0
   -0.4860    0.7643    0.7901 H   0  0  0  0  0  0  0  0  0  0  0  0
   -3.4377    1.7110   -0.3744 H   0  0  0  0  0  0  0  0  0  0  0  0
   -2.2759    1.4921    0.9736 H   0  0  0  0  0  0  0  0  0  0  0  0
   -4.2928   -0.4180   -0.1904 H   0  0  0  0  0  0  0  0  0  0  0  0
   -3.7537   -0.2368    1.5222 H   0  0  0  0  0  0  0  0  0  0  0  0
   -2.8852   -2.3932    0.2504 H   0  0  0  0  0  0  0  0  0  0  0  0
  1  2  1  0
  2  3  1  0
  3  4  2  0
  4  5  1  0
  5  6  2  0
  6  7  1  0
  7  8  1  0
  8  9  1  0
  9 10  1  0
 10 11  1  0
 11 12  1  0
 12 13  1  0
 13 14  2  0
  6  2  1  0
 13  8  1  0
  1 15  1  0
  1 16  1  0
  1 17  1  0
  4 18  1  0
  7 19  1  0
  7 20  1  0
  8 21  1  1
 10 22  1  0
 10 23  1  0
 11 24  1  0
 11 25  1  0
 12 26  1  0
M  END
$$$$

     RDKit          3D

 26 27  0  0  0  0  0  0  0  0999 V2000
    3.4441   -0.8768    0.4470 C   0  0  0  0  0  0  0  0  0  0  0  0
    2.8354    0.2638   -0.2270 N   0  0  0  0  0  0  0  0  0  0  0  0
    3.4546    1.1476   -0.9985 N   0  0  0  0  0  0  0  0  0  0  0  0
    2.5286    2.0443   -1.4262 C   0  0  0  0  0  0  0  0  0  0  0  0
    1.3429    1.6821   -0.8969 N   0  0  0  0  0  0  0  0  0  0  0  0
    1.5275    0.5757   -0.1504 C   0  0  0  0  0  0  0  0  0  0  0  0
    0.5159   -0.1981    0.6324 C   0  0  0  0  0  0  0  0  0  0  0  0
   -0.8423    0.4571    0.4758 C   0  0  1  0  0  0  0  0  0  0  0  0
   -1.1603    0.4482   -0.8620 O   0  0  0  0  0  0  0  0  0  0  0  0
   -2.5043    0.3823   -1.1360 C   0  0  0  0  0  0  0  0  0  0  0  0
   -3.0440   -0.9749   -0.7134 C   0  0  0  0  0  0  0  0  0  0  0  0
   -2.9027   -1.0287    0.7402 N   0  0  0  0  0  0  0  0  0  0  0  0
   -1.8013   -0.3142    1.2886 C   0  0  0  0  0  0  0  0  0  0  0  0
   -1.6526   -0.3536    2.5372 O   0  0  0  0  0  0  0  0  0  0  0  0
    4.5085   -0.6332    0.6257 H   0  0  0  0  0  0  0  0  0  0  0  0
    3.3459   -1.7588   -0.2168 H   0  0  0  0  0  0  0  0  0  0  0  0
    2.9006   -1.0746    1.3975 H   0  0  0  0  0  0  0  0  0  0  0  0
    2.6650    2.8943   -2.0633 H   0  0  0  0  0  0  0  0  0  0  0  0
    0.8570   -0.1406    1.6987 H   0  0  0  0  0  0  0  0  0  0  0  0
    0.4487   -1.2313    0.2606 H   0  0  0  0  0  0  0  0  0  0  0  0
   -0.7527    1.4777    0.9017 H   0  0  0  0  0  0  0  0  0  0  0  0
   -3.0356    1.1816   -0.5995 H   0  0  0  0  0  0  0  0  0  0  0  0
   -2.6279    0.4463   -2.2359 H   0  0  0  0  0  0  0  0  0  0  0  0
   -2.3727   -1.7424   -1.1245 H   0  0  0  0  0  0  0  0  0  0  0  0
   -4.0879   -1.1070   -1.0291 H   0  0  0  0  0  0  0  0  0  0  0  0
   -3.5902   -1.5668    1.2736 H   0  0  0  0  0  0  0  0  0  0  0  0
  1  2  1  0
  2  3  1  0
  3  4  2  0
  4  5  1  0
  5  6  2  0
  6  7  1  0
  7  8  1  0
  8  9  1  0
  9 10  1  0
 10 11  1  0
 11 12  1  0
 12 13  1  0
 13 14  2  0
  6  2  1  0
 13  8  1  0
  1 15  1  0
  1 16  1  0
  1 17  1  0
  4 18  1  0
  7 19  1  0
  7 20  1  0
  8 21  1  1
 10 22  1  0
 10 23  1  0
 11 24  1  0
 11 25  1  0
 12 26  1  0
M  END
$$$$

     RDKit          3D

 26 27  0  0  0  0  0  0  0  0999 V2000
   -3.5692   -1.0388    0.4105 C   0  0  0  0  0  0  0  0  0  0  0  0
   -2.9251    0.1133   -0.1397 N   0  0  0  0  0  0  0  0  0  0  0  0
   -3.5241    1.0626   -0.8243 N   0  0  0  0  0  0  0  0  0  0  0  0
   -2.5803    1.9540   -1.1589 C   0  0  0  0  0  0  0  0  0  0  0  0
   -1.3969    1.5377   -0.6703 N   0  0  0  0  0  0  0  0  0  0  0  0
   -1.6114    0.3870   -0.0330 C   0  0  0  0  0  0  0  0  0  0  0  0
   -0.6291   -0.4627    0.6787 C   0  0  0  0  0  0  0  0  0  0  0  0
    0.7734    0.0962    0.6049 C   0  0  1  0  0  0  0  0  0  0  0  0
    1.5886   -0.7871    1.3191 O   0  0  0  0  0  0  0  0  0  0  0  0
    2.9114   -0.3568    1.3474 C   0  0  0  0  0  0  0  0  0  0  0  0
    3.5416   -0.2061    0.0018 C   0  0  0  0  0  0  0  0  0  0  0  0
    2.6248    0.2126   -1.0261 N   0  0  0  0  0  0  0  0  0  0  0  0
    1.2209    0.1064   -0.8215 C   0  0  0  0  0  0  0  0  0  0  0  0
    0.4678    0.0301   -1.7968 O   0  0  0  0  0  0  0  0  0  0  0  0
   -3.0745   -1.2519    1.3955 H   0  0  0  0  0  0  0  0  0  0  0  0
   -4.6532   -0.8607    0.6303 H   0  0  0  0  0  0  0  0  0  0  0  0
   -3.4749   -1.9225   -0.2459 H   0  0  0  0  0  0  0  0  0  0  0  0
   -2.7115    2.8759   -1.7315 H   0  0  0  0  0  0  0  0  0  0  0  0
   -0.6614   -1.4849    0.1994 H   0  0  0  0  0  0  0  0  0  0  0  0
   -0.9863   -0.5529    1.7231 H   0  0  0  0  0  0  0  0  0  0  0  0
    0.7952    1.1233    0.9670 H   0  0  0  0  0  0  0  0  0  0  0  0
    3.4786   -1.1527    1.8963 H   0  0  0  0  0  0  0  0  0  0  0  0
    3.0467    0.5749    1.9269 H   0  0  0  0  0  0  0  0  0  0  0  0
    4.3444    0.5766    0.0611 H   0  0  0  0  0  0  0  0  0  0  0  0
    4.0001   -1.1627   -0.3323 H   0  0  0  0  0  0  0  0  0  0  0  0
    3.0044    0.5891   -1.9101 H   0  0  0  0  0  0  0  0  0  0  0  0
  1  2  1  0
  2  3  1  0
  3  4  2  0
  4  5  1  0
  5  6  2  0
  6  7  1  0
  7  8  1  0
  8  9  1  0
  9 10  1  0
 10 11  1  0
 11 12  1  0
 12 13  1  0
 13 14  2  0
  6  2  1  0
 13  8  1  0
  1 15  1  0
  1 16  1  0
  1 17  1  0
  4 18  1  0
  7 19  1  0
  7 20  1  0
  8 21  1  1
 10 22  1  0
 10 23  1  0
 11 24  1  0
 11 25  1  0
 12 26  1  0
M  END
$$$$

     RDKit          3D

 26 27  0  0  0  0  0  0  0  0999 V2000
    3.5911    0.8683   -0.7166 C   0  0  0  0  0  0  0  0  0  0  0  0
    2.8997   -0.1720    0.0418 N   0  0  0  0  0  0  0  0  0  0  0  0
    3.4885   -1.1984    0.6631 N   0  0  0  0  0  0  0  0  0  0  0  0
    2.5271   -1.9140    1.2334 C   0  0  0  0  0  0  0  0  0  0  0  0
    1.3366   -1.3451    0.9753 N   0  0  0  0  0  0  0  0  0  0  0  0
    1.5714   -0.2495    0.2259 C   0  0  0  0  0  0  0  0  0  0  0  0
    0.6103    0.7194   -0.3198 C   0  0  0  0  0  0  0  0  0  0  0  0
   -0.8060    0.3711    0.0515 C   0  0  1  0  0  0  0  0  0  0  0  0
   -1.6748    1.3303   -0.4963 O   0  0  0  0  0  0  0  0  0  0  0  0
   -2.8964    1.2249    0.1204 C   0  0  0  0  0  0  0  0  0  0  0  0
   -3.4181   -0.1721    0.2487 C   0  0  0  0  0  0  0  0  0  0  0  0
   -2.6431   -1.1410   -0.5160 N   0  0  0  0  0  0  0  0  0  0  0  0
   -1.2353   -0.9348   -0.5068 C   0  0  0  0  0  0  0  0  0  0  0  0
   -0.4637   -1.8188   -0.9474 O   0  0  0  0  0  0  0  0  0  0  0  0
    4.6648    0.6953   -0.7305 H   0  0  0  0  0  0  0  0  0  0  0  0
    3.3026    1.8327   -0.2377 H   0  0  0  0  0  0  0  0  0  0  0  0
    3.1270    0.8722   -1.7293 H   0  0  0  0  0  0  0  0  0  0  0  0
    2.6942   -2.8226    1.8186 H   0  0  0  0  0  0  0  0  0  0  0  0
    0.7224    0.8453   -1.4130 H   0  0  0  0  0  0  0  0  0  0  0  0
    0.8313    1.7060    0.1376 H   0  0  0  0  0  0  0  0  0  0  0  0
   -0.9137    0.4220    1.1401 H   0  0  0  0  0  0  0  0  0  0  0  0
   -2.8137    1.7264    1.1191 H   0  0  0  0  0  0  0  0  0  0  0  0
   -3.6434    1.8035   -0.4747 H   0  0  0  0  0  0  0  0  0  0  0  0
   -3.2698   -0.4716    1.3280 H   0  0  0  0  0  0  0  0  0  0  0  0
   -4.5010   -0.2478    0.0183 H   0  0  0  0  0  0  0  0  0  0  0  0
   -3.0878   -1.9298   -1.0335 H   0  0  0  0  0  0  0  0  0  0  0  0
  1  2  1  0
  2  3  1  0
  3  4  2  0
  4  5  1  0
  5  6  2  0
  6  7  1  0
  7  8  1  0
  8  9  1  0
  9 10  1  0
 10 11  1  0
 11 12  1  0
 12 13  1  0
 13 14  2  0
  6  2  1  0
 13  8  1  0
  1 15  1  0
  1 16  1  0
  1 17  1  0
  4 18  1  0
  7 19  1  0
  7 20  1  0
  8 21  1  1
 10 22  1  0
 10 23  1  0
 11 24  1  0
 11 25  1  0
 12 26  1  0
M  END
$$$$

     RDKit          3D

 26 27  0  0  0  0  0  0  0  0999 V2000
    3.3157   -1.2586   -0.7556 C   0  0  0  0  0  0  0  0  0  0  0  0
    2.8435    0.0783   -0.5203 N   0  0  0  0  0  0  0  0  0  0  0  0
    3.5348    1.1952   -0.6805 N   0  0  0  0  0  0  0  0  0  0  0  0
    2.7723    2.2679   -0.3657 C   0  0  0  0  0  0  0  0  0  0  0  0
    1.5780    1.7384   -0.0049 N   0  0  0  0  0  0  0  0  0  0  0  0
    1.6239    0.4082   -0.0997 C   0  0  0  0  0  0  0  0  0  0  0  0
    0.5489   -0.5521    0.1961 C   0  0  0  0  0  0  0  0  0  0  0  0
   -0.7223    0.1237    0.6545 C   0  0  1  0  0  0  0  0  0  0  0  0
   -1.2240    0.9883   -0.2920 O   0  0  0  0  0  0  0  0  0  0  0  0
   -2.6081    1.1653   -0.0954 C   0  0  0  0  0  0  0  0  0  0  0  0
   -3.2618   -0.0781   -0.6684 C   0  0  0  0  0  0  0  0  0  0  0  0
   -2.7903   -1.1921    0.1329 N   0  0  0  0  0  0  0  0  0  0  0  0
   -1.6897   -0.9476    0.9944 C   0  0  0  0  0  0  0  0  0  0  0  0
   -1.5502   -1.6380    2.0277 O   0  0  0  0  0  0  0  0  0  0  0  0
    4.3804   -1.2830   -1.0377 H   0  0  0  0  0  0  0  0  0  0  0  0
    3.1704   -1.8387    0.1952 H   0  0  0  0  0  0  0  0  0  0  0  0
    2.6462   -1.7435   -1.4959 H   0  0  0  0  0  0  0  0  0  0  0  0
    3.0282    3.3144   -0.3871 H   0  0  0  0  0  0  0  0  0  0  0  0
    0.9110   -1.1853    1.0526 H   0  0  0  0  0  0  0  0  0  0  0  0
    0.3485   -1.1602   -0.6852 H   0  0  0  0  0  0  0  0  0  0  0  0
   -0.4787    0.7253    1.5560 H   0  0  0  0  0  0  0  0  0  0  0  0
   -2.7717    1.1136    1.0160 H   0  0  0  0  0  0  0  0  0  0  0  0
   -2.9763    2.0874   -0.5454 H   0  0  0  0  0  0  0  0  0  0  0  0
   -3.0150   -0.1869   -1.7391 H   0  0  0  0  0  0  0  0  0  0  0  0
   -4.3656   -0.0193   -0.5785 H   0  0  0  0  0  0  0  0  0  0  0  0
   -3.2482   -2.1226    0.0683 H   0  0  0  0  0  0  0  0  0  0  0  0
  1  2  1  0
  2  3  1  0
  3  4  2  0
  4  5  1  0
  5  6  2  0
  6  7  1  0
  7  8  1  0
  8  9  1  0
  9 10  1  0
 10 11  1  0
 11 12  1  0
 12 13  1  0
 13 14  2  0
  6  2  1  0
 13  8  1  0
  1 15  1  0
  1 16  1  0
  1 17  1  0
  4 18  1  0
  7 19  1  0
  7 20  1  0
  8 21  1  1
 10 22  1  0
 10 23  1  0
 11 24  1  0
 11 25  1  0
 12 26  1  0
M  END
$$$$

     RDKit          3D

 26 27  0  0  0  0  0  0  0  0999 V2000
    3.6812   -0.8034   -0.1578 C   0  0  0  0  0  0  0  0  0  0  0  0
    2.7049    0.2836   -0.0802 N   0  0  0  0  0  0  0  0  0  0  0  0
    3.0311    1.5547    0.0077 N   0  0  0  0  0  0  0  0  0  0  0  0
    1.9025    2.2926    0.0612 C   0  0  0  0  0  0  0  0  0  0  0  0
    0.8644    1.4353    0.0035 N   0  0  0  0  0  0  0  0  0  0  0  0
    1.3633    0.1847   -0.0846 C   0  0  0  0  0  0  0  0  0  0  0  0
    0.6629   -1.1140   -0.1737 C   0  0  0  0  0  0  0  0  0  0  0  0
   -0.8271   -0.9764   -0.1615 C   0  0  1  0  0  0  0  0  0  0  0  0
   -1.3121   -0.3706    0.9862 O   0  0  0  0  0  0  0  0  0  0  0  0
   -2.7063   -0.3970    0.9160 C   0  0  0  0  0  0  0  0  0  0  0  0
   -3.1347    0.8092    0.0769 C   0  0  0  0  0  0  0  0  0  0  0  0
   -2.3456    0.7582   -1.1346 N   0  0  0  0  0  0  0  0  0  0  0  0
   -1.3332   -0.2218   -1.3271 C   0  0  0  0  0  0  0  0  0  0  0  0
   -0.8412   -0.4810   -2.4552 O   0  0  0  0  0  0  0  0  0  0  0  0
    4.3558   -0.7440    0.7214 H   0  0  0  0  0  0  0  0  0  0  0  0
    4.2543   -0.7056   -1.0984 H   0  0  0  0  0  0  0  0  0  0  0  0
    3.1189   -1.7729   -0.1486 H   0  0  0  0  0  0  0  0  0  0  0  0
    1.8440    3.3671    0.1362 H   0  0  0  0  0  0  0  0  0  0  0  0
    0.9518   -1.5928   -1.1282 H   0  0  0  0  0  0  0  0  0  0  0  0
    0.9944   -1.7606    0.6401 H   0  0  0  0  0  0  0  0  0  0  0  0
   -1.2580   -1.9982   -0.2115 H   0  0  0  0  0  0  0  0  0  0  0  0
   -3.1824   -0.3226    1.9049 H   0  0  0  0  0  0  0  0  0  0  0  0
   -3.0330   -1.3108    0.3842 H   0  0  0  0  0  0  0  0  0  0  0  0
   -2.9926    1.7267    0.6600 H   0  0  0  0  0  0  0  0  0  0  0  0
   -4.2306    0.6984   -0.1342 H   0  0  0  0  0  0  0  0  0  0  0  0
   -2.5326    1.4610   -1.8763 H   0  0  0  0  0  0  0  0  0  0  0  0
  1  2  1  0
  2  3  1  0
  3  4  2  0
  4  5  1  0
  5  6  2  0
  6  7  1  0
  7  8  1  0
  8  9  1  0
  9 10  1  0
 10 11  1  0
 11 12  1  0
 12 13  1  0
 13 14  2  0
  6  2  1  0
 13  8  1  0
  1 15  1  0
  1 16  1  0
  1 17  1  0
  4 18  1  0
  7 19  1  0
  7 20  1  0
  8 21  1  6
 10 22  1  0
 10 23  1  0
 11 24  1  0
 11 25  1  0
 12 26  1  0
M  END
$$$$
