
     RDKit          3D

 25 26  0  0  0  0  0  0  0  0999 V2000
    3.1206   -0.9162    0.6009 N   0  0  0  0  0  0  0  0  0  0  0  0
    3.4636    0.4721    0.4542 C   0  0  0  0  0  0  0  0  0  0  0  0
    2.5591    1.1549   -0.5479 C   0  0  0  0  0  0  0  0  0  0  0  0
    1.1942    1.0494   -0.0776 N   0  0  0  0  0  0  0  0  0  0  0  0
    0.3671    0.0171   -0.3926 C   0  0  0  0  0  0  0  0  0  0  0  0
   -0.8541    0.2216    0.2130 C   0  0  0  0  0  0  0  0  0  0  0  0
   -2.0419   -0.6754    0.1232 C   0  0  0  0  0  0  0  0  0  0  0  0
   -2.7351   -0.9475    1.4273 C   0  0  0  0  0  0  0  0  0  0  0  0
   -3.9626   -0.3982    0.8338 N   0  0  0  0  0  0  0  0  0  0  0  0
   -3.2740    0.1252   -0.3160 C   0  0  0  0  0  0  0  0  0  0  0  0
   -0.7357    1.3805    0.8844 N   0  0  0  0  0  0  0  0  0  0  0  0
    0.5047    1.8618    0.6961 N   0  0  0  0  0  0  0  0  0  0  0  0
    3.9889   -1.4087    0.9577 H   0  0  0  0  0  0  0  0  0  0  0  0
    2.8500   -1.3151   -0.3366 H   0  0  0  0  0  0  0  0  0  0  0  0
    3.3801    0.9499    1.4593 H   0  0  0  0  0  0  0  0  0  0  0  0
    4.5144    0.5912    0.1185 H   0  0  0  0  0  0  0  0  0  0  0  0
    2.7029    0.6330   -1.5233 H   0  0  0  0  0  0  0  0  0  0  0  0
    2.8314    2.2042   -0.7173 H   0  0  0  0  0  0  0  0  0  0  0  0
    0.5932   -0.8396   -1.0119 H   0  0  0  0  0  0  0  0  0  0  0  0
   -1.9091   -1.5678   -0.4817 H   0  0  0  0  0  0  0  0  0  0  0  0
   -2.3734   -0.3667    2.2889 H   0  0  0  0  0  0  0  0  0  0  0  0
   -2.8307   -2.0355    1.6863 H   0  0  0  0  0  0  0  0  0  0  0  0
   -4.5853   -1.1806    0.5467 H   0  0  0  0  0  0  0  0  0  0  0  0
   -3.6619   -0.2239   -1.2952 H   0  0  0  0  0  0  0  0  0  0  0  0
   -3.1064    1.2144   -0.3306 H   0  0  0  0  0  0  0  0  0  0  0  0
  1  2  1  0
  2  3  1  0
  3  4  1  0
  4  5  1  0
  5  6  2  0
  6  7  1  0
  7  8  1  0
  8  9  1  0
  9 10  1  0
  6 11  1  0
 11 12  2  0
 12  4  1  0
 10  7  1  0
  1 13  1  0
  1 14  1  0
  2 15  1  0
  2 16  1  0
  3 17  1  0
  3 18  1  0
  5 19  1  0
  7 20  1  0
  8 21  1  0
  8 22  1  0
  9 23  1  0
 10 24  1  0
 10 25  1  0
M  END
$$$$

     RDKit          3D

 25 26  0  0  0  0  0  0  0  0999 V2000
    4.4094    0.4279   -0.2086 N   0  0  0  0  0  0  0  0  0  0  0  0
    3.1006   -0.1452   -0.2745 C   0  0  0  0  0  0  0  0  0  0  0  0
    2.3999    0.1627    1.0523 C   0  0  0  0  0  0  0  0  0  0  0  0
    1.0732   -0.4107    1.0021 N   0  0  0  0  0  0  0  0  0  0  0  0
   -0.0292    0.1989    0.5593 C   0  0  0  0  0  0  0  0  0  0  0  0
   -1.0539   -0.7096    0.6924 C   0  0  0  0  0  0  0  0  0  0  0  0
   -2.4839   -0.5252    0.3419 C   0  0  0  0  0  0  0  0  0  0  0  0
   -2.6988    0.0710   -1.0498 C   0  0  0  0  0  0  0  0  0  0  0  0
   -3.8247    0.7967   -0.4843 N   0  0  0  0  0  0  0  0  0  0  0  0
   -3.0842    0.7926    0.7875 C   0  0  0  0  0  0  0  0  0  0  0  0
   -0.5479   -1.8198    1.2022 N   0  0  0  0  0  0  0  0  0  0  0  0
    0.7417   -1.6172    1.3821 N   0  0  0  0  0  0  0  0  0  0  0  0
    4.8980    0.4654   -1.1336 H   0  0  0  0  0  0  0  0  0  0  0  0
    4.9974   -0.1345    0.4448 H   0  0  0  0  0  0  0  0  0  0  0  0
    2.5575    0.3350   -1.1097 H   0  0  0  0  0  0  0  0  0  0  0  0
    3.0922   -1.2361   -0.4468 H   0  0  0  0  0  0  0  0  0  0  0  0
    2.9502   -0.3191    1.8698 H   0  0  0  0  0  0  0  0  0  0  0  0
    2.3441    1.2614    1.1518 H   0  0  0  0  0  0  0  0  0  0  0  0
   -0.1393    1.2096    0.1645 H   0  0  0  0  0  0  0  0  0  0  0  0
   -3.1350   -1.3771    0.5272 H   0  0  0  0  0  0  0  0  0  0  0  0
   -1.8828    0.7703   -1.3114 H   0  0  0  0  0  0  0  0  0  0  0  0
   -2.9555   -0.6888   -1.8083 H   0  0  0  0  0  0  0  0  0  0  0  0
   -4.6523    0.1356   -0.4338 H   0  0  0  0  0  0  0  0  0  0  0  0
   -2.3587    1.6309    0.7551 H   0  0  0  0  0  0  0  0  0  0  0  0
   -3.7181    0.7252    1.6824 H   0  0  0  0  0  0  0  0  0  0  0  0
  1  2  1  0
  2  3  1  0
  3  4  1  0
  4  5  1  0
  5  6  2  0
  6  7  1  0
  7  8  1  0
  8  9  1  0
  9 10  1  0
  6 11  1  0
 11 12  2  0
 12  4  1  0
 10  7  1  0
  1 13  1  0
  1 14  1  0
  2 15  1  0
  2 16  1  0
  3 17  1  0
  3 18  1  0
  5 19  1  0
  7 20  1  0
  8 21  1  0
  8 22  1  0
  9 23  1  0
 10 24  1  0
 10 25  1  0
M  END
$$$$

     RDKit          3D

 25 26  0  0  0  0  0  0  0  0999 V2000
    2.8738    0.9564    0.7243 N   0  0  0  0  0  0  0  0  0  0  0  0
    3.3789   -0.3661    0.4871 C   0  0  0  0  0  0  0  0  0  0  0  0
    2.3408   -1.3864    0.9418 C   0  0  0  0  0  0  0  0  0  0  0  0
    1.1243   -1.1893    0.1977 N   0  0  0  0  0  0  0  0  0  0  0  0
    0.0805   -0.3980    0.5077 C   0  0  0  0  0  0  0  0  0  0  0  0
   -0.8693   -0.5011   -0.4651 C   0  0  0  0  0  0  0  0  0  0  0  0
   -2.1827    0.1364   -0.6210 C   0  0  0  0  0  0  0  0  0  0  0  0
   -2.9747    0.0292    0.6877 C   0  0  0  0  0  0  0  0  0  0  0  0
   -3.5453    1.3389    0.3302 N   0  0  0  0  0  0  0  0  0  0  0  0
   -2.2589    1.6059   -0.3345 C   0  0  0  0  0  0  0  0  0  0  0  0
   -0.3639   -1.3762   -1.3654 N   0  0  0  0  0  0  0  0  0  0  0  0
    0.8139   -1.7676   -0.9507 N   0  0  0  0  0  0  0  0  0  0  0  0
    3.6082    1.6940    0.7653 H   0  0  0  0  0  0  0  0  0  0  0  0
    2.2029    1.1820   -0.0712 H   0  0  0  0  0  0  0  0  0  0  0  0
    3.5510   -0.5768   -0.6009 H   0  0  0  0  0  0  0  0  0  0  0  0
    4.3222   -0.5086    1.0523 H   0  0  0  0  0  0  0  0  0  0  0  0
    2.1710   -1.2931    2.0458 H   0  0  0  0  0  0  0  0  0  0  0  0
    2.7798   -2.4023    0.7660 H   0  0  0  0  0  0  0  0  0  0  0  0
   -0.0253    0.2330    1.3789 H   0  0  0  0  0  0  0  0  0  0  0  0
   -2.7378   -0.1365   -1.5139 H   0  0  0  0  0  0  0  0  0  0  0  0
   -3.6961   -0.7940    0.7003 H   0  0  0  0  0  0  0  0  0  0  0  0
   -2.2742    0.1005    1.5337 H   0  0  0  0  0  0  0  0  0  0  0  0
   -4.3250    1.1610   -0.3454 H   0  0  0  0  0  0  0  0  0  0  0  0
   -1.5282    2.0046    0.3966 H   0  0  0  0  0  0  0  0  0  0  0  0
   -2.4659    2.2539   -1.2110 H   0  0  0  0  0  0  0  0  0  0  0  0
  1  2  1  0
  2  3  1  0
  3  4  1  0
  4  5  1  0
  5  6  2  0
  6  7  1  0
  7  8  1  0
  8  9  1  0
  9 10  1  0
  6 11  1  0
 11 12  2  0
 12  4  1  0
 10  7  1  0
  1 13  1  0
  1 14  1  0
  2 15  1  0
  2 16  1  0
  3 17  1  0
  3 18  1  0
  5 19  1  0
  7 20  1  0
  8 21  1  0
  8 22  1  0
  9 23  1  0
 10 24  1  0
 10 25  1  0
M  END
$$$$

     RDKit          3D

 25 26  0  0  0  0  0  0  0  0999 V2000
   -3.1392    0.9978   -0.7107 N   0  0  0  0  0  0  0  0  0  0  0  0
   -3.5184   -0.0130    0.2583 C   0  0  0  0  0  0  0  0  0  0  0  0
   -2.6016   -1.2242    0.1705 C   0  0  0  0  0  0  0  0  0  0  0  0
   -1.2138   -0.8571    0.4308 N   0  0  0  0  0  0  0  0  0  0  0  0
   -0.3269   -0.4709   -0.5015 C   0  0  0  0  0  0  0  0  0  0  0  0
    0.8809   -0.2030    0.0993 C   0  0  0  0  0  0  0  0  0  0  0  0
    2.0846    0.2431   -0.6004 C   0  0  0  0  0  0  0  0  0  0  0  0
    2.8151    1.4026    0.0367 C   0  0  0  0  0  0  0  0  0  0  0  0
    3.9366    0.5402    0.2524 N   0  0  0  0  0  0  0  0  0  0  0  0
    3.2670   -0.6448   -0.2119 C   0  0  0  0  0  0  0  0  0  0  0  0
    0.6758   -0.4440    1.4150 N   0  0  0  0  0  0  0  0  0  0  0  0
   -0.5769   -0.8311    1.5839 N   0  0  0  0  0  0  0  0  0  0  0  0
   -3.7968    1.0580   -1.5129 H   0  0  0  0  0  0  0  0  0  0  0  0
   -3.0721    1.9022   -0.2260 H   0  0  0  0  0  0  0  0  0  0  0  0
   -3.5005    0.3568    1.2985 H   0  0  0  0  0  0  0  0  0  0  0  0
   -4.5284   -0.3703   -0.0292 H   0  0  0  0  0  0  0  0  0  0  0  0
   -2.9095   -2.0212    0.8636 H   0  0  0  0  0  0  0  0  0  0  0  0
   -2.7238   -1.6228   -0.8603 H   0  0  0  0  0  0  0  0  0  0  0  0
   -0.5798   -0.3983   -1.5609 H   0  0  0  0  0  0  0  0  0  0  0  0
    1.9438    0.3512   -1.6819 H   0  0  0  0  0  0  0  0  0  0  0  0
    2.3315    1.8280    0.9245 H   0  0  0  0  0  0  0  0  0  0  0  0
    3.0420    2.1813   -0.7085 H   0  0  0  0  0  0  0  0  0  0  0  0
    4.7813    0.7217   -0.3339 H   0  0  0  0  0  0  0  0  0  0  0  0
    3.6817   -1.1157   -1.1122 H   0  0  0  0  0  0  0  0  0  0  0  0
    3.0477   -1.3665    0.6009 H   0  0  0  0  0  0  0  0  0  0  0  0
  1  2  1  0
  2  3  1  0
  3  4  1  0
  4  5  1  0
  5  6  2  0
  6  7  1  0
  7  8  1  0
  8  9  1  0
  9 10  1  0
  6 11  1  0
 11 12  2  0
 12  4  1  0
 10  7  1  0
  1 13  1  0
  1 14  1  0
  2 15  1  0
  2 16  1  0
  3 17  1  0
  3 18  1  0
  5 19  1  0
  7 20  1  0
  8 21  1  0
  8 22  1  0
  9 23  1  0
 10 24  1  0
 10 25  1  0
M  END
$$$$

     RDKit          3D

 25 26  0  0  0  0  0  0  0  0999 V2000
    4.7572    0.0242    0.0106 N   0  0  0  0  0  0  0  0  0  0  0  0
    3.3717   -0.4607   -0.0764 C   0  0  0  0  0  0  0  0  0  0  0  0
    2.5354    0.7402   -0.4635 C   0  0  0  0  0  0  0  0  0  0  0  0
    1.1339    0.4185   -0.5895 N   0  0  0  0  0  0  0  0  0  0  0  0
    0.2123    0.4751    0.3871 C   0  0  0  0  0  0  0  0  0  0  0  0
   -0.9958    0.0967   -0.1208 C   0  0  0  0  0  0  0  0  0  0  0  0
   -2.3062    0.0012    0.5724 C   0  0  0  0  0  0  0  0  0  0  0  0
   -2.9931   -1.3352    0.4479 C   0  0  0  0  0  0  0  0  0  0  0  0
   -4.1780   -0.6623   -0.0673 N   0  0  0  0  0  0  0  0  0  0  0  0
   -3.4707    0.6044   -0.1646 C   0  0  0  0  0  0  0  0  0  0  0  0
   -0.7812   -0.1871   -1.4168 N   0  0  0  0  0  0  0  0  0  0  0  0
    0.5104    0.0166   -1.6675 N   0  0  0  0  0  0  0  0  0  0  0  0
    4.7870    1.0516    0.1685 H   0  0  0  0  0  0  0  0  0  0  0  0
    5.3383   -0.3054   -0.7665 H   0  0  0  0  0  0  0  0  0  0  0  0
    3.2655   -1.3110   -0.7480 H   0  0  0  0  0  0  0  0  0  0  0  0
    3.1175   -0.7947    0.9500 H   0  0  0  0  0  0  0  0  0  0  0  0
    2.9403    1.2337   -1.3682 H   0  0  0  0  0  0  0  0  0  0  0  0
    2.6585    1.4813    0.3634 H   0  0  0  0  0  0  0  0  0  0  0  0
    0.3814    0.7668    1.4010 H   0  0  0  0  0  0  0  0  0  0  0  0
   -2.2063    0.2914    1.6376 H   0  0  0  0  0  0  0  0  0  0  0  0
   -2.6012   -2.0157   -0.3156 H   0  0  0  0  0  0  0  0  0  0  0  0
   -3.2255   -1.8115    1.4243 H   0  0  0  0  0  0  0  0  0  0  0  0
   -4.9822   -0.6423    0.6187 H   0  0  0  0  0  0  0  0  0  0  0  0
   -4.0032    1.4042    0.4287 H   0  0  0  0  0  0  0  0  0  0  0  0
   -3.2659    0.9199   -1.2053 H   0  0  0  0  0  0  0  0  0  0  0  0
  1  2  1  0
  2  3  1  0
  3  4  1  0
  4  5  1  0
  5  6  2  0
  6  7  1  0
  7  8  1  0
  8  9  1  0
  9 10  1  0
  6 11  1  0
 11 12  2  0
 12  4  1  0
 10  7  1  0
  1 13  1  0
  1 14  1  0
  2 15  1  0
  2 16  1  0
  3 17  1  0
  3 18  1  0
  5 19  1  0
  7 20  1  0
  8 21  1  0
  8 22  1  0
  9 23  1  0
 10 24  1  0
 10 25  1  0
M  END
$$$$

     RDKit          3D

 25 26  0  0  0  0  0  0  0  0999 V2000
    4.4014   -0.4412   -0.2578 N   0  0  0  0  0  0  0  0  0  0  0  0
    3.1453    0.0737    0.1203 C   0  0  0  0  0  0  0  0  0  0  0  0
    2.2892    0.2332   -1.1271 C   0  0  0  0  0  0  0  0  0  0  0  0
    1.0091    0.7628   -0.7041 N   0  0  0  0  0  0  0  0  0  0  0  0
   -0.0727    0.0344   -0.3435 C   0  0  0  0  0  0  0  0  0  0  0  0
   -1.0461    0.9417   -0.0222 C   0  0  0  0  0  0  0  0  0  0  0  0
   -2.4263    0.7158    0.4365 C   0  0  0  0  0  0  0  0  0  0  0  0
   -2.6141   -0.2931    1.5221 C   0  0  0  0  0  0  0  0  0  0  0  0
   -3.7919   -0.7795    0.8209 N   0  0  0  0  0  0  0  0  0  0  0  0
   -3.2390   -0.2408   -0.4059 C   0  0  0  0  0  0  0  0  0  0  0  0
   -0.4951    2.1650   -0.2076 N   0  0  0  0  0  0  0  0  0  0  0  0
    0.7559    2.0571   -0.6227 N   0  0  0  0  0  0  0  0  0  0  0  0
    5.2335    0.0681   -0.0009 H   0  0  0  0  0  0  0  0  0  0  0  0
    4.4683   -1.4067   -0.5374 H   0  0  0  0  0  0  0  0  0  0  0  0
    2.5622   -0.5903    0.8033 H   0  0  0  0  0  0  0  0  0  0  0  0
    3.2718    1.0442    0.6162 H   0  0  0  0  0  0  0  0  0  0  0  0
    2.8003    0.9783   -1.7689 H   0  0  0  0  0  0  0  0  0  0  0  0
    2.1824   -0.7414   -1.6410 H   0  0  0  0  0  0  0  0  0  0  0  0
   -0.1542   -1.0381   -0.3142 H   0  0  0  0  0  0  0  0  0  0  0  0
   -2.9945    1.6388    0.6233 H   0  0  0  0  0  0  0  0  0  0  0  0
   -1.8140   -1.0384    1.6273 H   0  0  0  0  0  0  0  0  0  0  0  0
   -2.9242    0.1460    2.4940 H   0  0  0  0  0  0  0  0  0  0  0  0
   -3.9335   -1.8058    0.8440 H   0  0  0  0  0  0  0  0  0  0  0  0
   -2.5817   -0.9082   -0.9722 H   0  0  0  0  0  0  0  0  0  0  0  0
   -4.0324    0.2528   -0.9824 H   0  0  0  0  0  0  0  0  0  0  0  0
  1  2  1  0
  2  3  1  0
  3  4  1  0
  4  5  1  0
  5  6  2  0
  6  7  1  0
  7  8  1  0
  8  9  1  0
  9 10  1  0
  6 11  1  0
 11 12  2  0
 12  4  1  0
 10  7  1  0
  1 13  1  0
  1 14  1  0
  2 15  1  0
  2 16  1  0
  3 17  1  0
  3 18  1  0
  5 19  1  0
  7 20  1  0
  8 21  1  0
  8 22  1  0
  9 23  1  0
 10 24  1  0
 10 25  1  0
M  END
$$$$

     RDKit          3D

 25 26  0  0  0  0  0  0  0  0999 V2000
    4.6594    0.4860   -0.6289 N   0  0  0  0  0  0  0  0  0  0  0  0
    3.3328    0.5072   -0.0365 C   0  0  0  0  0  0  0  0  0  0  0  0
    2.5444   -0.6423   -0.6092 C   0  0  0  0  0  0  0  0  0  0  0  0
    1.2062   -0.7104   -0.0830 N   0  0  0  0  0  0  0  0  0  0  0  0
    0.1522   -0.0709   -0.6598 C   0  0  0  0  0  0  0  0  0  0  0  0
   -0.9692   -0.3383    0.0822 C   0  0  0  0  0  0  0  0  0  0  0  0
   -2.3162    0.1558   -0.1926 C   0  0  0  0  0  0  0  0  0  0  0  0
   -3.4177   -0.8940   -0.1255 C   0  0  0  0  0  0  0  0  0  0  0  0
   -4.2720    0.1548    0.4374 N   0  0  0  0  0  0  0  0  0  0  0  0
   -3.0537    0.7336    1.0005 C   0  0  0  0  0  0  0  0  0  0  0  0
   -0.5949   -1.1283    1.0922 N   0  0  0  0  0  0  0  0  0  0  0  0
    0.7161   -1.3280    0.9575 N   0  0  0  0  0  0  0  0  0  0  0  0
    4.6275    1.0353   -1.5327 H   0  0  0  0  0  0  0  0  0  0  0  0
    5.2882    1.0522    0.0019 H   0  0  0  0  0  0  0  0  0  0  0  0
    2.8650    1.4797   -0.1880 H   0  0  0  0  0  0  0  0  0  0  0  0
    3.4739    0.3479    1.0501 H   0  0  0  0  0  0  0  0  0  0  0  0
    3.0927   -1.5821   -0.3734 H   0  0  0  0  0  0  0  0  0  0  0  0
    2.4814   -0.5886   -1.7091 H   0  0  0  0  0  0  0  0  0  0  0  0
    0.1901    0.5344   -1.5378 H   0  0  0  0  0  0  0  0  0  0  0  0
   -2.4553    0.7955   -1.0632 H   0  0  0  0  0  0  0  0  0  0  0  0
   -3.2790   -1.6797    0.6195 H   0  0  0  0  0  0  0  0  0  0  0  0
   -3.7004   -1.2147   -1.1407 H   0  0  0  0  0  0  0  0  0  0  0  0
   -4.6423    0.7746   -0.3419 H   0  0  0  0  0  0  0  0  0  0  0  0
   -2.8186    0.2797    1.9729 H   0  0  0  0  0  0  0  0  0  0  0  0
   -3.1104    1.8405    1.0104 H   0  0  0  0  0  0  0  0  0  0  0  0
  1  2  1  0
  2  3  1  0
  3  4  1  0
  4  5  1  0
  5  6  2  0
  6  7  1  0
  7  8  1  0
  8  9  1  0
  9 10  1  0
  6 11  1  0
 11 12  2  0
 12  4  1  0
 10  7  1  0
  1 13  1  0
  1 14  1  0
  2 15  1  0
  2 16  1  0
  3 17  1  0
  3 18  1  0
  5 19  1  0
  7 20  1  0
  8 21  1  0
  8 22  1  0
  9 23  1  0
 10 24  1  0
 10 25  1  0
M  END
$$$$

     RDKit          3D

 25 26  0  0  0  0  0  0  0  0999 V2000
    3.2421    0.4865   -1.1115 N   0  0  0  0  0  0  0  0  0  0  0  0
    3.6185    0.2135    0.2672 C   0  0  0  0  0  0  0  0  0  0  0  0
    2.7126   -0.8480    0.8336 C   0  0  0  0  0  0  0  0  0  0  0  0
    1.3189   -0.4480    0.8196 N   0  0  0  0  0  0  0  0  0  0  0  0
    0.4055   -0.6363   -0.1499 C   0  0  0  0  0  0  0  0  0  0  0  0
   -0.8144   -0.1077    0.2185 C   0  0  0  0  0  0  0  0  0  0  0  0
   -2.1029   -0.0799   -0.5235 C   0  0  0  0  0  0  0  0  0  0  0  0
   -3.2847   -0.5973    0.2549 C   0  0  0  0  0  0  0  0  0  0  0  0
   -3.8927    0.7140    0.1537 N   0  0  0  0  0  0  0  0  0  0  0  0
   -2.7235    1.2933   -0.4825 C   0  0  0  0  0  0  0  0  0  0  0  0
   -0.5913    0.4060    1.4528 N   0  0  0  0  0  0  0  0  0  0  0  0
    0.6735    0.1913    1.7816 N   0  0  0  0  0  0  0  0  0  0  0  0
    2.4742    1.1919   -1.1623 H   0  0  0  0  0  0  0  0  0  0  0  0
    3.0068   -0.3998   -1.6084 H   0  0  0  0  0  0  0  0  0  0  0  0
    3.5940    1.1271    0.8661 H   0  0  0  0  0  0  0  0  0  0  0  0
    4.6397   -0.2240    0.2252 H   0  0  0  0  0  0  0  0  0  0  0  0
    2.8948   -1.7808    0.2660 H   0  0  0  0  0  0  0  0  0  0  0  0
    3.0358   -1.0426    1.8801 H   0  0  0  0  0  0  0  0  0  0  0  0
    0.5852   -1.1300   -1.0908 H   0  0  0  0  0  0  0  0  0  0  0  0
   -2.0484   -0.5534   -1.4994 H   0  0  0  0  0  0  0  0  0  0  0  0
   -3.0899   -0.8323    1.3221 H   0  0  0  0  0  0  0  0  0  0  0  0
   -3.8613   -1.4074   -0.2387 H   0  0  0  0  0  0  0  0  0  0  0  0
   -4.7098    0.7484   -0.4892 H   0  0  0  0  0  0  0  0  0  0  0  0
   -2.8896    1.6809   -1.5090 H   0  0  0  0  0  0  0  0  0  0  0  0
   -2.1931    2.0347    0.1430 H   0  0  0  0  0  0  0  0  0  0  0  0
  1  2  1  0
  2  3  1  0
  3  4  1  0
  4  5  1  0
  5  6  2  0
  6  7  1  0
  7  8  1  0
  8  9  1  0
  9 10  1  0
  6 11  1  0
 11 12  2  0
 12  4  1  0
 10  7  1  0
  1 13  1  0
  1 14  1  0
  2 15  1  0
  2 16  1  0
  3 17  1  0
  3 18  1  0
  5 19  1  0
  7 20  1  0
  8 21  1  0
  8 22  1  0
  9 23  1  0
 10 24  1  0
 10 25  1  0
M  END
$$$$
