
     RDKit          3D

 27 26  0  0  0  0  0  0  0  0999 V2000
   -2.6493    0.9591   -0.6921 C   0  0  0  0  0  0  0  0  0  0  0  0
   -2.3342    0.2428    0.5099 N   0  0  0  0  0  0  0  0  0  0  0  0
   -3.5108    0.0427    1.3291 C   0  0  0  0  0  0  0  0  0  0  0  0
   -1.6800   -0.9992    0.3093 C   0  0  0  0  0  0  0  0  0  0  0  0
   -0.2975   -0.9300   -0.1980 C   0  0  0  0  0  0  0  0  0  0  0  0
    0.3450   -2.0180   -0.4027 O   0  0  0  0  0  0  0  0  0  0  0  0
    0.4172    0.2492   -0.4905 N   0  0  0  0  0  0  0  0  0  0  0  0
    1.7725    0.3367   -0.9794 C   0  0  0  0  0  0  0  0  0  0  0  0
    2.6538   -0.2794    0.0798 C   0  0  2  0  0  0  0  0  0  0  0  0
    2.4251    0.5023    1.2366 O   0  0  0  0  0  0  0  0  0  0  0  0
    4.1204   -0.1715   -0.2674 C   0  0  0  0  0  0  0  0  0  0  0  0
    4.8175   -0.7729    0.7870 F   0  0  0  0  0  0  0  0  0  0  0  0
   -2.0539    0.6465   -1.5774 H   0  0  0  0  0  0  0  0  0  0  0  0
   -2.5585    2.0782   -0.5666 H   0  0  0  0  0  0  0  0  0  0  0  0
   -3.7232    0.7711   -0.9237 H   0  0  0  0  0  0  0  0  0  0  0  0
   -3.2865   -0.6764    2.1721 H   0  0  0  0  0  0  0  0  0  0  0  0
   -4.3593   -0.4019    0.7423 H   0  0  0  0  0  0  0  0  0  0  0  0
   -3.8398    0.9756    1.8469 H   0  0  0  0  0  0  0  0  0  0  0  0
   -1.7981   -1.6334    1.2018 H   0  0  0  0  0  0  0  0  0  0  0  0
   -2.2660   -1.5387   -0.4947 H   0  0  0  0  0  0  0  0  0  0  0  0
   -0.0900    1.1712   -0.3357 H   0  0  0  0  0  0  0  0  0  0  0  0
    2.0753    1.3885   -1.1788 H   0  0  0  0  0  0  0  0  0  0  0  0
    1.8963   -0.2004   -1.9452 H   0  0  0  0  0  0  0  0  0  0  0  0
    2.3963   -1.3209    0.2459 H   0  0  0  0  0  0  0  0  0  0  0  0
    2.7353    1.4322    1.0230 H   0  0  0  0  0  0  0  0  0  0  0  0
    4.4167    0.8853   -0.2702 H   0  0  0  0  0  0  0  0  0  0  0  0
    4.3759   -0.7386   -1.1613 H   0  0  0  0  0  0  0  0  0  0  0  0
  1  2  1  0
  2  3  1  0
  2  4  1  0
  4  5  1  0
  5  6  2  0
  5  7  1  0
  7  8  1  0
  8  9  1  0
  9 10  1  0
  9 11  1  0
 11 12  1  0
  1 13  1  0
  1 14  1  0
  1 15  1  0
  3 16  1  0
  3 17  1  0
  3 18  1  0
  4 19  1  0
  4 20  1  0
  7 21  1  0
  8 22  1  0
  8 23  1  0
  9 24  1  1
 10 25  1  0
 11 26  1  0
 11 27  1  0
M  END
$$$$

     RDKit          3D

 27 26  0  0  0  0  0  0  0  0999 V2000
    3.6445    1.3141   -0.6377 C   0  0  0  0  0  0  0  0  0  0  0  0
    2.7583    0.5100    0.1857 N   0  0  0  0  0  0  0  0  0  0  0  0
    3.2544   -0.8267    0.2227 C   0  0  0  0  0  0  0  0  0  0  0  0
    1.4371    0.6428   -0.3336 C   0  0  0  0  0  0  0  0  0  0  0  0
    0.4228   -0.1322    0.4190 C   0  0  0  0  0  0  0  0  0  0  0  0
    0.8108   -0.8060    1.4052 O   0  0  0  0  0  0  0  0  0  0  0  0
   -0.9492   -0.1395    0.0703 N   0  0  0  0  0  0  0  0  0  0  0  0
   -1.9493   -0.8946    0.8005 C   0  0  0  0  0  0  0  0  0  0  0  0
   -3.3178   -0.7271    0.2259 C   0  0  2  0  0  0  0  0  0  0  0  0
   -3.4131   -1.1390   -1.0901 O   0  0  0  0  0  0  0  0  0  0  0  0
   -3.8660    0.6567    0.3983 C   0  0  0  0  0  0  0  0  0  0  0  0
   -3.0945    1.6217   -0.2032 F   0  0  0  0  0  0  0  0  0  0  0  0
    4.3585    1.8453    0.0511 H   0  0  0  0  0  0  0  0  0  0  0  0
    3.0704    2.0890   -1.1464 H   0  0  0  0  0  0  0  0  0  0  0  0
    4.2768    0.6921   -1.2980 H   0  0  0  0  0  0  0  0  0  0  0  0
    4.3441   -0.8052    0.0144 H   0  0  0  0  0  0  0  0  0  0  0  0
    3.1061   -1.2197    1.2636 H   0  0  0  0  0  0  0  0  0  0  0  0
    2.7404   -1.5141   -0.4833 H   0  0  0  0  0  0  0  0  0  0  0  0
    1.1124    1.6885   -0.3385 H   0  0  0  0  0  0  0  0  0  0  0  0
    1.4643    0.2684   -1.3974 H   0  0  0  0  0  0  0  0  0  0  0  0
   -1.2174    0.4375   -0.7591 H   0  0  0  0  0  0  0  0  0  0  0  0
   -1.6621   -1.9458    0.8838 H   0  0  0  0  0  0  0  0  0  0  0  0
   -1.9756   -0.4658    1.8384 H   0  0  0  0  0  0  0  0  0  0  0  0
   -4.0082   -1.4041    0.8020 H   0  0  0  0  0  0  0  0  0  0  0  0
   -2.5451   -1.3513   -1.5056 H   0  0  0  0  0  0  0  0  0  0  0  0
   -4.9164    0.6906    0.0303 H   0  0  0  0  0  0  0  0  0  0  0  0
   -3.8862    0.9143    1.4955 H   0  0  0  0  0  0  0  0  0  0  0  0
  1  2  1  0
  2  3  1  0
  2  4  1  0
  4  5  1  0
  5  6  2  0
  5  7  1  0
  7  8  1  0
  8  9  1  0
  9 10  1  0
  9 11  1  0
 11 12  1  0
  1 13  1  0
  1 14  1  0
  1 15  1  0
  3 16  1  0
  3 17  1  0
  3 18  1  0
  4 19  1  0
  4 20  1  0
  7 21  1  0
  8 22  1  0
  8 23  1  0
  9 24  1  1
 10 25  1  0
 11 26  1  0
 11 27  1  0
M  END
$$$$

     RDKit          3D

 27 26  0  0  0  0  0  0  0  0999 V2000
    3.8981    0.8513   -0.1986 C   0  0  0  0  0  0  0  0  0  0  0  0
    2.6588    0.1798   -0.5308 N   0  0  0  0  0  0  0  0  0  0  0  0
    2.8518   -1.2254   -0.5398 C   0  0  0  0  0  0  0  0  0  0  0  0
    1.6404    0.6383    0.3832 C   0  0  0  0  0  0  0  0  0  0  0  0
    0.3215    0.0065    0.1266 C   0  0  0  0  0  0  0  0  0  0  0  0
    0.1113   -0.8320   -0.7814 O   0  0  0  0  0  0  0  0  0  0  0  0
   -0.7725    0.3707    0.9577 N   0  0  0  0  0  0  0  0  0  0  0  0
   -2.0577   -0.2179    0.7351 C   0  0  0  0  0  0  0  0  0  0  0  0
   -2.6610    0.0399   -0.6040 C   0  0  2  0  0  0  0  0  0  0  0  0
   -2.8027    1.4262   -0.7514 O   0  0  0  0  0  0  0  0  0  0  0  0
   -4.0579   -0.5479   -0.6549 C   0  0  0  0  0  0  0  0  0  0  0  0
   -3.9853   -1.9142   -0.4345 F   0  0  0  0  0  0  0  0  0  0  0  0
    3.8109    1.4371    0.7394 H   0  0  0  0  0  0  0  0  0  0  0  0
    4.1871    1.5384   -1.0376 H   0  0  0  0  0  0  0  0  0  0  0  0
    4.7342    0.1131   -0.1316 H   0  0  0  0  0  0  0  0  0  0  0  0
    2.6337   -1.6315    0.4905 H   0  0  0  0  0  0  0  0  0  0  0  0
    3.9393   -1.4790   -0.7044 H   0  0  0  0  0  0  0  0  0  0  0  0
    2.2132   -1.7371   -1.2574 H   0  0  0  0  0  0  0  0  0  0  0  0
    2.0128    0.3972    1.4138 H   0  0  0  0  0  0  0  0  0  0  0  0
    1.5417    1.7414    0.3564 H   0  0  0  0  0  0  0  0  0  0  0  0
   -0.6644    1.0696    1.7420 H   0  0  0  0  0  0  0  0  0  0  0  0
   -2.0590   -1.3232    0.8966 H   0  0  0  0  0  0  0  0  0  0  0  0
   -2.7717    0.1613    1.5240 H   0  0  0  0  0  0  0  0  0  0  0  0
   -2.0671   -0.4148   -1.3891 H   0  0  0  0  0  0  0  0  0  0  0  0
   -3.4495    1.7621   -0.1036 H   0  0  0  0  0  0  0  0  0  0  0  0
   -4.7103   -0.0667    0.1136 H   0  0  0  0  0  0  0  0  0  0  0  0
   -4.4956   -0.3434   -1.6626 H   0  0  0  0  0  0  0  0  0  0  0  0
  1  2  1  0
  2  3  1  0
  2  4  1  0
  4  5  1  0
  5  6  2  0
  5  7  1  0
  7  8  1  0
  8  9  1  0
  9 10  1  0
  9 11  1  0
 11 12  1  0
  1 13  1  0
  1 14  1  0
  1 15  1  0
  3 16  1  0
  3 17  1  0
  3 18  1  0
  4 19  1  0
  4 20  1  0
  7 21  1  0
  8 22  1  0
  8 23  1  0
  9 24  1  6
 10 25  1  0
 11 26  1  0
 11 27  1  0
M  END
$$$$

     RDKit          3D

 27 26  0  0  0  0  0  0  0  0999 V2000
   -3.7230   -0.7096   -0.1936 C   0  0  0  0  0  0  0  0  0  0  0  0
   -2.2873   -0.4866   -0.4817 N   0  0  0  0  0  0  0  0  0  0  0  0
   -2.2306    0.9521   -0.8352 C   0  0  0  0  0  0  0  0  0  0  0  0
   -1.6154   -0.6455    0.7669 C   0  0  0  0  0  0  0  0  0  0  0  0
   -0.1324   -0.6864    0.6901 C   0  0  0  0  0  0  0  0  0  0  0  0
    0.5554   -0.8056    1.7257 O   0  0  0  0  0  0  0  0  0  0  0  0
    0.5757   -0.5932   -0.5480 N   0  0  0  0  0  0  0  0  0  0  0  0
    1.9549   -0.5898   -0.7852 C   0  0  0  0  0  0  0  0  0  0  0  0
    2.8579    0.4850   -0.4089 C   0  0  2  0  0  0  0  0  0  0  0  0
    4.1833    0.0722   -0.7023 O   0  0  0  0  0  0  0  0  0  0  0  0
    2.8299    1.0772    0.9401 C   0  0  0  0  0  0  0  0  0  0  0  0
    1.6875    1.7181    1.3180 F   0  0  0  0  0  0  0  0  0  0  0  0
   -4.3559    0.1047   -0.5514 H   0  0  0  0  0  0  0  0  0  0  0  0
   -3.8949   -0.8251    0.8924 H   0  0  0  0  0  0  0  0  0  0  0  0
   -3.9915   -1.6892   -0.6631 H   0  0  0  0  0  0  0  0  0  0  0  0
   -1.7435    1.0800   -1.8154 H   0  0  0  0  0  0  0  0  0  0  0  0
   -1.7168    1.5142   -0.0169 H   0  0  0  0  0  0  0  0  0  0  0  0
   -3.2624    1.3788   -0.9365 H   0  0  0  0  0  0  0  0  0  0  0  0
   -2.0619   -1.4556    1.3604 H   0  0  0  0  0  0  0  0  0  0  0  0
   -1.8443    0.2844    1.3597 H   0  0  0  0  0  0  0  0  0  0  0  0
   -0.0977   -0.5250   -1.3868 H   0  0  0  0  0  0  0  0  0  0  0  0
    2.0689   -0.7155   -1.9313 H   0  0  0  0  0  0  0  0  0  0  0  0
    2.4554   -1.5595   -0.4485 H   0  0  0  0  0  0  0  0  0  0  0  0
    2.7206    1.3858   -1.1622 H   0  0  0  0  0  0  0  0  0  0  0  0
    4.2768   -0.8098   -0.2342 H   0  0  0  0  0  0  0  0  0  0  0  0
    3.0797    0.2508    1.6790 H   0  0  0  0  0  0  0  0  0  0  0  0
    3.7117    1.7934    1.0665 H   0  0  0  0  0  0  0  0  0  0  0  0
  1  2  1  0
  2  3  1  0
  2  4  1  0
  4  5  1  0
  5  6  2  0
  5  7  1  0
  7  8  1  0
  8  9  1  0
  9 10  1  0
  9 11  1  0
 11 12  1  0
  1 13  1  0
  1 14  1  0
  1 15  1  0
  3 16  1  0
  3 17  1  0
  3 18  1  0
  4 19  1  0
  4 20  1  0
  7 21  1  0
  8 22  1  0
  8 23  1  0
  9 24  1  6
 10 25  1  0
 11 26  1  0
 11 27  1  0
M  END
$$$$

     RDKit          3D

 27 26  0  0  0  0  0  0  0  0999 V2000
   -3.2503   -0.9635   -0.9842 C   0  0  0  0  0  0  0  0  0  0  0  0
   -2.8745    0.3902   -0.6656 N   0  0  0  0  0  0  0  0  0  0  0  0
   -3.9687    1.1231   -0.0609 C   0  0  0  0  0  0  0  0  0  0  0  0
   -1.7343    0.4775    0.1965 C   0  0  0  0  0  0  0  0  0  0  0  0
   -0.4804    0.0558   -0.4578 C   0  0  0  0  0  0  0  0  0  0  0  0
   -0.4101   -0.3425   -1.6655 O   0  0  0  0  0  0  0  0  0  0  0  0
    0.7448    0.0771    0.2471 N   0  0  0  0  0  0  0  0  0  0  0  0
    1.9970   -0.3325   -0.3986 C   0  0  0  0  0  0  0  0  0  0  0  0
    3.1395   -0.2272    0.5628 C   0  0  2  0  0  0  0  0  0  0  0  0
    3.3141    1.0822    1.0178 O   0  0  0  0  0  0  0  0  0  0  0  0
    4.4143   -0.6916   -0.0828 C   0  0  0  0  0  0  0  0  0  0  0  0
    5.4700   -0.6043    0.8071 F   0  0  0  0  0  0  0  0  0  0  0  0
   -3.9433   -0.9713   -1.8579 H   0  0  0  0  0  0  0  0  0  0  0  0
   -3.7361   -1.4195   -0.0954 H   0  0  0  0  0  0  0  0  0  0  0  0
   -2.3454   -1.5575   -1.1909 H   0  0  0  0  0  0  0  0  0  0  0  0
   -4.3679    0.5703    0.8106 H   0  0  0  0  0  0  0  0  0  0  0  0
   -4.8017    1.2933   -0.7815 H   0  0  0  0  0  0  0  0  0  0  0  0
   -3.5352    2.1217    0.2281 H   0  0  0  0  0  0  0  0  0  0  0  0
   -1.9122   -0.1290    1.1182 H   0  0  0  0  0  0  0  0  0  0  0  0
   -1.6748    1.5406    0.5691 H   0  0  0  0  0  0  0  0  0  0  0  0
    0.7742    0.3873    1.2397 H   0  0  0  0  0  0  0  0  0  0  0  0
    1.9093   -1.3397   -0.8471 H   0  0  0  0  0  0  0  0  0  0  0  0
    2.2031    0.4325   -1.2114 H   0  0  0  0  0  0  0  0  0  0  0  0
    2.9694   -0.8837    1.4467 H   0  0  0  0  0  0  0  0  0  0  0  0
    3.1061    1.7115    0.2575 H   0  0  0  0  0  0  0  0  0  0  0  0
    4.3293   -1.7303   -0.4694 H   0  0  0  0  0  0  0  0  0  0  0  0
    4.6640   -0.0708   -0.9844 H   0  0  0  0  0  0  0  0  0  0  0  0
  1  2  1  0
  2  3  1  0
  2  4  1  0
  4  5  1  0
  5  6  2  0
  5  7  1  0
  7  8  1  0
  8  9  1  0
  9 10  1  0
  9 11  1  0
 11 12  1  0
  1 13  1  0
  1 14  1  0
  1 15  1  0
  3 16  1  0
  3 17  1  0
  3 18  1  0
  4 19  1  0
  4 20  1  0
  7 21  1  0
  8 22  1  0
  8 23  1  0
  9 24  1  1
 10 25  1  0
 11 26  1  0
 11 27  1  0
M  END
$$$$

     RDKit          3D

 27 26  0  0  0  0  0  0  0  0999 V2000
    3.3257   -1.0114    0.1516 C   0  0  0  0  0  0  0  0  0  0  0  0
    2.8519    0.2547   -0.3542 N   0  0  0  0  0  0  0  0  0  0  0  0
    3.7559    1.3117    0.0474 C   0  0  0  0  0  0  0  0  0  0  0  0
    1.5532    0.5287    0.1518 C   0  0  0  0  0  0  0  0  0  0  0  0
    0.4777   -0.3483   -0.3744 C   0  0  0  0  0  0  0  0  0  0  0  0
    0.6943   -1.2754   -1.2162 O   0  0  0  0  0  0  0  0  0  0  0  0
   -0.8561   -0.1574    0.0683 N   0  0  0  0  0  0  0  0  0  0  0  0
   -1.9747   -0.9432   -0.3854 C   0  0  0  0  0  0  0  0  0  0  0  0
   -3.2660   -0.5267    0.2536 C   0  0  2  0  0  0  0  0  0  0  0  0
   -4.2841   -1.3214   -0.2586 O   0  0  0  0  0  0  0  0  0  0  0  0
   -3.6295    0.9010    0.0929 C   0  0  0  0  0  0  0  0  0  0  0  0
   -3.7693    1.2962   -1.2167 F   0  0  0  0  0  0  0  0  0  0  0  0
    2.8808   -1.2165    1.1588 H   0  0  0  0  0  0  0  0  0  0  0  0
    2.9961   -1.8235   -0.5092 H   0  0  0  0  0  0  0  0  0  0  0  0
    4.4246   -1.0266    0.3259 H   0  0  0  0  0  0  0  0  0  0  0  0
    4.7386    1.2618   -0.5071 H   0  0  0  0  0  0  0  0  0  0  0  0
    4.0422    1.2703    1.1215 H   0  0  0  0  0  0  0  0  0  0  0  0
    3.2763    2.3075   -0.1423 H   0  0  0  0  0  0  0  0  0  0  0  0
    1.2398    1.5897   -0.0683 H   0  0  0  0  0  0  0  0  0  0  0  0
    1.5072    0.4559    1.2591 H   0  0  0  0  0  0  0  0  0  0  0  0
   -0.9817    0.6241    0.7828 H   0  0  0  0  0  0  0  0  0  0  0  0
   -1.8286   -2.0197   -0.1625 H   0  0  0  0  0  0  0  0  0  0  0  0
   -2.0472   -0.8687   -1.5038 H   0  0  0  0  0  0  0  0  0  0  0  0
   -3.2209   -0.7588    1.3427 H   0  0  0  0  0  0  0  0  0  0  0  0
   -4.3068   -1.1490   -1.2518 H   0  0  0  0  0  0  0  0  0  0  0  0
   -2.9664    1.6084    0.6225 H   0  0  0  0  0  0  0  0  0  0  0  0
   -4.6331    1.0366    0.5716 H   0  0  0  0  0  0  0  0  0  0  0  0
  1  2  1  0
  2  3  1  0
  2  4  1  0
  4  5  1  0
  5  6  2  0
  5  7  1  0
  7  8  1  0
  8  9  1  0
  9 10  1  0
  9 11  1  0
 11 12  1  0
  1 13  1  0
  1 14  1  0
  1 15  1  0
  3 16  1  0
  3 17  1  0
  3 18  1  0
  4 19  1  0
  4 20  1  0
  7 21  1  0
  8 22  1  0
  8 23  1  0
  9 24  1  1
 10 25  1  0
 11 26  1  0
 11 27  1  0
M  END
$$$$

     RDKit          3D

 27 26  0  0  0  0  0  0  0  0999 V2000
    2.7623   -0.7791    0.8296 C   0  0  0  0  0  0  0  0  0  0  0  0
    2.3916    0.4939    0.2724 N   0  0  0  0  0  0  0  0  0  0  0  0
    3.5818    1.2888    0.0969 C   0  0  0  0  0  0  0  0  0  0  0  0
    1.6915    0.3974   -0.9638 C   0  0  0  0  0  0  0  0  0  0  0  0
    0.3136   -0.0810   -0.8989 C   0  0  0  0  0  0  0  0  0  0  0  0
   -0.2929   -0.2600   -1.9890 O   0  0  0  0  0  0  0  0  0  0  0  0
   -0.3769   -0.3492    0.3008 N   0  0  0  0  0  0  0  0  0  0  0  0
   -1.7452   -0.8463    0.2815 C   0  0  0  0  0  0  0  0  0  0  0  0
   -2.6857    0.0966   -0.4294 C   0  0  2  0  0  0  0  0  0  0  0  0
   -2.7226    1.3497    0.1574 O   0  0  0  0  0  0  0  0  0  0  0  0
   -4.0827   -0.5013   -0.2495 C   0  0  0  0  0  0  0  0  0  0  0  0
   -4.3695   -0.5727    1.1026 F   0  0  0  0  0  0  0  0  0  0  0  0
    3.3653   -1.3578    0.0670 H   0  0  0  0  0  0  0  0  0  0  0  0
    3.5148   -0.5951    1.6495 H   0  0  0  0  0  0  0  0  0  0  0  0
    1.9910   -1.3920    1.2565 H   0  0  0  0  0  0  0  0  0  0  0  0
    4.0600    0.9621   -0.8467 H   0  0  0  0  0  0  0  0  0  0  0  0
    3.2597    2.3473   -0.0553 H   0  0  0  0  0  0  0  0  0  0  0  0
    4.2895    1.2070    0.9421 H   0  0  0  0  0  0  0  0  0  0  0  0
    2.2675   -0.2224   -1.6932 H   0  0  0  0  0  0  0  0  0  0  0  0
    1.6577    1.4477   -1.3901 H   0  0  0  0  0  0  0  0  0  0  0  0
    0.1035   -0.1691    1.2150 H   0  0  0  0  0  0  0  0  0  0  0  0
   -1.8391   -1.8441   -0.1752 H   0  0  0  0  0  0  0  0  0  0  0  0
   -2.1159   -0.9166    1.3445 H   0  0  0  0  0  0  0  0  0  0  0  0
   -2.5191    0.1921   -1.4997 H   0  0  0  0  0  0  0  0  0  0  0  0
   -3.5694    1.5069    0.6353 H   0  0  0  0  0  0  0  0  0  0  0  0
   -4.1185   -1.5544   -0.6300 H   0  0  0  0  0  0  0  0  0  0  0  0
   -4.8124    0.1516   -0.7242 H   0  0  0  0  0  0  0  0  0  0  0  0
  1  2  1  0
  2  3  1  0
  2  4  1  0
  4  5  1  0
  5  6  2  0
  5  7  1  0
  7  8  1  0
  8  9  1  0
  9 10  1  0
  9 11  1  0
 11 12  1  0
  1 13  1  0
  1 14  1  0
  1 15  1  0
  3 16  1  0
  3 17  1  0
  3 18  1  0
  4 19  1  0
  4 20  1  0
  7 21  1  0
  8 22  1  0
  8 23  1  0
  9 24  1  6
 10 25  1  0
 11 26  1  0
 11 27  1  0
M  END
$$$$

     RDKit          3D

 27 26  0  0  0  0  0  0  0  0999 V2000
    3.8410   -0.0335   -0.1941 C   0  0  0  0  0  0  0  0  0  0  0  0
    2.4962    0.2166   -0.7451 N   0  0  0  0  0  0  0  0  0  0  0  0
    2.1899   -1.0111   -1.4901 C   0  0  0  0  0  0  0  0  0  0  0  0
    1.6297    0.3832    0.3703 C   0  0  0  0  0  0  0  0  0  0  0  0
    0.2305    0.6849    0.0330 C   0  0  0  0  0  0  0  0  0  0  0  0
   -0.1446    0.7878   -1.1591 O   0  0  0  0  0  0  0  0  0  0  0  0
   -0.7791    0.8787    1.0325 N   0  0  0  0  0  0  0  0  0  0  0  0
   -2.1430    1.1738    0.7387 C   0  0  0  0  0  0  0  0  0  0  0  0
   -2.8392    0.1378   -0.0792 C   0  0  2  0  0  0  0  0  0  0  0  0
   -4.1569    0.5316   -0.2975 O   0  0  0  0  0  0  0  0  0  0  0  0
   -2.8545   -1.2180    0.5700 C   0  0  0  0  0  0  0  0  0  0  0  0
   -1.5617   -1.6798    0.7851 F   0  0  0  0  0  0  0  0  0  0  0  0
    4.6066    0.5306   -0.7541 H   0  0  0  0  0  0  0  0  0  0  0  0
    4.1067   -1.0955   -0.1815 H   0  0  0  0  0  0  0  0  0  0  0  0
    3.9015    0.3157    0.8672 H   0  0  0  0  0  0  0  0  0  0  0  0
    2.8927   -1.0034   -2.3636 H   0  0  0  0  0  0  0  0  0  0  0  0
    1.1454   -1.0325   -1.7883 H   0  0  0  0  0  0  0  0  0  0  0  0
    2.4442   -1.8691   -0.8032 H   0  0  0  0  0  0  0  0  0  0  0  0
    2.0149    1.2729    0.9504 H   0  0  0  0  0  0  0  0  0  0  0  0
    1.7510   -0.4820    1.0438 H   0  0  0  0  0  0  0  0  0  0  0  0
   -0.4298    0.7848    2.0251 H   0  0  0  0  0  0  0  0  0  0  0  0
   -2.6958    1.2522    1.7061 H   0  0  0  0  0  0  0  0  0  0  0  0
   -2.2887    2.1618    0.2337 H   0  0  0  0  0  0  0  0  0  0  0  0
   -2.3882    0.0126   -1.0934 H   0  0  0  0  0  0  0  0  0  0  0  0
   -4.2427    1.4547   -0.6361 H   0  0  0  0  0  0  0  0  0  0  0  0
   -3.3694   -1.9805   -0.0429 H   0  0  0  0  0  0  0  0  0  0  0  0
   -3.3566   -1.1743    1.5697 H   0  0  0  0  0  0  0  0  0  0  0  0
  1  2  1  0
  2  3  1  0
  2  4  1  0
  4  5  1  0
  5  6  2  0
  5  7  1  0
  7  8  1  0
  8  9  1  0
  9 10  1  0
  9 11  1  0
 11 12  1  0
  1 13  1  0
  1 14  1  0
  1 15  1  0
  3 16  1  0
  3 17  1  0
  3 18  1  0
  4 19  1  0
  4 20  1  0
  7 21  1  0
  8 22  1  0
  8 23  1  0
  9 24  1  6
 10 25  1  0
 11 26  1  0
 11 27  1  0
M  END
$$$$
