
     RDKit          3D

 23 24  0  0  0  0  0  0  0  0999 V2000
   -1.1094   -0.5917   -1.8249 N   0  0  0  0  0  0  0  0  0  0  0  0
   -1.5856   -0.1674   -0.5428 C   0  0  2  0  0  0  0  0  0  0  0  0
   -2.1297    1.2377   -0.5419 C   0  0  0  0  0  0  0  0  0  0  0  0
   -2.1283    1.5413    0.8175 O   0  0  0  0  0  0  0  0  0  0  0  0
   -0.7859    1.2237    1.1491 C   0  0  0  0  0  0  0  0  0  0  0  0
   -0.6069   -0.1837    0.5541 C   0  0  2  0  0  0  0  0  0  0  0  0
    0.7609   -0.3990    0.2317 N   0  0  0  0  0  0  0  0  0  0  0  0
    1.6763   -1.3284    0.8020 C   0  0  0  0  0  0  0  0  0  0  0  0
    1.4716   -2.1652    1.7205 O   0  0  0  0  0  0  0  0  0  0  0  0
    2.9825   -1.1978    0.1571 C   0  0  0  0  0  0  0  0  0  0  0  0
    2.8525   -0.2505   -0.7403 C   0  0  0  0  0  0  0  0  0  0  0  0
    1.4916    0.3009   -0.7568 C   0  0  0  0  0  0  0  0  0  0  0  0
    1.1595    1.2201   -1.5465 O   0  0  0  0  0  0  0  0  0  0  0  0
   -1.9617   -0.6765   -2.4554 H   0  0  0  0  0  0  0  0  0  0  0  0
   -0.7646   -1.5730   -1.7205 H   0  0  0  0  0  0  0  0  0  0  0  0
   -2.4655   -0.8212   -0.2679 H   0  0  0  0  0  0  0  0  0  0  0  0
   -3.1543    1.2897   -0.9699 H   0  0  0  0  0  0  0  0  0  0  0  0
   -1.4355    1.9189   -1.0598 H   0  0  0  0  0  0  0  0  0  0  0  0
   -0.6887    1.2308    2.2331 H   0  0  0  0  0  0  0  0  0  0  0  0
   -0.1732    1.9690    0.6124 H   0  0  0  0  0  0  0  0  0  0  0  0
   -0.9628   -0.8664    1.3766 H   0  0  0  0  0  0  0  0  0  0  0  0
    3.8810   -1.7769    0.3833 H   0  0  0  0  0  0  0  0  0  0  0  0
    3.6763    0.0656   -1.3811 H   0  0  0  0  0  0  0  0  0  0  0  0
  1  2  1  0
  2  3  1  0
  3  4  1  0
  4  5  1  0
  5  6  1  0
  6  7  1  0
  7  8  1  0
  8  9  2  0
  8 10  1  0
 10 11  2  0
 11 12  1  0
 12 13  2  0
  6  2  1  0
 12  7  1  0
  1 14  1  0
  1 15  1  0
  2 16  1  1
  3 17  1  0
  3 18  1  0
  5 19  1  0
  5 20  1  0
  6 21  1  1
 10 22  1  0
 11 23  1  0
M  END
$$$$

     RDKit          3D

 23 24  0  0  0  0  0  0  0  0999 V2000
   -0.4563    1.3010    1.1648 N   0  0  0  0  0  0  0  0  0  0  0  0
   -1.3012    0.9279    0.0721 C   0  0  2  0  0  0  0  0  0  0  0  0
   -2.5659    0.2316    0.4955 C   0  0  0  0  0  0  0  0  0  0  0  0
   -2.6755   -0.8991   -0.3137 O   0  0  0  0  0  0  0  0  0  0  0  0
   -1.3752   -1.3567   -0.4949 C   0  0  0  0  0  0  0  0  0  0  0  0
   -0.6134   -0.1193   -0.7964 C   0  0  2  0  0  0  0  0  0  0  0  0
    0.7832   -0.2040   -0.4643 N   0  0  0  0  0  0  0  0  0  0  0  0
    1.4436   -0.5449    0.7548 C   0  0  0  0  0  0  0  0  0  0  0  0
    0.8752   -0.8641    1.8316 O   0  0  0  0  0  0  0  0  0  0  0  0
    2.8831   -0.4707    0.5709 C   0  0  0  0  0  0  0  0  0  0  0  0
    3.1137   -0.1093   -0.6748 C   0  0  0  0  0  0  0  0  0  0  0  0
    1.8348    0.0741   -1.3784 C   0  0  0  0  0  0  0  0  0  0  0  0
    1.7003    0.4175   -2.5807 O   0  0  0  0  0  0  0  0  0  0  0  0
    0.1448    2.1120    0.9905 H   0  0  0  0  0  0  0  0  0  0  0  0
   -0.9485    1.3293    2.0846 H   0  0  0  0  0  0  0  0  0  0  0  0
   -1.5628    1.8284   -0.5465 H   0  0  0  0  0  0  0  0  0  0  0  0
   -2.4371   -0.1339    1.5426 H   0  0  0  0  0  0  0  0  0  0  0  0
   -3.4376    0.9060    0.3848 H   0  0  0  0  0  0  0  0  0  0  0  0
   -1.4001   -2.0884   -1.3287 H   0  0  0  0  0  0  0  0  0  0  0  0
   -0.9799   -1.8700    0.4236 H   0  0  0  0  0  0  0  0  0  0  0  0
   -0.7193    0.1565   -1.8741 H   0  0  0  0  0  0  0  0  0  0  0  0
    3.6305   -0.6714    1.3078 H   0  0  0  0  0  0  0  0  0  0  0  0
    4.0635    0.0474   -1.1711 H   0  0  0  0  0  0  0  0  0  0  0  0
  1  2  1  0
  2  3  1  0
  3  4  1  0
  4  5  1  0
  5  6  1  0
  6  7  1  0
  7  8  1  0
  8  9  2  0
  8 10  1  0
 10 11  2  0
 11 12  1  0
 12 13  2  0
  6  2  1  0
 12  7  1  0
  1 14  1  0
  1 15  1  0
  2 16  1  6
  3 17  1  0
  3 18  1  0
  5 19  1  0
  5 20  1  0
  6 21  1  6
 10 22  1  0
 11 23  1  0
M  END
$$$$

     RDKit          3D

 23 24  0  0  0  0  0  0  0  0999 V2000
   -1.1474   -1.1693   -1.1995 N   0  0  0  0  0  0  0  0  0  0  0  0
   -1.6199   -0.3364   -0.1092 C   0  0  2  0  0  0  0  0  0  0  0  0
   -2.0742    0.9842   -0.6125 C   0  0  0  0  0  0  0  0  0  0  0  0
   -1.3442    1.9877    0.0049 O   0  0  0  0  0  0  0  0  0  0  0  0
   -0.8204    1.4453    1.1734 C   0  0  0  0  0  0  0  0  0  0  0  0
   -0.5476   -0.0093    0.8775 C   0  0  2  0  0  0  0  0  0  0  0  0
    0.8009   -0.1978    0.3407 N   0  0  0  0  0  0  0  0  0  0  0  0
    1.3532    0.3952   -0.8233 C   0  0  0  0  0  0  0  0  0  0  0  0
    0.7995    1.1867   -1.6079 O   0  0  0  0  0  0  0  0  0  0  0  0
    2.7403   -0.0660   -1.0003 C   0  0  0  0  0  0  0  0  0  0  0  0
    3.0049   -0.8880   -0.0005 C   0  0  0  0  0  0  0  0  0  0  0  0
    1.8438   -1.0167    0.8725 C   0  0  0  0  0  0  0  0  0  0  0  0
    1.7953   -1.7292    1.9047 O   0  0  0  0  0  0  0  0  0  0  0  0
   -2.0095   -1.6258   -1.6042 H   0  0  0  0  0  0  0  0  0  0  0  0
   -0.5209   -1.9359   -0.8773 H   0  0  0  0  0  0  0  0  0  0  0  0
   -2.4336   -0.8934    0.4398 H   0  0  0  0  0  0  0  0  0  0  0  0
   -3.1679    1.0906   -0.4092 H   0  0  0  0  0  0  0  0  0  0  0  0
   -1.9363    1.0207   -1.7119 H   0  0  0  0  0  0  0  0  0  0  0  0
    0.1196    1.9609    1.4510 H   0  0  0  0  0  0  0  0  0  0  0  0
   -1.5297    1.5580    2.0378 H   0  0  0  0  0  0  0  0  0  0  0  0
   -0.6769   -0.6142    1.8104 H   0  0  0  0  0  0  0  0  0  0  0  0
    3.4040    0.2254   -1.8060 H   0  0  0  0  0  0  0  0  0  0  0  0
    3.9671   -1.3727    0.1089 H   0  0  0  0  0  0  0  0  0  0  0  0
  1  2  1  0
  2  3  1  0
  3  4  1  0
  4  5  1  0
  5  6  1  0
  6  7  1  0
  7  8  1  0
  8  9  2  0
  8 10  1  0
 10 11  2  0
 11 12  1  0
 12 13  2  0
  6  2  1  0
 12  7  1  0
  1 14  1  0
  1 15  1  0
  2 16  1  1
  3 17  1  0
  3 18  1  0
  5 19  1  0
  5 20  1  0
  6 21  1  1
 10 22  1  0
 11 23  1  0
M  END
$$$$

     RDKit          3D

 23 24  0  0  0  0  0  0  0  0999 V2000
   -1.4390   -0.4059    1.4513 N   0  0  0  0  0  0  0  0  0  0  0  0
   -1.3910    0.5645    0.4061 C   0  0  2  0  0  0  0  0  0  0  0  0
   -2.5982    0.3487   -0.4884 C   0  0  0  0  0  0  0  0  0  0  0  0
   -2.3101   -0.8937   -1.0459 O   0  0  0  0  0  0  0  0  0  0  0  0
   -0.9444   -0.9042   -1.3259 C   0  0  0  0  0  0  0  0  0  0  0  0
   -0.3204    0.2593   -0.6523 C   0  0  2  0  0  0  0  0  0  0  0  0
    0.9753    0.1133   -0.1482 N   0  0  0  0  0  0  0  0  0  0  0  0
    2.0790    0.9724   -0.4820 C   0  0  0  0  0  0  0  0  0  0  0  0
    2.0323    1.9726   -1.2693 O   0  0  0  0  0  0  0  0  0  0  0  0
    3.2733    0.5239    0.2223 C   0  0  0  0  0  0  0  0  0  0  0  0
    2.9335   -0.5310    0.9362 C   0  0  0  0  0  0  0  0  0  0  0  0
    1.5279   -0.8328    0.7487 C   0  0  0  0  0  0  0  0  0  0  0  0
    0.8537   -1.7601    1.2634 O   0  0  0  0  0  0  0  0  0  0  0  0
   -2.4226   -0.7134    1.5849 H   0  0  0  0  0  0  0  0  0  0  0  0
   -1.0261   -0.0793    2.3527 H   0  0  0  0  0  0  0  0  0  0  0  0
   -1.3153    1.6075    0.7596 H   0  0  0  0  0  0  0  0  0  0  0  0
   -2.5311    1.1046   -1.2931 H   0  0  0  0  0  0  0  0  0  0  0  0
   -3.5343    0.3456    0.0549 H   0  0  0  0  0  0  0  0  0  0  0  0
   -0.5612   -1.8872   -1.0172 H   0  0  0  0  0  0  0  0  0  0  0  0
   -0.7864   -0.8432   -2.4309 H   0  0  0  0  0  0  0  0  0  0  0  0
   -0.3897    1.1362   -1.3607 H   0  0  0  0  0  0  0  0  0  0  0  0
    4.2520    0.9699    0.1705 H   0  0  0  0  0  0  0  0  0  0  0  0
    3.6427   -1.0677    1.5635 H   0  0  0  0  0  0  0  0  0  0  0  0
  1  2  1  0
  2  3  1  0
  3  4  1  0
  4  5  1  0
  5  6  1  0
  6  7  1  0
  7  8  1  0
  8  9  2  0
  8 10  1  0
 10 11  2  0
 11 12  1  0
 12 13  2  0
  6  2  1  0
 12  7  1  0
  1 14  1  0
  1 15  1  0
  2 16  1  1
  3 17  1  0
  3 18  1  0
  5 19  1  0
  5 20  1  0
  6 21  1  6
 10 22  1  0
 11 23  1  0
M  END
$$$$

     RDKit          3D

 23 24  0  0  0  0  0  0  0  0999 V2000
   -1.3998   -0.0789    1.4578 N   0  0  0  0  0  0  0  0  0  0  0  0
   -1.4130    0.6186    0.2157 C   0  0  2  0  0  0  0  0  0  0  0  0
   -2.6121    0.0713   -0.5754 C   0  0  0  0  0  0  0  0  0  0  0  0
   -2.2375   -1.2085   -0.9004 O   0  0  0  0  0  0  0  0  0  0  0  0
   -0.8540   -1.2771   -0.9629 C   0  0  0  0  0  0  0  0  0  0  0  0
   -0.3053    0.0749   -0.7001 C   0  0  2  0  0  0  0  0  0  0  0  0
    0.9910    0.1512   -0.1503 N   0  0  0  0  0  0  0  0  0  0  0  0
    1.5671   -0.4118    0.9924 C   0  0  0  0  0  0  0  0  0  0  0  0
    1.0112   -1.1473    1.8100 O   0  0  0  0  0  0  0  0  0  0  0  0
    2.9618    0.0173    1.0671 C   0  0  0  0  0  0  0  0  0  0  0  0
    3.2431    0.7935    0.0461 C   0  0  0  0  0  0  0  0  0  0  0  0
    2.0515    0.9207   -0.7595 C   0  0  0  0  0  0  0  0  0  0  0  0
    1.9708    1.6021   -1.8247 O   0  0  0  0  0  0  0  0  0  0  0  0
   -1.8527    0.4459    2.2239 H   0  0  0  0  0  0  0  0  0  0  0  0
   -1.8778   -1.0036    1.3775 H   0  0  0  0  0  0  0  0  0  0  0  0
   -1.4154    1.6985    0.2715 H   0  0  0  0  0  0  0  0  0  0  0  0
   -3.5219    0.1231    0.0435 H   0  0  0  0  0  0  0  0  0  0  0  0
   -2.6637    0.6616   -1.5060 H   0  0  0  0  0  0  0  0  0  0  0  0
   -0.5549   -2.0342   -0.1963 H   0  0  0  0  0  0  0  0  0  0  0  0
   -0.5761   -1.6988   -1.9539 H   0  0  0  0  0  0  0  0  0  0  0  0
   -0.4075    0.6675   -1.6561 H   0  0  0  0  0  0  0  0  0  0  0  0
    3.6835   -0.2465    1.8356 H   0  0  0  0  0  0  0  0  0  0  0  0
    4.2116    1.2603   -0.1557 H   0  0  0  0  0  0  0  0  0  0  0  0
  1  2  1  0
  2  3  1  0
  3  4  1  0
  4  5  1  0
  5  6  1  0
  6  7  1  0
  7  8  1  0
  8  9  2  0
  8 10  1  0
 10 11  2  0
 11 12  1  0
 12 13  2  0
  6  2  1  0
 12  7  1  0
  1 14  1  0
  1 15  1  0
  2 16  1  1
  3 17  1  0
  3 18  1  0
  5 19  1  0
  5 20  1  0
  6 21  1  6
 10 22  1  0
 11 23  1  0
M  END
$$$$

     RDKit          3D

 23 24  0  0  0  0  0  0  0  0999 V2000
   -1.3427    1.3470    0.6371 N   0  0  0  0  0  0  0  0  0  0  0  0
   -1.5438    0.3414   -0.3743 C   0  0  2  0  0  0  0  0  0  0  0  0
   -2.2941   -0.8539    0.1665 C   0  0  0  0  0  0  0  0  0  0  0  0
   -1.9776   -1.8314   -0.7738 O   0  0  0  0  0  0  0  0  0  0  0  0
   -0.5619   -1.7419   -0.7150 C   0  0  0  0  0  0  0  0  0  0  0  0
   -0.3020   -0.2418   -0.9236 C   0  0  2  0  0  0  0  0  0  0  0  0
    0.9242    0.1688   -0.3033 N   0  0  0  0  0  0  0  0  0  0  0  0
    2.0393    0.7269   -0.9580 C   0  0  0  0  0  0  0  0  0  0  0  0
    2.2259    0.9883   -2.1759 O   0  0  0  0  0  0  0  0  0  0  0  0
    3.0332    0.9793    0.0749 C   0  0  0  0  0  0  0  0  0  0  0  0
    2.5882    0.6157    1.2661 C   0  0  0  0  0  0  0  0  0  0  0  0
    1.2329    0.0873    1.0727 C   0  0  0  0  0  0  0  0  0  0  0  0
    0.5524   -0.3393    2.0397 O   0  0  0  0  0  0  0  0  0  0  0  0
   -1.7943    0.9970    1.5205 H   0  0  0  0  0  0  0  0  0  0  0  0
   -1.8358    2.2004    0.3561 H   0  0  0  0  0  0  0  0  0  0  0  0
   -2.1719    0.7482   -1.2001 H   0  0  0  0  0  0  0  0  0  0  0  0
   -1.8721   -1.1962    1.1237 H   0  0  0  0  0  0  0  0  0  0  0  0
   -3.3867   -0.6678    0.2212 H   0  0  0  0  0  0  0  0  0  0  0  0
   -0.3016   -2.0462    0.3184 H   0  0  0  0  0  0  0  0  0  0  0  0
   -0.0766   -2.3148   -1.5020 H   0  0  0  0  0  0  0  0  0  0  0  0
   -0.2620   -0.0577   -2.0295 H   0  0  0  0  0  0  0  0  0  0  0  0
    4.0154    1.4051   -0.0678 H   0  0  0  0  0  0  0  0  0  0  0  0
    3.1114    0.6855    2.2262 H   0  0  0  0  0  0  0  0  0  0  0  0
  1  2  1  0
  2  3  1  0
  3  4  1  0
  4  5  1  0
  5  6  1  0
  6  7  1  0
  7  8  1  0
  8  9  2  0
  8 10  1  0
 10 11  2  0
 11 12  1  0
 12 13  2  0
  6  2  1  0
 12  7  1  0
  1 14  1  0
  1 15  1  0
  2 16  1  6
  3 17  1  0
  3 18  1  0
  5 19  1  0
  5 20  1  0
  6 21  1  6
 10 22  1  0
 11 23  1  0
M  END
$$$$

     RDKit          3D

 23 24  0  0  0  0  0  0  0  0999 V2000
   -1.2685    1.6765   -0.8877 N   0  0  0  0  0  0  0  0  0  0  0  0
   -1.5276    0.3027   -0.6438 C   0  0  2  0  0  0  0  0  0  0  0  0
   -2.2181    0.1805    0.7105 C   0  0  0  0  0  0  0  0  0  0  0  0
   -1.4473   -0.6371    1.4943 O   0  0  0  0  0  0  0  0  0  0  0  0
   -0.8849   -1.5450    0.6018 C   0  0  0  0  0  0  0  0  0  0  0  0
   -0.4365   -0.6416   -0.5709 C   0  0  2  0  0  0  0  0  0  0  0  0
    0.8768   -0.2604   -0.2980 N   0  0  0  0  0  0  0  0  0  0  0  0
    2.0058   -0.7052   -1.0467 C   0  0  0  0  0  0  0  0  0  0  0  0
    2.0567   -1.4779   -2.0383 O   0  0  0  0  0  0  0  0  0  0  0  0
    3.1955   -0.0966   -0.4643 C   0  0  0  0  0  0  0  0  0  0  0  0
    2.8752    0.6762    0.5710 C   0  0  0  0  0  0  0  0  0  0  0  0
    1.4448    0.5964    0.7007 C   0  0  0  0  0  0  0  0  0  0  0  0
    0.7461    1.1694    1.5429 O   0  0  0  0  0  0  0  0  0  0  0  0
   -1.8268    2.0905   -1.6756 H   0  0  0  0  0  0  0  0  0  0  0  0
   -1.4706    2.2737   -0.0540 H   0  0  0  0  0  0  0  0  0  0  0  0
   -2.2830   -0.0181   -1.3949 H   0  0  0  0  0  0  0  0  0  0  0  0
   -3.2577   -0.1559    0.6311 H   0  0  0  0  0  0  0  0  0  0  0  0
   -2.2636    1.1833    1.2282 H   0  0  0  0  0  0  0  0  0  0  0  0
   -0.0356   -2.0184    1.0911 H   0  0  0  0  0  0  0  0  0  0  0  0
   -1.6087   -2.2925    0.2755 H   0  0  0  0  0  0  0  0  0  0  0  0
   -0.4668   -1.3299   -1.4421 H   0  0  0  0  0  0  0  0  0  0  0  0
    4.2198   -0.2208   -0.7880 H   0  0  0  0  0  0  0  0  0  0  0  0
    3.5750    1.2501    1.1883 H   0  0  0  0  0  0  0  0  0  0  0  0
  1  2  1  0
  2  3  1  0
  3  4  1  0
  4  5  1  0
  5  6  1  0
  6  7  1  0
  7  8  1  0
  8  9  2  0
  8 10  1  0
 10 11  2  0
 11 12  1  0
 12 13  2  0
  6  2  1  0
 12  7  1  0
  1 14  1  0
  1 15  1  0
  2 16  1  6
  3 17  1  0
  3 18  1  0
  5 19  1  0
  5 20  1  0
  6 21  1  6
 10 22  1  0
 11 23  1  0
M  END
$$$$

     RDKit          3D

 23 24  0  0  0  0  0  0  0  0999 V2000
   -1.3257    1.5501   -0.4669 N   0  0  0  0  0  0  0  0  0  0  0  0
   -1.2710    0.1885   -0.9271 C   0  0  2  0  0  0  0  0  0  0  0  0
   -2.5919   -0.4611   -0.4777 C   0  0  0  0  0  0  0  0  0  0  0  0
   -2.4254   -0.4546    0.9018 O   0  0  0  0  0  0  0  0  0  0  0  0
   -1.1087   -0.7998    1.1673 C   0  0  0  0  0  0  0  0  0  0  0  0
   -0.3445   -0.6903   -0.1111 C   0  0  2  0  0  0  0  0  0  0  0  0
    0.9818   -0.2394   -0.0100 N   0  0  0  0  0  0  0  0  0  0  0  0
    2.1293   -0.9419   -0.4748 C   0  0  0  0  0  0  0  0  0  0  0  0
    2.1330   -2.0817   -1.0526 O   0  0  0  0  0  0  0  0  0  0  0  0
    3.3169   -0.1602   -0.1913 C   0  0  0  0  0  0  0  0  0  0  0  0
    2.9267    0.9426    0.4044 C   0  0  0  0  0  0  0  0  0  0  0  0
    1.4673    0.9652    0.5543 C   0  0  0  0  0  0  0  0  0  0  0  0
    0.8139    1.9040    1.0920 O   0  0  0  0  0  0  0  0  0  0  0  0
   -2.2427    1.8229   -0.0603 H   0  0  0  0  0  0  0  0  0  0  0  0
   -1.0978    2.1902   -1.2464 H   0  0  0  0  0  0  0  0  0  0  0  0
   -1.1207    0.0941   -2.0081 H   0  0  0  0  0  0  0  0  0  0  0  0
   -3.4578    0.1157   -0.7762 H   0  0  0  0  0  0  0  0  0  0  0  0
   -2.5870   -1.5108   -0.8179 H   0  0  0  0  0  0  0  0  0  0  0  0
   -1.0764   -1.8234    1.5628 H   0  0  0  0  0  0  0  0  0  0  0  0
   -0.6624   -0.1464    1.9575 H   0  0  0  0  0  0  0  0  0  0  0  0
   -0.4022   -1.6978   -0.6117 H   0  0  0  0  0  0  0  0  0  0  0  0
    4.3239   -0.4845   -0.4511 H   0  0  0  0  0  0  0  0  0  0  0  0
    3.6215    1.7185    0.7316 H   0  0  0  0  0  0  0  0  0  0  0  0
  1  2  1  0
  2  3  1  0
  3  4  1  0
  4  5  1  0
  5  6  1  0
  6  7  1  0
  7  8  1  0
  8  9  2  0
  8 10  1  0
 10 11  2  0
 11 12  1  0
 12 13  2  0
  6  2  1  0
 12  7  1  0
  1 14  1  0
  1 15  1  0
  2 16  1  6
  3 17  1  0
  3 18  1  0
  5 19  1  0
  5 20  1  0
  6 21  1  6
 10 22  1  0
 11 23  1  0
M  END
$$$$
