
     RDKit          3D

 33 32  0  0  0  0  0  0  0  0999 V2000
    0.1056   -2.6294    0.4766 C   0  0  0  0  0  0  0  0  0  0  0  0
   -0.2428   -1.2019    0.5167 N   0  0  0  0  0  0  0  0  0  0  0  0
    0.7576   -0.4957   -0.1613 C   0  0  0  0  0  0  0  0  0  0  0  0
    2.0554   -0.6400    0.6829 C   0  0  0  0  0  0  0  0  0  0  0  0
    3.1769    0.0913   -0.0017 C   0  0  0  0  0  0  0  0  0  0  0  0
    2.8245    1.4481   -0.1117 O   0  0  0  0  0  0  0  0  0  0  0  0
    3.8576    2.0712   -0.7241 N   0  0  0  0  0  0  0  0  0  0  0  0
   -1.5938   -1.1242    0.1760 C   0  0  0  0  0  0  0  0  0  0  0  0
   -2.2857    0.1567   -0.0172 C   0  0  0  0  0  0  0  0  0  0  0  0
   -2.2732    1.1184    1.1074 C   0  0  0  0  0  0  0  0  0  0  0  0
   -2.9991    2.2665    0.6963 O   0  0  0  0  0  0  0  0  0  0  0  0
   -2.1175    0.7113   -1.3897 C   0  0  0  0  0  0  0  0  0  0  0  0
   -2.7854    1.9339   -1.5593 O   0  0  0  0  0  0  0  0  0  0  0  0
   -0.7648   -3.2747    0.2243 H   0  0  0  0  0  0  0  0  0  0  0  0
    0.8540   -2.8082   -0.3249 H   0  0  0  0  0  0  0  0  0  0  0  0
    0.5819   -2.9401    1.4367 H   0  0  0  0  0  0  0  0  0  0  0  0
    0.9218   -0.8660   -1.1922 H   0  0  0  0  0  0  0  0  0  0  0  0
    0.5805    0.6029   -0.2384 H   0  0  0  0  0  0  0  0  0  0  0  0
    2.2959   -1.7013    0.7923 H   0  0  0  0  0  0  0  0  0  0  0  0
    1.8172   -0.2271    1.6797 H   0  0  0  0  0  0  0  0  0  0  0  0
    3.4130   -0.3479   -0.9830 H   0  0  0  0  0  0  0  0  0  0  0  0
    4.0676    0.0729    0.6762 H   0  0  0  0  0  0  0  0  0  0  0  0
    4.2623    1.4647   -1.4531 H   0  0  0  0  0  0  0  0  0  0  0  0
    4.5976    2.2899   -0.0188 H   0  0  0  0  0  0  0  0  0  0  0  0
   -1.7273   -1.7656   -0.7643 H   0  0  0  0  0  0  0  0  0  0  0  0
   -2.1542   -1.7868    0.9289 H   0  0  0  0  0  0  0  0  0  0  0  0
   -3.4300   -0.1718   -0.0372 H   0  0  0  0  0  0  0  0  0  0  0  0
   -1.2648    1.5133    1.3694 H   0  0  0  0  0  0  0  0  0  0  0  0
   -2.8121    0.7128    1.9680 H   0  0  0  0  0  0  0  0  0  0  0  0
   -3.9515    1.9945    0.7395 H   0  0  0  0  0  0  0  0  0  0  0  0
   -1.0886    0.8649   -1.7338 H   0  0  0  0  0  0  0  0  0  0  0  0
   -2.5696    0.0275   -2.1701 H   0  0  0  0  0  0  0  0  0  0  0  0
   -2.1091    2.6401   -1.6966 H   0  0  0  0  0  0  0  0  0  0  0  0
  1  2  1  0
  2  3  1  0
  3  4  1  0
  4  5  1  0
  5  6  1  0
  6  7  1  0
  2  8  1  0
  8  9  1  0
  9 10  1  0
 10 11  1  0
  9 12  1  0
 12 13  1  0
  1 14  1  0
  1 15  1  0
  1 16  1  0
  3 17  1  0
  3 18  1  0
  4 19  1  0
  4 20  1  0
  5 21  1  0
  5 22  1  0
  7 23  1  0
  7 24  1  0
  8 25  1  0
  8 26  1  0
  9 27  1  0
 10 28  1  0
 10 29  1  0
 11 30  1  0
 12 31  1  0
 12 32  1  0
 13 33  1  0
M  END
$$$$

     RDKit          3D

 33 32  0  0  0  0  0  0  0  0999 V2000
    0.3514   -1.2172    0.5509 C   0  0  0  0  0  0  0  0  0  0  0  0
    0.0219   -0.2223   -0.4186 N   0  0  0  0  0  0  0  0  0  0  0  0
    1.0784    0.1164   -1.3250 C   0  0  0  0  0  0  0  0  0  0  0  0
    2.2293    0.8723   -0.8001 C   0  0  0  0  0  0  0  0  0  0  0  0
    3.0295    0.2666    0.2972 C   0  0  0  0  0  0  0  0  0  0  0  0
    4.1145    1.1233    0.6563 O   0  0  0  0  0  0  0  0  0  0  0  0
    4.8272    0.5294    1.6583 N   0  0  0  0  0  0  0  0  0  0  0  0
   -1.1695   -0.4270   -1.1600 C   0  0  0  0  0  0  0  0  0  0  0  0
   -2.4641   -0.3096   -0.4633 C   0  0  0  0  0  0  0  0  0  0  0  0
   -2.7003    1.0674    0.1424 C   0  0  0  0  0  0  0  0  0  0  0  0
   -2.6918    2.0732   -0.8182 O   0  0  0  0  0  0  0  0  0  0  0  0
   -2.7701   -1.2996    0.6057 C   0  0  0  0  0  0  0  0  0  0  0  0
   -4.0685   -0.9512    1.0753 O   0  0  0  0  0  0  0  0  0  0  0  0
   -0.2980   -2.1306    0.4639 H   0  0  0  0  0  0  0  0  0  0  0  0
    0.3157   -0.7685    1.5554 H   0  0  0  0  0  0  0  0  0  0  0  0
    1.3846   -1.6610    0.3966 H   0  0  0  0  0  0  0  0  0  0  0  0
    1.3994   -0.7976   -1.9254 H   0  0  0  0  0  0  0  0  0  0  0  0
    0.5867    0.7460   -2.1337 H   0  0  0  0  0  0  0  0  0  0  0  0
    2.9562    1.0706   -1.6478 H   0  0  0  0  0  0  0  0  0  0  0  0
    1.8549    1.8815   -0.4810 H   0  0  0  0  0  0  0  0  0  0  0  0
    3.5073   -0.6926    0.0388 H   0  0  0  0  0  0  0  0  0  0  0  0
    2.4605    0.2120    1.2735 H   0  0  0  0  0  0  0  0  0  0  0  0
    5.7240    0.1291    1.3236 H   0  0  0  0  0  0  0  0  0  0  0  0
    4.2307   -0.1759    2.1626 H   0  0  0  0  0  0  0  0  0  0  0  0
   -1.1570   -1.3722   -1.7611 H   0  0  0  0  0  0  0  0  0  0  0  0
   -1.1743    0.3690   -1.9715 H   0  0  0  0  0  0  0  0  0  0  0  0
   -3.2709   -0.4294   -1.2416 H   0  0  0  0  0  0  0  0  0  0  0  0
   -2.0153    1.2323    0.9817 H   0  0  0  0  0  0  0  0  0  0  0  0
   -3.7332    1.0230    0.5656 H   0  0  0  0  0  0  0  0  0  0  0  0
   -3.4656    1.8594   -1.4325 H   0  0  0  0  0  0  0  0  0  0  0  0
   -2.1275   -1.1291    1.5055 H   0  0  0  0  0  0  0  0  0  0  0  0
   -2.8423   -2.3424    0.2845 H   0  0  0  0  0  0  0  0  0  0  0  0
   -4.1238   -0.9732    2.0422 H   0  0  0  0  0  0  0  0  0  0  0  0
  1  2  1  0
  2  3  1  0
  3  4  1  0
  4  5  1  0
  5  6  1  0
  6  7  1  0
  2  8  1  0
  8  9  1  0
  9 10  1  0
 10 11  1  0
  9 12  1  0
 12 13  1  0
  1 14  1  0
  1 15  1  0
  1 16  1  0
  3 17  1  0
  3 18  1  0
  4 19  1  0
  4 20  1  0
  5 21  1  0
  5 22  1  0
  7 23  1  0
  7 24  1  0
  8 25  1  0
  8 26  1  0
  9 27  1  0
 10 28  1  0
 10 29  1  0
 11 30  1  0
 12 31  1  0
 12 32  1  0
 13 33  1  0
M  END
$$$$

     RDKit          3D

 33 32  0  0  0  0  0  0  0  0999 V2000
    0.4878   -1.6336    0.2347 C   0  0  0  0  0  0  0  0  0  0  0  0
    0.1894   -0.1198    0.4064 N   0  0  0  0  0  0  0  0  0  0  0  0
    0.7453    0.4252   -0.7526 C   0  0  0  0  0  0  0  0  0  0  0  0
    2.1749    0.6800   -0.7289 C   0  0  0  0  0  0  0  0  0  0  0  0
    3.0984   -0.5033   -0.3493 C   0  0  0  0  0  0  0  0  0  0  0  0
    4.3512    0.1830   -0.4177 O   0  0  0  0  0  0  0  0  0  0  0  0
    5.0269    0.2069    0.7697 N   0  0  0  0  0  0  0  0  0  0  0  0
   -1.1366    0.0287    0.8969 C   0  0  0  0  0  0  0  0  0  0  0  0
   -2.2790    0.0190   -0.0633 C   0  0  0  0  0  0  0  0  0  0  0  0
   -2.4843    1.2579   -0.9191 C   0  0  0  0  0  0  0  0  0  0  0  0
   -2.7545    2.4026   -0.1307 O   0  0  0  0  0  0  0  0  0  0  0  0
   -3.5241   -0.4781    0.6478 C   0  0  0  0  0  0  0  0  0  0  0  0
   -3.2532   -1.7926    1.0371 O   0  0  0  0  0  0  0  0  0  0  0  0
   -0.5182   -2.1025    0.3454 H   0  0  0  0  0  0  0  0  0  0  0  0
    0.8469   -1.7592   -0.7392 H   0  0  0  0  0  0  0  0  0  0  0  0
    1.0701   -1.9684    1.0884 H   0  0  0  0  0  0  0  0  0  0  0  0
    0.2671    1.3851   -1.0071 H   0  0  0  0  0  0  0  0  0  0  0  0
    0.5024   -0.2339   -1.6486 H   0  0  0  0  0  0  0  0  0  0  0  0
    2.4243    1.4386    0.1322 H   0  0  0  0  0  0  0  0  0  0  0  0
    2.5809    1.1692   -1.5897 H   0  0  0  0  0  0  0  0  0  0  0  0
    2.9852   -0.8150    0.6410 H   0  0  0  0  0  0  0  0  0  0  0  0
    3.1737   -1.2236   -1.1582 H   0  0  0  0  0  0  0  0  0  0  0  0
    4.5350    1.1378    1.2553 H   0  0  0  0  0  0  0  0  0  0  0  0
    5.9168    0.7874    0.4431 H   0  0  0  0  0  0  0  0  0  0  0  0
   -1.3191   -0.7384    1.7089 H   0  0  0  0  0  0  0  0  0  0  0  0
   -1.1299    1.0711    1.4464 H   0  0  0  0  0  0  0  0  0  0  0  0
   -2.0697   -0.7851   -0.8272 H   0  0  0  0  0  0  0  0  0  0  0  0
   -3.3874    1.1149   -1.5509 H   0  0  0  0  0  0  0  0  0  0  0  0
   -1.6338    1.4913   -1.5341 H   0  0  0  0  0  0  0  0  0  0  0  0
   -3.4853    2.1739    0.5117 H   0  0  0  0  0  0  0  0  0  0  0  0
   -3.7009    0.0952    1.5840 H   0  0  0  0  0  0  0  0  0  0  0  0
   -4.3531   -0.4903   -0.0613 H   0  0  0  0  0  0  0  0  0  0  0  0
   -3.3473   -2.4239    0.2708 H   0  0  0  0  0  0  0  0  0  0  0  0
  1  2  1  0
  2  3  1  0
  3  4  1  0
  4  5  1  0
  5  6  1  0
  6  7  1  0
  2  8  1  0
  8  9  1  0
  9 10  1  0
 10 11  1  0
  9 12  1  0
 12 13  1  0
  1 14  1  0
  1 15  1  0
  1 16  1  0
  3 17  1  0
  3 18  1  0
  4 19  1  0
  4 20  1  0
  5 21  1  0
  5 22  1  0
  7 23  1  0
  7 24  1  0
  8 25  1  0
  8 26  1  0
  9 27  1  0
 10 28  1  0
 10 29  1  0
 11 30  1  0
 12 31  1  0
 12 32  1  0
 13 33  1  0
M  END
$$$$

     RDKit          3D

 33 32  0  0  0  0  0  0  0  0999 V2000
   -0.5881   -1.9373   -0.8017 C   0  0  0  0  0  0  0  0  0  0  0  0
   -0.1876   -0.6179   -0.3702 N   0  0  0  0  0  0  0  0  0  0  0  0
    1.2162   -0.6538   -0.1779 C   0  0  0  0  0  0  0  0  0  0  0  0
    1.8890    0.5957    0.2688 C   0  0  0  0  0  0  0  0  0  0  0  0
    3.3814    0.2352    0.3739 C   0  0  0  0  0  0  0  0  0  0  0  0
    4.1384    1.3096    0.7821 O   0  0  0  0  0  0  0  0  0  0  0  0
    5.4241    0.8750    0.8376 N   0  0  0  0  0  0  0  0  0  0  0  0
   -0.9931   -0.1483    0.6837 C   0  0  0  0  0  0  0  0  0  0  0  0
   -2.3981    0.2016    0.4280 C   0  0  0  0  0  0  0  0  0  0  0  0
   -3.2973   -0.8836   -0.0880 C   0  0  0  0  0  0  0  0  0  0  0  0
   -4.5687   -0.2505   -0.2232 O   0  0  0  0  0  0  0  0  0  0  0  0
   -2.5959    1.3906   -0.4832 C   0  0  0  0  0  0  0  0  0  0  0  0
   -2.0200    2.5539    0.0237 O   0  0  0  0  0  0  0  0  0  0  0  0
   -1.3181   -2.4285   -0.1291 H   0  0  0  0  0  0  0  0  0  0  0  0
    0.3166   -2.6197   -0.8669 H   0  0  0  0  0  0  0  0  0  0  0  0
   -0.9531   -1.9482   -1.8718 H   0  0  0  0  0  0  0  0  0  0  0  0
    1.5492   -1.5021    0.4642 H   0  0  0  0  0  0  0  0  0  0  0  0
    1.6705   -0.8993   -1.1858 H   0  0  0  0  0  0  0  0  0  0  0  0
    1.5377    1.0036    1.2383 H   0  0  0  0  0  0  0  0  0  0  0  0
    1.8322    1.4081   -0.4727 H   0  0  0  0  0  0  0  0  0  0  0  0
    3.6833   -0.0656   -0.6524 H   0  0  0  0  0  0  0  0  0  0  0  0
    3.5137   -0.6350    1.0507 H   0  0  0  0  0  0  0  0  0  0  0  0
    5.9879    1.4721    1.4869 H   0  0  0  0  0  0  0  0  0  0  0  0
    5.8197    1.0341   -0.1357 H   0  0  0  0  0  0  0  0  0  0  0  0
   -0.9896   -0.8745    1.5575 H   0  0  0  0  0  0  0  0  0  0  0  0
   -0.4560    0.7440    1.1342 H   0  0  0  0  0  0  0  0  0  0  0  0
   -2.8590    0.5198    1.4134 H   0  0  0  0  0  0  0  0  0  0  0  0
   -3.4747   -1.7084    0.5952 H   0  0  0  0  0  0  0  0  0  0  0  0
   -3.0662   -1.1891   -1.1378 H   0  0  0  0  0  0  0  0  0  0  0  0
   -5.0688   -0.6004   -0.9921 H   0  0  0  0  0  0  0  0  0  0  0  0
   -2.1480    1.1229   -1.4781 H   0  0  0  0  0  0  0  0  0  0  0  0
   -3.6623    1.6001   -0.6772 H   0  0  0  0  0  0  0  0  0  0  0  0
   -1.3152    2.8959   -0.5947 H   0  0  0  0  0  0  0  0  0  0  0  0
  1  2  1  0
  2  3  1  0
  3  4  1  0
  4  5  1  0
  5  6  1  0
  6  7  1  0
  2  8  1  0
  8  9  1  0
  9 10  1  0
 10 11  1  0
  9 12  1  0
 12 13  1  0
  1 14  1  0
  1 15  1  0
  1 16  1  0
  3 17  1  0
  3 18  1  0
  4 19  1  0
  4 20  1  0
  5 21  1  0
  5 22  1  0
  7 23  1  0
  7 24  1  0
  8 25  1  0
  8 26  1  0
  9 27  1  0
 10 28  1  0
 10 29  1  0
 11 30  1  0
 12 31  1  0
 12 32  1  0
 13 33  1  0
M  END
$$$$

     RDKit          3D

 33 32  0  0  0  0  0  0  0  0999 V2000
   -0.2594   -1.5591    1.2186 C   0  0  0  0  0  0  0  0  0  0  0  0
    0.0480   -0.9095    0.0260 N   0  0  0  0  0  0  0  0  0  0  0  0
    1.0490   -1.4788   -0.8008 C   0  0  0  0  0  0  0  0  0  0  0  0
    2.4429   -1.3723   -0.2159 C   0  0  0  0  0  0  0  0  0  0  0  0
    2.8113    0.0828   -0.0042 C   0  0  0  0  0  0  0  0  0  0  0  0
    4.0799    0.1617    0.5234 O   0  0  0  0  0  0  0  0  0  0  0  0
    4.4598    1.4622    0.7231 N   0  0  0  0  0  0  0  0  0  0  0  0
   -0.5279    0.2872   -0.3626 C   0  0  0  0  0  0  0  0  0  0  0  0
   -1.9518    0.2492   -0.7984 C   0  0  0  0  0  0  0  0  0  0  0  0
   -2.3687    1.6746   -1.1549 C   0  0  0  0  0  0  0  0  0  0  0  0
   -2.2477    2.5432   -0.0717 O   0  0  0  0  0  0  0  0  0  0  0  0
   -2.9182   -0.2970    0.1884 C   0  0  0  0  0  0  0  0  0  0  0  0
   -4.2263   -0.2319   -0.3814 O   0  0  0  0  0  0  0  0  0  0  0  0
    0.6179   -1.6869    1.9278 H   0  0  0  0  0  0  0  0  0  0  0  0
   -0.6430   -2.5848    1.0166 H   0  0  0  0  0  0  0  0  0  0  0  0
   -1.0463   -1.0119    1.7677 H   0  0  0  0  0  0  0  0  0  0  0  0
    1.0431   -1.0581   -1.8250 H   0  0  0  0  0  0  0  0  0  0  0  0
    0.8438   -2.5632   -0.9037 H   0  0  0  0  0  0  0  0  0  0  0  0
    3.2050   -1.8078   -0.8933 H   0  0  0  0  0  0  0  0  0  0  0  0
    2.4572   -1.9102    0.7463 H   0  0  0  0  0  0  0  0  0  0  0  0
    2.1253    0.5747    0.7178 H   0  0  0  0  0  0  0  0  0  0  0  0
    2.6773    0.6010   -0.9680 H   0  0  0  0  0  0  0  0  0  0  0  0
    5.2137    1.7454    0.0623 H   0  0  0  0  0  0  0  0  0  0  0  0
    3.6211    2.0899    0.6528 H   0  0  0  0  0  0  0  0  0  0  0  0
   -0.5026    0.9952    0.5340 H   0  0  0  0  0  0  0  0  0  0  0  0
    0.0433    0.8678   -1.1351 H   0  0  0  0  0  0  0  0  0  0  0  0
   -2.0594   -0.3116   -1.7806 H   0  0  0  0  0  0  0  0  0  0  0  0
   -3.4209    1.6448   -1.4648 H   0  0  0  0  0  0  0  0  0  0  0  0
   -1.6853    2.0425   -1.9518 H   0  0  0  0  0  0  0  0  0  0  0  0
   -2.2956    3.4638   -0.4405 H   0  0  0  0  0  0  0  0  0  0  0  0
   -2.7812   -1.4005    0.3298 H   0  0  0  0  0  0  0  0  0  0  0  0
   -2.9522    0.2775    1.1116 H   0  0  0  0  0  0  0  0  0  0  0  0
   -4.8521   -0.5801    0.3102 H   0  0  0  0  0  0  0  0  0  0  0  0
  1  2  1  0
  2  3  1  0
  3  4  1  0
  4  5  1  0
  5  6  1  0
  6  7  1  0
  2  8  1  0
  8  9  1  0
  9 10  1  0
 10 11  1  0
  9 12  1  0
 12 13  1  0
  1 14  1  0
  1 15  1  0
  1 16  1  0
  3 17  1  0
  3 18  1  0
  4 19  1  0
  4 20  1  0
  5 21  1  0
  5 22  1  0
  7 23  1  0
  7 24  1  0
  8 25  1  0
  8 26  1  0
  9 27  1  0
 10 28  1  0
 10 29  1  0
 11 30  1  0
 12 31  1  0
 12 32  1  0
 13 33  1  0
M  END
$$$$

     RDKit          3D

 33 32  0  0  0  0  0  0  0  0999 V2000
    0.0866   -1.7057   -1.8473 C   0  0  0  0  0  0  0  0  0  0  0  0
   -0.2158   -0.9474   -0.6143 N   0  0  0  0  0  0  0  0  0  0  0  0
    0.9593   -0.0775   -0.4302 C   0  0  0  0  0  0  0  0  0  0  0  0
    2.1826   -0.8830   -0.0873 C   0  0  0  0  0  0  0  0  0  0  0  0
    3.3709    0.0341    0.0672 C   0  0  0  0  0  0  0  0  0  0  0  0
    3.1726    0.9796    1.0707 O   0  0  0  0  0  0  0  0  0  0  0  0
    4.3275    1.7293    1.1043 N   0  0  0  0  0  0  0  0  0  0  0  0
   -1.3472   -0.0568   -0.8861 C   0  0  0  0  0  0  0  0  0  0  0  0
   -1.8625    0.6147    0.3514 C   0  0  0  0  0  0  0  0  0  0  0  0
   -3.0086    1.5601    0.0896 C   0  0  0  0  0  0  0  0  0  0  0  0
   -4.1170    0.9692   -0.4728 O   0  0  0  0  0  0  0  0  0  0  0  0
   -2.3998   -0.4924    1.2826 C   0  0  0  0  0  0  0  0  0  0  0  0
   -2.8710    0.1239    2.4371 O   0  0  0  0  0  0  0  0  0  0  0  0
   -0.8213   -1.9938   -2.3735 H   0  0  0  0  0  0  0  0  0  0  0  0
    0.5997   -2.6304   -1.5152 H   0  0  0  0  0  0  0  0  0  0  0  0
    0.7417   -1.1144   -2.5128 H   0  0  0  0  0  0  0  0  0  0  0  0
    0.7440    0.5597    0.4450 H   0  0  0  0  0  0  0  0  0  0  0  0
    1.1055    0.5418   -1.3221 H   0  0  0  0  0  0  0  0  0  0  0  0
    2.0303   -1.4090    0.8820 H   0  0  0  0  0  0  0  0  0  0  0  0
    2.4396   -1.6264   -0.8711 H   0  0  0  0  0  0  0  0  0  0  0  0
    3.6604    0.4878   -0.9142 H   0  0  0  0  0  0  0  0  0  0  0  0
    4.2339   -0.6294    0.3561 H   0  0  0  0  0  0  0  0  0  0  0  0
    4.3516    2.3906    1.9023 H   0  0  0  0  0  0  0  0  0  0  0  0
    5.0916    1.0087    1.2522 H   0  0  0  0  0  0  0  0  0  0  0  0
   -2.1468   -0.5830   -1.4063 H   0  0  0  0  0  0  0  0  0  0  0  0
   -0.9585    0.7688   -1.5515 H   0  0  0  0  0  0  0  0  0  0  0  0
   -1.0877    1.1729    0.9043 H   0  0  0  0  0  0  0  0  0  0  0  0
   -2.7010    2.4083   -0.5697 H   0  0  0  0  0  0  0  0  0  0  0  0
   -3.2886    2.0678    1.0645 H   0  0  0  0  0  0  0  0  0  0  0  0
   -3.9067    0.1412   -0.9190 H   0  0  0  0  0  0  0  0  0  0  0  0
   -3.2694   -0.9615    0.7501 H   0  0  0  0  0  0  0  0  0  0  0  0
   -1.6010   -1.2298    1.4615 H   0  0  0  0  0  0  0  0  0  0  0  0
   -3.4950   -0.5386    2.8724 H   0  0  0  0  0  0  0  0  0  0  0  0
  1  2  1  0
  2  3  1  0
  3  4  1  0
  4  5  1  0
  5  6  1  0
  6  7  1  0
  2  8  1  0
  8  9  1  0
  9 10  1  0
 10 11  1  0
  9 12  1  0
 12 13  1  0
  1 14  1  0
  1 15  1  0
  1 16  1  0
  3 17  1  0
  3 18  1  0
  4 19  1  0
  4 20  1  0
  5 21  1  0
  5 22  1  0
  7 23  1  0
  7 24  1  0
  8 25  1  0
  8 26  1  0
  9 27  1  0
 10 28  1  0
 10 29  1  0
 11 30  1  0
 12 31  1  0
 12 32  1  0
 13 33  1  0
M  END
$$$$

     RDKit          3D

 33 32  0  0  0  0  0  0  0  0999 V2000
   -0.0890    1.1166   -1.5452 C   0  0  0  0  0  0  0  0  0  0  0  0
   -0.2732   -0.1010   -0.8522 N   0  0  0  0  0  0  0  0  0  0  0  0
    0.9883   -0.8000   -0.6917 C   0  0  0  0  0  0  0  0  0  0  0  0
    1.9158   -0.0722    0.2484 C   0  0  0  0  0  0  0  0  0  0  0  0
    3.2130   -0.8362    0.3880 C   0  0  0  0  0  0  0  0  0  0  0  0
    4.0946   -0.1902    1.2552 O   0  0  0  0  0  0  0  0  0  0  0  0
    5.2509   -0.8747    1.3790 N   0  0  0  0  0  0  0  0  0  0  0  0
   -0.9722   -0.1060    0.3739 C   0  0  0  0  0  0  0  0  0  0  0  0
   -2.4268    0.1748    0.3649 C   0  0  0  0  0  0  0  0  0  0  0  0
   -2.8348    1.5251   -0.1596 C   0  0  0  0  0  0  0  0  0  0  0  0
   -2.2813    2.5550    0.5997 O   0  0  0  0  0  0  0  0  0  0  0  0
   -3.2577   -0.9281   -0.2675 C   0  0  0  0  0  0  0  0  0  0  0  0
   -3.1260   -2.1453    0.3820 O   0  0  0  0  0  0  0  0  0  0  0  0
    0.9770    1.1180   -1.9518 H   0  0  0  0  0  0  0  0  0  0  0  0
   -0.1429    2.0444   -0.9726 H   0  0  0  0  0  0  0  0  0  0  0  0
   -0.6993    1.1373   -2.4844 H   0  0  0  0  0  0  0  0  0  0  0  0
    0.7468   -1.7918   -0.2564 H   0  0  0  0  0  0  0  0  0  0  0  0
    1.4723   -0.8866   -1.6886 H   0  0  0  0  0  0  0  0  0  0  0  0
    2.0437    0.9869   -0.0085 H   0  0  0  0  0  0  0  0  0  0  0  0
    1.4528   -0.0846    1.2734 H   0  0  0  0  0  0  0  0  0  0  0  0
    3.6512   -0.9909   -0.6009 H   0  0  0  0  0  0  0  0  0  0  0  0
    2.9309   -1.8340    0.8431 H   0  0  0  0  0  0  0  0  0  0  0  0
    6.0673   -0.3708    0.9411 H   0  0  0  0  0  0  0  0  0  0  0  0
    5.1520   -1.7580    0.8119 H   0  0  0  0  0  0  0  0  0  0  0  0
   -0.4871    0.5240    1.1628 H   0  0  0  0  0  0  0  0  0  0  0  0
   -0.8577   -1.1564    0.7946 H   0  0  0  0  0  0  0  0  0  0  0  0
   -2.7654    0.1785    1.4516 H   0  0  0  0  0  0  0  0  0  0  0  0
   -3.9584    1.6557   -0.0872 H   0  0  0  0  0  0  0  0  0  0  0  0
   -2.6040    1.6813   -1.2105 H   0  0  0  0  0  0  0  0  0  0  0  0
   -1.8296    2.2179    1.4091 H   0  0  0  0  0  0  0  0  0  0  0  0
   -4.3216   -0.6202   -0.2218 H   0  0  0  0  0  0  0  0  0  0  0  0
   -3.0043   -1.0607   -1.3407 H   0  0  0  0  0  0  0  0  0  0  0  0
   -4.0253   -2.5000    0.6609 H   0  0  0  0  0  0  0  0  0  0  0  0
  1  2  1  0
  2  3  1  0
  3  4  1  0
  4  5  1  0
  5  6  1  0
  6  7  1  0
  2  8  1  0
  8  9  1  0
  9 10  1  0
 10 11  1  0
  9 12  1  0
 12 13  1  0
  1 14  1  0
  1 15  1  0
  1 16  1  0
  3 17  1  0
  3 18  1  0
  4 19  1  0
  4 20  1  0
  5 21  1  0
  5 22  1  0
  7 23  1  0
  7 24  1  0
  8 25  1  0
  8 26  1  0
  9 27  1  0
 10 28  1  0
 10 29  1  0
 11 30  1  0
 12 31  1  0
 12 32  1  0
 13 33  1  0
M  END
$$$$

     RDKit          3D

 33 32  0  0  0  0  0  0  0  0999 V2000
   -0.4263   -2.3578    0.8610 C   0  0  0  0  0  0  0  0  0  0  0  0
    0.1781   -1.1646    0.2413 N   0  0  0  0  0  0  0  0  0  0  0  0
    1.1907   -1.6602   -0.6615 C   0  0  0  0  0  0  0  0  0  0  0  0
    1.9419   -0.5994   -1.3909 C   0  0  0  0  0  0  0  0  0  0  0  0
    2.6650    0.3379   -0.4217 C   0  0  0  0  0  0  0  0  0  0  0  0
    3.3235    1.2753   -1.2179 O   0  0  0  0  0  0  0  0  0  0  0  0
    3.9816    2.1304   -0.4128 N   0  0  0  0  0  0  0  0  0  0  0  0
   -0.8652   -0.5333   -0.5667 C   0  0  0  0  0  0  0  0  0  0  0  0
   -1.9547    0.0375    0.3211 C   0  0  0  0  0  0  0  0  0  0  0  0
   -3.0109    0.6807   -0.5755 C   0  0  0  0  0  0  0  0  0  0  0  0
   -4.0424    1.2260    0.1743 O   0  0  0  0  0  0  0  0  0  0  0  0
   -1.3272    1.1746    1.1074 C   0  0  0  0  0  0  0  0  0  0  0  0
   -2.2888    1.7333    1.9405 O   0  0  0  0  0  0  0  0  0  0  0  0
   -0.7028   -2.1435    1.9062 H   0  0  0  0  0  0  0  0  0  0  0  0
   -1.3041   -2.6928    0.2881 H   0  0  0  0  0  0  0  0  0  0  0  0
    0.3372   -3.1637    0.8980 H   0  0  0  0  0  0  0  0  0  0  0  0
    1.9490   -2.2864   -0.1264 H   0  0  0  0  0  0  0  0  0  0  0  0
    0.7602   -2.3474   -1.4343 H   0  0  0  0  0  0  0  0  0  0  0  0
    2.7717   -1.1050   -1.9504 H   0  0  0  0  0  0  0  0  0  0  0  0
    1.3898   -0.0157   -2.1201 H   0  0  0  0  0  0  0  0  0  0  0  0
    3.4595   -0.2401    0.1147 H   0  0  0  0  0  0  0  0  0  0  0  0
    1.9416    0.8050    0.2803 H   0  0  0  0  0  0  0  0  0  0  0  0
    3.3685    2.9305   -0.1862 H   0  0  0  0  0  0  0  0  0  0  0  0
    4.8275    2.4544   -0.9354 H   0  0  0  0  0  0  0  0  0  0  0  0
   -1.2938   -1.3338   -1.1900 H   0  0  0  0  0  0  0  0  0  0  0  0
   -0.3583    0.2595   -1.1509 H   0  0  0  0  0  0  0  0  0  0  0  0
   -2.3915   -0.7121    0.9820 H   0  0  0  0  0  0  0  0  0  0  0  0
   -2.4835    1.4797   -1.1704 H   0  0  0  0  0  0  0  0  0  0  0  0
   -3.3569   -0.0858   -1.2732 H   0  0  0  0  0  0  0  0  0  0  0  0
   -4.2111    0.6433    0.9630 H   0  0  0  0  0  0  0  0  0  0  0  0
   -0.4739    0.7877    1.7076 H   0  0  0  0  0  0  0  0  0  0  0  0
   -0.9650    1.9431    0.3708 H   0  0  0  0  0  0  0  0  0  0  0  0
   -2.6294    2.5432    1.4930 H   0  0  0  0  0  0  0  0  0  0  0  0
  1  2  1  0
  2  3  1  0
  3  4  1  0
  4  5  1  0
  5  6  1  0
  6  7  1  0
  2  8  1  0
  8  9  1  0
  9 10  1  0
 10 11  1  0
  9 12  1  0
 12 13  1  0
  1 14  1  0
  1 15  1  0
  1 16  1  0
  3 17  1  0
  3 18  1  0
  4 19  1  0
  4 20  1  0
  5 21  1  0
  5 22  1  0
  7 23  1  0
  7 24  1  0
  8 25  1  0
  8 26  1  0
  9 27  1  0
 10 28  1  0
 10 29  1  0
 11 30  1  0
 12 31  1  0
 12 32  1  0
 13 33  1  0
M  END
$$$$
