
     RDKit          3D

 24 24  0  0  0  0  0  0  0  0999 V2000
    3.2184    0.5912    0.2062 N   0  0  0  0  0  0  0  0  0  0  0  0
    2.9747   -0.6475   -0.4532 C   0  0  0  0  0  0  0  0  0  0  0  0
    3.9333   -1.3782   -0.8059 O   0  0  0  0  0  0  0  0  0  0  0  0
    1.5742   -1.0761   -0.7265 C   0  0  0  0  0  0  0  0  0  0  0  0
    0.6873   -0.0721   -0.2048 N   0  0  0  0  0  0  0  0  0  0  0  0
   -0.6787   -0.2210   -0.4731 C   0  0  1  0  0  0  0  0  0  0  0  0
   -1.3692   -1.4508    0.0608 C   0  0  0  0  0  0  0  0  0  0  0  0
   -2.7049   -1.0906    0.2419 O   0  0  0  0  0  0  0  0  0  0  0  0
   -2.8399    0.2719    0.0515 C   0  0  0  0  0  0  0  0  0  0  0  0
   -1.4371    0.8129    0.3898 C   0  0  2  0  0  0  0  0  0  0  0  0
   -1.2176    2.1437   -0.0266 N   0  0  0  0  0  0  0  0  0  0  0  0
    3.1304    0.7226    1.2315 H   0  0  0  0  0  0  0  0  0  0  0  0
    3.5022    1.4502   -0.3454 H   0  0  0  0  0  0  0  0  0  0  0  0
    1.3909   -2.0773   -0.2797 H   0  0  0  0  0  0  0  0  0  0  0  0
    1.4582   -1.0980   -1.8318 H   0  0  0  0  0  0  0  0  0  0  0  0
    0.9479    0.2585    0.7467 H   0  0  0  0  0  0  0  0  0  0  0  0
   -0.9700   -0.0413   -1.5297 H   0  0  0  0  0  0  0  0  0  0  0  0
   -1.2955   -2.3248   -0.5881 H   0  0  0  0  0  0  0  0  0  0  0  0
   -0.9785   -1.6451    1.0899 H   0  0  0  0  0  0  0  0  0  0  0  0
   -3.6297    0.7376    0.6312 H   0  0  0  0  0  0  0  0  0  0  0  0
   -2.9309    0.4667   -1.0550 H   0  0  0  0  0  0  0  0  0  0  0  0
   -1.1760    0.5557    1.4308 H   0  0  0  0  0  0  0  0  0  0  0  0
   -1.3339    2.8539    0.7436 H   0  0  0  0  0  0  0  0  0  0  0  0
   -0.2558    2.2579   -0.4603 H   0  0  0  0  0  0  0  0  0  0  0  0
  1  2  1  0
  2  3  2  0
  2  4  1  0
  4  5  1  0
  5  6  1  0
  6  7  1  0
  7  8  1  0
  8  9  1  0
  9 10  1  0
 10 11  1  0
 10  6  1  0
  1 12  1  0
  1 13  1  0
  4 14  1  0
  4 15  1  0
  5 16  1  0
  6 17  1  6
  7 18  1  0
  7 19  1  0
  9 20  1  0
  9 21  1  0
 10 22  1  1
 11 23  1  0
 11 24  1  0
M  END
$$$$

     RDKit          3D

 24 24  0  0  0  0  0  0  0  0999 V2000
    3.6240   -0.1486    0.5552 N   0  0  0  0  0  0  0  0  0  0  0  0
    2.4335    0.2265   -0.1216 C   0  0  0  0  0  0  0  0  0  0  0  0
    2.2252    1.4496   -0.3227 O   0  0  0  0  0  0  0  0  0  0  0  0
    1.5159   -0.8381   -0.5461 C   0  0  0  0  0  0  0  0  0  0  0  0
    0.3414   -0.3173   -1.2220 N   0  0  0  0  0  0  0  0  0  0  0  0
   -0.4411    0.3926   -0.2446 C   0  0  1  0  0  0  0  0  0  0  0  0
   -1.3420    1.4465   -0.8973 C   0  0  0  0  0  0  0  0  0  0  0  0
   -2.1526    1.7822    0.1740 O   0  0  0  0  0  0  0  0  0  0  0  0
   -2.4517    0.6234    0.8623 C   0  0  0  0  0  0  0  0  0  0  0  0
   -1.5411   -0.4689    0.3433 C   0  0  2  0  0  0  0  0  0  0  0  0
   -1.0677   -1.3377    1.3886 N   0  0  0  0  0  0  0  0  0  0  0  0
    3.7947   -1.1330    0.8876 H   0  0  0  0  0  0  0  0  0  0  0  0
    4.3848    0.5322    0.7541 H   0  0  0  0  0  0  0  0  0  0  0  0
    1.9933   -1.5610   -1.2405 H   0  0  0  0  0  0  0  0  0  0  0  0
    1.2295   -1.4326    0.3542 H   0  0  0  0  0  0  0  0  0  0  0  0
    0.6433    0.3215   -1.9753 H   0  0  0  0  0  0  0  0  0  0  0  0
    0.1339    0.8736    0.5465 H   0  0  0  0  0  0  0  0  0  0  0  0
   -0.7842    2.2947   -1.2785 H   0  0  0  0  0  0  0  0  0  0  0  0
   -1.9583    0.9125   -1.6346 H   0  0  0  0  0  0  0  0  0  0  0  0
   -2.1748    0.7911    1.9311 H   0  0  0  0  0  0  0  0  0  0  0  0
   -3.5219    0.3363    0.7751 H   0  0  0  0  0  0  0  0  0  0  0  0
   -2.0855   -1.0052   -0.4561 H   0  0  0  0  0  0  0  0  0  0  0  0
   -1.8741   -1.4552    2.0650 H   0  0  0  0  0  0  0  0  0  0  0  0
   -0.9243   -2.2850    0.9709 H   0  0  0  0  0  0  0  0  0  0  0  0
  1  2  1  0
  2  3  2  0
  2  4  1  0
  4  5  1  0
  5  6  1  0
  6  7  1  0
  7  8  1  0
  8  9  1  0
  9 10  1  0
 10 11  1  0
 10  6  1  0
  1 12  1  0
  1 13  1  0
  4 14  1  0
  4 15  1  0
  5 16  1  0
  6 17  1  1
  7 18  1  0
  7 19  1  0
  9 20  1  0
  9 21  1  0
 10 22  1  6
 11 23  1  0
 11 24  1  0
M  END
$$$$

     RDKit          3D

 24 24  0  0  0  0  0  0  0  0999 V2000
    3.2904    0.7404    0.6719 N   0  0  0  0  0  0  0  0  0  0  0  0
    2.9025   -0.5554    1.0876 C   0  0  0  0  0  0  0  0  0  0  0  0
    3.7097   -1.2271    1.7667 O   0  0  0  0  0  0  0  0  0  0  0  0
    1.5651   -1.0712    0.7137 C   0  0  0  0  0  0  0  0  0  0  0  0
    0.8391   -0.1232   -0.0832 N   0  0  0  0  0  0  0  0  0  0  0  0
   -0.5238   -0.5144   -0.3146 C   0  0  1  0  0  0  0  0  0  0  0  0
   -1.3660   -0.5110    0.9361 C   0  0  0  0  0  0  0  0  0  0  0  0
   -1.8447    0.7823    1.0721 O   0  0  0  0  0  0  0  0  0  0  0  0
   -1.7655    1.4479   -0.1023 C   0  0  0  0  0  0  0  0  0  0  0  0
   -1.2340    0.5072   -1.1580 C   0  0  2  0  0  0  0  0  0  0  0  0
   -2.3922   -0.0755   -1.8308 N   0  0  0  0  0  0  0  0  0  0  0  0
    4.0608    0.9191    0.0099 H   0  0  0  0  0  0  0  0  0  0  0  0
    2.7557    1.5566    1.0671 H   0  0  0  0  0  0  0  0  0  0  0  0
    1.7772   -1.9584    0.0484 H   0  0  0  0  0  0  0  0  0  0  0  0
    0.9836   -1.4289    1.5679 H   0  0  0  0  0  0  0  0  0  0  0  0
    0.9591    0.8248    0.3262 H   0  0  0  0  0  0  0  0  0  0  0  0
   -0.5771   -1.5382   -0.7862 H   0  0  0  0  0  0  0  0  0  0  0  0
   -0.8678   -0.8872    1.8339 H   0  0  0  0  0  0  0  0  0  0  0  0
   -2.2473   -1.1666    0.7229 H   0  0  0  0  0  0  0  0  0  0  0  0
   -2.7749    1.8477   -0.4189 H   0  0  0  0  0  0  0  0  0  0  0  0
   -1.0796    2.3437   -0.0034 H   0  0  0  0  0  0  0  0  0  0  0  0
   -0.5660    1.0024   -1.8901 H   0  0  0  0  0  0  0  0  0  0  0  0
   -2.3053   -1.1095   -1.9242 H   0  0  0  0  0  0  0  0  0  0  0  0
   -3.2992    0.1944   -1.3673 H   0  0  0  0  0  0  0  0  0  0  0  0
  1  2  1  0
  2  3  2  0
  2  4  1  0
  4  5  1  0
  5  6  1  0
  6  7  1  0
  7  8  1  0
  8  9  1  0
  9 10  1  0
 10 11  1  0
 10  6  1  0
  1 12  1  0
  1 13  1  0
  4 14  1  0
  4 15  1  0
  5 16  1  0
  6 17  1  6
  7 18  1  0
  7 19  1  0
  9 20  1  0
  9 21  1  0
 10 22  1  6
 11 23  1  0
 11 24  1  0
M  END
$$$$

     RDKit          3D

 24 24  0  0  0  0  0  0  0  0999 V2000
    4.1115    0.1523   -0.9367 N   0  0  0  0  0  0  0  0  0  0  0  0
    2.9371   -0.6056   -0.6010 C   0  0  0  0  0  0  0  0  0  0  0  0
    3.0675   -1.8485   -0.5470 O   0  0  0  0  0  0  0  0  0  0  0  0
    1.6931    0.1508   -0.3542 C   0  0  0  0  0  0  0  0  0  0  0  0
    0.5810   -0.6832   -0.0335 N   0  0  0  0  0  0  0  0  0  0  0  0
   -0.5715    0.1131    0.2329 C   0  0  1  0  0  0  0  0  0  0  0  0
   -1.1024    0.9277   -0.8790 C   0  0  0  0  0  0  0  0  0  0  0  0
   -2.2876    0.3269   -1.2977 O   0  0  0  0  0  0  0  0  0  0  0  0
   -2.8806   -0.0451   -0.0971 C   0  0  0  0  0  0  0  0  0  0  0  0
   -1.7519   -0.7289    0.6659 C   0  0  2  0  0  0  0  0  0  0  0  0
   -1.8917   -0.5811    2.0952 N   0  0  0  0  0  0  0  0  0  0  0  0
    4.8579   -0.2263   -1.5364 H   0  0  0  0  0  0  0  0  0  0  0  0
    4.2298    1.1315   -0.5633 H   0  0  0  0  0  0  0  0  0  0  0  0
    1.4636    0.6928   -1.3107 H   0  0  0  0  0  0  0  0  0  0  0  0
    1.8541    0.9330    0.4465 H   0  0  0  0  0  0  0  0  0  0  0  0
    0.7821   -1.3897    0.6813 H   0  0  0  0  0  0  0  0  0  0  0  0
   -0.2697    0.8243    1.0513 H   0  0  0  0  0  0  0  0  0  0  0  0
   -0.4450    1.0542   -1.7606 H   0  0  0  0  0  0  0  0  0  0  0  0
   -1.3895    1.9404   -0.5066 H   0  0  0  0  0  0  0  0  0  0  0  0
   -3.2520    0.8544    0.4083 H   0  0  0  0  0  0  0  0  0  0  0  0
   -3.7124   -0.7518   -0.3111 H   0  0  0  0  0  0  0  0  0  0  0  0
   -1.6785   -1.7789    0.4020 H   0  0  0  0  0  0  0  0  0  0  0  0
   -2.8570   -0.7814    2.4439 H   0  0  0  0  0  0  0  0  0  0  0  0
   -1.4881    0.3191    2.4536 H   0  0  0  0  0  0  0  0  0  0  0  0
  1  2  1  0
  2  3  2  0
  2  4  1  0
  4  5  1  0
  5  6  1  0
  6  7  1  0
  7  8  1  0
  8  9  1  0
  9 10  1  0
 10 11  1  0
 10  6  1  0
  1 12  1  0
  1 13  1  0
  4 14  1  0
  4 15  1  0
  5 16  1  0
  6 17  1  1
  7 18  1  0
  7 19  1  0
  9 20  1  0
  9 21  1  0
 10 22  1  1
 11 23  1  0
 11 24  1  0
M  END
$$$$

     RDKit          3D

 24 24  0  0  0  0  0  0  0  0999 V2000
    3.9713    0.4625   -0.1574 N   0  0  0  0  0  0  0  0  0  0  0  0
    2.7013   -0.1277    0.0206 C   0  0  0  0  0  0  0  0  0  0  0  0
    2.4342   -0.6589    1.1244 O   0  0  0  0  0  0  0  0  0  0  0  0
    1.6539   -0.1541   -1.0501 C   0  0  0  0  0  0  0  0  0  0  0  0
    0.4713   -0.8142   -0.6387 N   0  0  0  0  0  0  0  0  0  0  0  0
   -0.3481   -0.1832    0.3295 C   0  0  1  0  0  0  0  0  0  0  0  0
   -0.9870    1.1108   -0.1573 C   0  0  0  0  0  0  0  0  0  0  0  0
   -1.8255    0.6178   -1.1589 O   0  0  0  0  0  0  0  0  0  0  0  0
   -2.5172   -0.3969   -0.5306 C   0  0  0  0  0  0  0  0  0  0  0  0
   -1.6047   -1.0451    0.4876 C   0  0  2  0  0  0  0  0  0  0  0  0
   -2.1022   -1.0238    1.8279 N   0  0  0  0  0  0  0  0  0  0  0  0
    4.3737    1.1871    0.4653 H   0  0  0  0  0  0  0  0  0  0  0  0
    4.5388    0.1408   -0.9728 H   0  0  0  0  0  0  0  0  0  0  0  0
    2.1023   -0.7523   -1.8754 H   0  0  0  0  0  0  0  0  0  0  0  0
    1.4179    0.8761   -1.3977 H   0  0  0  0  0  0  0  0  0  0  0  0
    0.4604   -1.8342   -0.6778 H   0  0  0  0  0  0  0  0  0  0  0  0
    0.1180   -0.0161    1.3095 H   0  0  0  0  0  0  0  0  0  0  0  0
   -0.2795    1.8603   -0.4999 H   0  0  0  0  0  0  0  0  0  0  0  0
   -1.6844    1.4472    0.6503 H   0  0  0  0  0  0  0  0  0  0  0  0
   -2.8013   -1.1710   -1.2829 H   0  0  0  0  0  0  0  0  0  0  0  0
   -3.4201   -0.0492   -0.0005 H   0  0  0  0  0  0  0  0  0  0  0  0
   -1.3930   -2.0845    0.2119 H   0  0  0  0  0  0  0  0  0  0  0  0
   -2.2821   -0.0746    2.1565 H   0  0  0  0  0  0  0  0  0  0  0  0
   -2.9981   -1.5763    1.8166 H   0  0  0  0  0  0  0  0  0  0  0  0
  1  2  1  0
  2  3  2  0
  2  4  1  0
  4  5  1  0
  5  6  1  0
  6  7  1  0
  7  8  1  0
  8  9  1  0
  9 10  1  0
 10 11  1  0
 10  6  1  0
  1 12  1  0
  1 13  1  0
  4 14  1  0
  4 15  1  0
  5 16  1  0
  6 17  1  1
  7 18  1  0
  7 19  1  0
  9 20  1  0
  9 21  1  0
 10 22  1  6
 11 23  1  0
 11 24  1  0
M  END
$$$$

     RDKit          3D

 24 24  0  0  0  0  0  0  0  0999 V2000
    3.6595   -0.0788   -0.3146 N   0  0  0  0  0  0  0  0  0  0  0  0
    2.6604   -1.0327   -0.5518 C   0  0  0  0  0  0  0  0  0  0  0  0
    2.9816   -2.1499   -1.0562 O   0  0  0  0  0  0  0  0  0  0  0  0
    1.1986   -0.8410   -0.2478 C   0  0  0  0  0  0  0  0  0  0  0  0
    0.9353    0.4141    0.3528 N   0  0  0  0  0  0  0  0  0  0  0  0
   -0.4196    0.8369    0.4380 C   0  0  1  0  0  0  0  0  0  0  0  0
   -0.9200    1.1247   -0.9821 C   0  0  0  0  0  0  0  0  0  0  0  0
   -2.2759    0.7793   -0.9302 O   0  0  0  0  0  0  0  0  0  0  0  0
   -2.2350   -0.4776   -0.3389 C   0  0  0  0  0  0  0  0  0  0  0  0
   -1.3731   -0.2340    0.8680 C   0  0  2  0  0  0  0  0  0  0  0  0
   -2.2527    0.2908    1.9310 N   0  0  0  0  0  0  0  0  0  0  0  0
    3.5453    0.8772   -0.7522 H   0  0  0  0  0  0  0  0  0  0  0  0
    4.5203   -0.2805    0.2711 H   0  0  0  0  0  0  0  0  0  0  0  0
    0.6043   -1.0560   -1.1322 H   0  0  0  0  0  0  0  0  0  0  0  0
    1.0078   -1.6429    0.5434 H   0  0  0  0  0  0  0  0  0  0  0  0
    1.5900    1.1592    0.0332 H   0  0  0  0  0  0  0  0  0  0  0  0
   -0.4783    1.7366    1.0712 H   0  0  0  0  0  0  0  0  0  0  0  0
   -0.4520    0.4918   -1.7442 H   0  0  0  0  0  0  0  0  0  0  0  0
   -0.7785    2.2117   -1.1283 H   0  0  0  0  0  0  0  0  0  0  0  0
   -1.7544   -1.1602   -1.0901 H   0  0  0  0  0  0  0  0  0  0  0  0
   -3.2524   -0.8357   -0.0694 H   0  0  0  0  0  0  0  0  0  0  0  0
   -0.8661   -1.1690    1.2134 H   0  0  0  0  0  0  0  0  0  0  0  0
   -2.4785    1.2724    1.5919 H   0  0  0  0  0  0  0  0  0  0  0  0
   -3.1666   -0.2365    1.7826 H   0  0  0  0  0  0  0  0  0  0  0  0
  1  2  1  0
  2  3  2  0
  2  4  1  0
  4  5  1  0
  5  6  1  0
  6  7  1  0
  7  8  1  0
  8  9  1  0
  9 10  1  0
 10 11  1  0
 10  6  1  0
  1 12  1  0
  1 13  1  0
  4 14  1  0
  4 15  1  0
  5 16  1  0
  6 17  1  1
  7 18  1  0
  7 19  1  0
  9 20  1  0
  9 21  1  0
 10 22  1  1
 11 23  1  0
 11 24  1  0
M  END
$$$$

     RDKit          3D

 24 24  0  0  0  0  0  0  0  0999 V2000
    4.1091    0.6647   -0.2825 N   0  0  0  0  0  0  0  0  0  0  0  0
    2.7683    1.0655   -0.4555 C   0  0  0  0  0  0  0  0  0  0  0  0
    2.4685    2.2499   -0.7570 O   0  0  0  0  0  0  0  0  0  0  0  0
    1.6935    0.0473   -0.2742 C   0  0  0  0  0  0  0  0  0  0  0  0
    0.3792    0.6265   -0.5052 N   0  0  0  0  0  0  0  0  0  0  0  0
   -0.6093   -0.4201   -0.4230 C   0  0  1  0  0  0  0  0  0  0  0  0
   -0.7261   -0.9519    0.9814 C   0  0  0  0  0  0  0  0  0  0  0  0
   -1.7083   -0.2138    1.6360 O   0  0  0  0  0  0  0  0  0  0  0  0
   -2.2539    0.6987    0.7515 C   0  0  0  0  0  0  0  0  0  0  0  0
   -2.0166    0.0876   -0.6261 C   0  0  2  0  0  0  0  0  0  0  0  0
   -2.8613   -1.0774   -0.7372 N   0  0  0  0  0  0  0  0  0  0  0  0
    4.8820    1.3596   -0.0501 H   0  0  0  0  0  0  0  0  0  0  0  0
    4.4192   -0.3447   -0.3798 H   0  0  0  0  0  0  0  0  0  0  0  0
    1.8151   -0.3099    0.7792 H   0  0  0  0  0  0  0  0  0  0  0  0
    1.8048   -0.7756   -1.0054 H   0  0  0  0  0  0  0  0  0  0  0  0
    0.2479    1.3306    0.2646 H   0  0  0  0  0  0  0  0  0  0  0  0
   -0.3750   -1.2350   -1.1571 H   0  0  0  0  0  0  0  0  0  0  0  0
    0.1649   -0.9502    1.5911 H   0  0  0  0  0  0  0  0  0  0  0  0
   -1.0733   -2.0234    0.8807 H   0  0  0  0  0  0  0  0  0  0  0  0
   -3.3439    0.7818    0.8658 H   0  0  0  0  0  0  0  0  0  0  0  0
   -1.7702    1.7053    0.7956 H   0  0  0  0  0  0  0  0  0  0  0  0
   -2.1148    0.7900   -1.4504 H   0  0  0  0  0  0  0  0  0  0  0  0
   -3.5682   -1.1353    0.0244 H   0  0  0  0  0  0  0  0  0  0  0  0
   -2.3318   -1.9702   -0.8517 H   0  0  0  0  0  0  0  0  0  0  0  0
  1  2  1  0
  2  3  2  0
  2  4  1  0
  4  5  1  0
  5  6  1  0
  6  7  1  0
  7  8  1  0
  8  9  1  0
  9 10  1  0
 10 11  1  0
 10  6  1  0
  1 12  1  0
  1 13  1  0
  4 14  1  0
  4 15  1  0
  5 16  1  0
  6 17  1  6
  7 18  1  0
  7 19  1  0
  9 20  1  0
  9 21  1  0
 10 22  1  6
 11 23  1  0
 11 24  1  0
M  END
$$$$

     RDKit          3D

 24 24  0  0  0  0  0  0  0  0999 V2000
    2.6908   -0.8267    0.7362 N   0  0  0  0  0  0  0  0  0  0  0  0
    2.7445    0.5375    0.4178 C   0  0  0  0  0  0  0  0  0  0  0  0
    3.8792    1.0125    0.0442 O   0  0  0  0  0  0  0  0  0  0  0  0
    1.6150    1.4624    0.4828 C   0  0  0  0  0  0  0  0  0  0  0  0
    0.3495    0.9885    0.8269 N   0  0  0  0  0  0  0  0  0  0  0  0
   -0.3947    0.2544   -0.0828 C   0  0  1  0  0  0  0  0  0  0  0  0
    0.0733   -1.0724   -0.5919 C   0  0  0  0  0  0  0  0  0  0  0  0
   -1.0652   -1.5943   -1.2551 O   0  0  0  0  0  0  0  0  0  0  0  0
   -2.1820   -1.0982   -0.6348 C   0  0  0  0  0  0  0  0  0  0  0  0
   -1.7315   -0.2480    0.5357 C   0  0  2  0  0  0  0  0  0  0  0  0
   -2.5927    0.8236    0.8677 N   0  0  0  0  0  0  0  0  0  0  0  0
    3.1767   -1.5786    0.1918 H   0  0  0  0  0  0  0  0  0  0  0  0
    2.1332   -1.1298    1.5686 H   0  0  0  0  0  0  0  0  0  0  0  0
    1.9593    2.2986    1.1914 H   0  0  0  0  0  0  0  0  0  0  0  0
    1.5455    2.0297   -0.5000 H   0  0  0  0  0  0  0  0  0  0  0  0
    0.2119    0.7864    1.8240 H   0  0  0  0  0  0  0  0  0  0  0  0
   -0.6835    0.8314   -1.0125 H   0  0  0  0  0  0  0  0  0  0  0  0
    0.2117   -1.7515    0.2664 H   0  0  0  0  0  0  0  0  0  0  0  0
    0.9295   -1.0430   -1.2793 H   0  0  0  0  0  0  0  0  0  0  0  0
   -2.6719   -0.3868   -1.3619 H   0  0  0  0  0  0  0  0  0  0  0  0
   -2.9424   -1.8394   -0.3572 H   0  0  0  0  0  0  0  0  0  0  0  0
   -1.4526   -0.9240    1.3615 H   0  0  0  0  0  0  0  0  0  0  0  0
   -3.5956    0.6994    0.7388 H   0  0  0  0  0  0  0  0  0  0  0  0
   -2.2081    1.7685    0.8858 H   0  0  0  0  0  0  0  0  0  0  0  0
  1  2  1  0
  2  3  2  0
  2  4  1  0
  4  5  1  0
  5  6  1  0
  6  7  1  0
  7  8  1  0
  8  9  1  0
  9 10  1  0
 10 11  1  0
 10  6  1  0
  1 12  1  0
  1 13  1  0
  4 14  1  0
  4 15  1  0
  5 16  1  0
  6 17  1  6
  7 18  1  0
  7 19  1  0
  9 20  1  0
  9 21  1  0
 10 22  1  1
 11 23  1  0
 11 24  1  0
M  END
$$$$
