
     RDKit          3D

 24 25  0  0  0  0  0  0  0  0999 V2000
    3.6188   -0.9295    0.2409 N   0  0  0  0  0  0  0  0  0  0  0  0
    2.5803   -0.2010   -0.9428 S   0  0  0  0  0  6  0  0  0  0  0  0
    3.0196   -0.7291   -2.2854 O   0  0  0  0  0  0  0  0  0  0  0  0
    2.8273    1.2758   -0.8899 O   0  0  0  0  0  0  0  0  0  0  0  0
    0.9219   -0.5564   -0.6377 N   0  0  0  0  0  0  0  0  0  0  0  0
    0.3645    0.4374    0.2030 C   0  0  2  0  0  0  0  0  0  0  0  0
   -0.1795   -0.1676    1.5251 C   0  0  0  0  0  0  0  0  0  0  0  0
   -1.3679   -0.4195    0.7509 C   0  0  1  0  0  0  0  0  0  0  0  0
   -2.6284   -0.1024    1.0159 O   0  0  0  0  0  0  0  0  0  0  0  0
   -3.1332    0.2971   -0.2499 C   0  0  0  0  0  0  0  0  0  0  0  0
   -1.8947    0.7290   -1.0654 C   0  0  0  0  0  0  0  0  0  0  0  0
   -0.9740    0.9130    0.0349 C   0  0  2  0  0  0  0  0  0  0  0  0
    4.5834   -0.5600    0.0355 H   0  0  0  0  0  0  0  0  0  0  0  0
    3.6458   -1.9602   -0.0006 H   0  0  0  0  0  0  0  0  0  0  0  0
    0.9080   -1.5056   -0.1579 H   0  0  0  0  0  0  0  0  0  0  0  0
    1.0969    1.2344    0.4925 H   0  0  0  0  0  0  0  0  0  0  0  0
    0.4834   -0.9973    1.8161 H   0  0  0  0  0  0  0  0  0  0  0  0
   -0.2146    0.5819    2.3228 H   0  0  0  0  0  0  0  0  0  0  0  0
   -1.2630   -1.2415    0.0204 H   0  0  0  0  0  0  0  0  0  0  0  0
   -3.6757   -0.5016   -0.7481 H   0  0  0  0  0  0  0  0  0  0  0  0
   -3.7396    1.2039   -0.0346 H   0  0  0  0  0  0  0  0  0  0  0  0
   -2.1194    1.6230   -1.6620 H   0  0  0  0  0  0  0  0  0  0  0  0
   -1.5999   -0.1480   -1.6852 H   0  0  0  0  0  0  0  0  0  0  0  0
   -1.2600    1.7242    0.7239 H   0  0  0  0  0  0  0  0  0  0  0  0
  1  2  1  0
  2  3  2  0
  2  4  2  0
  2  5  1  0
  5  6  1  0
  6  7  1  0
  7  8  1  0
  8  9  1  0
  9 10  1  0
 10 11  1  0
 11 12  1  0
 12  6  1  0
 12  8  1  0
  1 13  1  0
  1 14  1  0
  5 15  1  0
  6 16  1  1
  7 17  1  0
  7 18  1  0
  8 19  1  6
 10 20  1  0
 10 21  1  0
 11 22  1  0
 11 23  1  0
 12 24  1  1
M  END
$$$$

     RDKit          3D

 24 25  0  0  0  0  0  0  0  0999 V2000
    3.4402    0.9017   -0.3205 N   0  0  0  0  0  0  0  0  0  0  0  0
    2.7604   -0.6598   -0.0893 S   0  0  0  0  0  6  0  0  0  0  0  0
    3.4154   -1.6076   -1.0469 O   0  0  0  0  0  0  0  0  0  0  0  0
    3.0687   -1.1056    1.3129 O   0  0  0  0  0  0  0  0  0  0  0  0
    1.0420   -0.6548   -0.3774 N   0  0  0  0  0  0  0  0  0  0  0  0
    0.3186   -0.3728    0.8072 C   0  0  2  0  0  0  0  0  0  0  0  0
   -0.6607   -1.4924    1.2483 C   0  0  0  0  0  0  0  0  0  0  0  0
   -1.5858   -0.8422    0.3536 C   0  0  1  0  0  0  0  0  0  0  0  0
   -2.8214   -0.4108    0.5986 O   0  0  0  0  0  0  0  0  0  0  0  0
   -2.8768    0.8146   -0.1165 C   0  0  0  0  0  0  0  0  0  0  0  0
   -1.4068    1.2650   -0.2644 C   0  0  0  0  0  0  0  0  0  0  0  0
   -0.8439    0.4583    0.8076 C   0  0  2  0  0  0  0  0  0  0  0  0
    4.3214    0.8632   -0.8692 H   0  0  0  0  0  0  0  0  0  0  0  0
    2.7542    1.5974   -0.6842 H   0  0  0  0  0  0  0  0  0  0  0  0
    0.8806    0.1160   -1.0697 H   0  0  0  0  0  0  0  0  0  0  0  0
    1.0129   -0.2154    1.6672 H   0  0  0  0  0  0  0  0  0  0  0  0
   -0.2927   -2.4700    0.8884 H   0  0  0  0  0  0  0  0  0  0  0  0
   -0.8744   -1.4625    2.3301 H   0  0  0  0  0  0  0  0  0  0  0  0
   -1.3796   -1.0317   -0.7183 H   0  0  0  0  0  0  0  0  0  0  0  0
   -3.3407    1.5464    0.5554 H   0  0  0  0  0  0  0  0  0  0  0  0
   -3.3630    0.7059   -1.0823 H   0  0  0  0  0  0  0  0  0  0  0  0
   -1.0802    0.9449   -1.2770 H   0  0  0  0  0  0  0  0  0  0  0  0
   -1.3072    2.3352   -0.0904 H   0  0  0  0  0  0  0  0  0  0  0  0
   -1.1811    0.7769    1.8124 H   0  0  0  0  0  0  0  0  0  0  0  0
  1  2  1  0
  2  3  2  0
  2  4  2  0
  2  5  1  0
  5  6  1  0
  6  7  1  0
  7  8  1  0
  8  9  1  0
  9 10  1  0
 10 11  1  0
 11 12  1  0
 12  6  1  0
 12  8  1  0
  1 13  1  0
  1 14  1  0
  5 15  1  0
  6 16  1  1
  7 17  1  0
  7 18  1  0
  8 19  1  6
 10 20  1  0
 10 21  1  0
 11 22  1  0
 11 23  1  0
 12 24  1  1
M  END
$$$$

     RDKit          3D

 24 25  0  0  0  0  0  0  0  0999 V2000
    3.5373    0.0174   -1.2006 N   0  0  0  0  0  0  0  0  0  0  0  0
    2.6629    0.8610    0.0010 S   0  0  0  0  0  6  0  0  0  0  0  0
    2.9943    0.3907    1.3872 O   0  0  0  0  0  0  0  0  0  0  0  0
    3.0639    2.3190   -0.0775 O   0  0  0  0  0  0  0  0  0  0  0  0
    0.9722    0.7177   -0.3289 N   0  0  0  0  0  0  0  0  0  0  0  0
    0.4042   -0.4153    0.2985 C   0  0  2  0  0  0  0  0  0  0  0  0
   -0.2280   -1.4479   -0.6709 C   0  0  0  0  0  0  0  0  0  0  0  0
   -1.4138   -0.6486   -0.5282 C   0  0  1  0  0  0  0  0  0  0  0  0
   -2.6445   -1.0084   -0.1793 O   0  0  0  0  0  0  0  0  0  0  0  0
   -3.0738    0.1141    0.5828 C   0  0  0  0  0  0  0  0  0  0  0  0
   -1.7773    0.7228    1.1622 C   0  0  0  0  0  0  0  0  0  0  0  0
   -0.8829   -0.3899    0.9201 C   0  0  2  0  0  0  0  0  0  0  0  0
    3.0546    0.2016   -2.1246 H   0  0  0  0  0  0  0  0  0  0  0  0
    4.5119    0.3632   -1.3041 H   0  0  0  0  0  0  0  0  0  0  0  0
    0.8394    0.7711   -1.3602 H   0  0  0  0  0  0  0  0  0  0  0  0
    1.1821   -0.9776    0.8777 H   0  0  0  0  0  0  0  0  0  0  0  0
    0.2632   -1.3307   -1.6781 H   0  0  0  0  0  0  0  0  0  0  0  0
   -0.2141   -2.4727   -0.2835 H   0  0  0  0  0  0  0  0  0  0  0  0
   -1.3930    0.2919   -1.1213 H   0  0  0  0  0  0  0  0  0  0  0  0
   -3.5401    0.7945   -0.1386 H   0  0  0  0  0  0  0  0  0  0  0  0
   -3.7519   -0.1907    1.3915 H   0  0  0  0  0  0  0  0  0  0  0  0
   -1.5496    1.6370    0.5981 H   0  0  0  0  0  0  0  0  0  0  0  0
   -1.9100    0.9549    2.2353 H   0  0  0  0  0  0  0  0  0  0  0  0
   -1.1070   -1.2752    1.5415 H   0  0  0  0  0  0  0  0  0  0  0  0
  1  2  1  0
  2  3  2  0
  2  4  2  0
  2  5  1  0
  5  6  1  0
  6  7  1  0
  7  8  1  0
  8  9  1  0
  9 10  1  0
 10 11  1  0
 11 12  1  0
 12  6  1  0
 12  8  1  0
  1 13  1  0
  1 14  1  0
  5 15  1  0
  6 16  1  1
  7 17  1  0
  7 18  1  0
  8 19  1  6
 10 20  1  0
 10 21  1  0
 11 22  1  0
 11 23  1  0
 12 24  1  1
M  END
$$$$

     RDKit          3D

 24 25  0  0  0  0  0  0  0  0999 V2000
    3.0914    1.1798    0.7611 N   0  0  0  0  0  0  0  0  0  0  0  0
    2.6451    0.2029   -0.5947 S   0  0  0  0  0  6  0  0  0  0  0  0
    3.1717   -1.1857   -0.4484 O   0  0  0  0  0  0  0  0  0  0  0  0
    3.2132    0.8290   -1.8563 O   0  0  0  0  0  0  0  0  0  0  0  0
    0.9185    0.2107   -0.6811 N   0  0  0  0  0  0  0  0  0  0  0  0
    0.3589   -0.8628    0.0835 C   0  0  2  0  0  0  0  0  0  0  0  0
   -0.5407   -1.7134   -0.8567 C   0  0  0  0  0  0  0  0  0  0  0  0
   -1.4321   -0.5964   -0.7324 C   0  0  1  0  0  0  0  0  0  0  0  0
   -2.7272   -0.5662   -0.4132 O   0  0  0  0  0  0  0  0  0  0  0  0
   -2.7638    0.6829    0.2725 C   0  0  0  0  0  0  0  0  0  0  0  0
   -1.4653    0.7033    1.1085 C   0  0  0  0  0  0  0  0  0  0  0  0
   -0.8981   -0.5743    0.7357 C   0  0  2  0  0  0  0  0  0  0  0  0
    2.9382    2.1790    0.4987 H   0  0  0  0  0  0  0  0  0  0  0  0
    4.1052    1.0070    0.9496 H   0  0  0  0  0  0  0  0  0  0  0  0
    0.5582    1.1452   -0.3832 H   0  0  0  0  0  0  0  0  0  0  0  0
    1.1282   -1.4850    0.5878 H   0  0  0  0  0  0  0  0  0  0  0  0
   -0.8238   -2.6557   -0.3570 H   0  0  0  0  0  0  0  0  0  0  0  0
   -0.0166   -1.8970   -1.7967 H   0  0  0  0  0  0  0  0  0  0  0  0
   -1.0925    0.3281   -1.2188 H   0  0  0  0  0  0  0  0  0  0  0  0
   -2.6223    1.4462   -0.5016 H   0  0  0  0  0  0  0  0  0  0  0  0
   -3.6505    0.7881    0.8846 H   0  0  0  0  0  0  0  0  0  0  0  0
   -0.9032    1.6139    0.9513 H   0  0  0  0  0  0  0  0  0  0  0  0
   -1.8146    0.6587    2.1831 H   0  0  0  0  0  0  0  0  0  0  0  0
   -1.3776   -1.4384    1.2387 H   0  0  0  0  0  0  0  0  0  0  0  0
  1  2  1  0
  2  3  2  0
  2  4  2  0
  2  5  1  0
  5  6  1  0
  6  7  1  0
  7  8  1  0
  8  9  1  0
  9 10  1  0
 10 11  1  0
 11 12  1  0
 12  6  1  0
 12  8  1  0
  1 13  1  0
  1 14  1  0
  5 15  1  0
  6 16  1  1
  7 17  1  0
  7 18  1  0
  8 19  1  6
 10 20  1  0
 10 21  1  0
 11 22  1  0
 11 23  1  0
 12 24  1  1
M  END
$$$$

     RDKit          3D

 24 25  0  0  0  0  0  0  0  0999 V2000
    3.5058    0.8801   -0.5174 N   0  0  0  0  0  0  0  0  0  0  0  0
    2.6696   -0.2987    0.4159 S   0  0  0  0  0  6  0  0  0  0  0  0
    3.2936   -0.5482    1.7349 O   0  0  0  0  0  0  0  0  0  0  0  0
    2.7113   -1.6055   -0.3601 O   0  0  0  0  0  0  0  0  0  0  0  0
    1.0363    0.2395    0.6006 N   0  0  0  0  0  0  0  0  0  0  0  0
    0.2934   -0.2958   -0.5080 C   0  0  2  0  0  0  0  0  0  0  0  0
   -0.4593    0.7855   -1.3243 C   0  0  0  0  0  0  0  0  0  0  0  0
   -1.4301    0.7147   -0.2681 C   0  0  1  0  0  0  0  0  0  0  0  0
   -2.7403    0.4993   -0.3262 O   0  0  0  0  0  0  0  0  0  0  0  0
   -2.9648   -0.2759    0.8461 C   0  0  0  0  0  0  0  0  0  0  0  0
   -1.6295   -1.0105    1.1016 C   0  0  0  0  0  0  0  0  0  0  0  0
   -1.0134   -0.7915   -0.1933 C   0  0  2  0  0  0  0  0  0  0  0  0
    4.4930    0.6187   -0.7161 H   0  0  0  0  0  0  0  0  0  0  0  0
    3.4018    1.8397   -0.1295 H   0  0  0  0  0  0  0  0  0  0  0  0
    0.9581    1.2564    0.7020 H   0  0  0  0  0  0  0  0  0  0  0  0
    0.8621   -0.9137   -1.2305 H   0  0  0  0  0  0  0  0  0  0  0  0
   -0.7022    0.4653   -2.3346 H   0  0  0  0  0  0  0  0  0  0  0  0
    0.1722    1.6977   -1.3078 H   0  0  0  0  0  0  0  0  0  0  0  0
   -1.1167    1.2263    0.6632 H   0  0  0  0  0  0  0  0  0  0  0  0
   -3.2187    0.3766    1.6875 H   0  0  0  0  0  0  0  0  0  0  0  0
   -3.7065   -1.0591    0.6257 H   0  0  0  0  0  0  0  0  0  0  0  0
   -1.7970   -2.0491    1.4020 H   0  0  0  0  0  0  0  0  0  0  0  0
   -1.1073   -0.4154    1.8912 H   0  0  0  0  0  0  0  0  0  0  0  0
   -1.5111   -1.3363   -1.0137 H   0  0  0  0  0  0  0  0  0  0  0  0
  1  2  1  0
  2  3  2  0
  2  4  2  0
  2  5  1  0
  5  6  1  0
  6  7  1  0
  7  8  1  0
  8  9  1  0
  9 10  1  0
 10 11  1  0
 11 12  1  0
 12  6  1  0
 12  8  1  0
  1 13  1  0
  1 14  1  0
  5 15  1  0
  6 16  1  6
  7 17  1  0
  7 18  1  0
  8 19  1  1
 10 20  1  0
 10 21  1  0
 11 22  1  0
 11 23  1  0
 12 24  1  6
M  END
$$$$

     RDKit          3D

 24 25  0  0  0  0  0  0  0  0999 V2000
    3.7105   -0.0870    0.8638 N   0  0  0  0  0  0  0  0  0  0  0  0
    2.6494   -0.8807   -0.2134 S   0  0  0  0  0  6  0  0  0  0  0  0
    3.0713   -2.3119   -0.3554 O   0  0  0  0  0  0  0  0  0  0  0  0
    2.7656   -0.2175   -1.5603 O   0  0  0  0  0  0  0  0  0  0  0  0
    0.9971   -0.7689    0.2806 N   0  0  0  0  0  0  0  0  0  0  0  0
    0.4172    0.3836   -0.2823 C   0  0  2  0  0  0  0  0  0  0  0  0
   -0.1589    1.2682    0.8602 C   0  0  0  0  0  0  0  0  0  0  0  0
   -1.3170    0.4011    0.7433 C   0  0  1  0  0  0  0  0  0  0  0  0
   -2.5965    0.7771    0.5572 O   0  0  0  0  0  0  0  0  0  0  0  0
   -3.0511   -0.2728   -0.2921 C   0  0  0  0  0  0  0  0  0  0  0  0
   -1.8298   -0.6164   -1.1765 C   0  0  0  0  0  0  0  0  0  0  0  0
   -0.9314    0.4274   -0.7737 C   0  0  2  0  0  0  0  0  0  0  0  0
    3.9051    0.9016    0.6056 H   0  0  0  0  0  0  0  0  0  0  0  0
    3.5141   -0.2431    1.8588 H   0  0  0  0  0  0  0  0  0  0  0  0
    1.0071   -0.8082    1.3304 H   0  0  0  0  0  0  0  0  0  0  0  0
    1.1293    0.9665   -0.9124 H   0  0  0  0  0  0  0  0  0  0  0  0
   -0.3068    2.2724    0.4795 H   0  0  0  0  0  0  0  0  0  0  0  0
    0.3925    1.1487    1.8057 H   0  0  0  0  0  0  0  0  0  0  0  0
   -1.2549   -0.6295    1.1464 H   0  0  0  0  0  0  0  0  0  0  0  0
   -3.2814   -1.1107    0.3891 H   0  0  0  0  0  0  0  0  0  0  0  0
   -3.8950    0.0749   -0.8883 H   0  0  0  0  0  0  0  0  0  0  0  0
   -2.1723   -0.4541   -2.2409 H   0  0  0  0  0  0  0  0  0  0  0  0
   -1.5424   -1.6539   -1.0732 H   0  0  0  0  0  0  0  0  0  0  0  0
   -1.2217    1.4330   -1.1521 H   0  0  0  0  0  0  0  0  0  0  0  0
  1  2  1  0
  2  3  2  0
  2  4  2  0
  2  5  1  0
  5  6  1  0
  6  7  1  0
  7  8  1  0
  8  9  1  0
  9 10  1  0
 10 11  1  0
 11 12  1  0
 12  6  1  0
 12  8  1  0
  1 13  1  0
  1 14  1  0
  5 15  1  0
  6 16  1  6
  7 17  1  0
  7 18  1  0
  8 19  1  1
 10 20  1  0
 10 21  1  0
 11 22  1  0
 11 23  1  0
 12 24  1  6
M  END
$$$$

     RDKit          3D

 24 25  0  0  0  0  0  0  0  0999 V2000
    3.8061    0.0068    0.4738 N   0  0  0  0  0  0  0  0  0  0  0  0
    2.5706   -1.1075    0.0300 S   0  0  0  0  0  6  0  0  0  0  0  0
    2.5431   -1.1374   -1.4917 O   0  0  0  0  0  0  0  0  0  0  0  0
    2.9156   -2.4943    0.4803 O   0  0  0  0  0  0  0  0  0  0  0  0
    1.0235   -0.6193    0.5903 N   0  0  0  0  0  0  0  0  0  0  0  0
    0.3498    0.1929   -0.3527 C   0  0  2  0  0  0  0  0  0  0  0  0
   -0.0253    1.6038    0.1756 C   0  0  0  0  0  0  0  0  0  0  0  0
   -1.2016    0.9260    0.6919 C   0  0  1  0  0  0  0  0  0  0  0  0
   -2.4805    1.2664    0.5082 O   0  0  0  0  0  0  0  0  0  0  0  0
   -3.1147    0.0126    0.3093 C   0  0  0  0  0  0  0  0  0  0  0  0
   -1.9982   -0.9375   -0.1760 C   0  0  0  0  0  0  0  0  0  0  0  0
   -1.0496    0.0687   -0.6071 C   0  0  2  0  0  0  0  0  0  0  0  0
    3.4617    0.7521    1.1160 H   0  0  0  0  0  0  0  0  0  0  0  0
    4.6536   -0.4845    0.8393 H   0  0  0  0  0  0  0  0  0  0  0  0
    1.0124   -0.2867    1.5630 H   0  0  0  0  0  0  0  0  0  0  0  0
    0.9761    0.3487   -1.2792 H   0  0  0  0  0  0  0  0  0  0  0  0
    0.7095    1.9875    0.8920 H   0  0  0  0  0  0  0  0  0  0  0  0
   -0.2427    2.2632   -0.6887 H   0  0  0  0  0  0  0  0  0  0  0  0
   -1.0142    0.2786    1.5743 H   0  0  0  0  0  0  0  0  0  0  0  0
   -3.7980    0.1602   -0.5515 H   0  0  0  0  0  0  0  0  0  0  0  0
   -3.5884   -0.3533    1.2152 H   0  0  0  0  0  0  0  0  0  0  0  0
   -2.3784   -1.6178   -0.9456 H   0  0  0  0  0  0  0  0  0  0  0  0
   -1.7101   -1.5216    0.7106 H   0  0  0  0  0  0  0  0  0  0  0  0
   -1.4204    0.6924   -1.4375 H   0  0  0  0  0  0  0  0  0  0  0  0
  1  2  1  0
  2  3  2  0
  2  4  2  0
  2  5  1  0
  5  6  1  0
  6  7  1  0
  7  8  1  0
  8  9  1  0
  9 10  1  0
 10 11  1  0
 11 12  1  0
 12  6  1  0
 12  8  1  0
  1 13  1  0
  1 14  1  0
  5 15  1  0
  6 16  1  6
  7 17  1  0
  7 18  1  0
  8 19  1  1
 10 20  1  0
 10 21  1  0
 11 22  1  0
 11 23  1  0
 12 24  1  6
M  END
$$$$

     RDKit          3D

 24 25  0  0  0  0  0  0  0  0999 V2000
   -3.4695    0.7713   -0.3252 N   0  0  0  0  0  0  0  0  0  0  0  0
   -2.7321   -0.6869    0.1921 S   0  0  0  0  0  6  0  0  0  0  0  0
   -3.5489   -1.3424    1.2673 O   0  0  0  0  0  0  0  0  0  0  0  0
   -2.7498   -1.6438   -0.9915 O   0  0  0  0  0  0  0  0  0  0  0  0
   -1.0940   -0.4545    0.6910 N   0  0  0  0  0  0  0  0  0  0  0  0
   -0.2449   -0.6293   -0.4384 C   0  0  2  0  0  0  0  0  0  0  0  0
    0.8155   -1.7482   -0.2605 C   0  0  0  0  0  0  0  0  0  0  0  0
    1.5905   -0.7238    0.3850 C   0  0  1  0  0  0  0  0  0  0  0  0
    2.8320   -0.3145    0.1315 O   0  0  0  0  0  0  0  0  0  0  0  0
    2.7373    1.0867    0.3635 C   0  0  0  0  0  0  0  0  0  0  0  0
    1.2563    1.4349    0.0828 C   0  0  0  0  0  0  0  0  0  0  0  0
    0.8877    0.2287   -0.6385 C   0  0  2  0  0  0  0  0  0  0  0  0
   -4.1650    1.1529    0.3230 H   0  0  0  0  0  0  0  0  0  0  0  0
   -2.8251    1.4465   -0.7535 H   0  0  0  0  0  0  0  0  0  0  0  0
   -1.0198    0.5378    1.0100 H   0  0  0  0  0  0  0  0  0  0  0  0
   -0.7900   -0.8747   -1.3944 H   0  0  0  0  0  0  0  0  0  0  0  0
    1.1498   -2.1780   -1.2067 H   0  0  0  0  0  0  0  0  0  0  0  0
    0.4071   -2.5211    0.4373 H   0  0  0  0  0  0  0  0  0  0  0  0
    1.2574   -0.4865    1.4125 H   0  0  0  0  0  0  0  0  0  0  0  0
    3.3451    1.5834   -0.3983 H   0  0  0  0  0  0  0  0  0  0  0  0
    3.0234    1.3451    1.3821 H   0  0  0  0  0  0  0  0  0  0  0  0
    1.1883    2.3922   -0.4608 H   0  0  0  0  0  0  0  0  0  0  0  0
    0.7893    1.4781    1.0914 H   0  0  0  0  0  0  0  0  0  0  0  0
    1.3592    0.1463   -1.6330 H   0  0  0  0  0  0  0  0  0  0  0  0
  1  2  1  0
  2  3  2  0
  2  4  2  0
  2  5  1  0
  5  6  1  0
  6  7  1  0
  7  8  1  0
  8  9  1  0
  9 10  1  0
 10 11  1  0
 11 12  1  0
 12  6  1  0
 12  8  1  0
  1 13  1  0
  1 14  1  0
  5 15  1  0
  6 16  1  6
  7 17  1  0
  7 18  1  0
  8 19  1  1
 10 20  1  0
 10 21  1  0
 11 22  1  0
 11 23  1  0
 12 24  1  6
M  END
$$$$
