
     RDKit          3D

 24 25  0  0  0  0  0  0  0  0999 V2000
    4.7901   -0.9411    0.4017 N   0  0  0  0  0  0  0  0  0  0  0  0
    3.4120   -0.7657    0.1031 C   0  0  0  0  0  0  0  0  0  0  0  0
    2.6921   -1.7675   -0.1313 O   0  0  0  0  0  0  0  0  0  0  0  0
    2.8344    0.5809    0.0692 C   0  0  0  0  0  0  0  0  0  0  0  0
    1.4164    0.5182   -0.2555 N   0  0  0  0  0  0  0  0  0  0  0  0
    0.3951    0.4071    0.6339 C   0  0  0  0  0  0  0  0  0  0  0  0
   -0.8033    0.3779   -0.0462 C   0  0  0  0  0  0  0  0  0  0  0  0
   -2.1716    0.2651    0.5354 C   0  0  2  0  0  0  0  0  0  0  0  0
   -2.9332   -0.9195    0.0101 C   0  0  0  0  0  0  0  0  0  0  0  0
   -3.9264    0.0914   -0.5147 C   0  0  0  0  0  0  0  0  0  0  0  0
   -3.0998    1.2006   -0.0720 N   0  0  0  0  0  0  0  0  0  0  0  0
   -0.4746    0.4730   -1.3452 N   0  0  0  0  0  0  0  0  0  0  0  0
    0.8395    0.5545   -1.4420 N   0  0  0  0  0  0  0  0  0  0  0  0
    5.4406   -0.1682    0.1805 H   0  0  0  0  0  0  0  0  0  0  0  0
    5.1407   -1.8294    0.8348 H   0  0  0  0  0  0  0  0  0  0  0  0
    3.3443    1.2220   -0.6800 H   0  0  0  0  0  0  0  0  0  0  0  0
    2.9779    1.0503    1.0694 H   0  0  0  0  0  0  0  0  0  0  0  0
    0.5456    0.3528    1.7081 H   0  0  0  0  0  0  0  0  0  0  0  0
   -2.1832    0.3543    1.6407 H   0  0  0  0  0  0  0  0  0  0  0  0
   -3.3684   -1.5421    0.8183 H   0  0  0  0  0  0  0  0  0  0  0  0
   -2.3973   -1.4743   -0.7672 H   0  0  0  0  0  0  0  0  0  0  0  0
   -4.0079    0.0455   -1.6038 H   0  0  0  0  0  0  0  0  0  0  0  0
   -4.9040    0.0540   -0.0110 H   0  0  0  0  0  0  0  0  0  0  0  0
   -3.5592    1.8602    0.5808 H   0  0  0  0  0  0  0  0  0  0  0  0
  1  2  1  0
  2  3  2  0
  2  4  1  0
  4  5  1  0
  5  6  1  0
  6  7  2  0
  7  8  1  0
  8  9  1  0
  9 10  1  0
 10 11  1  0
  7 12  1  0
 12 13  2  0
 13  5  1  0
 11  8  1  0
  1 14  1  0
  1 15  1  0
  4 16  1  0
  4 17  1  0
  6 18  1  0
  8 19  1  1
  9 20  1  0
  9 21  1  0
 10 22  1  0
 10 23  1  0
 11 24  1  0
M  END
$$$$

     RDKit          3D

 24 25  0  0  0  0  0  0  0  0999 V2000
    3.4599   -0.4973   -0.4830 N   0  0  0  0  0  0  0  0  0  0  0  0
    3.6320    0.8717   -0.1535 C   0  0  0  0  0  0  0  0  0  0  0  0
    4.7899    1.2839    0.1299 O   0  0  0  0  0  0  0  0  0  0  0  0
    2.4795    1.7759   -0.1467 C   0  0  0  0  0  0  0  0  0  0  0  0
    1.2872    1.0175   -0.5120 N   0  0  0  0  0  0  0  0  0  0  0  0
    0.4746    0.3808    0.3458 C   0  0  0  0  0  0  0  0  0  0  0  0
   -0.5229   -0.2065   -0.3960 C   0  0  0  0  0  0  0  0  0  0  0  0
   -1.6492   -1.0167    0.1249 C   0  0  2  0  0  0  0  0  0  0  0  0
   -2.9527   -0.8162   -0.6214 C   0  0  0  0  0  0  0  0  0  0  0  0
   -3.5502   -0.9731    0.7623 C   0  0  0  0  0  0  0  0  0  0  0  0
   -2.3045   -0.4490    1.2929 N   0  0  0  0  0  0  0  0  0  0  0  0
   -0.2850    0.0910   -1.6733 N   0  0  0  0  0  0  0  0  0  0  0  0
    0.7945    0.8193   -1.7266 N   0  0  0  0  0  0  0  0  0  0  0  0
    3.7151   -1.2744    0.1641 H   0  0  0  0  0  0  0  0  0  0  0  0
    3.0597   -0.7979   -1.4121 H   0  0  0  0  0  0  0  0  0  0  0  0
    2.6383    2.6032   -0.8714 H   0  0  0  0  0  0  0  0  0  0  0  0
    2.3098    2.1657    0.8874 H   0  0  0  0  0  0  0  0  0  0  0  0
    0.6115    0.3552    1.4284 H   0  0  0  0  0  0  0  0  0  0  0  0
   -1.4103   -2.0835    0.3148 H   0  0  0  0  0  0  0  0  0  0  0  0
   -3.0152    0.2014   -1.0508 H   0  0  0  0  0  0  0  0  0  0  0  0
   -3.2067   -1.6412   -1.3193 H   0  0  0  0  0  0  0  0  0  0  0  0
   -4.4468   -0.3520    0.9531 H   0  0  0  0  0  0  0  0  0  0  0  0
   -3.6506   -2.0519    0.9987 H   0  0  0  0  0  0  0  0  0  0  0  0
   -2.2580    0.5942    1.2669 H   0  0  0  0  0  0  0  0  0  0  0  0
  1  2  1  0
  2  3  2  0
  2  4  1  0
  4  5  1  0
  5  6  1  0
  6  7  2  0
  7  8  1  0
  8  9  1  0
  9 10  1  0
 10 11  1  0
  7 12  1  0
 12 13  2  0
 13  5  1  0
 11  8  1  0
  1 14  1  0
  1 15  1  0
  4 16  1  0
  4 17  1  0
  6 18  1  0
  8 19  1  1
  9 20  1  0
  9 21  1  0
 10 22  1  0
 10 23  1  0
 11 24  1  0
M  END
$$$$

     RDKit          3D

 24 25  0  0  0  0  0  0  0  0999 V2000
   -4.0880   -0.5250   -0.6842 N   0  0  0  0  0  0  0  0  0  0  0  0
   -3.3146   -0.7423    0.4856 C   0  0  0  0  0  0  0  0  0  0  0  0
   -3.1214   -1.8955    0.9181 O   0  0  0  0  0  0  0  0  0  0  0  0
   -2.7271    0.4150    1.2049 C   0  0  0  0  0  0  0  0  0  0  0  0
   -1.4167    0.6481    0.6375 N   0  0  0  0  0  0  0  0  0  0  0  0
   -0.2294    0.1354    1.0082 C   0  0  0  0  0  0  0  0  0  0  0  0
    0.7310    0.6528    0.1675 C   0  0  0  0  0  0  0  0  0  0  0  0
    2.1691    0.4205    0.1410 C   0  0  2  0  0  0  0  0  0  0  0  0
    2.7983    0.3660   -1.2560 C   0  0  0  0  0  0  0  0  0  0  0  0
    3.7520   -0.5953   -0.5363 C   0  0  0  0  0  0  0  0  0  0  0  0
    2.5824   -0.9786    0.2720 N   0  0  0  0  0  0  0  0  0  0  0  0
    0.0866    1.4646   -0.6866 N   0  0  0  0  0  0  0  0  0  0  0  0
   -1.1986    1.4472   -0.3875 N   0  0  0  0  0  0  0  0  0  0  0  0
   -4.1085    0.4265   -1.1335 H   0  0  0  0  0  0  0  0  0  0  0  0
   -4.6529   -1.2668   -1.1402 H   0  0  0  0  0  0  0  0  0  0  0  0
   -3.3649    1.2851    1.0157 H   0  0  0  0  0  0  0  0  0  0  0  0
   -2.6217    0.1843    2.2859 H   0  0  0  0  0  0  0  0  0  0  0  0
   -0.0864   -0.5524    1.8191 H   0  0  0  0  0  0  0  0  0  0  0  0
    2.7951    1.0378    0.8078 H   0  0  0  0  0  0  0  0  0  0  0  0
    2.1707   -0.1877   -1.9580 H   0  0  0  0  0  0  0  0  0  0  0  0
    3.2580    1.2938   -1.5833 H   0  0  0  0  0  0  0  0  0  0  0  0
    4.1582   -1.3838   -1.1644 H   0  0  0  0  0  0  0  0  0  0  0  0
    4.4350   -0.0242    0.1001 H   0  0  0  0  0  0  0  0  0  0  0  0
    1.9940   -1.6254   -0.3333 H   0  0  0  0  0  0  0  0  0  0  0  0
  1  2  1  0
  2  3  2  0
  2  4  1  0
  4  5  1  0
  5  6  1  0
  6  7  2  0
  7  8  1  0
  8  9  1  0
  9 10  1  0
 10 11  1  0
  7 12  1  0
 12 13  2  0
 13  5  1  0
 11  8  1  0
  1 14  1  0
  1 15  1  0
  4 16  1  0
  4 17  1  0
  6 18  1  0
  8 19  1  1
  9 20  1  0
  9 21  1  0
 10 22  1  0
 10 23  1  0
 11 24  1  0
M  END
$$$$

     RDKit          3D

 24 25  0  0  0  0  0  0  0  0999 V2000
   -4.4083    0.1355   -1.2186 N   0  0  0  0  0  0  0  0  0  0  0  0
   -3.0791    0.3484   -0.7948 C   0  0  0  0  0  0  0  0  0  0  0  0
   -2.2328    0.9048   -1.5368 O   0  0  0  0  0  0  0  0  0  0  0  0
   -2.6892   -0.1007    0.5597 C   0  0  0  0  0  0  0  0  0  0  0  0
   -1.2834    0.2112    0.7991 N   0  0  0  0  0  0  0  0  0  0  0  0
   -0.2455   -0.5927    0.5236 C   0  0  0  0  0  0  0  0  0  0  0  0
    0.9389    0.0331    0.8841 C   0  0  0  0  0  0  0  0  0  0  0  0
    2.2959   -0.5227    0.7404 C   0  0  2  0  0  0  0  0  0  0  0  0
    3.3088    0.5499    0.4094 C   0  0  0  0  0  0  0  0  0  0  0  0
    3.0994    0.0818   -1.0142 C   0  0  0  0  0  0  0  0  0  0  0  0
    2.6051   -1.1602   -0.5036 N   0  0  0  0  0  0  0  0  0  0  0  0
    0.5498    1.2292    1.3785 N   0  0  0  0  0  0  0  0  0  0  0  0
   -0.7681    1.3212    1.3222 N   0  0  0  0  0  0  0  0  0  0  0  0
   -4.9913    0.9391   -1.5114 H   0  0  0  0  0  0  0  0  0  0  0  0
   -4.8130   -0.8108   -1.2427 H   0  0  0  0  0  0  0  0  0  0  0  0
   -3.2993    0.3873    1.3429 H   0  0  0  0  0  0  0  0  0  0  0  0
   -2.7943   -1.2143    0.5966 H   0  0  0  0  0  0  0  0  0  0  0  0
   -0.2973   -1.5841    0.0864 H   0  0  0  0  0  0  0  0  0  0  0  0
    2.6184   -1.1570    1.5908 H   0  0  0  0  0  0  0  0  0  0  0  0
    4.3211    0.3427    0.7961 H   0  0  0  0  0  0  0  0  0  0  0  0
    2.9487    1.5873    0.5423 H   0  0  0  0  0  0  0  0  0  0  0  0
    4.0410   -0.0593   -1.5846 H   0  0  0  0  0  0  0  0  0  0  0  0
    2.3809    0.7152   -1.5595 H   0  0  0  0  0  0  0  0  0  0  0  0
    1.7935   -1.5845   -0.9943 H   0  0  0  0  0  0  0  0  0  0  0  0
  1  2  1  0
  2  3  2  0
  2  4  1  0
  4  5  1  0
  5  6  1  0
  6  7  2  0
  7  8  1  0
  8  9  1  0
  9 10  1  0
 10 11  1  0
  7 12  1  0
 12 13  2  0
 13  5  1  0
 11  8  1  0
  1 14  1  0
  1 15  1  0
  4 16  1  0
  4 17  1  0
  6 18  1  0
  8 19  1  1
  9 20  1  0
  9 21  1  0
 10 22  1  0
 10 23  1  0
 11 24  1  0
M  END
$$$$

     RDKit          3D

 24 25  0  0  0  0  0  0  0  0999 V2000
    4.8861    0.1246   -0.2731 N   0  0  0  0  0  0  0  0  0  0  0  0
    3.5271    0.2678    0.0520 C   0  0  0  0  0  0  0  0  0  0  0  0
    3.1047   -0.2660    1.1096 O   0  0  0  0  0  0  0  0  0  0  0  0
    2.6359    1.0283   -0.8375 C   0  0  0  0  0  0  0  0  0  0  0  0
    1.3109    1.0235   -0.2817 N   0  0  0  0  0  0  0  0  0  0  0  0
    0.3860    0.0748   -0.5650 C   0  0  0  0  0  0  0  0  0  0  0  0
   -0.7708    0.3646    0.1289 C   0  0  0  0  0  0  0  0  0  0  0  0
   -2.0516   -0.3880    0.1350 C   0  0  2  0  0  0  0  0  0  0  0  0
   -3.2361    0.5114   -0.1926 C   0  0  0  0  0  0  0  0  0  0  0  0
   -3.9454   -0.3609    0.8188 C   0  0  0  0  0  0  0  0  0  0  0  0
   -2.6395   -0.5893    1.4404 N   0  0  0  0  0  0  0  0  0  0  0  0
   -0.5027    1.4894    0.8145 N   0  0  0  0  0  0  0  0  0  0  0  0
    0.7567    1.8670    0.5512 N   0  0  0  0  0  0  0  0  0  0  0  0
    5.3172   -0.8151   -0.2984 H   0  0  0  0  0  0  0  0  0  0  0  0
    5.4508    0.9566   -0.4859 H   0  0  0  0  0  0  0  0  0  0  0  0
    2.5881    0.5923   -1.8696 H   0  0  0  0  0  0  0  0  0  0  0  0
    2.9792    2.0776   -0.9808 H   0  0  0  0  0  0  0  0  0  0  0  0
    0.5068   -0.7900   -1.2301 H   0  0  0  0  0  0  0  0  0  0  0  0
   -2.0755   -1.2897   -0.4731 H   0  0  0  0  0  0  0  0  0  0  0  0
   -3.0592    1.5500    0.1669 H   0  0  0  0  0  0  0  0  0  0  0  0
   -3.5708    0.4311   -1.2284 H   0  0  0  0  0  0  0  0  0  0  0  0
   -4.3582   -1.2536    0.2918 H   0  0  0  0  0  0  0  0  0  0  0  0
   -4.6513    0.2020    1.4439 H   0  0  0  0  0  0  0  0  0  0  0  0
   -2.5882   -1.5856    1.7633 H   0  0  0  0  0  0  0  0  0  0  0  0
  1  2  1  0
  2  3  2  0
  2  4  1  0
  4  5  1  0
  5  6  1  0
  6  7  2  0
  7  8  1  0
  8  9  1  0
  9 10  1  0
 10 11  1  0
  7 12  1  0
 12 13  2  0
 13  5  1  0
 11  8  1  0
  1 14  1  0
  1 15  1  0
  4 16  1  0
  4 17  1  0
  6 18  1  0
  8 19  1  6
  9 20  1  0
  9 21  1  0
 10 22  1  0
 10 23  1  0
 11 24  1  0
M  END
$$$$

     RDKit          3D

 24 25  0  0  0  0  0  0  0  0999 V2000
    3.5699    0.7073   -0.7356 N   0  0  0  0  0  0  0  0  0  0  0  0
    3.6756   -0.6424   -0.3906 C   0  0  0  0  0  0  0  0  0  0  0  0
    4.7341   -1.2591   -0.6749 O   0  0  0  0  0  0  0  0  0  0  0  0
    2.6146   -1.4199    0.2988 C   0  0  0  0  0  0  0  0  0  0  0  0
    1.4457   -0.6085    0.5751 N   0  0  0  0  0  0  0  0  0  0  0  0
    0.3924   -0.4547   -0.2497 C   0  0  0  0  0  0  0  0  0  0  0  0
   -0.5316    0.3869    0.3408 C   0  0  0  0  0  0  0  0  0  0  0  0
   -1.8197    0.7980   -0.2530 C   0  0  2  0  0  0  0  0  0  0  0  0
   -2.9189    1.0813    0.7198 C   0  0  0  0  0  0  0  0  0  0  0  0
   -3.7513    0.1587   -0.1792 C   0  0  0  0  0  0  0  0  0  0  0  0
   -2.5495   -0.3158   -0.8497 N   0  0  0  0  0  0  0  0  0  0  0  0
    0.0109    0.7184    1.5293 N   0  0  0  0  0  0  0  0  0  0  0  0
    1.1872    0.1093    1.6371 N   0  0  0  0  0  0  0  0  0  0  0  0
    2.8562    1.0608   -1.4022 H   0  0  0  0  0  0  0  0  0  0  0  0
    4.2252    1.3966   -0.3161 H   0  0  0  0  0  0  0  0  0  0  0  0
    3.0316   -1.8634    1.2136 H   0  0  0  0  0  0  0  0  0  0  0  0
    2.3243   -2.2443   -0.3767 H   0  0  0  0  0  0  0  0  0  0  0  0
    0.2497   -0.9021   -1.2320 H   0  0  0  0  0  0  0  0  0  0  0  0
   -1.7400    1.6509   -0.9822 H   0  0  0  0  0  0  0  0  0  0  0  0
   -2.7843    0.7109    1.7472 H   0  0  0  0  0  0  0  0  0  0  0  0
   -3.3227    2.1280    0.6814 H   0  0  0  0  0  0  0  0  0  0  0  0
   -4.4138    0.7180   -0.8693 H   0  0  0  0  0  0  0  0  0  0  0  0
   -4.2599   -0.6578    0.3842 H   0  0  0  0  0  0  0  0  0  0  0  0
   -2.2257   -1.2568   -0.5290 H   0  0  0  0  0  0  0  0  0  0  0  0
  1  2  1  0
  2  3  2  0
  2  4  1  0
  4  5  1  0
  5  6  1  0
  6  7  2  0
  7  8  1  0
  8  9  1  0
  9 10  1  0
 10 11  1  0
  7 12  1  0
 12 13  2  0
 13  5  1  0
 11  8  1  0
  1 14  1  0
  1 15  1  0
  4 16  1  0
  4 17  1  0
  6 18  1  0
  8 19  1  6
  9 20  1  0
  9 21  1  0
 10 22  1  0
 10 23  1  0
 11 24  1  0
M  END
$$$$

     RDKit          3D

 24 25  0  0  0  0  0  0  0  0999 V2000
   -4.6340   -0.3598    0.8490 N   0  0  0  0  0  0  0  0  0  0  0  0
   -3.3576    0.0905    0.4170 C   0  0  0  0  0  0  0  0  0  0  0  0
   -2.8472    1.1523    0.8933 O   0  0  0  0  0  0  0  0  0  0  0  0
   -2.5888   -0.6694   -0.6022 C   0  0  0  0  0  0  0  0  0  0  0  0
   -1.3264   -0.0147   -0.8750 N   0  0  0  0  0  0  0  0  0  0  0  0
   -0.1537   -0.2239   -0.2463 C   0  0  0  0  0  0  0  0  0  0  0  0
    0.7795    0.5984   -0.8130 C   0  0  0  0  0  0  0  0  0  0  0  0
    2.2119    0.7646   -0.5001 C   0  0  2  0  0  0  0  0  0  0  0  0
    3.0383   -0.4977   -0.5219 C   0  0  0  0  0  0  0  0  0  0  0  0
    3.7713    0.1837    0.6309 C   0  0  0  0  0  0  0  0  0  0  0  0
    2.5055    0.8536    0.9395 N   0  0  0  0  0  0  0  0  0  0  0  0
    0.1338    1.2837   -1.7742 N   0  0  0  0  0  0  0  0  0  0  0  0
   -1.1257    0.9068   -1.8003 N   0  0  0  0  0  0  0  0  0  0  0  0
   -4.9084   -1.3575    0.8697 H   0  0  0  0  0  0  0  0  0  0  0  0
   -5.3285    0.3459    1.1602 H   0  0  0  0  0  0  0  0  0  0  0  0
   -2.4328   -1.6983   -0.2139 H   0  0  0  0  0  0  0  0  0  0  0  0
   -3.1728   -0.7023   -1.5495 H   0  0  0  0  0  0  0  0  0  0  0  0
    0.0374   -0.9077    0.5571 H   0  0  0  0  0  0  0  0  0  0  0  0
    2.7045    1.5888   -1.0145 H   0  0  0  0  0  0  0  0  0  0  0  0
    3.6365   -0.5829   -1.4526 H   0  0  0  0  0  0  0  0  0  0  0  0
    2.5291   -1.4186   -0.2032 H   0  0  0  0  0  0  0  0  0  0  0  0
    4.5023    0.9428    0.2399 H   0  0  0  0  0  0  0  0  0  0  0  0
    4.1445   -0.4861    1.4056 H   0  0  0  0  0  0  0  0  0  0  0  0
    1.8813    0.2077    1.4800 H   0  0  0  0  0  0  0  0  0  0  0  0
  1  2  1  0
  2  3  2  0
  2  4  1  0
  4  5  1  0
  5  6  1  0
  6  7  2  0
  7  8  1  0
  8  9  1  0
  9 10  1  0
 10 11  1  0
  7 12  1  0
 12 13  2  0
 13  5  1  0
 11  8  1  0
  1 14  1  0
  1 15  1  0
  4 16  1  0
  4 17  1  0
  6 18  1  0
  8 19  1  6
  9 20  1  0
  9 21  1  0
 10 22  1  0
 10 23  1  0
 11 24  1  0
M  END
$$$$

     RDKit          3D

 24 25  0  0  0  0  0  0  0  0999 V2000
   -3.3862    0.4620    0.9487 N   0  0  0  0  0  0  0  0  0  0  0  0
   -3.4129    0.9521   -0.3793 C   0  0  0  0  0  0  0  0  0  0  0  0
   -3.9701    2.0258   -0.6321 O   0  0  0  0  0  0  0  0  0  0  0  0
   -2.7530    0.1247   -1.4280 C   0  0  0  0  0  0  0  0  0  0  0  0
   -1.4614   -0.3288   -0.9140 N   0  0  0  0  0  0  0  0  0  0  0  0
   -0.2476    0.2450   -1.0503 C   0  0  0  0  0  0  0  0  0  0  0  0
    0.6679   -0.5242   -0.3719 C   0  0  0  0  0  0  0  0  0  0  0  0
    2.1099   -0.3800   -0.2347 C   0  0  2  0  0  0  0  0  0  0  0  0
    2.5072   -0.5661    1.2408 C   0  0  0  0  0  0  0  0  0  0  0  0
    3.6570    0.3417    0.7943 C   0  0  0  0  0  0  0  0  0  0  0  0
    2.6650    0.9395   -0.1120 N   0  0  0  0  0  0  0  0  0  0  0  0
   -0.0517   -1.5505    0.1565 N   0  0  0  0  0  0  0  0  0  0  0  0
   -1.3032   -1.4190   -0.1731 N   0  0  0  0  0  0  0  0  0  0  0  0
   -2.8532    0.8958    1.7194 H   0  0  0  0  0  0  0  0  0  0  0  0
   -3.9399   -0.4084    1.1823 H   0  0  0  0  0  0  0  0  0  0  0  0
   -3.3753   -0.7578   -1.6110 H   0  0  0  0  0  0  0  0  0  0  0  0
   -2.6286    0.7242   -2.3451 H   0  0  0  0  0  0  0  0  0  0  0  0
   -0.0346    1.1587   -1.6031 H   0  0  0  0  0  0  0  0  0  0  0  0
    2.7522   -1.0227   -0.8587 H   0  0  0  0  0  0  0  0  0  0  0  0
    1.7939   -0.0370    1.9007 H   0  0  0  0  0  0  0  0  0  0  0  0
    2.7697   -1.5946    1.4505 H   0  0  0  0  0  0  0  0  0  0  0  0
    4.4437   -0.2367    0.2871 H   0  0  0  0  0  0  0  0  0  0  0  0
    3.9558    0.9811    1.6387 H   0  0  0  0  0  0  0  0  0  0  0  0
    2.0954    1.6500    0.3944 H   0  0  0  0  0  0  0  0  0  0  0  0
  1  2  1  0
  2  3  2  0
  2  4  1  0
  4  5  1  0
  5  6  1  0
  6  7  2  0
  7  8  1  0
  8  9  1  0
  9 10  1  0
 10 11  1  0
  7 12  1  0
 12 13  2  0
 13  5  1  0
 11  8  1  0
  1 14  1  0
  1 15  1  0
  4 16  1  0
  4 17  1  0
  6 18  1  0
  8 19  1  6
  9 20  1  0
  9 21  1  0
 10 22  1  0
 10 23  1  0
 11 24  1  0
M  END
$$$$
