
     RDKit          3D

 22 23  0  0  0  0  0  0  0  0999 V2000
   -2.3088    0.6340    1.3765 N   0  0  0  0  0  0  0  0  0  0  0  0
   -1.5720    1.3370    0.0041 S   0  0  0  0  0  6  0  0  0  0  0  0
   -2.6746    1.4831   -1.0417 O   0  0  0  0  0  0  0  0  0  0  0  0
   -1.1552    2.7226    0.3630 O   0  0  0  0  0  0  0  0  0  0  0  0
   -0.3439    0.4040   -0.6835 N   0  0  0  0  0  0  0  0  0  0  0  0
   -0.7066   -0.8884   -1.1888 C   0  0  0  0  0  0  0  0  0  0  0  0
    0.2599   -1.5646   -0.2065 C   0  0  0  0  0  0  0  0  0  0  0  0
    0.6738   -0.1552    0.0600 C   0  0  0  0  0  0  0  0  0  0  0  0
    2.0543    0.1805   -0.4401 C   0  0  0  0  0  0  0  0  0  0  0  0
    2.4711    0.2495    0.9614 N   0  0  0  0  0  0  0  0  0  0  0  0
    1.0712    0.2510    1.3909 C   0  0  0  0  0  0  0  0  0  0  0  0
   -2.9189   -0.1709    1.1759 H   0  0  0  0  0  0  0  0  0  0  0  0
   -2.8669    1.3756    1.8719 H   0  0  0  0  0  0  0  0  0  0  0  0
   -0.3411   -0.9994   -2.2446 H   0  0  0  0  0  0  0  0  0  0  0  0
   -1.7472   -1.2051   -1.0758 H   0  0  0  0  0  0  0  0  0  0  0  0
    1.0274   -2.1691   -0.7131 H   0  0  0  0  0  0  0  0  0  0  0  0
   -0.2358   -2.1006    0.6126 H   0  0  0  0  0  0  0  0  0  0  0  0
    2.0424    1.1474   -0.9686 H   0  0  0  0  0  0  0  0  0  0  0  0
    2.5101   -0.6448   -1.0101 H   0  0  0  0  0  0  0  0  0  0  0  0
    2.9929   -0.6194    1.2026 H   0  0  0  0  0  0  0  0  0  0  0  0
    0.7925    1.2397    1.7875 H   0  0  0  0  0  0  0  0  0  0  0  0
    0.9753   -0.5068    2.2117 H   0  0  0  0  0  0  0  0  0  0  0  0
  1  2  1  0
  2  3  2  0
  2  4  2  0
  2  5  1  0
  5  6  1  0
  6  7  1  0
  7  8  1  0
  8  9  1  0
  9 10  1  0
 10 11  1  0
  8  5  1  0
 11  8  1  0
  1 12  1  0
  1 13  1  0
  6 14  1  0
  6 15  1  0
  7 16  1  0
  7 17  1  0
  9 18  1  0
  9 19  1  0
 10 20  1  0
 11 21  1  0
 11 22  1  0
M  END
$$$$

     RDKit          3D

 22 23  0  0  0  0  0  0  0  0999 V2000
   -1.9965    1.5067   -0.8902 N   0  0  0  0  0  0  0  0  0  0  0  0
   -2.0339    0.0379   -0.0296 S   0  0  0  0  0  6  0  0  0  0  0  0
   -3.2154   -0.7992   -0.4837 O   0  0  0  0  0  0  0  0  0  0  0  0
   -2.3250    0.3524    1.4352 O   0  0  0  0  0  0  0  0  0  0  0  0
   -0.6266   -0.8751   -0.0839 N   0  0  0  0  0  0  0  0  0  0  0  0
   -0.2429   -1.3082   -1.4156 C   0  0  0  0  0  0  0  0  0  0  0  0
    1.1830   -1.4110   -0.8523 C   0  0  0  0  0  0  0  0  0  0  0  0
    0.6466   -0.3615    0.0846 C   0  0  0  0  0  0  0  0  0  0  0  0
    1.2599   -0.2779    1.4366 C   0  0  0  0  0  0  0  0  0  0  0  0
    1.2724    1.1862    1.2581 N   0  0  0  0  0  0  0  0  0  0  0  0
    1.0345    1.0281   -0.1879 C   0  0  0  0  0  0  0  0  0  0  0  0
   -2.0285    2.3227   -0.2477 H   0  0  0  0  0  0  0  0  0  0  0  0
   -2.8314    1.5876   -1.5193 H   0  0  0  0  0  0  0  0  0  0  0  0
   -0.2866   -0.4720   -2.1673 H   0  0  0  0  0  0  0  0  0  0  0  0
   -0.6747   -2.2516   -1.7404 H   0  0  0  0  0  0  0  0  0  0  0  0
    1.9496   -0.9964   -1.5164 H   0  0  0  0  0  0  0  0  0  0  0  0
    1.4011   -2.3916   -0.4080 H   0  0  0  0  0  0  0  0  0  0  0  0
    0.6458   -0.6067    2.2845 H   0  0  0  0  0  0  0  0  0  0  0  0
    2.2989   -0.6706    1.4321 H   0  0  0  0  0  0  0  0  0  0  0  0
    2.2237    1.6107    1.4224 H   0  0  0  0  0  0  0  0  0  0  0  0
    0.3344    1.7335   -0.6225 H   0  0  0  0  0  0  0  0  0  0  0  0
    2.0116    1.0559   -0.7579 H   0  0  0  0  0  0  0  0  0  0  0  0
  1  2  1  0
  2  3  2  0
  2  4  2  0
  2  5  1  0
  5  6  1  0
  6  7  1  0
  7  8  1  0
  8  9  1  0
  9 10  1  0
 10 11  1  0
  8  5  1  0
 11  8  1  0
  1 12  1  0
  1 13  1  0
  6 14  1  0
  6 15  1  0
  7 16  1  0
  7 17  1  0
  9 18  1  0
  9 19  1  0
 10 20  1  0
 11 21  1  0
 11 22  1  0
M  END
$$$$

     RDKit          3D

 22 23  0  0  0  0  0  0  0  0999 V2000
    3.1676    0.6407   -0.5361 N   0  0  0  0  0  0  0  0  0  0  0  0
    1.7352    0.6049    0.4551 S   0  0  0  0  0  6  0  0  0  0  0  0
    1.6466    1.8783    1.1956 O   0  0  0  0  0  0  0  0  0  0  0  0
    1.8921   -0.5727    1.3984 O   0  0  0  0  0  0  0  0  0  0  0  0
    0.4039    0.2992   -0.5672 N   0  0  0  0  0  0  0  0  0  0  0  0
    0.5421   -0.9920   -1.2230 C   0  0  0  0  0  0  0  0  0  0  0  0
   -0.4521   -1.5663   -0.2049 C   0  0  0  0  0  0  0  0  0  0  0  0
   -0.7956   -0.1553    0.0005 C   0  0  0  0  0  0  0  0  0  0  0  0
   -1.2733    0.3393    1.2887 C   0  0  0  0  0  0  0  0  0  0  0  0
   -2.0906    1.3242    0.5588 N   0  0  0  0  0  0  0  0  0  0  0  0
   -2.0922    0.3534   -0.5491 C   0  0  0  0  0  0  0  0  0  0  0  0
    3.1605    1.5464   -1.0674 H   0  0  0  0  0  0  0  0  0  0  0  0
    4.0252    0.6699    0.0687 H   0  0  0  0  0  0  0  0  0  0  0  0
    1.5665   -1.4331   -1.1353 H   0  0  0  0  0  0  0  0  0  0  0  0
    0.1499   -0.9211   -2.2424 H   0  0  0  0  0  0  0  0  0  0  0  0
   -1.2217   -2.2073   -0.6606 H   0  0  0  0  0  0  0  0  0  0  0  0
    0.1054   -2.0928    0.5816 H   0  0  0  0  0  0  0  0  0  0  0  0
   -2.0015   -0.3826    1.7650 H   0  0  0  0  0  0  0  0  0  0  0  0
   -0.5467    0.7837    1.9860 H   0  0  0  0  0  0  0  0  0  0  0  0
   -3.0495    1.4333    0.9139 H   0  0  0  0  0  0  0  0  0  0  0  0
   -1.9405    0.8209   -1.5433 H   0  0  0  0  0  0  0  0  0  0  0  0
   -2.9313   -0.3713   -0.4833 H   0  0  0  0  0  0  0  0  0  0  0  0
  1  2  1  0
  2  3  2  0
  2  4  2  0
  2  5  1  0
  5  6  1  0
  6  7  1  0
  7  8  1  0
  8  9  1  0
  9 10  1  0
 10 11  1  0
  8  5  1  0
 11  8  1  0
  1 12  1  0
  1 13  1  0
  6 14  1  0
  6 15  1  0
  7 16  1  0
  7 17  1  0
  9 18  1  0
  9 19  1  0
 10 20  1  0
 11 21  1  0
 11 22  1  0
M  END
$$$$

     RDKit          3D

 22 23  0  0  0  0  0  0  0  0999 V2000
    3.1295    0.9498   -0.7481 N   0  0  0  0  0  0  0  0  0  0  0  0
    1.4321    0.8039   -1.1443 S   0  0  0  0  0  6  0  0  0  0  0  0
    1.3244   -0.2133   -2.2510 O   0  0  0  0  0  0  0  0  0  0  0  0
    0.9998    2.1515   -1.6041 O   0  0  0  0  0  0  0  0  0  0  0  0
    0.6048    0.3556    0.2600 N   0  0  0  0  0  0  0  0  0  0  0  0
    1.0085   -0.9222    0.8175 C   0  0  0  0  0  0  0  0  0  0  0  0
   -0.3859   -1.5064    0.5523 C   0  0  0  0  0  0  0  0  0  0  0  0
   -0.7139   -0.1187    0.1662 C   0  0  0  0  0  0  0  0  0  0  0  0
   -1.7113    0.6273    0.9946 C   0  0  0  0  0  0  0  0  0  0  0  0
   -2.6312    0.5682   -0.1233 N   0  0  0  0  0  0  0  0  0  0  0  0
   -1.5386    0.1410   -1.0146 C   0  0  0  0  0  0  0  0  0  0  0  0
    3.4278    0.0324   -0.3568 H   0  0  0  0  0  0  0  0  0  0  0  0
    3.1602    1.6349    0.0493 H   0  0  0  0  0  0  0  0  0  0  0  0
    1.1892   -0.7907    1.9090 H   0  0  0  0  0  0  0  0  0  0  0  0
    1.8202   -1.4422    0.3080 H   0  0  0  0  0  0  0  0  0  0  0  0
   -0.8881   -1.8959    1.4601 H   0  0  0  0  0  0  0  0  0  0  0  0
   -0.3651   -2.2748   -0.2338 H   0  0  0  0  0  0  0  0  0  0  0  0
   -2.0230    0.1317    1.9139 H   0  0  0  0  0  0  0  0  0  0  0  0
   -1.3178    1.6669    1.1831 H   0  0  0  0  0  0  0  0  0  0  0  0
   -3.3334   -0.1605    0.0385 H   0  0  0  0  0  0  0  0  0  0  0  0
   -1.8928   -0.7197   -1.6107 H   0  0  0  0  0  0  0  0  0  0  0  0
   -1.2954    0.9811   -1.6782 H   0  0  0  0  0  0  0  0  0  0  0  0
  1  2  1  0
  2  3  2  0
  2  4  2  0
  2  5  1  0
  5  6  1  0
  6  7  1  0
  7  8  1  0
  8  9  1  0
  9 10  1  0
 10 11  1  0
  8  5  1  0
 11  8  1  0
  1 12  1  0
  1 13  1  0
  6 14  1  0
  6 15  1  0
  7 16  1  0
  7 17  1  0
  9 18  1  0
  9 19  1  0
 10 20  1  0
 11 21  1  0
 11 22  1  0
M  END
$$$$

     RDKit          3D

 22 23  0  0  0  0  0  0  0  0999 V2000
   -3.2302    0.4893    0.6774 N   0  0  0  0  0  0  0  0  0  0  0  0
   -1.6004   -0.0052    1.0236 S   0  0  0  0  0  6  0  0  0  0  0  0
   -1.6306   -1.4688    1.2657 O   0  0  0  0  0  0  0  0  0  0  0  0
   -1.1868    0.7080    2.2842 O   0  0  0  0  0  0  0  0  0  0  0  0
   -0.5674    0.4888   -0.2265 N   0  0  0  0  0  0  0  0  0  0  0  0
   -0.8525   -0.0669   -1.5368 C   0  0  0  0  0  0  0  0  0  0  0  0
    0.5784   -0.5299   -1.6799 C   0  0  0  0  0  0  0  0  0  0  0  0
    0.7391    0.0205   -0.3088 C   0  0  0  0  0  0  0  0  0  0  0  0
    1.3409   -0.8319    0.7296 C   0  0  0  0  0  0  0  0  0  0  0  0
    2.6457   -0.2232    0.4207 N   0  0  0  0  0  0  0  0  0  0  0  0
    1.8854    0.9347   -0.0658 C   0  0  0  0  0  0  0  0  0  0  0  0
   -3.8358    0.2180    1.4823 H   0  0  0  0  0  0  0  0  0  0  0  0
   -3.3037    1.5351    0.6118 H   0  0  0  0  0  0  0  0  0  0  0  0
   -1.1747    0.7247   -2.2358 H   0  0  0  0  0  0  0  0  0  0  0  0
   -1.5538   -0.9234   -1.5400 H   0  0  0  0  0  0  0  0  0  0  0  0
    0.7348   -1.6119   -1.7025 H   0  0  0  0  0  0  0  0  0  0  0  0
    1.1432    0.0288   -2.4784 H   0  0  0  0  0  0  0  0  0  0  0  0
    1.0863   -0.5884    1.7652 H   0  0  0  0  0  0  0  0  0  0  0  0
    1.3852   -1.9212    0.5604 H   0  0  0  0  0  0  0  0  0  0  0  0
    3.2393   -0.0415    1.2430 H   0  0  0  0  0  0  0  0  0  0  0  0
    2.3886    1.3386   -0.9703 H   0  0  0  0  0  0  0  0  0  0  0  0
    1.7690    1.7256    0.6809 H   0  0  0  0  0  0  0  0  0  0  0  0
  1  2  1  0
  2  3  2  0
  2  4  2  0
  2  5  1  0
  5  6  1  0
  6  7  1  0
  7  8  1  0
  8  9  1  0
  9 10  1  0
 10 11  1  0
  8  5  1  0
 11  8  1  0
  1 12  1  0
  1 13  1  0
  6 14  1  0
  6 15  1  0
  7 16  1  0
  7 17  1  0
  9 18  1  0
  9 19  1  0
 10 20  1  0
 11 21  1  0
 11 22  1  0
M  END
$$$$

     RDKit          3D

 22 23  0  0  0  0  0  0  0  0999 V2000
    2.2001   -0.9650   -0.4369 N   0  0  0  0  0  0  0  0  0  0  0  0
    1.8434    0.0045    0.9316 S   0  0  0  0  0  6  0  0  0  0  0  0
    1.8826   -0.8406    2.1519 O   0  0  0  0  0  0  0  0  0  0  0  0
    2.9319    1.0512    1.0785 O   0  0  0  0  0  0  0  0  0  0  0  0
    0.3643    0.8189    0.7085 N   0  0  0  0  0  0  0  0  0  0  0  0
    0.4456    1.7072   -0.4475 C   0  0  0  0  0  0  0  0  0  0  0  0
   -0.6356    0.9123   -1.1711 C   0  0  0  0  0  0  0  0  0  0  0  0
   -0.6991    0.1506    0.1055 C   0  0  0  0  0  0  0  0  0  0  0  0
   -0.7750   -1.3158    0.0559 C   0  0  0  0  0  0  0  0  0  0  0  0
   -2.2401   -1.1583    0.0654 N   0  0  0  0  0  0  0  0  0  0  0  0
   -2.0165    0.0758    0.8003 C   0  0  0  0  0  0  0  0  0  0  0  0
    1.9089   -1.9599   -0.3033 H   0  0  0  0  0  0  0  0  0  0  0  0
    3.2338   -0.9417   -0.6269 H   0  0  0  0  0  0  0  0  0  0  0  0
    0.0751    2.7160   -0.1677 H   0  0  0  0  0  0  0  0  0  0  0  0
    1.3776    1.6560   -1.0053 H   0  0  0  0  0  0  0  0  0  0  0  0
   -1.5721    1.4883   -1.3414 H   0  0  0  0  0  0  0  0  0  0  0  0
   -0.2916    0.3592   -2.0564 H   0  0  0  0  0  0  0  0  0  0  0  0
   -0.4230   -1.8334   -0.8576 H   0  0  0  0  0  0  0  0  0  0  0  0
   -0.4697   -1.8047    1.0051 H   0  0  0  0  0  0  0  0  0  0  0  0
   -2.5225   -0.9096   -0.9228 H   0  0  0  0  0  0  0  0  0  0  0  0
   -2.7084    0.9007    0.5470 H   0  0  0  0  0  0  0  0  0  0  0  0
   -1.9096   -0.1117    1.8873 H   0  0  0  0  0  0  0  0  0  0  0  0
  1  2  1  0
  2  3  2  0
  2  4  2  0
  2  5  1  0
  5  6  1  0
  6  7  1  0
  7  8  1  0
  8  9  1  0
  9 10  1  0
 10 11  1  0
  8  5  1  0
 11  8  1  0
  1 12  1  0
  1 13  1  0
  6 14  1  0
  6 15  1  0
  7 16  1  0
  7 17  1  0
  9 18  1  0
  9 19  1  0
 10 20  1  0
 11 21  1  0
 11 22  1  0
M  END
$$$$

     RDKit          3D

 22 23  0  0  0  0  0  0  0  0999 V2000
    3.0507    1.1220   -0.0279 N   0  0  0  0  0  0  0  0  0  0  0  0
    1.5105    0.7624   -0.7805 S   0  0  0  0  0  6  0  0  0  0  0  0
    1.8039   -0.4353   -1.6752 O   0  0  0  0  0  0  0  0  0  0  0  0
    1.0725    1.8724   -1.6514 O   0  0  0  0  0  0  0  0  0  0  0  0
    0.4289    0.3437    0.4479 N   0  0  0  0  0  0  0  0  0  0  0  0
    0.8748   -0.8398    1.1622 C   0  0  0  0  0  0  0  0  0  0  0  0
   -0.5028   -1.4581    1.0317 C   0  0  0  0  0  0  0  0  0  0  0  0
   -0.7885   -0.2546    0.1836 C   0  0  0  0  0  0  0  0  0  0  0  0
   -1.3540   -0.4393   -1.1423 C   0  0  0  0  0  0  0  0  0  0  0  0
   -2.3494    0.6042   -0.8437 N   0  0  0  0  0  0  0  0  0  0  0  0
   -2.0588    0.4590    0.5707 C   0  0  0  0  0  0  0  0  0  0  0  0
    2.9512    1.8856    0.6759 H   0  0  0  0  0  0  0  0  0  0  0  0
    3.7882    1.2720   -0.7273 H   0  0  0  0  0  0  0  0  0  0  0  0
    1.5996   -1.4344    0.5657 H   0  0  0  0  0  0  0  0  0  0  0  0
    1.2125   -0.6567    2.1991 H   0  0  0  0  0  0  0  0  0  0  0  0
   -0.5299   -2.4089    0.4410 H   0  0  0  0  0  0  0  0  0  0  0  0
   -1.0795   -1.4724    1.9660 H   0  0  0  0  0  0  0  0  0  0  0  0
   -1.9097   -1.4115   -1.2681 H   0  0  0  0  0  0  0  0  0  0  0  0
   -0.8138   -0.1823   -2.0415 H   0  0  0  0  0  0  0  0  0  0  0  0
   -2.1248    1.5267   -1.2481 H   0  0  0  0  0  0  0  0  0  0  0  0
   -1.9616    1.3745    1.1461 H   0  0  0  0  0  0  0  0  0  0  0  0
   -2.8201   -0.2294    1.0161 H   0  0  0  0  0  0  0  0  0  0  0  0
  1  2  1  0
  2  3  2  0
  2  4  2  0
  2  5  1  0
  5  6  1  0
  6  7  1  0
  7  8  1  0
  8  9  1  0
  9 10  1  0
 10 11  1  0
  8  5  1  0
 11  8  1  0
  1 12  1  0
  1 13  1  0
  6 14  1  0
  6 15  1  0
  7 16  1  0
  7 17  1  0
  9 18  1  0
  9 19  1  0
 10 20  1  0
 11 21  1  0
 11 22  1  0
M  END
$$$$

     RDKit          3D

 22 23  0  0  0  0  0  0  0  0999 V2000
    3.2788    0.2811   -0.2601 N   0  0  0  0  0  0  0  0  0  0  0  0
    1.7493   -0.3626   -0.8036 S   0  0  0  0  0  6  0  0  0  0  0  0
    1.6716   -1.8228   -0.5001 O   0  0  0  0  0  0  0  0  0  0  0  0
    1.6130   -0.0890   -2.2505 O   0  0  0  0  0  0  0  0  0  0  0  0
    0.5459    0.4395    0.0939 N   0  0  0  0  0  0  0  0  0  0  0  0
    0.5669    0.2702    1.5087 C   0  0  0  0  0  0  0  0  0  0  0  0
   -0.7691   -0.4611    1.4557 C   0  0  0  0  0  0  0  0  0  0  0  0
   -0.7729    0.0120    0.0439 C   0  0  0  0  0  0  0  0  0  0  0  0
   -1.3263   -0.8193   -1.0073 C   0  0  0  0  0  0  0  0  0  0  0  0
   -2.4882    0.0803   -1.0783 N   0  0  0  0  0  0  0  0  0  0  0  0
   -1.7535    1.0710   -0.3296 C   0  0  0  0  0  0  0  0  0  0  0  0
    3.5757   -0.2262    0.5966 H   0  0  0  0  0  0  0  0  0  0  0  0
    3.1654    1.3074   -0.0032 H   0  0  0  0  0  0  0  0  0  0  0  0
    0.4395    1.2139    2.0588 H   0  0  0  0  0  0  0  0  0  0  0  0
    1.3983   -0.3093    1.9116 H   0  0  0  0  0  0  0  0  0  0  0  0
   -1.5751   -0.0181    2.0346 H   0  0  0  0  0  0  0  0  0  0  0  0
   -0.6034   -1.5326    1.6045 H   0  0  0  0  0  0  0  0  0  0  0  0
   -0.8062   -0.9593   -1.9532 H   0  0  0  0  0  0  0  0  0  0  0  0
   -1.6947   -1.8107   -0.6208 H   0  0  0  0  0  0  0  0  0  0  0  0
   -2.7054    0.4181   -2.0362 H   0  0  0  0  0  0  0  0  0  0  0  0
   -2.2476    1.4959    0.5466 H   0  0  0  0  0  0  0  0  0  0  0  0
   -1.2618    1.8217   -1.0121 H   0  0  0  0  0  0  0  0  0  0  0  0
  1  2  1  0
  2  3  2  0
  2  4  2  0
  2  5  1  0
  5  6  1  0
  6  7  1  0
  7  8  1  0
  8  9  1  0
  9 10  1  0
 10 11  1  0
  8  5  1  0
 11  8  1  0
  1 12  1  0
  1 13  1  0
  6 14  1  0
  6 15  1  0
  7 16  1  0
  7 17  1  0
  9 18  1  0
  9 19  1  0
 10 20  1  0
 11 21  1  0
 11 22  1  0
M  END
$$$$
