
     RDKit          3D

 26 25  0  0  0  0  0  0  0  0999 V2000
    3.1480    1.5753   -0.4907 N   0  0  0  0  0  0  0  0  0  0  0  0
    2.7799    0.7801    0.6218 C   0  0  0  0  0  0  0  0  0  0  0  0
    2.5358    1.3232    1.7210 O   0  0  0  0  0  0  0  0  0  0  0  0
    2.6916   -0.6908    0.4567 C   0  0  2  0  0  0  0  0  0  0  0  0
    2.9942   -1.0976   -0.8167 O   0  0  0  0  0  0  0  0  0  0  0  0
    1.3157   -1.1444    0.8715 C   0  0  0  0  0  0  0  0  0  0  0  0
    0.2805   -0.6194    0.0033 N   0  0  0  0  0  0  0  0  0  0  0  0
   -1.0602   -0.9874    0.3069 C   0  0  0  0  0  0  0  0  0  0  0  0
   -1.3168   -1.7452    1.3015 O   0  0  0  0  0  0  0  0  0  0  0  0
   -2.2182   -0.5228   -0.4971 C   0  0  2  0  0  0  0  0  0  0  0  0
   -1.7978    0.3104   -1.5705 N   0  0  0  0  0  0  0  0  0  0  0  0
   -3.1508    0.2504    0.4363 C   0  0  0  0  0  0  0  0  0  0  0  0
   -4.2758    0.6969   -0.2180 O   0  0  0  0  0  0  0  0  0  0  0  0
    2.4142    1.8040   -1.1823 H   0  0  0  0  0  0  0  0  0  0  0  0
    4.1405    1.8890   -0.5546 H   0  0  0  0  0  0  0  0  0  0  0  0
    3.4060   -1.1322    1.1886 H   0  0  0  0  0  0  0  0  0  0  0  0
    2.5166   -0.5294   -1.4616 H   0  0  0  0  0  0  0  0  0  0  0  0
    1.1121   -0.8832    1.9130 H   0  0  0  0  0  0  0  0  0  0  0  0
    1.2928   -2.2539    0.7559 H   0  0  0  0  0  0  0  0  0  0  0  0
    0.4723   -0.0026   -0.8087 H   0  0  0  0  0  0  0  0  0  0  0  0
   -2.7982   -1.3654   -0.9047 H   0  0  0  0  0  0  0  0  0  0  0  0
   -1.1739    1.0875   -1.3233 H   0  0  0  0  0  0  0  0  0  0  0  0
   -2.4484    0.4541   -2.3304 H   0  0  0  0  0  0  0  0  0  0  0  0
   -3.3573   -0.4104    1.2967 H   0  0  0  0  0  0  0  0  0  0  0  0
   -2.5184    1.0864    0.8437 H   0  0  0  0  0  0  0  0  0  0  0  0
   -4.9845    0.8715    0.4420 H   0  0  0  0  0  0  0  0  0  0  0  0
  1  2  1  0
  2  3  2  0
  2  4  1  0
  4  5  1  0
  4  6  1  0
  6  7  1  0
  7  8  1  0
  8  9  2  0
  8 10  1  0
 10 11  1  0
 10 12  1  0
 12 13  1  0
  1 14  1  0
  1 15  1  0
  4 16  1  1
  5 17  1  0
  6 18  1  0
  6 19  1  0
  7 20  1  0
 10 21  1  6
 11 22  1  0
 11 23  1  0
 12 24  1  0
 12 25  1  0
 13 26  1  0
M  END
$$$$

     RDKit          3D

 26 25  0  0  0  0  0  0  0  0999 V2000
    3.4107    1.2802   -0.1142 N   0  0  0  0  0  0  0  0  0  0  0  0
    2.8145    0.1675   -0.7633 C   0  0  0  0  0  0  0  0  0  0  0  0
    2.7425    0.1008   -2.0098 O   0  0  0  0  0  0  0  0  0  0  0  0
    2.2445   -0.9787    0.0363 C   0  0  2  0  0  0  0  0  0  0  0  0
    1.7295   -1.9239   -0.8002 O   0  0  0  0  0  0  0  0  0  0  0  0
    1.3196   -0.4522    1.0913 C   0  0  0  0  0  0  0  0  0  0  0  0
    0.1339    0.1971    0.6210 N   0  0  0  0  0  0  0  0  0  0  0  0
   -0.8539   -0.4547   -0.1308 C   0  0  0  0  0  0  0  0  0  0  0  0
   -0.7453   -1.6558   -0.4234 O   0  0  0  0  0  0  0  0  0  0  0  0
   -2.0689    0.2718   -0.6051 C   0  0  2  0  0  0  0  0  0  0  0  0
   -2.0614    1.6631   -0.1901 N   0  0  0  0  0  0  0  0  0  0  0  0
   -3.3027   -0.3671    0.0249 C   0  0  0  0  0  0  0  0  0  0  0  0
   -3.1730   -0.2376    1.4055 O   0  0  0  0  0  0  0  0  0  0  0  0
    3.8068    2.0464   -0.6870 H   0  0  0  0  0  0  0  0  0  0  0  0
    3.4643    1.3537    0.9223 H   0  0  0  0  0  0  0  0  0  0  0  0
    3.1596   -1.4439    0.5121 H   0  0  0  0  0  0  0  0  0  0  0  0
    1.6673   -1.6002   -1.7486 H   0  0  0  0  0  0  0  0  0  0  0  0
    1.0713   -1.3381    1.7599 H   0  0  0  0  0  0  0  0  0  0  0  0
    1.8810    0.2238    1.7999 H   0  0  0  0  0  0  0  0  0  0  0  0
    0.0146    1.2187    0.8618 H   0  0  0  0  0  0  0  0  0  0  0  0
   -2.1080    0.2155   -1.7128 H   0  0  0  0  0  0  0  0  0  0  0  0
   -3.0635    1.9629   -0.1306 H   0  0  0  0  0  0  0  0  0  0  0  0
   -1.6562    2.2421   -0.9810 H   0  0  0  0  0  0  0  0  0  0  0  0
   -3.2351   -1.4616   -0.2201 H   0  0  0  0  0  0  0  0  0  0  0  0
   -4.2304    0.0494   -0.3715 H   0  0  0  0  0  0  0  0  0  0  0  0
   -2.9616   -1.0790    1.8536 H   0  0  0  0  0  0  0  0  0  0  0  0
  1  2  1  0
  2  3  2  0
  2  4  1  0
  4  5  1  0
  4  6  1  0
  6  7  1  0
  7  8  1  0
  8  9  2  0
  8 10  1  0
 10 11  1  0
 10 12  1  0
 12 13  1  0
  1 14  1  0
  1 15  1  0
  4 16  1  1
  5 17  1  0
  6 18  1  0
  6 19  1  0
  7 20  1  0
 10 21  1  6
 11 22  1  0
 11 23  1  0
 12 24  1  0
 12 25  1  0
 13 26  1  0
M  END
$$$$

     RDKit          3D

 26 25  0  0  0  0  0  0  0  0999 V2000
    3.5558    1.1393    1.7688 N   0  0  0  0  0  0  0  0  0  0  0  0
    3.5278    0.2966    0.6049 C   0  0  0  0  0  0  0  0  0  0  0  0
    4.5462    0.0954   -0.0807 O   0  0  0  0  0  0  0  0  0  0  0  0
    2.2268   -0.3322    0.2457 C   0  0  2  0  0  0  0  0  0  0  0  0
    2.4110   -1.0919   -0.8869 O   0  0  0  0  0  0  0  0  0  0  0  0
    1.2400    0.8030   -0.0023 C   0  0  0  0  0  0  0  0  0  0  0  0
   -0.0567    0.3380   -0.4037 N   0  0  0  0  0  0  0  0  0  0  0  0
   -0.8415   -0.5078    0.4213 C   0  0  0  0  0  0  0  0  0  0  0  0
   -0.3839   -0.8557    1.5341 O   0  0  0  0  0  0  0  0  0  0  0  0
   -2.1909   -0.9618   -0.0554 C   0  0  2  0  0  0  0  0  0  0  0  0
   -2.4901   -0.4330   -1.3541 N   0  0  0  0  0  0  0  0  0  0  0  0
   -3.2435   -0.4779    0.9262 C   0  0  0  0  0  0  0  0  0  0  0  0
   -3.2182    0.9140    0.9575 O   0  0  0  0  0  0  0  0  0  0  0  0
    3.6730    0.7101    2.6974 H   0  0  0  0  0  0  0  0  0  0  0  0
    3.4587    2.1613    1.6646 H   0  0  0  0  0  0  0  0  0  0  0  0
    1.8835   -1.0100    1.0529 H   0  0  0  0  0  0  0  0  0  0  0  0
    2.3319   -0.5520   -1.7179 H   0  0  0  0  0  0  0  0  0  0  0  0
    1.1876    1.4501    0.9112 H   0  0  0  0  0  0  0  0  0  0  0  0
    1.6810    1.4202   -0.8047 H   0  0  0  0  0  0  0  0  0  0  0  0
   -0.4444    0.6290   -1.3372 H   0  0  0  0  0  0  0  0  0  0  0  0
   -2.1643   -2.0519   -0.1168 H   0  0  0  0  0  0  0  0  0  0  0  0
   -3.4935   -0.4704   -1.5611 H   0  0  0  0  0  0  0  0  0  0  0  0
   -1.8635   -0.7827   -2.0962 H   0  0  0  0  0  0  0  0  0  0  0  0
   -3.0062   -0.9026    1.9047 H   0  0  0  0  0  0  0  0  0  0  0  0
   -4.2339   -0.8113    0.5498 H   0  0  0  0  0  0  0  0  0  0  0  0
   -4.0927    1.2842    1.1624 H   0  0  0  0  0  0  0  0  0  0  0  0
  1  2  1  0
  2  3  2  0
  2  4  1  0
  4  5  1  0
  4  6  1  0
  6  7  1  0
  7  8  1  0
  8  9  2  0
  8 10  1  0
 10 11  1  0
 10 12  1  0
 12 13  1  0
  1 14  1  0
  1 15  1  0
  4 16  1  1
  5 17  1  0
  6 18  1  0
  6 19  1  0
  7 20  1  0
 10 21  1  6
 11 22  1  0
 11 23  1  0
 12 24  1  0
 12 25  1  0
 13 26  1  0
M  END
$$$$

     RDKit          3D

 26 25  0  0  0  0  0  0  0  0999 V2000
    4.5115    0.1082   -0.2678 N   0  0  0  0  0  0  0  0  0  0  0  0
    3.3207    0.7990    0.0815 C   0  0  0  0  0  0  0  0  0  0  0  0
    3.3947    2.0215    0.3204 O   0  0  0  0  0  0  0  0  0  0  0  0
    2.0165    0.0507    0.1541 C   0  0  2  0  0  0  0  0  0  0  0  0
    2.2443   -1.2793   -0.1593 O   0  0  0  0  0  0  0  0  0  0  0  0
    1.1377    0.6494   -0.9126 C   0  0  0  0  0  0  0  0  0  0  0  0
   -0.1461   -0.0137   -1.0309 N   0  0  0  0  0  0  0  0  0  0  0  0
   -1.0482   -0.0646    0.0645 C   0  0  0  0  0  0  0  0  0  0  0  0
   -0.7304    0.4739    1.1556 O   0  0  0  0  0  0  0  0  0  0  0  0
   -2.3562   -0.7345   -0.0383 C   0  0  2  0  0  0  0  0  0  0  0  0
   -2.6241   -1.3117   -1.3082 N   0  0  0  0  0  0  0  0  0  0  0  0
   -3.4480    0.2851    0.2688 C   0  0  0  0  0  0  0  0  0  0  0  0
   -3.1823    0.8465    1.5105 O   0  0  0  0  0  0  0  0  0  0  0  0
    4.9805    0.3985   -1.1630 H   0  0  0  0  0  0  0  0  0  0  0  0
    4.9038   -0.6567    0.3414 H   0  0  0  0  0  0  0  0  0  0  0  0
    1.5867    0.2155    1.1466 H   0  0  0  0  0  0  0  0  0  0  0  0
    2.2724   -1.4200   -1.1244 H   0  0  0  0  0  0  0  0  0  0  0  0
    0.9709    1.7214   -0.6067 H   0  0  0  0  0  0  0  0  0  0  0  0
    1.6874    0.6222   -1.8746 H   0  0  0  0  0  0  0  0  0  0  0  0
   -0.4136   -0.4625   -1.9375 H   0  0  0  0  0  0  0  0  0  0  0  0
   -2.3786   -1.5554    0.7259 H   0  0  0  0  0  0  0  0  0  0  0  0
   -2.2499   -2.2414   -1.4847 H   0  0  0  0  0  0  0  0  0  0  0  0
   -3.5324   -1.0890   -1.7243 H   0  0  0  0  0  0  0  0  0  0  0  0
   -4.4134   -0.2363    0.2305 H   0  0  0  0  0  0  0  0  0  0  0  0
   -3.3738    1.0593   -0.5386 H   0  0  0  0  0  0  0  0  0  0  0  0
   -3.1301    1.8137    1.4036 H   0  0  0  0  0  0  0  0  0  0  0  0
  1  2  1  0
  2  3  2  0
  2  4  1  0
  4  5  1  0
  4  6  1  0
  6  7  1  0
  7  8  1  0
  8  9  2  0
  8 10  1  0
 10 11  1  0
 10 12  1  0
 12 13  1  0
  1 14  1  0
  1 15  1  0
  4 16  1  1
  5 17  1  0
  6 18  1  0
  6 19  1  0
  7 20  1  0
 10 21  1  1
 11 22  1  0
 11 23  1  0
 12 24  1  0
 12 25  1  0
 13 26  1  0
M  END
$$$$

     RDKit          3D

 26 25  0  0  0  0  0  0  0  0999 V2000
   -4.2448   -0.0491   -0.3466 N   0  0  0  0  0  0  0  0  0  0  0  0
   -3.3956    0.4119    0.6811 C   0  0  0  0  0  0  0  0  0  0  0  0
   -3.8656    1.1262    1.5895 O   0  0  0  0  0  0  0  0  0  0  0  0
   -1.9331    0.0438    0.6806 C   0  0  2  0  0  0  0  0  0  0  0  0
   -1.3542    0.6165    1.7749 O   0  0  0  0  0  0  0  0  0  0  0  0
   -1.3232    0.4773   -0.6069 C   0  0  0  0  0  0  0  0  0  0  0  0
    0.0686    0.1476   -0.7238 N   0  0  0  0  0  0  0  0  0  0  0  0
    1.1266    0.6147    0.0814 C   0  0  0  0  0  0  0  0  0  0  0  0
    0.8857    1.4128    1.0100 O   0  0  0  0  0  0  0  0  0  0  0  0
    2.5062    0.1300   -0.2134 C   0  0  2  0  0  0  0  0  0  0  0  0
    2.5034   -0.7824   -1.3353 N   0  0  0  0  0  0  0  0  0  0  0  0
    3.1152   -0.5833    0.9663 C   0  0  0  0  0  0  0  0  0  0  0  0
    4.4129   -0.9436    0.6025 O   0  0  0  0  0  0  0  0  0  0  0  0
   -3.9607   -0.0170   -1.3620 H   0  0  0  0  0  0  0  0  0  0  0  0
   -5.1688   -0.4286   -0.1058 H   0  0  0  0  0  0  0  0  0  0  0  0
   -1.8880   -1.0726    0.8145 H   0  0  0  0  0  0  0  0  0  0  0  0
   -1.8863    1.3922    2.0761 H   0  0  0  0  0  0  0  0  0  0  0  0
   -1.4956    1.5742   -0.7601 H   0  0  0  0  0  0  0  0  0  0  0  0
   -1.8969    0.0159   -1.4654 H   0  0  0  0  0  0  0  0  0  0  0  0
    0.3218   -0.5336   -1.5182 H   0  0  0  0  0  0  0  0  0  0  0  0
    3.1412    1.0209   -0.4177 H   0  0  0  0  0  0  0  0  0  0  0  0
    2.2394   -0.3502   -2.2255 H   0  0  0  0  0  0  0  0  0  0  0  0
    1.9860   -1.6269   -1.0661 H   0  0  0  0  0  0  0  0  0  0  0  0
    3.1024    0.0165    1.8911 H   0  0  0  0  0  0  0  0  0  0  0  0
    2.5524   -1.5470    1.1036 H   0  0  0  0  0  0  0  0  0  0  0  0
    4.4511   -1.0661   -0.3857 H   0  0  0  0  0  0  0  0  0  0  0  0
  1  2  1  0
  2  3  2  0
  2  4  1  0
  4  5  1  0
  4  6  1  0
  6  7  1  0
  7  8  1  0
  8  9  2  0
  8 10  1  0
 10 11  1  0
 10 12  1  0
 12 13  1  0
  1 14  1  0
  1 15  1  0
  4 16  1  1
  5 17  1  0
  6 18  1  0
  6 19  1  0
  7 20  1  0
 10 21  1  6
 11 22  1  0
 11 23  1  0
 12 24  1  0
 12 25  1  0
 13 26  1  0
M  END
$$$$

     RDKit          3D

 26 25  0  0  0  0  0  0  0  0999 V2000
    4.0016    0.8157    0.9155 N   0  0  0  0  0  0  0  0  0  0  0  0
    3.3026   -0.4050    0.7376 C   0  0  0  0  0  0  0  0  0  0  0  0
    3.9159   -1.4752    0.5339 O   0  0  0  0  0  0  0  0  0  0  0  0
    1.8118   -0.3949    0.7973 C   0  0  2  0  0  0  0  0  0  0  0  0
    1.3572   -1.6901    0.5974 O   0  0  0  0  0  0  0  0  0  0  0  0
    1.3378    0.5792   -0.2265 C   0  0  0  0  0  0  0  0  0  0  0  0
   -0.0623    0.7680   -0.3488 N   0  0  0  0  0  0  0  0  0  0  0  0
   -1.0397   -0.1960   -0.7046 C   0  0  0  0  0  0  0  0  0  0  0  0
   -0.6472   -1.3602   -0.9498 O   0  0  0  0  0  0  0  0  0  0  0  0
   -2.4864    0.1392   -0.7902 C   0  0  2  0  0  0  0  0  0  0  0  0
   -2.7291    1.5323   -0.4698 N   0  0  0  0  0  0  0  0  0  0  0  0
   -3.3167   -0.6987    0.1468 C   0  0  0  0  0  0  0  0  0  0  0  0
   -3.1633   -2.0564   -0.0691 O   0  0  0  0  0  0  0  0  0  0  0  0
    3.7278    1.5511    1.6083 H   0  0  0  0  0  0  0  0  0  0  0  0
    4.8468    1.0287    0.3368 H   0  0  0  0  0  0  0  0  0  0  0  0
    1.5241   -0.0754    1.8466 H   0  0  0  0  0  0  0  0  0  0  0  0
    1.9420   -2.0844   -0.1113 H   0  0  0  0  0  0  0  0  0  0  0  0
    1.8378    1.5631    0.0059 H   0  0  0  0  0  0  0  0  0  0  0  0
    1.8226    0.2742   -1.1975 H   0  0  0  0  0  0  0  0  0  0  0  0
   -0.4523    1.7464   -0.1542 H   0  0  0  0  0  0  0  0  0  0  0  0
   -2.8238   -0.0235   -1.8281 H   0  0  0  0  0  0  0  0  0  0  0  0
   -2.4758    1.7690    0.5147 H   0  0  0  0  0  0  0  0  0  0  0  0
   -2.1954    2.1060   -1.1586 H   0  0  0  0  0  0  0  0  0  0  0  0
   -4.3834   -0.4591   -0.0355 H   0  0  0  0  0  0  0  0  0  0  0  0
   -3.1221   -0.4644    1.2087 H   0  0  0  0  0  0  0  0  0  0  0  0
   -2.5304   -2.4896    0.5502 H   0  0  0  0  0  0  0  0  0  0  0  0
  1  2  1  0
  2  3  2  0
  2  4  1  0
  4  5  1  0
  4  6  1  0
  6  7  1  0
  7  8  1  0
  8  9  2  0
  8 10  1  0
 10 11  1  0
 10 12  1  0
 12 13  1  0
  1 14  1  0
  1 15  1  0
  4 16  1  1
  5 17  1  0
  6 18  1  0
  6 19  1  0
  7 20  1  0
 10 21  1  6
 11 22  1  0
 11 23  1  0
 12 24  1  0
 12 25  1  0
 13 26  1  0
M  END
$$$$

     RDKit          3D

 26 25  0  0  0  0  0  0  0  0999 V2000
   -3.6100    1.5708    0.7980 N   0  0  0  0  0  0  0  0  0  0  0  0
   -3.4690    0.4213   -0.0003 C   0  0  0  0  0  0  0  0  0  0  0  0
   -4.4882   -0.2179   -0.3400 O   0  0  0  0  0  0  0  0  0  0  0  0
   -2.1426   -0.0479   -0.4464 C   0  0  2  0  0  0  0  0  0  0  0  0
   -2.2614   -1.2014   -1.2229 O   0  0  0  0  0  0  0  0  0  0  0  0
   -1.3490   -0.3764    0.8044 C   0  0  0  0  0  0  0  0  0  0  0  0
   -0.0252   -0.8600    0.5309 N   0  0  0  0  0  0  0  0  0  0  0  0
    0.8816   -0.0315   -0.1737 C   0  0  0  0  0  0  0  0  0  0  0  0
    0.5600    1.1168   -0.5658 O   0  0  0  0  0  0  0  0  0  0  0  0
    2.2642   -0.4828   -0.4846 C   0  0  2  0  0  0  0  0  0  0  0  0
    2.5482   -1.8031   -0.0019 N   0  0  0  0  0  0  0  0  0  0  0  0
    3.2785    0.4694    0.1531 C   0  0  0  0  0  0  0  0  0  0  0  0
    3.0575    1.7673   -0.2743 O   0  0  0  0  0  0  0  0  0  0  0  0
   -3.2845    1.5462    1.7793 H   0  0  0  0  0  0  0  0  0  0  0  0
   -4.0336    2.4377    0.4177 H   0  0  0  0  0  0  0  0  0  0  0  0
   -1.6808    0.7507   -1.0502 H   0  0  0  0  0  0  0  0  0  0  0  0
   -3.0822   -1.0582   -1.7842 H   0  0  0  0  0  0  0  0  0  0  0  0
   -1.3310    0.5785    1.3981 H   0  0  0  0  0  0  0  0  0  0  0  0
   -1.9107   -1.0898    1.4371 H   0  0  0  0  0  0  0  0  0  0  0  0
    0.2412   -1.8176    0.8595 H   0  0  0  0  0  0  0  0  0  0  0  0
    2.3945   -0.4253   -1.5671 H   0  0  0  0  0  0  0  0  0  0  0  0
    2.7636   -1.8530    1.0085 H   0  0  0  0  0  0  0  0  0  0  0  0
    3.3945   -2.1469   -0.5333 H   0  0  0  0  0  0  0  0  0  0  0  0
    3.1037    0.4559    1.2619 H   0  0  0  0  0  0  0  0  0  0  0  0
    4.2904    0.0950   -0.0485 H   0  0  0  0  0  0  0  0  0  0  0  0
    3.8904    2.2022   -0.5502 H   0  0  0  0  0  0  0  0  0  0  0  0
  1  2  1  0
  2  3  2  0
  2  4  1  0
  4  5  1  0
  4  6  1  0
  6  7  1  0
  7  8  1  0
  8  9  2  0
  8 10  1  0
 10 11  1  0
 10 12  1  0
 12 13  1  0
  1 14  1  0
  1 15  1  0
  4 16  1  6
  5 17  1  0
  6 18  1  0
  6 19  1  0
  7 20  1  0
 10 21  1  6
 11 22  1  0
 11 23  1  0
 12 24  1  0
 12 25  1  0
 13 26  1  0
M  END
$$$$

     RDKit          3D

 26 25  0  0  0  0  0  0  0  0999 V2000
   -3.8892    1.0948   -0.4208 N   0  0  0  0  0  0  0  0  0  0  0  0
   -2.5178    0.7524   -0.4972 C   0  0  0  0  0  0  0  0  0  0  0  0
   -1.6803    1.6644   -0.6914 O   0  0  0  0  0  0  0  0  0  0  0  0
   -2.1060   -0.6379   -0.3509 C   0  0  2  0  0  0  0  0  0  0  0  0
   -3.2181   -1.4448   -0.1464 O   0  0  0  0  0  0  0  0  0  0  0  0
   -1.1257   -0.8531    0.7799 C   0  0  0  0  0  0  0  0  0  0  0  0
    0.0634   -0.0721    0.6792 N   0  0  0  0  0  0  0  0  0  0  0  0
    0.9384   -0.1959   -0.4338 C   0  0  0  0  0  0  0  0  0  0  0  0
    0.6596   -1.0227   -1.3667 O   0  0  0  0  0  0  0  0  0  0  0  0
    2.1772    0.6108   -0.5502 C   0  0  2  0  0  0  0  0  0  0  0  0
    2.8452    0.2802   -1.7512 N   0  0  0  0  0  0  0  0  0  0  0  0
    3.0151    0.5075    0.6909 C   0  0  0  0  0  0  0  0  0  0  0  0
    3.5136   -0.7549    0.9190 O   0  0  0  0  0  0  0  0  0  0  0  0
   -4.5731    0.5086   -0.9429 H   0  0  0  0  0  0  0  0  0  0  0  0
   -4.2588    1.9030    0.1296 H   0  0  0  0  0  0  0  0  0  0  0  0
   -1.6695   -0.9658   -1.3252 H   0  0  0  0  0  0  0  0  0  0  0  0
   -3.0277   -2.1629    0.5034 H   0  0  0  0  0  0  0  0  0  0  0  0
   -1.6438   -0.6942    1.7460 H   0  0  0  0  0  0  0  0  0  0  0  0
   -0.8746   -1.9523    0.7601 H   0  0  0  0  0  0  0  0  0  0  0  0
    0.3203    0.6100    1.4210 H   0  0  0  0  0  0  0  0  0  0  0  0
    1.8450    1.6810   -0.6212 H   0  0  0  0  0  0  0  0  0  0  0  0
    2.9645    1.0490   -2.4320 H   0  0  0  0  0  0  0  0  0  0  0  0
    2.5677   -0.6247   -2.1806 H   0  0  0  0  0  0  0  0  0  0  0  0
    3.8693    1.2075    0.6111 H   0  0  0  0  0  0  0  0  0  0  0  0
    2.4007    0.8761    1.5455 H   0  0  0  0  0  0  0  0  0  0  0  0
    3.4046   -1.3640    0.1554 H   0  0  0  0  0  0  0  0  0  0  0  0
  1  2  1  0
  2  3  2  0
  2  4  1  0
  4  5  1  0
  4  6  1  0
  6  7  1  0
  7  8  1  0
  8  9  2  0
  8 10  1  0
 10 11  1  0
 10 12  1  0
 12 13  1  0
  1 14  1  0
  1 15  1  0
  4 16  1  6
  5 17  1  0
  6 18  1  0
  6 19  1  0
  7 20  1  0
 10 21  1  6
 11 22  1  0
 11 23  1  0
 12 24  1  0
 12 25  1  0
 13 26  1  0
M  END
$$$$
