
     RDKit          3D

 25 25  0  0  0  0  0  0  0  0999 V2000
    2.4734   -1.8654    1.2037 N   0  0  0  0  0  0  0  0  0  0  0  0
    1.5301   -1.2412    0.2595 C   0  0  2  0  0  0  0  0  0  0  0  0
    2.3807   -0.2060   -0.5057 C   0  0  0  0  0  0  0  0  0  0  0  0
    1.5555    0.4243   -1.4101 O   0  0  0  0  0  0  0  0  0  0  0  0
    0.4744   -0.5867    1.0536 C   0  0  0  0  0  0  0  0  0  0  0  0
    0.7568   -0.3556    2.2853 O   0  0  0  0  0  0  0  0  0  0  0  0
   -0.7921   -0.1963    0.6079 N   0  0  0  0  0  0  0  0  0  0  0  0
   -1.7988    0.4796    1.3881 C   0  0  0  0  0  0  0  0  0  0  0  0
   -2.1100    1.6608    0.4745 C   0  0  1  0  0  0  0  0  0  0  0  0
   -1.1622    2.6657    0.6689 F   0  0  0  0  0  0  0  0  0  0  0  0
   -1.9501    1.0506   -0.9014 C   0  0  2  0  0  0  0  0  0  0  0  0
   -3.1915    0.9867   -1.4954 F   0  0  0  0  0  0  0  0  0  0  0  0
   -1.4276   -0.3676   -0.6668 C   0  0  0  0  0  0  0  0  0  0  0  0
    3.2988   -1.2677    1.3756 H   0  0  0  0  0  0  0  0  0  0  0  0
    2.7217   -2.8255    0.8885 H   0  0  0  0  0  0  0  0  0  0  0  0
    1.1900   -1.9609   -0.4765 H   0  0  0  0  0  0  0  0  0  0  0  0
    3.1482   -0.7852   -1.0323 H   0  0  0  0  0  0  0  0  0  0  0  0
    2.8212    0.4959    0.2318 H   0  0  0  0  0  0  0  0  0  0  0  0
    1.7594    1.3949   -1.4032 H   0  0  0  0  0  0  0  0  0  0  0  0
   -2.7133   -0.1384    1.4283 H   0  0  0  0  0  0  0  0  0  0  0  0
   -1.4610    0.7908    2.3800 H   0  0  0  0  0  0  0  0  0  0  0  0
   -3.1125    2.0720    0.6413 H   0  0  0  0  0  0  0  0  0  0  0  0
   -1.2394    1.6066   -1.5367 H   0  0  0  0  0  0  0  0  0  0  0  0
   -0.8358   -0.7716   -1.4707 H   0  0  0  0  0  0  0  0  0  0  0  0
   -2.3158   -1.0597   -0.4892 H   0  0  0  0  0  0  0  0  0  0  0  0
  1  2  1  0
  2  3  1  0
  3  4  1  0
  2  5  1  0
  5  6  2  0
  5  7  1  0
  7  8  1  0
  8  9  1  0
  9 10  1  0
  9 11  1  0
 11 12  1  0
 11 13  1  0
 13  7  1  0
  1 14  1  0
  1 15  1  0
  2 16  1  6
  3 17  1  0
  3 18  1  0
  4 19  1  0
  8 20  1  0
  8 21  1  0
  9 22  1  1
 11 23  1  6
 13 24  1  0
 13 25  1  0
M  END
$$$$

     RDKit          3D

 25 25  0  0  0  0  0  0  0  0999 V2000
    2.6931   -0.9937    1.3140 N   0  0  0  0  0  0  0  0  0  0  0  0
    1.6537   -0.6771    0.3285 C   0  0  2  0  0  0  0  0  0  0  0  0
    2.2569    0.1524   -0.7944 C   0  0  0  0  0  0  0  0  0  0  0  0
    2.7787    1.3406   -0.2306 O   0  0  0  0  0  0  0  0  0  0  0  0
    0.5321    0.0340    0.9810 C   0  0  0  0  0  0  0  0  0  0  0  0
    0.6428    0.3757    2.1857 O   0  0  0  0  0  0  0  0  0  0  0  0
   -0.6525    0.3245    0.2517 N   0  0  0  0  0  0  0  0  0  0  0  0
   -1.0102    0.0206   -1.1124 C   0  0  0  0  0  0  0  0  0  0  0  0
   -2.4821   -0.3827   -0.9897 C   0  0  1  0  0  0  0  0  0  0  0  0
   -2.5842   -1.7672   -1.0017 F   0  0  0  0  0  0  0  0  0  0  0  0
   -2.9426    0.1446    0.3502 C   0  0  2  0  0  0  0  0  0  0  0  0
   -4.1305    0.8383    0.1673 F   0  0  0  0  0  0  0  0  0  0  0  0
   -1.8227    1.0488    0.7784 C   0  0  0  0  0  0  0  0  0  0  0  0
    3.3777   -1.6305    0.8405 H   0  0  0  0  0  0  0  0  0  0  0  0
    3.1851   -0.1244    1.6273 H   0  0  0  0  0  0  0  0  0  0  0  0
    1.3262   -1.6410   -0.0981 H   0  0  0  0  0  0  0  0  0  0  0  0
    3.0646   -0.4065   -1.3004 H   0  0  0  0  0  0  0  0  0  0  0  0
    1.4844    0.4839   -1.5110 H   0  0  0  0  0  0  0  0  0  0  0  0
    3.7052    1.1611    0.0543 H   0  0  0  0  0  0  0  0  0  0  0  0
   -0.9223    0.9242   -1.7099 H   0  0  0  0  0  0  0  0  0  0  0  0
   -0.4665   -0.8606   -1.5118 H   0  0  0  0  0  0  0  0  0  0  0  0
   -3.0230    0.0778   -1.8425 H   0  0  0  0  0  0  0  0  0  0  0  0
   -3.0810   -0.6683    1.0841 H   0  0  0  0  0  0  0  0  0  0  0  0
   -1.7504    1.1633    1.8739 H   0  0  0  0  0  0  0  0  0  0  0  0
   -1.8328    2.0168    0.2658 H   0  0  0  0  0  0  0  0  0  0  0  0
  1  2  1  0
  2  3  1  0
  3  4  1  0
  2  5  1  0
  5  6  2  0
  5  7  1  0
  7  8  1  0
  8  9  1  0
  9 10  1  0
  9 11  1  0
 11 12  1  0
 11 13  1  0
 13  7  1  0
  1 14  1  0
  1 15  1  0
  2 16  1  6
  3 17  1  0
  3 18  1  0
  4 19  1  0
  8 20  1  0
  8 21  1  0
  9 22  1  6
 11 23  1  1
 13 24  1  0
 13 25  1  0
M  END
$$$$

     RDKit          3D

 25 25  0  0  0  0  0  0  0  0999 V2000
    2.5623    1.8506   -0.2495 N   0  0  0  0  0  0  0  0  0  0  0  0
    1.6873    0.7775    0.2844 C   0  0  2  0  0  0  0  0  0  0  0  0
    2.5899   -0.4630    0.2932 C   0  0  0  0  0  0  0  0  0  0  0  0
    1.9607   -1.5776    0.7627 O   0  0  0  0  0  0  0  0  0  0  0  0
    0.6267    0.5508   -0.7120 C   0  0  0  0  0  0  0  0  0  0  0  0
    0.7890    0.8710   -1.9398 O   0  0  0  0  0  0  0  0  0  0  0  0
   -0.5991   -0.0216   -0.3389 N   0  0  0  0  0  0  0  0  0  0  0  0
   -1.7046   -0.2999   -1.2859 C   0  0  0  0  0  0  0  0  0  0  0  0
   -2.8369    0.2597   -0.4071 C   0  0  1  0  0  0  0  0  0  0  0  0
   -4.0645   -0.0021   -0.9431 F   0  0  0  0  0  0  0  0  0  0  0  0
   -2.5611   -0.4931    0.8631 C   0  0  2  0  0  0  0  0  0  0  0  0
   -3.2030    0.0393    1.9530 F   0  0  0  0  0  0  0  0  0  0  0  0
   -1.0567   -0.4111    0.9787 C   0  0  0  0  0  0  0  0  0  0  0  0
    2.8788    1.4904   -1.1917 H   0  0  0  0  0  0  0  0  0  0  0  0
    3.3819    1.9077    0.4186 H   0  0  0  0  0  0  0  0  0  0  0  0
    1.3366    1.0386    1.2922 H   0  0  0  0  0  0  0  0  0  0  0  0
    3.4916   -0.2391    0.9184 H   0  0  0  0  0  0  0  0  0  0  0  0
    2.9436   -0.5794   -0.7646 H   0  0  0  0  0  0  0  0  0  0  0  0
    2.1167   -2.3408    0.1254 H   0  0  0  0  0  0  0  0  0  0  0  0
   -1.8214   -1.3838   -1.3178 H   0  0  0  0  0  0  0  0  0  0  0  0
   -1.5941    0.2251   -2.2263 H   0  0  0  0  0  0  0  0  0  0  0  0
   -2.6374    1.3259   -0.2349 H   0  0  0  0  0  0  0  0  0  0  0  0
   -2.8154   -1.5584    0.6947 H   0  0  0  0  0  0  0  0  0  0  0  0
   -0.8473    0.4082    1.7172 H   0  0  0  0  0  0  0  0  0  0  0  0
   -0.6235   -1.3751    1.3099 H   0  0  0  0  0  0  0  0  0  0  0  0
  1  2  1  0
  2  3  1  0
  3  4  1  0
  2  5  1  0
  5  6  2  0
  5  7  1  0
  7  8  1  0
  8  9  1  0
  9 10  1  0
  9 11  1  0
 11 12  1  0
 11 13  1  0
 13  7  1  0
  1 14  1  0
  1 15  1  0
  2 16  1  1
  3 17  1  0
  3 18  1  0
  4 19  1  0
  8 20  1  0
  8 21  1  0
  9 22  1  1
 11 23  1  6
 13 24  1  0
 13 25  1  0
M  END
$$$$

     RDKit          3D

 25 25  0  0  0  0  0  0  0  0999 V2000
   -1.5800   -1.4026    0.4192 N   0  0  0  0  0  0  0  0  0  0  0  0
   -1.6968   -0.0417    0.7999 C   0  0  2  0  0  0  0  0  0  0  0  0
   -2.8722    0.5554    0.0270 C   0  0  0  0  0  0  0  0  0  0  0  0
   -2.9678    1.8891    0.4157 O   0  0  0  0  0  0  0  0  0  0  0  0
   -0.5317    0.8081    0.5805 C   0  0  0  0  0  0  0  0  0  0  0  0
   -0.6168    2.0217    0.8894 O   0  0  0  0  0  0  0  0  0  0  0  0
    0.6699    0.3199    0.0407 N   0  0  0  0  0  0  0  0  0  0  0  0
    0.9209   -1.0416   -0.3531 C   0  0  0  0  0  0  0  0  0  0  0  0
    2.3729   -1.1124   -0.7946 C   0  0  1  0  0  0  0  0  0  0  0  0
    2.4134   -0.9119   -2.1566 F   0  0  0  0  0  0  0  0  0  0  0  0
    2.9939    0.1221   -0.1420 C   0  0  2  0  0  0  0  0  0  0  0  0
    3.2792   -0.1205    1.1865 F   0  0  0  0  0  0  0  0  0  0  0  0
    1.8546    1.0877   -0.2189 C   0  0  0  0  0  0  0  0  0  0  0  0
   -1.6365   -2.0911    1.1937 H   0  0  0  0  0  0  0  0  0  0  0  0
   -2.0303   -1.6761   -0.4542 H   0  0  0  0  0  0  0  0  0  0  0  0
   -2.0187   -0.0269    1.8831 H   0  0  0  0  0  0  0  0  0  0  0  0
   -3.7805    0.0187    0.3616 H   0  0  0  0  0  0  0  0  0  0  0  0
   -2.6709    0.4656   -1.0446 H   0  0  0  0  0  0  0  0  0  0  0  0
   -3.6454    2.3613   -0.1253 H   0  0  0  0  0  0  0  0  0  0  0  0
    0.7581   -1.6951    0.5324 H   0  0  0  0  0  0  0  0  0  0  0  0
    0.2337   -1.3298   -1.1714 H   0  0  0  0  0  0  0  0  0  0  0  0
    2.8399   -2.0429   -0.4666 H   0  0  0  0  0  0  0  0  0  0  0  0
    3.8954    0.4356   -0.6767 H   0  0  0  0  0  0  0  0  0  0  0  0
    1.8304    1.5085   -1.2596 H   0  0  0  0  0  0  0  0  0  0  0  0
    1.9851    1.8989    0.5340 H   0  0  0  0  0  0  0  0  0  0  0  0
  1  2  1  0
  2  3  1  0
  3  4  1  0
  2  5  1  0
  5  6  2  0
  5  7  1  0
  7  8  1  0
  8  9  1  0
  9 10  1  0
  9 11  1  0
 11 12  1  0
 11 13  1  0
 13  7  1  0
  1 14  1  0
  1 15  1  0
  2 16  1  1
  3 17  1  0
  3 18  1  0
  4 19  1  0
  8 20  1  0
  8 21  1  0
  9 22  1  6
 11 23  1  6
 13 24  1  0
 13 25  1  0
M  END
$$$$

     RDKit          3D

 25 25  0  0  0  0  0  0  0  0999 V2000
   -2.5189   -1.5638   -1.2828 N   0  0  0  0  0  0  0  0  0  0  0  0
   -1.5348   -1.1666   -0.2764 C   0  0  2  0  0  0  0  0  0  0  0  0
   -2.2839   -0.4894    0.8598 C   0  0  0  0  0  0  0  0  0  0  0  0
   -2.9576    0.6326    0.4150 O   0  0  0  0  0  0  0  0  0  0  0  0
   -0.5532   -0.2854   -0.9279 C   0  0  0  0  0  0  0  0  0  0  0  0
   -0.7740    0.0435   -2.1433 O   0  0  0  0  0  0  0  0  0  0  0  0
    0.6227    0.2290   -0.3158 N   0  0  0  0  0  0  0  0  0  0  0  0
    1.5905    1.0899   -0.9495 C   0  0  0  0  0  0  0  0  0  0  0  0
    2.5802    1.4245    0.1075 C   0  0  1  0  0  0  0  0  0  0  0  0
    2.0916    2.5037    0.8350 F   0  0  0  0  0  0  0  0  0  0  0  0
    2.5417    0.2267    1.0381 C   0  0  2  0  0  0  0  0  0  0  0  0
    3.2337   -0.8506    0.5487 F   0  0  0  0  0  0  0  0  0  0  0  0
    1.0342   -0.0478    1.0530 C   0  0  0  0  0  0  0  0  0  0  0  0
   -2.5525   -2.5890   -1.4064 H   0  0  0  0  0  0  0  0  0  0  0  0
   -3.4265   -1.1031   -1.1324 H   0  0  0  0  0  0  0  0  0  0  0  0
   -1.0336   -2.0594    0.1419 H   0  0  0  0  0  0  0  0  0  0  0  0
   -1.6340   -0.2756    1.7222 H   0  0  0  0  0  0  0  0  0  0  0  0
   -3.0691   -1.2192    1.2240 H   0  0  0  0  0  0  0  0  0  0  0  0
   -2.3913    1.2523   -0.0864 H   0  0  0  0  0  0  0  0  0  0  0  0
    2.0566    0.5727   -1.8171 H   0  0  0  0  0  0  0  0  0  0  0  0
    1.1250    2.0583   -1.2808 H   0  0  0  0  0  0  0  0  0  0  0  0
    3.6083    1.6234   -0.2702 H   0  0  0  0  0  0  0  0  0  0  0  0
    2.8474    0.4825    2.0664 H   0  0  0  0  0  0  0  0  0  0  0  0
    0.8531   -1.1073    1.2523 H   0  0  0  0  0  0  0  0  0  0  0  0
    0.5443    0.6181    1.7836 H   0  0  0  0  0  0  0  0  0  0  0  0
  1  2  1  0
  2  3  1  0
  3  4  1  0
  2  5  1  0
  5  6  2  0
  5  7  1  0
  7  8  1  0
  8  9  1  0
  9 10  1  0
  9 11  1  0
 11 12  1  0
 11 13  1  0
 13  7  1  0
  1 14  1  0
  1 15  1  0
  2 16  1  1
  3 17  1  0
  3 18  1  0
  4 19  1  0
  8 20  1  0
  8 21  1  0
  9 22  1  6
 11 23  1  1
 13 24  1  0
 13 25  1  0
M  END
$$$$

     RDKit          3D

 25 25  0  0  0  0  0  0  0  0999 V2000
    2.4469    1.5589    1.4047 N   0  0  0  0  0  0  0  0  0  0  0  0
    1.6626    0.4610    0.8343 C   0  0  2  0  0  0  0  0  0  0  0  0
    2.5932   -0.1608   -0.2044 C   0  0  0  0  0  0  0  0  0  0  0  0
    2.0074   -1.2353   -0.8420 O   0  0  0  0  0  0  0  0  0  0  0  0
    0.4522    0.9984    0.2110 C   0  0  0  0  0  0  0  0  0  0  0  0
    0.3912    2.2677    0.0764 O   0  0  0  0  0  0  0  0  0  0  0  0
   -0.6298    0.2480   -0.2409 N   0  0  0  0  0  0  0  0  0  0  0  0
   -0.8639   -1.1784   -0.2310 C   0  0  0  0  0  0  0  0  0  0  0  0
   -2.3584   -1.3464   -0.0347 C   0  0  1  0  0  0  0  0  0  0  0  0
   -2.6451   -2.0030    1.1431 F   0  0  0  0  0  0  0  0  0  0  0  0
   -2.8778    0.0667   -0.0176 C   0  0  2  0  0  0  0  0  0  0  0  0
   -4.1431    0.1624   -0.5590 F   0  0  0  0  0  0  0  0  0  0  0  0
   -1.8515    0.8039   -0.8510 C   0  0  0  0  0  0  0  0  0  0  0  0
    3.4472    1.2764    1.4435 H   0  0  0  0  0  0  0  0  0  0  0  0
    2.2795    2.3761    0.7917 H   0  0  0  0  0  0  0  0  0  0  0  0
    1.4406   -0.2892    1.5934 H   0  0  0  0  0  0  0  0  0  0  0  0
    2.8605    0.6175   -0.9744 H   0  0  0  0  0  0  0  0  0  0  0  0
    3.5100   -0.5085    0.3231 H   0  0  0  0  0  0  0  0  0  0  0  0
    2.7164   -1.7720   -1.2723 H   0  0  0  0  0  0  0  0  0  0  0  0
   -0.3156   -1.7240    0.5311 H   0  0  0  0  0  0  0  0  0  0  0  0
   -0.6275   -1.5539   -1.2695 H   0  0  0  0  0  0  0  0  0  0  0  0
   -2.8105   -1.8640   -0.8859 H   0  0  0  0  0  0  0  0  0  0  0  0
   -2.8626    0.4833    1.0261 H   0  0  0  0  0  0  0  0  0  0  0  0
   -1.9031    1.8858   -0.7569 H   0  0  0  0  0  0  0  0  0  0  0  0
   -1.9188    0.4297   -1.8899 H   0  0  0  0  0  0  0  0  0  0  0  0
  1  2  1  0
  2  3  1  0
  3  4  1  0
  2  5  1  0
  5  6  2  0
  5  7  1  0
  7  8  1  0
  8  9  1  0
  9 10  1  0
  9 11  1  0
 11 12  1  0
 11 13  1  0
 13  7  1  0
  1 14  1  0
  1 15  1  0
  2 16  1  1
  3 17  1  0
  3 18  1  0
  4 19  1  0
  8 20  1  0
  8 21  1  0
  9 22  1  6
 11 23  1  1
 13 24  1  0
 13 25  1  0
M  END
$$$$

     RDKit          3D

 25 25  0  0  0  0  0  0  0  0999 V2000
   -1.4748   -1.3927   -0.6152 N   0  0  0  0  0  0  0  0  0  0  0  0
   -1.8618   -0.2847    0.2083 C   0  0  2  0  0  0  0  0  0  0  0  0
   -2.9115    0.5115   -0.5312 C   0  0  0  0  0  0  0  0  0  0  0  0
   -3.3392    1.6174    0.2193 O   0  0  0  0  0  0  0  0  0  0  0  0
   -0.6995    0.5377    0.5981 C   0  0  0  0  0  0  0  0  0  0  0  0
   -0.9434    1.5411    1.3278 O   0  0  0  0  0  0  0  0  0  0  0  0
    0.6378    0.2829    0.2179 N   0  0  0  0  0  0  0  0  0  0  0  0
    1.7767    1.0844    0.5967 C   0  0  0  0  0  0  0  0  0  0  0  0
    2.9988    0.4554    0.0072 C   0  0  1  0  0  0  0  0  0  0  0  0
    3.9443    0.1153    0.9810 F   0  0  0  0  0  0  0  0  0  0  0  0
    2.5468   -0.7639   -0.7242 C   0  0  2  0  0  0  0  0  0  0  0  0
    2.9099   -0.6337   -2.0690 F   0  0  0  0  0  0  0  0  0  0  0  0
    1.0443   -0.8349   -0.6152 C   0  0  0  0  0  0  0  0  0  0  0  0
   -1.8179   -1.2924   -1.5787 H   0  0  0  0  0  0  0  0  0  0  0  0
   -1.7609   -2.2871   -0.1629 H   0  0  0  0  0  0  0  0  0  0  0  0
   -2.3385   -0.6515    1.1404 H   0  0  0  0  0  0  0  0  0  0  0  0
   -3.8123   -0.1637   -0.6056 H   0  0  0  0  0  0  0  0  0  0  0  0
   -2.6187    0.7694   -1.5505 H   0  0  0  0  0  0  0  0  0  0  0  0
   -3.8312    1.2544    1.0021 H   0  0  0  0  0  0  0  0  0  0  0  0
    1.9199    1.0853    1.7143 H   0  0  0  0  0  0  0  0  0  0  0  0
    1.6593    2.1453    0.3185 H   0  0  0  0  0  0  0  0  0  0  0  0
    3.5207    1.2018   -0.6496 H   0  0  0  0  0  0  0  0  0  0  0  0
    3.0534   -1.6847   -0.3727 H   0  0  0  0  0  0  0  0  0  0  0  0
    0.8135   -1.8191   -0.1544 H   0  0  0  0  0  0  0  0  0  0  0  0
    0.5840   -0.7935   -1.6325 H   0  0  0  0  0  0  0  0  0  0  0  0
  1  2  1  0
  2  3  1  0
  3  4  1  0
  2  5  1  0
  5  6  2  0
  5  7  1  0
  7  8  1  0
  8  9  1  0
  9 10  1  0
  9 11  1  0
 11 12  1  0
 11 13  1  0
 13  7  1  0
  1 14  1  0
  1 15  1  0
  2 16  1  1
  3 17  1  0
  3 18  1  0
  4 19  1  0
  8 20  1  0
  8 21  1  0
  9 22  1  6
 11 23  1  1
 13 24  1  0
 13 25  1  0
M  END
$$$$

     RDKit          3D

 25 25  0  0  0  0  0  0  0  0999 V2000
    2.5492    1.9847   -0.3786 N   0  0  0  0  0  0  0  0  0  0  0  0
    1.5664    1.0662    0.2316 C   0  0  2  0  0  0  0  0  0  0  0  0
    2.2962   -0.2696    0.4785 C   0  0  0  0  0  0  0  0  0  0  0  0
    3.3749   -0.0856    1.3392 O   0  0  0  0  0  0  0  0  0  0  0  0
    0.4611    0.7943   -0.6957 C   0  0  0  0  0  0  0  0  0  0  0  0
    0.6679    1.1144   -1.9175 O   0  0  0  0  0  0  0  0  0  0  0  0
   -0.7853    0.2252   -0.3744 N   0  0  0  0  0  0  0  0  0  0  0  0
   -1.2391   -0.1738    0.9366 C   0  0  0  0  0  0  0  0  0  0  0  0
   -1.9041   -1.5053    0.5448 C   0  0  1  0  0  0  0  0  0  0  0  0
   -2.5602   -2.0748    1.5780 F   0  0  0  0  0  0  0  0  0  0  0  0
   -2.8176   -0.9898   -0.5481 C   0  0  2  0  0  0  0  0  0  0  0  0
   -3.3178   -2.0059   -1.3282 F   0  0  0  0  0  0  0  0  0  0  0  0
   -1.8715   -0.0871   -1.3099 C   0  0  0  0  0  0  0  0  0  0  0  0
    1.9716    2.7945   -0.7325 H   0  0  0  0  0  0  0  0  0  0  0  0
    3.1584    2.3906    0.3707 H   0  0  0  0  0  0  0  0  0  0  0  0
    1.2994    1.4805    1.1987 H   0  0  0  0  0  0  0  0  0  0  0  0
    1.5535   -0.9750    0.8476 H   0  0  0  0  0  0  0  0  0  0  0  0
    2.7036   -0.6500   -0.4958 H   0  0  0  0  0  0  0  0  0  0  0  0
    3.9838   -0.8765    1.1937 H   0  0  0  0  0  0  0  0  0  0  0  0
   -0.4949   -0.2656    1.7082 H   0  0  0  0  0  0  0  0  0  0  0  0
   -2.0742    0.5252    1.1961 H   0  0  0  0  0  0  0  0  0  0  0  0
   -1.1443   -2.1379    0.0556 H   0  0  0  0  0  0  0  0  0  0  0  0
   -3.6166   -0.3704   -0.0781 H   0  0  0  0  0  0  0  0  0  0  0  0
   -1.4128   -0.7173   -2.1063 H   0  0  0  0  0  0  0  0  0  0  0  0
   -2.3477    0.8091   -1.7142 H   0  0  0  0  0  0  0  0  0  0  0  0
  1  2  1  0
  2  3  1  0
  3  4  1  0
  2  5  1  0
  5  6  2  0
  5  7  1  0
  7  8  1  0
  8  9  1  0
  9 10  1  0
  9 11  1  0
 11 12  1  0
 11 13  1  0
 13  7  1  0
  1 14  1  0
  1 15  1  0
  2 16  1  1
  3 17  1  0
  3 18  1  0
  4 19  1  0
  8 20  1  0
  8 21  1  0
  9 22  1  6
 11 23  1  1
 13 24  1  0
 13 25  1  0
M  END
$$$$
