
     RDKit          3D

 27 26  0  0  0  0  0  0  0  0999 V2000
    0.9462    1.7843    0.2409 C   0  0  0  0  0  0  0  0  0  0  0  0
    0.5210    0.3476    0.4594 C   0  0  2  0  0  0  0  0  0  0  0  0
    1.7000   -0.5269    0.8325 C   0  0  0  0  0  0  0  0  0  0  0  0
    2.7447   -0.5590   -0.1819 C   0  0  0  0  0  0  0  0  0  0  0  0
    3.9284    0.1811   -0.0252 N   0  0  0  0  0  0  0  0  0  0  0  0
    2.6020   -1.2502   -1.2138 O   0  0  0  0  0  0  0  0  0  0  0  0
   -0.1870   -0.1489   -0.6104 O   0  0  0  0  0  0  0  0  0  0  0  0
   -1.4707   -0.4923   -0.2225 C   0  0  1  0  0  0  0  0  0  0  0  0
   -2.5335    0.1817   -1.0316 C   0  0  0  0  0  0  0  0  0  0  0  0
   -2.5207    1.6125   -0.9823 N   0  0  0  0  0  0  0  0  0  0  0  0
   -1.6997   -1.9706   -0.3647 C   0  0  0  0  0  0  0  0  0  0  0  0
   -0.7821   -2.6936   -0.7848 O   0  0  0  0  0  0  0  0  0  0  0  0
   -2.9151   -2.5402   -0.0354 O   0  0  0  0  0  0  0  0  0  0  0  0
    1.8352    2.0240    0.8639 H   0  0  0  0  0  0  0  0  0  0  0  0
    1.1420    2.0068   -0.8172 H   0  0  0  0  0  0  0  0  0  0  0  0
    0.1292    2.4541    0.5754 H   0  0  0  0  0  0  0  0  0  0  0  0
   -0.1411    0.3413    1.3494 H   0  0  0  0  0  0  0  0  0  0  0  0
    2.0835   -0.1204    1.8073 H   0  0  0  0  0  0  0  0  0  0  0  0
    1.2751   -1.5277    1.0833 H   0  0  0  0  0  0  0  0  0  0  0  0
    4.5306    0.0295    0.8007 H   0  0  0  0  0  0  0  0  0  0  0  0
    4.2088    0.8818   -0.7304 H   0  0  0  0  0  0  0  0  0  0  0  0
   -1.6198   -0.2808    0.8611 H   0  0  0  0  0  0  0  0  0  0  0  0
   -3.5393   -0.1567   -0.7029 H   0  0  0  0  0  0  0  0  0  0  0  0
   -2.4332   -0.1592   -2.0852 H   0  0  0  0  0  0  0  0  0  0  0  0
   -3.1781    2.0377   -0.3096 H   0  0  0  0  0  0  0  0  0  0  0  0
   -1.6080    2.0649   -1.0887 H   0  0  0  0  0  0  0  0  0  0  0  0
   -3.0182   -3.5208    0.2030 H   0  0  0  0  0  0  0  0  0  0  0  0
  1  2  1  0
  2  3  1  0
  3  4  1  0
  4  5  1  0
  4  6  2  0
  2  7  1  0
  7  8  1  0
  8  9  1  0
  9 10  1  0
  8 11  1  0
 11 12  2  0
 11 13  1  0
  1 14  1  0
  1 15  1  0
  1 16  1  0
  2 17  1  1
  3 18  1  0
  3 19  1  0
  5 20  1  0
  5 21  1  0
  8 22  1  1
  9 23  1  0
  9 24  1  0
 10 25  1  0
 10 26  1  0
 13 27  1  0
M  END
$$$$

     RDKit          3D

 27 26  0  0  0  0  0  0  0  0999 V2000
    0.6937   -1.5242    1.1205 C   0  0  0  0  0  0  0  0  0  0  0  0
    0.5586   -0.4195    0.0768 C   0  0  2  0  0  0  0  0  0  0  0  0
    1.7711    0.5047    0.1659 C   0  0  0  0  0  0  0  0  0  0  0  0
    3.0299   -0.2204   -0.0813 C   0  0  0  0  0  0  0  0  0  0  0  0
    4.2525    0.4706   -0.0399 N   0  0  0  0  0  0  0  0  0  0  0  0
    3.0689   -1.4482   -0.3321 O   0  0  0  0  0  0  0  0  0  0  0  0
   -0.5880    0.2747    0.3734 O   0  0  0  0  0  0  0  0  0  0  0  0
   -1.5125    0.3285   -0.6305 C   0  0  1  0  0  0  0  0  0  0  0  0
   -2.8698   -0.2166   -0.2225 C   0  0  0  0  0  0  0  0  0  0  0  0
   -2.7883   -1.6040    0.1836 N   0  0  0  0  0  0  0  0  0  0  0  0
   -1.7232    1.7448   -1.0189 C   0  0  0  0  0  0  0  0  0  0  0  0
   -2.5269    2.0878   -1.9254 O   0  0  0  0  0  0  0  0  0  0  0  0
   -1.0284    2.7419   -0.3825 O   0  0  0  0  0  0  0  0  0  0  0  0
    1.2793   -1.0768    1.9569 H   0  0  0  0  0  0  0  0  0  0  0  0
   -0.2964   -1.7692    1.5267 H   0  0  0  0  0  0  0  0  0  0  0  0
    1.1783   -2.4289    0.7039 H   0  0  0  0  0  0  0  0  0  0  0  0
    0.5708   -0.8425   -0.9479 H   0  0  0  0  0  0  0  0  0  0  0  0
    1.7952    0.9912    1.1776 H   0  0  0  0  0  0  0  0  0  0  0  0
    1.6432    1.3034   -0.5912 H   0  0  0  0  0  0  0  0  0  0  0  0
    5.0207    0.2038   -0.6712 H   0  0  0  0  0  0  0  0  0  0  0  0
    4.3810    1.2467    0.6240 H   0  0  0  0  0  0  0  0  0  0  0  0
   -1.1974   -0.2048   -1.5537 H   0  0  0  0  0  0  0  0  0  0  0  0
   -3.3359    0.4165    0.5452 H   0  0  0  0  0  0  0  0  0  0  0  0
   -3.5025   -0.1924   -1.1415 H   0  0  0  0  0  0  0  0  0  0  0  0
   -2.7997   -2.2577   -0.6301 H   0  0  0  0  0  0  0  0  0  0  0  0
   -3.6910   -1.8124    0.7053 H   0  0  0  0  0  0  0  0  0  0  0  0
   -1.3834    3.7030   -0.2781 H   0  0  0  0  0  0  0  0  0  0  0  0
  1  2  1  0
  2  3  1  0
  3  4  1  0
  4  5  1  0
  4  6  2  0
  2  7  1  0
  7  8  1  0
  8  9  1  0
  9 10  1  0
  8 11  1  0
 11 12  2  0
 11 13  1  0
  1 14  1  0
  1 15  1  0
  1 16  1  0
  2 17  1  6
  3 18  1  0
  3 19  1  0
  5 20  1  0
  5 21  1  0
  8 22  1  6
  9 23  1  0
  9 24  1  0
 10 25  1  0
 10 26  1  0
 13 27  1  0
M  END
$$$$

     RDKit          3D

 27 26  0  0  0  0  0  0  0  0999 V2000
    0.9214   -1.7186    0.9226 C   0  0  0  0  0  0  0  0  0  0  0  0
    0.6909   -0.3778    0.2579 C   0  0  2  0  0  0  0  0  0  0  0  0
    1.7778    0.6111    0.5987 C   0  0  0  0  0  0  0  0  0  0  0  0
    3.1079    0.0888    0.1409 C   0  0  0  0  0  0  0  0  0  0  0  0
    4.2960    0.8405    0.3472 N   0  0  0  0  0  0  0  0  0  0  0  0
    3.2209   -1.0295   -0.4403 O   0  0  0  0  0  0  0  0  0  0  0  0
   -0.5694    0.0833    0.4580 O   0  0  0  0  0  0  0  0  0  0  0  0
   -1.3697    0.1999   -0.6373 C   0  0  1  0  0  0  0  0  0  0  0  0
   -2.4743   -0.8594   -0.4895 C   0  0  0  0  0  0  0  0  0  0  0  0
   -3.2346   -0.6262    0.7220 N   0  0  0  0  0  0  0  0  0  0  0  0
   -2.0011    1.5057   -0.8167 C   0  0  0  0  0  0  0  0  0  0  0  0
   -1.8081    2.4434   -0.0076 O   0  0  0  0  0  0  0  0  0  0  0  0
   -2.8374    1.7526   -1.8908 O   0  0  0  0  0  0  0  0  0  0  0  0
   -0.0882   -2.1769    1.0765 H   0  0  0  0  0  0  0  0  0  0  0  0
    1.3952   -1.5954    1.9271 H   0  0  0  0  0  0  0  0  0  0  0  0
    1.4737   -2.4101    0.2702 H   0  0  0  0  0  0  0  0  0  0  0  0
    0.7996   -0.5749   -0.8514 H   0  0  0  0  0  0  0  0  0  0  0  0
    1.8415    0.8613    1.6530 H   0  0  0  0  0  0  0  0  0  0  0  0
    1.6140    1.5457    0.0249 H   0  0  0  0  0  0  0  0  0  0  0  0
    4.4173    1.4095    1.2068 H   0  0  0  0  0  0  0  0  0  0  0  0
    5.0611    0.8157   -0.3865 H   0  0  0  0  0  0  0  0  0  0  0  0
   -0.8006   -0.1276   -1.5560 H   0  0  0  0  0  0  0  0  0  0  0  0
   -1.9473   -1.8340   -0.4200 H   0  0  0  0  0  0  0  0  0  0  0  0
   -3.1111   -0.8918   -1.3789 H   0  0  0  0  0  0  0  0  0  0  0  0
   -4.2041   -0.9925    0.6564 H   0  0  0  0  0  0  0  0  0  0  0  0
   -3.2626    0.4016    0.9569 H   0  0  0  0  0  0  0  0  0  0  0  0
   -2.9086    2.6554   -2.3441 H   0  0  0  0  0  0  0  0  0  0  0  0
  1  2  1  0
  2  3  1  0
  3  4  1  0
  4  5  1  0
  4  6  2  0
  2  7  1  0
  7  8  1  0
  8  9  1  0
  9 10  1  0
  8 11  1  0
 11 12  2  0
 11 13  1  0
  1 14  1  0
  1 15  1  0
  1 16  1  0
  2 17  1  6
  3 18  1  0
  3 19  1  0
  5 20  1  0
  5 21  1  0
  8 22  1  6
  9 23  1  0
  9 24  1  0
 10 25  1  0
 10 26  1  0
 13 27  1  0
M  END
$$$$

     RDKit          3D

 27 26  0  0  0  0  0  0  0  0999 V2000
    0.9368   -1.4323   -1.8526 C   0  0  0  0  0  0  0  0  0  0  0  0
    0.8148   -0.1973   -0.9147 C   0  0  2  0  0  0  0  0  0  0  0  0
    2.1211   -0.1594   -0.1799 C   0  0  0  0  0  0  0  0  0  0  0  0
    2.2487    0.9518    0.7602 C   0  0  0  0  0  0  0  0  0  0  0  0
    3.4459    1.0222    1.5559 N   0  0  0  0  0  0  0  0  0  0  0  0
    1.3586    1.8112    0.8751 O   0  0  0  0  0  0  0  0  0  0  0  0
   -0.2111   -0.4603   -0.0067 O   0  0  0  0  0  0  0  0  0  0  0  0
   -1.2959    0.3697   -0.1029 C   0  0  1  0  0  0  0  0  0  0  0  0
   -2.5394   -0.4342   -0.5765 C   0  0  0  0  0  0  0  0  0  0  0  0
   -2.7970   -1.4750    0.3994 N   0  0  0  0  0  0  0  0  0  0  0  0
   -1.7319    1.0187    1.1390 C   0  0  0  0  0  0  0  0  0  0  0  0
   -1.2299    0.8813    2.2595 O   0  0  0  0  0  0  0  0  0  0  0  0
   -2.8310    1.8818    1.0370 O   0  0  0  0  0  0  0  0  0  0  0  0
    1.9840   -1.4986   -2.2151 H   0  0  0  0  0  0  0  0  0  0  0  0
    0.2955   -1.2968   -2.7405 H   0  0  0  0  0  0  0  0  0  0  0  0
    0.7151   -2.3409   -1.2696 H   0  0  0  0  0  0  0  0  0  0  0  0
    0.6434    0.6489   -1.5688 H   0  0  0  0  0  0  0  0  0  0  0  0
    2.2071   -1.1088    0.3941 H   0  0  0  0  0  0  0  0  0  0  0  0
    2.9177   -0.1145   -0.9679 H   0  0  0  0  0  0  0  0  0  0  0  0
    3.7142    0.2037    2.0962 H   0  0  0  0  0  0  0  0  0  0  0  0
    3.9748    1.9007    1.5396 H   0  0  0  0  0  0  0  0  0  0  0  0
   -1.1298    1.1461   -0.8768 H   0  0  0  0  0  0  0  0  0  0  0  0
   -2.3964   -0.8077   -1.5883 H   0  0  0  0  0  0  0  0  0  0  0  0
   -3.3761    0.2896   -0.5068 H   0  0  0  0  0  0  0  0  0  0  0  0
   -2.6538   -1.0881    1.3580 H   0  0  0  0  0  0  0  0  0  0  0  0
   -2.2166   -2.3374    0.2285 H   0  0  0  0  0  0  0  0  0  0  0  0
   -2.9690    2.6256    1.7247 H   0  0  0  0  0  0  0  0  0  0  0  0
  1  2  1  0
  2  3  1  0
  3  4  1  0
  4  5  1  0
  4  6  2  0
  2  7  1  0
  7  8  1  0
  8  9  1  0
  9 10  1  0
  8 11  1  0
 11 12  2  0
 11 13  1  0
  1 14  1  0
  1 15  1  0
  1 16  1  0
  2 17  1  6
  3 18  1  0
  3 19  1  0
  5 20  1  0
  5 21  1  0
  8 22  1  6
  9 23  1  0
  9 24  1  0
 10 25  1  0
 10 26  1  0
 13 27  1  0
M  END
$$$$

     RDKit          3D

 27 26  0  0  0  0  0  0  0  0999 V2000
    0.5794   -1.5875   -1.7472 C   0  0  0  0  0  0  0  0  0  0  0  0
    0.7595   -0.3779   -0.8439 C   0  0  2  0  0  0  0  0  0  0  0  0
    2.2089   -0.1656   -0.7017 C   0  0  0  0  0  0  0  0  0  0  0  0
    2.6878    0.9345    0.1018 C   0  0  0  0  0  0  0  0  0  0  0  0
    1.9611    1.9109    0.7720 N   0  0  0  0  0  0  0  0  0  0  0  0
    3.9637    1.0186    0.2087 O   0  0  0  0  0  0  0  0  0  0  0  0
    0.0710   -0.6085    0.3449 O   0  0  0  0  0  0  0  0  0  0  0  0
   -0.9893    0.2333    0.5303 C   0  0  1  0  0  0  0  0  0  0  0  0
   -2.2915   -0.5950    0.4417 C   0  0  0  0  0  0  0  0  0  0  0  0
   -2.4324   -1.2392   -0.8290 N   0  0  0  0  0  0  0  0  0  0  0  0
   -1.0314    0.9157    1.8407 C   0  0  0  0  0  0  0  0  0  0  0  0
   -0.1585    0.6909    2.7070 O   0  0  0  0  0  0  0  0  0  0  0  0
   -2.0372    1.8140    2.1299 O   0  0  0  0  0  0  0  0  0  0  0  0
    0.3479   -2.4475   -1.0798 H   0  0  0  0  0  0  0  0  0  0  0  0
    1.5454   -1.8409   -2.2230 H   0  0  0  0  0  0  0  0  0  0  0  0
   -0.2087   -1.4256   -2.5049 H   0  0  0  0  0  0  0  0  0  0  0  0
    0.2474    0.4759   -1.3745 H   0  0  0  0  0  0  0  0  0  0  0  0
    2.6278   -0.0482   -1.7422 H   0  0  0  0  0  0  0  0  0  0  0  0
    2.6722   -1.1203   -0.3344 H   0  0  0  0  0  0  0  0  0  0  0  0
    1.2732    2.4877    0.2691 H   0  0  0  0  0  0  0  0  0  0  0  0
    2.1070    2.0632    1.7794 H   0  0  0  0  0  0  0  0  0  0  0  0
   -1.1305    0.9895   -0.2761 H   0  0  0  0  0  0  0  0  0  0  0  0
   -2.2006   -1.3881    1.2163 H   0  0  0  0  0  0  0  0  0  0  0  0
   -3.1747    0.0280    0.6364 H   0  0  0  0  0  0  0  0  0  0  0  0
   -3.2884   -1.0138   -1.3471 H   0  0  0  0  0  0  0  0  0  0  0  0
   -2.1618   -2.2456   -0.8311 H   0  0  0  0  0  0  0  0  0  0  0  0
   -1.9472    2.5416    2.8566 H   0  0  0  0  0  0  0  0  0  0  0  0
  1  2  1  0
  2  3  1  0
  3  4  1  0
  4  5  1  0
  4  6  2  0
  2  7  1  0
  7  8  1  0
  8  9  1  0
  9 10  1  0
  8 11  1  0
 11 12  2  0
 11 13  1  0
  1 14  1  0
  1 15  1  0
  1 16  1  0
  2 17  1  6
  3 18  1  0
  3 19  1  0
  5 20  1  0
  5 21  1  0
  8 22  1  6
  9 23  1  0
  9 24  1  0
 10 25  1  0
 10 26  1  0
 13 27  1  0
M  END
$$$$

     RDKit          3D

 27 26  0  0  0  0  0  0  0  0999 V2000
    1.1241   -1.4055    1.2260 C   0  0  0  0  0  0  0  0  0  0  0  0
    0.7027   -0.3889    0.1828 C   0  0  2  0  0  0  0  0  0  0  0  0
    1.8201    0.6159   -0.0070 C   0  0  0  0  0  0  0  0  0  0  0  0
    3.0678   -0.0442   -0.4609 C   0  0  0  0  0  0  0  0  0  0  0  0
    4.2479    0.7002   -0.7043 N   0  0  0  0  0  0  0  0  0  0  0  0
    3.0515   -1.2858   -0.6247 O   0  0  0  0  0  0  0  0  0  0  0  0
   -0.4610    0.2717    0.5754 O   0  0  0  0  0  0  0  0  0  0  0  0
   -1.4983    0.1021   -0.3139 C   0  0  1  0  0  0  0  0  0  0  0  0
   -2.6590   -0.6312    0.3622 C   0  0  0  0  0  0  0  0  0  0  0  0
   -3.7428   -0.8046   -0.5792 N   0  0  0  0  0  0  0  0  0  0  0  0
   -2.0214    1.4235   -0.7434 C   0  0  0  0  0  0  0  0  0  0  0  0
   -2.9751    1.5226   -1.5576 O   0  0  0  0  0  0  0  0  0  0  0  0
   -1.4715    2.5958   -0.2572 O   0  0  0  0  0  0  0  0  0  0  0  0
    0.2630   -1.6299    1.9038 H   0  0  0  0  0  0  0  0  0  0  0  0
    1.9432   -1.0505    1.8567 H   0  0  0  0  0  0  0  0  0  0  0  0
    1.3827   -2.3677    0.7429 H   0  0  0  0  0  0  0  0  0  0  0  0
    0.5488   -0.9237   -0.7819 H   0  0  0  0  0  0  0  0  0  0  0  0
    2.0313    1.1493    0.9276 H   0  0  0  0  0  0  0  0  0  0  0  0
    1.5135    1.3589   -0.7685 H   0  0  0  0  0  0  0  0  0  0  0  0
    4.3422    1.6225   -0.2139 H   0  0  0  0  0  0  0  0  0  0  0  0
    4.9967    0.3455   -1.3476 H   0  0  0  0  0  0  0  0  0  0  0  0
   -1.1904   -0.5292   -1.1637 H   0  0  0  0  0  0  0  0  0  0  0  0
   -2.3242   -1.6119    0.7662 H   0  0  0  0  0  0  0  0  0  0  0  0
   -3.0002   -0.0398    1.2559 H   0  0  0  0  0  0  0  0  0  0  0  0
   -4.3422   -1.6168   -0.3722 H   0  0  0  0  0  0  0  0  0  0  0  0
   -3.4109   -0.8693   -1.5666 H   0  0  0  0  0  0  0  0  0  0  0  0
   -1.9385    3.4910   -0.4535 H   0  0  0  0  0  0  0  0  0  0  0  0
  1  2  1  0
  2  3  1  0
  3  4  1  0
  4  5  1  0
  4  6  2  0
  2  7  1  0
  7  8  1  0
  8  9  1  0
  9 10  1  0
  8 11  1  0
 11 12  2  0
 11 13  1  0
  1 14  1  0
  1 15  1  0
  1 16  1  0
  2 17  1  6
  3 18  1  0
  3 19  1  0
  5 20  1  0
  5 21  1  0
  8 22  1  6
  9 23  1  0
  9 24  1  0
 10 25  1  0
 10 26  1  0
 13 27  1  0
M  END
$$$$

     RDKit          3D

 27 26  0  0  0  0  0  0  0  0999 V2000
    1.0462   -0.5657   -1.7126 C   0  0  0  0  0  0  0  0  0  0  0  0
    0.6243   -0.1917   -0.3143 C   0  0  2  0  0  0  0  0  0  0  0  0
    1.7623   -0.4825    0.6362 C   0  0  0  0  0  0  0  0  0  0  0  0
    2.9808    0.2935    0.2824 C   0  0  0  0  0  0  0  0  0  0  0  0
    4.1444    0.1536    1.0557 N   0  0  0  0  0  0  0  0  0  0  0  0
    2.9117    1.0649   -0.7262 O   0  0  0  0  0  0  0  0  0  0  0  0
   -0.5761   -0.6788    0.0750 O   0  0  0  0  0  0  0  0  0  0  0  0
   -1.5726    0.1831    0.3569 C   0  0  1  0  0  0  0  0  0  0  0  0
   -2.7431   -0.0936   -0.5699 C   0  0  0  0  0  0  0  0  0  0  0  0
   -2.3473    0.0736   -1.9566 N   0  0  0  0  0  0  0  0  0  0  0  0
   -2.1103    0.0311    1.7551 C   0  0  0  0  0  0  0  0  0  0  0  0
   -1.6466   -0.8292    2.5522 O   0  0  0  0  0  0  0  0  0  0  0  0
   -3.1377    0.8334    2.2194 O   0  0  0  0  0  0  0  0  0  0  0  0
    0.4734   -1.4188   -2.1217 H   0  0  0  0  0  0  0  0  0  0  0  0
    0.9183    0.2699   -2.4394 H   0  0  0  0  0  0  0  0  0  0  0  0
    2.1228   -0.8802   -1.7544 H   0  0  0  0  0  0  0  0  0  0  0  0
    0.5267    0.9371   -0.3209 H   0  0  0  0  0  0  0  0  0  0  0  0
    1.5263   -0.2500    1.6791 H   0  0  0  0  0  0  0  0  0  0  0  0
    2.0498   -1.5615    0.5364 H   0  0  0  0  0  0  0  0  0  0  0  0
    4.7910    0.9795    1.1335 H   0  0  0  0  0  0  0  0  0  0  0  0
    4.3811   -0.7345    1.5479 H   0  0  0  0  0  0  0  0  0  0  0  0
   -1.3350    1.2548    0.2480 H   0  0  0  0  0  0  0  0  0  0  0  0
   -3.1168   -1.1071   -0.3683 H   0  0  0  0  0  0  0  0  0  0  0  0
   -3.5838    0.6159   -0.3942 H   0  0  0  0  0  0  0  0  0  0  0  0
   -1.6443    0.8494   -2.0326 H   0  0  0  0  0  0  0  0  0  0  0  0
   -3.1449    0.2528   -2.5836 H   0  0  0  0  0  0  0  0  0  0  0  0
   -3.3005    1.0011    3.2169 H   0  0  0  0  0  0  0  0  0  0  0  0
  1  2  1  0
  2  3  1  0
  3  4  1  0
  4  5  1  0
  4  6  2  0
  2  7  1  0
  7  8  1  0
  8  9  1  0
  9 10  1  0
  8 11  1  0
 11 12  2  0
 11 13  1  0
  1 14  1  0
  1 15  1  0
  1 16  1  0
  2 17  1  6
  3 18  1  0
  3 19  1  0
  5 20  1  0
  5 21  1  0
  8 22  1  1
  9 23  1  0
  9 24  1  0
 10 25  1  0
 10 26  1  0
 13 27  1  0
M  END
$$$$

     RDKit          3D

 27 26  0  0  0  0  0  0  0  0999 V2000
    1.5122    1.3620    1.2936 C   0  0  0  0  0  0  0  0  0  0  0  0
    0.7393    0.3981    0.4178 C   0  0  2  0  0  0  0  0  0  0  0  0
    1.7147   -0.1762   -0.5852 C   0  0  0  0  0  0  0  0  0  0  0  0
    2.8277   -0.8958    0.0830 C   0  0  0  0  0  0  0  0  0  0  0  0
    3.8637   -1.5170   -0.6635 N   0  0  0  0  0  0  0  0  0  0  0  0
    2.8771   -0.9710    1.3356 O   0  0  0  0  0  0  0  0  0  0  0  0
   -0.2628    1.0342   -0.3007 O   0  0  0  0  0  0  0  0  0  0  0  0
   -1.5166    0.5328   -0.0918 C   0  0  1  0  0  0  0  0  0  0  0  0
   -2.4755    1.5224    0.5206 C   0  0  0  0  0  0  0  0  0  0  0  0
   -3.7606    0.8638    0.6869 N   0  0  0  0  0  0  0  0  0  0  0  0
   -2.1446   -0.0341   -1.2920 C   0  0  0  0  0  0  0  0  0  0  0  0
   -3.2919   -0.5404   -1.2969 O   0  0  0  0  0  0  0  0  0  0  0  0
   -1.4434   -0.0145   -2.4873 O   0  0  0  0  0  0  0  0  0  0  0  0
    0.8244    2.1964    1.5526 H   0  0  0  0  0  0  0  0  0  0  0  0
    1.8089    0.8938    2.2550 H   0  0  0  0  0  0  0  0  0  0  0  0
    2.4466    1.7097    0.8035 H   0  0  0  0  0  0  0  0  0  0  0  0
    0.3682   -0.4222    1.0533 H   0  0  0  0  0  0  0  0  0  0  0  0
    1.2074   -0.7897   -1.3559 H   0  0  0  0  0  0  0  0  0  0  0  0
    2.1734    0.7010   -1.1076 H   0  0  0  0  0  0  0  0  0  0  0  0
    3.7453   -2.4870   -1.0398 H   0  0  0  0  0  0  0  0  0  0  0  0
    4.7701   -1.0176   -0.8543 H   0  0  0  0  0  0  0  0  0  0  0  0
   -1.4213   -0.3149    0.6488 H   0  0  0  0  0  0  0  0  0  0  0  0
   -2.1475    1.8660    1.5050 H   0  0  0  0  0  0  0  0  0  0  0  0
   -2.5759    2.4221   -0.1332 H   0  0  0  0  0  0  0  0  0  0  0  0
   -3.6175   -0.1280    0.9817 H   0  0  0  0  0  0  0  0  0  0  0  0
   -4.3278    1.3097    1.4579 H   0  0  0  0  0  0  0  0  0  0  0  0
   -1.8935    0.0523   -3.3872 H   0  0  0  0  0  0  0  0  0  0  0  0
  1  2  1  0
  2  3  1  0
  3  4  1  0
  4  5  1  0
  4  6  2  0
  2  7  1  0
  7  8  1  0
  8  9  1  0
  9 10  1  0
  8 11  1  0
 11 12  2  0
 11 13  1  0
  1 14  1  0
  1 15  1  0
  1 16  1  0
  2 17  1  1
  3 18  1  0
  3 19  1  0
  5 20  1  0
  5 21  1  0
  8 22  1  1
  9 23  1  0
  9 24  1  0
 10 25  1  0
 10 26  1  0
 13 27  1  0
M  END
$$$$
