
     RDKit          3D

 29 28  0  0  0  0  0  0  0  0999 V2000
    1.6093   -1.0399    0.6899 C   0  0  0  0  0  0  0  0  0  0  0  0
    1.3200    0.0065   -0.3390 C   0  0  1  0  0  0  0  0  0  0  0  0
    1.6227   -0.4663   -1.6996 C   0  0  0  0  0  0  0  0  0  0  0  0
    2.7355   -1.3026   -1.9324 N   0  0  0  0  0  0  0  0  0  0  0  0
    0.8954   -0.1268   -2.6408 O   0  0  0  0  0  0  0  0  0  0  0  0
    0.0761    0.6948   -0.2396 N   0  0  0  0  0  0  0  0  0  0  0  0
   -1.0960   -0.0779   -0.4228 C   0  0  0  0  0  0  0  0  0  0  0  0
   -1.4638   -1.0921    0.5893 C   0  0  0  0  0  0  0  0  0  0  0  0
   -2.7269   -1.7124    0.1279 N   0  0  0  0  0  0  0  0  0  0  0  0
    0.0685    1.5222    0.9392 C   0  0  0  0  0  0  0  0  0  0  0  0
   -1.0610    2.5302    0.9280 C   0  0  0  0  0  0  0  0  0  0  0  0
   -0.8455    3.3384   -0.2141 O   0  0  0  0  0  0  0  0  0  0  0  0
    2.6982   -0.9654    1.0361 H   0  0  0  0  0  0  0  0  0  0  0  0
    0.9921   -1.0193    1.5864 H   0  0  0  0  0  0  0  0  0  0  0  0
    1.5554   -2.0574    0.2347 H   0  0  0  0  0  0  0  0  0  0  0  0
    2.0947    0.8231   -0.1585 H   0  0  0  0  0  0  0  0  0  0  0  0
    2.7604   -1.9539   -2.7570 H   0  0  0  0  0  0  0  0  0  0  0  0
    3.5898   -1.3301   -1.3237 H   0  0  0  0  0  0  0  0  0  0  0  0
   -1.9683    0.6448   -0.4886 H   0  0  0  0  0  0  0  0  0  0  0  0
   -1.0614   -0.5609   -1.4336 H   0  0  0  0  0  0  0  0  0  0  0  0
   -1.6461   -0.6880    1.5805 H   0  0  0  0  0  0  0  0  0  0  0  0
   -0.7716   -1.9863    0.5719 H   0  0  0  0  0  0  0  0  0  0  0  0
   -3.4746   -1.4273    0.7647 H   0  0  0  0  0  0  0  0  0  0  0  0
   -2.6692   -2.7301    0.0435 H   0  0  0  0  0  0  0  0  0  0  0  0
   -0.0997    0.8020    1.8002 H   0  0  0  0  0  0  0  0  0  0  0  0
    1.0144    2.0626    1.0066 H   0  0  0  0  0  0  0  0  0  0  0  0
   -2.0594    2.0810    0.9329 H   0  0  0  0  0  0  0  0  0  0  0  0
   -0.9155    3.1927    1.8287 H   0  0  0  0  0  0  0  0  0  0  0  0
   -1.1736    2.8385   -1.0106 H   0  0  0  0  0  0  0  0  0  0  0  0
  1  2  1  0
  2  3  1  0
  3  4  1  0
  3  5  2  0
  2  6  1  0
  6  7  1  0
  7  8  1  0
  8  9  1  0
  6 10  1  0
 10 11  1  0
 11 12  1  0
  1 13  1  0
  1 14  1  0
  1 15  1  0
  2 16  1  1
  4 17  1  0
  4 18  1  0
  7 19  1  0
  7 20  1  0
  8 21  1  0
  8 22  1  0
  9 23  1  0
  9 24  1  0
 10 25  1  0
 10 26  1  0
 11 27  1  0
 11 28  1  0
 12 29  1  0
M  END
$$$$

     RDKit          3D

 29 28  0  0  0  0  0  0  0  0999 V2000
    1.2350   -1.1227    1.4569 C   0  0  0  0  0  0  0  0  0  0  0  0
    1.2939   -0.1708    0.2545 C   0  0  1  0  0  0  0  0  0  0  0  0
    1.6139   -0.9222   -0.9715 C   0  0  0  0  0  0  0  0  0  0  0  0
    2.7512   -1.7679   -0.9643 N   0  0  0  0  0  0  0  0  0  0  0  0
    0.9387   -0.8597   -2.0139 O   0  0  0  0  0  0  0  0  0  0  0  0
    0.1120    0.6510    0.1709 N   0  0  0  0  0  0  0  0  0  0  0  0
   -1.0860    0.0193   -0.1407 C   0  0  0  0  0  0  0  0  0  0  0  0
   -1.6862   -0.9736    0.8020 C   0  0  0  0  0  0  0  0  0  0  0  0
   -2.9408   -1.3944    0.1212 N   0  0  0  0  0  0  0  0  0  0  0  0
    0.4094    1.7465   -0.7161 C   0  0  0  0  0  0  0  0  0  0  0  0
   -0.6496    2.8101   -0.6326 C   0  0  0  0  0  0  0  0  0  0  0  0
   -0.6646    3.2232    0.7173 O   0  0  0  0  0  0  0  0  0  0  0  0
    2.1834   -1.0311    2.0691 H   0  0  0  0  0  0  0  0  0  0  0  0
    1.1756   -2.1540    1.1403 H   0  0  0  0  0  0  0  0  0  0  0  0
    0.4407   -0.8450    2.1779 H   0  0  0  0  0  0  0  0  0  0  0  0
    2.1441    0.5133    0.4496 H   0  0  0  0  0  0  0  0  0  0  0  0
    2.7297   -2.7620   -0.6818 H   0  0  0  0  0  0  0  0  0  0  0  0
    3.6563   -1.3668   -1.2689 H   0  0  0  0  0  0  0  0  0  0  0  0
   -1.8829    0.8295   -0.1907 H   0  0  0  0  0  0  0  0  0  0  0  0
   -1.1538   -0.4278   -1.1685 H   0  0  0  0  0  0  0  0  0  0  0  0
   -1.1566   -1.9218    0.9251 H   0  0  0  0  0  0  0  0  0  0  0  0
   -1.9861   -0.6064    1.7665 H   0  0  0  0  0  0  0  0  0  0  0  0
   -3.4652   -2.0470    0.7262 H   0  0  0  0  0  0  0  0  0  0  0  0
   -2.6816   -1.8045   -0.8088 H   0  0  0  0  0  0  0  0  0  0  0  0
    1.4141    2.1682   -0.4896 H   0  0  0  0  0  0  0  0  0  0  0  0
    0.4443    1.3439   -1.7641 H   0  0  0  0  0  0  0  0  0  0  0  0
   -0.3106    3.7172   -1.2474 H   0  0  0  0  0  0  0  0  0  0  0  0
   -1.6208    2.4852   -0.9699 H   0  0  0  0  0  0  0  0  0  0  0  0
   -1.2572    2.6702    1.2514 H   0  0  0  0  0  0  0  0  0  0  0  0
  1  2  1  0
  2  3  1  0
  3  4  1  0
  3  5  2  0
  2  6  1  0
  6  7  1  0
  7  8  1  0
  8  9  1  0
  6 10  1  0
 10 11  1  0
 11 12  1  0
  1 13  1  0
  1 14  1  0
  1 15  1  0
  2 16  1  1
  4 17  1  0
  4 18  1  0
  7 19  1  0
  7 20  1  0
  8 21  1  0
  8 22  1  0
  9 23  1  0
  9 24  1  0
 10 25  1  0
 10 26  1  0
 11 27  1  0
 11 28  1  0
 12 29  1  0
M  END
$$$$

     RDKit          3D

 29 28  0  0  0  0  0  0  0  0999 V2000
    1.7665   -1.1496    0.6082 C   0  0  0  0  0  0  0  0  0  0  0  0
    1.0492    0.1041    0.1528 C   0  0  1  0  0  0  0  0  0  0  0  0
    2.0686    0.6848   -0.8376 C   0  0  0  0  0  0  0  0  0  0  0  0
    3.2973    1.1156   -0.2667 N   0  0  0  0  0  0  0  0  0  0  0  0
    1.8545    0.7761   -2.0422 O   0  0  0  0  0  0  0  0  0  0  0  0
   -0.1529   -0.0377   -0.5456 N   0  0  0  0  0  0  0  0  0  0  0  0
   -1.2461   -0.7434    0.0574 C   0  0  0  0  0  0  0  0  0  0  0  0
   -1.0943   -2.2196    0.1840 C   0  0  0  0  0  0  0  0  0  0  0  0
   -2.2935   -2.8151    0.8081 N   0  0  0  0  0  0  0  0  0  0  0  0
   -0.6505    1.3053   -0.8793 C   0  0  0  0  0  0  0  0  0  0  0  0
   -1.1293    2.0802    0.3070 C   0  0  0  0  0  0  0  0  0  0  0  0
   -1.5790    3.3511   -0.1308 O   0  0  0  0  0  0  0  0  0  0  0  0
    1.7538   -1.9111   -0.1635 H   0  0  0  0  0  0  0  0  0  0  0  0
    1.5356   -1.4645    1.6304 H   0  0  0  0  0  0  0  0  0  0  0  0
    2.8664   -0.8474    0.6872 H   0  0  0  0  0  0  0  0  0  0  0  0
    1.0159    0.8285    0.9724 H   0  0  0  0  0  0  0  0  0  0  0  0
    3.3429    2.0348    0.2234 H   0  0  0  0  0  0  0  0  0  0  0  0
    4.1554    0.5451   -0.3237 H   0  0  0  0  0  0  0  0  0  0  0  0
   -1.6129   -0.3142    1.0077 H   0  0  0  0  0  0  0  0  0  0  0  0
   -2.1163   -0.5877   -0.6582 H   0  0  0  0  0  0  0  0  0  0  0  0
   -0.9834   -2.6970   -0.8248 H   0  0  0  0  0  0  0  0  0  0  0  0
   -0.2686   -2.5831    0.8040 H   0  0  0  0  0  0  0  0  0  0  0  0
   -2.6642   -3.5896    0.2499 H   0  0  0  0  0  0  0  0  0  0  0  0
   -2.9847   -2.0596    1.0414 H   0  0  0  0  0  0  0  0  0  0  0  0
    0.1374    1.8664   -1.3735 H   0  0  0  0  0  0  0  0  0  0  0  0
   -1.4786    1.1881   -1.6203 H   0  0  0  0  0  0  0  0  0  0  0  0
   -0.3521    2.2678    1.0527 H   0  0  0  0  0  0  0  0  0  0  0  0
   -2.0333    1.6117    0.7622 H   0  0  0  0  0  0  0  0  0  0  0  0
   -2.2038    3.2600   -0.8827 H   0  0  0  0  0  0  0  0  0  0  0  0
  1  2  1  0
  2  3  1  0
  3  4  1  0
  3  5  2  0
  2  6  1  0
  6  7  1  0
  7  8  1  0
  8  9  1  0
  6 10  1  0
 10 11  1  0
 11 12  1  0
  1 13  1  0
  1 14  1  0
  1 15  1  0
  2 16  1  1
  4 17  1  0
  4 18  1  0
  7 19  1  0
  7 20  1  0
  8 21  1  0
  8 22  1  0
  9 23  1  0
  9 24  1  0
 10 25  1  0
 10 26  1  0
 11 27  1  0
 11 28  1  0
 12 29  1  0
M  END
$$$$

     RDKit          3D

 29 28  0  0  0  0  0  0  0  0999 V2000
   -1.5394   -1.4528   -0.7551 C   0  0  0  0  0  0  0  0  0  0  0  0
   -1.1146   -0.0448   -0.3200 C   0  0  1  0  0  0  0  0  0  0  0  0
   -1.5406    0.0829    1.1092 C   0  0  0  0  0  0  0  0  0  0  0  0
   -2.9026   -0.1861    1.3901 N   0  0  0  0  0  0  0  0  0  0  0  0
   -0.7843    0.4034    2.0498 O   0  0  0  0  0  0  0  0  0  0  0  0
    0.2318    0.2430   -0.5634 N   0  0  0  0  0  0  0  0  0  0  0  0
    1.2601   -0.4387    0.0587 C   0  0  0  0  0  0  0  0  0  0  0  0
    1.4841   -1.8807   -0.2753 C   0  0  0  0  0  0  0  0  0  0  0  0
    2.6522   -2.2894    0.5349 N   0  0  0  0  0  0  0  0  0  0  0  0
    0.5341    1.4799   -1.1979 C   0  0  0  0  0  0  0  0  0  0  0  0
    0.2735    2.6941   -0.3593 C   0  0  0  0  0  0  0  0  0  0  0  0
    1.0737    2.6083    0.8013 O   0  0  0  0  0  0  0  0  0  0  0  0
   -1.6517   -2.1375    0.1056 H   0  0  0  0  0  0  0  0  0  0  0  0
   -2.5785   -1.4082   -1.2030 H   0  0  0  0  0  0  0  0  0  0  0  0
   -0.8824   -1.8358   -1.5479 H   0  0  0  0  0  0  0  0  0  0  0  0
   -1.7583    0.6581   -0.8914 H   0  0  0  0  0  0  0  0  0  0  0  0
   -3.4037   -1.0513    1.0491 H   0  0  0  0  0  0  0  0  0  0  0  0
   -3.5067    0.4507    1.9576 H   0  0  0  0  0  0  0  0  0  0  0  0
    2.2360    0.0731   -0.2192 H   0  0  0  0  0  0  0  0  0  0  0  0
    1.2745   -0.3572    1.1852 H   0  0  0  0  0  0  0  0  0  0  0  0
    0.6841   -2.5654    0.0623 H   0  0  0  0  0  0  0  0  0  0  0  0
    1.7763   -2.0762   -1.3064 H   0  0  0  0  0  0  0  0  0  0  0  0
    2.4181   -2.0992    1.5429 H   0  0  0  0  0  0  0  0  0  0  0  0
    3.4763   -1.7051    0.2402 H   0  0  0  0  0  0  0  0  0  0  0  0
   -0.1167    1.5495   -2.1040 H   0  0  0  0  0  0  0  0  0  0  0  0
    1.5970    1.4717   -1.5175 H   0  0  0  0  0  0  0  0  0  0  0  0
   -0.8050    2.7379   -0.1266 H   0  0  0  0  0  0  0  0  0  0  0  0
    0.5994    3.5773   -0.9459 H   0  0  0  0  0  0  0  0  0  0  0  0
    1.0131    3.4986    1.2458 H   0  0  0  0  0  0  0  0  0  0  0  0
  1  2  1  0
  2  3  1  0
  3  4  1  0
  3  5  2  0
  2  6  1  0
  6  7  1  0
  7  8  1  0
  8  9  1  0
  6 10  1  0
 10 11  1  0
 11 12  1  0
  1 13  1  0
  1 14  1  0
  1 15  1  0
  2 16  1  6
  4 17  1  0
  4 18  1  0
  7 19  1  0
  7 20  1  0
  8 21  1  0
  8 22  1  0
  9 23  1  0
  9 24  1  0
 10 25  1  0
 10 26  1  0
 11 27  1  0
 11 28  1  0
 12 29  1  0
M  END
$$$$

     RDKit          3D

 29 28  0  0  0  0  0  0  0  0999 V2000
   -2.4104   -0.8576   -0.7040 C   0  0  0  0  0  0  0  0  0  0  0  0
   -1.4714    0.3342   -0.6448 C   0  0  1  0  0  0  0  0  0  0  0  0
   -2.1466    1.3620    0.1978 C   0  0  0  0  0  0  0  0  0  0  0  0
   -1.6657    1.6344    1.4955 N   0  0  0  0  0  0  0  0  0  0  0  0
   -3.1426    1.9844   -0.2428 O   0  0  0  0  0  0  0  0  0  0  0  0
   -0.2051   -0.1131   -0.0065 N   0  0  0  0  0  0  0  0  0  0  0  0
    0.7208    0.9689   -0.1857 C   0  0  0  0  0  0  0  0  0  0  0  0
    2.1214    0.8404    0.1998 C   0  0  0  0  0  0  0  0  0  0  0  0
    2.7386    2.1830   -0.0540 N   0  0  0  0  0  0  0  0  0  0  0  0
    0.1642   -1.3898   -0.4712 C   0  0  0  0  0  0  0  0  0  0  0  0
    1.2099   -2.1214    0.3379 C   0  0  0  0  0  0  0  0  0  0  0  0
    1.4812   -3.3851   -0.2510 O   0  0  0  0  0  0  0  0  0  0  0  0
   -2.2345   -1.5087   -1.5791 H   0  0  0  0  0  0  0  0  0  0  0  0
   -3.4732   -0.4939   -0.8275 H   0  0  0  0  0  0  0  0  0  0  0  0
   -2.4407   -1.4291    0.2420 H   0  0  0  0  0  0  0  0  0  0  0  0
   -1.2591    0.7576   -1.6366 H   0  0  0  0  0  0  0  0  0  0  0  0
   -1.2156    0.9015    2.0992 H   0  0  0  0  0  0  0  0  0  0  0  0
   -1.7276    2.5942    1.9404 H   0  0  0  0  0  0  0  0  0  0  0  0
    0.6673    1.2431   -1.2921 H   0  0  0  0  0  0  0  0  0  0  0  0
    0.2888    1.8726    0.3087 H   0  0  0  0  0  0  0  0  0  0  0  0
    2.6938    0.2261   -0.5573 H   0  0  0  0  0  0  0  0  0  0  0  0
    2.3283    0.6068    1.2314 H   0  0  0  0  0  0  0  0  0  0  0  0
    3.5936    2.2784    0.5560 H   0  0  0  0  0  0  0  0  0  0  0  0
    2.0782    2.9248    0.2876 H   0  0  0  0  0  0  0  0  0  0  0  0
   -0.7297   -2.0633   -0.4466 H   0  0  0  0  0  0  0  0  0  0  0  0
    0.4434   -1.4023   -1.5676 H   0  0  0  0  0  0  0  0  0  0  0  0
    2.1783   -1.6496    0.4439 H   0  0  0  0  0  0  0  0  0  0  0  0
    0.7357   -2.3606    1.3286 H   0  0  0  0  0  0  0  0  0  0  0  0
    0.6785   -3.9377   -0.2019 H   0  0  0  0  0  0  0  0  0  0  0  0
  1  2  1  0
  2  3  1  0
  3  4  1  0
  3  5  2  0
  2  6  1  0
  6  7  1  0
  7  8  1  0
  8  9  1  0
  6 10  1  0
 10 11  1  0
 11 12  1  0
  1 13  1  0
  1 14  1  0
  1 15  1  0
  2 16  1  6
  4 17  1  0
  4 18  1  0
  7 19  1  0
  7 20  1  0
  8 21  1  0
  8 22  1  0
  9 23  1  0
  9 24  1  0
 10 25  1  0
 10 26  1  0
 11 27  1  0
 11 28  1  0
 12 29  1  0
M  END
$$$$

     RDKit          3D

 29 28  0  0  0  0  0  0  0  0999 V2000
   -1.8428    0.7838   -0.9233 C   0  0  0  0  0  0  0  0  0  0  0  0
   -0.5183    0.9089   -0.1425 C   0  0  1  0  0  0  0  0  0  0  0  0
   -0.7854    1.3892    1.2066 C   0  0  0  0  0  0  0  0  0  0  0  0
   -1.3639    2.6644    1.4199 N   0  0  0  0  0  0  0  0  0  0  0  0
   -0.5207    0.7087    2.2268 O   0  0  0  0  0  0  0  0  0  0  0  0
    0.1249   -0.3737   -0.2249 N   0  0  0  0  0  0  0  0  0  0  0  0
    1.3508   -0.5317    0.4363 C   0  0  0  0  0  0  0  0  0  0  0  0
    2.5158    0.2698   -0.1219 C   0  0  0  0  0  0  0  0  0  0  0  0
    2.2882    1.6954   -0.0788 N   0  0  0  0  0  0  0  0  0  0  0  0
   -0.7814   -1.4641   -0.1149 C   0  0  0  0  0  0  0  0  0  0  0  0
   -0.1888   -2.8381   -0.1542 C   0  0  0  0  0  0  0  0  0  0  0  0
   -1.2953   -3.7336   -0.0425 O   0  0  0  0  0  0  0  0  0  0  0  0
   -2.1994    1.8488   -1.0544 H   0  0  0  0  0  0  0  0  0  0  0  0
   -2.6219    0.2815   -0.3460 H   0  0  0  0  0  0  0  0  0  0  0  0
   -1.7227    0.3093   -1.8914 H   0  0  0  0  0  0  0  0  0  0  0  0
    0.0608    1.6415   -0.7119 H   0  0  0  0  0  0  0  0  0  0  0  0
   -0.7312    3.5009    1.3068 H   0  0  0  0  0  0  0  0  0  0  0  0
   -2.3587    2.8176    1.6759 H   0  0  0  0  0  0  0  0  0  0  0  0
    1.6845   -1.6042    0.2663 H   0  0  0  0  0  0  0  0  0  0  0  0
    1.3867   -0.4063    1.5194 H   0  0  0  0  0  0  0  0  0  0  0  0
    2.7343   -0.0035   -1.1718 H   0  0  0  0  0  0  0  0  0  0  0  0
    3.4427    0.0866    0.4578 H   0  0  0  0  0  0  0  0  0  0  0  0
    2.5470    2.1833   -0.9431 H   0  0  0  0  0  0  0  0  0  0  0  0
    2.6392    2.1368    0.7929 H   0  0  0  0  0  0  0  0  0  0  0  0
   -1.6281   -1.4195   -0.8344 H   0  0  0  0  0  0  0  0  0  0  0  0
   -1.2823   -1.3537    0.8970 H   0  0  0  0  0  0  0  0  0  0  0  0
    0.3540   -3.0345   -1.0770 H   0  0  0  0  0  0  0  0  0  0  0  0
    0.4684   -3.0091    0.7354 H   0  0  0  0  0  0  0  0  0  0  0  0
   -1.7563   -3.4545    0.8026 H   0  0  0  0  0  0  0  0  0  0  0  0
  1  2  1  0
  2  3  1  0
  3  4  1  0
  3  5  2  0
  2  6  1  0
  6  7  1  0
  7  8  1  0
  8  9  1  0
  6 10  1  0
 10 11  1  0
 11 12  1  0
  1 13  1  0
  1 14  1  0
  1 15  1  0
  2 16  1  6
  4 17  1  0
  4 18  1  0
  7 19  1  0
  7 20  1  0
  8 21  1  0
  8 22  1  0
  9 23  1  0
  9 24  1  0
 10 25  1  0
 10 26  1  0
 11 27  1  0
 11 28  1  0
 12 29  1  0
M  END
$$$$

     RDKit          3D

 29 28  0  0  0  0  0  0  0  0999 V2000
   -1.3927   -0.1553    2.0081 C   0  0  0  0  0  0  0  0  0  0  0  0
   -1.1616   -0.6870    0.6132 C   0  0  1  0  0  0  0  0  0  0  0  0
   -2.3716   -0.4374   -0.1990 C   0  0  0  0  0  0  0  0  0  0  0  0
   -2.2922   -0.0059   -1.5557 N   0  0  0  0  0  0  0  0  0  0  0  0
   -3.5113   -0.6136    0.3208 O   0  0  0  0  0  0  0  0  0  0  0  0
   -0.0109   -0.2238   -0.0411 N   0  0  0  0  0  0  0  0  0  0  0  0
    0.0823    1.1534   -0.2299 C   0  0  0  0  0  0  0  0  0  0  0  0
    1.3252    1.6003   -0.9773 C   0  0  0  0  0  0  0  0  0  0  0  0
    1.2410    3.0462   -1.0698 N   0  0  0  0  0  0  0  0  0  0  0  0
    1.0206   -1.0882   -0.3926 C   0  0  0  0  0  0  0  0  0  0  0  0
    1.8056   -1.6803    0.7558 C   0  0  0  0  0  0  0  0  0  0  0  0
    2.7812   -2.5070    0.1901 O   0  0  0  0  0  0  0  0  0  0  0  0
   -1.5768    0.9438    2.0091 H   0  0  0  0  0  0  0  0  0  0  0  0
   -0.5952   -0.4585    2.7230 H   0  0  0  0  0  0  0  0  0  0  0  0
   -2.3374   -0.6296    2.3742 H   0  0  0  0  0  0  0  0  0  0  0  0
   -1.0775   -1.8251    0.7800 H   0  0  0  0  0  0  0  0  0  0  0  0
   -1.4666   -0.2722   -2.1489 H   0  0  0  0  0  0  0  0  0  0  0  0
   -3.0323    0.5665   -1.9795 H   0  0  0  0  0  0  0  0  0  0  0  0
   -0.7821    1.5514   -0.7848 H   0  0  0  0  0  0  0  0  0  0  0  0
    0.1060    1.7300    0.7354 H   0  0  0  0  0  0  0  0  0  0  0  0
    2.1952    1.3739   -0.3603 H   0  0  0  0  0  0  0  0  0  0  0  0
    1.3641    1.2139   -2.0020 H   0  0  0  0  0  0  0  0  0  0  0  0
    1.3885    3.3978   -0.0850 H   0  0  0  0  0  0  0  0  0  0  0  0
    0.2257    3.2906   -1.2690 H   0  0  0  0  0  0  0  0  0  0  0  0
    0.5766   -1.9715   -0.9421 H   0  0  0  0  0  0  0  0  0  0  0  0
    1.6875   -0.5959   -1.1307 H   0  0  0  0  0  0  0  0  0  0  0  0
    2.2683   -0.9291    1.3969 H   0  0  0  0  0  0  0  0  0  0  0  0
    1.1158   -2.3803    1.3053 H   0  0  0  0  0  0  0  0  0  0  0  0
    2.4244   -3.4070   -0.0439 H   0  0  0  0  0  0  0  0  0  0  0  0
  1  2  1  0
  2  3  1  0
  3  4  1  0
  3  5  2  0
  2  6  1  0
  6  7  1  0
  7  8  1  0
  8  9  1  0
  6 10  1  0
 10 11  1  0
 11 12  1  0
  1 13  1  0
  1 14  1  0
  1 15  1  0
  2 16  1  1
  4 17  1  0
  4 18  1  0
  7 19  1  0
  7 20  1  0
  8 21  1  0
  8 22  1  0
  9 23  1  0
  9 24  1  0
 10 25  1  0
 10 26  1  0
 11 27  1  0
 11 28  1  0
 12 29  1  0
M  END
$$$$

     RDKit          3D

 29 28  0  0  0  0  0  0  0  0999 V2000
    1.3880    1.6676    0.1682 C   0  0  0  0  0  0  0  0  0  0  0  0
    0.0729    0.9523    0.0666 C   0  0  1  0  0  0  0  0  0  0  0  0
   -0.9107    1.9768   -0.3603 C   0  0  0  0  0  0  0  0  0  0  0  0
   -0.9130    3.2207    0.3215 N   0  0  0  0  0  0  0  0  0  0  0  0
   -1.7487    1.8467   -1.2766 O   0  0  0  0  0  0  0  0  0  0  0  0
    0.1031   -0.2346   -0.6596 N   0  0  0  0  0  0  0  0  0  0  0  0
   -1.0965   -0.8986   -0.9987 C   0  0  0  0  0  0  0  0  0  0  0  0
   -1.8580   -1.4945    0.1608 C   0  0  0  0  0  0  0  0  0  0  0  0
   -2.2666   -0.5115    1.1128 N   0  0  0  0  0  0  0  0  0  0  0  0
    1.2994   -0.9407   -0.8908 C   0  0  0  0  0  0  0  0  0  0  0  0
    1.9311   -1.6124    0.2971 C   0  0  0  0  0  0  0  0  0  0  0  0
    3.1184   -2.2784   -0.0694 O   0  0  0  0  0  0  0  0  0  0  0  0
    2.2816    1.0723    0.0077 H   0  0  0  0  0  0  0  0  0  0  0  0
    1.3904    2.5689   -0.5047 H   0  0  0  0  0  0  0  0  0  0  0  0
    1.4758    2.1157    1.2040 H   0  0  0  0  0  0  0  0  0  0  0  0
   -0.2461    0.6918    1.1271 H   0  0  0  0  0  0  0  0  0  0  0  0
   -0.6290    4.0688   -0.2296 H   0  0  0  0  0  0  0  0  0  0  0  0
   -1.1740    3.3724    1.3154 H   0  0  0  0  0  0  0  0  0  0  0  0
   -1.8047   -0.3946   -1.6492 H   0  0  0  0  0  0  0  0  0  0  0  0
   -0.7708   -1.8085   -1.6119 H   0  0  0  0  0  0  0  0  0  0  0  0
   -2.7616   -1.9935   -0.3004 H   0  0  0  0  0  0  0  0  0  0  0  0
   -1.2904   -2.2957    0.6849 H   0  0  0  0  0  0  0  0  0  0  0  0
   -2.6739   -1.0133    1.9426 H   0  0  0  0  0  0  0  0  0  0  0  0
   -2.9227    0.1904    0.7008 H   0  0  0  0  0  0  0  0  0  0  0  0
    1.0151   -1.7978   -1.5816 H   0  0  0  0  0  0  0  0  0  0  0  0
    2.0572   -0.3869   -1.5098 H   0  0  0  0  0  0  0  0  0  0  0  0
    1.2819   -2.4573    0.6783 H   0  0  0  0  0  0  0  0  0  0  0  0
    2.0513   -0.9567    1.1753 H   0  0  0  0  0  0  0  0  0  0  0  0
    3.6003   -2.6696    0.6794 H   0  0  0  0  0  0  0  0  0  0  0  0
  1  2  1  0
  2  3  1  0
  3  4  1  0
  3  5  2  0
  2  6  1  0
  6  7  1  0
  7  8  1  0
  8  9  1  0
  6 10  1  0
 10 11  1  0
 11 12  1  0
  1 13  1  0
  1 14  1  0
  1 15  1  0
  2 16  1  1
  4 17  1  0
  4 18  1  0
  7 19  1  0
  7 20  1  0
  8 21  1  0
  8 22  1  0
  9 23  1  0
  9 24  1  0
 10 25  1  0
 10 26  1  0
 11 27  1  0
 11 28  1  0
 12 29  1  0
M  END
$$$$
