
     RDKit          3D

 27 28  0  0  0  0  0  0  0  0999 V2000
   -0.3287    1.9277   -0.6018 O   0  0  0  0  0  0  0  0  0  0  0  0
   -0.6935    0.7258   -0.5451 C   0  0  0  0  0  0  0  0  0  0  0  0
    0.3400   -0.2086   -0.2371 N   0  0  0  0  0  0  0  0  0  0  0  0
    1.6874    0.1772   -0.0087 C   0  0  2  0  0  0  0  0  0  0  0  0
    2.6669   -0.3955   -1.0054 C   0  0  0  0  0  0  0  0  0  0  0  0
    3.9888   -0.1136   -0.3193 C   0  0  0  0  0  0  0  0  0  0  0  0
    3.6477   -0.3975    1.0772 N   0  0  0  0  0  0  0  0  0  0  0  0
    2.2555   -0.1924    1.2710 C   0  0  0  0  0  0  0  0  0  0  0  0
    1.6980   -0.3279    2.3827 O   0  0  0  0  0  0  0  0  0  0  0  0
   -2.1028    0.3073   -0.7824 C   0  0  2  0  0  0  0  0  0  0  0  0
   -3.0195    0.9555    0.2424 C   0  0  0  0  0  0  0  0  0  0  0  0
   -4.1105   -0.1254    0.2851 C   0  0  0  0  0  0  0  0  0  0  0  0
   -3.3289   -1.3047    0.0974 N   0  0  0  0  0  0  0  0  0  0  0  0
   -2.2883   -1.0402   -0.6743 O   0  0  0  0  0  0  0  0  0  0  0  0
    0.0887   -1.2193   -0.1784 H   0  0  0  0  0  0  0  0  0  0  0  0
    1.7448    1.2945   -0.1175 H   0  0  0  0  0  0  0  0  0  0  0  0
    2.5792    0.1113   -1.9816 H   0  0  0  0  0  0  0  0  0  0  0  0
    2.5882   -1.4739   -1.1405 H   0  0  0  0  0  0  0  0  0  0  0  0
    4.8005   -0.7668   -0.6799 H   0  0  0  0  0  0  0  0  0  0  0  0
    4.2532    0.9617   -0.4064 H   0  0  0  0  0  0  0  0  0  0  0  0
    4.3820   -0.6984    1.7530 H   0  0  0  0  0  0  0  0  0  0  0  0
   -2.4694    0.6305   -1.7810 H   0  0  0  0  0  0  0  0  0  0  0  0
   -3.4118    1.9238   -0.0797 H   0  0  0  0  0  0  0  0  0  0  0  0
   -2.5199    0.9815    1.2426 H   0  0  0  0  0  0  0  0  0  0  0  0
   -4.7768    0.0071   -0.6040 H   0  0  0  0  0  0  0  0  0  0  0  0
   -4.6641   -0.1011    1.2282 H   0  0  0  0  0  0  0  0  0  0  0  0
   -3.0067   -1.6387    1.0329 H   0  0  0  0  0  0  0  0  0  0  0  0
  1  2  2  0
  2  3  1  0
  3  4  1  0
  4  5  1  0
  5  6  1  0
  6  7  1  0
  7  8  1  0
  8  9  2  0
  2 10  1  0
 10 11  1  0
 11 12  1  0
 12 13  1  0
 13 14  1  0
  8  4  1  0
 14 10  1  0
  3 15  1  0
  4 16  1  1
  5 17  1  0
  5 18  1  0
  6 19  1  0
  6 20  1  0
  7 21  1  0
 10 22  1  6
 11 23  1  0
 11 24  1  0
 12 25  1  0
 12 26  1  0
 13 27  1  0
M  END
$$$$

     RDKit          3D

 27 28  0  0  0  0  0  0  0  0999 V2000
    0.6048    1.1306    1.6865 O   0  0  0  0  0  0  0  0  0  0  0  0
    0.7429    0.6783    0.5261 C   0  0  0  0  0  0  0  0  0  0  0  0
   -0.3934    0.3238   -0.2378 N   0  0  0  0  0  0  0  0  0  0  0  0
   -1.7533    0.4546    0.2524 C   0  0  2  0  0  0  0  0  0  0  0  0
   -2.5046   -0.8420    0.2001 C   0  0  0  0  0  0  0  0  0  0  0  0
   -3.9503   -0.3667    0.1212 C   0  0  0  0  0  0  0  0  0  0  0  0
   -3.8256    0.8170   -0.7405 N   0  0  0  0  0  0  0  0  0  0  0  0
   -2.5047    1.3279   -0.6543 C   0  0  0  0  0  0  0  0  0  0  0  0
   -2.0927    2.3499   -1.2632 O   0  0  0  0  0  0  0  0  0  0  0  0
    2.1057    0.5259   -0.0189 C   0  0  2  0  0  0  0  0  0  0  0  0
    2.4609   -0.9615   -0.1514 C   0  0  0  0  0  0  0  0  0  0  0  0
    3.9903   -0.8468   -0.1365 C   0  0  0  0  0  0  0  0  0  0  0  0
    4.2333    0.4045    0.5094 N   0  0  0  0  0  0  0  0  0  0  0  0
    3.0757    0.9323    0.8955 O   0  0  0  0  0  0  0  0  0  0  0  0
   -0.2309   -0.0469   -1.1946 H   0  0  0  0  0  0  0  0  0  0  0  0
   -1.7907    0.8533    1.2655 H   0  0  0  0  0  0  0  0  0  0  0  0
   -2.3035   -1.4002   -0.7373 H   0  0  0  0  0  0  0  0  0  0  0  0
   -2.3311   -1.4786    1.0912 H   0  0  0  0  0  0  0  0  0  0  0  0
   -4.6160   -1.1248   -0.3155 H   0  0  0  0  0  0  0  0  0  0  0  0
   -4.3029    0.0197    1.1016 H   0  0  0  0  0  0  0  0  0  0  0  0
   -4.6437    1.1531   -1.2938 H   0  0  0  0  0  0  0  0  0  0  0  0
    2.2168    1.0228   -1.0057 H   0  0  0  0  0  0  0  0  0  0  0  0
    2.0842   -1.3977   -1.0750 H   0  0  0  0  0  0  0  0  0  0  0  0
    2.0923   -1.4378    0.7693 H   0  0  0  0  0  0  0  0  0  0  0  0
    4.2693   -0.7115   -1.2220 H   0  0  0  0  0  0  0  0  0  0  0  0
    4.4674   -1.7143    0.3181 H   0  0  0  0  0  0  0  0  0  0  0  0
    4.8998    0.3351    1.3098 H   0  0  0  0  0  0  0  0  0  0  0  0
  1  2  2  0
  2  3  1  0
  3  4  1  0
  4  5  1  0
  5  6  1  0
  6  7  1  0
  7  8  1  0
  8  9  2  0
  2 10  1  0
 10 11  1  0
 11 12  1  0
 12 13  1  0
 13 14  1  0
  8  4  1  0
 14 10  1  0
  3 15  1  0
  4 16  1  1
  5 17  1  0
  5 18  1  0
  6 19  1  0
  6 20  1  0
  7 21  1  0
 10 22  1  6
 11 23  1  0
 11 24  1  0
 12 25  1  0
 12 26  1  0
 13 27  1  0
M  END
$$$$

     RDKit          3D

 27 28  0  0  0  0  0  0  0  0999 V2000
    0.5624    1.5903   -0.8984 O   0  0  0  0  0  0  0  0  0  0  0  0
    0.6893    0.4182   -0.4604 C   0  0  0  0  0  0  0  0  0  0  0  0
   -0.4731   -0.2223    0.0148 N   0  0  0  0  0  0  0  0  0  0  0  0
   -1.7861    0.3797    0.0286 C   0  0  2  0  0  0  0  0  0  0  0  0
   -2.4170    0.3961    1.3858 C   0  0  0  0  0  0  0  0  0  0  0  0
   -3.9068    0.4977    1.0323 C   0  0  0  0  0  0  0  0  0  0  0  0
   -3.9837   -0.4264   -0.1087 N   0  0  0  0  0  0  0  0  0  0  0  0
   -2.7105   -0.5066   -0.7376 C   0  0  0  0  0  0  0  0  0  0  0  0
   -2.4662   -1.2076   -1.7459 O   0  0  0  0  0  0  0  0  0  0  0  0
    2.0288   -0.1991   -0.4733 C   0  0  2  0  0  0  0  0  0  0  0  0
    2.5736   -0.4270    0.9290 C   0  0  0  0  0  0  0  0  0  0  0  0
    4.0777   -0.4368    0.6217 C   0  0  0  0  0  0  0  0  0  0  0  0
    4.1804    0.2597   -0.6235 N   0  0  0  0  0  0  0  0  0  0  0  0
    2.9731    0.6704   -0.9971 O   0  0  0  0  0  0  0  0  0  0  0  0
   -0.3783   -1.1952    0.3804 H   0  0  0  0  0  0  0  0  0  0  0  0
   -1.7853    1.3980   -0.3732 H   0  0  0  0  0  0  0  0  0  0  0  0
   -2.2821   -0.5328    1.9581 H   0  0  0  0  0  0  0  0  0  0  0  0
   -2.0804    1.3044    1.9315 H   0  0  0  0  0  0  0  0  0  0  0  0
   -4.5474    0.1905    1.8586 H   0  0  0  0  0  0  0  0  0  0  0  0
   -4.0707    1.5301    0.6746 H   0  0  0  0  0  0  0  0  0  0  0  0
   -4.8276   -0.9512   -0.4254 H   0  0  0  0  0  0  0  0  0  0  0  0
    2.0879   -1.1437   -1.0129 H   0  0  0  0  0  0  0  0  0  0  0  0
    2.2367   -1.3662    1.3730 H   0  0  0  0  0  0  0  0  0  0  0  0
    2.3984    0.4446    1.5810 H   0  0  0  0  0  0  0  0  0  0  0  0
    4.6633   -0.0022    1.4444 H   0  0  0  0  0  0  0  0  0  0  0  0
    4.3804   -1.5060    0.4203 H   0  0  0  0  0  0  0  0  0  0  0  0
    4.8631    1.0434   -0.6012 H   0  0  0  0  0  0  0  0  0  0  0  0
  1  2  2  0
  2  3  1  0
  3  4  1  0
  4  5  1  0
  5  6  1  0
  6  7  1  0
  7  8  1  0
  8  9  2  0
  2 10  1  0
 10 11  1  0
 11 12  1  0
 12 13  1  0
 13 14  1  0
  8  4  1  0
 14 10  1  0
  3 15  1  0
  4 16  1  6
  5 17  1  0
  5 18  1  0
  6 19  1  0
  6 20  1  0
  7 21  1  0
 10 22  1  6
 11 23  1  0
 11 24  1  0
 12 25  1  0
 12 26  1  0
 13 27  1  0
M  END
$$$$

     RDKit          3D

 27 28  0  0  0  0  0  0  0  0999 V2000
   -0.3569    0.1836    2.1344 O   0  0  0  0  0  0  0  0  0  0  0  0
   -0.6287   -0.1475    0.9526 C   0  0  0  0  0  0  0  0  0  0  0  0
    0.4566   -0.2720    0.0532 N   0  0  0  0  0  0  0  0  0  0  0  0
    1.8424   -0.0400    0.4233 C   0  0  2  0  0  0  0  0  0  0  0  0
    2.5152    0.9493   -0.4827 C   0  0  0  0  0  0  0  0  0  0  0  0
    3.7282    0.2504   -1.0537 C   0  0  0  0  0  0  0  0  0  0  0  0
    3.8788   -0.9522   -0.2650 N   0  0  0  0  0  0  0  0  0  0  0  0
    2.5979   -1.2807    0.2302 C   0  0  0  0  0  0  0  0  0  0  0  0
    2.1915   -2.4410    0.4603 O   0  0  0  0  0  0  0  0  0  0  0  0
   -2.0314   -0.3762    0.6021 C   0  0  2  0  0  0  0  0  0  0  0  0
   -2.5736    0.6286   -0.3932 C   0  0  0  0  0  0  0  0  0  0  0  0
   -4.0716    0.5289   -0.0792 C   0  0  0  0  0  0  0  0  0  0  0  0
   -4.1102   -0.0381    1.2295 N   0  0  0  0  0  0  0  0  0  0  0  0
   -2.8711   -0.1794    1.6880 O   0  0  0  0  0  0  0  0  0  0  0  0
    0.2399   -0.5462   -0.9286 H   0  0  0  0  0  0  0  0  0  0  0  0
    1.9345    0.2447    1.4946 H   0  0  0  0  0  0  0  0  0  0  0  0
    1.8400    1.3414   -1.2776 H   0  0  0  0  0  0  0  0  0  0  0  0
    2.8969    1.7860    0.1600 H   0  0  0  0  0  0  0  0  0  0  0  0
    3.5645    0.0132   -2.1428 H   0  0  0  0  0  0  0  0  0  0  0  0
    4.6505    0.8935   -0.9671 H   0  0  0  0  0  0  0  0  0  0  0  0
    4.7991   -1.4637   -0.1106 H   0  0  0  0  0  0  0  0  0  0  0  0
   -2.2100   -1.3898    0.1871 H   0  0  0  0  0  0  0  0  0  0  0  0
   -2.3534    0.3570   -1.4296 H   0  0  0  0  0  0  0  0  0  0  0  0
   -2.2839    1.6680   -0.1341 H   0  0  0  0  0  0  0  0  0  0  0  0
   -4.5820    1.4912   -0.1897 H   0  0  0  0  0  0  0  0  0  0  0  0
   -4.4546   -0.2489   -0.8026 H   0  0  0  0  0  0  0  0  0  0  0  0
   -4.6087   -0.9600    1.2790 H   0  0  0  0  0  0  0  0  0  0  0  0
  1  2  2  0
  2  3  1  0
  3  4  1  0
  4  5  1  0
  5  6  1  0
  6  7  1  0
  7  8  1  0
  8  9  2  0
  2 10  1  0
 10 11  1  0
 11 12  1  0
 12 13  1  0
 13 14  1  0
  8  4  1  0
 14 10  1  0
  3 15  1  0
  4 16  1  1
  5 17  1  0
  5 18  1  0
  6 19  1  0
  6 20  1  0
  7 21  1  0
 10 22  1  6
 11 23  1  0
 11 24  1  0
 12 25  1  0
 12 26  1  0
 13 27  1  0
M  END
$$$$

     RDKit          3D

 27 28  0  0  0  0  0  0  0  0999 V2000
    0.0065   -2.1579   -0.0156 O   0  0  0  0  0  0  0  0  0  0  0  0
   -0.6097   -1.0866    0.2757 C   0  0  0  0  0  0  0  0  0  0  0  0
    0.1767    0.0960    0.2961 N   0  0  0  0  0  0  0  0  0  0  0  0
    1.5766    0.1140    0.0115 C   0  0  2  0  0  0  0  0  0  0  0  0
    2.4127    0.6666    1.1436 C   0  0  0  0  0  0  0  0  0  0  0  0
    3.7414    0.8498    0.4378 C   0  0  0  0  0  0  0  0  0  0  0  0
    3.3156    1.3658   -0.8615 N   0  0  0  0  0  0  0  0  0  0  0  0
    1.9573    1.0088   -1.0959 C   0  0  0  0  0  0  0  0  0  0  0  0
    1.3041    1.4305   -2.0845 O   0  0  0  0  0  0  0  0  0  0  0  0
   -2.0721   -1.0913    0.5751 C   0  0  2  0  0  0  0  0  0  0  0  0
   -2.8794   -1.5457   -0.6228 C   0  0  0  0  0  0  0  0  0  0  0  0
   -3.1229   -0.1780   -1.2750 C   0  0  0  0  0  0  0  0  0  0  0  0
   -3.2154    0.6619   -0.1294 N   0  0  0  0  0  0  0  0  0  0  0  0
   -2.4874    0.1764    0.8554 O   0  0  0  0  0  0  0  0  0  0  0  0
   -0.3130    0.9901    0.5341 H   0  0  0  0  0  0  0  0  0  0  0  0
    1.9546   -0.8954   -0.2211 H   0  0  0  0  0  0  0  0  0  0  0  0
    2.4795   -0.0021    2.0066 H   0  0  0  0  0  0  0  0  0  0  0  0
    2.0640    1.6997    1.4160 H   0  0  0  0  0  0  0  0  0  0  0  0
    4.4144    1.5332    0.9660 H   0  0  0  0  0  0  0  0  0  0  0  0
    4.1830   -0.1691    0.2988 H   0  0  0  0  0  0  0  0  0  0  0  0
    3.9642    1.9129   -1.4846 H   0  0  0  0  0  0  0  0  0  0  0  0
   -2.2569   -1.8076    1.4253 H   0  0  0  0  0  0  0  0  0  0  0  0
   -2.3146   -2.2190   -1.2885 H   0  0  0  0  0  0  0  0  0  0  0  0
   -3.8191   -1.9580   -0.2451 H   0  0  0  0  0  0  0  0  0  0  0  0
   -2.2093    0.0802   -1.8846 H   0  0  0  0  0  0  0  0  0  0  0  0
   -4.0256   -0.1887   -1.9124 H   0  0  0  0  0  0  0  0  0  0  0  0
   -4.2252    0.7137    0.2032 H   0  0  0  0  0  0  0  0  0  0  0  0
  1  2  2  0
  2  3  1  0
  3  4  1  0
  4  5  1  0
  5  6  1  0
  6  7  1  0
  7  8  1  0
  8  9  2  0
  2 10  1  0
 10 11  1  0
 11 12  1  0
 12 13  1  0
 13 14  1  0
  8  4  1  0
 14 10  1  0
  3 15  1  0
  4 16  1  6
  5 17  1  0
  5 18  1  0
  6 19  1  0
  6 20  1  0
  7 21  1  0
 10 22  1  1
 11 23  1  0
 11 24  1  0
 12 25  1  0
 12 26  1  0
 13 27  1  0
M  END
$$$$

     RDKit          3D

 27 28  0  0  0  0  0  0  0  0999 V2000
   -0.6520   -2.2450   -0.6722 O   0  0  0  0  0  0  0  0  0  0  0  0
   -0.6646   -1.0093   -0.5510 C   0  0  0  0  0  0  0  0  0  0  0  0
    0.5578   -0.3101   -0.4000 N   0  0  0  0  0  0  0  0  0  0  0  0
    1.8515   -0.9622   -0.3776 C   0  0  2  0  0  0  0  0  0  0  0  0
    2.5363   -0.5451    0.9129 C   0  0  0  0  0  0  0  0  0  0  0  0
    3.0762    0.8465    0.5972 C   0  0  0  0  0  0  0  0  0  0  0  0
    3.1756    0.8850   -0.8454 N   0  0  0  0  0  0  0  0  0  0  0  0
    2.6917   -0.3185   -1.4063 C   0  0  0  0  0  0  0  0  0  0  0  0
    2.8930   -0.8106   -2.5480 O   0  0  0  0  0  0  0  0  0  0  0  0
   -1.9147   -0.2637   -0.5613 C   0  0  2  0  0  0  0  0  0  0  0  0
   -2.1452    0.3977    0.8046 C   0  0  0  0  0  0  0  0  0  0  0  0
   -3.6183    0.7228    0.6219 C   0  0  0  0  0  0  0  0  0  0  0  0
   -4.0650   -0.4309   -0.0891 N   0  0  0  0  0  0  0  0  0  0  0  0
   -3.0481   -1.0036   -0.7102 O   0  0  0  0  0  0  0  0  0  0  0  0
    0.5723    0.7395   -0.2953 H   0  0  0  0  0  0  0  0  0  0  0  0
    1.7829   -2.0503   -0.4897 H   0  0  0  0  0  0  0  0  0  0  0  0
    1.7699   -0.4369    1.7056 H   0  0  0  0  0  0  0  0  0  0  0  0
    3.3447   -1.2437    1.1888 H   0  0  0  0  0  0  0  0  0  0  0  0
    2.3853    1.6410    0.9769 H   0  0  0  0  0  0  0  0  0  0  0  0
    4.0989    0.9605    1.0583 H   0  0  0  0  0  0  0  0  0  0  0  0
    3.5497    1.6842   -1.3871 H   0  0  0  0  0  0  0  0  0  0  0  0
   -1.9148    0.5875   -1.2914 H   0  0  0  0  0  0  0  0  0  0  0  0
   -2.0341   -0.3712    1.5746 H   0  0  0  0  0  0  0  0  0  0  0  0
   -1.5270    1.2856    0.9389 H   0  0  0  0  0  0  0  0  0  0  0  0
   -4.1281    0.8937    1.5813 H   0  0  0  0  0  0  0  0  0  0  0  0
   -3.6652    1.6326   -0.0438 H   0  0  0  0  0  0  0  0  0  0  0  0
   -4.9091   -0.2754   -0.6761 H   0  0  0  0  0  0  0  0  0  0  0  0
  1  2  2  0
  2  3  1  0
  3  4  1  0
  4  5  1  0
  5  6  1  0
  6  7  1  0
  7  8  1  0
  8  9  2  0
  2 10  1  0
 10 11  1  0
 11 12  1  0
 12 13  1  0
 13 14  1  0
  8  4  1  0
 14 10  1  0
  3 15  1  0
  4 16  1  6
  5 17  1  0
  5 18  1  0
  6 19  1  0
  6 20  1  0
  7 21  1  0
 10 22  1  6
 11 23  1  0
 11 24  1  0
 12 25  1  0
 12 26  1  0
 13 27  1  0
M  END
$$$$

     RDKit          3D

 27 28  0  0  0  0  0  0  0  0999 V2000
    0.4034   -1.9211   -0.8876 O   0  0  0  0  0  0  0  0  0  0  0  0
    0.6919   -0.7082   -0.7101 C   0  0  0  0  0  0  0  0  0  0  0  0
   -0.3347    0.1573   -0.3011 N   0  0  0  0  0  0  0  0  0  0  0  0
   -1.6930   -0.2842   -0.0786 C   0  0  2  0  0  0  0  0  0  0  0  0
   -2.6066    0.4207   -1.0749 C   0  0  0  0  0  0  0  0  0  0  0  0
   -3.9483    0.3781   -0.3421 C   0  0  0  0  0  0  0  0  0  0  0  0
   -3.4973    0.6925    1.0225 N   0  0  0  0  0  0  0  0  0  0  0  0
   -2.2224    0.0972    1.2318 C   0  0  0  0  0  0  0  0  0  0  0  0
   -1.7173   -0.0368    2.3757 O   0  0  0  0  0  0  0  0  0  0  0  0
    2.0904   -0.3029   -0.9490 C   0  0  2  0  0  0  0  0  0  0  0  0
    3.0119   -1.0904   -0.0390 C   0  0  0  0  0  0  0  0  0  0  0  0
    3.9757   -0.0102    0.4076 C   0  0  0  0  0  0  0  0  0  0  0  0
    3.1893    1.1792    0.2605 N   0  0  0  0  0  0  0  0  0  0  0  0
    2.3377    1.0243   -0.7390 O   0  0  0  0  0  0  0  0  0  0  0  0
   -0.1064    1.1637   -0.1512 H   0  0  0  0  0  0  0  0  0  0  0  0
   -1.8197   -1.3678   -0.2674 H   0  0  0  0  0  0  0  0  0  0  0  0
   -2.2772    1.4624   -1.2631 H   0  0  0  0  0  0  0  0  0  0  0  0
   -2.6965   -0.1180   -2.0217 H   0  0  0  0  0  0  0  0  0  0  0  0
   -4.6603    1.1101   -0.7202 H   0  0  0  0  0  0  0  0  0  0  0  0
   -4.3033   -0.6618   -0.3560 H   0  0  0  0  0  0  0  0  0  0  0  0
   -4.0145    1.2581    1.7339 H   0  0  0  0  0  0  0  0  0  0  0  0
    2.3448   -0.5616   -2.0148 H   0  0  0  0  0  0  0  0  0  0  0  0
    2.4317   -1.4716    0.8403 H   0  0  0  0  0  0  0  0  0  0  0  0
    3.5183   -1.9018   -0.5630 H   0  0  0  0  0  0  0  0  0  0  0  0
    4.8612    0.0484   -0.2588 H   0  0  0  0  0  0  0  0  0  0  0  0
    4.2431   -0.1104    1.4792 H   0  0  0  0  0  0  0  0  0  0  0  0
    2.7980    1.5549    1.1401 H   0  0  0  0  0  0  0  0  0  0  0  0
  1  2  2  0
  2  3  1  0
  3  4  1  0
  4  5  1  0
  5  6  1  0
  6  7  1  0
  7  8  1  0
  8  9  2  0
  2 10  1  0
 10 11  1  0
 11 12  1  0
 12 13  1  0
 13 14  1  0
  8  4  1  0
 14 10  1  0
  3 15  1  0
  4 16  1  6
  5 17  1  0
  5 18  1  0
  6 19  1  0
  6 20  1  0
  7 21  1  0
 10 22  1  6
 11 23  1  0
 11 24  1  0
 12 25  1  0
 12 26  1  0
 13 27  1  0
M  END
$$$$

     RDKit          3D

 27 28  0  0  0  0  0  0  0  0999 V2000
    0.2846   -1.7682    1.2775 O   0  0  0  0  0  0  0  0  0  0  0  0
    0.6568   -0.9118    0.4541 C   0  0  0  0  0  0  0  0  0  0  0  0
   -0.2854   -0.0600   -0.1877 N   0  0  0  0  0  0  0  0  0  0  0  0
   -1.6666   -0.2112    0.1353 C   0  0  2  0  0  0  0  0  0  0  0  0
   -2.5373   -0.3647   -1.1181 C   0  0  0  0  0  0  0  0  0  0  0  0
   -3.9043   -0.1073   -0.5005 C   0  0  0  0  0  0  0  0  0  0  0  0
   -3.6307    1.0792    0.2839 N   0  0  0  0  0  0  0  0  0  0  0  0
   -2.2676    1.0566    0.6878 C   0  0  0  0  0  0  0  0  0  0  0  0
   -1.7254    1.9403    1.3669 O   0  0  0  0  0  0  0  0  0  0  0  0
    2.0874   -0.7825    0.1443 C   0  0  2  0  0  0  0  0  0  0  0  0
    2.8132   -0.2914    1.4008 C   0  0  0  0  0  0  0  0  0  0  0  0
    3.7466    0.7457    0.7898 C   0  0  0  0  0  0  0  0  0  0  0  0
    3.6828    0.4364   -0.6263 N   0  0  0  0  0  0  0  0  0  0  0  0
    2.3405    0.2160   -0.7913 O   0  0  0  0  0  0  0  0  0  0  0  0
   -0.0025    0.6558   -0.8721 H   0  0  0  0  0  0  0  0  0  0  0  0
   -1.8776   -0.9949    0.8713 H   0  0  0  0  0  0  0  0  0  0  0  0
   -2.4506   -1.3639   -1.5580 H   0  0  0  0  0  0  0  0  0  0  0  0
   -2.2894    0.4596   -1.7877 H   0  0  0  0  0  0  0  0  0  0  0  0
   -4.1811   -0.9362    0.1950 H   0  0  0  0  0  0  0  0  0  0  0  0
   -4.6763    0.0634   -1.2733 H   0  0  0  0  0  0  0  0  0  0  0  0
   -4.3205    1.8236    0.5122 H   0  0  0  0  0  0  0  0  0  0  0  0
    2.5397   -1.7114   -0.2470 H   0  0  0  0  0  0  0  0  0  0  0  0
    3.3498   -1.1087    1.8915 H   0  0  0  0  0  0  0  0  0  0  0  0
    2.0928    0.1980    2.0770 H   0  0  0  0  0  0  0  0  0  0  0  0
    3.3309    1.7584    0.9344 H   0  0  0  0  0  0  0  0  0  0  0  0
    4.7544    0.6771    1.2011 H   0  0  0  0  0  0  0  0  0  0  0  0
    4.1359   -0.4979   -0.7751 H   0  0  0  0  0  0  0  0  0  0  0  0
  1  2  2  0
  2  3  1  0
  3  4  1  0
  4  5  1  0
  5  6  1  0
  6  7  1  0
  7  8  1  0
  8  9  2  0
  2 10  1  0
 10 11  1  0
 11 12  1  0
 12 13  1  0
 13 14  1  0
  8  4  1  0
 14 10  1  0
  3 15  1  0
  4 16  1  1
  5 17  1  0
  5 18  1  0
  6 19  1  0
  6 20  1  0
  7 21  1  0
 10 22  1  6
 11 23  1  0
 11 24  1  0
 12 25  1  0
 12 26  1  0
 13 27  1  0
M  END
$$$$
