
     RDKit          3D

 27 27  0  0  0  0  0  0  0  0999 V2000
   -2.3667    1.1497   -1.4717 C   0  0  0  0  0  0  0  0  0  0  0  0
   -1.5220    0.9828   -0.2353 C   0  0  1  0  0  0  0  0  0  0  0  0
   -2.2873    0.8207    0.9672 N   0  0  0  0  0  0  0  0  0  0  0  0
   -2.5039   -0.6009    1.0710 C   0  0  0  0  0  0  0  0  0  0  0  0
   -1.0907   -1.1220    0.8251 C   0  0  0  0  0  0  0  0  0  0  0  0
   -0.6624   -0.2630   -0.3336 C   0  0  2  0  0  0  0  0  0  0  0  0
    0.7018    0.1188   -0.2810 N   0  0  0  0  0  0  0  0  0  0  0  0
    1.5393   -0.5806   -1.0719 O   0  0  0  0  0  0  0  0  0  0  0  0
    2.5310   -1.2335   -0.3676 C   0  0  0  0  0  0  0  0  0  0  0  0
    3.6359   -0.3334   -0.0547 C   0  0  0  0  0  0  0  0  0  0  0  0
    3.7106    1.0576   -0.1668 N   0  0  0  0  0  0  0  0  0  0  0  0
    4.7127   -0.8519    0.4055 O   0  0  0  0  0  0  0  0  0  0  0  0
   -2.8083    0.2111   -1.8401 H   0  0  0  0  0  0  0  0  0  0  0  0
   -1.6919    1.5444   -2.2708 H   0  0  0  0  0  0  0  0  0  0  0  0
   -3.1392    1.9085   -1.2794 H   0  0  0  0  0  0  0  0  0  0  0  0
   -0.9013    1.8959   -0.1109 H   0  0  0  0  0  0  0  0  0  0  0  0
   -3.1430    1.3925    1.0185 H   0  0  0  0  0  0  0  0  0  0  0  0
   -2.9015   -0.9137    2.0494 H   0  0  0  0  0  0  0  0  0  0  0  0
   -3.1263   -1.0138    0.2489 H   0  0  0  0  0  0  0  0  0  0  0  0
   -0.5191   -0.8650    1.7460 H   0  0  0  0  0  0  0  0  0  0  0  0
   -1.0748   -2.1970    0.6007 H   0  0  0  0  0  0  0  0  0  0  0  0
   -0.8355   -0.8324   -1.2616 H   0  0  0  0  0  0  0  0  0  0  0  0
    1.0906    0.2941    0.6716 H   0  0  0  0  0  0  0  0  0  0  0  0
    2.9437   -2.0236   -1.0408 H   0  0  0  0  0  0  0  0  0  0  0  0
    2.1878   -1.7306    0.5442 H   0  0  0  0  0  0  0  0  0  0  0  0
    4.5055    1.5253   -0.6304 H   0  0  0  0  0  0  0  0  0  0  0  0
    3.0152    1.6599    0.3371 H   0  0  0  0  0  0  0  0  0  0  0  0
  1  2  1  0
  2  3  1  0
  3  4  1  0
  4  5  1  0
  5  6  1  0
  6  7  1  0
  7  8  1  0
  8  9  1  0
  9 10  1  0
 10 11  1  0
 10 12  2  0
  6  2  1  0
  1 13  1  0
  1 14  1  0
  1 15  1  0
  2 16  1  1
  3 17  1  0
  4 18  1  0
  4 19  1  0
  5 20  1  0
  5 21  1  0
  6 22  1  6
  7 23  1  0
  9 24  1  0
  9 25  1  0
 11 26  1  0
 11 27  1  0
M  END
$$$$

     RDKit          3D

 27 27  0  0  0  0  0  0  0  0999 V2000
   -3.2012   -1.0553    0.0535 C   0  0  0  0  0  0  0  0  0  0  0  0
   -2.0004   -0.5881   -0.7319 C   0  0  1  0  0  0  0  0  0  0  0  0
   -2.0586    0.8410   -0.8271 N   0  0  0  0  0  0  0  0  0  0  0  0
   -1.5732    1.3483    0.4200 C   0  0  0  0  0  0  0  0  0  0  0  0
   -0.7708    0.2682    1.0786 C   0  0  0  0  0  0  0  0  0  0  0  0
   -0.7005   -0.8113    0.0119 C   0  0  2  0  0  0  0  0  0  0  0  0
    0.3759   -0.4504   -0.8896 N   0  0  0  0  0  0  0  0  0  0  0  0
    1.5906   -0.5970   -0.3640 O   0  0  0  0  0  0  0  0  0  0  0  0
    2.3386    0.5329   -0.6867 C   0  0  0  0  0  0  0  0  0  0  0  0
    3.7257    0.4258   -0.1183 C   0  0  0  0  0  0  0  0  0  0  0  0
    4.0825   -0.7294    0.6252 N   0  0  0  0  0  0  0  0  0  0  0  0
    4.5518    1.3461   -0.3011 O   0  0  0  0  0  0  0  0  0  0  0  0
   -4.0611   -0.3381   -0.0654 H   0  0  0  0  0  0  0  0  0  0  0  0
   -3.0106   -1.1196    1.1413 H   0  0  0  0  0  0  0  0  0  0  0  0
   -3.5597   -2.0352   -0.3591 H   0  0  0  0  0  0  0  0  0  0  0  0
   -1.9400   -1.0881   -1.7196 H   0  0  0  0  0  0  0  0  0  0  0  0
   -1.6497    1.2503   -1.6694 H   0  0  0  0  0  0  0  0  0  0  0  0
   -1.0070    2.2974    0.3367 H   0  0  0  0  0  0  0  0  0  0  0  0
   -2.4612    1.5555    1.0683 H   0  0  0  0  0  0  0  0  0  0  0  0
   -1.2366   -0.1155    2.0046 H   0  0  0  0  0  0  0  0  0  0  0  0
    0.2547    0.6016    1.3561 H   0  0  0  0  0  0  0  0  0  0  0  0
   -0.6031   -1.8109    0.4252 H   0  0  0  0  0  0  0  0  0  0  0  0
    0.2036    0.4574   -1.3623 H   0  0  0  0  0  0  0  0  0  0  0  0
    2.4066    0.6908   -1.7829 H   0  0  0  0  0  0  0  0  0  0  0  0
    1.8721    1.4233   -0.2168 H   0  0  0  0  0  0  0  0  0  0  0  0
    4.5710   -0.6115    1.5242 H   0  0  0  0  0  0  0  0  0  0  0  0
    3.8606   -1.6882    0.2802 H   0  0  0  0  0  0  0  0  0  0  0  0
  1  2  1  0
  2  3  1  0
  3  4  1  0
  4  5  1  0
  5  6  1  0
  6  7  1  0
  7  8  1  0
  8  9  1  0
  9 10  1  0
 10 11  1  0
 10 12  2  0
  6  2  1  0
  1 13  1  0
  1 14  1  0
  1 15  1  0
  2 16  1  6
  3 17  1  0
  4 18  1  0
  4 19  1  0
  5 20  1  0
  5 21  1  0
  6 22  1  1
  7 23  1  0
  9 24  1  0
  9 25  1  0
 11 26  1  0
 11 27  1  0
M  END
$$$$

     RDKit          3D

 27 27  0  0  0  0  0  0  0  0999 V2000
   -2.5275    0.1275    1.5973 C   0  0  0  0  0  0  0  0  0  0  0  0
   -1.9100   -0.6404    0.4503 C   0  0  1  0  0  0  0  0  0  0  0  0
   -2.8570   -0.5963   -0.6481 N   0  0  0  0  0  0  0  0  0  0  0  0
   -2.4930    0.5872   -1.3972 C   0  0  0  0  0  0  0  0  0  0  0  0
   -0.9779    0.6663   -1.3369 C   0  0  0  0  0  0  0  0  0  0  0  0
   -0.6439   -0.0093   -0.0504 C   0  0  2  0  0  0  0  0  0  0  0  0
    0.3858   -1.0278   -0.2492 N   0  0  0  0  0  0  0  0  0  0  0  0
    1.5219   -0.4960   -0.6940 O   0  0  0  0  0  0  0  0  0  0  0  0
    2.4000   -0.3496    0.3670 C   0  0  0  0  0  0  0  0  0  0  0  0
    3.6967    0.2440   -0.0701 C   0  0  0  0  0  0  0  0  0  0  0  0
    4.7479    0.4840    0.8559 N   0  0  0  0  0  0  0  0  0  0  0  0
    3.8419    0.5291   -1.2792 O   0  0  0  0  0  0  0  0  0  0  0  0
   -1.8303    0.8603    2.0164 H   0  0  0  0  0  0  0  0  0  0  0  0
   -2.9079   -0.5872    2.3637 H   0  0  0  0  0  0  0  0  0  0  0  0
   -3.4340    0.7057    1.2719 H   0  0  0  0  0  0  0  0  0  0  0  0
   -1.6895   -1.6775    0.7714 H   0  0  0  0  0  0  0  0  0  0  0  0
   -2.8542   -1.4568   -1.2109 H   0  0  0  0  0  0  0  0  0  0  0  0
   -2.8614    0.5607   -2.4364 H   0  0  0  0  0  0  0  0  0  0  0  0
   -2.8657    1.4798   -0.8388 H   0  0  0  0  0  0  0  0  0  0  0  0
   -0.5624    0.1407   -2.2033 H   0  0  0  0  0  0  0  0  0  0  0  0
   -0.6423    1.7422   -1.3578 H   0  0  0  0  0  0  0  0  0  0  0  0
   -0.2568    0.7119    0.7012 H   0  0  0  0  0  0  0  0  0  0  0  0
    0.0332   -1.7212   -0.9462 H   0  0  0  0  0  0  0  0  0  0  0  0
    1.8984    0.3100    1.1126 H   0  0  0  0  0  0  0  0  0  0  0  0
    2.5516   -1.3426    0.8401 H   0  0  0  0  0  0  0  0  0  0  0  0
    4.8571    1.4581    1.2232 H   0  0  0  0  0  0  0  0  0  0  0  0
    5.3790   -0.2964    1.1477 H   0  0  0  0  0  0  0  0  0  0  0  0
  1  2  1  0
  2  3  1  0
  3  4  1  0
  4  5  1  0
  5  6  1  0
  6  7  1  0
  7  8  1  0
  8  9  1  0
  9 10  1  0
 10 11  1  0
 10 12  2  0
  6  2  1  0
  1 13  1  0
  1 14  1  0
  1 15  1  0
  2 16  1  1
  3 17  1  0
  4 18  1  0
  4 19  1  0
  5 20  1  0
  5 21  1  0
  6 22  1  1
  7 23  1  0
  9 24  1  0
  9 25  1  0
 11 26  1  0
 11 27  1  0
M  END
$$$$

     RDKit          3D

 27 27  0  0  0  0  0  0  0  0999 V2000
   -0.7600   -1.7863   -0.5266 C   0  0  0  0  0  0  0  0  0  0  0  0
   -1.4657   -0.4797   -0.4608 C   0  0  1  0  0  0  0  0  0  0  0  0
   -2.8952   -0.6131   -0.2414 N   0  0  0  0  0  0  0  0  0  0  0  0
   -3.3195    0.7226    0.1416 C   0  0  0  0  0  0  0  0  0  0  0  0
   -2.1097    1.4469    0.6376 C   0  0  0  0  0  0  0  0  0  0  0  0
   -1.0967    0.3293    0.7888 C   0  0  2  0  0  0  0  0  0  0  0  0
    0.2558    0.8285    0.7052 N   0  0  0  0  0  0  0  0  0  0  0  0
    1.1532   -0.1531    0.5919 O   0  0  0  0  0  0  0  0  0  0  0  0
    2.3613    0.4075    0.1985 C   0  0  0  0  0  0  0  0  0  0  0  0
    3.4274   -0.5997    0.0435 C   0  0  0  0  0  0  0  0  0  0  0  0
    4.7219   -0.1758   -0.3553 N   0  0  0  0  0  0  0  0  0  0  0  0
    3.2438   -1.8239    0.2489 O   0  0  0  0  0  0  0  0  0  0  0  0
   -0.1050   -1.8329   -1.4276 H   0  0  0  0  0  0  0  0  0  0  0  0
   -0.1737   -2.0613    0.3444 H   0  0  0  0  0  0  0  0  0  0  0  0
   -1.5445   -2.5831   -0.6808 H   0  0  0  0  0  0  0  0  0  0  0  0
   -1.2434    0.1743   -1.3216 H   0  0  0  0  0  0  0  0  0  0  0  0
   -3.0170   -1.2722    0.5696 H   0  0  0  0  0  0  0  0  0  0  0  0
   -3.7033    1.2078   -0.7869 H   0  0  0  0  0  0  0  0  0  0  0  0
   -4.1353    0.7030    0.8898 H   0  0  0  0  0  0  0  0  0  0  0  0
   -2.2717    2.0018    1.5712 H   0  0  0  0  0  0  0  0  0  0  0  0
   -1.7200    2.1148   -0.1833 H   0  0  0  0  0  0  0  0  0  0  0  0
   -1.2486   -0.2440    1.7102 H   0  0  0  0  0  0  0  0  0  0  0  0
    0.3786    1.6095    0.0523 H   0  0  0  0  0  0  0  0  0  0  0  0
    2.2132    0.9233   -0.7863 H   0  0  0  0  0  0  0  0  0  0  0  0
    2.6776    1.1966    0.9057 H   0  0  0  0  0  0  0  0  0  0  0  0
    5.4838   -0.0571    0.3302 H   0  0  0  0  0  0  0  0  0  0  0  0
    4.8928    0.0161   -1.3646 H   0  0  0  0  0  0  0  0  0  0  0  0
  1  2  1  0
  2  3  1  0
  3  4  1  0
  4  5  1  0
  5  6  1  0
  6  7  1  0
  7  8  1  0
  8  9  1  0
  9 10  1  0
 10 11  1  0
 10 12  2  0
  6  2  1  0
  1 13  1  0
  1 14  1  0
  1 15  1  0
  2 16  1  6
  3 17  1  0
  4 18  1  0
  4 19  1  0
  5 20  1  0
  5 21  1  0
  6 22  1  1
  7 23  1  0
  9 24  1  0
  9 25  1  0
 11 26  1  0
 11 27  1  0
M  END
$$$$

     RDKit          3D

 27 27  0  0  0  0  0  0  0  0999 V2000
   -2.0538   -1.5862    0.8363 C   0  0  0  0  0  0  0  0  0  0  0  0
   -1.8770   -0.5091   -0.1958 C   0  0  1  0  0  0  0  0  0  0  0  0
   -2.9840    0.3764   -0.3139 N   0  0  0  0  0  0  0  0  0  0  0  0
   -2.5029    1.6785   -0.7186 C   0  0  0  0  0  0  0  0  0  0  0  0
   -0.9993    1.5609   -0.8696 C   0  0  0  0  0  0  0  0  0  0  0  0
   -0.7367    0.4368    0.0969 C   0  0  2  0  0  0  0  0  0  0  0  0
    0.4834   -0.1128    0.2184 N   0  0  0  0  0  0  0  0  0  0  0  0
    1.0680   -1.0632   -0.4453 O   0  0  0  0  0  0  0  0  0  0  0  0
    2.2964   -0.4404   -0.8826 C   0  0  0  0  0  0  0  0  0  0  0  0
    3.3729   -1.0694   -0.0975 C   0  0  0  0  0  0  0  0  0  0  0  0
    4.5261   -0.2309    0.1903 N   0  0  0  0  0  0  0  0  0  0  0  0
    3.3613   -2.2113    0.3091 O   0  0  0  0  0  0  0  0  0  0  0  0
   -2.9516   -2.1794    0.4912 H   0  0  0  0  0  0  0  0  0  0  0  0
   -1.2176   -2.2952    0.7941 H   0  0  0  0  0  0  0  0  0  0  0  0
   -2.2334   -1.1480    1.8142 H   0  0  0  0  0  0  0  0  0  0  0  0
   -1.7021   -0.9884   -1.1979 H   0  0  0  0  0  0  0  0  0  0  0  0
   -3.4631    0.4099    0.6402 H   0  0  0  0  0  0  0  0  0  0  0  0
   -3.0035    2.0789   -1.6247 H   0  0  0  0  0  0  0  0  0  0  0  0
   -2.6959    2.3712    0.1484 H   0  0  0  0  0  0  0  0  0  0  0  0
   -0.7365    1.2627   -1.8889 H   0  0  0  0  0  0  0  0  0  0  0  0
   -0.4728    2.5003   -0.5567 H   0  0  0  0  0  0  0  0  0  0  0  0
   -1.0224    0.8891    1.1288 H   0  0  0  0  0  0  0  0  0  0  0  0
    1.1309    0.3075    0.9652 H   0  0  0  0  0  0  0  0  0  0  0  0
    2.4571   -0.7867   -1.9775 H   0  0  0  0  0  0  0  0  0  0  0  0
    2.1928    0.6017   -0.8247 H   0  0  0  0  0  0  0  0  0  0  0  0
    5.0784    0.0638   -0.5856 H   0  0  0  0  0  0  0  0  0  0  0  0
    4.6852    0.0834    1.1819 H   0  0  0  0  0  0  0  0  0  0  0  0
  1  2  1  0
  2  3  1  0
  3  4  1  0
  4  5  1  0
  5  6  1  0
  6  7  1  0
  7  8  1  0
  8  9  1  0
  9 10  1  0
 10 11  1  0
 10 12  2  0
  6  2  1  0
  1 13  1  0
  1 14  1  0
  1 15  1  0
  2 16  1  6
  3 17  1  0
  4 18  1  0
  4 19  1  0
  5 20  1  0
  5 21  1  0
  6 22  1  1
  7 23  1  0
  9 24  1  0
  9 25  1  0
 11 26  1  0
 11 27  1  0
M  END
$$$$

     RDKit          3D

 27 27  0  0  0  0  0  0  0  0999 V2000
   -1.6598   -0.1764    2.0399 C   0  0  0  0  0  0  0  0  0  0  0  0
   -1.5429   -0.5489    0.5961 C   0  0  1  0  0  0  0  0  0  0  0  0
   -2.8525   -0.8297    0.0829 N   0  0  0  0  0  0  0  0  0  0  0  0
   -3.1170    0.0526   -1.0087 C   0  0  0  0  0  0  0  0  0  0  0  0
   -1.7466    0.3813   -1.5485 C   0  0  0  0  0  0  0  0  0  0  0  0
   -0.9243    0.5155   -0.2605 C   0  0  2  0  0  0  0  0  0  0  0  0
    0.4351    0.2231   -0.6046 N   0  0  0  0  0  0  0  0  0  0  0  0
    1.2440    0.1001    0.4711 O   0  0  0  0  0  0  0  0  0  0  0  0
    2.5435   -0.0001   -0.0201 C   0  0  0  0  0  0  0  0  0  0  0  0
    3.5478   -0.1403    1.0305 C   0  0  0  0  0  0  0  0  0  0  0  0
    4.9103   -0.2523    0.6742 N   0  0  0  0  0  0  0  0  0  0  0  0
    3.2181   -0.1620    2.2274 O   0  0  0  0  0  0  0  0  0  0  0  0
   -1.9224    0.8752    2.2007 H   0  0  0  0  0  0  0  0  0  0  0  0
   -0.7466   -0.4307    2.6302 H   0  0  0  0  0  0  0  0  0  0  0  0
   -2.5061   -0.7873    2.4688 H   0  0  0  0  0  0  0  0  0  0  0  0
   -0.8986   -1.4502    0.5249 H   0  0  0  0  0  0  0  0  0  0  0  0
   -3.6019   -0.7289    0.7958 H   0  0  0  0  0  0  0  0  0  0  0  0
   -3.6689   -0.4894   -1.8048 H   0  0  0  0  0  0  0  0  0  0  0  0
   -3.6480    0.9821   -0.7182 H   0  0  0  0  0  0  0  0  0  0  0  0
   -1.7052    1.2903   -2.1461 H   0  0  0  0  0  0  0  0  0  0  0  0
   -1.3763   -0.5290   -2.0648 H   0  0  0  0  0  0  0  0  0  0  0  0
   -1.0785    1.5083    0.1940 H   0  0  0  0  0  0  0  0  0  0  0  0
    0.8084    1.0412   -1.1556 H   0  0  0  0  0  0  0  0  0  0  0  0
    2.7663    0.9599   -0.5721 H   0  0  0  0  0  0  0  0  0  0  0  0
    2.6208   -0.7906   -0.8028 H   0  0  0  0  0  0  0  0  0  0  0  0
    5.5316   -0.9622    1.1378 H   0  0  0  0  0  0  0  0  0  0  0  0
    5.3697    0.3481   -0.0522 H   0  0  0  0  0  0  0  0  0  0  0  0
  1  2  1  0
  2  3  1  0
  3  4  1  0
  4  5  1  0
  5  6  1  0
  6  7  1  0
  7  8  1  0
  8  9  1  0
  9 10  1  0
 10 11  1  0
 10 12  2  0
  6  2  1  0
  1 13  1  0
  1 14  1  0
  1 15  1  0
  2 16  1  1
  3 17  1  0
  4 18  1  0
  4 19  1  0
  5 20  1  0
  5 21  1  0
  6 22  1  1
  7 23  1  0
  9 24  1  0
  9 25  1  0
 11 26  1  0
 11 27  1  0
M  END
$$$$

     RDKit          3D

 27 27  0  0  0  0  0  0  0  0999 V2000
   -2.9023    0.5275   -1.2432 C   0  0  0  0  0  0  0  0  0  0  0  0
   -2.0621    0.7156    0.0136 C   0  0  1  0  0  0  0  0  0  0  0  0
   -2.5121   -0.2536    0.9723 N   0  0  0  0  0  0  0  0  0  0  0  0
   -1.8762   -1.4679    0.4365 C   0  0  0  0  0  0  0  0  0  0  0  0
   -0.4231   -0.9678    0.3510 C   0  0  0  0  0  0  0  0  0  0  0  0
   -0.5853    0.3741   -0.2773 C   0  0  2  0  0  0  0  0  0  0  0  0
    0.2078    1.4177    0.2110 N   0  0  0  0  0  0  0  0  0  0  0  0
    1.4791    1.4926    0.0451 O   0  0  0  0  0  0  0  0  0  0  0  0
    2.1169    0.3361   -0.2900 C   0  0  0  0  0  0  0  0  0  0  0  0
    3.5820    0.5049   -0.4768 C   0  0  0  0  0  0  0  0  0  0  0  0
    4.3713   -0.6130   -0.8270 N   0  0  0  0  0  0  0  0  0  0  0  0
    4.1469    1.6086   -0.3345 O   0  0  0  0  0  0  0  0  0  0  0  0
   -2.4295   -0.2135   -1.9179 H   0  0  0  0  0  0  0  0  0  0  0  0
   -3.9170    0.1729   -0.9602 H   0  0  0  0  0  0  0  0  0  0  0  0
   -3.0295    1.5120   -1.7553 H   0  0  0  0  0  0  0  0  0  0  0  0
   -2.1474    1.7579    0.3348 H   0  0  0  0  0  0  0  0  0  0  0  0
   -2.0853   -0.0828    1.9155 H   0  0  0  0  0  0  0  0  0  0  0  0
   -1.9048   -2.2808    1.1690 H   0  0  0  0  0  0  0  0  0  0  0  0
   -2.2853   -1.7118   -0.5412 H   0  0  0  0  0  0  0  0  0  0  0  0
   -0.1122   -0.9380    1.4281 H   0  0  0  0  0  0  0  0  0  0  0  0
    0.1807   -1.6815   -0.2484 H   0  0  0  0  0  0  0  0  0  0  0  0
   -0.5039    0.2482   -1.3771 H   0  0  0  0  0  0  0  0  0  0  0  0
   -0.2618    2.1465    0.7768 H   0  0  0  0  0  0  0  0  0  0  0  0
    2.0246   -0.4222    0.5219 H   0  0  0  0  0  0  0  0  0  0  0  0
    1.6298   -0.0636   -1.2058 H   0  0  0  0  0  0  0  0  0  0  0  0
    5.2006   -0.5589   -1.4332 H   0  0  0  0  0  0  0  0  0  0  0  0
    4.0982   -1.5590   -0.4473 H   0  0  0  0  0  0  0  0  0  0  0  0
  1  2  1  0
  2  3  1  0
  3  4  1  0
  4  5  1  0
  5  6  1  0
  6  7  1  0
  7  8  1  0
  8  9  1  0
  9 10  1  0
 10 11  1  0
 10 12  2  0
  6  2  1  0
  1 13  1  0
  1 14  1  0
  1 15  1  0
  2 16  1  1
  3 17  1  0
  4 18  1  0
  4 19  1  0
  5 20  1  0
  5 21  1  0
  6 22  1  6
  7 23  1  0
  9 24  1  0
  9 25  1  0
 11 26  1  0
 11 27  1  0
M  END
$$$$

     RDKit          3D

 27 27  0  0  0  0  0  0  0  0999 V2000
   -2.3519    1.9551    0.7247 C   0  0  0  0  0  0  0  0  0  0  0  0
   -1.4806    0.7410    0.8948 C   0  0  1  0  0  0  0  0  0  0  0  0
   -2.2442   -0.4653    1.0990 N   0  0  0  0  0  0  0  0  0  0  0  0
   -2.6397   -0.8867   -0.2412 C   0  0  0  0  0  0  0  0  0  0  0  0
   -1.3366   -0.7644   -0.9916 C   0  0  0  0  0  0  0  0  0  0  0  0
   -0.6610    0.4308   -0.3335 C   0  0  2  0  0  0  0  0  0  0  0  0
    0.6808    0.0675    0.0787 N   0  0  0  0  0  0  0  0  0  0  0  0
    1.4923   -0.0590   -0.9767 O   0  0  0  0  0  0  0  0  0  0  0  0
    2.4528   -1.0406   -0.8538 C   0  0  0  0  0  0  0  0  0  0  0  0
    3.5110   -0.7087    0.1307 C   0  0  0  0  0  0  0  0  0  0  0  0
    3.9821    0.6243    0.2793 N   0  0  0  0  0  0  0  0  0  0  0  0
    3.9778   -1.5933    0.8954 O   0  0  0  0  0  0  0  0  0  0  0  0
   -2.2898    2.6354    1.6104 H   0  0  0  0  0  0  0  0  0  0  0  0
   -3.4066    1.6343    0.6594 H   0  0  0  0  0  0  0  0  0  0  0  0
   -2.0486    2.5328   -0.1831 H   0  0  0  0  0  0  0  0  0  0  0  0
   -0.8431    0.9013    1.7867 H   0  0  0  0  0  0  0  0  0  0  0  0
   -1.5694   -1.1916    1.4436 H   0  0  0  0  0  0  0  0  0  0  0  0
   -2.9696   -1.9447   -0.2182 H   0  0  0  0  0  0  0  0  0  0  0  0
   -3.3753   -0.2029   -0.6972 H   0  0  0  0  0  0  0  0  0  0  0  0
   -0.7583   -1.6932   -0.7900 H   0  0  0  0  0  0  0  0  0  0  0  0
   -1.5093   -0.5979   -2.0769 H   0  0  0  0  0  0  0  0  0  0  0  0
   -0.6279    1.2724   -1.0431 H   0  0  0  0  0  0  0  0  0  0  0  0
    0.6625   -0.7475    0.7162 H   0  0  0  0  0  0  0  0  0  0  0  0
    2.9704   -1.1049   -1.8444 H   0  0  0  0  0  0  0  0  0  0  0  0
    2.0536   -2.0425   -0.6219 H   0  0  0  0  0  0  0  0  0  0  0  0
    4.9900    0.8269    0.4711 H   0  0  0  0  0  0  0  0  0  0  0  0
    3.3385    1.4216    0.0818 H   0  0  0  0  0  0  0  0  0  0  0  0
  1  2  1  0
  2  3  1  0
  3  4  1  0
  4  5  1  0
  5  6  1  0
  6  7  1  0
  7  8  1  0
  8  9  1  0
  9 10  1  0
 10 11  1  0
 10 12  2  0
  6  2  1  0
  1 13  1  0
  1 14  1  0
  1 15  1  0
  2 16  1  1
  3 17  1  0
  4 18  1  0
  4 19  1  0
  5 20  1  0
  5 21  1  0
  6 22  1  6
  7 23  1  0
  9 24  1  0
  9 25  1  0
 11 26  1  0
 11 27  1  0
M  END
$$$$
