
     RDKit          3D

 26 26  0  0  0  0  0  0  0  0999 V2000
    4.0908    0.0794    0.8382 C   0  0  0  0  0  0  0  0  0  0  0  0
    2.7208    0.5331    0.3635 C   0  0  1  0  0  0  0  0  0  0  0  0
    2.8394    0.7926   -1.0004 O   0  0  0  0  0  0  0  0  0  0  0  0
    1.7056   -0.5671    0.6046 C   0  0  0  0  0  0  0  0  0  0  0  0
    0.4305   -0.1155    0.0735 N   0  0  0  0  0  0  0  0  0  0  0  0
   -0.7147   -0.9542    0.1624 C   0  0  0  0  0  0  0  0  0  0  0  0
   -0.6107   -2.0939    0.7074 O   0  0  0  0  0  0  0  0  0  0  0  0
   -2.0333   -0.5663   -0.3508 C   0  0  1  0  0  0  0  0  0  0  0  0
   -3.1067   -0.5554    0.7246 C   0  0  0  0  0  0  0  0  0  0  0  0
   -3.8462    0.7366    0.3508 C   0  0  0  0  0  0  0  0  0  0  0  0
   -2.7313    1.5176   -0.1705 N   0  0  0  0  0  0  0  0  0  0  0  0
   -2.0029    0.6865   -0.9128 O   0  0  0  0  0  0  0  0  0  0  0  0
    4.5208    0.8397    1.5379 H   0  0  0  0  0  0  0  0  0  0  0  0
    3.9922   -0.8801    1.3601 H   0  0  0  0  0  0  0  0  0  0  0  0
    4.8120   -0.0359    0.0147 H   0  0  0  0  0  0  0  0  0  0  0  0
    2.3744    1.4208    0.9250 H   0  0  0  0  0  0  0  0  0  0  0  0
    3.4761    0.1435   -1.4060 H   0  0  0  0  0  0  0  0  0  0  0  0
    1.9696   -1.4855    0.0294 H   0  0  0  0  0  0  0  0  0  0  0  0
    1.6283   -0.7729    1.6790 H   0  0  0  0  0  0  0  0  0  0  0  0
    0.3066    0.8063   -0.3775 H   0  0  0  0  0  0  0  0  0  0  0  0
   -2.3468   -1.2860   -1.1623 H   0  0  0  0  0  0  0  0  0  0  0  0
   -3.7597   -1.4257    0.6975 H   0  0  0  0  0  0  0  0  0  0  0  0
   -2.6456   -0.3651    1.7052 H   0  0  0  0  0  0  0  0  0  0  0  0
   -4.3272    1.2026    1.2112 H   0  0  0  0  0  0  0  0  0  0  0  0
   -4.5668    0.4994   -0.4853 H   0  0  0  0  0  0  0  0  0  0  0  0
   -2.1752    1.8457    0.6496 H   0  0  0  0  0  0  0  0  0  0  0  0
  1  2  1  0
  2  3  1  0
  2  4  1  0
  4  5  1  0
  5  6  1  0
  6  7  2  0
  6  8  1  0
  8  9  1  0
  9 10  1  0
 10 11  1  0
 11 12  1  0
 12  8  1  0
  1 13  1  0
  1 14  1  0
  1 15  1  0
  2 16  1  1
  3 17  1  0
  4 18  1  0
  4 19  1  0
  5 20  1  0
  8 21  1  6
  9 22  1  0
  9 23  1  0
 10 24  1  0
 10 25  1  0
 11 26  1  0
M  END
$$$$

     RDKit          3D

 26 26  0  0  0  0  0  0  0  0999 V2000
   -3.7666   -1.0483   -0.3545 C   0  0  0  0  0  0  0  0  0  0  0  0
   -2.5604   -0.1250   -0.3870 C   0  0  1  0  0  0  0  0  0  0  0  0
   -2.9343    1.1835   -0.1494 O   0  0  0  0  0  0  0  0  0  0  0  0
   -1.6191   -0.5898    0.7127 C   0  0  0  0  0  0  0  0  0  0  0  0
   -0.4164    0.2118    0.7881 N   0  0  0  0  0  0  0  0  0  0  0  0
    0.4742    0.3101   -0.3124 C   0  0  0  0  0  0  0  0  0  0  0  0
    0.2104   -0.3114   -1.3680 O   0  0  0  0  0  0  0  0  0  0  0  0
    1.6966    1.1432   -0.1950 C   0  0  1  0  0  0  0  0  0  0  0  0
    2.6304    0.5208    0.8498 C   0  0  0  0  0  0  0  0  0  0  0  0
    3.6805   -0.1021   -0.0652 C   0  0  0  0  0  0  0  0  0  0  0  0
    2.9935   -0.1273   -1.3249 N   0  0  0  0  0  0  0  0  0  0  0  0
    2.3961    1.0784   -1.3911 O   0  0  0  0  0  0  0  0  0  0  0  0
   -3.8991   -1.5821   -1.3162 H   0  0  0  0  0  0  0  0  0  0  0  0
   -4.6805   -0.4319   -0.1373 H   0  0  0  0  0  0  0  0  0  0  0  0
   -3.7006   -1.7883    0.4458 H   0  0  0  0  0  0  0  0  0  0  0  0
   -2.1149   -0.1958   -1.3792 H   0  0  0  0  0  0  0  0  0  0  0  0
   -3.3788    1.2678    0.7497 H   0  0  0  0  0  0  0  0  0  0  0  0
   -1.3176   -1.6595    0.5345 H   0  0  0  0  0  0  0  0  0  0  0  0
   -2.1533   -0.5662    1.6722 H   0  0  0  0  0  0  0  0  0  0  0  0
   -0.2089    0.7275    1.6826 H   0  0  0  0  0  0  0  0  0  0  0  0
    1.4229    2.1725    0.0684 H   0  0  0  0  0  0  0  0  0  0  0  0
    2.0855   -0.2488    1.4225 H   0  0  0  0  0  0  0  0  0  0  0  0
    3.0552    1.3239    1.4519 H   0  0  0  0  0  0  0  0  0  0  0  0
    4.6073    0.5351   -0.1008 H   0  0  0  0  0  0  0  0  0  0  0  0
    3.9214   -1.1275    0.2398 H   0  0  0  0  0  0  0  0  0  0  0  0
    3.5767   -0.3591   -2.1369 H   0  0  0  0  0  0  0  0  0  0  0  0
  1  2  1  0
  2  3  1  0
  2  4  1  0
  4  5  1  0
  5  6  1  0
  6  7  2  0
  6  8  1  0
  8  9  1  0
  9 10  1  0
 10 11  1  0
 11 12  1  0
 12  8  1  0
  1 13  1  0
  1 14  1  0
  1 15  1  0
  2 16  1  6
  3 17  1  0
  4 18  1  0
  4 19  1  0
  5 20  1  0
  8 21  1  1
  9 22  1  0
  9 23  1  0
 10 24  1  0
 10 25  1  0
 11 26  1  0
M  END
$$$$

     RDKit          3D

 26 26  0  0  0  0  0  0  0  0999 V2000
   -3.9610   -0.0125    0.2240 C   0  0  0  0  0  0  0  0  0  0  0  0
   -2.4545   -0.2199    0.0969 C   0  0  1  0  0  0  0  0  0  0  0  0
   -2.2269   -0.6438   -1.2186 O   0  0  0  0  0  0  0  0  0  0  0  0
   -1.8144    1.1106    0.3697 C   0  0  0  0  0  0  0  0  0  0  0  0
   -0.3852    1.1013    0.1887 N   0  0  0  0  0  0  0  0  0  0  0  0
    0.4917    0.2608    0.9273 C   0  0  0  0  0  0  0  0  0  0  0  0
   -0.0336   -0.5048    1.7766 O   0  0  0  0  0  0  0  0  0  0  0  0
    1.9652    0.2520    0.7399 C   0  0  1  0  0  0  0  0  0  0  0  0
    2.4769   -1.1111    0.3229 C   0  0  0  0  0  0  0  0  0  0  0  0
    3.7592   -0.6518   -0.3902 C   0  0  0  0  0  0  0  0  0  0  0  0
    3.3064    0.5662   -0.9826 N   0  0  0  0  0  0  0  0  0  0  0  0
    2.3953    1.1310   -0.2120 O   0  0  0  0  0  0  0  0  0  0  0  0
   -4.1638    0.4950    1.2114 H   0  0  0  0  0  0  0  0  0  0  0  0
   -4.2220    0.7507   -0.5410 H   0  0  0  0  0  0  0  0  0  0  0  0
   -4.5252   -0.9431    0.1160 H   0  0  0  0  0  0  0  0  0  0  0  0
   -2.1809   -1.0053    0.8217 H   0  0  0  0  0  0  0  0  0  0  0  0
   -2.8415   -1.3644   -1.4623 H   0  0  0  0  0  0  0  0  0  0  0  0
   -2.2517    1.8397   -0.3433 H   0  0  0  0  0  0  0  0  0  0  0  0
   -2.1262    1.4263    1.3837 H   0  0  0  0  0  0  0  0  0  0  0  0
    0.0828    1.7330   -0.5166 H   0  0  0  0  0  0  0  0  0  0  0  0
    2.4364    0.4940    1.6992 H   0  0  0  0  0  0  0  0  0  0  0  0
    2.7706   -1.7366    1.1627 H   0  0  0  0  0  0  0  0  0  0  0  0
    1.8541   -1.5897   -0.4372 H   0  0  0  0  0  0  0  0  0  0  0  0
    4.1114   -1.3971   -1.1123 H   0  0  0  0  0  0  0  0  0  0  0  0
    4.5131   -0.3927    0.3870 H   0  0  0  0  0  0  0  0  0  0  0  0
    3.0239    0.4122   -1.9609 H   0  0  0  0  0  0  0  0  0  0  0  0
  1  2  1  0
  2  3  1  0
  2  4  1  0
  4  5  1  0
  5  6  1  0
  6  7  2  0
  6  8  1  0
  8  9  1  0
  9 10  1  0
 10 11  1  0
 11 12  1  0
 12  8  1  0
  1 13  1  0
  1 14  1  0
  1 15  1  0
  2 16  1  1
  3 17  1  0
  4 18  1  0
  4 19  1  0
  5 20  1  0
  8 21  1  1
  9 22  1  0
  9 23  1  0
 10 24  1  0
 10 25  1  0
 11 26  1  0
M  END
$$$$

     RDKit          3D

 26 26  0  0  0  0  0  0  0  0999 V2000
    4.1862   -0.5458   -0.5381 C   0  0  0  0  0  0  0  0  0  0  0  0
    2.7738   -0.9187   -0.1065 C   0  0  1  0  0  0  0  0  0  0  0  0
    2.8061   -1.1349    1.2597 O   0  0  0  0  0  0  0  0  0  0  0  0
    1.8907    0.2560   -0.4704 C   0  0  0  0  0  0  0  0  0  0  0  0
    0.5135    0.0209   -0.0229 N   0  0  0  0  0  0  0  0  0  0  0  0
   -0.5156    0.9675   -0.2395 C   0  0  0  0  0  0  0  0  0  0  0  0
   -0.2187    2.0353   -0.8354 O   0  0  0  0  0  0  0  0  0  0  0  0
   -1.9168    0.7922    0.1845 C   0  0  1  0  0  0  0  0  0  0  0  0
   -2.8434    0.6314   -1.0295 C   0  0  0  0  0  0  0  0  0  0  0  0
   -4.0515    0.0364   -0.2921 C   0  0  0  0  0  0  0  0  0  0  0  0
   -3.4660   -0.5740    0.8565 N   0  0  0  0  0  0  0  0  0  0  0  0
   -2.1490   -0.4032    0.8273 O   0  0  0  0  0  0  0  0  0  0  0  0
    4.3456   -0.9553   -1.5550 H   0  0  0  0  0  0  0  0  0  0  0  0
    4.9302   -1.0422    0.1189 H   0  0  0  0  0  0  0  0  0  0  0  0
    4.2969    0.5727   -0.5241 H   0  0  0  0  0  0  0  0  0  0  0  0
    2.4458   -1.8487   -0.6225 H   0  0  0  0  0  0  0  0  0  0  0  0
    3.3685   -0.4519    1.7233 H   0  0  0  0  0  0  0  0  0  0  0  0
    1.9546    0.5230   -1.5232 H   0  0  0  0  0  0  0  0  0  0  0  0
    2.2464    1.1241    0.1237 H   0  0  0  0  0  0  0  0  0  0  0  0
    0.2855   -0.8532    0.4613 H   0  0  0  0  0  0  0  0  0  0  0  0
   -2.2875    1.6071    0.8046 H   0  0  0  0  0  0  0  0  0  0  0  0
   -2.4850   -0.1552   -1.7002 H   0  0  0  0  0  0  0  0  0  0  0  0
   -3.0733    1.5843   -1.4986 H   0  0  0  0  0  0  0  0  0  0  0  0
   -4.6397   -0.6260   -0.9321 H   0  0  0  0  0  0  0  0  0  0  0  0
   -4.6465    0.9279    0.0646 H   0  0  0  0  0  0  0  0  0  0  0  0
   -3.7507   -1.5697    0.9918 H   0  0  0  0  0  0  0  0  0  0  0  0
  1  2  1  0
  2  3  1  0
  2  4  1  0
  4  5  1  0
  5  6  1  0
  6  7  2  0
  6  8  1  0
  8  9  1  0
  9 10  1  0
 10 11  1  0
 11 12  1  0
 12  8  1  0
  1 13  1  0
  1 14  1  0
  1 15  1  0
  2 16  1  6
  3 17  1  0
  4 18  1  0
  4 19  1  0
  5 20  1  0
  8 21  1  1
  9 22  1  0
  9 23  1  0
 10 24  1  0
 10 25  1  0
 11 26  1  0
M  END
$$$$

     RDKit          3D

 26 26  0  0  0  0  0  0  0  0999 V2000
    3.3199    1.0130    0.4172 C   0  0  0  0  0  0  0  0  0  0  0  0
    3.1011   -0.4547    0.1985 C   0  0  1  0  0  0  0  0  0  0  0  0
    3.0416   -1.1719    1.4000 O   0  0  0  0  0  0  0  0  0  0  0  0
    1.9448   -0.7589   -0.6950 C   0  0  0  0  0  0  0  0  0  0  0  0
    0.6701   -0.4531   -0.1313 N   0  0  0  0  0  0  0  0  0  0  0  0
   -0.4995   -0.7018   -0.8927 C   0  0  0  0  0  0  0  0  0  0  0  0
   -0.3681   -1.1863   -2.0448 O   0  0  0  0  0  0  0  0  0  0  0  0
   -1.8589   -0.4307   -0.4241 C   0  0  1  0  0  0  0  0  0  0  0  0
   -2.1376    1.0460   -0.2162 C   0  0  0  0  0  0  0  0  0  0  0  0
   -3.6720    1.0203   -0.2707 C   0  0  0  0  0  0  0  0  0  0  0  0
   -3.9681   -0.2413   -0.8888 N   0  0  0  0  0  0  0  0  0  0  0  0
   -2.8336   -0.7625   -1.3592 O   0  0  0  0  0  0  0  0  0  0  0  0
    2.8601    1.3279    1.3833 H   0  0  0  0  0  0  0  0  0  0  0  0
    2.9465    1.5962   -0.4388 H   0  0  0  0  0  0  0  0  0  0  0  0
    4.4157    1.2114    0.5371 H   0  0  0  0  0  0  0  0  0  0  0  0
    4.0242   -0.8412   -0.3226 H   0  0  0  0  0  0  0  0  0  0  0  0
    2.6129   -2.0521    1.1589 H   0  0  0  0  0  0  0  0  0  0  0  0
    2.1137   -0.2686   -1.6684 H   0  0  0  0  0  0  0  0  0  0  0  0
    1.9636   -1.8635   -0.8934 H   0  0  0  0  0  0  0  0  0  0  0  0
    0.5365   -0.0497    0.8249 H   0  0  0  0  0  0  0  0  0  0  0  0
   -2.1077   -0.9338    0.5291 H   0  0  0  0  0  0  0  0  0  0  0  0
   -1.7805    1.3849    0.7667 H   0  0  0  0  0  0  0  0  0  0  0  0
   -1.8199    1.6667   -1.0634 H   0  0  0  0  0  0  0  0  0  0  0  0
   -4.0782    1.8924   -0.7869 H   0  0  0  0  0  0  0  0  0  0  0  0
   -4.0061    0.9435    0.8002 H   0  0  0  0  0  0  0  0  0  0  0  0
   -4.4205   -0.9321   -0.2678 H   0  0  0  0  0  0  0  0  0  0  0  0
  1  2  1  0
  2  3  1  0
  2  4  1  0
  4  5  1  0
  5  6  1  0
  6  7  2  0
  6  8  1  0
  8  9  1  0
  9 10  1  0
 10 11  1  0
 11 12  1  0
 12  8  1  0
  1 13  1  0
  1 14  1  0
  1 15  1  0
  2 16  1  6
  3 17  1  0
  4 18  1  0
  4 19  1  0
  5 20  1  0
  8 21  1  1
  9 22  1  0
  9 23  1  0
 10 24  1  0
 10 25  1  0
 11 26  1  0
M  END
$$$$

     RDKit          3D

 26 26  0  0  0  0  0  0  0  0999 V2000
    3.9022   -0.3526   -0.0673 C   0  0  0  0  0  0  0  0  0  0  0  0
    2.3801   -0.3807    0.1280 C   0  0  1  0  0  0  0  0  0  0  0  0
    2.0619   -0.2593    1.4808 O   0  0  0  0  0  0  0  0  0  0  0  0
    1.8423    0.8019   -0.6415 C   0  0  0  0  0  0  0  0  0  0  0  0
    0.4052    0.9238   -0.5429 N   0  0  0  0  0  0  0  0  0  0  0  0
   -0.4816   -0.0893   -0.9816 C   0  0  0  0  0  0  0  0  0  0  0  0
    0.0063   -1.1211   -1.4697 O   0  0  0  0  0  0  0  0  0  0  0  0
   -1.9697    0.0447   -0.8759 C   0  0  1  0  0  0  0  0  0  0  0  0
   -2.5303   -1.0200    0.0328 C   0  0  0  0  0  0  0  0  0  0  0  0
   -3.4566   -0.2261    0.9220 C   0  0  0  0  0  0  0  0  0  0  0  0
   -3.5252    1.0507    0.2466 N   0  0  0  0  0  0  0  0  0  0  0  0
   -2.3043    1.2668   -0.3049 O   0  0  0  0  0  0  0  0  0  0  0  0
    4.3839   -1.1767    0.4691 H   0  0  0  0  0  0  0  0  0  0  0  0
    4.0537   -0.4770   -1.1703 H   0  0  0  0  0  0  0  0  0  0  0  0
    4.2541    0.6530    0.2195 H   0  0  0  0  0  0  0  0  0  0  0  0
    2.0242   -1.3206   -0.3076 H   0  0  0  0  0  0  0  0  0  0  0  0
    2.8672   -0.3036    2.0303 H   0  0  0  0  0  0  0  0  0  0  0  0
    2.3286    1.7082   -0.2258 H   0  0  0  0  0  0  0  0  0  0  0  0
    2.2002    0.7040   -1.6829 H   0  0  0  0  0  0  0  0  0  0  0  0
   -0.0138    1.7870   -0.1342 H   0  0  0  0  0  0  0  0  0  0  0  0
   -2.3690   -0.0140   -1.8932 H   0  0  0  0  0  0  0  0  0  0  0  0
   -1.7255   -1.5223    0.6050 H   0  0  0  0  0  0  0  0  0  0  0  0
   -3.0528   -1.7567   -0.5988 H   0  0  0  0  0  0  0  0  0  0  0  0
   -3.0389   -0.0718    1.9418 H   0  0  0  0  0  0  0  0  0  0  0  0
   -4.4645   -0.6851    0.9583 H   0  0  0  0  0  0  0  0  0  0  0  0
   -3.7776    1.8366    0.8646 H   0  0  0  0  0  0  0  0  0  0  0  0
  1  2  1  0
  2  3  1  0
  2  4  1  0
  4  5  1  0
  5  6  1  0
  6  7  2  0
  6  8  1  0
  8  9  1  0
  9 10  1  0
 10 11  1  0
 11 12  1  0
 12  8  1  0
  1 13  1  0
  1 14  1  0
  1 15  1  0
  2 16  1  6
  3 17  1  0
  4 18  1  0
  4 19  1  0
  5 20  1  0
  8 21  1  6
  9 22  1  0
  9 23  1  0
 10 24  1  0
 10 25  1  0
 11 26  1  0
M  END
$$$$

     RDKit          3D

 26 26  0  0  0  0  0  0  0  0999 V2000
   -2.8043    1.2627    0.5416 C   0  0  0  0  0  0  0  0  0  0  0  0
   -3.0992   -0.2034    0.3232 C   0  0  1  0  0  0  0  0  0  0  0  0
   -3.1829   -0.3797   -1.0773 O   0  0  0  0  0  0  0  0  0  0  0  0
   -1.9236   -1.0397    0.7775 C   0  0  0  0  0  0  0  0  0  0  0  0
   -0.7441   -0.5406    0.0918 N   0  0  0  0  0  0  0  0  0  0  0  0
    0.5489   -1.1102    0.2927 C   0  0  0  0  0  0  0  0  0  0  0  0
    0.6364   -2.0748    1.0963 O   0  0  0  0  0  0  0  0  0  0  0  0
    1.7127   -0.5800   -0.4160 C   0  0  1  0  0  0  0  0  0  0  0  0
    2.0317    0.8461    0.0479 C   0  0  0  0  0  0  0  0  0  0  0  0
    3.4996    0.9161   -0.3185 C   0  0  0  0  0  0  0  0  0  0  0  0
    3.8973   -0.4522   -0.5077 N   0  0  0  0  0  0  0  0  0  0  0  0
    2.8804   -1.2340   -0.1154 O   0  0  0  0  0  0  0  0  0  0  0  0
   -2.0843    1.3883    1.3965 H   0  0  0  0  0  0  0  0  0  0  0  0
   -2.3605    1.7274   -0.3798 H   0  0  0  0  0  0  0  0  0  0  0  0
   -3.7311    1.8276    0.7439 H   0  0  0  0  0  0  0  0  0  0  0  0
   -4.0532   -0.5142    0.7794 H   0  0  0  0  0  0  0  0  0  0  0  0
   -3.2515   -1.3243   -1.3188 H   0  0  0  0  0  0  0  0  0  0  0  0
   -1.8139   -0.8405    1.8775 H   0  0  0  0  0  0  0  0  0  0  0  0
   -2.0786   -2.1074    0.6432 H   0  0  0  0  0  0  0  0  0  0  0  0
   -0.7922    0.2613   -0.5817 H   0  0  0  0  0  0  0  0  0  0  0  0
    1.5394   -0.5190   -1.5027 H   0  0  0  0  0  0  0  0  0  0  0  0
    1.4157    1.5893   -0.4564 H   0  0  0  0  0  0  0  0  0  0  0  0
    1.9488    0.8730    1.1662 H   0  0  0  0  0  0  0  0  0  0  0  0
    4.0971    1.4441    0.4451 H   0  0  0  0  0  0  0  0  0  0  0  0
    3.5631    1.4384   -1.3069 H   0  0  0  0  0  0  0  0  0  0  0  0
    4.1481   -0.6542   -1.5219 H   0  0  0  0  0  0  0  0  0  0  0  0
  1  2  1  0
  2  3  1  0
  2  4  1  0
  4  5  1  0
  5  6  1  0
  6  7  2  0
  6  8  1  0
  8  9  1  0
  9 10  1  0
 10 11  1  0
 11 12  1  0
 12  8  1  0
  1 13  1  0
  1 14  1  0
  1 15  1  0
  2 16  1  1
  3 17  1  0
  4 18  1  0
  4 19  1  0
  5 20  1  0
  8 21  1  6
  9 22  1  0
  9 23  1  0
 10 24  1  0
 10 25  1  0
 11 26  1  0
M  END
$$$$

     RDKit          3D

 26 26  0  0  0  0  0  0  0  0999 V2000
   -4.0069    0.3761   -0.0291 C   0  0  0  0  0  0  0  0  0  0  0  0
   -2.6990   -0.3802    0.2695 C   0  0  1  0  0  0  0  0  0  0  0  0
   -2.3944   -1.0932   -0.8696 O   0  0  0  0  0  0  0  0  0  0  0  0
   -1.6967    0.6601    0.6336 C   0  0  0  0  0  0  0  0  0  0  0  0
   -0.3691    0.2077    0.9081 N   0  0  0  0  0  0  0  0  0  0  0  0
    0.4430   -0.4327   -0.0452 C   0  0  0  0  0  0  0  0  0  0  0  0
    0.0489   -0.6421   -1.2144 O   0  0  0  0  0  0  0  0  0  0  0  0
    1.8232   -0.8716    0.3716 C   0  0  1  0  0  0  0  0  0  0  0  0
    2.8492   -0.1553   -0.4799 C   0  0  0  0  0  0  0  0  0  0  0  0
    3.9159    0.0832    0.5793 C   0  0  0  0  0  0  0  0  0  0  0  0
    3.0378    0.3781    1.7236 N   0  0  0  0  0  0  0  0  0  0  0  0
    2.0716   -0.5565    1.6828 O   0  0  0  0  0  0  0  0  0  0  0  0
   -4.6910   -0.2829   -0.5966 H   0  0  0  0  0  0  0  0  0  0  0  0
   -4.4336    0.7098    0.9400 H   0  0  0  0  0  0  0  0  0  0  0  0
   -3.7392    1.2311   -0.6668 H   0  0  0  0  0  0  0  0  0  0  0  0
   -2.8993   -1.0765    1.1301 H   0  0  0  0  0  0  0  0  0  0  0  0
   -2.7084   -0.5777   -1.6568 H   0  0  0  0  0  0  0  0  0  0  0  0
   -2.1029    1.1855    1.5542 H   0  0  0  0  0  0  0  0  0  0  0  0
   -1.7204    1.4489   -0.1665 H   0  0  0  0  0  0  0  0  0  0  0  0
    0.0492    0.3556    1.8906 H   0  0  0  0  0  0  0  0  0  0  0  0
    1.9548   -1.9691    0.1978 H   0  0  0  0  0  0  0  0  0  0  0  0
    3.2267   -0.7789   -1.3089 H   0  0  0  0  0  0  0  0  0  0  0  0
    2.4577    0.8365   -0.8310 H   0  0  0  0  0  0  0  0  0  0  0  0
    4.5694    0.9201    0.3577 H   0  0  0  0  0  0  0  0  0  0  0  0
    4.4376   -0.8762    0.7812 H   0  0  0  0  0  0  0  0  0  0  0  0
    2.5756    1.3004    1.4614 H   0  0  0  0  0  0  0  0  0  0  0  0
  1  2  1  0
  2  3  1  0
  2  4  1  0
  4  5  1  0
  5  6  1  0
  6  7  2  0
  6  8  1  0
  8  9  1  0
  9 10  1  0
 10 11  1  0
 11 12  1  0
 12  8  1  0
  1 13  1  0
  1 14  1  0
  1 15  1  0
  2 16  1  1
  3 17  1  0
  4 18  1  0
  4 19  1  0
  5 20  1  0
  8 21  1  1
  9 22  1  0
  9 23  1  0
 10 24  1  0
 10 25  1  0
 11 26  1  0
M  END
$$$$
