
     RDKit          3D

 29 28  0  0  0  0  0  0  0  0999 V2000
   -2.9831    1.1494    1.2084 C   0  0  0  0  0  0  0  0  0  0  0  0
   -2.9304    0.5623   -0.1928 C   0  0  2  0  0  0  0  0  0  0  0  0
   -3.4891   -0.7554   -0.1836 N   0  0  0  0  0  0  0  0  0  0  0  0
   -1.4867    0.6037   -0.6503 C   0  0  0  0  0  0  0  0  0  0  0  0
   -0.6219   -0.1495    0.2059 N   0  0  0  0  0  0  0  0  0  0  0  0
    0.7600   -0.0971   -0.2187 C   0  0  2  0  0  0  0  0  0  0  0  0
    0.9662   -0.6983   -1.5609 C   0  0  0  0  0  0  0  0  0  0  0  0
    1.6177   -0.7448    0.8308 C   0  0  0  0  0  0  0  0  0  0  0  0
    3.3305   -0.7795    0.4951 S   0  0  0  0  0  6  0  0  0  0  0  0
    4.0091    0.7920    0.2986 N   0  0  0  0  0  0  0  0  0  0  0  0
    3.9963   -1.3494    1.7469 O   0  0  0  0  0  0  0  0  0  0  0  0
    3.7341   -1.6861   -0.6136 O   0  0  0  0  0  0  0  0  0  0  0  0
   -3.0347    0.3611    1.9800 H   0  0  0  0  0  0  0  0  0  0  0  0
   -3.8410    1.8345    1.3236 H   0  0  0  0  0  0  0  0  0  0  0  0
   -2.0639    1.7449    1.4330 H   0  0  0  0  0  0  0  0  0  0  0  0
   -3.5146    1.2187   -0.8732 H   0  0  0  0  0  0  0  0  0  0  0  0
   -3.6299   -1.1422    0.7766 H   0  0  0  0  0  0  0  0  0  0  0  0
   -3.0060   -1.4285   -0.8115 H   0  0  0  0  0  0  0  0  0  0  0  0
   -1.4089    0.1827   -1.6945 H   0  0  0  0  0  0  0  0  0  0  0  0
   -1.1718    1.6683   -0.6109 H   0  0  0  0  0  0  0  0  0  0  0  0
   -0.7439    0.0389    1.2102 H   0  0  0  0  0  0  0  0  0  0  0  0
    1.0120    1.0050   -0.2709 H   0  0  0  0  0  0  0  0  0  0  0  0
    2.0592   -0.6059   -1.8017 H   0  0  0  0  0  0  0  0  0  0  0  0
    0.6139   -1.7390   -1.5639 H   0  0  0  0  0  0  0  0  0  0  0  0
    0.4596   -0.1515   -2.3629 H   0  0  0  0  0  0  0  0  0  0  0  0
    1.2733   -1.7785    1.0142 H   0  0  0  0  0  0  0  0  0  0  0  0
    1.4646   -0.1859    1.7813 H   0  0  0  0  0  0  0  0  0  0  0  0
    5.0523    0.7681    0.2982 H   0  0  0  0  0  0  0  0  0  0  0  0
    3.5772    1.3621   -0.4339 H   0  0  0  0  0  0  0  0  0  0  0  0
  1  2  1  0
  2  3  1  0
  2  4  1  0
  4  5  1  0
  5  6  1  0
  6  7  1  0
  6  8  1  0
  8  9  1  0
  9 10  1  0
  9 11  2  0
  9 12  2  0
  1 13  1  0
  1 14  1  0
  1 15  1  0
  2 16  1  6
  3 17  1  0
  3 18  1  0
  4 19  1  0
  4 20  1  0
  5 21  1  0
  6 22  1  6
  7 23  1  0
  7 24  1  0
  7 25  1  0
  8 26  1  0
  8 27  1  0
 10 28  1  0
 10 29  1  0
M  END
$$$$

     RDKit          3D

 29 28  0  0  0  0  0  0  0  0999 V2000
   -3.4342    1.1544   -0.7473 C   0  0  0  0  0  0  0  0  0  0  0  0
   -2.4348    0.0923   -0.2755 C   0  0  2  0  0  0  0  0  0  0  0  0
   -3.0353   -0.7269    0.7599 N   0  0  0  0  0  0  0  0  0  0  0  0
   -1.2219    0.8187    0.1862 C   0  0  0  0  0  0  0  0  0  0  0  0
   -0.1386    0.0703    0.6874 N   0  0  0  0  0  0  0  0  0  0  0  0
    0.5940   -0.7559   -0.1827 C   0  0  2  0  0  0  0  0  0  0  0  0
    0.8560   -2.1424    0.3488 C   0  0  0  0  0  0  0  0  0  0  0  0
    1.8160   -0.1464   -0.8083 C   0  0  0  0  0  0  0  0  0  0  0  0
    2.9920    0.4226    0.3910 S   0  0  0  0  0  6  0  0  0  0  0  0
    4.3220    1.0601   -0.5114 N   0  0  0  0  0  0  0  0  0  0  0  0
    2.4411    1.6026    1.1585 O   0  0  0  0  0  0  0  0  0  0  0  0
    3.4444   -0.5915    1.3571 O   0  0  0  0  0  0  0  0  0  0  0  0
   -3.1464    1.5168   -1.7532 H   0  0  0  0  0  0  0  0  0  0  0  0
   -4.4667    0.8030   -0.6800 H   0  0  0  0  0  0  0  0  0  0  0  0
   -3.2872    2.0445   -0.0649 H   0  0  0  0  0  0  0  0  0  0  0  0
   -2.2353   -0.5304   -1.1573 H   0  0  0  0  0  0  0  0  0  0  0  0
   -2.6927   -0.4250    1.7162 H   0  0  0  0  0  0  0  0  0  0  0  0
   -4.0553   -0.4935    0.7851 H   0  0  0  0  0  0  0  0  0  0  0  0
   -1.5664    1.4991    1.0235 H   0  0  0  0  0  0  0  0  0  0  0  0
   -0.8743    1.4632   -0.6734 H   0  0  0  0  0  0  0  0  0  0  0  0
   -0.3699   -0.4493    1.5843 H   0  0  0  0  0  0  0  0  0  0  0  0
   -0.0951   -0.9552   -1.0841 H   0  0  0  0  0  0  0  0  0  0  0  0
    1.7820   -2.1382    0.9902 H   0  0  0  0  0  0  0  0  0  0  0  0
    0.0489   -2.5531    0.9606 H   0  0  0  0  0  0  0  0  0  0  0  0
    1.1005   -2.8497   -0.4845 H   0  0  0  0  0  0  0  0  0  0  0  0
    2.3378   -0.9267   -1.3924 H   0  0  0  0  0  0  0  0  0  0  0  0
    1.5930    0.6899   -1.4912 H   0  0  0  0  0  0  0  0  0  0  0  0
    5.1477    0.4125   -0.4677 H   0  0  0  0  0  0  0  0  0  0  0  0
    4.5788    2.0339   -0.2627 H   0  0  0  0  0  0  0  0  0  0  0  0
  1  2  1  0
  2  3  1  0
  2  4  1  0
  4  5  1  0
  5  6  1  0
  6  7  1  0
  6  8  1  0
  8  9  1  0
  9 10  1  0
  9 11  2  0
  9 12  2  0
  1 13  1  0
  1 14  1  0
  1 15  1  0
  2 16  1  6
  3 17  1  0
  3 18  1  0
  4 19  1  0
  4 20  1  0
  5 21  1  0
  6 22  1  6
  7 23  1  0
  7 24  1  0
  7 25  1  0
  8 26  1  0
  8 27  1  0
 10 28  1  0
 10 29  1  0
M  END
$$$$

     RDKit          3D

 29 28  0  0  0  0  0  0  0  0999 V2000
    3.3600    0.4068    0.0601 C   0  0  0  0  0  0  0  0  0  0  0  0
    2.6547   -0.8419   -0.4417 C   0  0  2  0  0  0  0  0  0  0  0  0
    2.7446   -0.9643   -1.8659 N   0  0  0  0  0  0  0  0  0  0  0  0
    1.2048   -0.7925    0.0570 C   0  0  0  0  0  0  0  0  0  0  0  0
    0.5377    0.3439   -0.4389 N   0  0  0  0  0  0  0  0  0  0  0  0
   -0.7794    0.6128   -0.0111 C   0  0  2  0  0  0  0  0  0  0  0  0
   -0.7884    0.9103    1.4742 C   0  0  0  0  0  0  0  0  0  0  0  0
   -1.6623   -0.5574   -0.3521 C   0  0  0  0  0  0  0  0  0  0  0  0
   -3.3357   -0.3351    0.1353 S   0  0  0  0  0  6  0  0  0  0  0  0
   -4.0533    1.0418   -0.6274 N   0  0  0  0  0  0  0  0  0  0  0  0
   -4.1362   -1.5370   -0.2755 O   0  0  0  0  0  0  0  0  0  0  0  0
   -3.5123   -0.1619    1.6127 O   0  0  0  0  0  0  0  0  0  0  0  0
    2.6411    1.0964    0.5557 H   0  0  0  0  0  0  0  0  0  0  0  0
    4.1414    0.1528    0.8303 H   0  0  0  0  0  0  0  0  0  0  0  0
    3.8491    0.9604   -0.7538 H   0  0  0  0  0  0  0  0  0  0  0  0
    3.1259   -1.7231    0.0353 H   0  0  0  0  0  0  0  0  0  0  0  0
    3.7758   -1.1000   -2.0754 H   0  0  0  0  0  0  0  0  0  0  0  0
    2.5268   -0.0063   -2.2685 H   0  0  0  0  0  0  0  0  0  0  0  0
    1.2763   -0.9172    1.1408 H   0  0  0  0  0  0  0  0  0  0  0  0
    0.7113   -1.7458   -0.3061 H   0  0  0  0  0  0  0  0  0  0  0  0
    0.9016    0.8112   -1.2600 H   0  0  0  0  0  0  0  0  0  0  0  0
   -1.1693    1.5071   -0.5365 H   0  0  0  0  0  0  0  0  0  0  0  0
   -1.6232    1.5787    1.7676 H   0  0  0  0  0  0  0  0  0  0  0  0
    0.1317    1.5382    1.6464 H   0  0  0  0  0  0  0  0  0  0  0  0
   -0.8262    0.0076    2.0859 H   0  0  0  0  0  0  0  0  0  0  0  0
   -1.6312   -0.6821   -1.4507 H   0  0  0  0  0  0  0  0  0  0  0  0
   -1.2587   -1.4891    0.0868 H   0  0  0  0  0  0  0  0  0  0  0  0
   -3.7079    1.0202   -1.6177 H   0  0  0  0  0  0  0  0  0  0  0  0
   -5.0986    0.8655   -0.7074 H   0  0  0  0  0  0  0  0  0  0  0  0
  1  2  1  0
  2  3  1  0
  2  4  1  0
  4  5  1  0
  5  6  1  0
  6  7  1  0
  6  8  1  0
  8  9  1  0
  9 10  1  0
  9 11  2  0
  9 12  2  0
  1 13  1  0
  1 14  1  0
  1 15  1  0
  2 16  1  1
  3 17  1  0
  3 18  1  0
  4 19  1  0
  4 20  1  0
  5 21  1  0
  6 22  1  6
  7 23  1  0
  7 24  1  0
  7 25  1  0
  8 26  1  0
  8 27  1  0
 10 28  1  0
 10 29  1  0
M  END
$$$$

     RDKit          3D

 29 28  0  0  0  0  0  0  0  0999 V2000
   -2.5918    1.4025    0.3942 C   0  0  0  0  0  0  0  0  0  0  0  0
   -2.2682    0.1966   -0.4515 C   0  0  2  0  0  0  0  0  0  0  0  0
   -3.5464   -0.3257   -0.9611 N   0  0  0  0  0  0  0  0  0  0  0  0
   -1.6332   -0.9138    0.3319 C   0  0  0  0  0  0  0  0  0  0  0  0
   -0.4022   -0.5778    0.9586 N   0  0  0  0  0  0  0  0  0  0  0  0
    0.6839   -0.3559    0.0078 C   0  0  2  0  0  0  0  0  0  0  0  0
    0.9684   -1.6336   -0.7515 C   0  0  0  0  0  0  0  0  0  0  0  0
    1.8810    0.0042    0.8424 C   0  0  0  0  0  0  0  0  0  0  0  0
    3.3487    0.3529   -0.0343 S   0  0  0  0  0  6  0  0  0  0  0  0
    3.1803    1.6694   -1.1323 N   0  0  0  0  0  0  0  0  0  0  0  0
    4.3686    0.8287    1.0060 O   0  0  0  0  0  0  0  0  0  0  0  0
    3.9609   -0.7895   -0.7491 O   0  0  0  0  0  0  0  0  0  0  0  0
   -3.6699    1.7203    0.2676 H   0  0  0  0  0  0  0  0  0  0  0  0
   -2.4621    1.2004    1.4736 H   0  0  0  0  0  0  0  0  0  0  0  0
   -1.9929    2.2949    0.0768 H   0  0  0  0  0  0  0  0  0  0  0  0
   -1.6615    0.5155   -1.3283 H   0  0  0  0  0  0  0  0  0  0  0  0
   -4.1063   -0.6014   -0.1164 H   0  0  0  0  0  0  0  0  0  0  0  0
   -3.3229   -1.2243   -1.4497 H   0  0  0  0  0  0  0  0  0  0  0  0
   -2.3554   -1.1879    1.1395 H   0  0  0  0  0  0  0  0  0  0  0  0
   -1.5460   -1.8041   -0.3037 H   0  0  0  0  0  0  0  0  0  0  0  0
   -0.4385    0.2291    1.5819 H   0  0  0  0  0  0  0  0  0  0  0  0
    0.4210    0.4523   -0.7101 H   0  0  0  0  0  0  0  0  0  0  0  0
    2.0194   -1.9296   -0.5951 H   0  0  0  0  0  0  0  0  0  0  0  0
    0.7963   -1.5380   -1.8341 H   0  0  0  0  0  0  0  0  0  0  0  0
    0.3673   -2.4755   -0.3300 H   0  0  0  0  0  0  0  0  0  0  0  0
    1.5902    0.8892    1.4780 H   0  0  0  0  0  0  0  0  0  0  0  0
    2.0215   -0.8524    1.5581 H   0  0  0  0  0  0  0  0  0  0  0  0
    2.3462    2.2586   -0.9195 H   0  0  0  0  0  0  0  0  0  0  0  0
    4.0436    2.1949   -1.2892 H   0  0  0  0  0  0  0  0  0  0  0  0
  1  2  1  0
  2  3  1  0
  2  4  1  0
  4  5  1  0
  5  6  1  0
  6  7  1  0
  6  8  1  0
  8  9  1  0
  9 10  1  0
  9 11  2  0
  9 12  2  0
  1 13  1  0
  1 14  1  0
  1 15  1  0
  2 16  1  6
  3 17  1  0
  3 18  1  0
  4 19  1  0
  4 20  1  0
  5 21  1  0
  6 22  1  6
  7 23  1  0
  7 24  1  0
  7 25  1  0
  8 26  1  0
  8 27  1  0
 10 28  1  0
 10 29  1  0
M  END
$$$$

     RDKit          3D

 29 28  0  0  0  0  0  0  0  0999 V2000
   -3.4803    1.5193    0.2114 C   0  0  0  0  0  0  0  0  0  0  0  0
   -2.3242    0.7268   -0.4476 C   0  0  2  0  0  0  0  0  0  0  0  0
   -2.9959   -0.3445   -1.2239 N   0  0  0  0  0  0  0  0  0  0  0  0
   -1.5366    0.1059    0.6743 C   0  0  0  0  0  0  0  0  0  0  0  0
   -0.4494   -0.6411    0.2868 N   0  0  0  0  0  0  0  0  0  0  0  0
    0.7749   -0.1277   -0.1445 C   0  0  2  0  0  0  0  0  0  0  0  0
    0.7326    0.7137   -1.3629 C   0  0  0  0  0  0  0  0  0  0  0  0
    1.7011   -1.3285   -0.3018 C   0  0  0  0  0  0  0  0  0  0  0  0
    3.3181   -1.0241   -0.7960 S   0  0  0  0  0  6  0  0  0  0  0  0
    4.1557   -0.0181    0.3556 N   0  0  0  0  0  0  0  0  0  0  0  0
    3.5107   -0.5335   -2.1954 O   0  0  0  0  0  0  0  0  0  0  0  0
    4.0598   -2.3707   -0.7810 O   0  0  0  0  0  0  0  0  0  0  0  0
   -3.2955    2.5908    0.0377 H   0  0  0  0  0  0  0  0  0  0  0  0
   -4.4438    1.2147   -0.2127 H   0  0  0  0  0  0  0  0  0  0  0  0
   -3.4556    1.3250    1.2852 H   0  0  0  0  0  0  0  0  0  0  0  0
   -1.8075    1.3712   -1.1274 H   0  0  0  0  0  0  0  0  0  0  0  0
   -3.9506   -0.5498   -0.8752 H   0  0  0  0  0  0  0  0  0  0  0  0
   -2.3971   -1.1872   -1.2475 H   0  0  0  0  0  0  0  0  0  0  0  0
   -1.3407    0.8707    1.4783 H   0  0  0  0  0  0  0  0  0  0  0  0
   -2.3039   -0.5690    1.2047 H   0  0  0  0  0  0  0  0  0  0  0  0
   -0.3679   -1.5548    0.8293 H   0  0  0  0  0  0  0  0  0  0  0  0
    1.2130    0.5064    0.6916 H   0  0  0  0  0  0  0  0  0  0  0  0
    0.3983    1.7447   -1.0776 H   0  0  0  0  0  0  0  0  0  0  0  0
    0.0670    0.3315   -2.1304 H   0  0  0  0  0  0  0  0  0  0  0  0
    1.7912    0.9062   -1.7198 H   0  0  0  0  0  0  0  0  0  0  0  0
    1.7148   -1.8472    0.6940 H   0  0  0  0  0  0  0  0  0  0  0  0
    1.2241   -2.0520   -1.0203 H   0  0  0  0  0  0  0  0  0  0  0  0
    4.8927   -0.5646    0.8719 H   0  0  0  0  0  0  0  0  0  0  0  0
    4.5951    0.7859   -0.1788 H   0  0  0  0  0  0  0  0  0  0  0  0
  1  2  1  0
  2  3  1  0
  2  4  1  0
  4  5  1  0
  5  6  1  0
  6  7  1  0
  6  8  1  0
  8  9  1  0
  9 10  1  0
  9 11  2  0
  9 12  2  0
  1 13  1  0
  1 14  1  0
  1 15  1  0
  2 16  1  6
  3 17  1  0
  3 18  1  0
  4 19  1  0
  4 20  1  0
  5 21  1  0
  6 22  1  1
  7 23  1  0
  7 24  1  0
  7 25  1  0
  8 26  1  0
  8 27  1  0
 10 28  1  0
 10 29  1  0
M  END
$$$$

     RDKit          3D

 29 28  0  0  0  0  0  0  0  0999 V2000
   -3.9481    0.1423    0.2547 C   0  0  0  0  0  0  0  0  0  0  0  0
   -2.8249   -0.0575   -0.7282 C   0  0  2  0  0  0  0  0  0  0  0  0
   -3.0068   -1.2933   -1.4248 N   0  0  0  0  0  0  0  0  0  0  0  0
   -1.4896    0.0272    0.0062 C   0  0  0  0  0  0  0  0  0  0  0  0
   -0.3872   -0.1599   -0.8956 N   0  0  0  0  0  0  0  0  0  0  0  0
    0.8620   -0.0914   -0.1740 C   0  0  2  0  0  0  0  0  0  0  0  0
    1.1187    1.2583    0.4128 C   0  0  0  0  0  0  0  0  0  0  0  0
    2.0233   -0.4958   -1.0423 C   0  0  0  0  0  0  0  0  0  0  0  0
    3.5304   -0.4237   -0.1245 S   0  0  0  0  0  6  0  0  0  0  0  0
    3.8979    1.1352    0.4844 N   0  0  0  0  0  0  0  0  0  0  0  0
    4.6947   -0.8486   -0.9949 O   0  0  0  0  0  0  0  0  0  0  0  0
    3.4316   -1.3924    1.0360 O   0  0  0  0  0  0  0  0  0  0  0  0
   -3.5368    0.5760    1.1959 H   0  0  0  0  0  0  0  0  0  0  0  0
   -4.7507    0.7996   -0.1078 H   0  0  0  0  0  0  0  0  0  0  0  0
   -4.3790   -0.8705    0.5078 H   0  0  0  0  0  0  0  0  0  0  0  0
   -2.8635    0.8042   -1.4380 H   0  0  0  0  0  0  0  0  0  0  0  0
   -2.3478   -2.0061   -1.0917 H   0  0  0  0  0  0  0  0  0  0  0  0
   -4.0112   -1.6070   -1.4468 H   0  0  0  0  0  0  0  0  0  0  0  0
   -1.4649    0.9775    0.5587 H   0  0  0  0  0  0  0  0  0  0  0  0
   -1.4613   -0.7665    0.8096 H   0  0  0  0  0  0  0  0  0  0  0  0
   -0.4516   -1.1424   -1.2846 H   0  0  0  0  0  0  0  0  0  0  0  0
    0.7774   -0.8773    0.6295 H   0  0  0  0  0  0  0  0  0  0  0  0
    1.7074    1.1384    1.3575 H   0  0  0  0  0  0  0  0  0  0  0  0
    0.2396    1.8926    0.5600 H   0  0  0  0  0  0  0  0  0  0  0  0
    1.8094    1.8424   -0.2777 H   0  0  0  0  0  0  0  0  0  0  0  0
    2.0774    0.1906   -1.9364 H   0  0  0  0  0  0  0  0  0  0  0  0
    1.8496   -1.5085   -1.4157 H   0  0  0  0  0  0  0  0  0  0  0  0
    4.4341    1.7203   -0.2012 H   0  0  0  0  0  0  0  0  0  0  0  0
    4.4698    1.0362    1.3765 H   0  0  0  0  0  0  0  0  0  0  0  0
  1  2  1  0
  2  3  1  0
  2  4  1  0
  4  5  1  0
  5  6  1  0
  6  7  1  0
  6  8  1  0
  8  9  1  0
  9 10  1  0
  9 11  2  0
  9 12  2  0
  1 13  1  0
  1 14  1  0
  1 15  1  0
  2 16  1  6
  3 17  1  0
  3 18  1  0
  4 19  1  0
  4 20  1  0
  5 21  1  0
  6 22  1  1
  7 23  1  0
  7 24  1  0
  7 25  1  0
  8 26  1  0
  8 27  1  0
 10 28  1  0
 10 29  1  0
M  END
$$$$

     RDKit          3D

 29 28  0  0  0  0  0  0  0  0999 V2000
    3.9002   -0.6315    0.5740 C   0  0  0  0  0  0  0  0  0  0  0  0
    2.7684    0.0435   -0.1644 C   0  0  2  0  0  0  0  0  0  0  0  0
    2.8395    1.4705   -0.1008 N   0  0  0  0  0  0  0  0  0  0  0  0
    1.4341   -0.4302    0.3466 C   0  0  0  0  0  0  0  0  0  0  0  0
    0.3982    0.1994   -0.3302 N   0  0  0  0  0  0  0  0  0  0  0  0
   -0.9449   -0.1556   -0.0062 C   0  0  2  0  0  0  0  0  0  0  0  0
   -1.1123   -1.6081   -0.3674 C   0  0  0  0  0  0  0  0  0  0  0  0
   -1.8602    0.7609   -0.7685 C   0  0  0  0  0  0  0  0  0  0  0  0
   -3.5753    0.4601   -0.4763 S   0  0  0  0  0  6  0  0  0  0  0  0
   -3.9181    0.6491    1.2035 N   0  0  0  0  0  0  0  0  0  0  0  0
   -4.3223    1.6143   -1.1613 O   0  0  0  0  0  0  0  0  0  0  0  0
   -4.0810   -0.8148   -1.0290 O   0  0  0  0  0  0  0  0  0  0  0  0
    4.8307   -0.0542    0.4484 H   0  0  0  0  0  0  0  0  0  0  0  0
    3.6547   -0.7129    1.6485 H   0  0  0  0  0  0  0  0  0  0  0  0
    4.1113   -1.6405    0.1559 H   0  0  0  0  0  0  0  0  0  0  0  0
    2.9129   -0.2457   -1.2482 H   0  0  0  0  0  0  0  0  0  0  0  0
    2.3096    1.8179    0.7361 H   0  0  0  0  0  0  0  0  0  0  0  0
    2.4086    1.8468   -0.9803 H   0  0  0  0  0  0  0  0  0  0  0  0
    1.3495   -0.2163    1.4440 H   0  0  0  0  0  0  0  0  0  0  0  0
    1.3607   -1.5279    0.2348 H   0  0  0  0  0  0  0  0  0  0  0  0
    0.5475    1.0030   -0.9097 H   0  0  0  0  0  0  0  0  0  0  0  0
   -1.0500   -0.0158    1.0976 H   0  0  0  0  0  0  0  0  0  0  0  0
   -2.1259   -1.8889   -0.6323 H   0  0  0  0  0  0  0  0  0  0  0  0
   -0.4109   -1.8933   -1.2088 H   0  0  0  0  0  0  0  0  0  0  0  0
   -0.7140   -2.1956    0.5043 H   0  0  0  0  0  0  0  0  0  0  0  0
   -1.6608    0.6647   -1.8700 H   0  0  0  0  0  0  0  0  0  0  0  0
   -1.6324    1.8201   -0.4554 H   0  0  0  0  0  0  0  0  0  0  0  0
   -3.3236    0.0668    1.8167 H   0  0  0  0  0  0  0  0  0  0  0  0
   -4.0940    1.6143    1.4985 H   0  0  0  0  0  0  0  0  0  0  0  0
  1  2  1  0
  2  3  1  0
  2  4  1  0
  4  5  1  0
  5  6  1  0
  6  7  1  0
  6  8  1  0
  8  9  1  0
  9 10  1  0
  9 11  2  0
  9 12  2  0
  1 13  1  0
  1 14  1  0
  1 15  1  0
  2 16  1  6
  3 17  1  0
  3 18  1  0
  4 19  1  0
  4 20  1  0
  5 21  1  0
  6 22  1  1
  7 23  1  0
  7 24  1  0
  7 25  1  0
  8 26  1  0
  8 27  1  0
 10 28  1  0
 10 29  1  0
M  END
$$$$

     RDKit          3D

 29 28  0  0  0  0  0  0  0  0999 V2000
    2.6181   -1.0358    0.6411 C   0  0  0  0  0  0  0  0  0  0  0  0
    2.6087    0.2220   -0.1628 C   0  0  2  0  0  0  0  0  0  0  0  0
    2.9921    1.3322    0.7065 N   0  0  0  0  0  0  0  0  0  0  0  0
    1.3479    0.4830   -0.9006 C   0  0  0  0  0  0  0  0  0  0  0  0
    0.1493    0.6371   -0.2224 N   0  0  0  0  0  0  0  0  0  0  0  0
   -0.5154   -0.3978    0.4245 C   0  0  2  0  0  0  0  0  0  0  0  0
   -0.9823   -1.5301   -0.4621 C   0  0  0  0  0  0  0  0  0  0  0  0
   -1.7357    0.1189    1.1605 C   0  0  0  0  0  0  0  0  0  0  0  0
   -2.9308    0.8936    0.1601 S   0  0  0  0  0  6  0  0  0  0  0  0
   -3.5964   -0.0972   -1.0601 N   0  0  0  0  0  0  0  0  0  0  0  0
   -4.0704    1.3183    1.0639 O   0  0  0  0  0  0  0  0  0  0  0  0
   -2.4299    2.1578   -0.4891 O   0  0  0  0  0  0  0  0  0  0  0  0
    2.3601   -0.9095    1.7031 H   0  0  0  0  0  0  0  0  0  0  0  0
    1.9942   -1.8465    0.2205 H   0  0  0  0  0  0  0  0  0  0  0  0
    3.6935   -1.4312    0.6603 H   0  0  0  0  0  0  0  0  0  0  0  0
    3.4734    0.1314   -0.8960 H   0  0  0  0  0  0  0  0  0  0  0  0
    3.0950    2.2018    0.1216 H   0  0  0  0  0  0  0  0  0  0  0  0
    3.9634    1.1017    1.0322 H   0  0  0  0  0  0  0  0  0  0  0  0
    1.5323    1.4407   -1.4905 H   0  0  0  0  0  0  0  0  0  0  0  0
    1.3162   -0.2834   -1.7366 H   0  0  0  0  0  0  0  0  0  0  0  0
   -0.1958    1.6041   -0.0690 H   0  0  0  0  0  0  0  0  0  0  0  0
    0.1094   -0.8435    1.2156 H   0  0  0  0  0  0  0  0  0  0  0  0
   -1.9745   -1.9280   -0.1021 H   0  0  0  0  0  0  0  0  0  0  0  0
   -1.1259   -1.2489   -1.5078 H   0  0  0  0  0  0  0  0  0  0  0  0
   -0.2970   -2.4078   -0.4365 H   0  0  0  0  0  0  0  0  0  0  0  0
   -2.2141   -0.7664    1.6434 H   0  0  0  0  0  0  0  0  0  0  0  0
   -1.4204    0.8061    1.9552 H   0  0  0  0  0  0  0  0  0  0  0  0
   -3.1469    0.1219   -1.9759 H   0  0  0  0  0  0  0  0  0  0  0  0
   -4.6182    0.1553   -1.1969 H   0  0  0  0  0  0  0  0  0  0  0  0
  1  2  1  0
  2  3  1  0
  2  4  1  0
  4  5  1  0
  5  6  1  0
  6  7  1  0
  6  8  1  0
  8  9  1  0
  9 10  1  0
  9 11  2  0
  9 12  2  0
  1 13  1  0
  1 14  1  0
  1 15  1  0
  2 16  1  6
  3 17  1  0
  3 18  1  0
  4 19  1  0
  4 20  1  0
  5 21  1  0
  6 22  1  1
  7 23  1  0
  7 24  1  0
  7 25  1  0
  8 26  1  0
  8 27  1  0
 10 28  1  0
 10 29  1  0
M  END
$$$$
