
     RDKit          3D

 26 26  0  0  0  0  0  0  0  0999 V2000
   -2.0823    1.3718   -0.5357 C   0  0  0  0  0  0  0  0  0  0  0  0
   -1.5014    0.0831   -0.0584 C   0  0  1  0  0  0  0  0  0  0  0  0
   -1.5867   -0.9761   -1.0490 N   0  0  0  0  0  0  0  0  0  0  0  0
   -0.9179   -2.0570   -0.3347 C   0  0  0  0  0  0  0  0  0  0  0  0
    0.3548   -1.3546    0.1077 C   0  0  0  0  0  0  0  0  0  0  0  0
   -0.0666    0.0992    0.2963 C   0  0  2  0  0  0  0  0  0  0  0  0
    0.2354    0.5427    1.6166 N   0  0  0  0  0  0  0  0  0  0  0  0
    0.8015    0.8989   -0.6683 C   0  0  0  0  0  0  0  0  0  0  0  0
    2.1860    0.7875   -0.1342 C   0  0  0  0  0  0  0  0  0  0  0  0
    3.2857    0.3732   -0.9146 N   0  0  0  0  0  0  0  0  0  0  0  0
    2.3785    1.0757    1.0675 O   0  0  0  0  0  0  0  0  0  0  0  0
   -3.1979    1.3497   -0.3465 H   0  0  0  0  0  0  0  0  0  0  0  0
   -1.7057    2.2331    0.0190 H   0  0  0  0  0  0  0  0  0  0  0  0
   -1.9887    1.4807   -1.6455 H   0  0  0  0  0  0  0  0  0  0  0  0
   -2.0618   -0.2861    0.8424 H   0  0  0  0  0  0  0  0  0  0  0  0
   -2.5882   -1.2033   -1.2465 H   0  0  0  0  0  0  0  0  0  0  0  0
   -0.6725   -2.9050   -0.9919 H   0  0  0  0  0  0  0  0  0  0  0  0
   -1.4919   -2.3256    0.5565 H   0  0  0  0  0  0  0  0  0  0  0  0
    1.0593   -1.4825   -0.7625 H   0  0  0  0  0  0  0  0  0  0  0  0
    0.7497   -1.8101    1.0213 H   0  0  0  0  0  0  0  0  0  0  0  0
    0.5491   -0.1766    2.2742 H   0  0  0  0  0  0  0  0  0  0  0  0
   -0.3884    1.2657    1.9945 H   0  0  0  0  0  0  0  0  0  0  0  0
    0.7217    0.5832   -1.7042 H   0  0  0  0  0  0  0  0  0  0  0  0
    0.5294    1.9858   -0.5874 H   0  0  0  0  0  0  0  0  0  0  0  0
    3.6994    1.0268   -1.5996 H   0  0  0  0  0  0  0  0  0  0  0  0
    3.6993   -0.5802   -0.8240 H   0  0  0  0  0  0  0  0  0  0  0  0
  1  2  1  0
  2  3  1  0
  3  4  1  0
  4  5  1  0
  5  6  1  0
  6  7  1  1
  6  8  1  0
  8  9  1  0
  9 10  1  0
  9 11  2  0
  6  2  1  0
  1 12  1  0
  1 13  1  0
  1 14  1  0
  2 15  1  1
  3 16  1  0
  4 17  1  0
  4 18  1  0
  5 19  1  0
  5 20  1  0
  7 21  1  0
  7 22  1  0
  8 23  1  0
  8 24  1  0
 10 25  1  0
 10 26  1  0
M  END
$$$$

     RDKit          3D

 26 26  0  0  0  0  0  0  0  0999 V2000
   -0.3539   -1.9088    0.2377 C   0  0  0  0  0  0  0  0  0  0  0  0
   -0.8904   -0.6884   -0.4188 C   0  0  1  0  0  0  0  0  0  0  0  0
   -2.2560   -0.4624   -0.0405 N   0  0  0  0  0  0  0  0  0  0  0  0
   -2.3503    0.7601    0.6755 C   0  0  0  0  0  0  0  0  0  0  0  0
   -0.9807    1.3568    0.7581 C   0  0  0  0  0  0  0  0  0  0  0  0
   -0.1211    0.5574   -0.2006 C   0  0  2  0  0  0  0  0  0  0  0  0
    0.0340    1.3151   -1.4397 N   0  0  0  0  0  0  0  0  0  0  0  0
    1.2222    0.3989    0.4087 C   0  0  0  0  0  0  0  0  0  0  0  0
    2.1351   -0.4530   -0.4159 C   0  0  0  0  0  0  0  0  0  0  0  0
    3.4659   -0.7157    0.0119 N   0  0  0  0  0  0  0  0  0  0  0  0
    1.7868   -0.9728   -1.5072 O   0  0  0  0  0  0  0  0  0  0  0  0
   -0.0904   -2.7179   -0.5061 H   0  0  0  0  0  0  0  0  0  0  0  0
   -1.1476   -2.3642    0.8667 H   0  0  0  0  0  0  0  0  0  0  0  0
    0.4965   -1.7167    0.9229 H   0  0  0  0  0  0  0  0  0  0  0  0
   -0.8964   -0.8844   -1.5324 H   0  0  0  0  0  0  0  0  0  0  0  0
   -2.9215   -0.5789   -0.8142 H   0  0  0  0  0  0  0  0  0  0  0  0
   -3.0691    1.4368    0.1431 H   0  0  0  0  0  0  0  0  0  0  0  0
   -2.7956    0.5665    1.6779 H   0  0  0  0  0  0  0  0  0  0  0  0
   -0.6330    1.2402    1.8186 H   0  0  0  0  0  0  0  0  0  0  0  0
   -0.9721    2.4255    0.4648 H   0  0  0  0  0  0  0  0  0  0  0  0
    0.2154    2.3205   -1.2267 H   0  0  0  0  0  0  0  0  0  0  0  0
   -0.7746    1.1705   -2.0863 H   0  0  0  0  0  0  0  0  0  0  0  0
    1.7068    1.4209    0.3980 H   0  0  0  0  0  0  0  0  0  0  0  0
    1.2241    0.1041    1.4757 H   0  0  0  0  0  0  0  0  0  0  0  0
    4.2621   -0.2201   -0.4411 H   0  0  0  0  0  0  0  0  0  0  0  0
    3.7040   -1.3901    0.7700 H   0  0  0  0  0  0  0  0  0  0  0  0
  1  2  1  0
  2  3  1  0
  3  4  1  0
  4  5  1  0
  5  6  1  0
  6  7  1  6
  6  8  1  0
  8  9  1  0
  9 10  1  0
  9 11  2  0
  6  2  1  0
  1 12  1  0
  1 13  1  0
  1 14  1  0
  2 15  1  6
  3 16  1  0
  4 17  1  0
  4 18  1  0
  5 19  1  0
  5 20  1  0
  7 21  1  0
  7 22  1  0
  8 23  1  0
  8 24  1  0
 10 25  1  0
 10 26  1  0
M  END
$$$$

     RDKit          3D

 26 26  0  0  0  0  0  0  0  0999 V2000
   -0.5129    1.7533    0.9763 C   0  0  0  0  0  0  0  0  0  0  0  0
   -0.9451    0.3209    1.0069 C   0  0  1  0  0  0  0  0  0  0  0  0
   -2.2186    0.2848    0.2606 N   0  0  0  0  0  0  0  0  0  0  0  0
   -1.9673   -0.2891   -1.0183 C   0  0  0  0  0  0  0  0  0  0  0  0
   -0.4604   -0.2609   -1.1714 C   0  0  0  0  0  0  0  0  0  0  0  0
   -0.1175   -0.6444    0.2705 C   0  0  2  0  0  0  0  0  0  0  0  0
   -0.7751   -1.9605    0.4278 N   0  0  0  0  0  0  0  0  0  0  0  0
    1.3024   -0.7969    0.5372 C   0  0  0  0  0  0  0  0  0  0  0  0
    2.1972    0.3338    0.3652 C   0  0  0  0  0  0  0  0  0  0  0  0
    2.8596    0.5235   -0.8758 N   0  0  0  0  0  0  0  0  0  0  0  0
    2.4287    1.1749    1.2648 O   0  0  0  0  0  0  0  0  0  0  0  0
   -1.4142    2.4387    0.9118 H   0  0  0  0  0  0  0  0  0  0  0  0
   -0.0784    2.0161    1.9750 H   0  0  0  0  0  0  0  0  0  0  0  0
    0.1021    2.0342    0.1210 H   0  0  0  0  0  0  0  0  0  0  0  0
   -1.1691   -0.0282    2.0490 H   0  0  0  0  0  0  0  0  0  0  0  0
   -2.6356    1.2167    0.1430 H   0  0  0  0  0  0  0  0  0  0  0  0
   -2.4921    0.2085   -1.8533 H   0  0  0  0  0  0  0  0  0  0  0  0
   -2.2560   -1.3801   -1.0151 H   0  0  0  0  0  0  0  0  0  0  0  0
   -0.0997   -1.0324   -1.8779 H   0  0  0  0  0  0  0  0  0  0  0  0
   -0.1708    0.7544   -1.4319 H   0  0  0  0  0  0  0  0  0  0  0  0
   -0.5076   -2.3907    1.3355 H   0  0  0  0  0  0  0  0  0  0  0  0
   -0.3577   -2.5505   -0.3346 H   0  0  0  0  0  0  0  0  0  0  0  0
    1.4261   -1.1349    1.6114 H   0  0  0  0  0  0  0  0  0  0  0  0
    1.6476   -1.7154   -0.0321 H   0  0  0  0  0  0  0  0  0  0  0  0
    3.0508    1.4563   -1.2882 H   0  0  0  0  0  0  0  0  0  0  0  0
    3.1638   -0.3321   -1.3875 H   0  0  0  0  0  0  0  0  0  0  0  0
  1  2  1  0
  2  3  1  0
  3  4  1  0
  4  5  1  0
  5  6  1  0
  6  7  1  1
  6  8  1  0
  8  9  1  0
  9 10  1  0
  9 11  2  0
  6  2  1  0
  1 12  1  0
  1 13  1  0
  1 14  1  0
  2 15  1  1
  3 16  1  0
  4 17  1  0
  4 18  1  0
  5 19  1  0
  5 20  1  0
  7 21  1  0
  7 22  1  0
  8 23  1  0
  8 24  1  0
 10 25  1  0
 10 26  1  0
M  END
$$$$

     RDKit          3D

 26 26  0  0  0  0  0  0  0  0999 V2000
   -1.0060    1.4946   -0.6849 C   0  0  0  0  0  0  0  0  0  0  0  0
   -0.9872    0.5716    0.4657 C   0  0  1  0  0  0  0  0  0  0  0  0
   -2.2719   -0.1449    0.5040 N   0  0  0  0  0  0  0  0  0  0  0  0
   -2.0911   -1.0661   -0.6057 C   0  0  0  0  0  0  0  0  0  0  0  0
   -0.7447   -1.6803   -0.2805 C   0  0  0  0  0  0  0  0  0  0  0  0
   -0.0265   -0.5393    0.4349 C   0  0  2  0  0  0  0  0  0  0  0  0
    0.1930   -0.9931    1.8131 N   0  0  0  0  0  0  0  0  0  0  0  0
    1.2594   -0.3101   -0.2651 C   0  0  0  0  0  0  0  0  0  0  0  0
    2.0798    0.7760    0.2663 C   0  0  0  0  0  0  0  0  0  0  0  0
    3.3297    1.0612   -0.3490 N   0  0  0  0  0  0  0  0  0  0  0  0
    1.7466    1.4830    1.2450 O   0  0  0  0  0  0  0  0  0  0  0  0
   -2.0226    1.5344   -1.1788 H   0  0  0  0  0  0  0  0  0  0  0  0
   -0.8536    2.5559   -0.3268 H   0  0  0  0  0  0  0  0  0  0  0  0
   -0.2958    1.2874   -1.4909 H   0  0  0  0  0  0  0  0  0  0  0  0
   -0.9283    1.1374    1.4254 H   0  0  0  0  0  0  0  0  0  0  0  0
   -3.0676    0.4866    0.3849 H   0  0  0  0  0  0  0  0  0  0  0  0
   -2.8805   -1.8407   -0.6357 H   0  0  0  0  0  0  0  0  0  0  0  0
   -1.9839   -0.5406   -1.5696 H   0  0  0  0  0  0  0  0  0  0  0  0
   -0.8821   -2.5597    0.3625 H   0  0  0  0  0  0  0  0  0  0  0  0
   -0.2501   -1.9466   -1.2225 H   0  0  0  0  0  0  0  0  0  0  0  0
    1.0988   -1.4538    1.9418 H   0  0  0  0  0  0  0  0  0  0  0  0
    0.0237   -0.1932    2.4617 H   0  0  0  0  0  0  0  0  0  0  0  0
    1.0685   -0.2237   -1.3606 H   0  0  0  0  0  0  0  0  0  0  0  0
    1.8601   -1.2576   -0.1636 H   0  0  0  0  0  0  0  0  0  0  0  0
    3.8816    0.3473   -0.8823 H   0  0  0  0  0  0  0  0  0  0  0  0
    3.7508    2.0143   -0.2892 H   0  0  0  0  0  0  0  0  0  0  0  0
  1  2  1  0
  2  3  1  0
  3  4  1  0
  4  5  1  0
  5  6  1  0
  6  7  1  1
  6  8  1  0
  8  9  1  0
  9 10  1  0
  9 11  2  0
  6  2  1  0
  1 12  1  0
  1 13  1  0
  1 14  1  0
  2 15  1  1
  3 16  1  0
  4 17  1  0
  4 18  1  0
  5 19  1  0
  5 20  1  0
  7 21  1  0
  7 22  1  0
  8 23  1  0
  8 24  1  0
 10 25  1  0
 10 26  1  0
M  END
$$$$

     RDKit          3D

 26 26  0  0  0  0  0  0  0  0999 V2000
   -1.7720    0.4921    1.7191 C   0  0  0  0  0  0  0  0  0  0  0  0
   -1.4141   -0.4157    0.5849 C   0  0  1  0  0  0  0  0  0  0  0  0
   -1.8182    0.0963   -0.7086 N   0  0  0  0  0  0  0  0  0  0  0  0
   -1.1944   -0.8409   -1.6108 C   0  0  0  0  0  0  0  0  0  0  0  0
    0.0486   -1.3588   -0.9273 C   0  0  0  0  0  0  0  0  0  0  0  0
    0.0794   -0.5051    0.3435 C   0  0  2  0  0  0  0  0  0  0  0  0
    0.8080   -1.1025    1.3968 N   0  0  0  0  0  0  0  0  0  0  0  0
    0.6054    0.8478   -0.0822 C   0  0  0  0  0  0  0  0  0  0  0  0
    2.0582    0.7892   -0.3238 C   0  0  0  0  0  0  0  0  0  0  0  0
    2.7704    1.9498   -0.7347 N   0  0  0  0  0  0  0  0  0  0  0  0
    2.6581   -0.2897   -0.1643 O   0  0  0  0  0  0  0  0  0  0  0  0
   -2.3625   -0.1049    2.4511 H   0  0  0  0  0  0  0  0  0  0  0  0
   -0.8179    0.7713    2.2417 H   0  0  0  0  0  0  0  0  0  0  0  0
   -2.3565    1.3747    1.4366 H   0  0  0  0  0  0  0  0  0  0  0  0
   -1.8077   -1.4375    0.6860 H   0  0  0  0  0  0  0  0  0  0  0  0
   -2.8377    0.1781   -0.8191 H   0  0  0  0  0  0  0  0  0  0  0  0
   -0.9878   -0.4212   -2.6113 H   0  0  0  0  0  0  0  0  0  0  0  0
   -1.9053   -1.6998   -1.7220 H   0  0  0  0  0  0  0  0  0  0  0  0
   -0.0505   -2.4114   -0.5951 H   0  0  0  0  0  0  0  0  0  0  0  0
    0.9540   -1.1832   -1.5401 H   0  0  0  0  0  0  0  0  0  0  0  0
    1.3235   -0.4018    1.9831 H   0  0  0  0  0  0  0  0  0  0  0  0
    1.4466   -1.8515    1.0997 H   0  0  0  0  0  0  0  0  0  0  0  0
    0.3542    1.6347    0.6650 H   0  0  0  0  0  0  0  0  0  0  0  0
    0.1297    1.1684   -1.0320 H   0  0  0  0  0  0  0  0  0  0  0  0
    3.7289    2.1030   -0.3059 H   0  0  0  0  0  0  0  0  0  0  0  0
    2.3597    2.6185   -1.4303 H   0  0  0  0  0  0  0  0  0  0  0  0
  1  2  1  0
  2  3  1  0
  3  4  1  0
  4  5  1  0
  5  6  1  0
  6  7  1  1
  6  8  1  0
  8  9  1  0
  9 10  1  0
  9 11  2  0
  6  2  1  0
  1 12  1  0
  1 13  1  0
  1 14  1  0
  2 15  1  1
  3 16  1  0
  4 17  1  0
  4 18  1  0
  5 19  1  0
  5 20  1  0
  7 21  1  0
  7 22  1  0
  8 23  1  0
  8 24  1  0
 10 25  1  0
 10 26  1  0
M  END
$$$$

     RDKit          3D

 26 26  0  0  0  0  0  0  0  0999 V2000
   -1.5188    1.6154   -0.8876 C   0  0  0  0  0  0  0  0  0  0  0  0
   -1.4063    0.3997   -0.0287 C   0  0  1  0  0  0  0  0  0  0  0  0
   -1.7092   -0.8335   -0.6842 N   0  0  0  0  0  0  0  0  0  0  0  0
   -1.2295   -1.8612    0.2070 C   0  0  0  0  0  0  0  0  0  0  0  0
   -0.2641   -1.1840    1.1761 C   0  0  0  0  0  0  0  0  0  0  0  0
   -0.0052    0.1211    0.4457 C   0  0  2  0  0  0  0  0  0  0  0  0
    0.5369    1.1327    1.2948 N   0  0  0  0  0  0  0  0  0  0  0  0
    0.8870   -0.2098   -0.7271 C   0  0  0  0  0  0  0  0  0  0  0  0
    2.2694   -0.4846   -0.2664 C   0  0  0  0  0  0  0  0  0  0  0  0
    3.2135    0.5652   -0.3837 N   0  0  0  0  0  0  0  0  0  0  0  0
    2.6489   -1.5771    0.2152 O   0  0  0  0  0  0  0  0  0  0  0  0
   -1.3495    2.5003   -0.2144 H   0  0  0  0  0  0  0  0  0  0  0  0
   -0.8257    1.6682   -1.7231 H   0  0  0  0  0  0  0  0  0  0  0  0
   -2.5988    1.6983   -1.1845 H   0  0  0  0  0  0  0  0  0  0  0  0
   -2.0599    0.5305    0.8493 H   0  0  0  0  0  0  0  0  0  0  0  0
   -2.6843   -0.9471   -0.9805 H   0  0  0  0  0  0  0  0  0  0  0  0
   -2.1135   -2.2667    0.7378 H   0  0  0  0  0  0  0  0  0  0  0  0
   -0.7038   -2.6828   -0.3125 H   0  0  0  0  0  0  0  0  0  0  0  0
    0.6279   -1.7675    1.3692 H   0  0  0  0  0  0  0  0  0  0  0  0
   -0.8538   -0.9257    2.0754 H   0  0  0  0  0  0  0  0  0  0  0  0
   -0.0981    1.2933    2.0802 H   0  0  0  0  0  0  0  0  0  0  0  0
    0.7548    1.9587    0.7128 H   0  0  0  0  0  0  0  0  0  0  0  0
    0.8424    0.5179   -1.5417 H   0  0  0  0  0  0  0  0  0  0  0  0
    0.5024   -1.1830   -1.1390 H   0  0  0  0  0  0  0  0  0  0  0  0
    3.9499    0.5390   -1.1122 H   0  0  0  0  0  0  0  0  0  0  0  0
    3.1877    1.3828    0.2576 H   0  0  0  0  0  0  0  0  0  0  0  0
  1  2  1  0
  2  3  1  0
  3  4  1  0
  4  5  1  0
  5  6  1  0
  6  7  1  1
  6  8  1  0
  8  9  1  0
  9 10  1  0
  9 11  2  0
  6  2  1  0
  1 12  1  0
  1 13  1  0
  1 14  1  0
  2 15  1  1
  3 16  1  0
  4 17  1  0
  4 18  1  0
  5 19  1  0
  5 20  1  0
  7 21  1  0
  7 22  1  0
  8 23  1  0
  8 24  1  0
 10 25  1  0
 10 26  1  0
M  END
$$$$

     RDKit          3D

 26 26  0  0  0  0  0  0  0  0999 V2000
   -2.0651   -0.3562   -1.2357 C   0  0  0  0  0  0  0  0  0  0  0  0
   -1.4191   -0.1039    0.0643 C   0  0  1  0  0  0  0  0  0  0  0  0
   -1.2044   -1.3008    0.8920 N   0  0  0  0  0  0  0  0  0  0  0  0
   -0.5633   -0.6836    2.0521 C   0  0  0  0  0  0  0  0  0  0  0  0
    0.1985    0.5202    1.5598 C   0  0  0  0  0  0  0  0  0  0  0  0
   -0.0138    0.4473    0.0387 C   0  0  2  0  0  0  0  0  0  0  0  0
    0.0166    1.7829   -0.5338 N   0  0  0  0  0  0  0  0  0  0  0  0
    0.9395   -0.4648   -0.6379 C   0  0  0  0  0  0  0  0  0  0  0  0
    2.3164    0.0433   -0.6951 C   0  0  0  0  0  0  0  0  0  0  0  0
    3.0433    0.0024   -1.8969 N   0  0  0  0  0  0  0  0  0  0  0  0
    2.8654    0.5226    0.3169 O   0  0  0  0  0  0  0  0  0  0  0  0
   -1.3361   -0.5436   -2.0221 H   0  0  0  0  0  0  0  0  0  0  0  0
   -2.7210    0.5154   -1.4828 H   0  0  0  0  0  0  0  0  0  0  0  0
   -2.7622   -1.2350   -1.1269 H   0  0  0  0  0  0  0  0  0  0  0  0
   -2.0629    0.5429    0.7475 H   0  0  0  0  0  0  0  0  0  0  0  0
   -2.1494   -1.6779    1.1975 H   0  0  0  0  0  0  0  0  0  0  0  0
   -1.3906   -0.3516    2.7209 H   0  0  0  0  0  0  0  0  0  0  0  0
    0.0442   -1.3838    2.6390 H   0  0  0  0  0  0  0  0  0  0  0  0
    1.2195    0.5775    1.8735 H   0  0  0  0  0  0  0  0  0  0  0  0
   -0.3575    1.4612    1.8513 H   0  0  0  0  0  0  0  0  0  0  0  0
   -0.8906    2.2844   -0.4420 H   0  0  0  0  0  0  0  0  0  0  0  0
    0.1261    1.6372   -1.5829 H   0  0  0  0  0  0  0  0  0  0  0  0
    0.9725   -1.4350   -0.0453 H   0  0  0  0  0  0  0  0  0  0  0  0
    0.5719   -0.7930   -1.6331 H   0  0  0  0  0  0  0  0  0  0  0  0
    3.4894    0.8682   -2.2559 H   0  0  0  0  0  0  0  0  0  0  0  0
    3.1327   -0.8762   -2.4258 H   0  0  0  0  0  0  0  0  0  0  0  0
  1  2  1  0
  2  3  1  0
  3  4  1  0
  4  5  1  0
  5  6  1  0
  6  7  1  6
  6  8  1  0
  8  9  1  0
  9 10  1  0
  9 11  2  0
  6  2  1  0
  1 12  1  0
  1 13  1  0
  1 14  1  0
  2 15  1  1
  3 16  1  0
  4 17  1  0
  4 18  1  0
  5 19  1  0
  5 20  1  0
  7 21  1  0
  7 22  1  0
  8 23  1  0
  8 24  1  0
 10 25  1  0
 10 26  1  0
M  END
$$$$

     RDKit          3D

 26 26  0  0  0  0  0  0  0  0999 V2000
   -0.9928   -0.2105   -1.8079 C   0  0  0  0  0  0  0  0  0  0  0  0
   -0.5682    0.7402   -0.7014 C   0  0  1  0  0  0  0  0  0  0  0  0
   -1.8322    1.2478   -0.1367 N   0  0  0  0  0  0  0  0  0  0  0  0
   -2.2758    0.3118    0.8390 C   0  0  0  0  0  0  0  0  0  0  0  0
   -1.2026   -0.7461    0.9852 C   0  0  0  0  0  0  0  0  0  0  0  0
    0.0115    0.0178    0.4578 C   0  0  2  0  0  0  0  0  0  0  0  0
    0.3732    0.9560    1.5025 N   0  0  0  0  0  0  0  0  0  0  0  0
    1.1731   -0.8591    0.1963 C   0  0  0  0  0  0  0  0  0  0  0  0
    2.2954   -0.0640   -0.3525 C   0  0  0  0  0  0  0  0  0  0  0  0
    3.5372   -0.6768   -0.7244 N   0  0  0  0  0  0  0  0  0  0  0  0
    2.1898    1.1764   -0.5083 O   0  0  0  0  0  0  0  0  0  0  0  0
   -1.3630    0.4319   -2.6438 H   0  0  0  0  0  0  0  0  0  0  0  0
   -1.8579   -0.8325   -1.5023 H   0  0  0  0  0  0  0  0  0  0  0  0
   -0.1576   -0.8026   -2.1989 H   0  0  0  0  0  0  0  0  0  0  0  0
    0.0138    1.5471   -1.1374 H   0  0  0  0  0  0  0  0  0  0  0  0
   -1.7473    2.2216    0.1749 H   0  0  0  0  0  0  0  0  0  0  0  0
   -3.2427   -0.1220    0.5038 H   0  0  0  0  0  0  0  0  0  0  0  0
   -2.4385    0.8633    1.7999 H   0  0  0  0  0  0  0  0  0  0  0  0
   -1.4001   -1.6549    0.4091 H   0  0  0  0  0  0  0  0  0  0  0  0
   -1.0382   -0.9860    2.0625 H   0  0  0  0  0  0  0  0  0  0  0  0
    0.2142    0.4664    2.4121 H   0  0  0  0  0  0  0  0  0  0  0  0
   -0.1915    1.8087    1.5069 H   0  0  0  0  0  0  0  0  0  0  0  0
    1.5723   -1.3388    1.1232 H   0  0  0  0  0  0  0  0  0  0  0  0
    0.9726   -1.6572   -0.5622 H   0  0  0  0  0  0  0  0  0  0  0  0
    4.2869   -0.1620   -1.2249 H   0  0  0  0  0  0  0  0  0  0  0  0
    3.6684   -1.6762   -0.4722 H   0  0  0  0  0  0  0  0  0  0  0  0
  1  2  1  0
  2  3  1  0
  3  4  1  0
  4  5  1  0
  5  6  1  0
  6  7  1  1
  6  8  1  0
  8  9  1  0
  9 10  1  0
  9 11  2  0
  6  2  1  0
  1 12  1  0
  1 13  1  0
  1 14  1  0
  2 15  1  6
  3 16  1  0
  4 17  1  0
  4 18  1  0
  5 19  1  0
  5 20  1  0
  7 21  1  0
  7 22  1  0
  8 23  1  0
  8 24  1  0
 10 25  1  0
 10 26  1  0
M  END
$$$$
