
     RDKit          3D

 33 35  0  0  0  0  0  0  0  0999 V2000
    4.4636    0.0349    0.3831 C   0  0  0  0  0  0  0  0  0  0  0  0
    3.1191    0.4093    0.0750 N   0  0  0  0  0  0  0  0  0  0  0  0
    2.4557   -0.4241   -0.9357 C   0  0  0  0  0  0  0  0  0  0  0  0
    1.2460   -0.2616   -0.1701 C   0  0  0  0  0  0  0  0  0  0  0  0
    2.1086   -0.1075    1.0100 C   0  0  0  0  0  0  0  0  0  0  0  0
    0.1125   -1.1824   -0.1754 C   0  0  0  0  0  0  0  0  0  0  0  0
   -0.6870   -0.0574    0.2554 N   0  0  0  0  0  0  0  0  0  0  0  0
   -2.0404    0.0010   -0.1715 C   0  0  0  0  0  0  0  0  0  0  0  0
   -2.7000    1.2522    0.3921 C   0  0  0  0  0  0  0  0  0  0  0  0
   -2.6603    1.2270    1.8610 N   0  0  0  0  0  0  0  0  0  0  0  0
   -2.3351   -0.1724   -1.6197 C   0  0  0  0  0  0  0  0  0  0  0  0
   -3.4654   -0.9358   -1.2501 O   0  0  0  0  0  0  0  0  0  0  0  0
   -2.8763   -1.2269   -0.0051 C   0  0  0  0  0  0  0  0  0  0  0  0
    0.2521    0.7919   -0.4895 C   0  0  0  0  0  0  0  0  0  0  0  0
    4.4897   -0.4900    1.3638 H   0  0  0  0  0  0  0  0  0  0  0  0
    4.9787   -0.5032   -0.4206 H   0  0  0  0  0  0  0  0  0  0  0  0
    5.0561    0.9805    0.5516 H   0  0  0  0  0  0  0  0  0  0  0  0
    2.8657   -1.4681   -0.9048 H   0  0  0  0  0  0  0  0  0  0  0  0
    2.4935    0.0183   -1.9513 H   0  0  0  0  0  0  0  0  0  0  0  0
    1.7184    0.6483    1.7169 H   0  0  0  0  0  0  0  0  0  0  0  0
    2.4210   -1.0035    1.5639 H   0  0  0  0  0  0  0  0  0  0  0  0
    0.0980   -2.0100    0.5656 H   0  0  0  0  0  0  0  0  0  0  0  0
   -0.1110   -1.5861   -1.1762 H   0  0  0  0  0  0  0  0  0  0  0  0
   -2.1067    2.1367    0.0845 H   0  0  0  0  0  0  0  0  0  0  0  0
   -3.7611    1.3175    0.0847 H   0  0  0  0  0  0  0  0  0  0  0  0
   -1.7651    1.6769    2.2140 H   0  0  0  0  0  0  0  0  0  0  0  0
   -3.5007    1.6456    2.2788 H   0  0  0  0  0  0  0  0  0  0  0  0
   -1.6746   -0.7950   -2.2195 H   0  0  0  0  0  0  0  0  0  0  0  0
   -2.6925    0.7634   -2.1278 H   0  0  0  0  0  0  0  0  0  0  0  0
   -3.6593   -1.0693    0.7782 H   0  0  0  0  0  0  0  0  0  0  0  0
   -2.3545   -2.1869    0.0419 H   0  0  0  0  0  0  0  0  0  0  0  0
    0.0441    0.8241   -1.5877 H   0  0  0  0  0  0  0  0  0  0  0  0
    0.4670    1.7526   -0.0155 H   0  0  0  0  0  0  0  0  0  0  0  0
  1  2  1  0
  2  3  1  0
  3  4  1  0
  4  5  1  0
  4  6  1  0
  6  7  1  0
  7  8  1  0
  8  9  1  0
  9 10  1  0
  8 11  1  0
 11 12  1  0
 12 13  1  0
  7 14  1  0
  5  2  1  0
 13  8  1  0
 14  4  1  0
  1 15  1  0
  1 16  1  0
  1 17  1  0
  3 18  1  0
  3 19  1  0
  5 20  1  0
  5 21  1  0
  6 22  1  0
  6 23  1  0
  9 24  1  0
  9 25  1  0
 10 26  1  0
 10 27  1  0
 11 28  1  0
 11 29  1  0
 13 30  1  0
 13 31  1  0
 14 32  1  0
 14 33  1  0
M  END
$$$$

     RDKit          3D

 33 35  0  0  0  0  0  0  0  0999 V2000
    4.3032    0.2866    0.0507 C   0  0  0  0  0  0  0  0  0  0  0  0
    2.9753   -0.0888   -0.2748 N   0  0  0  0  0  0  0  0  0  0  0  0
    1.9022    0.7264    0.3288 C   0  0  0  0  0  0  0  0  0  0  0  0
    1.0985   -0.4976    0.3345 C   0  0  0  0  0  0  0  0  0  0  0  0
    2.4039   -1.1961    0.5121 C   0  0  0  0  0  0  0  0  0  0  0  0
    0.2873   -0.8515   -0.8591 C   0  0  0  0  0  0  0  0  0  0  0  0
   -0.8289   -1.0963    0.0701 N   0  0  0  0  0  0  0  0  0  0  0  0
   -1.9054   -0.2341   -0.2837 C   0  0  0  0  0  0  0  0  0  0  0  0
   -1.7060    1.2422   -0.1622 C   0  0  0  0  0  0  0  0  0  0  0  0
   -2.9553    1.8941   -0.5870 N   0  0  0  0  0  0  0  0  0  0  0  0
   -2.2956   -0.5383   -1.7440 C   0  0  0  0  0  0  0  0  0  0  0  0
   -3.4855   -1.1079   -1.3477 O   0  0  0  0  0  0  0  0  0  0  0  0
   -3.2930   -0.7301   -0.0207 C   0  0  0  0  0  0  0  0  0  0  0  0
   -0.0167   -0.7330    1.2296 C   0  0  0  0  0  0  0  0  0  0  0  0
    4.3964    1.4037    0.0086 H   0  0  0  0  0  0  0  0  0  0  0  0
    4.9702   -0.0950   -0.7648 H   0  0  0  0  0  0  0  0  0  0  0  0
    4.5742   -0.1081    1.0281 H   0  0  0  0  0  0  0  0  0  0  0  0
    2.1841    1.0745    1.3474 H   0  0  0  0  0  0  0  0  0  0  0  0
    1.5551    1.5374   -0.3419 H   0  0  0  0  0  0  0  0  0  0  0  0
    2.8058   -1.2460    1.5239 H   0  0  0  0  0  0  0  0  0  0  0  0
    2.4122   -2.1455   -0.0758 H   0  0  0  0  0  0  0  0  0  0  0  0
    0.6569   -1.7750   -1.3445 H   0  0  0  0  0  0  0  0  0  0  0  0
    0.1596   -0.0049   -1.5400 H   0  0  0  0  0  0  0  0  0  0  0  0
   -0.9225    1.6226   -0.8092 H   0  0  0  0  0  0  0  0  0  0  0  0
   -1.4692    1.5771    0.8808 H   0  0  0  0  0  0  0  0  0  0  0  0
   -3.1040    2.7403    0.0449 H   0  0  0  0  0  0  0  0  0  0  0  0
   -2.8599    2.3068   -1.5564 H   0  0  0  0  0  0  0  0  0  0  0  0
   -2.4139    0.3492   -2.3821 H   0  0  0  0  0  0  0  0  0  0  0  0
   -1.6361   -1.2595   -2.2476 H   0  0  0  0  0  0  0  0  0  0  0  0
   -4.0013    0.0891    0.2432 H   0  0  0  0  0  0  0  0  0  0  0  0
   -3.3711   -1.5907    0.6648 H   0  0  0  0  0  0  0  0  0  0  0  0
    0.0626   -1.6339    1.9087 H   0  0  0  0  0  0  0  0  0  0  0  0
   -0.4833    0.0824    1.7831 H   0  0  0  0  0  0  0  0  0  0  0  0
  1  2  1  0
  2  3  1  0
  3  4  1  0
  4  5  1  0
  4  6  1  0
  6  7  1  0
  7  8  1  0
  8  9  1  0
  9 10  1  0
  8 11  1  0
 11 12  1  0
 12 13  1  0
  7 14  1  0
  5  2  1  0
 13  8  1  0
 14  4  1  0
  1 15  1  0
  1 16  1  0
  1 17  1  0
  3 18  1  0
  3 19  1  0
  5 20  1  0
  5 21  1  0
  6 22  1  0
  6 23  1  0
  9 24  1  0
  9 25  1  0
 10 26  1  0
 10 27  1  0
 11 28  1  0
 11 29  1  0
 13 30  1  0
 13 31  1  0
 14 32  1  0
 14 33  1  0
M  END
$$$$

     RDKit          3D

 33 35  0  0  0  0  0  0  0  0999 V2000
    4.6279   -0.1742   -0.3764 C   0  0  0  0  0  0  0  0  0  0  0  0
    3.3416    0.2900    0.0090 N   0  0  0  0  0  0  0  0  0  0  0  0
    2.3274    0.2577   -1.0502 C   0  0  0  0  0  0  0  0  0  0  0  0
    1.3594   -0.1357   -0.0345 C   0  0  0  0  0  0  0  0  0  0  0  0
    2.5039   -0.6655    0.7259 C   0  0  0  0  0  0  0  0  0  0  0  0
    0.4529    0.8638    0.5776 C   0  0  0  0  0  0  0  0  0  0  0  0
   -0.5391   -0.1534    0.6473 N   0  0  0  0  0  0  0  0  0  0  0  0
   -1.8875    0.1036    0.3877 C   0  0  0  0  0  0  0  0  0  0  0  0
   -2.6689   -0.8783   -0.4337 C   0  0  0  0  0  0  0  0  0  0  0  0
   -4.0613   -0.4102   -0.5504 N   0  0  0  0  0  0  0  0  0  0  0  0
   -2.6689    0.5936    1.5687 C   0  0  0  0  0  0  0  0  0  0  0  0
   -3.4425    1.3302    0.6523 O   0  0  0  0  0  0  0  0  0  0  0  0
   -2.2542    1.5128   -0.0541 C   0  0  0  0  0  0  0  0  0  0  0  0
    0.1951   -0.9743   -0.3328 C   0  0  0  0  0  0  0  0  0  0  0  0
    5.0531   -0.9872    0.2638 H   0  0  0  0  0  0  0  0  0  0  0  0
    4.7148   -0.4637   -1.4479 H   0  0  0  0  0  0  0  0  0  0  0  0
    5.3527    0.6824   -0.2581 H   0  0  0  0  0  0  0  0  0  0  0  0
    2.5729   -0.5431   -1.7796 H   0  0  0  0  0  0  0  0  0  0  0  0
    2.2036    1.2477   -1.5452 H   0  0  0  0  0  0  0  0  0  0  0  0
    2.7143   -1.7285    0.4411 H   0  0  0  0  0  0  0  0  0  0  0  0
    2.5125   -0.4838    1.8088 H   0  0  0  0  0  0  0  0  0  0  0  0
    0.8119    1.1035    1.6202 H   0  0  0  0  0  0  0  0  0  0  0  0
    0.3164    1.7279   -0.0561 H   0  0  0  0  0  0  0  0  0  0  0  0
   -2.3048   -0.9352   -1.4872 H   0  0  0  0  0  0  0  0  0  0  0  0
   -2.7143   -1.8931   -0.0247 H   0  0  0  0  0  0  0  0  0  0  0  0
   -4.4899   -0.6181   -1.4559 H   0  0  0  0  0  0  0  0  0  0  0  0
   -4.6196   -0.8319    0.2420 H   0  0  0  0  0  0  0  0  0  0  0  0
   -2.1280    1.3080    2.2304 H   0  0  0  0  0  0  0  0  0  0  0  0
   -3.3121   -0.1339    2.0721 H   0  0  0  0  0  0  0  0  0  0  0  0
   -1.6642    2.3058    0.4307 H   0  0  0  0  0  0  0  0  0  0  0  0
   -2.3572    1.6517   -1.1564 H   0  0  0  0  0  0  0  0  0  0  0  0
    0.2428   -2.0580   -0.0209 H   0  0  0  0  0  0  0  0  0  0  0  0
   -0.1909   -0.9106   -1.3583 H   0  0  0  0  0  0  0  0  0  0  0  0
  1  2  1  0
  2  3  1  0
  3  4  1  0
  4  5  1  0
  4  6  1  0
  6  7  1  0
  7  8  1  0
  8  9  1  0
  9 10  1  0
  8 11  1  0
 11 12  1  0
 12 13  1  0
  7 14  1  0
  5  2  1  0
 13  8  1  0
 14  4  1  0
  1 15  1  0
  1 16  1  0
  1 17  1  0
  3 18  1  0
  3 19  1  0
  5 20  1  0
  5 21  1  0
  6 22  1  0
  6 23  1  0
  9 24  1  0
  9 25  1  0
 10 26  1  0
 10 27  1  0
 11 28  1  0
 11 29  1  0
 13 30  1  0
 13 31  1  0
 14 32  1  0
 14 33  1  0
M  END
$$$$

     RDKit          3D

 33 35  0  0  0  0  0  0  0  0999 V2000
    4.5979    0.1368   -0.2946 C   0  0  0  0  0  0  0  0  0  0  0  0
    3.3692    0.0887    0.4368 N   0  0  0  0  0  0  0  0  0  0  0  0
    2.4546   -0.9977    0.0352 C   0  0  0  0  0  0  0  0  0  0  0  0
    1.3752   -0.0295    0.0483 C   0  0  0  0  0  0  0  0  0  0  0  0
    2.3540    1.0718    0.0171 C   0  0  0  0  0  0  0  0  0  0  0  0
    0.2482   -0.0548   -0.8866 C   0  0  0  0  0  0  0  0  0  0  0  0
   -0.5597    0.5356    0.1481 N   0  0  0  0  0  0  0  0  0  0  0  0
   -1.9287    0.2290    0.2151 C   0  0  0  0  0  0  0  0  0  0  0  0
   -2.3456   -1.1939    0.4638 C   0  0  0  0  0  0  0  0  0  0  0  0
   -3.8040   -1.2062    0.4809 N   0  0  0  0  0  0  0  0  0  0  0  0
   -2.7233    0.9073   -0.8512 C   0  0  0  0  0  0  0  0  0  0  0  0
   -3.3478    1.7413    0.0811 O   0  0  0  0  0  0  0  0  0  0  0  0
   -2.6458    1.2030    1.1574 C   0  0  0  0  0  0  0  0  0  0  0  0
    0.3414   -0.0519    1.1208 C   0  0  0  0  0  0  0  0  0  0  0  0
    4.6137    1.0918   -0.8702 H   0  0  0  0  0  0  0  0  0  0  0  0
    4.7632   -0.7313   -0.9656 H   0  0  0  0  0  0  0  0  0  0  0  0
    5.4273    0.2467    0.4604 H   0  0  0  0  0  0  0  0  0  0  0  0
    2.8210   -1.4088   -0.9190 H   0  0  0  0  0  0  0  0  0  0  0  0
    2.4734   -1.7825    0.8322 H   0  0  0  0  0  0  0  0  0  0  0  0
    2.5548    1.4800   -0.9951 H   0  0  0  0  0  0  0  0  0  0  0  0
    2.1722    1.8725    0.7358 H   0  0  0  0  0  0  0  0  0  0  0  0
   -0.0681   -1.0784   -1.2170 H   0  0  0  0  0  0  0  0  0  0  0  0
    0.3677    0.5908   -1.7912 H   0  0  0  0  0  0  0  0  0  0  0  0
   -2.0041   -1.7979   -0.4137 H   0  0  0  0  0  0  0  0  0  0  0  0
   -1.9023   -1.6368    1.3530 H   0  0  0  0  0  0  0  0  0  0  0  0
   -4.2136   -1.3631   -0.4639 H   0  0  0  0  0  0  0  0  0  0  0  0
   -4.1787   -1.8545    1.2090 H   0  0  0  0  0  0  0  0  0  0  0  0
   -3.4821    0.3108   -1.3780 H   0  0  0  0  0  0  0  0  0  0  0  0
   -2.1613    1.5324   -1.5706 H   0  0  0  0  0  0  0  0  0  0  0  0
   -1.9716    1.9118    1.6755 H   0  0  0  0  0  0  0  0  0  0  0  0
   -3.3097    0.6624    1.8616 H   0  0  0  0  0  0  0  0  0  0  0  0
    0.1068   -1.0602    1.4633 H   0  0  0  0  0  0  0  0  0  0  0  0
    0.6057    0.6348    1.9452 H   0  0  0  0  0  0  0  0  0  0  0  0
  1  2  1  0
  2  3  1  0
  3  4  1  0
  4  5  1  0
  4  6  1  0
  6  7  1  0
  7  8  1  0
  8  9  1  0
  9 10  1  0
  8 11  1  0
 11 12  1  0
 12 13  1  0
  7 14  1  0
  5  2  1  0
 13  8  1  0
 14  4  1  0
  1 15  1  0
  1 16  1  0
  1 17  1  0
  3 18  1  0
  3 19  1  0
  5 20  1  0
  5 21  1  0
  6 22  1  0
  6 23  1  0
  9 24  1  0
  9 25  1  0
 10 26  1  0
 10 27  1  0
 11 28  1  0
 11 29  1  0
 13 30  1  0
 13 31  1  0
 14 32  1  0
 14 33  1  0
M  END
$$$$

     RDKit          3D

 33 35  0  0  0  0  0  0  0  0999 V2000
    3.8400    0.4917    0.6026 C   0  0  0  0  0  0  0  0  0  0  0  0
    3.4731   -0.5372   -0.3314 N   0  0  0  0  0  0  0  0  0  0  0  0
    2.5446    0.0331   -1.3242 C   0  0  0  0  0  0  0  0  0  0  0  0
    1.4417   -0.4567   -0.4920 C   0  0  0  0  0  0  0  0  0  0  0  0
    2.3628   -1.3562    0.1914 C   0  0  0  0  0  0  0  0  0  0  0  0
    0.1924   -0.9399   -1.1021 C   0  0  0  0  0  0  0  0  0  0  0  0
   -0.4714    0.2213   -0.6131 N   0  0  0  0  0  0  0  0  0  0  0  0
   -1.7748    0.1465   -0.1108 C   0  0  0  0  0  0  0  0  0  0  0  0
   -2.2511    1.4736    0.4278 C   0  0  0  0  0  0  0  0  0  0  0  0
   -3.5697    1.4495    0.9499 N   0  0  0  0  0  0  0  0  0  0  0  0
   -2.7345   -0.3579   -1.1979 C   0  0  0  0  0  0  0  0  0  0  0  0
   -3.3164   -1.1464   -0.2398 O   0  0  0  0  0  0  0  0  0  0  0  0
   -2.2393   -1.0188    0.6551 C   0  0  0  0  0  0  0  0  0  0  0  0
    0.6158    0.5052    0.2839 C   0  0  0  0  0  0  0  0  0  0  0  0
    3.4707    0.3045    1.6356 H   0  0  0  0  0  0  0  0  0  0  0  0
    4.9411    0.6253    0.6427 H   0  0  0  0  0  0  0  0  0  0  0  0
    3.4333    1.5002    0.3291 H   0  0  0  0  0  0  0  0  0  0  0  0
    2.6438   -0.5086   -2.2838 H   0  0  0  0  0  0  0  0  0  0  0  0
    2.6712    1.1328   -1.4293 H   0  0  0  0  0  0  0  0  0  0  0  0
    2.4207   -2.3642   -0.2618 H   0  0  0  0  0  0  0  0  0  0  0  0
    2.3444   -1.3891    1.3116 H   0  0  0  0  0  0  0  0  0  0  0  0
    0.2502   -1.0081   -2.2229 H   0  0  0  0  0  0  0  0  0  0  0  0
   -0.1687   -1.9210   -0.7304 H   0  0  0  0  0  0  0  0  0  0  0  0
   -1.5629    1.8835    1.1733 H   0  0  0  0  0  0  0  0  0  0  0  0
   -2.2392    2.1845   -0.4432 H   0  0  0  0  0  0  0  0  0  0  0  0
   -3.6436    1.2852    1.9700 H   0  0  0  0  0  0  0  0  0  0  0  0
   -4.2901    1.0096    0.3790 H   0  0  0  0  0  0  0  0  0  0  0  0
   -3.3431    0.4625   -1.6074 H   0  0  0  0  0  0  0  0  0  0  0  0
   -2.2148   -0.8860   -2.0216 H   0  0  0  0  0  0  0  0  0  0  0  0
   -2.6644   -0.7701    1.6570 H   0  0  0  0  0  0  0  0  0  0  0  0
   -1.6058   -1.9069    0.7341 H   0  0  0  0  0  0  0  0  0  0  0  0
    0.4320    0.3091    1.3395 H   0  0  0  0  0  0  0  0  0  0  0  0
    1.0123    1.5489    0.1392 H   0  0  0  0  0  0  0  0  0  0  0  0
  1  2  1  0
  2  3  1  0
  3  4  1  0
  4  5  1  0
  4  6  1  0
  6  7  1  0
  7  8  1  0
  8  9  1  0
  9 10  1  0
  8 11  1  0
 11 12  1  0
 12 13  1  0
  7 14  1  0
  5  2  1  0
 13  8  1  0
 14  4  1  0
  1 15  1  0
  1 16  1  0
  1 17  1  0
  3 18  1  0
  3 19  1  0
  5 20  1  0
  5 21  1  0
  6 22  1  0
  6 23  1  0
  9 24  1  0
  9 25  1  0
 10 26  1  0
 10 27  1  0
 11 28  1  0
 11 29  1  0
 13 30  1  0
 13 31  1  0
 14 32  1  0
 14 33  1  0
M  END
$$$$

     RDKit          3D

 33 35  0  0  0  0  0  0  0  0999 V2000
    4.2165    0.2870   -0.2760 C   0  0  0  0  0  0  0  0  0  0  0  0
    3.4187   -0.8358    0.1476 N   0  0  0  0  0  0  0  0  0  0  0  0
    2.5230   -0.5621    1.2886 C   0  0  0  0  0  0  0  0  0  0  0  0
    1.4280   -0.4829    0.3530 C   0  0  0  0  0  0  0  0  0  0  0  0
    2.2614   -0.9788   -0.7567 C   0  0  0  0  0  0  0  0  0  0  0  0
    0.1083   -1.1247    0.5918 C   0  0  0  0  0  0  0  0  0  0  0  0
   -0.4379   -0.0744   -0.2467 N   0  0  0  0  0  0  0  0  0  0  0  0
   -1.7795    0.2904   -0.0782 C   0  0  0  0  0  0  0  0  0  0  0  0
   -2.6853   -0.8974   -0.4137 C   0  0  0  0  0  0  0  0  0  0  0  0
   -4.0633   -0.6295   -0.2759 N   0  0  0  0  0  0  0  0  0  0  0  0
   -2.1903    1.0429    1.1515 C   0  0  0  0  0  0  0  0  0  0  0  0
   -1.8793    2.2385    0.5154 O   0  0  0  0  0  0  0  0  0  0  0  0
   -2.2257    1.5934   -0.6924 C   0  0  0  0  0  0  0  0  0  0  0  0
    0.6300    0.7689    0.1904 C   0  0  0  0  0  0  0  0  0  0  0  0
    3.7987    0.7883   -1.1884 H   0  0  0  0  0  0  0  0  0  0  0  0
    5.2680   -0.0073   -0.5369 H   0  0  0  0  0  0  0  0  0  0  0  0
    4.3134    0.9963    0.5804 H   0  0  0  0  0  0  0  0  0  0  0  0
    2.5690   -1.4272    2.0036 H   0  0  0  0  0  0  0  0  0  0  0  0
    2.8390    0.4118    1.7587 H   0  0  0  0  0  0  0  0  0  0  0  0
    2.2817   -0.3410   -1.6406 H   0  0  0  0  0  0  0  0  0  0  0  0
    2.0578   -2.0588   -0.9958 H   0  0  0  0  0  0  0  0  0  0  0  0
   -0.0008   -2.1095    0.0833 H   0  0  0  0  0  0  0  0  0  0  0  0
   -0.1575   -1.1167    1.6475 H   0  0  0  0  0  0  0  0  0  0  0  0
   -2.4418   -1.3148   -1.3913 H   0  0  0  0  0  0  0  0  0  0  0  0
   -2.4211   -1.6719    0.3607 H   0  0  0  0  0  0  0  0  0  0  0  0
   -4.5280   -0.8214    0.6062 H   0  0  0  0  0  0  0  0  0  0  0  0
   -4.5423   -0.0969   -0.9967 H   0  0  0  0  0  0  0  0  0  0  0  0
   -3.3108    0.9816    1.2761 H   0  0  0  0  0  0  0  0  0  0  0  0
   -1.6916    0.8202    2.0932 H   0  0  0  0  0  0  0  0  0  0  0  0
   -3.3242    1.6552   -0.8099 H   0  0  0  0  0  0  0  0  0  0  0  0
   -1.6182    2.0003   -1.5001 H   0  0  0  0  0  0  0  0  0  0  0  0
    1.0974    1.4181   -0.5829 H   0  0  0  0  0  0  0  0  0  0  0  0
    0.4869    1.2583    1.1785 H   0  0  0  0  0  0  0  0  0  0  0  0
  1  2  1  0
  2  3  1  0
  3  4  1  0
  4  5  1  0
  4  6  1  0
  6  7  1  0
  7  8  1  0
  8  9  1  0
  9 10  1  0
  8 11  1  0
 11 12  1  0
 12 13  1  0
  7 14  1  0
  5  2  1  0
 13  8  1  0
 14  4  1  0
  1 15  1  0
  1 16  1  0
  1 17  1  0
  3 18  1  0
  3 19  1  0
  5 20  1  0
  5 21  1  0
  6 22  1  0
  6 23  1  0
  9 24  1  0
  9 25  1  0
 10 26  1  0
 10 27  1  0
 11 28  1  0
 11 29  1  0
 13 30  1  0
 13 31  1  0
 14 32  1  0
 14 33  1  0
M  END
$$$$

     RDKit          3D

 33 35  0  0  0  0  0  0  0  0999 V2000
    4.3374    0.0791    0.1303 C   0  0  0  0  0  0  0  0  0  0  0  0
    3.2187   -0.5843    0.7656 N   0  0  0  0  0  0  0  0  0  0  0  0
    2.1791    0.4161    1.0654 C   0  0  0  0  0  0  0  0  0  0  0  0
    1.2800   -0.3523    0.1923 C   0  0  0  0  0  0  0  0  0  0  0  0
    2.3272   -1.2632   -0.1905 C   0  0  0  0  0  0  0  0  0  0  0  0
   -0.0243   -0.8347    0.7394 C   0  0  0  0  0  0  0  0  0  0  0  0
   -0.5544    0.4295    0.2633 N   0  0  0  0  0  0  0  0  0  0  0  0
   -1.8975    0.5382   -0.0738 C   0  0  0  0  0  0  0  0  0  0  0  0
   -2.4921   -0.2517   -1.1743 C   0  0  0  0  0  0  0  0  0  0  0  0
   -2.4012   -1.6813   -1.0001 N   0  0  0  0  0  0  0  0  0  0  0  0
   -2.3513    1.9977   -0.0986 C   0  0  0  0  0  0  0  0  0  0  0  0
   -3.5063    1.6260    0.5560 O   0  0  0  0  0  0  0  0  0  0  0  0
   -2.7876    0.5885    1.1457 C   0  0  0  0  0  0  0  0  0  0  0  0
    0.4313    0.3459   -0.7969 C   0  0  0  0  0  0  0  0  0  0  0  0
    4.9153   -0.6331   -0.4903 H   0  0  0  0  0  0  0  0  0  0  0  0
    3.9425    0.9032   -0.5126 H   0  0  0  0  0  0  0  0  0  0  0  0
    4.9739    0.4725    0.9499 H   0  0  0  0  0  0  0  0  0  0  0  0
    1.8409    0.3925    2.1285 H   0  0  0  0  0  0  0  0  0  0  0  0
    2.3885    1.4209    0.6824 H   0  0  0  0  0  0  0  0  0  0  0  0
    2.2764   -2.3334    0.0844 H   0  0  0  0  0  0  0  0  0  0  0  0
    2.7251   -1.1504   -1.2212 H   0  0  0  0  0  0  0  0  0  0  0  0
   -0.3591   -1.7332    0.2118 H   0  0  0  0  0  0  0  0  0  0  0  0
   -0.0877   -0.9331    1.8507 H   0  0  0  0  0  0  0  0  0  0  0  0
   -2.1087   -0.0015   -2.1806 H   0  0  0  0  0  0  0  0  0  0  0  0
   -3.5955   -0.0134   -1.2125 H   0  0  0  0  0  0  0  0  0  0  0  0
   -3.0364   -2.1046   -1.7391 H   0  0  0  0  0  0  0  0  0  0  0  0
   -2.7328   -1.9689   -0.0468 H   0  0  0  0  0  0  0  0  0  0  0  0
   -1.6882    2.6492    0.4793 H   0  0  0  0  0  0  0  0  0  0  0  0
   -2.4932    2.3884   -1.1343 H   0  0  0  0  0  0  0  0  0  0  0  0
   -3.3526   -0.3221    1.3718 H   0  0  0  0  0  0  0  0  0  0  0  0
   -2.2372    0.9797    2.0351 H   0  0  0  0  0  0  0  0  0  0  0  0
    0.7788    1.3123   -1.1867 H   0  0  0  0  0  0  0  0  0  0  0  0
    0.0909   -0.3784   -1.5934 H   0  0  0  0  0  0  0  0  0  0  0  0
  1  2  1  0
  2  3  1  0
  3  4  1  0
  4  5  1  0
  4  6  1  0
  6  7  1  0
  7  8  1  0
  8  9  1  0
  9 10  1  0
  8 11  1  0
 11 12  1  0
 12 13  1  0
  7 14  1  0
  5  2  1  0
 13  8  1  0
 14  4  1  0
  1 15  1  0
  1 16  1  0
  1 17  1  0
  3 18  1  0
  3 19  1  0
  5 20  1  0
  5 21  1  0
  6 22  1  0
  6 23  1  0
  9 24  1  0
  9 25  1  0
 10 26  1  0
 10 27  1  0
 11 28  1  0
 11 29  1  0
 13 30  1  0
 13 31  1  0
 14 32  1  0
 14 33  1  0
M  END
$$$$

     RDKit          3D

 33 35  0  0  0  0  0  0  0  0999 V2000
   -4.5829    0.3878    0.3813 C   0  0  0  0  0  0  0  0  0  0  0  0
   -3.2129    0.5530    0.0229 N   0  0  0  0  0  0  0  0  0  0  0  0
   -2.5612   -0.6267   -0.5767 C   0  0  0  0  0  0  0  0  0  0  0  0
   -1.3526   -0.2214    0.1159 C   0  0  0  0  0  0  0  0  0  0  0  0
   -2.2490    0.3685    1.1250 C   0  0  0  0  0  0  0  0  0  0  0  0
   -0.3313    0.6379   -0.5314 C   0  0  0  0  0  0  0  0  0  0  0  0
    0.6204    0.0293    0.4189 N   0  0  0  0  0  0  0  0  0  0  0  0
    1.9024   -0.0572   -0.1175 C   0  0  0  0  0  0  0  0  0  0  0  0
    2.4886    1.3045   -0.4330 C   0  0  0  0  0  0  0  0  0  0  0  0
    3.8145    1.1955   -0.9865 N   0  0  0  0  0  0  0  0  0  0  0  0
    2.3210   -1.1083   -1.0623 C   0  0  0  0  0  0  0  0  0  0  0  0
    3.5467   -1.1877   -0.3577 O   0  0  0  0  0  0  0  0  0  0  0  0
    2.8303   -0.8444    0.8006 C   0  0  0  0  0  0  0  0  0  0  0  0
   -0.2575   -1.1088    0.4721 C   0  0  0  0  0  0  0  0  0  0  0  0
   -5.0946    1.3653    0.1664 H   0  0  0  0  0  0  0  0  0  0  0  0
   -4.7199    0.1904    1.4658 H   0  0  0  0  0  0  0  0  0  0  0  0
   -5.0816   -0.3880   -0.2237 H   0  0  0  0  0  0  0  0  0  0  0  0
   -3.0317   -1.5306   -0.0883 H   0  0  0  0  0  0  0  0  0  0  0  0
   -2.6091   -0.6711   -1.6672 H   0  0  0  0  0  0  0  0  0  0  0  0
   -2.6847   -0.3694    1.8433 H   0  0  0  0  0  0  0  0  0  0  0  0
   -1.8688    1.2999    1.5553 H   0  0  0  0  0  0  0  0  0  0  0  0
   -0.3926    1.7222   -0.2645 H   0  0  0  0  0  0  0  0  0  0  0  0
   -0.1059    0.4051   -1.5807 H   0  0  0  0  0  0  0  0  0  0  0  0
    2.5565    1.8885    0.5161 H   0  0  0  0  0  0  0  0  0  0  0  0
    1.8356    1.8489   -1.1550 H   0  0  0  0  0  0  0  0  0  0  0  0
    3.8541    1.6706   -1.9173 H   0  0  0  0  0  0  0  0  0  0  0  0
    4.5115    1.5284   -0.3044 H   0  0  0  0  0  0  0  0  0  0  0  0
    2.5729   -0.7540   -2.0995 H   0  0  0  0  0  0  0  0  0  0  0  0
    1.8519   -2.0844   -1.0415 H   0  0  0  0  0  0  0  0  0  0  0  0
    3.3969   -0.2151    1.5055 H   0  0  0  0  0  0  0  0  0  0  0  0
    2.3574   -1.7516    1.2162 H   0  0  0  0  0  0  0  0  0  0  0  0
   -0.2849   -1.6259    1.4592 H   0  0  0  0  0  0  0  0  0  0  0  0
   -0.0397   -1.8514   -0.3413 H   0  0  0  0  0  0  0  0  0  0  0  0
  1  2  1  0
  2  3  1  0
  3  4  1  0
  4  5  1  0
  4  6  1  0
  6  7  1  0
  7  8  1  0
  8  9  1  0
  9 10  1  0
  8 11  1  0
 11 12  1  0
 12 13  1  0
  7 14  1  0
  5  2  1  0
 13  8  1  0
 14  4  1  0
  1 15  1  0
  1 16  1  0
  1 17  1  0
  3 18  1  0
  3 19  1  0
  5 20  1  0
  5 21  1  0
  6 22  1  0
  6 23  1  0
  9 24  1  0
  9 25  1  0
 10 26  1  0
 10 27  1  0
 11 28  1  0
 11 29  1  0
 13 30  1  0
 13 31  1  0
 14 32  1  0
 14 33  1  0
M  END
$$$$
