
     RDKit          3D

 23 23  0  0  0  0  0  0  0  0999 V2000
   -2.2315    0.3532   -1.6769 N   0  0  0  0  0  0  0  0  0  0  0  0
   -2.0218   -0.5570   -0.6313 C   0  0  2  0  0  0  0  0  0  0  0  0
   -3.0850   -0.3131    0.4459 C   0  0  0  0  0  0  0  0  0  0  0  0
   -2.9713    0.9739    0.9118 O   0  0  0  0  0  0  0  0  0  0  0  0
   -0.6751   -0.6041   -0.0729 C   0  0  0  0  0  0  0  0  0  0  0  0
   -0.4472   -1.4125    0.8716 O   0  0  0  0  0  0  0  0  0  0  0  0
    0.4226    0.1900   -0.5016 N   0  0  0  0  0  0  0  0  0  0  0  0
    1.7134    0.0953    0.0863 C   0  0  0  0  0  0  0  0  0  0  0  0
    2.7726    0.8583   -0.3238 C   0  0  0  0  0  0  0  0  0  0  0  0
    3.9890    0.6711    0.3341 C   0  0  0  0  0  0  0  0  0  0  0  0
    4.1345   -0.2184    1.3335 N   0  0  0  0  0  0  0  0  0  0  0  0
    3.0799   -0.9445    1.7064 C   0  0  0  0  0  0  0  0  0  0  0  0
    1.8996   -0.7804    1.0864 N   0  0  0  0  0  0  0  0  0  0  0  0
   -1.7484    1.2306   -1.6863 H   0  0  0  0  0  0  0  0  0  0  0  0
   -2.8955    0.1248   -2.4005 H   0  0  0  0  0  0  0  0  0  0  0  0
   -2.2550   -1.5934   -1.0186 H   0  0  0  0  0  0  0  0  0  0  0  0
   -2.9248   -1.0943    1.2164 H   0  0  0  0  0  0  0  0  0  0  0  0
   -4.0583   -0.5226   -0.0565 H   0  0  0  0  0  0  0  0  0  0  0  0
   -3.5560    1.5487    0.3399 H   0  0  0  0  0  0  0  0  0  0  0  0
    0.2176    0.8587   -1.2891 H   0  0  0  0  0  0  0  0  0  0  0  0
    2.6702    1.5738   -1.1223 H   0  0  0  0  0  0  0  0  0  0  0  0
    4.8521    1.2430    0.0529 H   0  0  0  0  0  0  0  0  0  0  0  0
    3.1186   -1.6809    2.5028 H   0  0  0  0  0  0  0  0  0  0  0  0
  1  2  1  0
  2  3  1  0
  3  4  1  0
  2  5  1  0
  5  6  2  0
  5  7  1  0
  7  8  1  0
  8  9  2  0
  9 10  1  0
 10 11  2  0
 11 12  1  0
 12 13  2  0
 13  8  1  0
  1 14  1  0
  1 15  1  0
  2 16  1  6
  3 17  1  0
  3 18  1  0
  4 19  1  0
  7 20  1  0
  9 21  1  0
 10 22  1  0
 12 23  1  0
M  END
$$$$

     RDKit          3D

 23 23  0  0  0  0  0  0  0  0999 V2000
   -2.2759   -0.5728    1.5001 N   0  0  0  0  0  0  0  0  0  0  0  0
   -2.1730    0.1085    0.2462 C   0  0  2  0  0  0  0  0  0  0  0  0
   -2.9612   -0.6704   -0.7884 C   0  0  0  0  0  0  0  0  0  0  0  0
   -2.8830   -0.0326   -2.0301 O   0  0  0  0  0  0  0  0  0  0  0  0
   -0.7785    0.3413   -0.1793 C   0  0  0  0  0  0  0  0  0  0  0  0
   -0.5537    0.9274   -1.2579 O   0  0  0  0  0  0  0  0  0  0  0  0
    0.3088   -0.0948    0.6260 N   0  0  0  0  0  0  0  0  0  0  0  0
    1.6691    0.1144    0.2440 C   0  0  0  0  0  0  0  0  0  0  0  0
    2.6814   -0.3304    1.0649 C   0  0  0  0  0  0  0  0  0  0  0  0
    4.0061   -0.1277    0.6950 C   0  0  0  0  0  0  0  0  0  0  0  0
    4.2575    0.4945   -0.4499 N   0  0  0  0  0  0  0  0  0  0  0  0
    3.2711    0.9310   -1.2557 C   0  0  0  0  0  0  0  0  0  0  0  0
    2.0028    0.7355   -0.8987 N   0  0  0  0  0  0  0  0  0  0  0  0
   -1.9603   -0.0181    2.3165 H   0  0  0  0  0  0  0  0  0  0  0  0
   -3.1769   -1.0518    1.6284 H   0  0  0  0  0  0  0  0  0  0  0  0
   -2.6560    1.1203    0.3340 H   0  0  0  0  0  0  0  0  0  0  0  0
   -4.0341   -0.6607   -0.5069 H   0  0  0  0  0  0  0  0  0  0  0  0
   -2.5524   -1.6787   -0.8712 H   0  0  0  0  0  0  0  0  0  0  0  0
   -2.9708    0.9316   -1.9331 H   0  0  0  0  0  0  0  0  0  0  0  0
    0.0652   -0.5771    1.5134 H   0  0  0  0  0  0  0  0  0  0  0  0
    2.4678   -0.8351    1.9936 H   0  0  0  0  0  0  0  0  0  0  0  0
    4.7736   -0.4899    1.3633 H   0  0  0  0  0  0  0  0  0  0  0  0
    3.4722    1.4356   -2.1840 H   0  0  0  0  0  0  0  0  0  0  0  0
  1  2  1  0
  2  3  1  0
  3  4  1  0
  2  5  1  0
  5  6  2  0
  5  7  1  0
  7  8  1  0
  8  9  2  0
  9 10  1  0
 10 11  2  0
 11 12  1  0
 12 13  2  0
 13  8  1  0
  1 14  1  0
  1 15  1  0
  2 16  1  1
  3 17  1  0
  3 18  1  0
  4 19  1  0
  7 20  1  0
  9 21  1  0
 10 22  1  0
 12 23  1  0
M  END
$$$$

     RDKit          3D

 23 23  0  0  0  0  0  0  0  0999 V2000
   -2.6450   -2.0329   -0.3178 N   0  0  0  0  0  0  0  0  0  0  0  0
   -2.0229   -0.9659    0.4410 C   0  0  2  0  0  0  0  0  0  0  0  0
   -2.8198    0.2973    0.1308 C   0  0  0  0  0  0  0  0  0  0  0  0
   -2.3379    1.4017    0.7886 O   0  0  0  0  0  0  0  0  0  0  0  0
   -0.6111   -0.8143    0.0750 C   0  0  0  0  0  0  0  0  0  0  0  0
   -0.1251   -1.5802   -0.8072 O   0  0  0  0  0  0  0  0  0  0  0  0
    0.2389    0.1505    0.6621 N   0  0  0  0  0  0  0  0  0  0  0  0
    1.6026    0.2861    0.2985 C   0  0  0  0  0  0  0  0  0  0  0  0
    2.3899    1.2371    0.8953 C   0  0  0  0  0  0  0  0  0  0  0  0
    3.7184    1.4083    0.5772 C   0  0  0  0  0  0  0  0  0  0  0  0
    4.2389    0.5982   -0.3583 N   0  0  0  0  0  0  0  0  0  0  0  0
    3.4771   -0.3497   -0.9614 C   0  0  0  0  0  0  0  0  0  0  0  0
    2.1772   -0.4957   -0.6303 N   0  0  0  0  0  0  0  0  0  0  0  0
   -2.4178   -1.8337   -1.3347 H   0  0  0  0  0  0  0  0  0  0  0  0
   -3.6885   -1.9784   -0.2400 H   0  0  0  0  0  0  0  0  0  0  0  0
   -2.1108   -1.1652    1.5436 H   0  0  0  0  0  0  0  0  0  0  0  0
   -3.8805    0.0571    0.3713 H   0  0  0  0  0  0  0  0  0  0  0  0
   -2.6946    0.4921   -0.9704 H   0  0  0  0  0  0  0  0  0  0  0  0
   -2.5182    1.4107    1.7545 H   0  0  0  0  0  0  0  0  0  0  0  0
   -0.1677    0.7722    1.3824 H   0  0  0  0  0  0  0  0  0  0  0  0
    1.9616    1.8920    1.6542 H   0  0  0  0  0  0  0  0  0  0  0  0
    4.2780    2.1778    1.0880 H   0  0  0  0  0  0  0  0  0  0  0  0
    3.9572   -0.9651   -1.7024 H   0  0  0  0  0  0  0  0  0  0  0  0
  1  2  1  0
  2  3  1  0
  3  4  1  0
  2  5  1  0
  5  6  2  0
  5  7  1  0
  7  8  1  0
  8  9  2  0
  9 10  1  0
 10 11  2  0
 11 12  1  0
 12 13  2  0
 13  8  1  0
  1 14  1  0
  1 15  1  0
  2 16  1  1
  3 17  1  0
  3 18  1  0
  4 19  1  0
  7 20  1  0
  9 21  1  0
 10 22  1  0
 12 23  1  0
M  END
$$$$

     RDKit          3D

 23 23  0  0  0  0  0  0  0  0999 V2000
    2.3240   -0.1615   -1.2115 N   0  0  0  0  0  0  0  0  0  0  0  0
    2.0781    0.2658    0.1292 C   0  0  2  0  0  0  0  0  0  0  0  0
    2.7133   -0.6662    1.1603 C   0  0  0  0  0  0  0  0  0  0  0  0
    4.0894   -0.7094    0.9732 O   0  0  0  0  0  0  0  0  0  0  0  0
    0.6138    0.3617    0.4110 C   0  0  0  0  0  0  0  0  0  0  0  0
    0.1960    0.7182    1.5263 O   0  0  0  0  0  0  0  0  0  0  0  0
   -0.3031    0.0388   -0.6168 N   0  0  0  0  0  0  0  0  0  0  0  0
   -1.7030    0.0750   -0.5219 C   0  0  0  0  0  0  0  0  0  0  0  0
   -2.4457    0.4268    0.5752 C   0  0  0  0  0  0  0  0  0  0  0  0
   -3.8482    0.4242    0.5481 C   0  0  0  0  0  0  0  0  0  0  0  0
   -4.4767    0.0681   -0.5811 N   0  0  0  0  0  0  0  0  0  0  0  0
   -3.7538   -0.2803   -1.6675 C   0  0  0  0  0  0  0  0  0  0  0  0
   -2.4195   -0.2750   -1.6326 N   0  0  0  0  0  0  0  0  0  0  0  0
    2.3429    0.6105   -1.8992 H   0  0  0  0  0  0  0  0  0  0  0  0
    3.2263   -0.6913   -1.2521 H   0  0  0  0  0  0  0  0  0  0  0  0
    2.5342    1.2614    0.2904 H   0  0  0  0  0  0  0  0  0  0  0  0
    2.2818   -1.6742    1.1241 H   0  0  0  0  0  0  0  0  0  0  0  0
    2.5047   -0.2321    2.1567 H   0  0  0  0  0  0  0  0  0  0  0  0
    4.5562   -0.1666    1.6619 H   0  0  0  0  0  0  0  0  0  0  0  0
    0.1033   -0.2656   -1.5688 H   0  0  0  0  0  0  0  0  0  0  0  0
   -1.9683    0.7121    1.4792 H   0  0  0  0  0  0  0  0  0  0  0  0
   -4.3383    0.7168    1.4619 H   0  0  0  0  0  0  0  0  0  0  0  0
   -4.3075   -0.5572   -2.5460 H   0  0  0  0  0  0  0  0  0  0  0  0
  1  2  1  0
  2  3  1  0
  3  4  1  0
  2  5  1  0
  5  6  2  0
  5  7  1  0
  7  8  1  0
  8  9  2  0
  9 10  1  0
 10 11  2  0
 11 12  1  0
 12 13  2  0
 13  8  1  0
  1 14  1  0
  1 15  1  0
  2 16  1  6
  3 17  1  0
  3 18  1  0
  4 19  1  0
  7 20  1  0
  9 21  1  0
 10 22  1  0
 12 23  1  0
M  END
$$$$

     RDKit          3D

 23 23  0  0  0  0  0  0  0  0999 V2000
   -2.3451   -0.6911    1.1952 N   0  0  0  0  0  0  0  0  0  0  0  0
   -2.1692    0.4104    0.2975 C   0  0  2  0  0  0  0  0  0  0  0  0
   -2.8745    0.1381   -1.0047 C   0  0  0  0  0  0  0  0  0  0  0  0
   -2.7444    1.1619   -1.9162 O   0  0  0  0  0  0  0  0  0  0  0  0
   -0.6818    0.5398   -0.0006 C   0  0  0  0  0  0  0  0  0  0  0  0
   -0.3011    1.4403   -0.7656 O   0  0  0  0  0  0  0  0  0  0  0  0
    0.2434   -0.3396    0.5763 N   0  0  0  0  0  0  0  0  0  0  0  0
    1.6150   -0.2928    0.3590 C   0  0  0  0  0  0  0  0  0  0  0  0
    2.3259    0.5610   -0.4122 C   0  0  0  0  0  0  0  0  0  0  0  0
    3.6970    0.4356   -0.4926 C   0  0  0  0  0  0  0  0  0  0  0  0
    4.3794   -0.5089    0.1677 N   0  0  0  0  0  0  0  0  0  0  0  0
    3.6761   -1.3525    0.9299 C   0  0  0  0  0  0  0  0  0  0  0  0
    2.3601   -1.2423    1.0151 N   0  0  0  0  0  0  0  0  0  0  0  0
   -2.3675   -1.6081    0.7250 H   0  0  0  0  0  0  0  0  0  0  0  0
   -3.2463   -0.5464    1.7272 H   0  0  0  0  0  0  0  0  0  0  0  0
   -2.5603    1.3578    0.7176 H   0  0  0  0  0  0  0  0  0  0  0  0
   -3.9728    0.0721   -0.7548 H   0  0  0  0  0  0  0  0  0  0  0  0
   -2.5909   -0.8107   -1.4643 H   0  0  0  0  0  0  0  0  0  0  0  0
   -2.6045    2.0442   -1.5304 H   0  0  0  0  0  0  0  0  0  0  0  0
   -0.1620   -1.0933    1.2280 H   0  0  0  0  0  0  0  0  0  0  0  0
    1.8488    1.3243   -0.9556 H   0  0  0  0  0  0  0  0  0  0  0  0
    4.2363    1.1314   -1.1159 H   0  0  0  0  0  0  0  0  0  0  0  0
    4.2383   -2.1311    1.4743 H   0  0  0  0  0  0  0  0  0  0  0  0
  1  2  1  0
  2  3  1  0
  3  4  1  0
  2  5  1  0
  5  6  2  0
  5  7  1  0
  7  8  1  0
  8  9  2  0
  9 10  1  0
 10 11  2  0
 11 12  1  0
 12 13  2  0
 13  8  1  0
  1 14  1  0
  1 15  1  0
  2 16  1  1
  3 17  1  0
  3 18  1  0
  4 19  1  0
  7 20  1  0
  9 21  1  0
 10 22  1  0
 12 23  1  0
M  END
$$$$

     RDKit          3D

 23 23  0  0  0  0  0  0  0  0999 V2000
   -2.3207   -1.1139   -0.8761 N   0  0  0  0  0  0  0  0  0  0  0  0
   -2.2433   -0.4544    0.4109 C   0  0  2  0  0  0  0  0  0  0  0  0
   -3.0586    0.8177    0.3117 C   0  0  0  0  0  0  0  0  0  0  0  0
   -2.5042    1.6100   -0.6977 O   0  0  0  0  0  0  0  0  0  0  0  0
   -0.8049   -0.1272    0.7157 C   0  0  0  0  0  0  0  0  0  0  0  0
   -0.5047    0.4505    1.7870 O   0  0  0  0  0  0  0  0  0  0  0  0
    0.2277   -0.4587   -0.1855 N   0  0  0  0  0  0  0  0  0  0  0  0
    1.5931   -0.1693    0.0618 C   0  0  0  0  0  0  0  0  0  0  0  0
    2.5655   -0.5136   -0.8506 C   0  0  0  0  0  0  0  0  0  0  0  0
    3.9029   -0.2389   -0.6255 C   0  0  0  0  0  0  0  0  0  0  0  0
    4.2208    0.3786    0.5204 N   0  0  0  0  0  0  0  0  0  0  0  0
    3.2936    0.7239    1.4241 C   0  0  0  0  0  0  0  0  0  0  0  0
    2.0026    0.4469    1.1832 N   0  0  0  0  0  0  0  0  0  0  0  0
   -2.0632   -2.1038   -0.8607 H   0  0  0  0  0  0  0  0  0  0  0  0
   -1.9700   -0.5490   -1.6492 H   0  0  0  0  0  0  0  0  0  0  0  0
   -2.6289   -1.1130    1.2157 H   0  0  0  0  0  0  0  0  0  0  0  0
   -2.9688    1.3537    1.2804 H   0  0  0  0  0  0  0  0  0  0  0  0
   -4.0902    0.5380    0.0678 H   0  0  0  0  0  0  0  0  0  0  0  0
   -3.1499    1.7385   -1.4332 H   0  0  0  0  0  0  0  0  0  0  0  0
   -0.0536   -0.9394   -1.0695 H   0  0  0  0  0  0  0  0  0  0  0  0
    2.2981   -1.0037   -1.7564 H   0  0  0  0  0  0  0  0  0  0  0  0
    4.6777   -0.5031   -1.3322 H   0  0  0  0  0  0  0  0  0  0  0  0
    3.5789    1.2303    2.3578 H   0  0  0  0  0  0  0  0  0  0  0  0
  1  2  1  0
  2  3  1  0
  3  4  1  0
  2  5  1  0
  5  6  2  0
  5  7  1  0
  7  8  1  0
  8  9  2  0
  9 10  1  0
 10 11  2  0
 11 12  1  0
 12 13  2  0
 13  8  1  0
  1 14  1  0
  1 15  1  0
  2 16  1  1
  3 17  1  0
  3 18  1  0
  4 19  1  0
  7 20  1  0
  9 21  1  0
 10 22  1  0
 12 23  1  0
M  END
$$$$

     RDKit          3D

 23 23  0  0  0  0  0  0  0  0999 V2000
    2.1722    1.3344    0.5534 N   0  0  0  0  0  0  0  0  0  0  0  0
    2.1224   -0.0561    0.5217 C   0  0  2  0  0  0  0  0  0  0  0  0
    2.8788   -0.5489   -0.7187 C   0  0  0  0  0  0  0  0  0  0  0  0
    4.1879   -0.1126   -0.6232 O   0  0  0  0  0  0  0  0  0  0  0  0
    0.6745   -0.4919    0.3787 C   0  0  0  0  0  0  0  0  0  0  0  0
    0.3894   -1.6976    0.3289 O   0  0  0  0  0  0  0  0  0  0  0  0
   -0.3557    0.4676    0.3015 N   0  0  0  0  0  0  0  0  0  0  0  0
   -1.7346    0.2310    0.1689 C   0  0  0  0  0  0  0  0  0  0  0  0
   -2.3167   -0.9969    0.0912 C   0  0  0  0  0  0  0  0  0  0  0  0
   -3.7008   -1.0845   -0.0390 C   0  0  0  0  0  0  0  0  0  0  0  0
   -4.4504    0.0266   -0.0873 N   0  0  0  0  0  0  0  0  0  0  0  0
   -3.8824    1.2426   -0.0112 C   0  0  0  0  0  0  0  0  0  0  0  0
   -2.5525    1.3176    0.1137 N   0  0  0  0  0  0  0  0  0  0  0  0
    2.4148    1.8174    1.4153 H   0  0  0  0  0  0  0  0  0  0  0  0
    2.0524    1.8685   -0.2919 H   0  0  0  0  0  0  0  0  0  0  0  0
    2.5491   -0.5094    1.4174 H   0  0  0  0  0  0  0  0  0  0  0  0
    2.7621   -1.6199   -0.8799 H   0  0  0  0  0  0  0  0  0  0  0  0
    2.4135    0.0108   -1.5814 H   0  0  0  0  0  0  0  0  0  0  0  0
    4.7975   -0.8832   -0.6094 H   0  0  0  0  0  0  0  0  0  0  0  0
   -0.0003    1.4794    0.3541 H   0  0  0  0  0  0  0  0  0  0  0  0
   -1.7449   -1.8997    0.1270 H   0  0  0  0  0  0  0  0  0  0  0  0
   -4.1814   -2.0481   -0.1022 H   0  0  0  0  0  0  0  0  0  0  0  0
   -4.4952    2.1527   -0.0507 H   0  0  0  0  0  0  0  0  0  0  0  0
  1  2  1  0
  2  3  1  0
  3  4  1  0
  2  5  1  0
  5  6  2  0
  5  7  1  0
  7  8  1  0
  8  9  2  0
  9 10  1  0
 10 11  2  0
 11 12  1  0
 12 13  2  0
 13  8  1  0
  1 14  1  0
  1 15  1  0
  2 16  1  1
  3 17  1  0
  3 18  1  0
  4 19  1  0
  7 20  1  0
  9 21  1  0
 10 22  1  0
 12 23  1  0
M  END
$$$$

     RDKit          3D

 23 23  0  0  0  0  0  0  0  0999 V2000
   -2.6261    1.8552   -0.7532 N   0  0  0  0  0  0  0  0  0  0  0  0
   -2.0610    0.5058   -0.6019 C   0  0  2  0  0  0  0  0  0  0  0  0
   -2.8716   -0.1859    0.4718 C   0  0  0  0  0  0  0  0  0  0  0  0
   -2.4148   -1.4707    0.6848 O   0  0  0  0  0  0  0  0  0  0  0  0
   -0.6149    0.6417   -0.1973 C   0  0  0  0  0  0  0  0  0  0  0  0
   -0.1458    1.7838    0.0011 O   0  0  0  0  0  0  0  0  0  0  0  0
    0.2100   -0.4901   -0.0409 N   0  0  0  0  0  0  0  0  0  0  0  0
    1.5722   -0.5091    0.3317 C   0  0  0  0  0  0  0  0  0  0  0  0
    2.3534    0.5726    0.6131 C   0  0  0  0  0  0  0  0  0  0  0  0
    3.6715    0.4213    0.9653 C   0  0  0  0  0  0  0  0  0  0  0  0
    4.1996   -0.7912    1.0351 N   0  0  0  0  0  0  0  0  0  0  0  0
    3.4428   -1.8759    0.7602 C   0  0  0  0  0  0  0  0  0  0  0  0
    2.1643   -1.7283    0.4186 N   0  0  0  0  0  0  0  0  0  0  0  0
   -2.0422    2.5726   -0.2846 H   0  0  0  0  0  0  0  0  0  0  0  0
   -2.7563    2.0723   -1.7677 H   0  0  0  0  0  0  0  0  0  0  0  0
   -2.0726   -0.0146   -1.5715 H   0  0  0  0  0  0  0  0  0  0  0  0
   -3.9192   -0.2540    0.1324 H   0  0  0  0  0  0  0  0  0  0  0  0
   -2.8517    0.4095    1.3925 H   0  0  0  0  0  0  0  0  0  0  0  0
   -3.0842   -2.1510    0.4444 H   0  0  0  0  0  0  0  0  0  0  0  0
   -0.2913   -1.4173   -0.2356 H   0  0  0  0  0  0  0  0  0  0  0  0
    1.9472    1.5637    0.5631 H   0  0  0  0  0  0  0  0  0  0  0  0
    4.2541    1.3301    1.1815 H   0  0  0  0  0  0  0  0  0  0  0  0
    3.9367   -2.8406    0.8359 H   0  0  0  0  0  0  0  0  0  0  0  0
  1  2  1  0
  2  3  1  0
  3  4  1  0
  2  5  1  0
  5  6  2  0
  5  7  1  0
  7  8  1  0
  8  9  2  0
  9 10  1  0
 10 11  2  0
 11 12  1  0
 12 13  2  0
 13  8  1  0
  1 14  1  0
  1 15  1  0
  2 16  1  6
  3 17  1  0
  3 18  1  0
  4 19  1  0
  7 20  1  0
  9 21  1  0
 10 22  1  0
 12 23  1  0
M  END
$$$$
