
     RDKit          3D

 26 26  0  0  0  0  0  0  0  0999 V2000
    4.3816    0.3801    0.4181 N   0  0  0  0  0  0  0  0  0  0  0  0
    3.2312   -0.7099    1.0825 S   0  0  0  0  0  6  0  0  0  0  0  0
    3.3544   -2.0715    0.4447 O   0  0  0  0  0  0  0  0  0  0  0  0
    3.4951   -0.8563    2.5314 O   0  0  0  0  0  0  0  0  0  0  0  0
    1.6128   -0.0318    0.8101 C   0  0  0  0  0  0  0  0  0  0  0  0
    1.3197    0.1666   -0.6388 C   0  0  0  0  0  0  0  0  0  0  0  0
    0.0050    0.7227   -0.8150 N   0  0  0  0  0  0  0  0  0  0  0  0
   -1.0722   -0.1638   -0.4722 C   0  0  0  0  0  0  0  0  0  0  0  0
   -2.3632    0.5532   -0.7255 C   0  0  0  0  0  0  0  0  0  0  0  0
   -3.6117   -0.2600   -0.4148 C   0  0  0  0  0  0  0  0  0  0  0  0
   -4.2059    0.9694   -0.0612 O   0  0  0  0  0  0  0  0  0  0  0  0
   -2.9310    1.3377    0.4386 C   0  0  0  0  0  0  0  0  0  0  0  0
    4.4293    0.2546   -0.6123 H   0  0  0  0  0  0  0  0  0  0  0  0
    4.0770    1.3496    0.6974 H   0  0  0  0  0  0  0  0  0  0  0  0
    0.8222   -0.7182    1.2239 H   0  0  0  0  0  0  0  0  0  0  0  0
    1.5522    0.9403    1.3241 H   0  0  0  0  0  0  0  0  0  0  0  0
    2.0756    0.8506   -1.0568 H   0  0  0  0  0  0  0  0  0  0  0  0
    1.3779   -0.7651   -1.2339 H   0  0  0  0  0  0  0  0  0  0  0  0
   -0.0844    1.1392   -1.7622 H   0  0  0  0  0  0  0  0  0  0  0  0
   -1.0194   -1.1102   -1.0771 H   0  0  0  0  0  0  0  0  0  0  0  0
   -1.0666   -0.4610    0.5818 H   0  0  0  0  0  0  0  0  0  0  0  0
   -2.4474    1.0735   -1.6953 H   0  0  0  0  0  0  0  0  0  0  0  0
   -3.4686   -0.8430    0.5389 H   0  0  0  0  0  0  0  0  0  0  0  0
   -4.0679   -0.7950   -1.2463 H   0  0  0  0  0  0  0  0  0  0  0  0
   -2.6940    0.9058    1.4113 H   0  0  0  0  0  0  0  0  0  0  0  0
   -2.7018    2.4117    0.3085 H   0  0  0  0  0  0  0  0  0  0  0  0
  1  2  1  0
  2  3  2  0
  2  4  2  0
  2  5  1  0
  5  6  1  0
  6  7  1  0
  7  8  1  0
  8  9  1  0
  9 10  1  0
 10 11  1  0
 11 12  1  0
 12  9  1  0
  1 13  1  0
  1 14  1  0
  5 15  1  0
  5 16  1  0
  6 17  1  0
  6 18  1  0
  7 19  1  0
  8 20  1  0
  8 21  1  0
  9 22  1  0
 10 23  1  0
 10 24  1  0
 12 25  1  0
 12 26  1  0
M  END
$$$$

     RDKit          3D

 26 26  0  0  0  0  0  0  0  0999 V2000
    4.4010   -0.8755   -0.8703 N   0  0  0  0  0  0  0  0  0  0  0  0
    2.6565   -0.7853   -0.7738 S   0  0  0  0  0  6  0  0  0  0  0  0
    2.0923   -1.1859   -2.1020 O   0  0  0  0  0  0  0  0  0  0  0  0
    2.2161   -1.7835    0.2398 O   0  0  0  0  0  0  0  0  0  0  0  0
    2.1639    0.8238   -0.3038 C   0  0  0  0  0  0  0  0  0  0  0  0
    0.6893    1.0433   -0.1760 C   0  0  0  0  0  0  0  0  0  0  0  0
    0.0648    0.1994    0.8200 N   0  0  0  0  0  0  0  0  0  0  0  0
   -1.3432    0.5457    0.8727 C   0  0  0  0  0  0  0  0  0  0  0  0
   -2.0298    0.0354   -0.3521 C   0  0  0  0  0  0  0  0  0  0  0  0
   -3.5057    0.3634   -0.4291 C   0  0  0  0  0  0  0  0  0  0  0  0
   -3.7964   -0.9961   -0.3335 O   0  0  0  0  0  0  0  0  0  0  0  0
   -2.5081   -1.4022   -0.0598 C   0  0  0  0  0  0  0  0  0  0  0  0
    4.7609   -0.3297   -1.6681 H   0  0  0  0  0  0  0  0  0  0  0  0
    4.7702   -0.4305    0.0159 H   0  0  0  0  0  0  0  0  0  0  0  0
    2.6147    1.1068    0.6806 H   0  0  0  0  0  0  0  0  0  0  0  0
    2.6209    1.5655   -1.0196 H   0  0  0  0  0  0  0  0  0  0  0  0
    0.1685    1.1003   -1.1381 H   0  0  0  0  0  0  0  0  0  0  0  0
    0.5962    2.0896    0.2793 H   0  0  0  0  0  0  0  0  0  0  0  0
    0.1549   -0.8220    0.5544 H   0  0  0  0  0  0  0  0  0  0  0  0
   -1.8360    0.1133    1.7708 H   0  0  0  0  0  0  0  0  0  0  0  0
   -1.4255    1.6525    0.9712 H   0  0  0  0  0  0  0  0  0  0  0  0
   -1.4641    0.0814   -1.2953 H   0  0  0  0  0  0  0  0  0  0  0  0
   -3.7267    0.7124   -1.4656 H   0  0  0  0  0  0  0  0  0  0  0  0
   -3.8730    1.0025    0.3880 H   0  0  0  0  0  0  0  0  0  0  0  0
   -2.0833   -2.1071   -0.7756 H   0  0  0  0  0  0  0  0  0  0  0  0
   -2.3785   -1.7175    0.9938 H   0  0  0  0  0  0  0  0  0  0  0  0
  1  2  1  0
  2  3  2  0
  2  4  2  0
  2  5  1  0
  5  6  1  0
  6  7  1  0
  7  8  1  0
  8  9  1  0
  9 10  1  0
 10 11  1  0
 11 12  1  0
 12  9  1  0
  1 13  1  0
  1 14  1  0
  5 15  1  0
  5 16  1  0
  6 17  1  0
  6 18  1  0
  7 19  1  0
  8 20  1  0
  8 21  1  0
  9 22  1  0
 10 23  1  0
 10 24  1  0
 12 25  1  0
 12 26  1  0
M  END
$$$$

     RDKit          3D

 26 26  0  0  0  0  0  0  0  0999 V2000
    4.5816   -0.7195    0.0392 N   0  0  0  0  0  0  0  0  0  0  0  0
    3.0699   -0.1279   -0.4821 S   0  0  0  0  0  6  0  0  0  0  0  0
    2.3379   -1.1457   -1.3010 O   0  0  0  0  0  0  0  0  0  0  0  0
    3.2185    1.1137   -1.3302 O   0  0  0  0  0  0  0  0  0  0  0  0
    2.0627    0.3527    0.9262 C   0  0  0  0  0  0  0  0  0  0  0  0
    0.7230    0.8810    0.4354 C   0  0  0  0  0  0  0  0  0  0  0  0
    0.0714   -0.1366   -0.2922 N   0  0  0  0  0  0  0  0  0  0  0  0
   -1.1829    0.1664   -0.8599 C   0  0  0  0  0  0  0  0  0  0  0  0
   -2.3236    0.3942    0.0702 C   0  0  0  0  0  0  0  0  0  0  0  0
   -2.7235   -0.7136    0.9854 C   0  0  0  0  0  0  0  0  0  0  0  0
   -3.5790   -1.2437    0.0523 O   0  0  0  0  0  0  0  0  0  0  0  0
   -3.6286   -0.0118   -0.5848 C   0  0  0  0  0  0  0  0  0  0  0  0
    4.4663   -1.7222    0.3591 H   0  0  0  0  0  0  0  0  0  0  0  0
    5.1972   -0.7846   -0.8112 H   0  0  0  0  0  0  0  0  0  0  0  0
    1.9470   -0.5474    1.5597 H   0  0  0  0  0  0  0  0  0  0  0  0
    2.6141    1.0910    1.5317 H   0  0  0  0  0  0  0  0  0  0  0  0
    0.1528    1.2173    1.3388 H   0  0  0  0  0  0  0  0  0  0  0  0
    0.9339    1.7976   -0.1546 H   0  0  0  0  0  0  0  0  0  0  0  0
    0.2660   -1.1035   -0.0413 H   0  0  0  0  0  0  0  0  0  0  0  0
   -1.4626   -0.6861   -1.5410 H   0  0  0  0  0  0  0  0  0  0  0  0
   -1.1240    1.0649   -1.5310 H   0  0  0  0  0  0  0  0  0  0  0  0
   -2.3647    1.4186    0.5296 H   0  0  0  0  0  0  0  0  0  0  0  0
   -1.9442   -1.4447    1.2833 H   0  0  0  0  0  0  0  0  0  0  0  0
   -3.2646   -0.3158    1.8666 H   0  0  0  0  0  0  0  0  0  0  0  0
   -3.5474   -0.1372   -1.7060 H   0  0  0  0  0  0  0  0  0  0  0  0
   -4.4972    0.6297   -0.3423 H   0  0  0  0  0  0  0  0  0  0  0  0
  1  2  1  0
  2  3  2  0
  2  4  2  0
  2  5  1  0
  5  6  1  0
  6  7  1  0
  7  8  1  0
  8  9  1  0
  9 10  1  0
 10 11  1  0
 11 12  1  0
 12  9  1  0
  1 13  1  0
  1 14  1  0
  5 15  1  0
  5 16  1  0
  6 17  1  0
  6 18  1  0
  7 19  1  0
  8 20  1  0
  8 21  1  0
  9 22  1  0
 10 23  1  0
 10 24  1  0
 12 25  1  0
 12 26  1  0
M  END
$$$$

     RDKit          3D

 26 26  0  0  0  0  0  0  0  0999 V2000
    3.9259   -0.7711   -0.9222 N   0  0  0  0  0  0  0  0  0  0  0  0
    3.4831    0.5029    0.0856 S   0  0  0  0  0  6  0  0  0  0  0  0
    4.1947    1.7564   -0.3484 O   0  0  0  0  0  0  0  0  0  0  0  0
    3.9654    0.2114    1.4863 O   0  0  0  0  0  0  0  0  0  0  0  0
    1.7457    0.8193    0.1423 C   0  0  0  0  0  0  0  0  0  0  0  0
    0.9554   -0.3468    0.6274 C   0  0  0  0  0  0  0  0  0  0  0  0
   -0.4679   -0.1338    0.6972 N   0  0  0  0  0  0  0  0  0  0  0  0
   -1.0031   -0.0157   -0.6170 C   0  0  0  0  0  0  0  0  0  0  0  0
   -2.4981    0.1691   -0.6444 C   0  0  0  0  0  0  0  0  0  0  0  0
   -3.3040   -0.9343   -0.0312 C   0  0  0  0  0  0  0  0  0  0  0  0
   -4.1726    0.0394    0.4673 O   0  0  0  0  0  0  0  0  0  0  0  0
   -3.0789    0.9009    0.5296 C   0  0  0  0  0  0  0  0  0  0  0  0
    3.7771   -1.7181   -0.5753 H   0  0  0  0  0  0  0  0  0  0  0  0
    4.6742   -0.6084   -1.5910 H   0  0  0  0  0  0  0  0  0  0  0  0
    1.5573    1.6709    0.8350 H   0  0  0  0  0  0  0  0  0  0  0  0
    1.4235    1.1655   -0.8552 H   0  0  0  0  0  0  0  0  0  0  0  0
    1.2992   -0.7002    1.6380 H   0  0  0  0  0  0  0  0  0  0  0  0
    1.1837   -1.2331   -0.0399 H   0  0  0  0  0  0  0  0  0  0  0  0
   -0.9537   -0.8285    1.2826 H   0  0  0  0  0  0  0  0  0  0  0  0
   -0.7746   -0.9367   -1.1948 H   0  0  0  0  0  0  0  0  0  0  0  0
   -0.5348    0.8300   -1.1703 H   0  0  0  0  0  0  0  0  0  0  0  0
   -2.8626    0.5142   -1.6075 H   0  0  0  0  0  0  0  0  0  0  0  0
   -2.8325   -1.4651    0.8025 H   0  0  0  0  0  0  0  0  0  0  0  0
   -3.7745   -1.5743   -0.8055 H   0  0  0  0  0  0  0  0  0  0  0  0
   -3.3992    1.9506    0.3388 H   0  0  0  0  0  0  0  0  0  0  0  0
   -2.5288    0.7357    1.4700 H   0  0  0  0  0  0  0  0  0  0  0  0
  1  2  1  0
  2  3  2  0
  2  4  2  0
  2  5  1  0
  5  6  1  0
  6  7  1  0
  7  8  1  0
  8  9  1  0
  9 10  1  0
 10 11  1  0
 11 12  1  0
 12  9  1  0
  1 13  1  0
  1 14  1  0
  5 15  1  0
  5 16  1  0
  6 17  1  0
  6 18  1  0
  7 19  1  0
  8 20  1  0
  8 21  1  0
  9 22  1  0
 10 23  1  0
 10 24  1  0
 12 25  1  0
 12 26  1  0
M  END
$$$$

     RDKit          3D

 26 26  0  0  0  0  0  0  0  0999 V2000
    4.4785   -0.9390    0.9883 N   0  0  0  0  0  0  0  0  0  0  0  0
    3.4571   -0.3144   -0.2275 S   0  0  0  0  0  6  0  0  0  0  0  0
    4.0920    0.9438   -0.7959 O   0  0  0  0  0  0  0  0  0  0  0  0
    3.2822   -1.2580   -1.3840 O   0  0  0  0  0  0  0  0  0  0  0  0
    1.8462    0.1277    0.4131 C   0  0  0  0  0  0  0  0  0  0  0  0
    1.0039    0.6730   -0.7237 C   0  0  0  0  0  0  0  0  0  0  0  0
   -0.3112    1.0619   -0.3335 N   0  0  0  0  0  0  0  0  0  0  0  0
   -1.1496   -0.0521    0.0453 C   0  0  0  0  0  0  0  0  0  0  0  0
   -2.5275    0.4040    0.4451 C   0  0  0  0  0  0  0  0  0  0  0  0
   -3.4105   -0.7620    0.8434 C   0  0  0  0  0  0  0  0  0  0  0  0
   -3.5275   -1.0530   -0.5233 O   0  0  0  0  0  0  0  0  0  0  0  0
   -3.5080    0.3460   -0.7318 C   0  0  0  0  0  0  0  0  0  0  0  0
    5.0326   -0.1523    1.3827 H   0  0  0  0  0  0  0  0  0  0  0  0
    5.0834   -1.7280    0.6594 H   0  0  0  0  0  0  0  0  0  0  0  0
    1.9406    0.8097    1.2573 H   0  0  0  0  0  0  0  0  0  0  0  0
    1.3651   -0.8193    0.7800 H   0  0  0  0  0  0  0  0  0  0  0  0
    1.5443    1.5726   -1.1282 H   0  0  0  0  0  0  0  0  0  0  0  0
    0.9916   -0.0905   -1.5127 H   0  0  0  0  0  0  0  0  0  0  0  0
   -0.3577    1.8735    0.2885 H   0  0  0  0  0  0  0  0  0  0  0  0
   -0.6785   -0.6016    0.9070 H   0  0  0  0  0  0  0  0  0  0  0  0
   -1.2077   -0.7659   -0.7853 H   0  0  0  0  0  0  0  0  0  0  0  0
   -2.5993    1.3010    1.0561 H   0  0  0  0  0  0  0  0  0  0  0  0
   -4.4097   -0.4574    1.2252 H   0  0  0  0  0  0  0  0  0  0  0  0
   -2.8634   -1.5096    1.4440 H   0  0  0  0  0  0  0  0  0  0  0  0
   -3.0701    0.6447   -1.7032 H   0  0  0  0  0  0  0  0  0  0  0  0
   -4.4969    0.7455   -0.4812 H   0  0  0  0  0  0  0  0  0  0  0  0
  1  2  1  0
  2  3  2  0
  2  4  2  0
  2  5  1  0
  5  6  1  0
  6  7  1  0
  7  8  1  0
  8  9  1  0
  9 10  1  0
 10 11  1  0
 11 12  1  0
 12  9  1  0
  1 13  1  0
  1 14  1  0
  5 15  1  0
  5 16  1  0
  6 17  1  0
  6 18  1  0
  7 19  1  0
  8 20  1  0
  8 21  1  0
  9 22  1  0
 10 23  1  0
 10 24  1  0
 12 25  1  0
 12 26  1  0
M  END
$$$$

     RDKit          3D

 26 26  0  0  0  0  0  0  0  0999 V2000
    3.9372   -0.9034   -0.7804 N   0  0  0  0  0  0  0  0  0  0  0  0
    3.3165    0.6019   -0.2798 S   0  0  0  0  0  6  0  0  0  0  0  0
    3.8017    0.8922    1.1359 O   0  0  0  0  0  0  0  0  0  0  0  0
    3.8219    1.6713   -1.2186 O   0  0  0  0  0  0  0  0  0  0  0  0
    1.5529    0.6629   -0.2512 C   0  0  0  0  0  0  0  0  0  0  0  0
    0.9330   -0.3402    0.6969 C   0  0  0  0  0  0  0  0  0  0  0  0
   -0.5038   -0.2529    0.7081 N   0  0  0  0  0  0  0  0  0  0  0  0
   -1.1334   -0.7109   -0.5070 C   0  0  0  0  0  0  0  0  0  0  0  0
   -2.6208   -0.4087   -0.3988 C   0  0  0  0  0  0  0  0  0  0  0  0
   -2.7396    1.1224   -0.2460 C   0  0  0  0  0  0  0  0  0  0  0  0
   -2.3292    0.9134    1.0946 O   0  0  0  0  0  0  0  0  0  0  0  0
   -3.1498   -0.2413    1.0058 C   0  0  0  0  0  0  0  0  0  0  0  0
    3.9656   -1.5437    0.0512 H   0  0  0  0  0  0  0  0  0  0  0  0
    4.9069   -0.7659   -1.1941 H   0  0  0  0  0  0  0  0  0  0  0  0
    1.1784    0.4518   -1.2718 H   0  0  0  0  0  0  0  0  0  0  0  0
    1.2377    1.6843    0.0640 H   0  0  0  0  0  0  0  0  0  0  0  0
    1.3046   -1.3688    0.5299 H   0  0  0  0  0  0  0  0  0  0  0  0
    1.2575   -0.0400    1.7410 H   0  0  0  0  0  0  0  0  0  0  0  0
   -0.8152   -0.8733    1.5027 H   0  0  0  0  0  0  0  0  0  0  0  0
   -0.9437   -1.7675   -0.7352 H   0  0  0  0  0  0  0  0  0  0  0  0
   -0.7637   -0.1106   -1.3875 H   0  0  0  0  0  0  0  0  0  0  0  0
   -3.2688   -0.8618   -1.1412 H   0  0  0  0  0  0  0  0  0  0  0  0
   -2.0172    1.6261   -0.8944 H   0  0  0  0  0  0  0  0  0  0  0  0
   -3.7807    1.4919   -0.2190 H   0  0  0  0  0  0  0  0  0  0  0  0
   -4.2233    0.0991    0.9356 H   0  0  0  0  0  0  0  0  0  0  0  0
   -2.9248   -1.0281    1.7204 H   0  0  0  0  0  0  0  0  0  0  0  0
  1  2  1  0
  2  3  2  0
  2  4  2  0
  2  5  1  0
  5  6  1  0
  6  7  1  0
  7  8  1  0
  8  9  1  0
  9 10  1  0
 10 11  1  0
 11 12  1  0
 12  9  1  0
  1 13  1  0
  1 14  1  0
  5 15  1  0
  5 16  1  0
  6 17  1  0
  6 18  1  0
  7 19  1  0
  8 20  1  0
  8 21  1  0
  9 22  1  0
 10 23  1  0
 10 24  1  0
 12 25  1  0
 12 26  1  0
M  END
$$$$

     RDKit          3D

 26 26  0  0  0  0  0  0  0  0999 V2000
    4.2869   -0.7414   -0.6109 N   0  0  0  0  0  0  0  0  0  0  0  0
    3.4401   -0.5319    0.8528 S   0  0  0  0  0  6  0  0  0  0  0  0
    3.9351   -1.4296    1.9132 O   0  0  0  0  0  0  0  0  0  0  0  0
    3.6301    0.9042    1.3214 O   0  0  0  0  0  0  0  0  0  0  0  0
    1.6665   -0.8311    0.6024 C   0  0  0  0  0  0  0  0  0  0  0  0
    1.2323    0.1778   -0.4071 C   0  0  0  0  0  0  0  0  0  0  0  0
   -0.1259    0.1814   -0.7936 N   0  0  0  0  0  0  0  0  0  0  0  0
   -1.0703    0.5776    0.2115 C   0  0  0  0  0  0  0  0  0  0  0  0
   -2.4607    0.7350   -0.2639 C   0  0  0  0  0  0  0  0  0  0  0  0
   -3.1508   -0.4415   -0.8644 C   0  0  0  0  0  0  0  0  0  0  0  0
   -4.3425   -0.1481   -0.1750 O   0  0  0  0  0  0  0  0  0  0  0  0
   -3.5660    0.5623    0.7631 C   0  0  0  0  0  0  0  0  0  0  0  0
    3.6854   -1.1100   -1.3885 H   0  0  0  0  0  0  0  0  0  0  0  0
    4.8201    0.0930   -0.9086 H   0  0  0  0  0  0  0  0  0  0  0  0
    1.1762   -0.6882    1.5734 H   0  0  0  0  0  0  0  0  0  0  0  0
    1.5323   -1.8632    0.2554 H   0  0  0  0  0  0  0  0  0  0  0  0
    1.8589   -0.0141   -1.3308 H   0  0  0  0  0  0  0  0  0  0  0  0
    1.5679    1.1709   -0.0284 H   0  0  0  0  0  0  0  0  0  0  0  0
   -0.2265    0.8201   -1.6171 H   0  0  0  0  0  0  0  0  0  0  0  0
   -1.0699   -0.2673    0.9649 H   0  0  0  0  0  0  0  0  0  0  0  0
   -0.7844    1.5015    0.7714 H   0  0  0  0  0  0  0  0  0  0  0  0
   -2.5578    1.6716   -0.8671 H   0  0  0  0  0  0  0  0  0  0  0  0
   -2.8227   -1.4454   -0.6205 H   0  0  0  0  0  0  0  0  0  0  0  0
   -3.2987   -0.3009   -1.9585 H   0  0  0  0  0  0  0  0  0  0  0  0
   -3.3296   -0.1072    1.5989 H   0  0  0  0  0  0  0  0  0  0  0  0
   -4.0261    1.5244    1.0062 H   0  0  0  0  0  0  0  0  0  0  0  0
  1  2  1  0
  2  3  2  0
  2  4  2  0
  2  5  1  0
  5  6  1  0
  6  7  1  0
  7  8  1  0
  8  9  1  0
  9 10  1  0
 10 11  1  0
 11 12  1  0
 12  9  1  0
  1 13  1  0
  1 14  1  0
  5 15  1  0
  5 16  1  0
  6 17  1  0
  6 18  1  0
  7 19  1  0
  8 20  1  0
  8 21  1  0
  9 22  1  0
 10 23  1  0
 10 24  1  0
 12 25  1  0
 12 26  1  0
M  END
$$$$

     RDKit          3D

 26 26  0  0  0  0  0  0  0  0999 V2000
    4.2944    0.0237   -0.7784 N   0  0  0  0  0  0  0  0  0  0  0  0
    3.5970    0.4426    0.7297 S   0  0  0  0  0  6  0  0  0  0  0  0
    4.6042    0.1607    1.8415 O   0  0  0  0  0  0  0  0  0  0  0  0
    3.4042    1.9452    0.7476 O   0  0  0  0  0  0  0  0  0  0  0  0
    2.0488   -0.3758    1.0338 C   0  0  0  0  0  0  0  0  0  0  0  0
    1.0772    0.0603   -0.0226 C   0  0  0  0  0  0  0  0  0  0  0  0
   -0.2190   -0.5630    0.1529 N   0  0  0  0  0  0  0  0  0  0  0  0
   -1.1389    0.0988   -0.7089 C   0  0  0  0  0  0  0  0  0  0  0  0
   -2.5153   -0.5143   -0.6993 C   0  0  0  0  0  0  0  0  0  0  0  0
   -3.2410   -0.5864    0.6004 C   0  0  0  0  0  0  0  0  0  0  0  0
   -4.4032   -0.1623   -0.0864 O   0  0  0  0  0  0  0  0  0  0  0  0
   -3.5330    0.6303   -0.8517 C   0  0  0  0  0  0  0  0  0  0  0  0
    4.4619   -1.0024   -0.7910 H   0  0  0  0  0  0  0  0  0  0  0  0
    3.7005    0.3534   -1.5692 H   0  0  0  0  0  0  0  0  0  0  0  0
    2.2297   -1.4830    1.0312 H   0  0  0  0  0  0  0  0  0  0  0  0
    1.6387   -0.0474    2.0223 H   0  0  0  0  0  0  0  0  0  0  0  0
    1.4832   -0.2151   -1.0279 H   0  0  0  0  0  0  0  0  0  0  0  0
    0.9381    1.1465    0.0312 H   0  0  0  0  0  0  0  0  0  0  0  0
   -0.4558   -0.6335    1.1447 H   0  0  0  0  0  0  0  0  0  0  0  0
   -0.7802    0.0152   -1.7497 H   0  0  0  0  0  0  0  0  0  0  0  0
   -1.1717    1.1673   -0.4665 H   0  0  0  0  0  0  0  0  0  0  0  0
   -2.7284   -1.3099   -1.4108 H   0  0  0  0  0  0  0  0  0  0  0  0
   -3.3183   -1.6495    0.9715 H   0  0  0  0  0  0  0  0  0  0  0  0
   -2.9623    0.1540    1.3459 H   0  0  0  0  0  0  0  0  0  0  0  0
   -3.8417    0.8544   -1.8668 H   0  0  0  0  0  0  0  0  0  0  0  0
   -3.1692    1.4904   -0.2316 H   0  0  0  0  0  0  0  0  0  0  0  0
  1  2  1  0
  2  3  2  0
  2  4  2  0
  2  5  1  0
  5  6  1  0
  6  7  1  0
  7  8  1  0
  8  9  1  0
  9 10  1  0
 10 11  1  0
 11 12  1  0
 12  9  1  0
  1 13  1  0
  1 14  1  0
  5 15  1  0
  5 16  1  0
  6 17  1  0
  6 18  1  0
  7 19  1  0
  8 20  1  0
  8 21  1  0
  9 22  1  0
 10 23  1  0
 10 24  1  0
 12 25  1  0
 12 26  1  0
M  END
$$$$
