
     RDKit          3D

 31 32  0  0  0  0  0  0  0  0999 V2000
    5.2464    0.9844   -0.1338 C   0  0  0  0  0  0  0  0  0  0  0  0
    4.0622    0.4684    0.4952 N   0  0  0  0  0  0  0  0  0  0  0  0
    2.8666    0.1524   -0.1607 C   0  0  0  0  0  0  0  0  0  0  0  0
    2.7959    0.3392   -1.4146 O   0  0  0  0  0  0  0  0  0  0  0  0
    1.6627   -0.3992    0.5639 C   0  0  0  0  0  0  0  0  0  0  0  0
    0.5430   -0.5844   -0.3443 N   0  0  0  0  0  0  0  0  0  0  0  0
   -0.4704   -1.4387    0.2919 C   0  0  0  0  0  0  0  0  0  0  0  0
   -1.6894   -0.9981   -0.4970 C   0  0  1  0  0  0  0  0  0  0  0  0
   -2.9349   -1.4330    0.0205 N   0  0  0  0  0  0  0  0  0  0  0  0
   -3.9762   -0.6926   -0.6697 C   0  0  0  0  0  0  0  0  0  0  0  0
   -3.7682    0.8023   -0.6265 C   0  0  0  0  0  0  0  0  0  0  0  0
   -2.4689    1.1466   -1.0118 O   0  0  0  0  0  0  0  0  0  0  0  0
   -1.5891    0.5114   -0.1944 C   0  0  2  0  0  0  0  0  0  0  0  0
   -0.1281    0.7273   -0.4973 C   0  0  0  0  0  0  0  0  0  0  0  0
    5.9742    1.2527    0.6916 H   0  0  0  0  0  0  0  0  0  0  0  0
    5.7778    0.2071   -0.7562 H   0  0  0  0  0  0  0  0  0  0  0  0
    5.1200    1.8871   -0.7371 H   0  0  0  0  0  0  0  0  0  0  0  0
    4.0569    0.3053    1.5472 H   0  0  0  0  0  0  0  0  0  0  0  0
    1.3516    0.4627    1.2398 H   0  0  0  0  0  0  0  0  0  0  0  0
    1.9232   -1.2666    1.1590 H   0  0  0  0  0  0  0  0  0  0  0  0
   -0.2844   -2.4952    0.0382 H   0  0  0  0  0  0  0  0  0  0  0  0
   -0.6090   -1.2406    1.3492 H   0  0  0  0  0  0  0  0  0  0  0  0
   -1.6118   -1.2087   -1.5649 H   0  0  0  0  0  0  0  0  0  0  0  0
   -3.0088   -1.2427    1.0398 H   0  0  0  0  0  0  0  0  0  0  0  0
   -3.9365   -1.0425   -1.7210 H   0  0  0  0  0  0  0  0  0  0  0  0
   -4.9653   -0.9043   -0.2081 H   0  0  0  0  0  0  0  0  0  0  0  0
   -4.5053    1.2683   -1.2777 H   0  0  0  0  0  0  0  0  0  0  0  0
   -3.9039    1.1672    0.3904 H   0  0  0  0  0  0  0  0  0  0  0  0
   -1.8595    0.6653    0.8605 H   0  0  0  0  0  0  0  0  0  0  0  0
    0.0761    1.1993   -1.4537 H   0  0  0  0  0  0  0  0  0  0  0  0
    0.2528    1.3996    0.3128 H   0  0  0  0  0  0  0  0  0  0  0  0
  1  2  1  0
  2  3  1  0
  3  4  2  0
  3  5  1  0
  5  6  1  0
  6  7  1  0
  7  8  1  0
  8  9  1  0
  9 10  1  0
 10 11  1  0
 11 12  1  0
 12 13  1  0
 13 14  1  0
 14  6  1  0
 13  8  1  0
  1 15  1  0
  1 16  1  0
  1 17  1  0
  2 18  1  0
  5 19  1  0
  5 20  1  0
  7 21  1  0
  7 22  1  0
  8 23  1  6
  9 24  1  0
 10 25  1  0
 10 26  1  0
 11 27  1  0
 11 28  1  0
 13 29  1  1
 14 30  1  0
 14 31  1  0
M  END
$$$$

     RDKit          3D

 31 32  0  0  0  0  0  0  0  0999 V2000
    5.1939   -0.4475   -0.4924 C   0  0  0  0  0  0  0  0  0  0  0  0
    4.0681   -0.0305    0.3021 N   0  0  0  0  0  0  0  0  0  0  0  0
    2.7714    0.0992   -0.2963 C   0  0  0  0  0  0  0  0  0  0  0  0
    2.6844   -0.1695   -1.5012 O   0  0  0  0  0  0  0  0  0  0  0  0
    1.6749    0.5383    0.5847 C   0  0  0  0  0  0  0  0  0  0  0  0
    0.4255    0.6210   -0.1440 N   0  0  0  0  0  0  0  0  0  0  0  0
   -0.6181    1.1266    0.7410 C   0  0  0  0  0  0  0  0  0  0  0  0
   -1.8738    0.3637    0.4737 C   0  0  1  0  0  0  0  0  0  0  0  0
   -3.0250    1.1561    0.1639 N   0  0  0  0  0  0  0  0  0  0  0  0
   -3.9684    0.2900   -0.5192 C   0  0  0  0  0  0  0  0  0  0  0  0
   -3.5526   -1.1626   -0.4695 C   0  0  0  0  0  0  0  0  0  0  0  0
   -2.3259   -1.4189   -1.0375 O   0  0  0  0  0  0  0  0  0  0  0  0
   -1.4982   -0.3463   -0.8398 C   0  0  2  0  0  0  0  0  0  0  0  0
   -0.0738   -0.7322   -0.4489 C   0  0  0  0  0  0  0  0  0  0  0  0
    6.0351    0.2528   -0.3622 H   0  0  0  0  0  0  0  0  0  0  0  0
    5.5057   -1.4943   -0.2291 H   0  0  0  0  0  0  0  0  0  0  0  0
    4.9346   -0.4513   -1.5792 H   0  0  0  0  0  0  0  0  0  0  0  0
    4.2234    0.1676    1.3048 H   0  0  0  0  0  0  0  0  0  0  0  0
    1.5884   -0.1829    1.4219 H   0  0  0  0  0  0  0  0  0  0  0  0
    1.9170    1.5332    0.9600 H   0  0  0  0  0  0  0  0  0  0  0  0
   -0.7958    2.2083    0.5800 H   0  0  0  0  0  0  0  0  0  0  0  0
   -0.2746    1.0047    1.7921 H   0  0  0  0  0  0  0  0  0  0  0  0
   -2.0927   -0.4205    1.2321 H   0  0  0  0  0  0  0  0  0  0  0  0
   -2.7247    1.8769   -0.5417 H   0  0  0  0  0  0  0  0  0  0  0  0
   -4.9256    0.3656    0.0529 H   0  0  0  0  0  0  0  0  0  0  0  0
   -4.1835    0.6101   -1.5449 H   0  0  0  0  0  0  0  0  0  0  0  0
   -3.6276   -1.5730    0.5513 H   0  0  0  0  0  0  0  0  0  0  0  0
   -4.3112   -1.7071   -1.0832 H   0  0  0  0  0  0  0  0  0  0  0  0
   -1.4817    0.3991   -1.6564 H   0  0  0  0  0  0  0  0  0  0  0  0
    0.4682   -1.2189   -1.2432 H   0  0  0  0  0  0  0  0  0  0  0  0
   -0.1375   -1.2576    0.4983 H   0  0  0  0  0  0  0  0  0  0  0  0
  1  2  1  0
  2  3  1  0
  3  4  2  0
  3  5  1  0
  5  6  1  0
  6  7  1  0
  7  8  1  0
  8  9  1  0
  9 10  1  0
 10 11  1  0
 11 12  1  0
 12 13  1  0
 13 14  1  0
 14  6  1  0
 13  8  1  0
  1 15  1  0
  1 16  1  0
  1 17  1  0
  2 18  1  0
  5 19  1  0
  5 20  1  0
  7 21  1  0
  7 22  1  0
  8 23  1  1
  9 24  1  0
 10 25  1  0
 10 26  1  0
 11 27  1  0
 11 28  1  0
 13 29  1  6
 14 30  1  0
 14 31  1  0
M  END
$$$$

     RDKit          3D

 31 32  0  0  0  0  0  0  0  0999 V2000
   -4.7132    1.2104    0.1183 C   0  0  0  0  0  0  0  0  0  0  0  0
   -3.3295    1.3235    0.4777 N   0  0  0  0  0  0  0  0  0  0  0  0
   -2.4918    0.1911    0.3423 C   0  0  0  0  0  0  0  0  0  0  0  0
   -3.0132   -0.8948   -0.1151 O   0  0  0  0  0  0  0  0  0  0  0  0
   -1.0559    0.1733    0.6944 C   0  0  0  0  0  0  0  0  0  0  0  0
   -0.5509   -1.1727    0.4297 N   0  0  0  0  0  0  0  0  0  0  0  0
    0.7803   -1.3776    1.0306 C   0  0  0  0  0  0  0  0  0  0  0  0
    1.5684   -0.3679    0.2945 C   0  0  1  0  0  0  0  0  0  0  0  0
    3.0047   -0.5366    0.4007 N   0  0  0  0  0  0  0  0  0  0  0  0
    3.5499    0.0769   -0.7971 C   0  0  0  0  0  0  0  0  0  0  0  0
    2.5831    1.0590   -1.4164 C   0  0  0  0  0  0  0  0  0  0  0  0
    1.4019    0.4668   -1.8517 O   0  0  0  0  0  0  0  0  0  0  0  0
    1.2002   -0.6947   -1.1388 C   0  0  2  0  0  0  0  0  0  0  0  0
   -0.2121   -1.1619   -1.0085 C   0  0  0  0  0  0  0  0  0  0  0  0
   -4.7787    0.5688   -0.8014 H   0  0  0  0  0  0  0  0  0  0  0  0
   -5.2335    0.6880    0.9842 H   0  0  0  0  0  0  0  0  0  0  0  0
   -5.1361    2.2238   -0.0266 H   0  0  0  0  0  0  0  0  0  0  0  0
   -2.8785    2.1990    0.8384 H   0  0  0  0  0  0  0  0  0  0  0  0
   -0.5742    0.9269   -0.0094 H   0  0  0  0  0  0  0  0  0  0  0  0
   -0.9059    0.5099    1.7322 H   0  0  0  0  0  0  0  0  0  0  0  0
    0.7329   -1.2185    2.1210 H   0  0  0  0  0  0  0  0  0  0  0  0
    1.0741   -2.3922    0.7524 H   0  0  0  0  0  0  0  0  0  0  0  0
    1.3263    0.6804    0.5587 H   0  0  0  0  0  0  0  0  0  0  0  0
    3.1850   -1.5756    0.4094 H   0  0  0  0  0  0  0  0  0  0  0  0
    4.4201    0.6923   -0.4660 H   0  0  0  0  0  0  0  0  0  0  0  0
    3.8795   -0.6522   -1.5524 H   0  0  0  0  0  0  0  0  0  0  0  0
    2.3972    1.9072   -0.7336 H   0  0  0  0  0  0  0  0  0  0  0  0
    3.1130    1.4630   -2.3163 H   0  0  0  0  0  0  0  0  0  0  0  0
    1.8804   -1.4761   -1.5750 H   0  0  0  0  0  0  0  0  0  0  0  0
   -0.2715   -2.2468   -1.3004 H   0  0  0  0  0  0  0  0  0  0  0  0
   -0.9521   -0.5924   -1.5868 H   0  0  0  0  0  0  0  0  0  0  0  0
  1  2  1  0
  2  3  1  0
  3  4  2  0
  3  5  1  0
  5  6  1  0
  6  7  1  0
  7  8  1  0
  8  9  1  0
  9 10  1  0
 10 11  1  0
 11 12  1  0
 12 13  1  0
 13 14  1  0
 14  6  1  0
 13  8  1  0
  1 15  1  0
  1 16  1  0
  1 17  1  0
  2 18  1  0
  5 19  1  0
  5 20  1  0
  7 21  1  0
  7 22  1  0
  8 23  1  1
  9 24  1  0
 10 25  1  0
 10 26  1  0
 11 27  1  0
 11 28  1  0
 13 29  1  6
 14 30  1  0
 14 31  1  0
M  END
$$$$

     RDKit          3D

 31 32  0  0  0  0  0  0  0  0999 V2000
    4.5720    0.9102    0.4400 C   0  0  0  0  0  0  0  0  0  0  0  0
    3.8185   -0.2796    0.0777 N   0  0  0  0  0  0  0  0  0  0  0  0
    2.4002   -0.2395    0.0496 C   0  0  0  0  0  0  0  0  0  0  0  0
    1.7976    0.8177    0.3359 O   0  0  0  0  0  0  0  0  0  0  0  0
    1.6628   -1.4512   -0.3186 C   0  0  0  0  0  0  0  0  0  0  0  0
    0.2558   -1.3749   -0.3313 N   0  0  0  0  0  0  0  0  0  0  0  0
   -0.3667   -0.5612   -1.3113 C   0  0  0  0  0  0  0  0  0  0  0  0
   -1.3399    0.3297   -0.5723 C   0  0  1  0  0  0  0  0  0  0  0  0
   -2.5359    0.6137   -1.3023 N   0  0  0  0  0  0  0  0  0  0  0  0
   -3.5176    1.1295   -0.3699 C   0  0  0  0  0  0  0  0  0  0  0  0
   -3.0573    1.2292    1.0399 C   0  0  0  0  0  0  0  0  0  0  0  0
   -2.3369    0.1637    1.5220 O   0  0  0  0  0  0  0  0  0  0  0  0
   -1.7419   -0.6070    0.5687 C   0  0  2  0  0  0  0  0  0  0  0  0
   -0.3816   -1.1573    0.9393 C   0  0  0  0  0  0  0  0  0  0  0  0
    5.5872    0.8669   -0.0157 H   0  0  0  0  0  0  0  0  0  0  0  0
    4.6718    0.8976    1.5348 H   0  0  0  0  0  0  0  0  0  0  0  0
    4.0175    1.8111    0.1131 H   0  0  0  0  0  0  0  0  0  0  0  0
    4.3729   -1.1342   -0.1519 H   0  0  0  0  0  0  0  0  0  0  0  0
    1.9523   -2.2307    0.4421 H   0  0  0  0  0  0  0  0  0  0  0  0
    2.0035   -1.8596   -1.3014 H   0  0  0  0  0  0  0  0  0  0  0  0
    0.3271    0.0011   -1.9618 H   0  0  0  0  0  0  0  0  0  0  0  0
   -0.9774   -1.1978   -1.9941 H   0  0  0  0  0  0  0  0  0  0  0  0
   -0.8723    1.2188   -0.1237 H   0  0  0  0  0  0  0  0  0  0  0  0
   -2.9123   -0.3094   -1.6566 H   0  0  0  0  0  0  0  0  0  0  0  0
   -3.7309    2.1844   -0.7133 H   0  0  0  0  0  0  0  0  0  0  0  0
   -4.4991    0.6056   -0.4716 H   0  0  0  0  0  0  0  0  0  0  0  0
   -3.9858    1.2972    1.6808 H   0  0  0  0  0  0  0  0  0  0  0  0
   -2.5105    2.1744    1.2484 H   0  0  0  0  0  0  0  0  0  0  0  0
   -2.3723   -1.3919    0.1392 H   0  0  0  0  0  0  0  0  0  0  0  0
   -0.4798   -2.0862    1.5387 H   0  0  0  0  0  0  0  0  0  0  0  0
    0.1791   -0.3704    1.4758 H   0  0  0  0  0  0  0  0  0  0  0  0
  1  2  1  0
  2  3  1  0
  3  4  2  0
  3  5  1  0
  5  6  1  0
  6  7  1  0
  7  8  1  0
  8  9  1  0
  9 10  1  0
 10 11  1  0
 11 12  1  0
 12 13  1  0
 13 14  1  0
 14  6  1  0
 13  8  1  0
  1 15  1  0
  1 16  1  0
  1 17  1  0
  2 18  1  0
  5 19  1  0
  5 20  1  0
  7 21  1  0
  7 22  1  0
  8 23  1  1
  9 24  1  0
 10 25  1  0
 10 26  1  0
 11 27  1  0
 11 28  1  0
 13 29  1  6
 14 30  1  0
 14 31  1  0
M  END
$$$$

     RDKit          3D

 31 32  0  0  0  0  0  0  0  0999 V2000
    4.7955   -0.5083    0.9608 C   0  0  0  0  0  0  0  0  0  0  0  0
    3.5661   -0.7929    0.2264 N   0  0  0  0  0  0  0  0  0  0  0  0
    2.5939    0.2053    0.0104 C   0  0  0  0  0  0  0  0  0  0  0  0
    2.7959    1.3595    0.4636 O   0  0  0  0  0  0  0  0  0  0  0  0
    1.3212   -0.0589   -0.7390 C   0  0  0  0  0  0  0  0  0  0  0  0
    0.4968    1.1117   -0.7977 N   0  0  0  0  0  0  0  0  0  0  0  0
   -0.5738    0.9079   -1.7480 C   0  0  0  0  0  0  0  0  0  0  0  0
   -1.8116    0.5397   -1.0222 C   0  0  1  0  0  0  0  0  0  0  0  0
   -2.3678   -0.7482   -1.3959 N   0  0  0  0  0  0  0  0  0  0  0  0
   -3.1807   -1.1608   -0.2460 C   0  0  0  0  0  0  0  0  0  0  0  0
   -3.5159    0.0082    0.6596 C   0  0  0  0  0  0  0  0  0  0  0  0
   -2.4097    0.6391    1.2123 O   0  0  0  0  0  0  0  0  0  0  0  0
   -1.3082    0.3219    0.4127 C   0  0  2  0  0  0  0  0  0  0  0  0
   -0.1739    1.2746    0.5034 C   0  0  0  0  0  0  0  0  0  0  0  0
    5.2584    0.4105    0.5049 H   0  0  0  0  0  0  0  0  0  0  0  0
    5.5121   -1.3619    0.8666 H   0  0  0  0  0  0  0  0  0  0  0  0
    4.5289   -0.2930    2.0109 H   0  0  0  0  0  0  0  0  0  0  0  0
    3.4331   -1.7813   -0.1345 H   0  0  0  0  0  0  0  0  0  0  0  0
    0.7897   -0.9114   -0.2044 H   0  0  0  0  0  0  0  0  0  0  0  0
    1.6043   -0.4858   -1.7326 H   0  0  0  0  0  0  0  0  0  0  0  0
   -0.7453    1.9348   -2.2026 H   0  0  0  0  0  0  0  0  0  0  0  0
   -0.2884    0.2528   -2.5793 H   0  0  0  0  0  0  0  0  0  0  0  0
   -2.6063    1.3067   -1.0336 H   0  0  0  0  0  0  0  0  0  0  0  0
   -1.6145   -1.4631   -1.4925 H   0  0  0  0  0  0  0  0  0  0  0  0
   -2.7509   -1.9889    0.3138 H   0  0  0  0  0  0  0  0  0  0  0  0
   -4.1584   -1.4790   -0.6933 H   0  0  0  0  0  0  0  0  0  0  0  0
   -4.1033   -0.4212    1.4982 H   0  0  0  0  0  0  0  0  0  0  0  0
   -4.1924    0.6946    0.1169 H   0  0  0  0  0  0  0  0  0  0  0  0
   -1.0117   -0.7038    0.6105 H   0  0  0  0  0  0  0  0  0  0  0  0
    0.5465    0.8741    1.2642 H   0  0  0  0  0  0  0  0  0  0  0  0
   -0.4293    2.3172    0.6858 H   0  0  0  0  0  0  0  0  0  0  0  0
  1  2  1  0
  2  3  1  0
  3  4  2  0
  3  5  1  0
  5  6  1  0
  6  7  1  0
  7  8  1  0
  8  9  1  0
  9 10  1  0
 10 11  1  0
 11 12  1  0
 12 13  1  0
 13 14  1  0
 14  6  1  0
 13  8  1  0
  1 15  1  0
  1 16  1  0
  1 17  1  0
  2 18  1  0
  5 19  1  0
  5 20  1  0
  7 21  1  0
  7 22  1  0
  8 23  1  1
  9 24  1  0
 10 25  1  0
 10 26  1  0
 11 27  1  0
 11 28  1  0
 13 29  1  6
 14 30  1  0
 14 31  1  0
M  END
$$$$

     RDKit          3D

 31 32  0  0  0  0  0  0  0  0999 V2000
    4.5646    0.7811    0.4721 C   0  0  0  0  0  0  0  0  0  0  0  0
    3.8140   -0.2755   -0.1982 N   0  0  0  0  0  0  0  0  0  0  0  0
    2.3868   -0.2569   -0.1618 C   0  0  0  0  0  0  0  0  0  0  0  0
    1.8508    0.6898    0.4605 O   0  0  0  0  0  0  0  0  0  0  0  0
    1.6668   -1.3378   -0.8503 C   0  0  0  0  0  0  0  0  0  0  0  0
    0.2507   -1.2523   -0.7779 N   0  0  0  0  0  0  0  0  0  0  0  0
   -0.3150   -0.1444   -1.5085 C   0  0  0  0  0  0  0  0  0  0  0  0
   -1.2046    0.5642   -0.5533 C   0  0  1  0  0  0  0  0  0  0  0  0
   -2.4271    1.0641   -1.1346 N   0  0  0  0  0  0  0  0  0  0  0  0
   -3.5635    0.7783   -0.3072 C   0  0  0  0  0  0  0  0  0  0  0  0
   -3.2885    0.6751    1.1467 C   0  0  0  0  0  0  0  0  0  0  0  0
   -2.1544   -0.0430    1.4826 O   0  0  0  0  0  0  0  0  0  0  0  0
   -1.6405   -0.6010    0.3493 C   0  0  2  0  0  0  0  0  0  0  0  0
   -0.3330   -1.3170    0.5137 C   0  0  0  0  0  0  0  0  0  0  0  0
    4.7811    0.4177    1.4882 H   0  0  0  0  0  0  0  0  0  0  0  0
    3.9027    1.6647    0.5738 H   0  0  0  0  0  0  0  0  0  0  0  0
    5.4596    1.0896   -0.0651 H   0  0  0  0  0  0  0  0  0  0  0  0
    4.3652   -1.0058   -0.6803 H   0  0  0  0  0  0  0  0  0  0  0  0
    1.9717   -1.3359   -1.9065 H   0  0  0  0  0  0  0  0  0  0  0  0
    1.9625   -2.3274   -0.4141 H   0  0  0  0  0  0  0  0  0  0  0  0
    0.4583    0.4939   -1.9799 H   0  0  0  0  0  0  0  0  0  0  0  0
   -0.9234   -0.5728   -2.3336 H   0  0  0  0  0  0  0  0  0  0  0  0
   -0.7635    1.3802    0.0122 H   0  0  0  0  0  0  0  0  0  0  0  0
   -2.3246    2.0589   -1.4002 H   0  0  0  0  0  0  0  0  0  0  0  0
   -4.2798    1.6372   -0.4528 H   0  0  0  0  0  0  0  0  0  0  0  0
   -4.1126   -0.1087   -0.7174 H   0  0  0  0  0  0  0  0  0  0  0  0
   -4.1521    0.1096    1.6080 H   0  0  0  0  0  0  0  0  0  0  0  0
   -3.2961    1.6620    1.6628 H   0  0  0  0  0  0  0  0  0  0  0  0
   -2.3771   -1.1929   -0.2058 H   0  0  0  0  0  0  0  0  0  0  0  0
    0.2687   -0.9143    1.3365 H   0  0  0  0  0  0  0  0  0  0  0  0
   -0.5476   -2.3807    0.7579 H   0  0  0  0  0  0  0  0  0  0  0  0
  1  2  1  0
  2  3  1  0
  3  4  2  0
  3  5  1  0
  5  6  1  0
  6  7  1  0
  7  8  1  0
  8  9  1  0
  9 10  1  0
 10 11  1  0
 11 12  1  0
 12 13  1  0
 13 14  1  0
 14  6  1  0
 13  8  1  0
  1 15  1  0
  1 16  1  0
  1 17  1  0
  2 18  1  0
  5 19  1  0
  5 20  1  0
  7 21  1  0
  7 22  1  0
  8 23  1  1
  9 24  1  0
 10 25  1  0
 10 26  1  0
 11 27  1  0
 11 28  1  0
 13 29  1  6
 14 30  1  0
 14 31  1  0
M  END
$$$$

     RDKit          3D

 31 32  0  0  0  0  0  0  0  0999 V2000
    5.0910   -0.7684    0.2676 C   0  0  0  0  0  0  0  0  0  0  0  0
    4.0044    0.1378    0.4998 N   0  0  0  0  0  0  0  0  0  0  0  0
    2.7661   -0.0152   -0.1835 C   0  0  0  0  0  0  0  0  0  0  0  0
    2.6836   -0.9723   -0.9857 O   0  0  0  0  0  0  0  0  0  0  0  0
    1.6201    0.8895    0.0204 C   0  0  0  0  0  0  0  0  0  0  0  0
    0.4796    0.5301   -0.7807 N   0  0  0  0  0  0  0  0  0  0  0  0
   -0.6323    1.4429   -0.5804 C   0  0  0  0  0  0  0  0  0  0  0  0
   -1.7431    0.6467    0.0007 C   0  0  1  0  0  0  0  0  0  0  0  0
   -3.0573    1.0523   -0.3899 N   0  0  0  0  0  0  0  0  0  0  0  0
   -3.9652   -0.0252   -0.0423 C   0  0  0  0  0  0  0  0  0  0  0  0
   -3.3159   -1.1287    0.7307 C   0  0  0  0  0  0  0  0  0  0  0  0
   -2.1764   -1.6419    0.1348 O   0  0  0  0  0  0  0  0  0  0  0  0
   -1.4841   -0.7149   -0.6133 C   0  0  2  0  0  0  0  0  0  0  0  0
    0.0122   -0.7952   -0.4525 C   0  0  0  0  0  0  0  0  0  0  0  0
    4.8538   -1.4350   -0.5991 H   0  0  0  0  0  0  0  0  0  0  0  0
    6.0072   -0.1771   -0.0146 H   0  0  0  0  0  0  0  0  0  0  0  0
    5.3183   -1.3583    1.1665 H   0  0  0  0  0  0  0  0  0  0  0  0
    4.0810    0.9296    1.1678 H   0  0  0  0  0  0  0  0  0  0  0  0
    1.2789    0.8106    1.0946 H   0  0  0  0  0  0  0  0  0  0  0  0
    1.8553    1.9568   -0.1408 H   0  0  0  0  0  0  0  0  0  0  0  0
   -0.3032    2.1828    0.1907 H   0  0  0  0  0  0  0  0  0  0  0  0
   -0.9029    2.0063   -1.4908 H   0  0  0  0  0  0  0  0  0  0  0  0
   -1.6513    0.5754    1.1011 H   0  0  0  0  0  0  0  0  0  0  0  0
   -3.3533    1.9701   -0.0383 H   0  0  0  0  0  0  0  0  0  0  0  0
   -4.5444   -0.3856   -0.9162 H   0  0  0  0  0  0  0  0  0  0  0  0
   -4.7314    0.4368    0.6394 H   0  0  0  0  0  0  0  0  0  0  0  0
   -4.0636   -1.9707    0.7659 H   0  0  0  0  0  0  0  0  0  0  0  0
   -3.0822   -0.8514    1.7596 H   0  0  0  0  0  0  0  0  0  0  0  0
   -1.7529   -0.7520   -1.6711 H   0  0  0  0  0  0  0  0  0  0  0  0
    0.2789   -1.0720    0.6041 H   0  0  0  0  0  0  0  0  0  0  0  0
    0.4292   -1.5040   -1.1908 H   0  0  0  0  0  0  0  0  0  0  0  0
  1  2  1  0
  2  3  1  0
  3  4  2  0
  3  5  1  0
  5  6  1  0
  6  7  1  0
  7  8  1  0
  8  9  1  0
  9 10  1  0
 10 11  1  0
 11 12  1  0
 12 13  1  0
 13 14  1  0
 14  6  1  0
 13  8  1  0
  1 15  1  0
  1 16  1  0
  1 17  1  0
  2 18  1  0
  5 19  1  0
  5 20  1  0
  7 21  1  0
  7 22  1  0
  8 23  1  1
  9 24  1  0
 10 25  1  0
 10 26  1  0
 11 27  1  0
 11 28  1  0
 13 29  1  6
 14 30  1  0
 14 31  1  0
M  END
$$$$

     RDKit          3D

 31 32  0  0  0  0  0  0  0  0999 V2000
    5.0769   -0.0714    1.1484 C   0  0  0  0  0  0  0  0  0  0  0  0
    4.1289    0.3678    0.1459 N   0  0  0  0  0  0  0  0  0  0  0  0
    2.7743   -0.1018    0.2124 C   0  0  0  0  0  0  0  0  0  0  0  0
    2.4788   -0.8795    1.1505 O   0  0  0  0  0  0  0  0  0  0  0  0
    1.7896    0.3353   -0.8032 C   0  0  0  0  0  0  0  0  0  0  0  0
    0.5165   -0.2710   -0.4959 N   0  0  0  0  0  0  0  0  0  0  0  0
   -0.4830    0.0684   -1.5228 C   0  0  0  0  0  0  0  0  0  0  0  0
   -1.7581    0.3689   -0.8158 C   0  0  1  0  0  0  0  0  0  0  0  0
   -2.9219   -0.2951   -1.3081 N   0  0  0  0  0  0  0  0  0  0  0  0
   -3.8735   -0.6517   -0.2978 C   0  0  0  0  0  0  0  0  0  0  0  0
   -3.6524   -0.1345    1.0522 C   0  0  0  0  0  0  0  0  0  0  0  0
   -2.4003    0.2733    1.4056 O   0  0  0  0  0  0  0  0  0  0  0  0
   -1.4792   -0.2467    0.5577 C   0  0  2  0  0  0  0  0  0  0  0  0
   -0.0608    0.3103    0.7329 C   0  0  0  0  0  0  0  0  0  0  0  0
    6.0727   -0.2709    0.7254 H   0  0  0  0  0  0  0  0  0  0  0  0
    4.6962   -1.0413    1.5746 H   0  0  0  0  0  0  0  0  0  0  0  0
    5.1647    0.6924    1.9597 H   0  0  0  0  0  0  0  0  0  0  0  0
    4.3930    1.0074   -0.6169 H   0  0  0  0  0  0  0  0  0  0  0  0
    2.1230    0.0213   -1.8085 H   0  0  0  0  0  0  0  0  0  0  0  0
    1.6920    1.4408   -0.7540 H   0  0  0  0  0  0  0  0  0  0  0  0
   -0.1544    0.9788   -2.0536 H   0  0  0  0  0  0  0  0  0  0  0  0
   -0.6129   -0.7585   -2.2524 H   0  0  0  0  0  0  0  0  0  0  0  0
   -1.9165    1.4563   -0.6422 H   0  0  0  0  0  0  0  0  0  0  0  0
   -3.3183    0.1347   -2.1489 H   0  0  0  0  0  0  0  0  0  0  0  0
   -4.8836   -0.3718   -0.6813 H   0  0  0  0  0  0  0  0  0  0  0  0
   -3.8925   -1.7826   -0.2671 H   0  0  0  0  0  0  0  0  0  0  0  0
   -4.3515    0.7294    1.2326 H   0  0  0  0  0  0  0  0  0  0  0  0
   -3.9745   -0.8995    1.8194 H   0  0  0  0  0  0  0  0  0  0  0  0
   -1.4407   -1.3513    0.5075 H   0  0  0  0  0  0  0  0  0  0  0  0
   -0.1424    1.3981    0.6076 H   0  0  0  0  0  0  0  0  0  0  0  0
    0.4099   -0.0418    1.6357 H   0  0  0  0  0  0  0  0  0  0  0  0
  1  2  1  0
  2  3  1  0
  3  4  2  0
  3  5  1  0
  5  6  1  0
  6  7  1  0
  7  8  1  0
  8  9  1  0
  9 10  1  0
 10 11  1  0
 11 12  1  0
 12 13  1  0
 13 14  1  0
 14  6  1  0
 13  8  1  0
  1 15  1  0
  1 16  1  0
  1 17  1  0
  2 18  1  0
  5 19  1  0
  5 20  1  0
  7 21  1  0
  7 22  1  0
  8 23  1  1
  9 24  1  0
 10 25  1  0
 10 26  1  0
 11 27  1  0
 11 28  1  0
 13 29  1  6
 14 30  1  0
 14 31  1  0
M  END
$$$$
