
     RDKit          3D

 29 29  0  0  0  0  0  0  0  0999 V2000
    3.9213    1.0748   -0.8709 N   0  0  0  0  0  0  0  0  0  0  0  0
    4.0916    1.0984    0.5567 C   0  0  0  0  0  0  0  0  0  0  0  0
    2.8587    0.6016    1.2605 C   0  0  0  0  0  0  0  0  0  0  0  0
    2.8242    0.5512    2.5161 O   0  0  0  0  0  0  0  0  0  0  0  0
    1.7110    0.1796    0.5467 N   0  0  0  0  0  0  0  0  0  0  0  0
    0.5611   -0.2859    1.2714 C   0  0  0  0  0  0  0  0  0  0  0  0
   -0.5770   -0.6987    0.3769 C   0  0  2  0  0  0  0  0  0  0  0  0
   -1.1341    0.4753   -0.4025 C   0  0  0  0  0  0  0  0  0  0  0  0
   -2.3793    0.0803   -1.1252 C   0  0  2  0  0  0  0  0  0  0  0  0
   -3.0673    1.2276   -1.5150 O   0  0  0  0  0  0  0  0  0  0  0  0
   -3.3066   -0.7865   -0.3411 C   0  0  0  0  0  0  0  0  0  0  0  0
   -2.5433   -1.7973    0.4505 C   0  0  0  0  0  0  0  0  0  0  0  0
   -1.6174   -1.1259    1.2357 O   0  0  0  0  0  0  0  0  0  0  0  0
    3.9019    0.1093   -1.2648 H   0  0  0  0  0  0  0  0  0  0  0  0
    3.0815    1.6328   -1.1228 H   0  0  0  0  0  0  0  0  0  0  0  0
    4.8903    0.3656    0.8105 H   0  0  0  0  0  0  0  0  0  0  0  0
    4.3454    2.1193    0.8642 H   0  0  0  0  0  0  0  0  0  0  0  0
    1.7356    0.2200   -0.4966 H   0  0  0  0  0  0  0  0  0  0  0  0
    0.2329    0.4767    1.9789 H   0  0  0  0  0  0  0  0  0  0  0  0
    0.8760   -1.1854    1.8417 H   0  0  0  0  0  0  0  0  0  0  0  0
   -0.3225   -1.4913   -0.3236 H   0  0  0  0  0  0  0  0  0  0  0  0
   -0.3753    0.7736   -1.1723 H   0  0  0  0  0  0  0  0  0  0  0  0
   -1.2941    1.3677    0.2363 H   0  0  0  0  0  0  0  0  0  0  0  0
   -2.0858   -0.4605   -2.0668 H   0  0  0  0  0  0  0  0  0  0  0  0
   -3.1124    1.8986   -0.7753 H   0  0  0  0  0  0  0  0  0  0  0  0
   -3.9580   -1.3304   -1.0539 H   0  0  0  0  0  0  0  0  0  0  0  0
   -3.9689   -0.2232    0.3489 H   0  0  0  0  0  0  0  0  0  0  0  0
   -2.0417   -2.5246   -0.1912 H   0  0  0  0  0  0  0  0  0  0  0  0
   -3.2476   -2.3427    1.1170 H   0  0  0  0  0  0  0  0  0  0  0  0
  1  2  1  0
  2  3  1  0
  3  4  2  0
  3  5  1  0
  5  6  1  0
  6  7  1  0
  7  8  1  0
  8  9  1  0
  9 10  1  0
  9 11  1  0
 11 12  1  0
 12 13  1  0
 13  7  1  0
  1 14  1  0
  1 15  1  0
  2 16  1  0
  2 17  1  0
  5 18  1  0
  6 19  1  0
  6 20  1  0
  7 21  1  6
  8 22  1  0
  8 23  1  0
  9 24  1  6
 10 25  1  0
 11 26  1  0
 11 27  1  0
 12 28  1  0
 12 29  1  0
M  END
$$$$

     RDKit          3D

 29 29  0  0  0  0  0  0  0  0999 V2000
    5.2270    0.3145   -0.2215 N   0  0  0  0  0  0  0  0  0  0  0  0
    4.0092   -0.4376   -0.4388 C   0  0  0  0  0  0  0  0  0  0  0  0
    2.9102    0.2233    0.2618 C   0  0  0  0  0  0  0  0  0  0  0  0
    3.1276    1.2734    0.9137 O   0  0  0  0  0  0  0  0  0  0  0  0
    1.5593   -0.2643    0.2528 N   0  0  0  0  0  0  0  0  0  0  0  0
    0.5446    0.4559    0.9733 C   0  0  0  0  0  0  0  0  0  0  0  0
   -0.8200   -0.1934    0.8592 C   0  0  2  0  0  0  0  0  0  0  0  0
   -1.1667   -0.2434   -0.6052 C   0  0  0  0  0  0  0  0  0  0  0  0
   -2.6319   -0.5665   -0.7711 C   0  0  2  0  0  0  0  0  0  0  0  0
   -3.0199   -0.6628   -2.0788 O   0  0  0  0  0  0  0  0  0  0  0  0
   -3.3740    0.5479   -0.0213 C   0  0  0  0  0  0  0  0  0  0  0  0
   -3.0088    0.3043    1.4455 C   0  0  0  0  0  0  0  0  0  0  0  0
   -1.6728    0.6097    1.5971 O   0  0  0  0  0  0  0  0  0  0  0  0
    5.8726    0.2720   -1.0448 H   0  0  0  0  0  0  0  0  0  0  0  0
    4.9474    1.3232   -0.0412 H   0  0  0  0  0  0  0  0  0  0  0  0
    3.8683   -0.5057   -1.5351 H   0  0  0  0  0  0  0  0  0  0  0  0
    4.1536   -1.4932   -0.0918 H   0  0  0  0  0  0  0  0  0  0  0  0
    1.4029   -1.1376   -0.2950 H   0  0  0  0  0  0  0  0  0  0  0  0
    0.8585    0.4470    2.0573 H   0  0  0  0  0  0  0  0  0  0  0  0
    0.4594    1.5207    0.6815 H   0  0  0  0  0  0  0  0  0  0  0  0
   -0.8010   -1.2413    1.2232 H   0  0  0  0  0  0  0  0  0  0  0  0
   -0.9672    0.7323   -1.0777 H   0  0  0  0  0  0  0  0  0  0  0  0
   -0.5170   -1.0098   -1.0697 H   0  0  0  0  0  0  0  0  0  0  0  0
   -2.8385   -1.5032   -0.1868 H   0  0  0  0  0  0  0  0  0  0  0  0
   -3.9165   -1.0858   -2.1076 H   0  0  0  0  0  0  0  0  0  0  0  0
   -2.8943    1.5094   -0.3002 H   0  0  0  0  0  0  0  0  0  0  0  0
   -4.4479    0.5219   -0.1958 H   0  0  0  0  0  0  0  0  0  0  0  0
   -3.2756   -0.7202    1.6979 H   0  0  0  0  0  0  0  0  0  0  0  0
   -3.5886    1.0093    2.0565 H   0  0  0  0  0  0  0  0  0  0  0  0
  1  2  1  0
  2  3  1  0
  3  4  2  0
  3  5  1  0
  5  6  1  0
  6  7  1  0
  7  8  1  0
  8  9  1  0
  9 10  1  0
  9 11  1  0
 11 12  1  0
 12 13  1  0
 13  7  1  0
  1 14  1  0
  1 15  1  0
  2 16  1  0
  2 17  1  0
  5 18  1  0
  6 19  1  0
  6 20  1  0
  7 21  1  1
  8 22  1  0
  8 23  1  0
  9 24  1  1
 10 25  1  0
 11 26  1  0
 11 27  1  0
 12 28  1  0
 12 29  1  0
M  END
$$$$

     RDKit          3D

 29 29  0  0  0  0  0  0  0  0999 V2000
   -4.6172    1.4203    0.3963 N   0  0  0  0  0  0  0  0  0  0  0  0
   -3.9413    0.2052    0.8030 C   0  0  0  0  0  0  0  0  0  0  0  0
   -2.6681    0.1217    0.0499 C   0  0  0  0  0  0  0  0  0  0  0  0
   -2.3451    1.0154   -0.7712 O   0  0  0  0  0  0  0  0  0  0  0  0
   -1.7490   -0.9637    0.2124 N   0  0  0  0  0  0  0  0  0  0  0  0
   -0.5184   -1.0757   -0.4939 C   0  0  0  0  0  0  0  0  0  0  0  0
    0.4378    0.0645   -0.2565 C   0  0  2  0  0  0  0  0  0  0  0  0
    1.6431   -0.1740   -1.1470 C   0  0  0  0  0  0  0  0  0  0  0  0
    2.7966    0.7316   -0.7812 C   0  0  2  0  0  0  0  0  0  0  0  0
    3.8629    0.3739   -1.6219 O   0  0  0  0  0  0  0  0  0  0  0  0
    3.1446    0.5044    0.6543 C   0  0  0  0  0  0  0  0  0  0  0  0
    2.0657   -0.3092    1.3468 C   0  0  0  0  0  0  0  0  0  0  0  0
    0.7959    0.1970    1.0732 O   0  0  0  0  0  0  0  0  0  0  0  0
   -5.3994    1.2354   -0.2726 H   0  0  0  0  0  0  0  0  0  0  0  0
   -3.9627    2.0729   -0.1219 H   0  0  0  0  0  0  0  0  0  0  0  0
   -3.7638    0.2320    1.8985 H   0  0  0  0  0  0  0  0  0  0  0  0
   -4.6234   -0.6333    0.5810 H   0  0  0  0  0  0  0  0  0  0  0  0
   -2.0497   -1.6932    0.9063 H   0  0  0  0  0  0  0  0  0  0  0  0
   -0.0101   -2.0138   -0.1923 H   0  0  0  0  0  0  0  0  0  0  0  0
   -0.6466   -1.1525   -1.6033 H   0  0  0  0  0  0  0  0  0  0  0  0
   -0.0158    1.0103   -0.5835 H   0  0  0  0  0  0  0  0  0  0  0  0
    1.9615   -1.2274   -1.1057 H   0  0  0  0  0  0  0  0  0  0  0  0
    1.3214    0.0504   -2.1820 H   0  0  0  0  0  0  0  0  0  0  0  0
    2.4713    1.7760   -0.9473 H   0  0  0  0  0  0  0  0  0  0  0  0
    4.0967   -0.5675   -1.3403 H   0  0  0  0  0  0  0  0  0  0  0  0
    4.1029   -0.0480    0.7830 H   0  0  0  0  0  0  0  0  0  0  0  0
    3.2388    1.4576    1.2304 H   0  0  0  0  0  0  0  0  0  0  0  0
    2.2386   -0.2339    2.4263 H   0  0  0  0  0  0  0  0  0  0  0  0
    2.1328   -1.3737    1.0591 H   0  0  0  0  0  0  0  0  0  0  0  0
  1  2  1  0
  2  3  1  0
  3  4  2  0
  3  5  1  0
  5  6  1  0
  6  7  1  0
  7  8  1  0
  8  9  1  0
  9 10  1  0
  9 11  1  0
 11 12  1  0
 12 13  1  0
 13  7  1  0
  1 14  1  0
  1 15  1  0
  2 16  1  0
  2 17  1  0
  5 18  1  0
  6 19  1  0
  6 20  1  0
  7 21  1  6
  8 22  1  0
  8 23  1  0
  9 24  1  1
 10 25  1  0
 11 26  1  0
 11 27  1  0
 12 28  1  0
 12 29  1  0
M  END
$$$$

     RDKit          3D

 29 29  0  0  0  0  0  0  0  0999 V2000
    4.2498    0.0004   -0.2727 N   0  0  0  0  0  0  0  0  0  0  0  0
    3.5332   -0.4810    0.8668 C   0  0  0  0  0  0  0  0  0  0  0  0
    2.1181   -0.7831    0.4756 C   0  0  0  0  0  0  0  0  0  0  0  0
    1.3224   -1.2140    1.3191 O   0  0  0  0  0  0  0  0  0  0  0  0
    1.7320   -0.5633   -0.8630 N   0  0  0  0  0  0  0  0  0  0  0  0
    0.4474   -0.7583   -1.4353 C   0  0  0  0  0  0  0  0  0  0  0  0
   -0.6105    0.1541   -0.9764 C   0  0  2  0  0  0  0  0  0  0  0  0
   -0.8911    0.3368    0.4656 C   0  0  0  0  0  0  0  0  0  0  0  0
   -2.1348    1.2647    0.5176 C   0  0  2  0  0  0  0  0  0  0  0  0
   -2.3015    1.8395    1.7455 O   0  0  0  0  0  0  0  0  0  0  0  0
   -3.2795    0.3463    0.1153 C   0  0  0  0  0  0  0  0  0  0  0  0
   -2.7647   -0.7271   -0.8420 C   0  0  0  0  0  0  0  0  0  0  0  0
   -1.7845   -0.2109   -1.6777 O   0  0  0  0  0  0  0  0  0  0  0  0
    4.8186   -0.7425   -0.6967 H   0  0  0  0  0  0  0  0  0  0  0  0
    4.8526    0.8159    0.0271 H   0  0  0  0  0  0  0  0  0  0  0  0
    4.0089   -1.3934    1.2832 H   0  0  0  0  0  0  0  0  0  0  0  0
    3.4985    0.3042    1.6667 H   0  0  0  0  0  0  0  0  0  0  0  0
    2.4970   -0.2025   -1.5391 H   0  0  0  0  0  0  0  0  0  0  0  0
    0.5586   -0.6807   -2.5675 H   0  0  0  0  0  0  0  0  0  0  0  0
    0.1438   -1.8484   -1.3240 H   0  0  0  0  0  0  0  0  0  0  0  0
   -0.4059    1.2100   -1.3781 H   0  0  0  0  0  0  0  0  0  0  0  0
   -0.1033    0.9291    0.9704 H   0  0  0  0  0  0  0  0  0  0  0  0
   -1.1795   -0.5467    1.0340 H   0  0  0  0  0  0  0  0  0  0  0  0
   -1.9750    2.0296   -0.2563 H   0  0  0  0  0  0  0  0  0  0  0  0
   -2.5800    2.7946    1.6581 H   0  0  0  0  0  0  0  0  0  0  0  0
   -3.6924   -0.1703    0.9944 H   0  0  0  0  0  0  0  0  0  0  0  0
   -4.0381    0.9238   -0.4292 H   0  0  0  0  0  0  0  0  0  0  0  0
   -2.4207   -1.6258   -0.3205 H   0  0  0  0  0  0  0  0  0  0  0  0
   -3.6192   -1.0010   -1.4894 H   0  0  0  0  0  0  0  0  0  0  0  0
  1  2  1  0
  2  3  1  0
  3  4  2  0
  3  5  1  0
  5  6  1  0
  6  7  1  0
  7  8  1  0
  8  9  1  0
  9 10  1  0
  9 11  1  0
 11 12  1  0
 12 13  1  0
 13  7  1  0
  1 14  1  0
  1 15  1  0
  2 16  1  0
  2 17  1  0
  5 18  1  0
  6 19  1  0
  6 20  1  0
  7 21  1  6
  8 22  1  0
  8 23  1  0
  9 24  1  6
 10 25  1  0
 11 26  1  0
 11 27  1  0
 12 28  1  0
 12 29  1  0
M  END
$$$$

     RDKit          3D

 29 29  0  0  0  0  0  0  0  0999 V2000
    5.0944    1.1586    0.1086 N   0  0  0  0  0  0  0  0  0  0  0  0
    3.9758    0.4408   -0.4285 C   0  0  0  0  0  0  0  0  0  0  0  0
    2.7917    0.5317    0.4879 C   0  0  0  0  0  0  0  0  0  0  0  0
    2.9241    1.1869    1.5468 O   0  0  0  0  0  0  0  0  0  0  0  0
    1.5543   -0.0948    0.1860 N   0  0  0  0  0  0  0  0  0  0  0  0
    0.4817    0.0616    1.1454 C   0  0  0  0  0  0  0  0  0  0  0  0
   -0.7826   -0.6520    0.7086 C   0  0  2  0  0  0  0  0  0  0  0  0
   -1.1398   -0.1717   -0.6451 C   0  0  0  0  0  0  0  0  0  0  0  0
   -2.6144    0.0268   -0.8698 C   0  0  2  0  0  0  0  0  0  0  0  0
   -2.9279    1.3566   -0.6013 O   0  0  0  0  0  0  0  0  0  0  0  0
   -3.4270   -0.8603    0.0384 C   0  0  0  0  0  0  0  0  0  0  0  0
   -2.9853   -0.8184    1.4459 C   0  0  0  0  0  0  0  0  0  0  0  0
   -1.7147   -0.4318    1.6893 O   0  0  0  0  0  0  0  0  0  0  0  0
    5.2499    1.9947   -0.5223 H   0  0  0  0  0  0  0  0  0  0  0  0
    5.9201    0.5507    0.1138 H   0  0  0  0  0  0  0  0  0  0  0  0
    4.2123   -0.6426   -0.4987 H   0  0  0  0  0  0  0  0  0  0  0  0
    3.7016    0.7743   -1.4680 H   0  0  0  0  0  0  0  0  0  0  0  0
    1.4702   -0.6305   -0.6953 H   0  0  0  0  0  0  0  0  0  0  0  0
    0.2642    1.1521    1.2393 H   0  0  0  0  0  0  0  0  0  0  0  0
    0.8350   -0.2983    2.1444 H   0  0  0  0  0  0  0  0  0  0  0  0
   -0.5154   -1.7416    0.6700 H   0  0  0  0  0  0  0  0  0  0  0  0
   -0.7820   -0.8982   -1.4024 H   0  0  0  0  0  0  0  0  0  0  0  0
   -0.6111    0.7886   -0.8876 H   0  0  0  0  0  0  0  0  0  0  0  0
   -2.9324   -0.1823   -1.9119 H   0  0  0  0  0  0  0  0  0  0  0  0
   -3.3334    1.8229   -1.3732 H   0  0  0  0  0  0  0  0  0  0  0  0
   -3.4192   -1.9009   -0.3409 H   0  0  0  0  0  0  0  0  0  0  0  0
   -4.4823   -0.5184   -0.0261 H   0  0  0  0  0  0  0  0  0  0  0  0
   -3.6747   -0.1622    2.0485 H   0  0  0  0  0  0  0  0  0  0  0  0
   -3.1330   -1.8423    1.8953 H   0  0  0  0  0  0  0  0  0  0  0  0
  1  2  1  0
  2  3  1  0
  3  4  2  0
  3  5  1  0
  5  6  1  0
  6  7  1  0
  7  8  1  0
  8  9  1  0
  9 10  1  0
  9 11  1  0
 11 12  1  0
 12 13  1  0
 13  7  1  0
  1 14  1  0
  1 15  1  0
  2 16  1  0
  2 17  1  0
  5 18  1  0
  6 19  1  0
  6 20  1  0
  7 21  1  6
  8 22  1  0
  8 23  1  0
  9 24  1  6
 10 25  1  0
 11 26  1  0
 11 27  1  0
 12 28  1  0
 12 29  1  0
M  END
$$$$

     RDKit          3D

 29 29  0  0  0  0  0  0  0  0999 V2000
    4.4919   -1.2833   -0.1076 N   0  0  0  0  0  0  0  0  0  0  0  0
    3.6855   -0.2694   -0.7284 C   0  0  0  0  0  0  0  0  0  0  0  0
    2.5227    0.0775    0.1635 C   0  0  0  0  0  0  0  0  0  0  0  0
    2.3890   -0.4975    1.2513 O   0  0  0  0  0  0  0  0  0  0  0  0
    1.5889    1.0618   -0.2512 N   0  0  0  0  0  0  0  0  0  0  0  0
    0.4717    1.4028    0.5914 C   0  0  0  0  0  0  0  0  0  0  0  0
   -0.4465    0.2321    0.8788 C   0  0  2  0  0  0  0  0  0  0  0  0
   -0.9954   -0.3294   -0.3975 C   0  0  0  0  0  0  0  0  0  0  0  0
   -2.2956   -1.0372   -0.0665 C   0  0  2  0  0  0  0  0  0  0  0  0
   -2.7199   -1.8389   -1.1157 O   0  0  0  0  0  0  0  0  0  0  0  0
   -3.3073    0.0245    0.3045 C   0  0  0  0  0  0  0  0  0  0  0  0
   -2.5513    1.1646    0.9594 C   0  0  0  0  0  0  0  0  0  0  0  0
   -1.4688    0.7052    1.6928 O   0  0  0  0  0  0  0  0  0  0  0  0
    5.0125   -1.8784   -0.7747 H   0  0  0  0  0  0  0  0  0  0  0  0
    3.9748   -1.8488    0.5991 H   0  0  0  0  0  0  0  0  0  0  0  0
    3.3123   -0.6071   -1.7056 H   0  0  0  0  0  0  0  0  0  0  0  0
    4.3132    0.6484   -0.8167 H   0  0  0  0  0  0  0  0  0  0  0  0
    1.7212    1.5283   -1.1620 H   0  0  0  0  0  0  0  0  0  0  0  0
   -0.1491    2.1857    0.0967 H   0  0  0  0  0  0  0  0  0  0  0  0
    0.8372    1.8728    1.5312 H   0  0  0  0  0  0  0  0  0  0  0  0
    0.0776   -0.5552    1.4894 H   0  0  0  0  0  0  0  0  0  0  0  0
   -1.2491    0.5093   -1.0775 H   0  0  0  0  0  0  0  0  0  0  0  0
   -0.2763   -1.0175   -0.8959 H   0  0  0  0  0  0  0  0  0  0  0  0
   -2.1174   -1.6367    0.8562 H   0  0  0  0  0  0  0  0  0  0  0  0
   -3.5787   -2.2465   -0.8415 H   0  0  0  0  0  0  0  0  0  0  0  0
   -4.1107   -0.3748    0.9565 H   0  0  0  0  0  0  0  0  0  0  0  0
   -3.7474    0.3960   -0.6663 H   0  0  0  0  0  0  0  0  0  0  0  0
   -2.1547    1.8425    0.1673 H   0  0  0  0  0  0  0  0  0  0  0  0
   -3.2303    1.7692    1.6099 H   0  0  0  0  0  0  0  0  0  0  0  0
  1  2  1  0
  2  3  1  0
  3  4  2  0
  3  5  1  0
  5  6  1  0
  6  7  1  0
  7  8  1  0
  8  9  1  0
  9 10  1  0
  9 11  1  0
 11 12  1  0
 12 13  1  0
 13  7  1  0
  1 14  1  0
  1 15  1  0
  2 16  1  0
  2 17  1  0
  5 18  1  0
  6 19  1  0
  6 20  1  0
  7 21  1  1
  8 22  1  0
  8 23  1  0
  9 24  1  1
 10 25  1  0
 11 26  1  0
 11 27  1  0
 12 28  1  0
 12 29  1  0
M  END
$$$$

     RDKit          3D

 29 29  0  0  0  0  0  0  0  0999 V2000
    4.1741    0.7679   -0.6457 N   0  0  0  0  0  0  0  0  0  0  0  0
    3.8321    0.6070    0.7199 C   0  0  0  0  0  0  0  0  0  0  0  0
    2.5091   -0.0938    0.8606 C   0  0  0  0  0  0  0  0  0  0  0  0
    2.0184   -0.3373    1.9920 O   0  0  0  0  0  0  0  0  0  0  0  0
    1.7555   -0.5114   -0.2713 N   0  0  0  0  0  0  0  0  0  0  0  0
    0.4837   -1.1851   -0.1309 C   0  0  0  0  0  0  0  0  0  0  0  0
   -0.5366   -0.3653    0.5953 C   0  0  2  0  0  0  0  0  0  0  0  0
   -1.8232   -1.1751    0.6395 C   0  0  0  0  0  0  0  0  0  0  0  0
   -2.7496   -0.6353   -0.4365 C   0  0  2  0  0  0  0  0  0  0  0  0
   -2.1296   -0.5859   -1.6786 O   0  0  0  0  0  0  0  0  0  0  0  0
   -3.1296    0.7703   -0.0303 C   0  0  0  0  0  0  0  0  0  0  0  0
   -1.8719    1.4640    0.4488 C   0  0  0  0  0  0  0  0  0  0  0  0
   -0.7701    0.8340   -0.1003 O   0  0  0  0  0  0  0  0  0  0  0  0
    3.4966    1.2282   -1.2484 H   0  0  0  0  0  0  0  0  0  0  0  0
    4.8057    0.0892   -1.0566 H   0  0  0  0  0  0  0  0  0  0  0  0
    4.5738   -0.0559    1.2042 H   0  0  0  0  0  0  0  0  0  0  0  0
    3.8182    1.5542    1.3088 H   0  0  0  0  0  0  0  0  0  0  0  0
    2.1589   -0.3115   -1.2130 H   0  0  0  0  0  0  0  0  0  0  0  0
    0.0843   -1.4049   -1.1391 H   0  0  0  0  0  0  0  0  0  0  0  0
    0.5768   -2.1613    0.3868 H   0  0  0  0  0  0  0  0  0  0  0  0
   -0.2796   -0.1151    1.6273 H   0  0  0  0  0  0  0  0  0  0  0  0
   -2.3416   -1.0370    1.6115 H   0  0  0  0  0  0  0  0  0  0  0  0
   -1.6477   -2.2449    0.4090 H   0  0  0  0  0  0  0  0  0  0  0  0
   -3.6168   -1.3040   -0.5103 H   0  0  0  0  0  0  0  0  0  0  0  0
   -2.2773    0.2738   -2.1480 H   0  0  0  0  0  0  0  0  0  0  0  0
   -3.6256    1.3312   -0.8358 H   0  0  0  0  0  0  0  0  0  0  0  0
   -3.8314    0.6850    0.8447 H   0  0  0  0  0  0  0  0  0  0  0  0
   -1.8892    2.5262    0.1549 H   0  0  0  0  0  0  0  0  0  0  0  0
   -1.7678    1.3925    1.5664 H   0  0  0  0  0  0  0  0  0  0  0  0
  1  2  1  0
  2  3  1  0
  3  4  2  0
  3  5  1  0
  5  6  1  0
  6  7  1  0
  7  8  1  0
  8  9  1  0
  9 10  1  0
  9 11  1  0
 11 12  1  0
 12 13  1  0
 13  7  1  0
  1 14  1  0
  1 15  1  0
  2 16  1  0
  2 17  1  0
  5 18  1  0
  6 19  1  0
  6 20  1  0
  7 21  1  1
  8 22  1  0
  8 23  1  0
  9 24  1  6
 10 25  1  0
 11 26  1  0
 11 27  1  0
 12 28  1  0
 12 29  1  0
M  END
$$$$

     RDKit          3D

 29 29  0  0  0  0  0  0  0  0999 V2000
    4.5718    0.8183    0.8925 N   0  0  0  0  0  0  0  0  0  0  0  0
    3.6274    1.2819   -0.0982 C   0  0  0  0  0  0  0  0  0  0  0  0
    2.5229    0.2951   -0.2973 C   0  0  0  0  0  0  0  0  0  0  0  0
    2.5402   -0.7555    0.3747 O   0  0  0  0  0  0  0  0  0  0  0  0
    1.5183    0.6136   -1.2416 N   0  0  0  0  0  0  0  0  0  0  0  0
    0.4091   -0.2606   -1.5104 C   0  0  0  0  0  0  0  0  0  0  0  0
   -0.3785   -0.4454   -0.2640 C   0  0  2  0  0  0  0  0  0  0  0  0
   -1.5275   -1.4447   -0.4473 C   0  0  0  0  0  0  0  0  0  0  0  0
   -2.5644   -1.0141    0.5717 C   0  0  2  0  0  0  0  0  0  0  0  0
   -3.4912   -2.0089    0.8304 O   0  0  0  0  0  0  0  0  0  0  0  0
   -3.2054    0.2375    0.0047 C   0  0  0  0  0  0  0  0  0  0  0  0
   -2.0487    1.1526   -0.4066 C   0  0  0  0  0  0  0  0  0  0  0  0
   -0.8635    0.7658    0.2080 O   0  0  0  0  0  0  0  0  0  0  0  0
    4.0908    0.4326    1.7127 H   0  0  0  0  0  0  0  0  0  0  0  0
    5.2029    0.1058    0.4483 H   0  0  0  0  0  0  0  0  0  0  0  0
    3.2052    2.2594    0.2373 H   0  0  0  0  0  0  0  0  0  0  0  0
    4.1732    1.3769   -1.0610 H   0  0  0  0  0  0  0  0  0  0  0  0
    1.5843    1.5099   -1.7580 H   0  0  0  0  0  0  0  0  0  0  0  0
   -0.1812    0.1562   -2.3513 H   0  0  0  0  0  0  0  0  0  0  0  0
    0.8471   -1.2279   -1.8400 H   0  0  0  0  0  0  0  0  0  0  0  0
    0.2579   -0.8939    0.5172 H   0  0  0  0  0  0  0  0  0  0  0  0
   -1.1908   -2.4756   -0.2235 H   0  0  0  0  0  0  0  0  0  0  0  0
   -1.9686   -1.3623   -1.4603 H   0  0  0  0  0  0  0  0  0  0  0  0
   -2.0574   -0.7048    1.5122 H   0  0  0  0  0  0  0  0  0  0  0  0
   -3.2043   -2.4674    1.6609 H   0  0  0  0  0  0  0  0  0  0  0  0
   -3.9033    0.7217    0.6858 H   0  0  0  0  0  0  0  0  0  0  0  0
   -3.6961   -0.0864   -0.9569 H   0  0  0  0  0  0  0  0  0  0  0  0
   -1.9710    1.2618   -1.4943 H   0  0  0  0  0  0  0  0  0  0  0  0
   -2.2992    2.1585    0.0051 H   0  0  0  0  0  0  0  0  0  0  0  0
  1  2  1  0
  2  3  1  0
  3  4  2  0
  3  5  1  0
  5  6  1  0
  6  7  1  0
  7  8  1  0
  8  9  1  0
  9 10  1  0
  9 11  1  0
 11 12  1  0
 12 13  1  0
 13  7  1  0
  1 14  1  0
  1 15  1  0
  2 16  1  0
  2 17  1  0
  5 18  1  0
  6 19  1  0
  6 20  1  0
  7 21  1  1
  8 22  1  0
  8 23  1  0
  9 24  1  1
 10 25  1  0
 11 26  1  0
 11 27  1  0
 12 28  1  0
 12 29  1  0
M  END
$$$$
