
     RDKit          3D

 27 27  0  0  0  0  0  0  0  0999 V2000
    4.0654    1.0900   -0.0082 N   0  0  0  0  0  0  0  0  0  0  0  0
    2.7175    0.7265    0.3023 C   0  0  0  0  0  0  0  0  0  0  0  0
    2.5855   -0.7709    0.5341 C   0  0  0  0  0  0  0  0  0  0  0  0
    1.1228   -1.0651    0.8573 C   0  0  0  0  0  0  0  0  0  0  0  0
    0.1375   -0.5555   -0.5068 S   0  0  0  0  0  4  0  0  0  0  0  0
    0.7076   -0.8147   -1.8576 O   0  0  0  0  0  0  0  0  0  0  0  0
   -1.5902   -0.8058   -0.3422 C   0  0  2  0  0  0  0  0  0  0  0  0
   -2.2874   -0.3166   -1.5951 C   0  0  0  0  0  0  0  0  0  0  0  0
   -3.6069   -0.2169   -1.1561 O   0  0  0  0  0  0  0  0  0  0  0  0
   -3.4850    0.5446    0.0105 C   0  0  0  0  0  0  0  0  0  0  0  0
   -2.2474    0.0415    0.7217 C   0  0  2  0  0  0  0  0  0  0  0  0
   -1.4669    1.1405    1.0691 O   0  0  0  0  0  0  0  0  0  0  0  0
    4.3906    1.9725    0.4475 H   0  0  0  0  0  0  0  0  0  0  0  0
    4.7603    0.3535    0.1498 H   0  0  0  0  0  0  0  0  0  0  0  0
    2.3480    1.2764    1.1954 H   0  0  0  0  0  0  0  0  0  0  0  0
    2.0726    1.0014   -0.5498 H   0  0  0  0  0  0  0  0  0  0  0  0
    2.8649   -1.2763   -0.4225 H   0  0  0  0  0  0  0  0  0  0  0  0
    3.2648   -1.1386    1.3069 H   0  0  0  0  0  0  0  0  0  0  0  0
    0.9752   -2.1178    1.1409 H   0  0  0  0  0  0  0  0  0  0  0  0
    0.8771   -0.4299    1.7541 H   0  0  0  0  0  0  0  0  0  0  0  0
   -1.8736   -1.8683   -0.2056 H   0  0  0  0  0  0  0  0  0  0  0  0
   -2.1577   -0.9919   -2.4459 H   0  0  0  0  0  0  0  0  0  0  0  0
   -1.8983    0.7094   -1.7854 H   0  0  0  0  0  0  0  0  0  0  0  0
   -4.3984    0.4582    0.6030 H   0  0  0  0  0  0  0  0  0  0  0  0
   -3.3458    1.6061   -0.3428 H   0  0  0  0  0  0  0  0  0  0  0  0
   -2.5370   -0.5274    1.6182 H   0  0  0  0  0  0  0  0  0  0  0  0
   -1.9955    1.9751    1.0244 H   0  0  0  0  0  0  0  0  0  0  0  0
  1  2  1  0
  2  3  1  0
  3  4  1  0
  5  4  1  6
  5  6  2  0
  5  7  1  0
  7  8  1  0
  8  9  1  0
  9 10  1  0
 10 11  1  0
 11 12  1  0
 11  7  1  0
  1 13  1  0
  1 14  1  0
  2 15  1  0
  2 16  1  0
  3 17  1  0
  3 18  1  0
  4 19  1  0
  4 20  1  0
  7 21  1  1
  8 22  1  0
  8 23  1  0
 10 24  1  0
 10 25  1  0
 11 26  1  1
 12 27  1  0
M  END
$$$$

     RDKit          3D

 27 27  0  0  0  0  0  0  0  0999 V2000
    4.6604    0.0821    0.0557 N   0  0  0  0  0  0  0  0  0  0  0  0
    3.3282    0.4506    0.4449 C   0  0  0  0  0  0  0  0  0  0  0  0
    2.3152   -0.2774   -0.4099 C   0  0  0  0  0  0  0  0  0  0  0  0
    0.8962    0.0885   -0.0257 C   0  0  0  0  0  0  0  0  0  0  0  0
   -0.2168   -0.8008   -1.0670 S   0  0  0  0  0  4  0  0  0  0  0  0
    0.0978   -0.5190   -2.5080 O   0  0  0  0  0  0  0  0  0  0  0  0
   -1.9312   -0.4935   -0.7565 C   0  0  2  0  0  0  0  0  0  0  0  0
   -2.3426    0.9382   -0.9282 C   0  0  0  0  0  0  0  0  0  0  0  0
   -3.5224    1.0416   -0.2009 O   0  0  0  0  0  0  0  0  0  0  0  0
   -3.4018    0.2668    0.9242 C   0  0  0  0  0  0  0  0  0  0  0  0
   -2.3827   -0.8175    0.6279 C   0  0  2  0  0  0  0  0  0  0  0  0
   -1.3814   -0.8552    1.5662 O   0  0  0  0  0  0  0  0  0  0  0  0
    4.8236    0.3935   -0.9298 H   0  0  0  0  0  0  0  0  0  0  0  0
    4.8202   -0.9550    0.1023 H   0  0  0  0  0  0  0  0  0  0  0  0
    3.1925    0.1777    1.5163 H   0  0  0  0  0  0  0  0  0  0  0  0
    3.2259    1.5434    0.3257 H   0  0  0  0  0  0  0  0  0  0  0  0
    2.4592   -1.3613   -0.2147 H   0  0  0  0  0  0  0  0  0  0  0  0
    2.5033   -0.0467   -1.4724 H   0  0  0  0  0  0  0  0  0  0  0  0
    0.7947   -0.1401    1.0540 H   0  0  0  0  0  0  0  0  0  0  0  0
    0.8127    1.1996   -0.1056 H   0  0  0  0  0  0  0  0  0  0  0  0
   -2.5229   -1.1010   -1.4719 H   0  0  0  0  0  0  0  0  0  0  0  0
   -1.5759    1.6538   -0.6369 H   0  0  0  0  0  0  0  0  0  0  0  0
   -2.6113    1.1356   -1.9952 H   0  0  0  0  0  0  0  0  0  0  0  0
   -4.3844   -0.1833    1.2258 H   0  0  0  0  0  0  0  0  0  0  0  0
   -3.0293    0.8473    1.8065 H   0  0  0  0  0  0  0  0  0  0  0  0
   -2.9024   -1.8128    0.6604 H   0  0  0  0  0  0  0  0  0  0  0  0
   -1.7246   -0.4553    2.4127 H   0  0  0  0  0  0  0  0  0  0  0  0
  1  2  1  0
  2  3  1  0
  3  4  1  0
  5  4  1  1
  5  6  2  0
  5  7  1  0
  7  8  1  0
  8  9  1  0
  9 10  1  0
 10 11  1  0
 11 12  1  0
 11  7  1  0
  1 13  1  0
  1 14  1  0
  2 15  1  0
  2 16  1  0
  3 17  1  0
  3 18  1  0
  4 19  1  0
  4 20  1  0
  7 21  1  6
  8 22  1  0
  8 23  1  0
 10 24  1  0
 10 25  1  0
 11 26  1  6
 12 27  1  0
M  END
$$$$

     RDKit          3D

 27 27  0  0  0  0  0  0  0  0999 V2000
    2.8783   -0.0225    1.0295 N   0  0  0  0  0  0  0  0  0  0  0  0
    2.9969   -0.7371   -0.1873 C   0  0  0  0  0  0  0  0  0  0  0  0
    2.2662   -0.2748   -1.3737 C   0  0  0  0  0  0  0  0  0  0  0  0
    0.7882   -0.2381   -1.3899 C   0  0  0  0  0  0  0  0  0  0  0  0
    0.0812    0.8273   -0.1943 S   0  0  0  0  0  4  0  0  0  0  0  0
    0.4942    0.5457    1.2435 O   0  0  0  0  0  0  0  0  0  0  0  0
   -1.7353    0.8540   -0.2865 C   0  0  2  0  0  0  0  0  0  0  0  0
   -2.1730    1.8130    0.8041 C   0  0  0  0  0  0  0  0  0  0  0  0
   -1.8066    1.1162    1.9503 O   0  0  0  0  0  0  0  0  0  0  0  0
   -2.0789   -0.2144    1.7435 C   0  0  0  0  0  0  0  0  0  0  0  0
   -2.3389   -0.4167    0.2667 C   0  0  2  0  0  0  0  0  0  0  0  0
   -1.7364   -1.5565   -0.2278 O   0  0  0  0  0  0  0  0  0  0  0  0
    3.4070    0.8589    1.0996 H   0  0  0  0  0  0  0  0  0  0  0  0
    2.9515   -0.6297    1.8724 H   0  0  0  0  0  0  0  0  0  0  0  0
    4.1056   -0.7296   -0.4414 H   0  0  0  0  0  0  0  0  0  0  0  0
    2.7228   -1.8159    0.0693 H   0  0  0  0  0  0  0  0  0  0  0  0
    2.6135   -0.8741   -2.2730 H   0  0  0  0  0  0  0  0  0  0  0  0
    2.6039    0.7914   -1.5756 H   0  0  0  0  0  0  0  0  0  0  0  0
    0.4514   -1.3002   -1.1327 H   0  0  0  0  0  0  0  0  0  0  0  0
    0.4129   -0.0542   -2.4308 H   0  0  0  0  0  0  0  0  0  0  0  0
   -2.0841    1.1234   -1.2801 H   0  0  0  0  0  0  0  0  0  0  0  0
   -1.6455    2.7589    0.6826 H   0  0  0  0  0  0  0  0  0  0  0  0
   -3.2829    1.8986    0.7287 H   0  0  0  0  0  0  0  0  0  0  0  0
   -1.2043   -0.8659    1.9972 H   0  0  0  0  0  0  0  0  0  0  0  0
   -2.9534   -0.5735    2.3395 H   0  0  0  0  0  0  0  0  0  0  0  0
   -3.4153   -0.3662    0.0916 H   0  0  0  0  0  0  0  0  0  0  0  0
   -2.3189   -1.9179   -0.9698 H   0  0  0  0  0  0  0  0  0  0  0  0
  1  2  1  0
  2  3  1  0
  3  4  1  0
  5  4  1  6
  5  6  2  0
  5  7  1  0
  7  8  1  0
  8  9  1  0
  9 10  1  0
 10 11  1  0
 11 12  1  0
 11  7  1  0
  1 13  1  0
  1 14  1  0
  2 15  1  0
  2 16  1  0
  3 17  1  0
  3 18  1  0
  4 19  1  0
  4 20  1  0
  7 21  1  6
  8 22  1  0
  8 23  1  0
 10 24  1  0
 10 25  1  0
 11 26  1  1
 12 27  1  0
M  END
$$$$

     RDKit          3D

 27 27  0  0  0  0  0  0  0  0999 V2000
    4.5974    0.4356   -0.3002 N   0  0  0  0  0  0  0  0  0  0  0  0
    3.2935   -0.1971   -0.3824 C   0  0  0  0  0  0  0  0  0  0  0  0
    2.4585    0.3092    0.7451 C   0  0  0  0  0  0  0  0  0  0  0  0
    1.0736   -0.2689    0.7793 C   0  0  0  0  0  0  0  0  0  0  0  0
    0.1419    0.0941   -0.7138 S   0  0  0  0  0  4  0  0  0  0  0  0
   -0.0265    1.6132   -0.8247 O   0  0  0  0  0  0  0  0  0  0  0  0
   -1.4639   -0.6464   -0.5326 C   0  0  2  0  0  0  0  0  0  0  0  0
   -2.3632   -0.4244   -1.7150 C   0  0  0  0  0  0  0  0  0  0  0  0
   -3.6606   -0.3857   -1.2754 O   0  0  0  0  0  0  0  0  0  0  0  0
   -3.6863   -0.3684    0.0903 C   0  0  0  0  0  0  0  0  0  0  0  0
   -2.2912    0.0370    0.5660 C   0  0  2  0  0  0  0  0  0  0  0  0
   -2.1837    1.4280    0.4748 O   0  0  0  0  0  0  0  0  0  0  0  0
    5.2449   -0.1553    0.2540 H   0  0  0  0  0  0  0  0  0  0  0  0
    4.4752    1.3621    0.1411 H   0  0  0  0  0  0  0  0  0  0  0  0
    2.8460    0.1125   -1.3522 H   0  0  0  0  0  0  0  0  0  0  0  0
    3.4657   -1.2913   -0.3336 H   0  0  0  0  0  0  0  0  0  0  0  0
    2.9569    0.0244    1.6933 H   0  0  0  0  0  0  0  0  0  0  0  0
    2.4589    1.4124    0.7116 H   0  0  0  0  0  0  0  0  0  0  0  0
    1.1211   -1.3560    0.8809 H   0  0  0  0  0  0  0  0  0  0  0  0
    0.5212    0.1839    1.6216 H   0  0  0  0  0  0  0  0  0  0  0  0
   -1.3754   -1.7121   -0.2415 H   0  0  0  0  0  0  0  0  0  0  0  0
   -2.1217    0.6094   -2.1029 H   0  0  0  0  0  0  0  0  0  0  0  0
   -2.1810   -1.1185   -2.5509 H   0  0  0  0  0  0  0  0  0  0  0  0
   -4.4726    0.2639    0.5263 H   0  0  0  0  0  0  0  0  0  0  0  0
   -3.8423   -1.4266    0.4547 H   0  0  0  0  0  0  0  0  0  0  0  0
   -2.0573   -0.3583    1.5529 H   0  0  0  0  0  0  0  0  0  0  0  0
   -2.9290    1.8233   -0.0626 H   0  0  0  0  0  0  0  0  0  0  0  0
  1  2  1  0
  2  3  1  0
  3  4  1  0
  5  4  1  1
  5  6  2  0
  5  7  1  0
  7  8  1  0
  8  9  1  0
  9 10  1  0
 10 11  1  0
 11 12  1  0
 11  7  1  0
  1 13  1  0
  1 14  1  0
  2 15  1  0
  2 16  1  0
  3 17  1  0
  3 18  1  0
  4 19  1  0
  4 20  1  0
  7 21  1  1
  8 22  1  0
  8 23  1  0
 10 24  1  0
 10 25  1  0
 11 26  1  1
 12 27  1  0
M  END
$$$$

     RDKit          3D

 27 27  0  0  0  0  0  0  0  0999 V2000
    4.0311    0.0014    1.3971 N   0  0  0  0  0  0  0  0  0  0  0  0
    3.7939   -0.1151   -0.0050 C   0  0  0  0  0  0  0  0  0  0  0  0
    2.5007    0.5233   -0.4479 C   0  0  0  0  0  0  0  0  0  0  0  0
    1.2999   -0.1006    0.2370 C   0  0  0  0  0  0  0  0  0  0  0  0
   -0.1576    0.7187   -0.3520 S   0  0  0  0  0  4  0  0  0  0  0  0
   -0.0610    2.2095   -0.2026 O   0  0  0  0  0  0  0  0  0  0  0  0
   -1.6695    0.1096    0.3515 C   0  0  2  0  0  0  0  0  0  0  0  0
   -1.9337   -1.3318    0.0950 C   0  0  0  0  0  0  0  0  0  0  0  0
   -3.2955   -1.4437    0.2189 O   0  0  0  0  0  0  0  0  0  0  0  0
   -3.8905   -0.3014   -0.2420 C   0  0  0  0  0  0  0  0  0  0  0  0
   -2.8264    0.7466   -0.4326 C   0  0  2  0  0  0  0  0  0  0  0  0
   -2.4600    0.7795   -1.7917 O   0  0  0  0  0  0  0  0  0  0  0  0
    3.5597    0.8108    1.8324 H   0  0  0  0  0  0  0  0  0  0  0  0
    3.9064   -0.8900    1.8952 H   0  0  0  0  0  0  0  0  0  0  0  0
    3.7484   -1.2003   -0.2828 H   0  0  0  0  0  0  0  0  0  0  0  0
    4.6219    0.3717   -0.5558 H   0  0  0  0  0  0  0  0  0  0  0  0
    2.5089    1.6039   -0.1744 H   0  0  0  0  0  0  0  0  0  0  0  0
    2.4034    0.4609   -1.5344 H   0  0  0  0  0  0  0  0  0  0  0  0
    1.3782   -0.0734    1.3234 H   0  0  0  0  0  0  0  0  0  0  0  0
    1.2642   -1.1638   -0.1324 H   0  0  0  0  0  0  0  0  0  0  0  0
   -1.8005    0.3246    1.4128 H   0  0  0  0  0  0  0  0  0  0  0  0
   -1.6575   -1.6635   -0.9267 H   0  0  0  0  0  0  0  0  0  0  0  0
   -1.4672   -2.0017    0.8568 H   0  0  0  0  0  0  0  0  0  0  0  0
   -4.5166   -0.4310   -1.1350 H   0  0  0  0  0  0  0  0  0  0  0  0
   -4.5595    0.0805    0.5841 H   0  0  0  0  0  0  0  0  0  0  0  0
   -3.0870    1.7273   -0.0370 H   0  0  0  0  0  0  0  0  0  0  0  0
   -1.6342    0.2479   -1.9518 H   0  0  0  0  0  0  0  0  0  0  0  0
  1  2  1  0
  2  3  1  0
  3  4  1  0
  5  4  1  1
  5  6  2  0
  5  7  1  0
  7  8  1  0
  8  9  1  0
  9 10  1  0
 10 11  1  0
 11 12  1  0
 11  7  1  0
  1 13  1  0
  1 14  1  0
  2 15  1  0
  2 16  1  0
  3 17  1  0
  3 18  1  0
  4 19  1  0
  4 20  1  0
  7 21  1  1
  8 22  1  0
  8 23  1  0
 10 24  1  0
 10 25  1  0
 11 26  1  1
 12 27  1  0
M  END
$$$$

     RDKit          3D

 27 27  0  0  0  0  0  0  0  0999 V2000
    3.0822    0.1743   -1.6302 N   0  0  0  0  0  0  0  0  0  0  0  0
    3.3568    0.2013   -0.2518 C   0  0  0  0  0  0  0  0  0  0  0  0
    2.0615    0.1709    0.5491 C   0  0  0  0  0  0  0  0  0  0  0  0
    1.3129   -1.1130    0.2019 C   0  0  0  0  0  0  0  0  0  0  0  0
   -0.2199   -1.1939    1.1210 S   0  0  0  0  0  4  0  0  0  0  0  0
   -0.8100   -2.5580    1.0791 O   0  0  0  0  0  0  0  0  0  0  0  0
   -1.2950    0.1432    0.7841 C   0  0  2  0  0  0  0  0  0  0  0  0
   -2.5964    0.1186    1.5333 C   0  0  0  0  0  0  0  0  0  0  0  0
   -3.5892    0.5335    0.6372 O   0  0  0  0  0  0  0  0  0  0  0  0
   -2.9352    1.2369   -0.3744 C   0  0  0  0  0  0  0  0  0  0  0  0
   -1.7653    0.2686   -0.6427 C   0  0  2  0  0  0  0  0  0  0  0  0
   -2.3763   -0.8740   -1.1192 O   0  0  0  0  0  0  0  0  0  0  0  0
    2.8253    1.0478   -2.0889 H   0  0  0  0  0  0  0  0  0  0  0  0
    3.5034   -0.5575   -2.1969 H   0  0  0  0  0  0  0  0  0  0  0  0
    3.8973    1.1482    0.0090 H   0  0  0  0  0  0  0  0  0  0  0  0
    3.9760   -0.6680    0.0256 H   0  0  0  0  0  0  0  0  0  0  0  0
    1.4575    1.0555    0.2622 H   0  0  0  0  0  0  0  0  0  0  0  0
    2.2592    0.1210    1.6414 H   0  0  0  0  0  0  0  0  0  0  0  0
    1.1456   -1.1314   -0.8896 H   0  0  0  0  0  0  0  0  0  0  0  0
    1.9656   -1.9686    0.4864 H   0  0  0  0  0  0  0  0  0  0  0  0
   -0.7891    1.0980    1.0387 H   0  0  0  0  0  0  0  0  0  0  0  0
   -2.7742   -0.9274    1.8692 H   0  0  0  0  0  0  0  0  0  0  0  0
   -2.6316    0.8348    2.3823 H   0  0  0  0  0  0  0  0  0  0  0  0
   -3.5803    1.3314   -1.2416 H   0  0  0  0  0  0  0  0  0  0  0  0
   -2.5730    2.1804    0.0549 H   0  0  0  0  0  0  0  0  0  0  0  0
   -1.0359    0.7174   -1.3168 H   0  0  0  0  0  0  0  0  0  0  0  0
   -1.8720   -1.3899   -1.7573 H   0  0  0  0  0  0  0  0  0  0  0  0
  1  2  1  0
  2  3  1  0
  3  4  1  0
  5  4  1  6
  5  6  2  0
  5  7  1  0
  7  8  1  0
  8  9  1  0
  9 10  1  0
 10 11  1  0
 11 12  1  0
 11  7  1  0
  1 13  1  0
  1 14  1  0
  2 15  1  0
  2 16  1  0
  3 17  1  0
  3 18  1  0
  4 19  1  0
  4 20  1  0
  7 21  1  1
  8 22  1  0
  8 23  1  0
 10 24  1  0
 10 25  1  0
 11 26  1  6
 12 27  1  0
M  END
$$$$

     RDKit          3D

 27 27  0  0  0  0  0  0  0  0999 V2000
    4.1334    0.4709    0.0332 N   0  0  0  0  0  0  0  0  0  0  0  0
    3.6020   -0.7473   -0.5067 C   0  0  0  0  0  0  0  0  0  0  0  0
    2.2173   -0.5613   -1.1034 C   0  0  0  0  0  0  0  0  0  0  0  0
    1.2430   -0.0689   -0.0421 C   0  0  0  0  0  0  0  0  0  0  0  0
   -0.3779    0.1495   -0.7394 S   0  0  0  0  0  4  0  0  0  0  0  0
   -0.3273    1.1260   -1.8831 O   0  0  0  0  0  0  0  0  0  0  0  0
   -1.5310    0.7247    0.4861 C   0  0  2  0  0  0  0  0  0  0  0  0
   -1.5858   -0.3309    1.5999 C   0  0  0  0  0  0  0  0  0  0  0  0
   -2.1792   -1.3862    0.9075 O   0  0  0  0  0  0  0  0  0  0  0  0
   -3.2823   -0.8278    0.2880 C   0  0  0  0  0  0  0  0  0  0  0  0
   -2.9562    0.6003   -0.0372 C   0  0  2  0  0  0  0  0  0  0  0  0
   -3.0694    0.9233   -1.3632 O   0  0  0  0  0  0  0  0  0  0  0  0
    4.0708    0.5273    1.0717 H   0  0  0  0  0  0  0  0  0  0  0  0
    3.7933    1.3193   -0.4502 H   0  0  0  0  0  0  0  0  0  0  0  0
    4.2787   -1.1053   -1.2981 H   0  0  0  0  0  0  0  0  0  0  0  0
    3.5678   -1.5293    0.2806 H   0  0  0  0  0  0  0  0  0  0  0  0
    2.2847    0.1942   -1.9019 H   0  0  0  0  0  0  0  0  0  0  0  0
    1.9179   -1.5257   -1.5198 H   0  0  0  0  0  0  0  0  0  0  0  0
    1.6105    0.8570    0.4380 H   0  0  0  0  0  0  0  0  0  0  0  0
    1.2298   -0.8587    0.7509 H   0  0  0  0  0  0  0  0  0  0  0  0
   -1.3147    1.7149    0.8874 H   0  0  0  0  0  0  0  0  0  0  0  0
   -0.6013   -0.5620    1.9934 H   0  0  0  0  0  0  0  0  0  0  0  0
   -2.3089    0.0527    2.3377 H   0  0  0  0  0  0  0  0  0  0  0  0
   -3.5253   -1.3723   -0.6585 H   0  0  0  0  0  0  0  0  0  0  0  0
   -4.1508   -0.9406    0.9663 H   0  0  0  0  0  0  0  0  0  0  0  0
   -3.5865    1.2442    0.6290 H   0  0  0  0  0  0  0  0  0  0  0  0
   -3.1529    1.9120   -1.4281 H   0  0  0  0  0  0  0  0  0  0  0  0
  1  2  1  0
  2  3  1  0
  3  4  1  0
  5  4  1  1
  5  6  2  0
  5  7  1  0
  7  8  1  0
  8  9  1  0
  9 10  1  0
 10 11  1  0
 11 12  1  0
 11  7  1  0
  1 13  1  0
  1 14  1  0
  2 15  1  0
  2 16  1  0
  3 17  1  0
  3 18  1  0
  4 19  1  0
  4 20  1  0
  7 21  1  1
  8 22  1  0
  8 23  1  0
 10 24  1  0
 10 25  1  0
 11 26  1  1
 12 27  1  0
M  END
$$$$

     RDKit          3D

 27 27  0  0  0  0  0  0  0  0999 V2000
    2.3002   -0.4156    1.0180 N   0  0  0  0  0  0  0  0  0  0  0  0
    2.6170   -0.9463   -0.2555 C   0  0  0  0  0  0  0  0  0  0  0  0
    1.5601   -0.8850   -1.3028 C   0  0  0  0  0  0  0  0  0  0  0  0
    1.0810    0.4857   -1.6675 C   0  0  0  0  0  0  0  0  0  0  0  0
    0.3935    1.4419   -0.4020 S   0  0  0  0  0  4  0  0  0  0  0  0
    1.4478    2.0464    0.4929 O   0  0  0  0  0  0  0  0  0  0  0  0
   -1.0001    0.9473    0.4824 C   0  0  2  0  0  0  0  0  0  0  0  0
   -0.9852   -0.3061    1.2665 C   0  0  0  0  0  0  0  0  0  0  0  0
   -2.3584   -0.4654    1.5731 O   0  0  0  0  0  0  0  0  0  0  0  0
   -2.9625   -0.3561    0.3235 C   0  0  0  0  0  0  0  0  0  0  0  0
   -2.2751    0.8023   -0.3188 C   0  0  2  0  0  0  0  0  0  0  0  0
   -2.0375    0.6311   -1.6711 O   0  0  0  0  0  0  0  0  0  0  0  0
    1.7826   -1.0599    1.6502 H   0  0  0  0  0  0  0  0  0  0  0  0
    3.0811    0.0826    1.4956 H   0  0  0  0  0  0  0  0  0  0  0  0
    3.5748   -0.4883   -0.5964 H   0  0  0  0  0  0  0  0  0  0  0  0
    2.8757   -2.0363   -0.1079 H   0  0  0  0  0  0  0  0  0  0  0  0
    2.0144   -1.3897   -2.2269 H   0  0  0  0  0  0  0  0  0  0  0  0
    0.6906   -1.5192   -1.0638 H   0  0  0  0  0  0  0  0  0  0  0  0
    0.4528    0.3880   -2.5912 H   0  0  0  0  0  0  0  0  0  0  0  0
    2.0114    1.0182   -2.0552 H   0  0  0  0  0  0  0  0  0  0  0  0
   -1.2144    1.7700    1.2452 H   0  0  0  0  0  0  0  0  0  0  0  0
   -0.4814   -0.1719    2.2560 H   0  0  0  0  0  0  0  0  0  0  0  0
   -0.6648   -1.2185    0.7901 H   0  0  0  0  0  0  0  0  0  0  0  0
   -4.0618   -0.2108    0.4256 H   0  0  0  0  0  0  0  0  0  0  0  0
   -2.7905   -1.3188   -0.2014 H   0  0  0  0  0  0  0  0  0  0  0  0
   -2.9113    1.7022   -0.2103 H   0  0  0  0  0  0  0  0  0  0  0  0
   -2.1400    1.4721   -2.1993 H   0  0  0  0  0  0  0  0  0  0  0  0
  1  2  1  0
  2  3  1  0
  3  4  1  0
  5  4  1  1
  5  6  2  0
  5  7  1  0
  7  8  1  0
  8  9  1  0
  9 10  1  0
 10 11  1  0
 11 12  1  0
 11  7  1  0
  1 13  1  0
  1 14  1  0
  2 15  1  0
  2 16  1  0
  3 17  1  0
  3 18  1  0
  4 19  1  0
  4 20  1  0
  7 21  1  1
  8 22  1  0
  8 23  1  0
 10 24  1  0
 10 25  1  0
 11 26  1  6
 12 27  1  0
M  END
$$$$
