
     RDKit          3D

 28 30  0  0  0  0  0  0  0  0999 V2000
    3.6966    0.9783    0.7509 C   0  0  0  0  0  0  0  0  0  0  0  0
    3.1489   -0.2753    0.2756 N   0  0  0  0  0  0  0  0  0  0  0  0
    3.7857   -1.4341    0.2533 N   0  0  0  0  0  0  0  0  0  0  0  0
    2.9774   -2.3649   -0.2462 N   0  0  0  0  0  0  0  0  0  0  0  0
    1.8490   -1.7685   -0.5269 N   0  0  0  0  0  0  0  0  0  0  0  0
    1.9029   -0.4544   -0.2184 C   0  0  0  0  0  0  0  0  0  0  0  0
    0.9881    0.4492   -0.3536 N   0  0  0  0  0  0  0  0  0  0  0  0
   -0.2862    0.0979   -0.8957 C   0  0  1  0  0  0  0  0  0  0  0  0
   -0.9597   -0.9556   -0.0408 C   0  0  0  0  0  0  0  0  0  0  0  0
   -1.4971    0.1785    0.7938 C   0  0  2  0  0  0  0  0  0  0  0  0
   -2.8754    0.0928    1.1559 N   0  0  0  0  0  0  0  0  0  0  0  0
   -3.5414   -0.0372   -0.1329 C   0  0  0  0  0  0  0  0  0  0  0  0
   -2.7181    0.7588   -1.1149 C   0  0  0  0  0  0  0  0  0  0  0  0
   -1.4052    1.0265   -0.4591 C   0  0  2  0  0  0  0  0  0  0  0  0
    3.8898    0.8822    1.8397 H   0  0  0  0  0  0  0  0  0  0  0  0
    4.6437    1.1412    0.1943 H   0  0  0  0  0  0  0  0  0  0  0  0
    3.0026    1.8057    0.6021 H   0  0  0  0  0  0  0  0  0  0  0  0
    4.7638   -1.6515    0.5623 H   0  0  0  0  0  0  0  0  0  0  0  0
   -0.3247   -0.0913   -1.9850 H   0  0  0  0  0  0  0  0  0  0  0  0
   -1.6810   -1.5205   -0.6322 H   0  0  0  0  0  0  0  0  0  0  0  0
   -0.2772   -1.6053    0.5324 H   0  0  0  0  0  0  0  0  0  0  0  0
   -0.7881    0.5288    1.5428 H   0  0  0  0  0  0  0  0  0  0  0  0
   -3.1362    0.9678    1.6519 H   0  0  0  0  0  0  0  0  0  0  0  0
   -4.5634    0.4004    0.0075 H   0  0  0  0  0  0  0  0  0  0  0  0
   -3.6605   -1.0876   -0.3945 H   0  0  0  0  0  0  0  0  0  0  0  0
   -2.5663    0.1726   -2.0631 H   0  0  0  0  0  0  0  0  0  0  0  0
   -3.2488    1.6904   -1.3998 H   0  0  0  0  0  0  0  0  0  0  0  0
   -1.1192    2.0752   -0.2996 H   0  0  0  0  0  0  0  0  0  0  0  0
  1  2  1  0
  2  3  1  0
  3  4  1  0
  4  5  2  0
  5  6  1  0
  6  7  2  3
  7  8  1  0
  8  9  1  0
  9 10  1  0
 10 11  1  0
 11 12  1  0
 12 13  1  0
 13 14  1  0
  6  2  1  0
 14  8  1  0
 14 10  1  0
  1 15  1  0
  1 16  1  0
  1 17  1  0
  3 18  1  0
  8 19  1  6
  9 20  1  0
  9 21  1  0
 10 22  1  1
 11 23  1  0
 12 24  1  0
 12 25  1  0
 13 26  1  0
 13 27  1  0
 14 28  1  1
M  END
$$$$

     RDKit          3D

 28 30  0  0  0  0  0  0  0  0999 V2000
    3.8916    0.2100   -0.6372 C   0  0  0  0  0  0  0  0  0  0  0  0
    2.9990   -0.6480    0.0976 N   0  0  0  0  0  0  0  0  0  0  0  0
    3.3540   -1.8651    0.5232 N   0  0  0  0  0  0  0  0  0  0  0  0
    2.3521   -2.4274    1.1635 N   0  0  0  0  0  0  0  0  0  0  0  0
    1.3626   -1.5532    1.1373 N   0  0  0  0  0  0  0  0  0  0  0  0
    1.7256   -0.4341    0.4837 C   0  0  0  0  0  0  0  0  0  0  0  0
    1.0833    0.6324    0.2368 N   0  0  0  0  0  0  0  0  0  0  0  0
   -0.2606    0.9262    0.6128 C   0  0  1  0  0  0  0  0  0  0  0  0
   -1.0356    1.7623   -0.4155 C   0  0  0  0  0  0  0  0  0  0  0  0
   -1.4428    0.4368   -1.0474 C   0  0  2  0  0  0  0  0  0  0  0  0
   -2.8355    0.2985   -1.3282 N   0  0  0  0  0  0  0  0  0  0  0  0
   -3.4211   -0.5083   -0.2686 C   0  0  0  0  0  0  0  0  0  0  0  0
   -2.5875   -0.0671    0.9278 C   0  0  0  0  0  0  0  0  0  0  0  0
   -1.2091   -0.1835    0.3328 C   0  0  2  0  0  0  0  0  0  0  0  0
    4.9248    0.0446   -0.2732 H   0  0  0  0  0  0  0  0  0  0  0  0
    3.6395    1.2858   -0.4972 H   0  0  0  0  0  0  0  0  0  0  0  0
    3.8363   -0.0884   -1.7156 H   0  0  0  0  0  0  0  0  0  0  0  0
    4.2759   -2.3538    0.3976 H   0  0  0  0  0  0  0  0  0  0  0  0
   -0.3257    1.3390    1.6424 H   0  0  0  0  0  0  0  0  0  0  0  0
   -0.3149    2.3530   -1.0031 H   0  0  0  0  0  0  0  0  0  0  0  0
   -1.8533    2.3544   -0.0036 H   0  0  0  0  0  0  0  0  0  0  0  0
   -0.7341    0.1473   -1.8173 H   0  0  0  0  0  0  0  0  0  0  0  0
   -3.3407    1.1750   -1.5046 H   0  0  0  0  0  0  0  0  0  0  0  0
   -4.4856   -0.3298   -0.1324 H   0  0  0  0  0  0  0  0  0  0  0  0
   -3.1534   -1.5700   -0.4510 H   0  0  0  0  0  0  0  0  0  0  0  0
   -2.8570    0.9924    1.1578 H   0  0  0  0  0  0  0  0  0  0  0  0
   -2.7353   -0.7266    1.8036 H   0  0  0  0  0  0  0  0  0  0  0  0
   -0.8523   -1.2021    0.3384 H   0  0  0  0  0  0  0  0  0  0  0  0
  1  2  1  0
  2  3  1  0
  3  4  1  0
  4  5  2  0
  5  6  1  0
  6  7  2  3
  7  8  1  0
  8  9  1  0
  9 10  1  0
 10 11  1  0
 11 12  1  0
 12 13  1  0
 13 14  1  0
  6  2  1  0
 14  8  1  0
 14 10  1  0
  1 15  1  0
  1 16  1  0
  1 17  1  0
  3 18  1  0
  8 19  1  1
  9 20  1  0
  9 21  1  0
 10 22  1  6
 11 23  1  0
 12 24  1  0
 12 25  1  0
 13 26  1  0
 13 27  1  0
 14 28  1  6
M  END
$$$$

     RDKit          3D

 28 30  0  0  0  0  0  0  0  0999 V2000
    3.8541    1.1764    0.0782 C   0  0  0  0  0  0  0  0  0  0  0  0
    3.1480   -0.0919    0.0243 N   0  0  0  0  0  0  0  0  0  0  0  0
    3.7727   -1.2532    0.0585 N   0  0  0  0  0  0  0  0  0  0  0  0
    2.8580   -2.1916   -0.0072 N   0  0  0  0  0  0  0  0  0  0  0  0
    1.6885   -1.6304   -0.0807 N   0  0  0  0  0  0  0  0  0  0  0  0
    1.8254   -0.2973   -0.0638 C   0  0  0  0  0  0  0  0  0  0  0  0
    0.8935    0.6226   -0.1196 N   0  0  0  0  0  0  0  0  0  0  0  0
   -0.4697    0.1616   -0.2118 C   0  0  1  0  0  0  0  0  0  0  0  0
   -0.6754   -0.9704    0.7979 C   0  0  0  0  0  0  0  0  0  0  0  0
   -1.8883   -0.2305    1.3288 C   0  0  2  0  0  0  0  0  0  0  0  0
   -3.0872   -0.7936    0.7887 N   0  0  0  0  0  0  0  0  0  0  0  0
   -3.4631   -0.0431   -0.3741 C   0  0  0  0  0  0  0  0  0  0  0  0
   -2.7517    1.2827   -0.2867 C   0  0  0  0  0  0  0  0  0  0  0  0
   -1.5031    0.9546    0.4987 C   0  0  2  0  0  0  0  0  0  0  0  0
    4.8081    1.1083   -0.5185 H   0  0  0  0  0  0  0  0  0  0  0  0
    3.2596    1.9911   -0.3379 H   0  0  0  0  0  0  0  0  0  0  0  0
    4.1808    1.4309    1.1072 H   0  0  0  0  0  0  0  0  0  0  0  0
    4.8281   -1.4043    0.1269 H   0  0  0  0  0  0  0  0  0  0  0  0
   -0.7289   -0.1054   -1.2530 H   0  0  0  0  0  0  0  0  0  0  0  0
    0.0859   -1.0389    1.5778 H   0  0  0  0  0  0  0  0  0  0  0  0
   -0.9107   -1.9073    0.2419 H   0  0  0  0  0  0  0  0  0  0  0  0
   -1.8844   -0.0257    2.4013 H   0  0  0  0  0  0  0  0  0  0  0  0
   -2.9219   -1.7918    0.4598 H   0  0  0  0  0  0  0  0  0  0  0  0
   -3.2934   -0.5775   -1.3181 H   0  0  0  0  0  0  0  0  0  0  0  0
   -4.5737    0.1240   -0.3036 H   0  0  0  0  0  0  0  0  0  0  0  0
   -2.5280    1.7142   -1.2759 H   0  0  0  0  0  0  0  0  0  0  0  0
   -3.3769    1.9486    0.3441 H   0  0  0  0  0  0  0  0  0  0  0  0
   -1.1462    1.8377    1.0257 H   0  0  0  0  0  0  0  0  0  0  0  0
  1  2  1  0
  2  3  1  0
  3  4  1  0
  4  5  2  0
  5  6  1  0
  6  7  2  3
  7  8  1  0
  8  9  1  0
  9 10  1  0
 10 11  1  0
 11 12  1  0
 12 13  1  0
 13 14  1  0
  6  2  1  0
 14  8  1  0
 14 10  1  0
  1 15  1  0
  1 16  1  0
  1 17  1  0
  3 18  1  0
  8 19  1  6
  9 20  1  0
  9 21  1  0
 10 22  1  1
 11 23  1  0
 12 24  1  0
 12 25  1  0
 13 26  1  0
 13 27  1  0
 14 28  1  1
M  END
$$$$

     RDKit          3D

 28 30  0  0  0  0  0  0  0  0999 V2000
    3.6433    1.2823   -0.2134 C   0  0  0  0  0  0  0  0  0  0  0  0
    3.1486   -0.0397    0.0827 N   0  0  0  0  0  0  0  0  0  0  0  0
    3.8793   -1.0033    0.6040 N   0  0  0  0  0  0  0  0  0  0  0  0
    3.1421   -2.0869    0.7539 N   0  0  0  0  0  0  0  0  0  0  0  0
    1.9319   -1.7832    0.3152 N   0  0  0  0  0  0  0  0  0  0  0  0
    1.8867   -0.5114   -0.1155 C   0  0  0  0  0  0  0  0  0  0  0  0
    0.9043    0.1631   -0.6123 N   0  0  0  0  0  0  0  0  0  0  0  0
   -0.3700   -0.5094   -0.7479 C   0  0  1  0  0  0  0  0  0  0  0  0
   -0.9220   -0.7556    0.6665 C   0  0  0  0  0  0  0  0  0  0  0  0
   -1.3492    0.6932    0.6169 C   0  0  2  0  0  0  0  0  0  0  0  0
   -2.6617    1.0006    1.0470 N   0  0  0  0  0  0  0  0  0  0  0  0
   -3.5178    0.0284    0.4184 C   0  0  0  0  0  0  0  0  0  0  0  0
   -2.8586   -0.2089   -0.9362 C   0  0  0  0  0  0  0  0  0  0  0  0
   -1.5357    0.4690   -0.8904 C   0  0  2  0  0  0  0  0  0  0  0  0
    4.3704    1.2303   -1.0500 H   0  0  0  0  0  0  0  0  0  0  0  0
    4.2085    1.6654    0.6782 H   0  0  0  0  0  0  0  0  0  0  0  0
    2.8134    1.9919   -0.4531 H   0  0  0  0  0  0  0  0  0  0  0  0
    4.9001   -0.9693    0.8786 H   0  0  0  0  0  0  0  0  0  0  0  0
   -0.4064   -1.3720   -1.4098 H   0  0  0  0  0  0  0  0  0  0  0  0
   -1.7190   -1.4965    0.6059 H   0  0  0  0  0  0  0  0  0  0  0  0
   -0.1657   -1.0212    1.4031 H   0  0  0  0  0  0  0  0  0  0  0  0
   -0.5411    1.3768    0.8386 H   0  0  0  0  0  0  0  0  0  0  0  0
   -2.9240    1.9446    0.6310 H   0  0  0  0  0  0  0  0  0  0  0  0
   -3.6438   -0.8993    0.9934 H   0  0  0  0  0  0  0  0  0  0  0  0
   -4.5452    0.4581    0.2964 H   0  0  0  0  0  0  0  0  0  0  0  0
   -2.8174   -1.2774   -1.1835 H   0  0  0  0  0  0  0  0  0  0  0  0
   -3.4921    0.2994   -1.7015 H   0  0  0  0  0  0  0  0  0  0  0  0
   -1.3588    1.3309   -1.5164 H   0  0  0  0  0  0  0  0  0  0  0  0
  1  2  1  0
  2  3  1  0
  3  4  1  0
  4  5  2  0
  5  6  1  0
  6  7  2  3
  7  8  1  0
  8  9  1  0
  9 10  1  0
 10 11  1  0
 11 12  1  0
 12 13  1  0
 13 14  1  0
  6  2  1  0
 14  8  1  0
 14 10  1  0
  1 15  1  0
  1 16  1  0
  1 17  1  0
  3 18  1  0
  8 19  1  6
  9 20  1  0
  9 21  1  0
 10 22  1  6
 11 23  1  0
 12 24  1  0
 12 25  1  0
 13 26  1  0
 13 27  1  0
 14 28  1  6
M  END
$$$$

     RDKit          3D

 28 30  0  0  0  0  0  0  0  0999 V2000
    3.5455   -0.5365   -1.0284 C   0  0  0  0  0  0  0  0  0  0  0  0
    3.1428   -0.2620    0.3526 N   0  0  0  0  0  0  0  0  0  0  0  0
    3.9401   -0.3789    1.4206 N   0  0  0  0  0  0  0  0  0  0  0  0
    3.2768   -0.0611    2.4993 N   0  0  0  0  0  0  0  0  0  0  0  0
    2.0369    0.2635    2.1120 N   0  0  0  0  0  0  0  0  0  0  0  0
    1.9454    0.1417    0.7840 C   0  0  0  0  0  0  0  0  0  0  0  0
    0.9342    0.3624    0.0752 N   0  0  0  0  0  0  0  0  0  0  0  0
   -0.3564    0.7924    0.4947 C   0  0  1  0  0  0  0  0  0  0  0  0
   -1.1287    1.3596   -0.7067 C   0  0  0  0  0  0  0  0  0  0  0  0
   -1.3603   -0.0910   -1.0997 C   0  0  2  0  0  0  0  0  0  0  0  0
   -2.6953   -0.3863   -1.5418 N   0  0  0  0  0  0  0  0  0  0  0  0
   -3.5782   -0.1131   -0.4365 C   0  0  0  0  0  0  0  0  0  0  0  0
   -2.7310   -0.0684    0.8091 C   0  0  0  0  0  0  0  0  0  0  0  0
   -1.3320   -0.3885    0.4044 C   0  0  2  0  0  0  0  0  0  0  0  0
    3.3514    0.3846   -1.6124 H   0  0  0  0  0  0  0  0  0  0  0  0
    4.6071   -0.7792   -1.0590 H   0  0  0  0  0  0  0  0  0  0  0  0
    2.9724   -1.4089   -1.4434 H   0  0  0  0  0  0  0  0  0  0  0  0
    4.9477   -0.6872    1.3379 H   0  0  0  0  0  0  0  0  0  0  0  0
   -0.4318    1.3770    1.4082 H   0  0  0  0  0  0  0  0  0  0  0  0
   -2.0968    1.8084   -0.4232 H   0  0  0  0  0  0  0  0  0  0  0  0
   -0.4702    1.9334   -1.3545 H   0  0  0  0  0  0  0  0  0  0  0  0
   -0.5426   -0.5749   -1.6281 H   0  0  0  0  0  0  0  0  0  0  0  0
   -2.7185   -1.3814   -1.8316 H   0  0  0  0  0  0  0  0  0  0  0  0
   -4.0568    0.8763   -0.6419 H   0  0  0  0  0  0  0  0  0  0  0  0
   -4.3422   -0.9063   -0.4117 H   0  0  0  0  0  0  0  0  0  0  0  0
   -3.1341   -0.8325    1.5098 H   0  0  0  0  0  0  0  0  0  0  0  0
   -2.8060    0.9108    1.3320 H   0  0  0  0  0  0  0  0  0  0  0  0
   -0.9195   -1.3539    0.6789 H   0  0  0  0  0  0  0  0  0  0  0  0
  1  2  1  0
  2  3  1  0
  3  4  1  0
  4  5  2  0
  5  6  1  0
  6  7  2  3
  7  8  1  0
  8  9  1  0
  9 10  1  0
 10 11  1  0
 11 12  1  0
 12 13  1  0
 13 14  1  0
  6  2  1  0
 14  8  1  0
 14 10  1  0
  1 15  1  0
  1 16  1  0
  1 17  1  0
  3 18  1  0
  8 19  1  1
  9 20  1  0
  9 21  1  0
 10 22  1  6
 11 23  1  0
 12 24  1  0
 12 25  1  0
 13 26  1  0
 13 27  1  0
 14 28  1  6
M  END
$$$$

     RDKit          3D

 28 30  0  0  0  0  0  0  0  0999 V2000
   -3.9371   -0.1798    0.5447 C   0  0  0  0  0  0  0  0  0  0  0  0
   -3.0246    0.5289   -0.3094 N   0  0  0  0  0  0  0  0  0  0  0  0
   -3.3059    1.5685   -1.0670 N   0  0  0  0  0  0  0  0  0  0  0  0
   -2.2067    1.9363   -1.7015 N   0  0  0  0  0  0  0  0  0  0  0  0
   -1.2193    1.1397   -1.3568 N   0  0  0  0  0  0  0  0  0  0  0  0
   -1.7136    0.2633   -0.4945 C   0  0  0  0  0  0  0  0  0  0  0  0
   -1.0741   -0.6802    0.0758 N   0  0  0  0  0  0  0  0  0  0  0  0
    0.3145   -0.9366   -0.1405 C   0  0  1  0  0  0  0  0  0  0  0  0
    0.7674   -1.0696   -1.5723 C   0  0  0  0  0  0  0  0  0  0  0  0
    1.8846   -0.1217   -1.2987 C   0  0  2  0  0  0  0  0  0  0  0  0
    3.1387   -0.6902   -0.9021 N   0  0  0  0  0  0  0  0  0  0  0  0
    3.5390    0.1833    0.1880 C   0  0  0  0  0  0  0  0  0  0  0  0
    2.2846    0.0957    1.0697 C   0  0  0  0  0  0  0  0  0  0  0  0
    1.2117    0.2603    0.0004 C   0  0  2  0  0  0  0  0  0  0  0  0
   -4.9261   -0.2587    0.0234 H   0  0  0  0  0  0  0  0  0  0  0  0
   -3.5010   -1.1979    0.7329 H   0  0  0  0  0  0  0  0  0  0  0  0
   -4.0812    0.3753    1.4926 H   0  0  0  0  0  0  0  0  0  0  0  0
   -4.2317    2.0604   -1.1833 H   0  0  0  0  0  0  0  0  0  0  0  0
    0.6704   -1.8002    0.4784 H   0  0  0  0  0  0  0  0  0  0  0  0
    0.0341   -0.6515   -2.2818 H   0  0  0  0  0  0  0  0  0  0  0  0
    1.0592   -2.1084   -1.8325 H   0  0  0  0  0  0  0  0  0  0  0  0
    2.0128    0.7119   -2.0169 H   0  0  0  0  0  0  0  0  0  0  0  0
    2.9709   -1.6339   -0.4611 H   0  0  0  0  0  0  0  0  0  0  0  0
    3.6687    1.2178   -0.1901 H   0  0  0  0  0  0  0  0  0  0  0  0
    4.4240   -0.1965    0.7334 H   0  0  0  0  0  0  0  0  0  0  0  0
    2.2601   -0.9383    1.4496 H   0  0  0  0  0  0  0  0  0  0  0  0
    2.2579    0.8708    1.8312 H   0  0  0  0  0  0  0  0  0  0  0  0
    0.7226    1.2511    0.0042 H   0  0  0  0  0  0  0  0  0  0  0  0
  1  2  1  0
  2  3  1  0
  3  4  1  0
  4  5  2  0
  5  6  1  0
  6  7  2  3
  7  8  1  0
  8  9  1  0
  9 10  1  0
 10 11  1  0
 11 12  1  0
 12 13  1  0
 13 14  1  0
  6  2  1  0
 14  8  1  0
 14 10  1  0
  1 15  1  0
  1 16  1  0
  1 17  1  0
  3 18  1  0
  8 19  1  1
  9 20  1  0
  9 21  1  0
 10 22  1  6
 11 23  1  0
 12 24  1  0
 12 25  1  0
 13 26  1  0
 13 27  1  0
 14 28  1  6
M  END
$$$$

     RDKit          3D

 28 30  0  0  0  0  0  0  0  0999 V2000
   -3.6576    0.8536   -0.5325 C   0  0  0  0  0  0  0  0  0  0  0  0
   -3.2092   -0.4185   -0.0142 N   0  0  0  0  0  0  0  0  0  0  0  0
   -4.0174   -1.4482    0.2285 N   0  0  0  0  0  0  0  0  0  0  0  0
   -3.2446   -2.4187    0.6890 N   0  0  0  0  0  0  0  0  0  0  0  0
   -1.9779   -2.0021    0.7326 N   0  0  0  0  0  0  0  0  0  0  0  0
   -1.9398   -0.7454    0.2932 C   0  0  0  0  0  0  0  0  0  0  0  0
   -0.9449    0.0711    0.1542 N   0  0  0  0  0  0  0  0  0  0  0  0
    0.3591   -0.4083    0.5209 C   0  0  1  0  0  0  0  0  0  0  0  0
    1.0996   -0.8795   -0.7162 C   0  0  0  0  0  0  0  0  0  0  0  0
    1.5566    0.5397   -0.8921 C   0  0  2  0  0  0  0  0  0  0  0  0
    2.9587    0.7307   -1.1355 N   0  0  0  0  0  0  0  0  0  0  0  0
    3.6551    0.6475    0.1077 C   0  0  0  0  0  0  0  0  0  0  0  0
    2.6580    0.3357    1.1893 C   0  0  0  0  0  0  0  0  0  0  0  0
    1.3450    0.7245    0.5941 C   0  0  2  0  0  0  0  0  0  0  0  0
   -4.4905    0.7613   -1.2548 H   0  0  0  0  0  0  0  0  0  0  0  0
   -3.9590    1.5332    0.2955 H   0  0  0  0  0  0  0  0  0  0  0  0
   -2.7939    1.3630   -1.0329 H   0  0  0  0  0  0  0  0  0  0  0  0
   -5.0642   -1.5006    0.0891 H   0  0  0  0  0  0  0  0  0  0  0  0
    0.3917   -1.1125    1.3734 H   0  0  0  0  0  0  0  0  0  0  0  0
    1.8768   -1.6265   -0.5417 H   0  0  0  0  0  0  0  0  0  0  0  0
    0.4090   -1.1719   -1.5314 H   0  0  0  0  0  0  0  0  0  0  0  0
    0.8686    1.1476   -1.5002 H   0  0  0  0  0  0  0  0  0  0  0  0
    3.0739    1.6795   -1.5559 H   0  0  0  0  0  0  0  0  0  0  0  0
    4.4381   -0.1411    0.0190 H   0  0  0  0  0  0  0  0  0  0  0  0
    4.1132    1.6412    0.3817 H   0  0  0  0  0  0  0  0  0  0  0  0
    2.7027   -0.7532    1.4683 H   0  0  0  0  0  0  0  0  0  0  0  0
    2.8584    0.8931    2.1314 H   0  0  0  0  0  0  0  0  0  0  0  0
    0.9342    1.7048    0.8894 H   0  0  0  0  0  0  0  0  0  0  0  0
  1  2  1  0
  2  3  1  0
  3  4  1  0
  4  5  2  0
  5  6  1  0
  6  7  2  3
  7  8  1  0
  8  9  1  0
  9 10  1  0
 10 11  1  0
 11 12  1  0
 12 13  1  0
 13 14  1  0
  6  2  1  0
 14  8  1  0
 14 10  1  0
  1 15  1  0
  1 16  1  0
  1 17  1  0
  3 18  1  0
  8 19  1  1
  9 20  1  0
  9 21  1  0
 10 22  1  6
 11 23  1  0
 12 24  1  0
 12 25  1  0
 13 26  1  0
 13 27  1  0
 14 28  1  6
M  END
$$$$

     RDKit          3D

 28 30  0  0  0  0  0  0  0  0999 V2000
    3.8799    0.8134   -0.1699 C   0  0  0  0  0  0  0  0  0  0  0  0
    2.9906   -0.3232    0.0587 N   0  0  0  0  0  0  0  0  0  0  0  0
    3.3350   -1.6002    0.0556 N   0  0  0  0  0  0  0  0  0  0  0  0
    2.2392   -2.3195    0.3035 N   0  0  0  0  0  0  0  0  0  0  0  0
    1.2084   -1.5070    0.4626 N   0  0  0  0  0  0  0  0  0  0  0  0
    1.6805   -0.2665    0.3095 C   0  0  0  0  0  0  0  0  0  0  0  0
    1.0308    0.8606    0.3792 N   0  0  0  0  0  0  0  0  0  0  0  0
   -0.3913    0.7961    0.6577 C   0  0  1  0  0  0  0  0  0  0  0  0
   -1.2139    1.8859    0.0322 C   0  0  0  0  0  0  0  0  0  0  0  0
   -1.9963    0.8951   -0.7699 C   0  0  2  0  0  0  0  0  0  0  0  0
   -3.3087    0.5487   -0.2258 N   0  0  0  0  0  0  0  0  0  0  0  0
   -3.2569   -0.9140   -0.3385 C   0  0  0  0  0  0  0  0  0  0  0  0
   -1.9654   -1.1851    0.4062 C   0  0  0  0  0  0  0  0  0  0  0  0
   -1.0542   -0.1862   -0.2775 C   0  0  2  0  0  0  0  0  0  0  0  0
    4.1642    1.1999    0.8406 H   0  0  0  0  0  0  0  0  0  0  0  0
    3.3339    1.6001   -0.7114 H   0  0  0  0  0  0  0  0  0  0  0  0
    4.7800    0.4965   -0.7138 H   0  0  0  0  0  0  0  0  0  0  0  0
    4.2788   -1.9879   -0.1078 H   0  0  0  0  0  0  0  0  0  0  0  0
   -0.6515    0.6144    1.7224 H   0  0  0  0  0  0  0  0  0  0  0  0
   -1.7948    2.4937    0.7558 H   0  0  0  0  0  0  0  0  0  0  0  0
   -0.6230    2.5527   -0.6519 H   0  0  0  0  0  0  0  0  0  0  0  0
   -2.0353    1.0359   -1.8532 H   0  0  0  0  0  0  0  0  0  0  0  0
   -3.3227    0.8145    0.8042 H   0  0  0  0  0  0  0  0  0  0  0  0
   -3.0891   -1.1449   -1.3882 H   0  0  0  0  0  0  0  0  0  0  0  0
   -4.1265   -1.3939    0.1257 H   0  0  0  0  0  0  0  0  0  0  0  0
   -2.0509   -0.9514    1.4954 H   0  0  0  0  0  0  0  0  0  0  0  0
   -1.6209   -2.2286    0.2538 H   0  0  0  0  0  0  0  0  0  0  0  0
   -0.4198   -0.5992   -1.0675 H   0  0  0  0  0  0  0  0  0  0  0  0
  1  2  1  0
  2  3  1  0
  3  4  1  0
  4  5  2  0
  5  6  1  0
  6  7  2  3
  7  8  1  0
  8  9  1  0
  9 10  1  0
 10 11  1  0
 11 12  1  0
 12 13  1  0
 13 14  1  0
  6  2  1  0
 14  8  1  0
 14 10  1  0
  1 15  1  0
  1 16  1  0
  1 17  1  0
  3 18  1  0
  8 19  1  1
  9 20  1  0
  9 21  1  0
 10 22  1  6
 11 23  1  0
 12 24  1  0
 12 25  1  0
 13 26  1  0
 13 27  1  0
 14 28  1  6
M  END
$$$$
