
     RDKit          3D

 24 24  0  0  0  0  0  0  0  0999 V2000
    1.4967   -0.5696    1.3696 C   0  0  0  0  0  0  0  0  0  0  0  0
    0.9554   -0.4993    0.0367 N   0  0  0  0  0  0  0  0  0  0  0  0
   -0.4483   -0.8044   -0.1514 C   0  0  0  0  0  0  0  0  0  0  0  0
   -1.2947    0.4095   -0.0243 C   0  0  0  0  0  0  0  0  0  0  0  0
   -0.8810    1.7060    0.2394 C   0  0  0  0  0  0  0  0  0  0  0  0
   -2.0009    2.4354    0.2566 N   0  0  0  0  0  0  0  0  0  0  0  0
   -3.0408    1.6498    0.0202 N   0  0  0  0  0  0  0  0  0  0  0  0
   -2.6188    0.4141   -0.1519 N   0  0  0  0  0  0  0  0  0  0  0  0
   -3.4603   -0.7506   -0.4344 C   0  0  0  0  0  0  0  0  0  0  0  0
    1.7581   -0.1460   -1.0545 C   0  0  0  0  0  0  0  0  0  0  0  0
    1.2535   -0.0911   -2.2253 O   0  0  0  0  0  0  0  0  0  0  0  0
    3.1562    0.1653   -0.9171 C   0  0  0  0  0  0  0  0  0  0  0  0
    3.7025    0.1274    0.2054 O   0  0  0  0  0  0  0  0  0  0  0  0
    3.9561    0.5162   -1.9967 O   0  0  0  0  0  0  0  0  0  0  0  0
    2.3470   -1.2908    1.4190 H   0  0  0  0  0  0  0  0  0  0  0  0
    0.7166   -0.8638    2.1145 H   0  0  0  0  0  0  0  0  0  0  0  0
    1.9201    0.4281    1.6394 H   0  0  0  0  0  0  0  0  0  0  0  0
   -0.8200   -1.5363    0.5978 H   0  0  0  0  0  0  0  0  0  0  0  0
   -0.6083   -1.2770   -1.1618 H   0  0  0  0  0  0  0  0  0  0  0  0
    0.1265    2.0608    0.3983 H   0  0  0  0  0  0  0  0  0  0  0  0
   -4.5226   -0.4892   -0.3873 H   0  0  0  0  0  0  0  0  0  0  0  0
   -3.2968   -1.5347    0.3601 H   0  0  0  0  0  0  0  0  0  0  0  0
   -3.1267   -1.2016   -1.3720 H   0  0  0  0  0  0  0  0  0  0  0  0
    4.7307    1.1415   -1.7984 H   0  0  0  0  0  0  0  0  0  0  0  0
  1  2  1  0
  2  3  1  0
  3  4  1  0
  4  5  2  0
  5  6  1  0
  6  7  2  0
  7  8  1  0
  8  9  1  0
  2 10  1  0
 10 11  2  0
 10 12  1  0
 12 13  2  0
 12 14  1  0
  8  4  1  0
  1 15  1  0
  1 16  1  0
  1 17  1  0
  3 18  1  0
  3 19  1  0
  5 20  1  0
  9 21  1  0
  9 22  1  0
  9 23  1  0
 14 24  1  0
M  END
$$$$

     RDKit          3D

 24 24  0  0  0  0  0  0  0  0999 V2000
   -1.5064    0.1390    1.6038 C   0  0  0  0  0  0  0  0  0  0  0  0
   -0.9419   -0.4268    0.3971 N   0  0  0  0  0  0  0  0  0  0  0  0
    0.4517   -0.8265    0.3441 C   0  0  0  0  0  0  0  0  0  0  0  0
    1.3163    0.2860   -0.1052 C   0  0  0  0  0  0  0  0  0  0  0  0
    0.9352    1.5544   -0.4458 C   0  0  0  0  0  0  0  0  0  0  0  0
    2.0429    2.2412   -0.7953 N   0  0  0  0  0  0  0  0  0  0  0  0
    3.0781    1.3981   -0.6671 N   0  0  0  0  0  0  0  0  0  0  0  0
    2.6457    0.2114   -0.2494 N   0  0  0  0  0  0  0  0  0  0  0  0
    3.4418   -0.9818    0.0161 C   0  0  0  0  0  0  0  0  0  0  0  0
   -1.7604   -0.5904   -0.7416 C   0  0  0  0  0  0  0  0  0  0  0  0
   -1.2594   -1.0818   -1.7804 O   0  0  0  0  0  0  0  0  0  0  0  0
   -3.1616   -0.2210   -0.7848 C   0  0  0  0  0  0  0  0  0  0  0  0
   -3.6829    0.2713    0.2403 O   0  0  0  0  0  0  0  0  0  0  0  0
   -3.9497   -0.3877   -1.9075 O   0  0  0  0  0  0  0  0  0  0  0  0
   -2.3444   -0.4703    1.9983 H   0  0  0  0  0  0  0  0  0  0  0  0
   -0.7241    0.1072    2.3930 H   0  0  0  0  0  0  0  0  0  0  0  0
   -1.8716    1.1593    1.4090 H   0  0  0  0  0  0  0  0  0  0  0  0
    0.7235   -1.1647    1.3708 H   0  0  0  0  0  0  0  0  0  0  0  0
    0.5617   -1.7290   -0.3111 H   0  0  0  0  0  0  0  0  0  0  0  0
   -0.0842    1.9130   -0.4276 H   0  0  0  0  0  0  0  0  0  0  0  0
    3.5629   -1.1224    1.1292 H   0  0  0  0  0  0  0  0  0  0  0  0
    2.9037   -1.8727   -0.3601 H   0  0  0  0  0  0  0  0  0  0  0  0
    4.4623   -0.8924   -0.3885 H   0  0  0  0  0  0  0  0  0  0  0  0
   -4.8390    0.0941   -1.9372 H   0  0  0  0  0  0  0  0  0  0  0  0
  1  2  1  0
  2  3  1  0
  3  4  1  0
  4  5  2  0
  5  6  1  0
  6  7  2  0
  7  8  1  0
  8  9  1  0
  2 10  1  0
 10 11  2  0
 10 12  1  0
 12 13  2  0
 12 14  1  0
  8  4  1  0
  1 15  1  0
  1 16  1  0
  1 17  1  0
  3 18  1  0
  3 19  1  0
  5 20  1  0
  9 21  1  0
  9 22  1  0
  9 23  1  0
 14 24  1  0
M  END
$$$$

     RDKit          3D

 24 24  0  0  0  0  0  0  0  0999 V2000
    0.8479    0.4180   -1.7242 C   0  0  0  0  0  0  0  0  0  0  0  0
    0.7842    0.5653   -0.2956 N   0  0  0  0  0  0  0  0  0  0  0  0
   -0.4392    1.0231    0.3126 C   0  0  0  0  0  0  0  0  0  0  0  0
   -1.3647   -0.0575    0.6802 C   0  0  0  0  0  0  0  0  0  0  0  0
   -1.3698   -0.7721    1.8590 C   0  0  0  0  0  0  0  0  0  0  0  0
   -2.3835   -1.6774    1.8036 N   0  0  0  0  0  0  0  0  0  0  0  0
   -2.9871   -1.5247    0.6219 N   0  0  0  0  0  0  0  0  0  0  0  0
   -2.3706   -0.5442   -0.0584 N   0  0  0  0  0  0  0  0  0  0  0  0
   -2.7499   -0.0962   -1.3828 C   0  0  0  0  0  0  0  0  0  0  0  0
    1.9163    0.2620    0.4895 C   0  0  0  0  0  0  0  0  0  0  0  0
    1.8520    0.3952    1.7368 O   0  0  0  0  0  0  0  0  0  0  0  0
    3.1751   -0.2045   -0.0747 C   0  0  0  0  0  0  0  0  0  0  0  0
    3.3304   -0.3691   -1.3190 O   0  0  0  0  0  0  0  0  0  0  0  0
    4.2682   -0.4913    0.7324 O   0  0  0  0  0  0  0  0  0  0  0  0
   -0.1038    0.7545   -2.1821 H   0  0  0  0  0  0  0  0  0  0  0  0
    1.1207   -0.6134   -2.0340 H   0  0  0  0  0  0  0  0  0  0  0  0
    1.6825    1.0716   -2.1171 H   0  0  0  0  0  0  0  0  0  0  0  0
   -0.9459    1.7893   -0.3477 H   0  0  0  0  0  0  0  0  0  0  0  0
   -0.1208    1.6346    1.2076 H   0  0  0  0  0  0  0  0  0  0  0  0
   -0.6629   -0.6050    2.6686 H   0  0  0  0  0  0  0  0  0  0  0  0
   -3.8665   -0.0928   -1.5021 H   0  0  0  0  0  0  0  0  0  0  0  0
   -2.4127    0.9434   -1.5552 H   0  0  0  0  0  0  0  0  0  0  0  0
   -2.2561   -0.7556   -2.1325 H   0  0  0  0  0  0  0  0  0  0  0  0
    5.0563   -1.0530    0.4100 H   0  0  0  0  0  0  0  0  0  0  0  0
  1  2  1  0
  2  3  1  0
  3  4  1  0
  4  5  2  0
  5  6  1  0
  6  7  2  0
  7  8  1  0
  8  9  1  0
  2 10  1  0
 10 11  2  0
 10 12  1  0
 12 13  2  0
 12 14  1  0
  8  4  1  0
  1 15  1  0
  1 16  1  0
  1 17  1  0
  3 18  1  0
  3 19  1  0
  5 20  1  0
  9 21  1  0
  9 22  1  0
  9 23  1  0
 14 24  1  0
M  END
$$$$

     RDKit          3D

 24 24  0  0  0  0  0  0  0  0999 V2000
    0.0953   -2.1407   -0.1560 C   0  0  0  0  0  0  0  0  0  0  0  0
    0.7144   -0.8207   -0.3988 N   0  0  0  0  0  0  0  0  0  0  0  0
   -0.0370    0.1736   -1.0874 C   0  0  0  0  0  0  0  0  0  0  0  0
   -0.8738    1.0335   -0.2437 C   0  0  0  0  0  0  0  0  0  0  0  0
   -0.6432    2.2959    0.2261 C   0  0  0  0  0  0  0  0  0  0  0  0
   -1.7179    2.6861    0.9773 N   0  0  0  0  0  0  0  0  0  0  0  0
   -2.5740    1.6995    0.9672 N   0  0  0  0  0  0  0  0  0  0  0  0
   -2.0941    0.6911    0.2407 N   0  0  0  0  0  0  0  0  0  0  0  0
   -2.7451   -0.5783   -0.0138 C   0  0  0  0  0  0  0  0  0  0  0  0
    2.0195   -0.6483    0.0953 C   0  0  0  0  0  0  0  0  0  0  0  0
    2.5898   -1.6095    0.7345 O   0  0  0  0  0  0  0  0  0  0  0  0
    2.8445    0.5372   -0.0332 C   0  0  0  0  0  0  0  0  0  0  0  0
    2.4031    1.5271   -0.6469 O   0  0  0  0  0  0  0  0  0  0  0  0
    4.1296    0.6335    0.5020 O   0  0  0  0  0  0  0  0  0  0  0  0
   -0.6227   -2.4039   -0.9564 H   0  0  0  0  0  0  0  0  0  0  0  0
    0.9060   -2.9246   -0.2289 H   0  0  0  0  0  0  0  0  0  0  0  0
   -0.3071   -2.2169    0.8688 H   0  0  0  0  0  0  0  0  0  0  0  0
    0.5934    0.7894   -1.7885 H   0  0  0  0  0  0  0  0  0  0  0  0
   -0.6872   -0.4057   -1.8299 H   0  0  0  0  0  0  0  0  0  0  0  0
    0.2168    2.9224    0.0611 H   0  0  0  0  0  0  0  0  0  0  0  0
   -2.5324   -1.3367    0.7671 H   0  0  0  0  0  0  0  0  0  0  0  0
   -2.5240   -0.9500   -1.0323 H   0  0  0  0  0  0  0  0  0  0  0  0
   -3.8564   -0.3925    0.0401 H   0  0  0  0  0  0  0  0  0  0  0  0
    4.7024    1.4382    0.2714 H   0  0  0  0  0  0  0  0  0  0  0  0
  1  2  1  0
  2  3  1  0
  3  4  1  0
  4  5  2  0
  5  6  1  0
  6  7  2  0
  7  8  1  0
  8  9  1  0
  2 10  1  0
 10 11  2  0
 10 12  1  0
 12 13  2  0
 12 14  1  0
  8  4  1  0
  1 15  1  0
  1 16  1  0
  1 17  1  0
  3 18  1  0
  3 19  1  0
  5 20  1  0
  9 21  1  0
  9 22  1  0
  9 23  1  0
 14 24  1  0
M  END
$$$$

     RDKit          3D

 24 24  0  0  0  0  0  0  0  0999 V2000
    1.1031   -2.1155   -1.3092 C   0  0  0  0  0  0  0  0  0  0  0  0
    0.9920   -0.7227   -0.8511 N   0  0  0  0  0  0  0  0  0  0  0  0
   -0.2670   -0.0653   -0.8272 C   0  0  0  0  0  0  0  0  0  0  0  0
   -1.0009   -0.1646    0.4288 C   0  0  0  0  0  0  0  0  0  0  0  0
   -0.6357   -0.8072    1.5845 C   0  0  0  0  0  0  0  0  0  0  0  0
   -1.6216   -0.6481    2.5190 N   0  0  0  0  0  0  0  0  0  0  0  0
   -2.5460    0.0738    1.9215 N   0  0  0  0  0  0  0  0  0  0  0  0
   -2.2027    0.3745    0.6798 N   0  0  0  0  0  0  0  0  0  0  0  0
   -3.0494    1.1625   -0.1935 C   0  0  0  0  0  0  0  0  0  0  0  0
    2.1756   -0.0751   -0.4618 C   0  0  0  0  0  0  0  0  0  0  0  0
    3.2889   -0.7272   -0.5525 O   0  0  0  0  0  0  0  0  0  0  0  0
    2.3309    1.2609    0.0438 C   0  0  0  0  0  0  0  0  0  0  0  0
    1.3394    2.0026    0.2040 O   0  0  0  0  0  0  0  0  0  0  0  0
    3.5656    1.8224    0.3871 O   0  0  0  0  0  0  0  0  0  0  0  0
    0.2944   -2.3712   -2.0212 H   0  0  0  0  0  0  0  0  0  0  0  0
    2.0557   -2.2558   -1.8933 H   0  0  0  0  0  0  0  0  0  0  0  0
    1.1810   -2.8170   -0.4585 H   0  0  0  0  0  0  0  0  0  0  0  0
   -0.8956   -0.4836   -1.6970 H   0  0  0  0  0  0  0  0  0  0  0  0
   -0.1686    0.9990   -1.1086 H   0  0  0  0  0  0  0  0  0  0  0  0
    0.2748   -1.3458    1.7291 H   0  0  0  0  0  0  0  0  0  0  0  0
   -3.4202    2.0223    0.4368 H   0  0  0  0  0  0  0  0  0  0  0  0
   -3.9253    0.5138   -0.4742 H   0  0  0  0  0  0  0  0  0  0  0  0
   -2.5204    1.5391   -1.0685 H   0  0  0  0  0  0  0  0  0  0  0  0
    3.6519    2.8287    0.4441 H   0  0  0  0  0  0  0  0  0  0  0  0
  1  2  1  0
  2  3  1  0
  3  4  1  0
  4  5  2  0
  5  6  1  0
  6  7  2  0
  7  8  1  0
  8  9  1  0
  2 10  1  0
 10 11  2  0
 10 12  1  0
 12 13  2  0
 12 14  1  0
  8  4  1  0
  1 15  1  0
  1 16  1  0
  1 17  1  0
  3 18  1  0
  3 19  1  0
  5 20  1  0
  9 21  1  0
  9 22  1  0
  9 23  1  0
 14 24  1  0
M  END
$$$$

     RDKit          3D

 24 24  0  0  0  0  0  0  0  0999 V2000
   -1.3150   -2.2535   -0.0870 C   0  0  0  0  0  0  0  0  0  0  0  0
   -1.1566   -0.7954   -0.2008 N   0  0  0  0  0  0  0  0  0  0  0  0
    0.0502   -0.3024   -0.7752 C   0  0  0  0  0  0  0  0  0  0  0  0
    1.0810   -0.0816    0.3005 C   0  0  0  0  0  0  0  0  0  0  0  0
    0.9804   -0.2883    1.6417 C   0  0  0  0  0  0  0  0  0  0  0  0
    2.1594    0.0480    2.2180 N   0  0  0  0  0  0  0  0  0  0  0  0
    2.9576    0.4501    1.2454 N   0  0  0  0  0  0  0  0  0  0  0  0
    2.3252    0.3806    0.0701 N   0  0  0  0  0  0  0  0  0  0  0  0
    2.9242    0.7491   -1.1820 C   0  0  0  0  0  0  0  0  0  0  0  0
   -2.2183    0.0289    0.2664 C   0  0  0  0  0  0  0  0  0  0  0  0
   -3.2597   -0.5343    0.7546 O   0  0  0  0  0  0  0  0  0  0  0  0
   -2.2074    1.4717    0.2304 C   0  0  0  0  0  0  0  0  0  0  0  0
   -1.2395    2.1270   -0.2205 O   0  0  0  0  0  0  0  0  0  0  0  0
   -3.2846    2.2035    0.7006 O   0  0  0  0  0  0  0  0  0  0  0  0
   -1.7767   -2.4087    0.9313 H   0  0  0  0  0  0  0  0  0  0  0  0
   -2.0713   -2.5809   -0.8310 H   0  0  0  0  0  0  0  0  0  0  0  0
   -0.3585   -2.7691   -0.1919 H   0  0  0  0  0  0  0  0  0  0  0  0
   -0.0391    0.5722   -1.4256 H   0  0  0  0  0  0  0  0  0  0  0  0
    0.4788   -1.1189   -1.4325 H   0  0  0  0  0  0  0  0  0  0  0  0
    0.1015   -0.6578    2.1406 H   0  0  0  0  0  0  0  0  0  0  0  0
    2.1624    1.1228   -1.9248 H   0  0  0  0  0  0  0  0  0  0  0  0
    3.5070   -0.1098   -1.6197 H   0  0  0  0  0  0  0  0  0  0  0  0
    3.6596    1.5823   -1.0812 H   0  0  0  0  0  0  0  0  0  0  0  0
   -3.4607    3.1647    0.4727 H   0  0  0  0  0  0  0  0  0  0  0  0
  1  2  1  0
  2  3  1  0
  3  4  1  0
  4  5  2  0
  5  6  1  0
  6  7  2  0
  7  8  1  0
  8  9  1  0
  2 10  1  0
 10 11  2  0
 10 12  1  0
 12 13  2  0
 12 14  1  0
  8  4  1  0
  1 15  1  0
  1 16  1  0
  1 17  1  0
  3 18  1  0
  3 19  1  0
  5 20  1  0
  9 21  1  0
  9 22  1  0
  9 23  1  0
 14 24  1  0
M  END
$$$$

     RDKit          3D

 24 24  0  0  0  0  0  0  0  0999 V2000
   -1.5093   -0.5041   -1.5557 C   0  0  0  0  0  0  0  0  0  0  0  0
   -1.0007   -0.4393   -0.2074 N   0  0  0  0  0  0  0  0  0  0  0  0
    0.3379   -0.9329    0.1261 C   0  0  0  0  0  0  0  0  0  0  0  0
    1.3083    0.2052   -0.0352 C   0  0  0  0  0  0  0  0  0  0  0  0
    0.9898    1.4888   -0.4288 C   0  0  0  0  0  0  0  0  0  0  0  0
    2.1567    2.1584   -0.4344 N   0  0  0  0  0  0  0  0  0  0  0  0
    3.1298    1.3384   -0.0676 N   0  0  0  0  0  0  0  0  0  0  0  0
    2.6434    0.1346    0.1839 N   0  0  0  0  0  0  0  0  0  0  0  0
    3.4025   -1.0348    0.6128 C   0  0  0  0  0  0  0  0  0  0  0  0
   -1.7788    0.1035    0.8379 C   0  0  0  0  0  0  0  0  0  0  0  0
   -1.3413    0.1665    2.0334 O   0  0  0  0  0  0  0  0  0  0  0  0
   -3.1119    0.6103    0.5798 C   0  0  0  0  0  0  0  0  0  0  0  0
   -3.5944    0.5771   -0.5630 O   0  0  0  0  0  0  0  0  0  0  0  0
   -3.8934    1.1531    1.6181 O   0  0  0  0  0  0  0  0  0  0  0  0
   -0.7296   -0.9678   -2.2013 H   0  0  0  0  0  0  0  0  0  0  0  0
   -2.4018   -1.1444   -1.5814 H   0  0  0  0  0  0  0  0  0  0  0  0
   -1.7178    0.5138   -1.9405 H   0  0  0  0  0  0  0  0  0  0  0  0
    0.3549   -1.3192    1.1493 H   0  0  0  0  0  0  0  0  0  0  0  0
    0.6690   -1.7296   -0.5606 H   0  0  0  0  0  0  0  0  0  0  0  0
   -0.0080    1.8755   -0.6826 H   0  0  0  0  0  0  0  0  0  0  0  0
    2.9102   -1.9746    0.3573 H   0  0  0  0  0  0  0  0  0  0  0  0
    3.5674   -0.9405    1.7015 H   0  0  0  0  0  0  0  0  0  0  0  0
    4.3733   -0.9946    0.0403 H   0  0  0  0  0  0  0  0  0  0  0  0
   -4.7564    1.6565    1.3634 H   0  0  0  0  0  0  0  0  0  0  0  0
  1  2  1  0
  2  3  1  0
  3  4  1  0
  4  5  2  0
  5  6  1  0
  6  7  2  0
  7  8  1  0
  8  9  1  0
  2 10  1  0
 10 11  2  0
 10 12  1  0
 12 13  2  0
 12 14  1  0
  8  4  1  0
  1 15  1  0
  1 16  1  0
  1 17  1  0
  3 18  1  0
  3 19  1  0
  5 20  1  0
  9 21  1  0
  9 22  1  0
  9 23  1  0
 14 24  1  0
M  END
$$$$

     RDKit          3D

 24 24  0  0  0  0  0  0  0  0999 V2000
    0.1038   -2.1170   -0.2916 C   0  0  0  0  0  0  0  0  0  0  0  0
    0.7765   -0.8617    0.0855 N   0  0  0  0  0  0  0  0  0  0  0  0
    0.0915   -0.0473    1.0467 C   0  0  0  0  0  0  0  0  0  0  0  0
   -0.8540    0.9224    0.4927 C   0  0  0  0  0  0  0  0  0  0  0  0
   -0.6406    2.2589    0.2948 C   0  0  0  0  0  0  0  0  0  0  0  0
   -1.7748    2.8103   -0.2442 N   0  0  0  0  0  0  0  0  0  0  0  0
   -2.6372    1.8162   -0.3601 N   0  0  0  0  0  0  0  0  0  0  0  0
   -2.1111    0.6933    0.0703 N   0  0  0  0  0  0  0  0  0  0  0  0
   -2.8436   -0.5643    0.0607 C   0  0  0  0  0  0  0  0  0  0  0  0
    1.9999   -0.5641   -0.5216 C   0  0  0  0  0  0  0  0  0  0  0  0
    2.4585   -1.3997   -1.3943 O   0  0  0  0  0  0  0  0  0  0  0  0
    2.8456    0.5839   -0.2981 C   0  0  0  0  0  0  0  0  0  0  0  0
    2.5180    1.4518    0.5309 O   0  0  0  0  0  0  0  0  0  0  0  0
    4.0352    0.7782   -0.9746 O   0  0  0  0  0  0  0  0  0  0  0  0
   -0.5223   -2.5035    0.5350 H   0  0  0  0  0  0  0  0  0  0  0  0
    0.9211   -2.8558   -0.5195 H   0  0  0  0  0  0  0  0  0  0  0  0
   -0.4450   -1.9235   -1.2272 H   0  0  0  0  0  0  0  0  0  0  0  0
    0.8636    0.4104    1.7122 H   0  0  0  0  0  0  0  0  0  0  0  0
   -0.4890   -0.7042    1.7822 H   0  0  0  0  0  0  0  0  0  0  0  0
    0.2257    2.8661    0.4964 H   0  0  0  0  0  0  0  0  0  0  0  0
   -2.5298   -1.2416    0.8541 H   0  0  0  0  0  0  0  0  0  0  0  0
   -3.9431   -0.3772    0.0885 H   0  0  0  0  0  0  0  0  0  0  0  0
   -2.6501   -1.0429   -0.9175 H   0  0  0  0  0  0  0  0  0  0  0  0
    4.6013    1.6112   -0.8886 H   0  0  0  0  0  0  0  0  0  0  0  0
  1  2  1  0
  2  3  1  0
  3  4  1  0
  4  5  2  0
  5  6  1  0
  6  7  2  0
  7  8  1  0
  8  9  1  0
  2 10  1  0
 10 11  2  0
 10 12  1  0
 12 13  2  0
 12 14  1  0
  8  4  1  0
  1 15  1  0
  1 16  1  0
  1 17  1  0
  3 18  1  0
  3 19  1  0
  5 20  1  0
  9 21  1  0
  9 22  1  0
  9 23  1  0
 14 24  1  0
M  END
$$$$
