
     RDKit          3D

 28 28  0  0  0  0  0  0  0  0999 V2000
   -2.5959    1.1537    1.7137 N   0  0  0  0  0  0  0  0  0  0  0  0
   -1.4787    0.5572    1.0222 C   0  0  0  0  0  0  0  0  0  0  0  0
   -1.7715    0.4750   -0.4377 C   0  0  2  0  0  0  0  0  0  0  0  0
   -3.0064   -0.3716   -0.6820 C   0  0  0  0  0  0  0  0  0  0  0  0
   -2.0767   -1.5486   -0.9046 C   0  0  0  0  0  0  0  0  0  0  0  0
   -0.9881   -0.5340   -1.2266 C   0  0  2  0  0  0  0  0  0  0  0  0
    0.3158   -0.9260   -0.6714 C   0  0  0  0  0  0  0  0  0  0  0  0
    0.5713   -2.1207   -0.3629 O   0  0  0  0  0  0  0  0  0  0  0  0
    1.3402    0.0327   -0.4616 N   0  0  0  0  0  0  0  0  0  0  0  0
    2.6452   -0.3552    0.0932 C   0  0  0  0  0  0  0  0  0  0  0  0
    3.5412    0.7946    0.2211 C   0  0  0  0  0  0  0  0  0  0  0  0
    4.8470    0.5903    0.7434 N   0  0  0  0  0  0  0  0  0  0  0  0
    3.1212    1.9314   -0.1382 O   0  0  0  0  0  0  0  0  0  0  0  0
   -3.3487    1.3521    1.0490 H   0  0  0  0  0  0  0  0  0  0  0  0
   -2.2533    2.0285    2.1663 H   0  0  0  0  0  0  0  0  0  0  0  0
   -1.3530   -0.4649    1.4332 H   0  0  0  0  0  0  0  0  0  0  0  0
   -0.5220    1.0931    1.2403 H   0  0  0  0  0  0  0  0  0  0  0  0
   -1.7982    1.4479   -0.9628 H   0  0  0  0  0  0  0  0  0  0  0  0
   -3.5745   -0.0624   -1.5943 H   0  0  0  0  0  0  0  0  0  0  0  0
   -3.6720   -0.4805    0.2129 H   0  0  0  0  0  0  0  0  0  0  0  0
   -2.3643   -2.2004   -1.7606 H   0  0  0  0  0  0  0  0  0  0  0  0
   -1.8894   -2.1312    0.0201 H   0  0  0  0  0  0  0  0  0  0  0  0
   -1.0161   -0.3120   -2.3060 H   0  0  0  0  0  0  0  0  0  0  0  0
    1.1267    1.0221   -0.7178 H   0  0  0  0  0  0  0  0  0  0  0  0
    3.0571   -1.0903   -0.6587 H   0  0  0  0  0  0  0  0  0  0  0  0
    2.4934   -0.9135    1.0189 H   0  0  0  0  0  0  0  0  0  0  0  0
    4.9543    0.5942    1.7768 H   0  0  0  0  0  0  0  0  0  0  0  0
    5.6953    0.4385    0.1745 H   0  0  0  0  0  0  0  0  0  0  0  0
  1  2  1  0
  2  3  1  0
  3  4  1  0
  4  5  1  0
  5  6  1  0
  6  7  1  0
  7  8  2  0
  7  9  1  0
  9 10  1  0
 10 11  1  0
 11 12  1  0
 11 13  2  0
  6  3  1  0
  1 14  1  0
  1 15  1  0
  2 16  1  0
  2 17  1  0
  3 18  1  6
  4 19  1  0
  4 20  1  0
  5 21  1  0
  5 22  1  0
  6 23  1  6
  9 24  1  0
 10 25  1  0
 10 26  1  0
 12 27  1  0
 12 28  1  0
M  END
$$$$

     RDKit          3D

 28 28  0  0  0  0  0  0  0  0999 V2000
   -2.3963    2.1869   -0.1144 N   0  0  0  0  0  0  0  0  0  0  0  0
   -1.6892    1.0867   -0.7300 C   0  0  0  0  0  0  0  0  0  0  0  0
   -2.1776   -0.2513   -0.2882 C   0  0  2  0  0  0  0  0  0  0  0  0
   -2.0579   -0.4979    1.1912 C   0  0  0  0  0  0  0  0  0  0  0  0
   -1.4477   -1.8249    0.8819 C   0  0  0  0  0  0  0  0  0  0  0  0
   -1.2129   -1.3703   -0.5317 C   0  0  2  0  0  0  0  0  0  0  0  0
    0.1621   -1.0407   -0.8892 C   0  0  0  0  0  0  0  0  0  0  0  0
    0.5731   -1.3636   -2.0521 O   0  0  0  0  0  0  0  0  0  0  0  0
    1.1150   -0.3883   -0.0768 N   0  0  0  0  0  0  0  0  0  0  0  0
    2.4670   -0.0942   -0.5123 C   0  0  0  0  0  0  0  0  0  0  0  0
    3.2321    0.5907    0.5449 C   0  0  0  0  0  0  0  0  0  0  0  0
    4.5817    0.9648    0.3129 N   0  0  0  0  0  0  0  0  0  0  0  0
    2.6580    0.8273    1.6384 O   0  0  0  0  0  0  0  0  0  0  0  0
   -3.3319    1.9516    0.2305 H   0  0  0  0  0  0  0  0  0  0  0  0
   -2.4165    2.9910   -0.7857 H   0  0  0  0  0  0  0  0  0  0  0  0
   -0.6177    1.1943   -0.4909 H   0  0  0  0  0  0  0  0  0  0  0  0
   -1.7594    1.1326   -1.8413 H   0  0  0  0  0  0  0  0  0  0  0  0
   -3.1972   -0.4533   -0.6867 H   0  0  0  0  0  0  0  0  0  0  0  0
   -1.3896    0.2182    1.6822 H   0  0  0  0  0  0  0  0  0  0  0  0
   -3.0439   -0.5699    1.7200 H   0  0  0  0  0  0  0  0  0  0  0  0
   -2.2080   -2.6259    0.9250 H   0  0  0  0  0  0  0  0  0  0  0  0
   -0.5526   -2.1004    1.4606 H   0  0  0  0  0  0  0  0  0  0  0  0
   -1.6472   -2.1042   -1.2644 H   0  0  0  0  0  0  0  0  0  0  0  0
    0.8288   -0.1131    0.8757 H   0  0  0  0  0  0  0  0  0  0  0  0
    2.4208    0.5206   -1.4265 H   0  0  0  0  0  0  0  0  0  0  0  0
    2.9654   -1.0573   -0.7511 H   0  0  0  0  0  0  0  0  0  0  0  0
    5.3504    0.3008    0.5477 H   0  0  0  0  0  0  0  0  0  0  0  0
    4.7910    1.8900   -0.0859 H   0  0  0  0  0  0  0  0  0  0  0  0
  1  2  1  0
  2  3  1  0
  3  4  1  0
  4  5  1  0
  5  6  1  0
  6  7  1  0
  7  8  2  0
  7  9  1  0
  9 10  1  0
 10 11  1  0
 11 12  1  0
 11 13  2  0
  6  3  1  0
  1 14  1  0
  1 15  1  0
  2 16  1  0
  2 17  1  0
  3 18  1  6
  4 19  1  0
  4 20  1  0
  5 21  1  0
  5 22  1  0
  6 23  1  6
  9 24  1  0
 10 25  1  0
 10 26  1  0
 12 27  1  0
 12 28  1  0
M  END
$$$$

     RDKit          3D

 28 28  0  0  0  0  0  0  0  0999 V2000
   -3.4837    1.7123   -0.1396 N   0  0  0  0  0  0  0  0  0  0  0  0
   -2.1197    1.3400   -0.5501 C   0  0  0  0  0  0  0  0  0  0  0  0
   -2.0398   -0.1323   -0.4908 C   0  0  2  0  0  0  0  0  0  0  0  0
   -2.2974   -0.7312    0.8718 C   0  0  0  0  0  0  0  0  0  0  0  0
   -1.4045   -1.8904    0.3994 C   0  0  0  0  0  0  0  0  0  0  0  0
   -0.7550   -0.8460   -0.5278 C   0  0  2  0  0  0  0  0  0  0  0  0
    0.4378   -0.2884    0.0968 C   0  0  0  0  0  0  0  0  0  0  0  0
    0.5621    0.7749    0.7186 O   0  0  0  0  0  0  0  0  0  0  0  0
    1.6488   -1.0728   -0.0168 N   0  0  0  0  0  0  0  0  0  0  0  0
    2.8909   -0.6366    0.5539 C   0  0  0  0  0  0  0  0  0  0  0  0
    3.3690    0.6391    0.0345 C   0  0  0  0  0  0  0  0  0  0  0  0
    4.5819    1.1893    0.5088 N   0  0  0  0  0  0  0  0  0  0  0  0
    2.7216    1.2645   -0.8317 O   0  0  0  0  0  0  0  0  0  0  0  0
   -4.1645    1.5640   -0.9112 H   0  0  0  0  0  0  0  0  0  0  0  0
   -3.5058    2.6731    0.2563 H   0  0  0  0  0  0  0  0  0  0  0  0
   -1.4030    1.8353    0.1258 H   0  0  0  0  0  0  0  0  0  0  0  0
   -1.9878    1.7786   -1.5461 H   0  0  0  0  0  0  0  0  0  0  0  0
   -2.7580   -0.6006   -1.2226 H   0  0  0  0  0  0  0  0  0  0  0  0
   -1.8261   -0.1335    1.6792 H   0  0  0  0  0  0  0  0  0  0  0  0
   -3.3453   -1.0176    1.0176 H   0  0  0  0  0  0  0  0  0  0  0  0
   -2.0254   -2.6315   -0.1493 H   0  0  0  0  0  0  0  0  0  0  0  0
   -0.7517   -2.2692    1.1824 H   0  0  0  0  0  0  0  0  0  0  0  0
   -0.5642   -1.3641   -1.5144 H   0  0  0  0  0  0  0  0  0  0  0  0
    1.6232   -1.9812   -0.5266 H   0  0  0  0  0  0  0  0  0  0  0  0
    2.8018   -0.6281    1.6759 H   0  0  0  0  0  0  0  0  0  0  0  0
    3.6647   -1.3977    0.3290 H   0  0  0  0  0  0  0  0  0  0  0  0
    5.2440    0.6775    1.1360 H   0  0  0  0  0  0  0  0  0  0  0  0
    4.8860    2.1724    0.2447 H   0  0  0  0  0  0  0  0  0  0  0  0
  1  2  1  0
  2  3  1  0
  3  4  1  0
  4  5  1  0
  5  6  1  0
  6  7  1  0
  7  8  2  0
  7  9  1  0
  9 10  1  0
 10 11  1  0
 11 12  1  0
 11 13  2  0
  6  3  1  0
  1 14  1  0
  1 15  1  0
  2 16  1  0
  2 17  1  0
  3 18  1  6
  4 19  1  0
  4 20  1  0
  5 21  1  0
  5 22  1  0
  6 23  1  6
  9 24  1  0
 10 25  1  0
 10 26  1  0
 12 27  1  0
 12 28  1  0
M  END
$$$$

     RDKit          3D

 28 28  0  0  0  0  0  0  0  0999 V2000
   -2.9003    0.7247    1.3938 N   0  0  0  0  0  0  0  0  0  0  0  0
   -1.6402    0.3395    0.7971 C   0  0  0  0  0  0  0  0  0  0  0  0
   -1.7719    0.4265   -0.7060 C   0  0  2  0  0  0  0  0  0  0  0  0
   -2.8648   -0.4985   -1.2040 C   0  0  0  0  0  0  0  0  0  0  0  0
   -1.7972   -1.5585   -1.3903 C   0  0  0  0  0  0  0  0  0  0  0  0
   -0.7880   -0.4209   -1.4728 C   0  0  2  0  0  0  0  0  0  0  0  0
    0.4509   -0.7686   -0.7804 C   0  0  0  0  0  0  0  0  0  0  0  0
    0.7416   -1.9981   -0.5821 O   0  0  0  0  0  0  0  0  0  0  0  0
    1.3940    0.1683   -0.2907 N   0  0  0  0  0  0  0  0  0  0  0  0
    2.6120   -0.2139    0.3913 C   0  0  0  0  0  0  0  0  0  0  0  0
    3.4163    0.9492    0.7975 C   0  0  0  0  0  0  0  0  0  0  0  0
    4.6486    0.8241    1.4794 N   0  0  0  0  0  0  0  0  0  0  0  0
    3.0038    2.1020    0.5346 O   0  0  0  0  0  0  0  0  0  0  0  0
   -3.5929    1.0461    0.6561 H   0  0  0  0  0  0  0  0  0  0  0  0
   -2.7298    1.5081    2.0895 H   0  0  0  0  0  0  0  0  0  0  0  0
   -0.7879    0.9578    1.1499 H   0  0  0  0  0  0  0  0  0  0  0  0
   -1.4725   -0.7376    1.0772 H   0  0  0  0  0  0  0  0  0  0  0  0
   -1.8698    1.4652   -1.0613 H   0  0  0  0  0  0  0  0  0  0  0  0
   -3.2911   -0.2150   -2.1896 H   0  0  0  0  0  0  0  0  0  0  0  0
   -3.6230   -0.7266   -0.4278 H   0  0  0  0  0  0  0  0  0  0  0  0
   -1.6196   -2.1570   -0.4702 H   0  0  0  0  0  0  0  0  0  0  0  0
   -1.8500   -2.1232   -2.3249 H   0  0  0  0  0  0  0  0  0  0  0  0
   -0.7095   -0.0747   -2.5075 H   0  0  0  0  0  0  0  0  0  0  0  0
    1.1750    1.1804   -0.4428 H   0  0  0  0  0  0  0  0  0  0  0  0
    2.4230   -0.8783    1.2598 H   0  0  0  0  0  0  0  0  0  0  0  0
    3.1841   -0.8519   -0.3423 H   0  0  0  0  0  0  0  0  0  0  0  0
    5.4094    0.2403    1.0680 H   0  0  0  0  0  0  0  0  0  0  0  0
    4.8499    1.2906    2.3909 H   0  0  0  0  0  0  0  0  0  0  0  0
  1  2  1  0
  2  3  1  0
  3  4  1  0
  4  5  1  0
  5  6  1  0
  6  7  1  0
  7  8  2  0
  7  9  1  0
  9 10  1  0
 10 11  1  0
 11 12  1  0
 11 13  2  0
  6  3  1  0
  1 14  1  0
  1 15  1  0
  2 16  1  0
  2 17  1  0
  3 18  1  6
  4 19  1  0
  4 20  1  0
  5 21  1  0
  5 22  1  0
  6 23  1  6
  9 24  1  0
 10 25  1  0
 10 26  1  0
 12 27  1  0
 12 28  1  0
M  END
$$$$

     RDKit          3D

 28 28  0  0  0  0  0  0  0  0999 V2000
   -3.0218    1.8395   -0.7056 N   0  0  0  0  0  0  0  0  0  0  0  0
   -2.8649    0.7621    0.2840 C   0  0  0  0  0  0  0  0  0  0  0  0
   -2.3345   -0.4128   -0.4152 C   0  0  2  0  0  0  0  0  0  0  0  0
   -2.0777   -1.6658    0.3729 C   0  0  0  0  0  0  0  0  0  0  0  0
   -1.0422   -1.9883   -0.7186 C   0  0  0  0  0  0  0  0  0  0  0  0
   -0.9102   -0.4599   -0.8479 C   0  0  2  0  0  0  0  0  0  0  0  0
    0.1116    0.0475    0.0921 C   0  0  0  0  0  0  0  0  0  0  0  0
   -0.1266    0.5073    1.2271 O   0  0  0  0  0  0  0  0  0  0  0  0
    1.4659    0.0043   -0.3384 N   0  0  0  0  0  0  0  0  0  0  0  0
    2.4972    0.4931    0.5559 C   0  0  0  0  0  0  0  0  0  0  0  0
    3.8447    0.3601   -0.0830 C   0  0  0  0  0  0  0  0  0  0  0  0
    5.0116    0.7773    0.6107 N   0  0  0  0  0  0  0  0  0  0  0  0
    3.9239   -0.1270   -1.2434 O   0  0  0  0  0  0  0  0  0  0  0  0
   -2.0767    2.2197   -0.9545 H   0  0  0  0  0  0  0  0  0  0  0  0
   -3.6008    2.5958   -0.2806 H   0  0  0  0  0  0  0  0  0  0  0  0
   -3.9291    0.5181    0.5798 H   0  0  0  0  0  0  0  0  0  0  0  0
   -2.3781    1.0891    1.1948 H   0  0  0  0  0  0  0  0  0  0  0  0
   -2.9906   -0.6751   -1.2876 H   0  0  0  0  0  0  0  0  0  0  0  0
   -2.9189   -2.3832    0.3303 H   0  0  0  0  0  0  0  0  0  0  0  0
   -1.5628   -1.5540    1.3278 H   0  0  0  0  0  0  0  0  0  0  0  0
   -1.5584   -2.3761   -1.6041 H   0  0  0  0  0  0  0  0  0  0  0  0
   -0.1532   -2.4954   -0.3635 H   0  0  0  0  0  0  0  0  0  0  0  0
   -0.7480   -0.1339   -1.8856 H   0  0  0  0  0  0  0  0  0  0  0  0
    1.7282   -0.3754   -1.2915 H   0  0  0  0  0  0  0  0  0  0  0  0
    2.3505    1.5908    0.7712 H   0  0  0  0  0  0  0  0  0  0  0  0
    2.4721   -0.0107    1.5473 H   0  0  0  0  0  0  0  0  0  0  0  0
    5.2507    0.3434    1.5279 H   0  0  0  0  0  0  0  0  0  0  0  0
    5.6381    1.5095    0.2245 H   0  0  0  0  0  0  0  0  0  0  0  0
  1  2  1  0
  2  3  1  0
  3  4  1  0
  4  5  1  0
  5  6  1  0
  6  7  1  0
  7  8  2  0
  7  9  1  0
  9 10  1  0
 10 11  1  0
 11 12  1  0
 11 13  2  0
  6  3  1  0
  1 14  1  0
  1 15  1  0
  2 16  1  0
  2 17  1  0
  3 18  1  6
  4 19  1  0
  4 20  1  0
  5 21  1  0
  5 22  1  0
  6 23  1  6
  9 24  1  0
 10 25  1  0
 10 26  1  0
 12 27  1  0
 12 28  1  0
M  END
$$$$

     RDKit          3D

 28 28  0  0  0  0  0  0  0  0999 V2000
   -3.9478   -0.5005    0.5232 N   0  0  0  0  0  0  0  0  0  0  0  0
   -2.4916   -0.6307    0.6187 C   0  0  0  0  0  0  0  0  0  0  0  0
   -1.9014    0.7364    0.5352 C   0  0  2  0  0  0  0  0  0  0  0  0
   -2.2786    1.3915   -0.7902 C   0  0  0  0  0  0  0  0  0  0  0  0
   -0.9863    0.7947   -1.3433 C   0  0  0  0  0  0  0  0  0  0  0  0
   -0.4800    0.8414    0.1043 C   0  0  2  0  0  0  0  0  0  0  0  0
    0.4016   -0.2914    0.4626 C   0  0  0  0  0  0  0  0  0  0  0  0
   -0.0171   -1.2913    1.0955 O   0  0  0  0  0  0  0  0  0  0  0  0
    1.7765   -0.2903    0.0984 N   0  0  0  0  0  0  0  0  0  0  0  0
    2.6845   -1.3551    0.4142 C   0  0  0  0  0  0  0  0  0  0  0  0
    4.0328   -1.0227   -0.1161 C   0  0  0  0  0  0  0  0  0  0  0  0
    4.2798    0.1839   -0.8115 N   0  0  0  0  0  0  0  0  0  0  0  0
    5.0156   -1.8051    0.0325 O   0  0  0  0  0  0  0  0  0  0  0  0
   -4.2733   -0.6260   -0.4532 H   0  0  0  0  0  0  0  0  0  0  0  0
   -4.2670    0.4124    0.8701 H   0  0  0  0  0  0  0  0  0  0  0  0
   -2.2896   -1.0807    1.6131 H   0  0  0  0  0  0  0  0  0  0  0  0
   -2.1824   -1.3022   -0.1833 H   0  0  0  0  0  0  0  0  0  0  0  0
   -2.1736    1.3411    1.4210 H   0  0  0  0  0  0  0  0  0  0  0  0
   -3.1954    1.0143   -1.2464 H   0  0  0  0  0  0  0  0  0  0  0  0
   -2.1667    2.4832   -0.7035 H   0  0  0  0  0  0  0  0  0  0  0  0
   -0.4386    1.4307   -2.0401 H   0  0  0  0  0  0  0  0  0  0  0  0
   -1.0948   -0.2328   -1.7326 H   0  0  0  0  0  0  0  0  0  0  0  0
   -0.0487    1.8160    0.3205 H   0  0  0  0  0  0  0  0  0  0  0  0
    2.1039    0.5565   -0.4304 H   0  0  0  0  0  0  0  0  0  0  0  0
    2.7994   -1.5301    1.5004 H   0  0  0  0  0  0  0  0  0  0  0  0
    2.3975   -2.3254   -0.0387 H   0  0  0  0  0  0  0  0  0  0  0  0
    4.7153    1.0092   -0.3552 H   0  0  0  0  0  0  0  0  0  0  0  0
    4.0258    0.2731   -1.8153 H   0  0  0  0  0  0  0  0  0  0  0  0
  1  2  1  0
  2  3  1  0
  3  4  1  0
  4  5  1  0
  5  6  1  0
  6  7  1  0
  7  8  2  0
  7  9  1  0
  9 10  1  0
 10 11  1  0
 11 12  1  0
 11 13  2  0
  6  3  1  0
  1 14  1  0
  1 15  1  0
  2 16  1  0
  2 17  1  0
  3 18  1  1
  4 19  1  0
  4 20  1  0
  5 21  1  0
  5 22  1  0
  6 23  1  6
  9 24  1  0
 10 25  1  0
 10 26  1  0
 12 27  1  0
 12 28  1  0
M  END
$$$$

     RDKit          3D

 28 28  0  0  0  0  0  0  0  0999 V2000
   -3.9217    0.6380    0.7288 N   0  0  0  0  0  0  0  0  0  0  0  0
   -2.4933    0.7464    0.4930 C   0  0  0  0  0  0  0  0  0  0  0  0
   -2.1363   -0.1198   -0.6938 C   0  0  2  0  0  0  0  0  0  0  0  0
   -2.5061   -1.5610   -0.3944 C   0  0  0  0  0  0  0  0  0  0  0  0
   -1.1222   -1.6873    0.2129 C   0  0  0  0  0  0  0  0  0  0  0  0
   -0.7118   -0.5957   -0.7532 C   0  0  2  0  0  0  0  0  0  0  0  0
    0.3182    0.3239   -0.2891 C   0  0  0  0  0  0  0  0  0  0  0  0
    0.0795    1.4765    0.1507 O   0  0  0  0  0  0  0  0  0  0  0  0
    1.6749   -0.0947   -0.3311 N   0  0  0  0  0  0  0  0  0  0  0  0
    2.7003    0.7918    0.1193 C   0  0  0  0  0  0  0  0  0  0  0  0
    4.0542    0.2425    0.0247 C   0  0  0  0  0  0  0  0  0  0  0  0
    5.1417    1.0551    0.4512 N   0  0  0  0  0  0  0  0  0  0  0  0
    4.3413   -0.9035   -0.4080 O   0  0  0  0  0  0  0  0  0  0  0  0
   -4.3874    0.1259   -0.0638 H   0  0  0  0  0  0  0  0  0  0  0  0
   -4.3310    1.5757    0.8276 H   0  0  0  0  0  0  0  0  0  0  0  0
   -2.2232    1.8110    0.3486 H   0  0  0  0  0  0  0  0  0  0  0  0
   -1.9895    0.4111    1.4216 H   0  0  0  0  0  0  0  0  0  0  0  0
   -2.5171    0.2714   -1.6435 H   0  0  0  0  0  0  0  0  0  0  0  0
   -2.5816   -2.1306   -1.3500 H   0  0  0  0  0  0  0  0  0  0  0  0
   -3.3424   -1.6910    0.3039 H   0  0  0  0  0  0  0  0  0  0  0  0
   -1.1026   -1.4180    1.2802 H   0  0  0  0  0  0  0  0  0  0  0  0
   -0.6314   -2.6646    0.0367 H   0  0  0  0  0  0  0  0  0  0  0  0
   -0.5212   -1.0568   -1.7486 H   0  0  0  0  0  0  0  0  0  0  0  0
    1.9305   -1.0280   -0.6814 H   0  0  0  0  0  0  0  0  0  0  0  0
    2.5070    1.0020    1.2091 H   0  0  0  0  0  0  0  0  0  0  0  0
    2.6216    1.7293   -0.4688 H   0  0  0  0  0  0  0  0  0  0  0  0
    5.2400    1.4006    1.4307 H   0  0  0  0  0  0  0  0  0  0  0  0
    5.9097    1.3497   -0.2134 H   0  0  0  0  0  0  0  0  0  0  0  0
  1  2  1  0
  2  3  1  0
  3  4  1  0
  4  5  1  0
  5  6  1  0
  6  7  1  0
  7  8  2  0
  7  9  1  0
  9 10  1  0
 10 11  1  0
 11 12  1  0
 11 13  2  0
  6  3  1  0
  1 14  1  0
  1 15  1  0
  2 16  1  0
  2 17  1  0
  3 18  1  6
  4 19  1  0
  4 20  1  0
  5 21  1  0
  5 22  1  0
  6 23  1  6
  9 24  1  0
 10 25  1  0
 10 26  1  0
 12 27  1  0
 12 28  1  0
M  END
$$$$

     RDKit          3D

 28 28  0  0  0  0  0  0  0  0999 V2000
   -3.9076   -0.4217   -0.8112 N   0  0  0  0  0  0  0  0  0  0  0  0
   -2.4828   -0.6566   -0.6996 C   0  0  0  0  0  0  0  0  0  0  0  0
   -1.9877   -0.2238    0.6654 C   0  0  2  0  0  0  0  0  0  0  0  0
   -2.2787    1.2702    0.8333 C   0  0  0  0  0  0  0  0  0  0  0  0
   -0.9329    1.5022    0.1553 C   0  0  0  0  0  0  0  0  0  0  0  0
   -0.5299    0.1467    0.7171 C   0  0  2  0  0  0  0  0  0  0  0  0
    0.3710   -0.6452   -0.1116 C   0  0  0  0  0  0  0  0  0  0  0  0
   -0.0147   -1.6064   -0.8530 O   0  0  0  0  0  0  0  0  0  0  0  0
    1.7618   -0.3608   -0.1205 N   0  0  0  0  0  0  0  0  0  0  0  0
    2.7160   -1.0984   -0.9129 C   0  0  0  0  0  0  0  0  0  0  0  0
    4.0619   -0.5523   -0.6931 C   0  0  0  0  0  0  0  0  0  0  0  0
    4.2449    0.5401    0.1951 N   0  0  0  0  0  0  0  0  0  0  0  0
    5.0985   -0.9992   -1.2553 O   0  0  0  0  0  0  0  0  0  0  0  0
   -4.1217    0.5475   -1.1397 H   0  0  0  0  0  0  0  0  0  0  0  0
   -4.3227   -1.0538   -1.5591 H   0  0  0  0  0  0  0  0  0  0  0  0
   -2.3510   -1.7751   -0.7964 H   0  0  0  0  0  0  0  0  0  0  0  0
   -1.9139   -0.1925   -1.5035 H   0  0  0  0  0  0  0  0  0  0  0  0
   -2.3702   -0.8147    1.4966 H   0  0  0  0  0  0  0  0  0  0  0  0
   -2.2074    1.5651    1.9083 H   0  0  0  0  0  0  0  0  0  0  0  0
   -3.1467    1.6339    0.2902 H   0  0  0  0  0  0  0  0  0  0  0  0
   -0.9708    1.5468   -0.9418 H   0  0  0  0  0  0  0  0  0  0  0  0
   -0.3753    2.3199    0.6514 H   0  0  0  0  0  0  0  0  0  0  0  0
   -0.2239    0.2709    1.7858 H   0  0  0  0  0  0  0  0  0  0  0  0
    2.0788    0.4412    0.4990 H   0  0  0  0  0  0  0  0  0  0  0  0
    2.4290   -1.1337   -1.9965 H   0  0  0  0  0  0  0  0  0  0  0  0
    2.7380   -2.1708   -0.5632 H   0  0  0  0  0  0  0  0  0  0  0  0
    4.5738    1.4461   -0.2065 H   0  0  0  0  0  0  0  0  0  0  0  0
    4.0641    0.4744    1.2335 H   0  0  0  0  0  0  0  0  0  0  0  0
  1  2  1  0
  2  3  1  0
  3  4  1  0
  4  5  1  0
  5  6  1  0
  6  7  1  0
  7  8  2  0
  7  9  1  0
  9 10  1  0
 10 11  1  0
 11 12  1  0
 11 13  2  0
  6  3  1  0
  1 14  1  0
  1 15  1  0
  2 16  1  0
  2 17  1  0
  3 18  1  1
  4 19  1  0
  4 20  1  0
  5 21  1  0
  5 22  1  0
  6 23  1  1
  9 24  1  0
 10 25  1  0
 10 26  1  0
 12 27  1  0
 12 28  1  0
M  END
$$$$
