
     RDKit          3D

 28 28  0  0  0  0  0  0  0  0999 V2000
    3.4431   -0.0950    0.6459 C   0  0  0  0  0  0  0  0  0  0  0  0
    2.4225   -0.7280   -0.1717 N   0  0  0  0  0  0  0  0  0  0  0  0
    1.9235    0.2554   -1.0859 C   0  0  0  0  0  0  0  0  0  0  0  0
    0.6269    0.7264   -0.4274 C   0  0  1  0  0  0  0  0  0  0  0  0
   -0.1929    1.3964   -1.2813 O   0  0  0  0  0  0  0  0  0  0  0  0
    0.0882   -0.6594   -0.0468 C   0  0  2  0  0  0  0  0  0  0  0  0
   -1.0643   -0.5590    0.7790 N   0  0  0  0  0  0  0  0  0  0  0  0
   -2.0373    0.1416    0.0547 N   0  0  0  0  0  0  0  0  0  0  0  0
   -2.8126   -0.7104   -0.8003 C   0  0  0  0  0  0  0  0  0  0  0  0
   -2.7920    1.0599    0.8348 C   0  0  0  0  0  0  0  0  0  0  0  0
    1.3056   -1.2081    0.6170 C   0  0  0  0  0  0  0  0  0  0  0  0
    2.9471    0.4835    1.4391 H   0  0  0  0  0  0  0  0  0  0  0  0
    4.0025    0.6096   -0.0341 H   0  0  0  0  0  0  0  0  0  0  0  0
    4.1392   -0.8056    1.0907 H   0  0  0  0  0  0  0  0  0  0  0  0
    2.6081    1.0722   -1.2985 H   0  0  0  0  0  0  0  0  0  0  0  0
    1.6059   -0.2897   -2.0126 H   0  0  0  0  0  0  0  0  0  0  0  0
    0.9231    1.2846    0.4777 H   0  0  0  0  0  0  0  0  0  0  0  0
   -0.3650    2.3207   -0.9230 H   0  0  0  0  0  0  0  0  0  0  0  0
   -0.0675   -1.1928   -1.0021 H   0  0  0  0  0  0  0  0  0  0  0  0
   -1.4273   -1.4968    0.9759 H   0  0  0  0  0  0  0  0  0  0  0  0
   -2.1109   -1.2590   -1.4658 H   0  0  0  0  0  0  0  0  0  0  0  0
   -3.4194   -0.0596   -1.4621 H   0  0  0  0  0  0  0  0  0  0  0  0
   -3.4714   -1.4103   -0.2813 H   0  0  0  0  0  0  0  0  0  0  0  0
   -2.6650    0.9594    1.9156 H   0  0  0  0  0  0  0  0  0  0  0  0
   -3.8829    1.0735    0.5524 H   0  0  0  0  0  0  0  0  0  0  0  0
   -2.4370    2.0974    0.5648 H   0  0  0  0  0  0  0  0  0  0  0  0
    1.3071   -2.3112    0.7275 H   0  0  0  0  0  0  0  0  0  0  0  0
    1.4024   -0.6958    1.6177 H   0  0  0  0  0  0  0  0  0  0  0  0
  1  2  1  0
  2  3  1  0
  3  4  1  0
  4  5  1  0
  4  6  1  0
  6  7  1  0
  7  8  1  0
  8  9  1  0
  8 10  1  0
  6 11  1  0
 11  2  1  0
  1 12  1  0
  1 13  1  0
  1 14  1  0
  3 15  1  0
  3 16  1  0
  4 17  1  1
  5 18  1  0
  6 19  1  6
  7 20  1  0
  9 21  1  0
  9 22  1  0
  9 23  1  0
 10 24  1  0
 10 25  1  0
 10 26  1  0
 11 27  1  0
 11 28  1  0
M  END
$$$$

     RDKit          3D

 28 28  0  0  0  0  0  0  0  0999 V2000
    3.2038    1.2321    0.2063 C   0  0  0  0  0  0  0  0  0  0  0  0
    2.2355    0.3805   -0.4457 N   0  0  0  0  0  0  0  0  0  0  0  0
    2.3383   -1.0019   -0.0245 C   0  0  0  0  0  0  0  0  0  0  0  0
    0.9495   -1.5279   -0.4106 C   0  0  1  0  0  0  0  0  0  0  0  0
    0.6928   -2.7637    0.1234 O   0  0  0  0  0  0  0  0  0  0  0  0
    0.0892   -0.4283    0.1777 C   0  0  2  0  0  0  0  0  0  0  0  0
   -1.2339   -0.4289   -0.4092 N   0  0  0  0  0  0  0  0  0  0  0  0
   -2.0174    0.5736    0.1276 N   0  0  0  0  0  0  0  0  0  0  0  0
   -2.8480    0.0909    1.2104 C   0  0  0  0  0  0  0  0  0  0  0  0
   -2.7814    1.1752   -0.9310 C   0  0  0  0  0  0  0  0  0  0  0  0
    0.8868    0.8044   -0.2359 C   0  0  0  0  0  0  0  0  0  0  0  0
    2.6534    2.0574    0.6953 H   0  0  0  0  0  0  0  0  0  0  0  0
    3.8576    1.7125   -0.5652 H   0  0  0  0  0  0  0  0  0  0  0  0
    3.8440    0.6844    0.9112 H   0  0  0  0  0  0  0  0  0  0  0  0
    3.1347   -1.5582   -0.5125 H   0  0  0  0  0  0  0  0  0  0  0  0
    2.3677   -1.0702    1.0986 H   0  0  0  0  0  0  0  0  0  0  0  0
    0.8526   -1.5078   -1.5243 H   0  0  0  0  0  0  0  0  0  0  0  0
    0.1056   -3.2808   -0.5137 H   0  0  0  0  0  0  0  0  0  0  0  0
    0.0624   -0.5547    1.2778 H   0  0  0  0  0  0  0  0  0  0  0  0
   -1.6370   -1.3720   -0.3397 H   0  0  0  0  0  0  0  0  0  0  0  0
   -2.2151   -0.5206    1.8743 H   0  0  0  0  0  0  0  0  0  0  0  0
   -3.1775    0.9826    1.7838 H   0  0  0  0  0  0  0  0  0  0  0  0
   -3.7041   -0.4590    0.7911 H   0  0  0  0  0  0  0  0  0  0  0  0
   -2.7361    2.2762   -0.7888 H   0  0  0  0  0  0  0  0  0  0  0  0
   -3.8249    0.8259   -0.9433 H   0  0  0  0  0  0  0  0  0  0  0  0
   -2.3515    0.9171   -1.9269 H   0  0  0  0  0  0  0  0  0  0  0  0
    0.4758    1.1619   -1.2221 H   0  0  0  0  0  0  0  0  0  0  0  0
    0.7774    1.5994    0.5156 H   0  0  0  0  0  0  0  0  0  0  0  0
  1  2  1  0
  2  3  1  0
  3  4  1  0
  4  5  1  0
  4  6  1  0
  6  7  1  0
  7  8  1  0
  8  9  1  0
  8 10  1  0
  6 11  1  0
 11  2  1  0
  1 12  1  0
  1 13  1  0
  1 14  1  0
  3 15  1  0
  3 16  1  0
  4 17  1  6
  5 18  1  0
  6 19  1  1
  7 20  1  0
  9 21  1  0
  9 22  1  0
  9 23  1  0
 10 24  1  0
 10 25  1  0
 10 26  1  0
 11 27  1  0
 11 28  1  0
M  END
$$$$

     RDKit          3D

 28 28  0  0  0  0  0  0  0  0999 V2000
   -3.0026    1.4385    0.2333 C   0  0  0  0  0  0  0  0  0  0  0  0
   -2.0907    0.3554    0.5465 N   0  0  0  0  0  0  0  0  0  0  0  0
   -2.2781   -0.7757   -0.3423 C   0  0  0  0  0  0  0  0  0  0  0  0
   -0.9836   -1.5429   -0.1180 C   0  0  1  0  0  0  0  0  0  0  0  0
   -0.7808   -2.4872   -1.0961 O   0  0  0  0  0  0  0  0  0  0  0  0
    0.0335   -0.3977   -0.2125 C   0  0  2  0  0  0  0  0  0  0  0  0
    1.1633   -0.7725    0.5614 N   0  0  0  0  0  0  0  0  0  0  0  0
    2.1994    0.1020    0.6208 N   0  0  0  0  0  0  0  0  0  0  0  0
    3.4999   -0.4766    0.3622 C   0  0  0  0  0  0  0  0  0  0  0  0
    2.0597    1.3315   -0.0719 C   0  0  0  0  0  0  0  0  0  0  0  0
   -0.7073    0.7563    0.4055 C   0  0  0  0  0  0  0  0  0  0  0  0
   -3.1465    2.0285    1.1640 H   0  0  0  0  0  0  0  0  0  0  0  0
   -2.5562    2.1438   -0.5120 H   0  0  0  0  0  0  0  0  0  0  0  0
   -3.9650    1.0500   -0.1127 H   0  0  0  0  0  0  0  0  0  0  0  0
   -2.2653   -0.4674   -1.4121 H   0  0  0  0  0  0  0  0  0  0  0  0
   -3.1661   -1.3426   -0.0528 H   0  0  0  0  0  0  0  0  0  0  0  0
   -1.0049   -1.9793    0.8985 H   0  0  0  0  0  0  0  0  0  0  0  0
   -1.6597   -2.9580   -1.2318 H   0  0  0  0  0  0  0  0  0  0  0  0
    0.2470   -0.2357   -1.2926 H   0  0  0  0  0  0  0  0  0  0  0  0
    1.4850   -1.7579    0.4047 H   0  0  0  0  0  0  0  0  0  0  0  0
    4.2534    0.3135    0.5980 H   0  0  0  0  0  0  0  0  0  0  0  0
    3.6236   -0.7208   -0.7328 H   0  0  0  0  0  0  0  0  0  0  0  0
    3.7146   -1.3473    0.9943 H   0  0  0  0  0  0  0  0  0  0  0  0
    1.5735    2.1371    0.5532 H   0  0  0  0  0  0  0  0  0  0  0  0
    1.6037    1.2701   -1.0717 H   0  0  0  0  0  0  0  0  0  0  0  0
    3.1006    1.7363   -0.2488 H   0  0  0  0  0  0  0  0  0  0  0  0
   -0.6264    1.6386   -0.2654 H   0  0  0  0  0  0  0  0  0  0  0  0
   -0.3244    0.9602    1.4314 H   0  0  0  0  0  0  0  0  0  0  0  0
  1  2  1  0
  2  3  1  0
  3  4  1  0
  4  5  1  0
  4  6  1  0
  6  7  1  0
  7  8  1  0
  8  9  1  0
  8 10  1  0
  6 11  1  0
 11  2  1  0
  1 12  1  0
  1 13  1  0
  1 14  1  0
  3 15  1  0
  3 16  1  0
  4 17  1  1
  5 18  1  0
  6 19  1  6
  7 20  1  0
  9 21  1  0
  9 22  1  0
  9 23  1  0
 10 24  1  0
 10 25  1  0
 10 26  1  0
 11 27  1  0
 11 28  1  0
M  END
$$$$

     RDKit          3D

 28 28  0  0  0  0  0  0  0  0999 V2000
    3.2774   -0.4144   -0.7336 C   0  0  0  0  0  0  0  0  0  0  0  0
    2.1834    0.5116   -0.5449 N   0  0  0  0  0  0  0  0  0  0  0  0
    2.1565    1.0761    0.7681 C   0  0  0  0  0  0  0  0  0  0  0  0
    0.9863    0.3711    1.4646 C   0  0  1  0  0  0  0  0  0  0  0  0
    0.5233    1.0870    2.5458 O   0  0  0  0  0  0  0  0  0  0  0  0
   -0.0079    0.3616    0.3072 C   0  0  2  0  0  0  0  0  0  0  0  0
   -1.0876   -0.5621    0.5390 N   0  0  0  0  0  0  0  0  0  0  0  0
   -1.9570   -0.5256   -0.5395 N   0  0  0  0  0  0  0  0  0  0  0  0
   -2.8846    0.5938   -0.4740 C   0  0  0  0  0  0  0  0  0  0  0  0
   -2.7773   -1.7351   -0.6096 C   0  0  0  0  0  0  0  0  0  0  0  0
    0.8994   -0.0658   -0.8181 C   0  0  0  0  0  0  0  0  0  0  0  0
    4.0205   -0.3389    0.0998 H   0  0  0  0  0  0  0  0  0  0  0  0
    2.9680   -1.4549   -0.8221 H   0  0  0  0  0  0  0  0  0  0  0  0
    3.7964   -0.1250   -1.6759 H   0  0  0  0  0  0  0  0  0  0  0  0
    1.8276    2.1513    0.6736 H   0  0  0  0  0  0  0  0  0  0  0  0
    3.0851    0.9635    1.3331 H   0  0  0  0  0  0  0  0  0  0  0  0
    1.3292   -0.6306    1.7211 H   0  0  0  0  0  0  0  0  0  0  0  0
    0.5176    2.0579    2.3634 H   0  0  0  0  0  0  0  0  0  0  0  0
   -0.3381    1.3832    0.1058 H   0  0  0  0  0  0  0  0  0  0  0  0
   -1.5200   -0.4807    1.4641 H   0  0  0  0  0  0  0  0  0  0  0  0
   -3.4967    0.5188    0.4554 H   0  0  0  0  0  0  0  0  0  0  0  0
   -2.3703    1.5708   -0.5575 H   0  0  0  0  0  0  0  0  0  0  0  0
   -3.5470    0.5040   -1.3601 H   0  0  0  0  0  0  0  0  0  0  0  0
   -3.4137   -1.7953    0.3138 H   0  0  0  0  0  0  0  0  0  0  0  0
   -3.4786   -1.5924   -1.4538 H   0  0  0  0  0  0  0  0  0  0  0  0
   -2.1434   -2.6188   -0.7010 H   0  0  0  0  0  0  0  0  0  0  0  0
    0.5185    0.3547   -1.7836 H   0  0  0  0  0  0  0  0  0  0  0  0
    0.9331   -1.1661   -0.9432 H   0  0  0  0  0  0  0  0  0  0  0  0
  1  2  1  0
  2  3  1  0
  3  4  1  0
  4  5  1  0
  4  6  1  0
  6  7  1  0
  7  8  1  0
  8  9  1  0
  8 10  1  0
  6 11  1  0
 11  2  1  0
  1 12  1  0
  1 13  1  0
  1 14  1  0
  3 15  1  0
  3 16  1  0
  4 17  1  1
  5 18  1  0
  6 19  1  6
  7 20  1  0
  9 21  1  0
  9 22  1  0
  9 23  1  0
 10 24  1  0
 10 25  1  0
 10 26  1  0
 11 27  1  0
 11 28  1  0
M  END
$$$$

     RDKit          3D

 28 28  0  0  0  0  0  0  0  0999 V2000
   -2.3197    1.6251   -0.1428 C   0  0  0  0  0  0  0  0  0  0  0  0
   -1.9148    0.2632   -0.2918 N   0  0  0  0  0  0  0  0  0  0  0  0
   -1.8189   -0.4511    0.9684 C   0  0  0  0  0  0  0  0  0  0  0  0
   -1.0949   -1.7034    0.5239 C   0  0  1  0  0  0  0  0  0  0  0  0
   -1.9061   -2.5150   -0.2501 O   0  0  0  0  0  0  0  0  0  0  0  0
    0.0447   -1.0923   -0.3169 C   0  0  2  0  0  0  0  0  0  0  0  0
    1.0635   -0.7470    0.6076 N   0  0  0  0  0  0  0  0  0  0  0  0
    2.2138   -0.1971    0.1555 N   0  0  0  0  0  0  0  0  0  0  0  0
    2.6886    0.8498    1.0142 C   0  0  0  0  0  0  0  0  0  0  0  0
    2.3249    0.1410   -1.2193 C   0  0  0  0  0  0  0  0  0  0  0  0
   -0.6185    0.1100   -0.9295 C   0  0  0  0  0  0  0  0  0  0  0  0
   -2.1276    2.0571    0.8530 H   0  0  0  0  0  0  0  0  0  0  0  0
   -3.4317    1.6579   -0.3169 H   0  0  0  0  0  0  0  0  0  0  0  0
   -1.8257    2.2264   -0.9354 H   0  0  0  0  0  0  0  0  0  0  0  0
   -2.8304   -0.7288    1.3111 H   0  0  0  0  0  0  0  0  0  0  0  0
   -1.2459    0.0754    1.7322 H   0  0  0  0  0  0  0  0  0  0  0  0
   -0.6711   -2.2384    1.4004 H   0  0  0  0  0  0  0  0  0  0  0  0
   -2.5057   -1.9419   -0.8000 H   0  0  0  0  0  0  0  0  0  0  0  0
    0.3580   -1.8225   -1.0925 H   0  0  0  0  0  0  0  0  0  0  0  0
    0.7513   -0.4984    1.5480 H   0  0  0  0  0  0  0  0  0  0  0  0
    3.7941    0.7534    1.0959 H   0  0  0  0  0  0  0  0  0  0  0  0
    2.2791    0.6872    2.0308 H   0  0  0  0  0  0  0  0  0  0  0  0
    2.4272    1.8506    0.6372 H   0  0  0  0  0  0  0  0  0  0  0  0
    1.5958   -0.4251   -1.8242 H   0  0  0  0  0  0  0  0  0  0  0  0
    2.2645    1.2379   -1.3997 H   0  0  0  0  0  0  0  0  0  0  0  0
    3.3240   -0.1900   -1.5861 H   0  0  0  0  0  0  0  0  0  0  0  0
   -0.7935   -0.0201   -2.0139 H   0  0  0  0  0  0  0  0  0  0  0  0
   -0.0253    1.0361   -0.7593 H   0  0  0  0  0  0  0  0  0  0  0  0
  1  2  1  0
  2  3  1  0
  3  4  1  0
  4  5  1  0
  4  6  1  0
  6  7  1  0
  7  8  1  0
  8  9  1  0
  8 10  1  0
  6 11  1  0
 11  2  1  0
  1 12  1  0
  1 13  1  0
  1 14  1  0
  3 15  1  0
  3 16  1  0
  4 17  1  1
  5 18  1  0
  6 19  1  6
  7 20  1  0
  9 21  1  0
  9 22  1  0
  9 23  1  0
 10 24  1  0
 10 25  1  0
 10 26  1  0
 11 27  1  0
 11 28  1  0
M  END
$$$$

     RDKit          3D

 28 28  0  0  0  0  0  0  0  0999 V2000
   -3.0091    1.5029   -0.6489 C   0  0  0  0  0  0  0  0  0  0  0  0
   -2.0297    0.7525    0.0587 N   0  0  0  0  0  0  0  0  0  0  0  0
   -2.4064   -0.6198    0.3105 C   0  0  0  0  0  0  0  0  0  0  0  0
   -1.0916   -1.1389    0.9102 C   0  0  1  0  0  0  0  0  0  0  0  0
   -1.0800   -2.4969    1.0467 O   0  0  0  0  0  0  0  0  0  0  0  0
   -0.1112   -0.6359   -0.1504 C   0  0  2  0  0  0  0  0  0  0  0  0
    1.1524   -0.4590    0.4933 N   0  0  0  0  0  0  0  0  0  0  0  0
    2.1573   -0.0021   -0.3449 N   0  0  0  0  0  0  0  0  0  0  0  0
    3.2792   -0.9436   -0.2103 C   0  0  0  0  0  0  0  0  0  0  0  0
    2.5726    1.3302   -0.0033 C   0  0  0  0  0  0  0  0  0  0  0  0
   -0.7629    0.6399   -0.5948 C   0  0  0  0  0  0  0  0  0  0  0  0
   -4.0165    1.1354   -0.3305 H   0  0  0  0  0  0  0  0  0  0  0  0
   -2.9324    1.4775   -1.7418 H   0  0  0  0  0  0  0  0  0  0  0  0
   -2.9629    2.5628   -0.2664 H   0  0  0  0  0  0  0  0  0  0  0  0
   -3.2433   -0.7361    1.0025 H   0  0  0  0  0  0  0  0  0  0  0  0
   -2.5549   -1.1281   -0.6645 H   0  0  0  0  0  0  0  0  0  0  0  0
   -0.9314   -0.5708    1.8279 H   0  0  0  0  0  0  0  0  0  0  0  0
   -0.9781   -2.9433    0.1922 H   0  0  0  0  0  0  0  0  0  0  0  0
   -0.0289   -1.3820   -0.9546 H   0  0  0  0  0  0  0  0  0  0  0  0
    1.1130    0.0017    1.4140 H   0  0  0  0  0  0  0  0  0  0  0  0
    2.8590   -1.9526   -0.0656 H   0  0  0  0  0  0  0  0  0  0  0  0
    3.8535   -0.6398    0.7079 H   0  0  0  0  0  0  0  0  0  0  0  0
    3.9144   -0.9494   -1.1013 H   0  0  0  0  0  0  0  0  0  0  0  0
    2.2559    1.6417    0.9933 H   0  0  0  0  0  0  0  0  0  0  0  0
    3.6924    1.3750   -0.0247 H   0  0  0  0  0  0  0  0  0  0  0  0
    2.2248    2.0136   -0.8167 H   0  0  0  0  0  0  0  0  0  0  0  0
   -0.8649    0.6853   -1.7132 H   0  0  0  0  0  0  0  0  0  0  0  0
   -0.0701    1.4799   -0.3418 H   0  0  0  0  0  0  0  0  0  0  0  0
  1  2  1  0
  2  3  1  0
  3  4  1  0
  4  5  1  0
  4  6  1  0
  6  7  1  0
  7  8  1  0
  8  9  1  0
  8 10  1  0
  6 11  1  0
 11  2  1  0
  1 12  1  0
  1 13  1  0
  1 14  1  0
  3 15  1  0
  3 16  1  0
  4 17  1  1
  5 18  1  0
  6 19  1  6
  7 20  1  0
  9 21  1  0
  9 22  1  0
  9 23  1  0
 10 24  1  0
 10 25  1  0
 10 26  1  0
 11 27  1  0
 11 28  1  0
M  END
$$$$

     RDKit          3D

 28 28  0  0  0  0  0  0  0  0999 V2000
   -3.2124    1.1480    0.9330 C   0  0  0  0  0  0  0  0  0  0  0  0
   -2.3723    0.5532   -0.0937 N   0  0  0  0  0  0  0  0  0  0  0  0
   -2.0242   -0.8225    0.2490 C   0  0  0  0  0  0  0  0  0  0  0  0
   -0.7748   -1.0548   -0.6093 C   0  0  1  0  0  0  0  0  0  0  0  0
   -1.2668   -1.4143   -1.8817 O   0  0  0  0  0  0  0  0  0  0  0  0
   -0.1093    0.2595   -0.6909 C   0  0  2  0  0  0  0  0  0  0  0  0
    1.1216    0.3989   -0.0511 N   0  0  0  0  0  0  0  0  0  0  0  0
    2.1703   -0.3818   -0.4073 N   0  0  0  0  0  0  0  0  0  0  0  0
    3.3008    0.5065   -0.6679 C   0  0  0  0  0  0  0  0  0  0  0  0
    2.5477   -1.2142    0.7240 C   0  0  0  0  0  0  0  0  0  0  0  0
   -1.1013    1.2103   -0.0509 C   0  0  0  0  0  0  0  0  0  0  0  0
   -3.7122    2.0402    0.4920 H   0  0  0  0  0  0  0  0  0  0  0  0
   -3.9872    0.4660    1.3083 H   0  0  0  0  0  0  0  0  0  0  0  0
   -2.5781    1.5325    1.7731 H   0  0  0  0  0  0  0  0  0  0  0  0
   -2.8668   -1.4551   -0.1142 H   0  0  0  0  0  0  0  0  0  0  0  0
   -1.8281   -0.9639    1.3145 H   0  0  0  0  0  0  0  0  0  0  0  0
   -0.1767   -1.8897   -0.2613 H   0  0  0  0  0  0  0  0  0  0  0  0
   -1.1895   -2.3771   -2.0494 H   0  0  0  0  0  0  0  0  0  0  0  0
   -0.0169    0.5893   -1.7575 H   0  0  0  0  0  0  0  0  0  0  0  0
    1.3156    1.3061    0.3752 H   0  0  0  0  0  0  0  0  0  0  0  0
    3.0172    1.3077   -1.4082 H   0  0  0  0  0  0  0  0  0  0  0  0
    3.4865    1.0405    0.2909 H   0  0  0  0  0  0  0  0  0  0  0  0
    4.1812   -0.0435   -1.0340 H   0  0  0  0  0  0  0  0  0  0  0  0
    3.6283   -1.1227    0.9624 H   0  0  0  0  0  0  0  0  0  0  0  0
    2.0041   -0.8805    1.6509 H   0  0  0  0  0  0  0  0  0  0  0  0
    2.3337   -2.2709    0.5768 H   0  0  0  0  0  0  0  0  0  0  0  0
   -1.0896    2.1847   -0.5790 H   0  0  0  0  0  0  0  0  0  0  0  0
   -0.8007    1.3476    1.0061 H   0  0  0  0  0  0  0  0  0  0  0  0
  1  2  1  0
  2  3  1  0
  3  4  1  0
  4  5  1  0
  4  6  1  0
  6  7  1  0
  7  8  1  0
  8  9  1  0
  8 10  1  0
  6 11  1  0
 11  2  1  0
  1 12  1  0
  1 13  1  0
  1 14  1  0
  3 15  1  0
  3 16  1  0
  4 17  1  1
  5 18  1  0
  6 19  1  6
  7 20  1  0
  9 21  1  0
  9 22  1  0
  9 23  1  0
 10 24  1  0
 10 25  1  0
 10 26  1  0
 11 27  1  0
 11 28  1  0
M  END
$$$$

     RDKit          3D

 28 28  0  0  0  0  0  0  0  0999 V2000
   -3.1507   -0.2908   -1.2673 C   0  0  0  0  0  0  0  0  0  0  0  0
   -2.0519    0.3279   -0.5661 N   0  0  0  0  0  0  0  0  0  0  0  0
   -2.1776    0.2909    0.8588 C   0  0  0  0  0  0  0  0  0  0  0  0
   -0.7140    0.3547    1.3180 C   0  0  1  0  0  0  0  0  0  0  0  0
   -0.5682   -0.0058    2.6274 O   0  0  0  0  0  0  0  0  0  0  0  0
   -0.1338   -0.6850    0.3524 C   0  0  2  0  0  0  0  0  0  0  0  0
    1.2711   -0.7082    0.3454 N   0  0  0  0  0  0  0  0  0  0  0  0
    1.9206    0.4383   -0.0104 N   0  0  0  0  0  0  0  0  0  0  0  0
    2.3827    0.2879   -1.3964 C   0  0  0  0  0  0  0  0  0  0  0  0
    3.1146    0.5745    0.8092 C   0  0  0  0  0  0  0  0  0  0  0  0
   -0.7781   -0.2189   -0.9297 C   0  0  0  0  0  0  0  0  0  0  0  0
   -2.7967   -0.4860   -2.3167 H   0  0  0  0  0  0  0  0  0  0  0  0
   -3.4808   -1.2220   -0.7883 H   0  0  0  0  0  0  0  0  0  0  0  0
   -3.9956    0.4271   -1.3159 H   0  0  0  0  0  0  0  0  0  0  0  0
   -2.7834    1.0856    1.2891 H   0  0  0  0  0  0  0  0  0  0  0  0
   -2.5579   -0.7062    1.2273 H   0  0  0  0  0  0  0  0  0  0  0  0
   -0.3250    1.3380    1.0471 H   0  0  0  0  0  0  0  0  0  0  0  0
   -1.3431    0.2933    3.1631 H   0  0  0  0  0  0  0  0  0  0  0  0
   -0.5361   -1.6598    0.6194 H   0  0  0  0  0  0  0  0  0  0  0  0
    1.7428   -1.5928    0.1768 H   0  0  0  0  0  0  0  0  0  0  0  0
    2.1438    1.1817   -1.9771 H   0  0  0  0  0  0  0  0  0  0  0  0
    3.4720    0.0567   -1.4328 H   0  0  0  0  0  0  0  0  0  0  0  0
    1.8756   -0.5863   -1.8864 H   0  0  0  0  0  0  0  0  0  0  0  0
    3.0493    1.4159    1.5226 H   0  0  0  0  0  0  0  0  0  0  0  0
    4.0261    0.7728    0.1801 H   0  0  0  0  0  0  0  0  0  0  0  0
    3.3454   -0.3567    1.3636 H   0  0  0  0  0  0  0  0  0  0  0  0
   -0.8005   -0.9689   -1.7187 H   0  0  0  0  0  0  0  0  0  0  0  0
   -0.1507    0.6421   -1.2944 H   0  0  0  0  0  0  0  0  0  0  0  0
  1  2  1  0
  2  3  1  0
  3  4  1  0
  4  5  1  0
  4  6  1  0
  6  7  1  0
  7  8  1  0
  8  9  1  0
  8 10  1  0
  6 11  1  0
 11  2  1  0
  1 12  1  0
  1 13  1  0
  1 14  1  0
  3 15  1  0
  3 16  1  0
  4 17  1  1
  5 18  1  0
  6 19  1  1
  7 20  1  0
  9 21  1  0
  9 22  1  0
  9 23  1  0
 10 24  1  0
 10 25  1  0
 10 26  1  0
 11 27  1  0
 11 28  1  0
M  END
$$$$
