
     RDKit          3D

 35 36  0  0  0  0  0  0  0  0999 V2000
   -4.3586   -0.6197    0.3677 C   0  0  0  0  0  0  0  0  0  0  0  0
   -3.1875    0.2353    0.4812 N   0  0  0  0  0  0  0  0  0  0  0  0
   -2.8928    0.9002   -0.7583 C   0  0  0  0  0  0  0  0  0  0  0  0
   -1.4100    0.6262   -1.0609 C   0  0  1  0  0  0  0  0  0  0  0  0
   -0.9205    1.7707   -1.6426 O   0  0  0  0  0  0  0  0  0  0  0  0
   -0.9130    0.3234    0.3042 C   0  0  2  0  0  0  0  0  0  0  0  0
    0.3012   -0.3980    0.4245 N   0  0  0  0  0  0  0  0  0  0  0  0
    1.1235    0.1901    1.4512 C   0  0  0  0  0  0  0  0  0  0  0  0
    2.2582    0.8903    0.7187 C   0  0  0  0  0  0  0  0  0  0  0  0
    2.4791   -0.0523   -0.4313 C   0  0  1  0  0  0  0  0  0  0  0  0
    3.4143   -1.1640   -0.0298 C   0  0  0  0  0  0  0  0  0  0  0  0
    4.6796   -0.6239    0.3503 N   0  0  0  0  0  0  0  0  0  0  0  0
    1.0883   -0.5126   -0.7723 C   0  0  0  0  0  0  0  0  0  0  0  0
   -2.0356   -0.5367    0.8544 C   0  0  0  0  0  0  0  0  0  0  0  0
   -5.1762   -0.1977    0.9887 H   0  0  0  0  0  0  0  0  0  0  0  0
   -4.7108   -0.6642   -0.6810 H   0  0  0  0  0  0  0  0  0  0  0  0
   -4.1174   -1.6410    0.7580 H   0  0  0  0  0  0  0  0  0  0  0  0
   -3.0038    2.0013   -0.5571 H   0  0  0  0  0  0  0  0  0  0  0  0
   -3.5310    0.5774   -1.5938 H   0  0  0  0  0  0  0  0  0  0  0  0
   -1.3967   -0.2498   -1.7406 H   0  0  0  0  0  0  0  0  0  0  0  0
   -1.2701    1.7852   -2.5797 H   0  0  0  0  0  0  0  0  0  0  0  0
   -0.8827    1.3006    0.8774 H   0  0  0  0  0  0  0  0  0  0  0  0
    0.5734    0.9163    2.0613 H   0  0  0  0  0  0  0  0  0  0  0  0
    1.5316   -0.5827    2.1495 H   0  0  0  0  0  0  0  0  0  0  0  0
    3.0775    0.9736    1.4285 H   0  0  0  0  0  0  0  0  0  0  0  0
    1.8911    1.8992    0.3935 H   0  0  0  0  0  0  0  0  0  0  0  0
    2.9575    0.4745   -1.2990 H   0  0  0  0  0  0  0  0  0  0  0  0
    3.5092   -1.9604   -0.7613 H   0  0  0  0  0  0  0  0  0  0  0  0
    3.0039   -1.6692    0.9036 H   0  0  0  0  0  0  0  0  0  0  0  0
    5.2940   -0.3819   -0.4342 H   0  0  0  0  0  0  0  0  0  0  0  0
    4.7270   -0.0356    1.1643 H   0  0  0  0  0  0  0  0  0  0  0  0
    1.1226   -1.5367   -1.1783 H   0  0  0  0  0  0  0  0  0  0  0  0
    0.7283    0.1432   -1.5857 H   0  0  0  0  0  0  0  0  0  0  0  0
   -1.9341   -0.6872    1.9453 H   0  0  0  0  0  0  0  0  0  0  0  0
   -2.0197   -1.4939    0.3058 H   0  0  0  0  0  0  0  0  0  0  0  0
  1  2  1  0
  2  3  1  0
  3  4  1  0
  4  5  1  0
  4  6  1  0
  6  7  1  0
  7  8  1  0
  8  9  1  0
  9 10  1  0
 10 11  1  0
 11 12  1  0
 10 13  1  0
  6 14  1  0
 14  2  1  0
 13  7  1  0
  1 15  1  0
  1 16  1  0
  1 17  1  0
  3 18  1  0
  3 19  1  0
  4 20  1  6
  5 21  1  0
  6 22  1  1
  8 23  1  0
  8 24  1  0
  9 25  1  0
  9 26  1  0
 10 27  1  6
 11 28  1  0
 11 29  1  0
 12 30  1  0
 12 31  1  0
 13 32  1  0
 13 33  1  0
 14 34  1  0
 14 35  1  0
M  END
$$$$

     RDKit          3D

 35 36  0  0  0  0  0  0  0  0999 V2000
   -4.0797   -0.6790    1.4739 C   0  0  0  0  0  0  0  0  0  0  0  0
   -3.0892   -0.5774    0.4625 N   0  0  0  0  0  0  0  0  0  0  0  0
   -3.1852    0.6311   -0.3522 C   0  0  0  0  0  0  0  0  0  0  0  0
   -1.9054    0.4795   -1.1689 C   0  0  1  0  0  0  0  0  0  0  0  0
   -1.6446    1.5668   -1.9507 O   0  0  0  0  0  0  0  0  0  0  0  0
   -0.9211    0.2390   -0.0748 C   0  0  2  0  0  0  0  0  0  0  0  0
    0.2888   -0.4043   -0.4782 N   0  0  0  0  0  0  0  0  0  0  0  0
    1.0795    0.3208   -1.4123 C   0  0  0  0  0  0  0  0  0  0  0  0
    2.3825   -0.4937   -1.3921 C   0  0  0  0  0  0  0  0  0  0  0  0
    2.5681   -0.7002    0.1101 C   0  0  1  0  0  0  0  0  0  0  0  0
    3.4909    0.4066    0.6313 C   0  0  0  0  0  0  0  0  0  0  0  0
    4.7550    0.3181   -0.0480 N   0  0  0  0  0  0  0  0  0  0  0  0
    1.1704   -0.5256    0.6677 C   0  0  0  0  0  0  0  0  0  0  0  0
   -1.7289   -0.6139    0.8945 C   0  0  0  0  0  0  0  0  0  0  0  0
   -5.0511   -0.3139    1.0385 H   0  0  0  0  0  0  0  0  0  0  0  0
   -4.2540   -1.7612    1.6785 H   0  0  0  0  0  0  0  0  0  0  0  0
   -3.8980   -0.0952    2.3864 H   0  0  0  0  0  0  0  0  0  0  0  0
   -4.0869    0.6676   -0.9649 H   0  0  0  0  0  0  0  0  0  0  0  0
   -3.0379    1.5484    0.2771 H   0  0  0  0  0  0  0  0  0  0  0  0
   -2.0228   -0.4677   -1.7335 H   0  0  0  0  0  0  0  0  0  0  0  0
   -2.1484    1.4671   -2.8023 H   0  0  0  0  0  0  0  0  0  0  0  0
   -0.7110    1.1922    0.4689 H   0  0  0  0  0  0  0  0  0  0  0  0
    1.3725    1.3316   -1.0152 H   0  0  0  0  0  0  0  0  0  0  0  0
    0.6694    0.3658   -2.4293 H   0  0  0  0  0  0  0  0  0  0  0  0
    3.2348    0.0702   -1.7813 H   0  0  0  0  0  0  0  0  0  0  0  0
    2.2419   -1.4809   -1.8840 H   0  0  0  0  0  0  0  0  0  0  0  0
    3.0244   -1.6580    0.3602 H   0  0  0  0  0  0  0  0  0  0  0  0
    3.6418    0.3060    1.7067 H   0  0  0  0  0  0  0  0  0  0  0  0
    3.0180    1.3920    0.4296 H   0  0  0  0  0  0  0  0  0  0  0  0
    4.8077    0.9786   -0.8502 H   0  0  0  0  0  0  0  0  0  0  0  0
    4.9300   -0.6378   -0.4547 H   0  0  0  0  0  0  0  0  0  0  0  0
    1.1099    0.4424    1.2161 H   0  0  0  0  0  0  0  0  0  0  0  0
    0.9263   -1.3772    1.3106 H   0  0  0  0  0  0  0  0  0  0  0  0
   -1.5835   -0.2739    1.9497 H   0  0  0  0  0  0  0  0  0  0  0  0
   -1.3640   -1.6639    0.7823 H   0  0  0  0  0  0  0  0  0  0  0  0
  1  2  1  0
  2  3  1  0
  3  4  1  0
  4  5  1  0
  4  6  1  0
  6  7  1  0
  7  8  1  0
  8  9  1  0
  9 10  1  0
 10 11  1  0
 11 12  1  0
 10 13  1  0
  6 14  1  0
 14  2  1  0
 13  7  1  0
  1 15  1  0
  1 16  1  0
  1 17  1  0
  3 18  1  0
  3 19  1  0
  4 20  1  6
  5 21  1  0
  6 22  1  1
  8 23  1  0
  8 24  1  0
  9 25  1  0
  9 26  1  0
 10 27  1  6
 11 28  1  0
 11 29  1  0
 12 30  1  0
 12 31  1  0
 13 32  1  0
 13 33  1  0
 14 34  1  0
 14 35  1  0
M  END
$$$$

     RDKit          3D

 35 36  0  0  0  0  0  0  0  0999 V2000
   -3.8587    1.5589   -0.5172 C   0  0  0  0  0  0  0  0  0  0  0  0
   -3.0303    0.3561   -0.5894 N   0  0  0  0  0  0  0  0  0  0  0  0
   -3.3066   -0.4827    0.5395 C   0  0  0  0  0  0  0  0  0  0  0  0
   -1.9644   -0.6986    1.2840 C   0  0  1  0  0  0  0  0  0  0  0  0
   -1.8887   -1.8818    1.9283 O   0  0  0  0  0  0  0  0  0  0  0  0
   -1.0228   -0.4292    0.1644 C   0  0  2  0  0  0  0  0  0  0  0  0
    0.3429   -0.3599    0.3620 N   0  0  0  0  0  0  0  0  0  0  0  0
    1.0572   -1.5572    0.2438 C   0  0  0  0  0  0  0  0  0  0  0  0
    2.5128   -1.1053    0.3755 C   0  0  0  0  0  0  0  0  0  0  0  0
    2.4765    0.3825    0.1946 C   0  0  1  0  0  0  0  0  0  0  0  0
    3.4923    0.9006   -0.7880 C   0  0  0  0  0  0  0  0  0  0  0  0
    4.7966    0.5311   -0.2896 N   0  0  0  0  0  0  0  0  0  0  0  0
    1.0760    0.6775   -0.2390 C   0  0  0  0  0  0  0  0  0  0  0  0
   -1.6422    0.6935   -0.5934 C   0  0  0  0  0  0  0  0  0  0  0  0
   -4.8820    1.2379   -0.7390 H   0  0  0  0  0  0  0  0  0  0  0  0
   -3.8057    1.8854    0.5260 H   0  0  0  0  0  0  0  0  0  0  0  0
   -3.4990    2.3417   -1.2180 H   0  0  0  0  0  0  0  0  0  0  0  0
   -4.0780   -0.0776    1.2069 H   0  0  0  0  0  0  0  0  0  0  0  0
   -3.5550   -1.5008    0.1724 H   0  0  0  0  0  0  0  0  0  0  0  0
   -1.8587    0.1836    2.0260 H   0  0  0  0  0  0  0  0  0  0  0  0
   -2.7904   -2.2184    2.2014 H   0  0  0  0  0  0  0  0  0  0  0  0
   -1.2121   -1.3644   -0.5596 H   0  0  0  0  0  0  0  0  0  0  0  0
    0.8770   -2.4022    0.8720 H   0  0  0  0  0  0  0  0  0  0  0  0
    0.9891   -1.8975   -0.8671 H   0  0  0  0  0  0  0  0  0  0  0  0
    2.9074   -1.3989    1.3716 H   0  0  0  0  0  0  0  0  0  0  0  0
    3.1250   -1.6042   -0.4193 H   0  0  0  0  0  0  0  0  0  0  0  0
    2.6796    0.8408    1.1848 H   0  0  0  0  0  0  0  0  0  0  0  0
    3.3073    0.4812   -1.7789 H   0  0  0  0  0  0  0  0  0  0  0  0
    3.4458    2.0120   -0.7658 H   0  0  0  0  0  0  0  0  0  0  0  0
    4.8249   -0.4757    0.0109 H   0  0  0  0  0  0  0  0  0  0  0  0
    5.5417    0.6633   -1.0082 H   0  0  0  0  0  0  0  0  0  0  0  0
    0.9421    0.7161   -1.3398 H   0  0  0  0  0  0  0  0  0  0  0  0
    0.7463    1.6550    0.2350 H   0  0  0  0  0  0  0  0  0  0  0  0
   -1.4813    1.6450   -0.0786 H   0  0  0  0  0  0  0  0  0  0  0  0
   -1.2645    0.6924   -1.6467 H   0  0  0  0  0  0  0  0  0  0  0  0
  1  2  1  0
  2  3  1  0
  3  4  1  0
  4  5  1  0
  4  6  1  0
  6  7  1  0
  7  8  1  0
  8  9  1  0
  9 10  1  0
 10 11  1  0
 11 12  1  0
 10 13  1  0
  6 14  1  0
 14  2  1  0
 13  7  1  0
  1 15  1  0
  1 16  1  0
  1 17  1  0
  3 18  1  0
  3 19  1  0
  4 20  1  1
  5 21  1  0
  6 22  1  6
  8 23  1  0
  8 24  1  0
  9 25  1  0
  9 26  1  0
 10 27  1  1
 11 28  1  0
 11 29  1  0
 12 30  1  0
 12 31  1  0
 13 32  1  0
 13 33  1  0
 14 34  1  0
 14 35  1  0
M  END
$$$$

     RDKit          3D

 35 36  0  0  0  0  0  0  0  0999 V2000
   -3.7938   -0.9460    0.3452 C   0  0  0  0  0  0  0  0  0  0  0  0
   -2.9849   -0.3001   -0.6458 N   0  0  0  0  0  0  0  0  0  0  0  0
   -2.9986    1.1330   -0.4703 C   0  0  0  0  0  0  0  0  0  0  0  0
   -1.8267    1.4926    0.3805 C   0  0  1  0  0  0  0  0  0  0  0  0
   -2.1992    1.9724    1.6398 O   0  0  0  0  0  0  0  0  0  0  0  0
   -1.0694    0.1946    0.4980 C   0  0  2  0  0  0  0  0  0  0  0  0
    0.3191    0.4421    0.5066 N   0  0  0  0  0  0  0  0  0  0  0  0
    0.8721    1.0450   -0.6736 C   0  0  0  0  0  0  0  0  0  0  0  0
    2.3725    0.8183   -0.4062 C   0  0  0  0  0  0  0  0  0  0  0  0
    2.3203   -0.6676   -0.1207 C   0  0  1  0  0  0  0  0  0  0  0  0
    3.5711   -1.1858    0.5186 C   0  0  0  0  0  0  0  0  0  0  0  0
    4.7471   -1.0013   -0.2607 N   0  0  0  0  0  0  0  0  0  0  0  0
    1.1220   -0.7366    0.7918 C   0  0  0  0  0  0  0  0  0  0  0  0
   -1.5838   -0.7064   -0.5857 C   0  0  0  0  0  0  0  0  0  0  0  0
   -3.1615   -1.3782    1.1484 H   0  0  0  0  0  0  0  0  0  0  0  0
   -4.4497   -1.7148   -0.1272 H   0  0  0  0  0  0  0  0  0  0  0  0
   -4.4213   -0.1689    0.8459 H   0  0  0  0  0  0  0  0  0  0  0  0
   -3.9184    1.4856    0.0397 H   0  0  0  0  0  0  0  0  0  0  0  0
   -2.8985    1.6010   -1.4793 H   0  0  0  0  0  0  0  0  0  0  0  0
   -1.2438    2.2911   -0.0993 H   0  0  0  0  0  0  0  0  0  0  0  0
   -2.7789    1.3543    2.1267 H   0  0  0  0  0  0  0  0  0  0  0  0
   -1.3550   -0.2618    1.4675 H   0  0  0  0  0  0  0  0  0  0  0  0
    0.6692    2.1138   -0.7709 H   0  0  0  0  0  0  0  0  0  0  0  0
    0.6692    0.4627   -1.5968 H   0  0  0  0  0  0  0  0  0  0  0  0
    2.6689    1.4211    0.4695 H   0  0  0  0  0  0  0  0  0  0  0  0
    2.9607    1.0498   -1.3157 H   0  0  0  0  0  0  0  0  0  0  0  0
    2.0551   -1.1738   -1.0556 H   0  0  0  0  0  0  0  0  0  0  0  0
    3.7038   -0.6748    1.4959 H   0  0  0  0  0  0  0  0  0  0  0  0
    3.4116   -2.2647    0.7198 H   0  0  0  0  0  0  0  0  0  0  0  0
    5.4660   -0.4054    0.2037 H   0  0  0  0  0  0  0  0  0  0  0  0
    4.5709   -0.7261   -1.2497 H   0  0  0  0  0  0  0  0  0  0  0  0
    1.4178   -0.6602    1.8639 H   0  0  0  0  0  0  0  0  0  0  0  0
    0.4972   -1.6337    0.5998 H   0  0  0  0  0  0  0  0  0  0  0  0
   -1.5709   -1.7678   -0.2871 H   0  0  0  0  0  0  0  0  0  0  0  0
   -1.1602   -0.5036   -1.5758 H   0  0  0  0  0  0  0  0  0  0  0  0
  1  2  1  0
  2  3  1  0
  3  4  1  0
  4  5  1  0
  4  6  1  0
  6  7  1  0
  7  8  1  0
  8  9  1  0
  9 10  1  0
 10 11  1  0
 11 12  1  0
 10 13  1  0
  6 14  1  0
 14  2  1  0
 13  7  1  0
  1 15  1  0
  1 16  1  0
  1 17  1  0
  3 18  1  0
  3 19  1  0
  4 20  1  6
  5 21  1  0
  6 22  1  1
  8 23  1  0
  8 24  1  0
  9 25  1  0
  9 26  1  0
 10 27  1  6
 11 28  1  0
 11 29  1  0
 12 30  1  0
 12 31  1  0
 13 32  1  0
 13 33  1  0
 14 34  1  0
 14 35  1  0
M  END
$$$$

     RDKit          3D

 35 36  0  0  0  0  0  0  0  0999 V2000
   -3.6412    1.2177    1.2394 C   0  0  0  0  0  0  0  0  0  0  0  0
   -3.0160    0.0420    0.7438 N   0  0  0  0  0  0  0  0  0  0  0  0
   -3.2097   -0.2472   -0.6402 C   0  0  0  0  0  0  0  0  0  0  0  0
   -1.9696   -1.0869   -0.9857 C   0  0  1  0  0  0  0  0  0  0  0  0
   -1.8060   -1.2082   -2.3298 O   0  0  0  0  0  0  0  0  0  0  0  0
   -0.9190   -0.1483   -0.3671 C   0  0  2  0  0  0  0  0  0  0  0  0
    0.3801   -0.6959   -0.3425 N   0  0  0  0  0  0  0  0  0  0  0  0
    1.0792   -0.6524    0.8960 C   0  0  0  0  0  0  0  0  0  0  0  0
    1.7208    0.7289    0.7892 C   0  0  0  0  0  0  0  0  0  0  0  0
    2.3719    0.6078   -0.5807 C   0  0  1  0  0  0  0  0  0  0  0  0
    3.5085   -0.3891   -0.4595 C   0  0  0  0  0  0  0  0  0  0  0  0
    4.5046    0.0180    0.5255 N   0  0  0  0  0  0  0  0  0  0  0  0
    1.2322   -0.0782   -1.3345 C   0  0  0  0  0  0  0  0  0  0  0  0
   -1.5669   -0.0031    1.0051 C   0  0  0  0  0  0  0  0  0  0  0  0
   -3.8177    1.9927    0.4749 H   0  0  0  0  0  0  0  0  0  0  0  0
   -4.5915    0.8933    1.7499 H   0  0  0  0  0  0  0  0  0  0  0  0
   -3.0106    1.6375    2.0509 H   0  0  0  0  0  0  0  0  0  0  0  0
   -3.1153    0.7215   -1.2154 H   0  0  0  0  0  0  0  0  0  0  0  0
   -4.1398   -0.7507   -0.8795 H   0  0  0  0  0  0  0  0  0  0  0  0
   -2.0571   -2.0186   -0.4154 H   0  0  0  0  0  0  0  0  0  0  0  0
   -1.0760   -1.8498   -2.4786 H   0  0  0  0  0  0  0  0  0  0  0  0
   -0.9630    0.8205   -0.8670 H   0  0  0  0  0  0  0  0  0  0  0  0
    1.8419   -1.4305    0.9326 H   0  0  0  0  0  0  0  0  0  0  0  0
    0.4831   -0.6785    1.8145 H   0  0  0  0  0  0  0  0  0  0  0  0
    0.9303    1.5001    0.6998 H   0  0  0  0  0  0  0  0  0  0  0  0
    2.4001    0.8690    1.6098 H   0  0  0  0  0  0  0  0  0  0  0  0
    2.6499    1.5541   -1.0069 H   0  0  0  0  0  0  0  0  0  0  0  0
    3.2001   -1.4051   -0.4128 H   0  0  0  0  0  0  0  0  0  0  0  0
    4.0709   -0.2794   -1.4677 H   0  0  0  0  0  0  0  0  0  0  0  0
    4.4119    1.0440    0.6725 H   0  0  0  0  0  0  0  0  0  0  0  0
    4.3292   -0.4670    1.4410 H   0  0  0  0  0  0  0  0  0  0  0  0
    1.7203   -0.8588   -1.9787 H   0  0  0  0  0  0  0  0  0  0  0  0
    0.7515    0.6676   -1.9717 H   0  0  0  0  0  0  0  0  0  0  0  0
   -1.4626   -0.9552    1.5707 H   0  0  0  0  0  0  0  0  0  0  0  0
   -1.2244    0.8881    1.5182 H   0  0  0  0  0  0  0  0  0  0  0  0
  1  2  1  0
  2  3  1  0
  3  4  1  0
  4  5  1  0
  4  6  1  0
  6  7  1  0
  7  8  1  0
  8  9  1  0
  9 10  1  0
 10 11  1  0
 11 12  1  0
 10 13  1  0
  6 14  1  0
 14  2  1  0
 13  7  1  0
  1 15  1  0
  1 16  1  0
  1 17  1  0
  3 18  1  0
  3 19  1  0
  4 20  1  1
  5 21  1  0
  6 22  1  6
  8 23  1  0
  8 24  1  0
  9 25  1  0
  9 26  1  0
 10 27  1  6
 11 28  1  0
 11 29  1  0
 12 30  1  0
 12 31  1  0
 13 32  1  0
 13 33  1  0
 14 34  1  0
 14 35  1  0
M  END
$$$$

     RDKit          3D

 35 36  0  0  0  0  0  0  0  0999 V2000
    4.1632    0.3125   -0.0136 C   0  0  0  0  0  0  0  0  0  0  0  0
    2.8743    0.7030    0.4927 N   0  0  0  0  0  0  0  0  0  0  0  0
    2.1303    1.4423   -0.5002 C   0  0  0  0  0  0  0  0  0  0  0  0
    1.2546    0.3994   -1.1899 C   0  0  1  0  0  0  0  0  0  0  0  0
    1.9617    0.0275   -2.3374 O   0  0  0  0  0  0  0  0  0  0  0  0
    1.1058   -0.7073   -0.2102 C   0  0  2  0  0  0  0  0  0  0  0  0
   -0.2377   -1.0168    0.1919 N   0  0  0  0  0  0  0  0  0  0  0  0
   -1.0222   -1.5141   -0.9122 C   0  0  0  0  0  0  0  0  0  0  0  0
   -2.4526   -1.2182   -0.4319 C   0  0  0  0  0  0  0  0  0  0  0  0
   -2.2651    0.2146    0.0201 C   0  0  1  0  0  0  0  0  0  0  0  0
   -3.3807    0.7157    0.8743 C   0  0  0  0  0  0  0  0  0  0  0  0
   -4.6149    0.6555    0.1249 N   0  0  0  0  0  0  0  0  0  0  0  0
   -0.9454    0.1180    0.7337 C   0  0  0  0  0  0  0  0  0  0  0  0
    2.0567   -0.4259    0.8983 C   0  0  0  0  0  0  0  0  0  0  0  0
    4.2909    0.6740   -1.0457 H   0  0  0  0  0  0  0  0  0  0  0  0
    4.3471   -0.7673   -0.0240 H   0  0  0  0  0  0  0  0  0  0  0  0
    4.9361    0.8383    0.5923 H   0  0  0  0  0  0  0  0  0  0  0  0
    2.8797    1.8861   -1.1885 H   0  0  0  0  0  0  0  0  0  0  0  0
    1.5592    2.2776   -0.0784 H   0  0  0  0  0  0  0  0  0  0  0  0
    0.2956    0.8476   -1.5246 H   0  0  0  0  0  0  0  0  0  0  0  0
    2.4070   -0.8279   -2.1583 H   0  0  0  0  0  0  0  0  0  0  0  0
    1.4752   -1.6475   -0.7261 H   0  0  0  0  0  0  0  0  0  0  0  0
   -0.8812   -2.6137   -1.0352 H   0  0  0  0  0  0  0  0  0  0  0  0
   -0.8497   -0.9189   -1.8046 H   0  0  0  0  0  0  0  0  0  0  0  0
   -2.6072   -1.8454    0.4553 H   0  0  0  0  0  0  0  0  0  0  0  0
   -3.1736   -1.3589   -1.2293 H   0  0  0  0  0  0  0  0  0  0  0  0
   -2.2167    0.8281   -0.9121 H   0  0  0  0  0  0  0  0  0  0  0  0
   -3.1639    1.7964    1.0971 H   0  0  0  0  0  0  0  0  0  0  0  0
   -3.4435    0.1423    1.8354 H   0  0  0  0  0  0  0  0  0  0  0  0
   -4.7795    1.5891   -0.3598 H   0  0  0  0  0  0  0  0  0  0  0  0
   -4.5445   -0.0313   -0.6460 H   0  0  0  0  0  0  0  0  0  0  0  0
   -0.3946    1.0692    0.5935 H   0  0  0  0  0  0  0  0  0  0  0  0
   -1.1585   -0.1073    1.7993 H   0  0  0  0  0  0  0  0  0  0  0  0
    2.7918   -1.2743    1.0396 H   0  0  0  0  0  0  0  0  0  0  0  0
    1.6022   -0.2623    1.8878 H   0  0  0  0  0  0  0  0  0  0  0  0
  1  2  1  0
  2  3  1  0
  3  4  1  0
  4  5  1  0
  4  6  1  0
  6  7  1  0
  7  8  1  0
  8  9  1  0
  9 10  1  0
 10 11  1  0
 11 12  1  0
 10 13  1  0
  6 14  1  0
 14  2  1  0
 13  7  1  0
  1 15  1  0
  1 16  1  0
  1 17  1  0
  3 18  1  0
  3 19  1  0
  4 20  1  6
  5 21  1  0
  6 22  1  6
  8 23  1  0
  8 24  1  0
  9 25  1  0
  9 26  1  0
 10 27  1  6
 11 28  1  0
 11 29  1  0
 12 30  1  0
 12 31  1  0
 13 32  1  0
 13 33  1  0
 14 34  1  0
 14 35  1  0
M  END
$$$$

     RDKit          3D

 35 36  0  0  0  0  0  0  0  0999 V2000
    3.9349    1.1153   -0.5723 C   0  0  0  0  0  0  0  0  0  0  0  0
    3.0380    0.3240    0.2027 N   0  0  0  0  0  0  0  0  0  0  0  0
    3.0041   -1.0474   -0.2645 C   0  0  0  0  0  0  0  0  0  0  0  0
    1.6426   -1.5972    0.0736 C   0  0  1  0  0  0  0  0  0  0  0  0
    1.7459   -2.6005    1.0307 O   0  0  0  0  0  0  0  0  0  0  0  0
    0.9245   -0.4092    0.6607 C   0  0  2  0  0  0  0  0  0  0  0  0
   -0.4894   -0.4674    0.4503 N   0  0  0  0  0  0  0  0  0  0  0  0
   -0.8779   -0.4494   -0.9320 C   0  0  0  0  0  0  0  0  0  0  0  0
   -1.9023    0.6299   -1.0853 C   0  0  0  0  0  0  0  0  0  0  0  0
   -2.3868    0.9451    0.2956 C   0  0  1  0  0  0  0  0  0  0  0  0
   -3.5485    0.1111    0.7342 C   0  0  0  0  0  0  0  0  0  0  0  0
   -4.7204    0.2395   -0.0997 N   0  0  0  0  0  0  0  0  0  0  0  0
   -1.1993    0.5609    1.1505 C   0  0  0  0  0  0  0  0  0  0  0  0
    1.6348    0.7509    0.0633 C   0  0  0  0  0  0  0  0  0  0  0  0
    3.9304    0.7346   -1.6115 H   0  0  0  0  0  0  0  0  0  0  0  0
    3.6487    2.1801   -0.4959 H   0  0  0  0  0  0  0  0  0  0  0  0
    4.9585    1.0266   -0.1223 H   0  0  0  0  0  0  0  0  0  0  0  0
    3.1422   -1.0955   -1.3672 H   0  0  0  0  0  0  0  0  0  0  0  0
    3.7990   -1.6216    0.2298 H   0  0  0  0  0  0  0  0  0  0  0  0
    1.1142   -1.9719   -0.8466 H   0  0  0  0  0  0  0  0  0  0  0  0
    1.9391   -2.1829    1.9045 H   0  0  0  0  0  0  0  0  0  0  0  0
    1.1125   -0.4108    1.7497 H   0  0  0  0  0  0  0  0  0  0  0  0
   -1.4148   -1.4238   -1.1205 H   0  0  0  0  0  0  0  0  0  0  0  0
   -0.0518   -0.4205   -1.6393 H   0  0  0  0  0  0  0  0  0  0  0  0
   -1.3623    1.5342   -1.4822 H   0  0  0  0  0  0  0  0  0  0  0  0
   -2.6969    0.4118   -1.8062 H   0  0  0  0  0  0  0  0  0  0  0  0
   -2.5776    2.0242    0.4482 H   0  0  0  0  0  0  0  0  0  0  0  0
   -3.3109   -0.9654    0.8372 H   0  0  0  0  0  0  0  0  0  0  0  0
   -3.8336    0.4716    1.7660 H   0  0  0  0  0  0  0  0  0  0  0  0
   -4.5974   -0.4029   -0.9382 H   0  0  0  0  0  0  0  0  0  0  0  0
   -5.5198   -0.1950    0.4350 H   0  0  0  0  0  0  0  0  0  0  0  0
   -0.5077    1.4156    1.3264 H   0  0  0  0  0  0  0  0  0  0  0  0
   -1.5323    0.1481    2.1215 H   0  0  0  0  0  0  0  0  0  0  0  0
    1.5658    1.6802    0.6983 H   0  0  0  0  0  0  0  0  0  0  0  0
    1.3946    0.9580   -0.9792 H   0  0  0  0  0  0  0  0  0  0  0  0
  1  2  1  0
  2  3  1  0
  3  4  1  0
  4  5  1  0
  4  6  1  0
  6  7  1  0
  7  8  1  0
  8  9  1  0
  9 10  1  0
 10 11  1  0
 11 12  1  0
 10 13  1  0
  6 14  1  0
 14  2  1  0
 13  7  1  0
  1 15  1  0
  1 16  1  0
  1 17  1  0
  3 18  1  0
  3 19  1  0
  4 20  1  6
  5 21  1  0
  6 22  1  1
  8 23  1  0
  8 24  1  0
  9 25  1  0
  9 26  1  0
 10 27  1  6
 11 28  1  0
 11 29  1  0
 12 30  1  0
 12 31  1  0
 13 32  1  0
 13 33  1  0
 14 34  1  0
 14 35  1  0
M  END
$$$$

     RDKit          3D

 35 36  0  0  0  0  0  0  0  0999 V2000
    3.7295    1.1822   -0.0308 C   0  0  0  0  0  0  0  0  0  0  0  0
    2.7856    0.3082   -0.6427 N   0  0  0  0  0  0  0  0  0  0  0  0
    2.9377   -1.0249   -0.1589 C   0  0  0  0  0  0  0  0  0  0  0  0
    1.8305   -1.2663    0.8086 C   0  0  1  0  0  0  0  0  0  0  0  0
    2.2864   -1.2683    2.1455 O   0  0  0  0  0  0  0  0  0  0  0  0
    0.8191   -0.1288    0.6242 C   0  0  2  0  0  0  0  0  0  0  0  0
   -0.4421   -0.6485    0.4728 N   0  0  0  0  0  0  0  0  0  0  0  0
   -0.8525   -1.4399   -0.5966 C   0  0  0  0  0  0  0  0  0  0  0  0
   -2.0351   -0.7214   -1.2686 C   0  0  0  0  0  0  0  0  0  0  0  0
   -2.0579    0.5783   -0.5428 C   0  0  1  0  0  0  0  0  0  0  0  0
   -3.3465    1.3109   -0.4958 C   0  0  0  0  0  0  0  0  0  0  0  0
   -4.3710    0.5348    0.1370 N   0  0  0  0  0  0  0  0  0  0  0  0
   -1.5683    0.1572    0.8465 C   0  0  0  0  0  0  0  0  0  0  0  0
    1.4042    0.6737   -0.4970 C   0  0  0  0  0  0  0  0  0  0  0  0
    4.6896    1.0830   -0.6143 H   0  0  0  0  0  0  0  0  0  0  0  0
    3.9719    0.9603    1.0122 H   0  0  0  0  0  0  0  0  0  0  0  0
    3.4686    2.2681   -0.0993 H   0  0  0  0  0  0  0  0  0  0  0  0
    2.8854   -1.7241   -1.0297 H   0  0  0  0  0  0  0  0  0  0  0  0
    3.8984   -1.1156    0.4027 H   0  0  0  0  0  0  0  0  0  0  0  0
    1.3526   -2.2462    0.6359 H   0  0  0  0  0  0  0  0  0  0  0  0
    2.0661   -0.3871    2.5253 H   0  0  0  0  0  0  0  0  0  0  0  0
    0.8730    0.5157    1.5318 H   0  0  0  0  0  0  0  0  0  0  0  0
   -1.2587   -2.4015   -0.2264 H   0  0  0  0  0  0  0  0  0  0  0  0
   -0.0831   -1.6986   -1.3505 H   0  0  0  0  0  0  0  0  0  0  0  0
   -2.9551   -1.2968   -1.2002 H   0  0  0  0  0  0  0  0  0  0  0  0
   -1.7786   -0.5608   -2.3535 H   0  0  0  0  0  0  0  0  0  0  0  0
   -1.2519    1.2202   -0.9576 H   0  0  0  0  0  0  0  0  0  0  0  0
   -3.6662    1.7041   -1.4772 H   0  0  0  0  0  0  0  0  0  0  0  0
   -3.1724    2.2166    0.1665 H   0  0  0  0  0  0  0  0  0  0  0  0
   -4.2055   -0.4764    0.1421 H   0  0  0  0  0  0  0  0  0  0  0  0
   -4.5943    0.9311    1.0901 H   0  0  0  0  0  0  0  0  0  0  0  0
   -1.3239    1.0122    1.4880 H   0  0  0  0  0  0  0  0  0  0  0  0
   -2.3306   -0.5205    1.2926 H   0  0  0  0  0  0  0  0  0  0  0  0
    1.3625    1.7614   -0.2975 H   0  0  0  0  0  0  0  0  0  0  0  0
    0.9327    0.5076   -1.4825 H   0  0  0  0  0  0  0  0  0  0  0  0
  1  2  1  0
  2  3  1  0
  3  4  1  0
  4  5  1  0
  4  6  1  0
  6  7  1  0
  7  8  1  0
  8  9  1  0
  9 10  1  0
 10 11  1  0
 11 12  1  0
 10 13  1  0
  6 14  1  0
 14  2  1  0
 13  7  1  0
  1 15  1  0
  1 16  1  0
  1 17  1  0
  3 18  1  0
  3 19  1  0
  4 20  1  6
  5 21  1  0
  6 22  1  1
  8 23  1  0
  8 24  1  0
  9 25  1  0
  9 26  1  0
 10 27  1  6
 11 28  1  0
 11 29  1  0
 12 30  1  0
 12 31  1  0
 13 32  1  0
 13 33  1  0
 14 34  1  0
 14 35  1  0
M  END
$$$$
