
     RDKit          3D

 29 30  0  0  0  0  0  0  0  0999 V2000
   -3.1207    1.5076    0.0892 C   0  0  0  0  0  0  0  0  0  0  0  0
   -2.1904    0.8093   -0.7700 N   0  0  0  0  0  0  0  0  0  0  0  0
   -2.5656   -0.5621   -0.9419 C   0  0  0  0  0  0  0  0  0  0  0  0
   -1.3712   -1.4173   -0.6228 C   0  0  1  0  0  0  0  0  0  0  0  0
   -1.2185   -2.4491   -1.5444 O   0  0  0  0  0  0  0  0  0  0  0  0
   -0.2260   -0.4271   -0.6939 C   0  0  2  0  0  0  0  0  0  0  0  0
    0.8941   -0.8943    0.0276 N   0  0  0  0  0  0  0  0  0  0  0  0
    1.9961   -0.1142    0.0537 N   0  0  0  0  0  0  0  0  0  0  0  0
    3.2387   -0.7148    0.3892 C   0  0  0  0  0  0  0  0  0  0  0  0
    3.5648    0.5382    1.2106 C   0  0  0  0  0  0  0  0  0  0  0  0
    2.0947    0.9286    1.0379 C   0  0  0  0  0  0  0  0  0  0  0  0
   -0.8635    0.8172   -0.1757 C   0  0  0  0  0  0  0  0  0  0  0  0
   -2.7991    1.5312    1.1382 H   0  0  0  0  0  0  0  0  0  0  0  0
   -3.2373    2.5381   -0.3363 H   0  0  0  0  0  0  0  0  0  0  0  0
   -4.1241    1.0153    0.0242 H   0  0  0  0  0  0  0  0  0  0  0  0
   -2.7761   -0.7182   -2.0405 H   0  0  0  0  0  0  0  0  0  0  0  0
   -3.4370   -0.8382   -0.3207 H   0  0  0  0  0  0  0  0  0  0  0  0
   -1.4367   -1.8549    0.4153 H   0  0  0  0  0  0  0  0  0  0  0  0
   -0.7458   -2.0677   -2.3252 H   0  0  0  0  0  0  0  0  0  0  0  0
    0.0509   -0.3194   -1.7703 H   0  0  0  0  0  0  0  0  0  0  0  0
    0.7424   -1.5663    0.7691 H   0  0  0  0  0  0  0  0  0  0  0  0
    3.8915   -0.8241   -0.5069 H   0  0  0  0  0  0  0  0  0  0  0  0
    3.2213   -1.6275    1.0110 H   0  0  0  0  0  0  0  0  0  0  0  0
    4.2514    1.2348    0.6967 H   0  0  0  0  0  0  0  0  0  0  0  0
    3.8344    0.2770    2.2474 H   0  0  0  0  0  0  0  0  0  0  0  0
    1.9935    1.9241    0.5497 H   0  0  0  0  0  0  0  0  0  0  0  0
    1.4889    0.8139    1.9419 H   0  0  0  0  0  0  0  0  0  0  0  0
   -0.8920    0.7776    0.9303 H   0  0  0  0  0  0  0  0  0  0  0  0
   -0.2587    1.6820   -0.4834 H   0  0  0  0  0  0  0  0  0  0  0  0
  1  2  1  0
  2  3  1  0
  3  4  1  0
  4  5  1  0
  4  6  1  0
  6  7  1  0
  7  8  1  0
  8  9  1  0
  9 10  1  0
 10 11  1  0
  6 12  1  0
 12  2  1  0
 11  8  1  0
  1 13  1  0
  1 14  1  0
  1 15  1  0
  3 16  1  0
  3 17  1  0
  4 18  1  1
  5 19  1  0
  6 20  1  6
  7 21  1  0
  9 22  1  0
  9 23  1  0
 10 24  1  0
 10 25  1  0
 11 26  1  0
 11 27  1  0
 12 28  1  0
 12 29  1  0
M  END
$$$$

     RDKit          3D

 29 30  0  0  0  0  0  0  0  0999 V2000
   -3.7369    0.7479    0.7380 C   0  0  0  0  0  0  0  0  0  0  0  0
   -2.5085    0.3119    0.3250 N   0  0  0  0  0  0  0  0  0  0  0  0
   -2.2932   -0.9636   -0.2004 C   0  0  0  0  0  0  0  0  0  0  0  0
   -0.8166   -1.1702    0.1562 C   0  0  1  0  0  0  0  0  0  0  0  0
   -0.2250   -2.1479   -0.5945 O   0  0  0  0  0  0  0  0  0  0  0  0
   -0.2711    0.2290   -0.1706 C   0  0  2  0  0  0  0  0  0  0  0  0
    0.8531    0.5625    0.6193 N   0  0  0  0  0  0  0  0  0  0  0  0
    1.9456   -0.2269    0.5322 N   0  0  0  0  0  0  0  0  0  0  0  0
    3.1322    0.3977    1.1206 C   0  0  0  0  0  0  0  0  0  0  0  0
    3.8640    0.2117   -0.1848 C   0  0  0  0  0  0  0  0  0  0  0  0
    2.5993   -0.4144   -0.7165 C   0  0  0  0  0  0  0  0  0  0  0  0
   -1.4245    1.1692    0.1291 C   0  0  0  0  0  0  0  0  0  0  0  0
   -3.8431    1.8521    0.6716 H   0  0  0  0  0  0  0  0  0  0  0  0
   -4.6096    0.3289    0.1832 H   0  0  0  0  0  0  0  0  0  0  0  0
   -3.9172    0.4879    1.8179 H   0  0  0  0  0  0  0  0  0  0  0  0
   -2.9283   -1.7420    0.1994 H   0  0  0  0  0  0  0  0  0  0  0  0
   -2.3444   -1.0148   -1.3215 H   0  0  0  0  0  0  0  0  0  0  0  0
   -0.7943   -1.3558    1.2481 H   0  0  0  0  0  0  0  0  0  0  0  0
   -0.8645   -2.9250   -0.6413 H   0  0  0  0  0  0  0  0  0  0  0  0
   -0.0995    0.2415   -1.2560 H   0  0  0  0  0  0  0  0  0  0  0  0
    0.6919    1.0733    1.4834 H   0  0  0  0  0  0  0  0  0  0  0  0
    3.5510   -0.1647    1.9758 H   0  0  0  0  0  0  0  0  0  0  0  0
    2.9818    1.4649    1.4085 H   0  0  0  0  0  0  0  0  0  0  0  0
    4.1584    1.1734   -0.6804 H   0  0  0  0  0  0  0  0  0  0  0  0
    4.7462   -0.4553   -0.1477 H   0  0  0  0  0  0  0  0  0  0  0  0
    2.7905   -1.4937   -0.9655 H   0  0  0  0  0  0  0  0  0  0  0  0
    2.2303    0.1708   -1.5786 H   0  0  0  0  0  0  0  0  0  0  0  0
   -1.2305    1.8327    0.9799 H   0  0  0  0  0  0  0  0  0  0  0  0
   -1.6372    1.8189   -0.7688 H   0  0  0  0  0  0  0  0  0  0  0  0
  1  2  1  0
  2  3  1  0
  3  4  1  0
  4  5  1  0
  4  6  1  0
  6  7  1  0
  7  8  1  0
  8  9  1  0
  9 10  1  0
 10 11  1  0
  6 12  1  0
 12  2  1  0
 11  8  1  0
  1 13  1  0
  1 14  1  0
  1 15  1  0
  3 16  1  0
  3 17  1  0
  4 18  1  1
  5 19  1  0
  6 20  1  6
  7 21  1  0
  9 22  1  0
  9 23  1  0
 10 24  1  0
 10 25  1  0
 11 26  1  0
 11 27  1  0
 12 28  1  0
 12 29  1  0
M  END
$$$$

     RDKit          3D

 29 30  0  0  0  0  0  0  0  0999 V2000
    3.5662    0.0069   -0.2002 C   0  0  0  0  0  0  0  0  0  0  0  0
    2.2303   -0.0018   -0.7244 N   0  0  0  0  0  0  0  0  0  0  0  0
    1.4305   -1.1078   -0.2642 C   0  0  0  0  0  0  0  0  0  0  0  0
    0.8126   -0.5247    1.0049 C   0  0  1  0  0  0  0  0  0  0  0  0
    1.7535   -0.3810    2.0170 O   0  0  0  0  0  0  0  0  0  0  0  0
    0.3705    0.8354    0.4965 C   0  0  2  0  0  0  0  0  0  0  0  0
   -0.8538    0.7902   -0.2392 N   0  0  0  0  0  0  0  0  0  0  0  0
   -1.9413    0.3212    0.4473 N   0  0  0  0  0  0  0  0  0  0  0  0
   -3.1772    0.8026   -0.1865 C   0  0  0  0  0  0  0  0  0  0  0  0
   -3.4063   -0.5404   -0.8250 C   0  0  0  0  0  0  0  0  0  0  0  0
   -2.3821   -1.0198    0.1674 C   0  0  0  0  0  0  0  0  0  0  0  0
    1.4833    1.1873   -0.4695 C   0  0  0  0  0  0  0  0  0  0  0  0
    4.2525   -0.4651   -0.9502 H   0  0  0  0  0  0  0  0  0  0  0  0
    3.6944   -0.5730    0.7282 H   0  0  0  0  0  0  0  0  0  0  0  0
    3.9327    1.0404   -0.0227 H   0  0  0  0  0  0  0  0  0  0  0  0
    0.5963   -1.2289   -0.9878 H   0  0  0  0  0  0  0  0  0  0  0  0
    1.9728   -2.0307   -0.0930 H   0  0  0  0  0  0  0  0  0  0  0  0
   -0.0028   -1.1341    1.3900 H   0  0  0  0  0  0  0  0  0  0  0  0
    1.8860    0.5834    2.2137 H   0  0  0  0  0  0  0  0  0  0  0  0
    0.3149    1.5653    1.3198 H   0  0  0  0  0  0  0  0  0  0  0  0
   -0.7668    0.4766   -1.2214 H   0  0  0  0  0  0  0  0  0  0  0  0
   -3.9327    1.0765    0.5614 H   0  0  0  0  0  0  0  0  0  0  0  0
   -3.0061    1.5989   -0.9488 H   0  0  0  0  0  0  0  0  0  0  0  0
   -4.4223   -0.9664   -0.7143 H   0  0  0  0  0  0  0  0  0  0  0  0
   -3.0258   -0.6683   -1.8512 H   0  0  0  0  0  0  0  0  0  0  0  0
   -2.9041   -1.4701    1.0462 H   0  0  0  0  0  0  0  0  0  0  0  0
   -1.6423   -1.7072   -0.2666 H   0  0  0  0  0  0  0  0  0  0  0  0
    2.1009    2.0011   -0.0448 H   0  0  0  0  0  0  0  0  0  0  0  0
    1.0660    1.5336   -1.4545 H   0  0  0  0  0  0  0  0  0  0  0  0
  1  2  1  0
  2  3  1  0
  3  4  1  0
  4  5  1  0
  4  6  1  0
  6  7  1  0
  7  8  1  0
  8  9  1  0
  9 10  1  0
 10 11  1  0
  6 12  1  0
 12  2  1  0
 11  8  1  0
  1 13  1  0
  1 14  1  0
  1 15  1  0
  3 16  1  0
  3 17  1  0
  4 18  1  1
  5 19  1  0
  6 20  1  1
  7 21  1  0
  9 22  1  0
  9 23  1  0
 10 24  1  0
 10 25  1  0
 11 26  1  0
 11 27  1  0
 12 28  1  0
 12 29  1  0
M  END
$$$$

     RDKit          3D

 29 30  0  0  0  0  0  0  0  0999 V2000
   -3.4498   -0.3798   -1.0926 C   0  0  0  0  0  0  0  0  0  0  0  0
   -2.3893   -1.1113   -0.4444 N   0  0  0  0  0  0  0  0  0  0  0  0
   -2.4224   -0.8378    0.9624 C   0  0  0  0  0  0  0  0  0  0  0  0
   -1.3699    0.2173    1.1747 C   0  0  1  0  0  0  0  0  0  0  0  0
   -0.8455    0.2023    2.4618 O   0  0  0  0  0  0  0  0  0  0  0  0
   -0.2822   -0.2927    0.2512 C   0  0  2  0  0  0  0  0  0  0  0  0
    0.7171    0.6986   -0.0146 N   0  0  0  0  0  0  0  0  0  0  0  0
    1.7274    0.2881   -0.8472 N   0  0  0  0  0  0  0  0  0  0  0  0
    2.7089   -0.5561   -0.2171 C   0  0  0  0  0  0  0  0  0  0  0  0
    3.7709    0.4962   -0.2563 C   0  0  0  0  0  0  0  0  0  0  0  0
    2.7450    1.3228   -0.9622 C   0  0  0  0  0  0  0  0  0  0  0  0
   -1.0735   -0.7229   -0.9303 C   0  0  0  0  0  0  0  0  0  0  0  0
   -4.2636   -1.0489   -1.4742 H   0  0  0  0  0  0  0  0  0  0  0  0
   -3.0768    0.1677   -2.0041 H   0  0  0  0  0  0  0  0  0  0  0  0
   -3.9130    0.3915   -0.4383 H   0  0  0  0  0  0  0  0  0  0  0  0
   -2.1042   -1.7557    1.5104 H   0  0  0  0  0  0  0  0  0  0  0  0
   -3.4206   -0.4927    1.3016 H   0  0  0  0  0  0  0  0  0  0  0  0
   -1.7356    1.2248    0.8812 H   0  0  0  0  0  0  0  0  0  0  0  0
   -0.4379    1.0938    2.6073 H   0  0  0  0  0  0  0  0  0  0  0  0
    0.1607   -1.1850    0.7475 H   0  0  0  0  0  0  0  0  0  0  0  0
    1.0859    1.0277    0.9117 H   0  0  0  0  0  0  0  0  0  0  0  0
    2.4504   -0.8118    0.8373 H   0  0  0  0  0  0  0  0  0  0  0  0
    3.0022   -1.4231   -0.8521 H   0  0  0  0  0  0  0  0  0  0  0  0
    4.6778    0.2364   -0.8511 H   0  0  0  0  0  0  0  0  0  0  0  0
    4.0827    0.8994    0.7363 H   0  0  0  0  0  0  0  0  0  0  0  0
    3.0012    1.6171   -1.9958 H   0  0  0  0  0  0  0  0  0  0  0  0
    2.5101    2.2602   -0.3859 H   0  0  0  0  0  0  0  0  0  0  0  0
   -1.2123    0.0794   -1.6837 H   0  0  0  0  0  0  0  0  0  0  0  0
   -0.6437   -1.6053   -1.4461 H   0  0  0  0  0  0  0  0  0  0  0  0
  1  2  1  0
  2  3  1  0
  3  4  1  0
  4  5  1  0
  4  6  1  0
  6  7  1  0
  7  8  1  0
  8  9  1  0
  9 10  1  0
 10 11  1  0
  6 12  1  0
 12  2  1  0
 11  8  1  0
  1 13  1  0
  1 14  1  0
  1 15  1  0
  3 16  1  0
  3 17  1  0
  4 18  1  6
  5 19  1  0
  6 20  1  1
  7 21  1  0
  9 22  1  0
  9 23  1  0
 10 24  1  0
 10 25  1  0
 11 26  1  0
 11 27  1  0
 12 28  1  0
 12 29  1  0
M  END
$$$$

     RDKit          3D

 29 30  0  0  0  0  0  0  0  0999 V2000
   -3.3285    0.4263   -0.7708 C   0  0  0  0  0  0  0  0  0  0  0  0
   -2.6088   -0.7806   -0.4315 N   0  0  0  0  0  0  0  0  0  0  0  0
   -2.3916   -0.7632    1.0054 C   0  0  0  0  0  0  0  0  0  0  0  0
   -1.0969    0.0224    1.0790 C   0  0  1  0  0  0  0  0  0  0  0  0
   -0.5304    0.0434    2.3146 O   0  0  0  0  0  0  0  0  0  0  0  0
   -0.2872   -0.7988    0.0661 C   0  0  2  0  0  0  0  0  0  0  0  0
    0.8693   -0.1065   -0.3966 N   0  0  0  0  0  0  0  0  0  0  0  0
    1.7694    0.2333    0.5938 N   0  0  0  0  0  0  0  0  0  0  0  0
    2.9719   -0.5769    0.6501 C   0  0  0  0  0  0  0  0  0  0  0  0
    3.5302    0.2705   -0.4794 C   0  0  0  0  0  0  0  0  0  0  0  0
    2.6207    1.3298    0.1118 C   0  0  0  0  0  0  0  0  0  0  0  0
   -1.3127   -0.8640   -1.0545 C   0  0  0  0  0  0  0  0  0  0  0  0
   -2.6874    1.2024   -1.2333 H   0  0  0  0  0  0  0  0  0  0  0  0
   -3.8734    0.8541    0.1100 H   0  0  0  0  0  0  0  0  0  0  0  0
   -4.0911    0.1610   -1.5485 H   0  0  0  0  0  0  0  0  0  0  0  0
   -3.2121   -0.2544    1.5412 H   0  0  0  0  0  0  0  0  0  0  0  0
   -2.2433   -1.8158    1.3194 H   0  0  0  0  0  0  0  0  0  0  0  0
   -1.2763    1.0143    0.6247 H   0  0  0  0  0  0  0  0  0  0  0  0
   -0.4196    0.9935    2.6211 H   0  0  0  0  0  0  0  0  0  0  0  0
   -0.0834   -1.7964    0.4835 H   0  0  0  0  0  0  0  0  0  0  0  0
    0.5674    0.7577   -0.8866 H   0  0  0  0  0  0  0  0  0  0  0  0
    2.8537   -1.6316    0.4041 H   0  0  0  0  0  0  0  0  0  0  0  0
    3.5424   -0.3722    1.5727 H   0  0  0  0  0  0  0  0  0  0  0  0
    3.2192   -0.1187   -1.4667 H   0  0  0  0  0  0  0  0  0  0  0  0
    4.6075    0.4956   -0.4023 H   0  0  0  0  0  0  0  0  0  0  0  0
    3.1325    1.8819    0.9141 H   0  0  0  0  0  0  0  0  0  0  0  0
    2.1450    1.9567   -0.6706 H   0  0  0  0  0  0  0  0  0  0  0  0
   -1.2318   -1.7898   -1.6411 H   0  0  0  0  0  0  0  0  0  0  0  0
   -1.1546    0.0259   -1.7316 H   0  0  0  0  0  0  0  0  0  0  0  0
  1  2  1  0
  2  3  1  0
  3  4  1  0
  4  5  1  0
  4  6  1  0
  6  7  1  0
  7  8  1  0
  8  9  1  0
  9 10  1  0
 10 11  1  0
  6 12  1  0
 12  2  1  0
 11  8  1  0
  1 13  1  0
  1 14  1  0
  1 15  1  0
  3 16  1  0
  3 17  1  0
  4 18  1  6
  5 19  1  0
  6 20  1  1
  7 21  1  0
  9 22  1  0
  9 23  1  0
 10 24  1  0
 10 25  1  0
 11 26  1  0
 11 27  1  0
 12 28  1  0
 12 29  1  0
M  END
$$$$

     RDKit          3D

 29 30  0  0  0  0  0  0  0  0999 V2000
    2.6714   -1.9760   -0.0097 C   0  0  0  0  0  0  0  0  0  0  0  0
    1.8482   -0.9181    0.5051 N   0  0  0  0  0  0  0  0  0  0  0  0
    2.6031    0.3192    0.6752 C   0  0  0  0  0  0  0  0  0  0  0  0
    1.5649    1.4296    0.6526 C   0  0  1  0  0  0  0  0  0  0  0  0
    2.0918    2.5164   -0.0467 O   0  0  0  0  0  0  0  0  0  0  0  0
    0.4252    0.7943   -0.1062 C   0  0  2  0  0  0  0  0  0  0  0  0
   -0.7918    0.7513    0.7096 N   0  0  0  0  0  0  0  0  0  0  0  0
   -1.7746    0.1617   -0.0525 N   0  0  0  0  0  0  0  0  0  0  0  0
   -3.0144    0.8932   -0.1812 C   0  0  0  0  0  0  0  0  0  0  0  0
   -3.7195   -0.3139    0.4184 C   0  0  0  0  0  0  0  0  0  0  0  0
   -2.3754   -1.0334    0.4751 C   0  0  0  0  0  0  0  0  0  0  0  0
    0.8611   -0.5751   -0.5010 C   0  0  0  0  0  0  0  0  0  0  0  0
    3.7244   -1.7593    0.3177 H   0  0  0  0  0  0  0  0  0  0  0  0
    2.3483   -2.9438    0.4320 H   0  0  0  0  0  0  0  0  0  0  0  0
    2.6826   -2.0162   -1.1130 H   0  0  0  0  0  0  0  0  0  0  0  0
    3.1250    0.2967    1.6322 H   0  0  0  0  0  0  0  0  0  0  0  0
    3.2911    0.4090   -0.1911 H   0  0  0  0  0  0  0  0  0  0  0  0
    1.2924    1.7486    1.6678 H   0  0  0  0  0  0  0  0  0  0  0  0
    1.9206    2.3224   -1.0199 H   0  0  0  0  0  0  0  0  0  0  0  0
    0.2476    1.3977   -1.0199 H   0  0  0  0  0  0  0  0  0  0  0  0
   -1.0183    1.6743    1.1014 H   0  0  0  0  0  0  0  0  0  0  0  0
   -3.0888    1.8158    0.4064 H   0  0  0  0  0  0  0  0  0  0  0  0
   -3.2536    1.0262   -1.2660 H   0  0  0  0  0  0  0  0  0  0  0  0
   -4.1709   -0.1415    1.4059 H   0  0  0  0  0  0  0  0  0  0  0  0
   -4.3820   -0.8083   -0.3178 H   0  0  0  0  0  0  0  0  0  0  0  0
   -2.1293   -1.2905    1.5145 H   0  0  0  0  0  0  0  0  0  0  0  0
   -2.3028   -1.8912   -0.2478 H   0  0  0  0  0  0  0  0  0  0  0  0
    1.3097   -0.5955   -1.5325 H   0  0  0  0  0  0  0  0  0  0  0  0
    0.0139   -1.2938   -0.4399 H   0  0  0  0  0  0  0  0  0  0  0  0
  1  2  1  0
  2  3  1  0
  3  4  1  0
  4  5  1  0
  4  6  1  0
  6  7  1  0
  7  8  1  0
  8  9  1  0
  9 10  1  0
 10 11  1  0
  6 12  1  0
 12  2  1  0
 11  8  1  0
  1 13  1  0
  1 14  1  0
  1 15  1  0
  3 16  1  0
  3 17  1  0
  4 18  1  1
  5 19  1  0
  6 20  1  6
  7 21  1  0
  9 22  1  0
  9 23  1  0
 10 24  1  0
 10 25  1  0
 11 26  1  0
 11 27  1  0
 12 28  1  0
 12 29  1  0
M  END
$$$$

     RDKit          3D

 29 30  0  0  0  0  0  0  0  0999 V2000
   -3.8298   -0.4038    0.0728 C   0  0  0  0  0  0  0  0  0  0  0  0
   -2.5358   -0.5401   -0.5230 N   0  0  0  0  0  0  0  0  0  0  0  0
   -2.0772    0.6487   -1.1627 C   0  0  0  0  0  0  0  0  0  0  0  0
   -0.6736    0.9151   -0.7323 C   0  0  1  0  0  0  0  0  0  0  0  0
   -0.5734    2.2306   -0.2401 O   0  0  0  0  0  0  0  0  0  0  0  0
   -0.3775   -0.0824    0.3611 C   0  0  2  0  0  0  0  0  0  0  0  0
    0.8299   -0.8339   -0.0106 N   0  0  0  0  0  0  0  0  0  0  0  0
    1.8985    0.0252   -0.1566 N   0  0  0  0  0  0  0  0  0  0  0  0
    3.0121   -0.6383   -0.8456 C   0  0  0  0  0  0  0  0  0  0  0  0
    3.9395    0.2417   -0.0218 C   0  0  0  0  0  0  0  0  0  0  0  0
    2.7671    0.2002    0.9670 C   0  0  0  0  0  0  0  0  0  0  0  0
   -1.5213   -1.0446    0.3329 C   0  0  0  0  0  0  0  0  0  0  0  0
   -4.3817    0.4448   -0.3835 H   0  0  0  0  0  0  0  0  0  0  0  0
   -4.3999   -1.3450   -0.1164 H   0  0  0  0  0  0  0  0  0  0  0  0
   -3.7912   -0.2173    1.1587 H   0  0  0  0  0  0  0  0  0  0  0  0
   -2.1389    0.5311   -2.2629 H   0  0  0  0  0  0  0  0  0  0  0  0
   -2.7492    1.4999   -0.9082 H   0  0  0  0  0  0  0  0  0  0  0  0
    0.0377    0.8027   -1.5637 H   0  0  0  0  0  0  0  0  0  0  0  0
   -1.1790    2.3273    0.5489 H   0  0  0  0  0  0  0  0  0  0  0  0
   -0.2706    0.4071    1.3346 H   0  0  0  0  0  0  0  0  0  0  0  0
    0.6173   -1.2499   -0.9461 H   0  0  0  0  0  0  0  0  0  0  0  0
    3.1058   -1.7179   -0.6099 H   0  0  0  0  0  0  0  0  0  0  0  0
    2.9630   -0.4179   -1.9109 H   0  0  0  0  0  0  0  0  0  0  0  0
    4.8507   -0.2418    0.3296 H   0  0  0  0  0  0  0  0  0  0  0  0
    4.0424    1.2383   -0.5002 H   0  0  0  0  0  0  0  0  0  0  0  0
    2.8965   -0.6400    1.6486 H   0  0  0  0  0  0  0  0  0  0  0  0
    2.6604    1.1737    1.5095 H   0  0  0  0  0  0  0  0  0  0  0  0
   -1.8997   -1.2548    1.3666 H   0  0  0  0  0  0  0  0  0  0  0  0
   -1.2224   -2.0587   -0.0600 H   0  0  0  0  0  0  0  0  0  0  0  0
  1  2  1  0
  2  3  1  0
  3  4  1  0
  4  5  1  0
  4  6  1  0
  6  7  1  0
  7  8  1  0
  8  9  1  0
  9 10  1  0
 10 11  1  0
  6 12  1  0
 12  2  1  0
 11  8  1  0
  1 13  1  0
  1 14  1  0
  1 15  1  0
  3 16  1  0
  3 17  1  0
  4 18  1  6
  5 19  1  0
  6 20  1  1
  7 21  1  0
  9 22  1  0
  9 23  1  0
 10 24  1  0
 10 25  1  0
 11 26  1  0
 11 27  1  0
 12 28  1  0
 12 29  1  0
M  END
$$$$

     RDKit          3D

 29 30  0  0  0  0  0  0  0  0999 V2000
   -3.0498    1.5186    0.0742 C   0  0  0  0  0  0  0  0  0  0  0  0
   -2.5984    0.1526   -0.1668 N   0  0  0  0  0  0  0  0  0  0  0  0
   -1.9630   -0.3348    1.0232 C   0  0  0  0  0  0  0  0  0  0  0  0
   -0.8172   -1.2004    0.5588 C   0  0  1  0  0  0  0  0  0  0  0  0
   -1.3117   -2.4793    0.3408 O   0  0  0  0  0  0  0  0  0  0  0  0
   -0.3838   -0.5178   -0.7032 C   0  0  2  0  0  0  0  0  0  0  0  0
    0.6677    0.4325   -0.3579 N   0  0  0  0  0  0  0  0  0  0  0  0
    1.7009   -0.3136    0.2071 N   0  0  0  0  0  0  0  0  0  0  0  0
    2.7752   -0.5986   -0.7225 C   0  0  0  0  0  0  0  0  0  0  0  0
    3.6238    0.4100    0.0058 C   0  0  0  0  0  0  0  0  0  0  0  0
    2.5740    0.3592    1.1045 C   0  0  0  0  0  0  0  0  0  0  0  0
   -1.6162    0.1363   -1.2262 C   0  0  0  0  0  0  0  0  0  0  0  0
   -2.8803    1.8424    1.1021 H   0  0  0  0  0  0  0  0  0  0  0  0
   -2.5390    2.2198   -0.6310 H   0  0  0  0  0  0  0  0  0  0  0  0
   -4.1382    1.5662   -0.1395 H   0  0  0  0  0  0  0  0  0  0  0  0
   -1.6232    0.4976    1.6794 H   0  0  0  0  0  0  0  0  0  0  0  0
   -2.6895   -0.9795    1.5722 H   0  0  0  0  0  0  0  0  0  0  0  0
   -0.0580   -1.1953    1.3463 H   0  0  0  0  0  0  0  0  0  0  0  0
   -1.6900   -2.5292   -0.5709 H   0  0  0  0  0  0  0  0  0  0  0  0
    0.0429   -1.2436   -1.4243 H   0  0  0  0  0  0  0  0  0  0  0  0
    0.2477    1.1089    0.3202 H   0  0  0  0  0  0  0  0  0  0  0  0
    3.1120   -1.6441   -0.5878 H   0  0  0  0  0  0  0  0  0  0  0  0
    2.5544   -0.3445   -1.7802 H   0  0  0  0  0  0  0  0  0  0  0  0
    3.6837    1.4061   -0.4654 H   0  0  0  0  0  0  0  0  0  0  0  0
    4.5911    0.0216    0.3347 H   0  0  0  0  0  0  0  0  0  0  0  0
    2.3103    1.3520    1.4594 H   0  0  0  0  0  0  0  0  0  0  0  0
    2.8974   -0.3256    1.9233 H   0  0  0  0  0  0  0  0  0  0  0  0
   -2.0644   -0.4618   -2.0700 H   0  0  0  0  0  0  0  0  0  0  0  0
   -1.3584    1.1444   -1.5938 H   0  0  0  0  0  0  0  0  0  0  0  0
  1  2  1  0
  2  3  1  0
  3  4  1  0
  4  5  1  0
  4  6  1  0
  6  7  1  0
  7  8  1  0
  8  9  1  0
  9 10  1  0
 10 11  1  0
  6 12  1  0
 12  2  1  0
 11  8  1  0
  1 13  1  0
  1 14  1  0
  1 15  1  0
  3 16  1  0
  3 17  1  0
  4 18  1  1
  5 19  1  0
  6 20  1  6
  7 21  1  0
  9 22  1  0
  9 23  1  0
 10 24  1  0
 10 25  1  0
 11 26  1  0
 11 27  1  0
 12 28  1  0
 12 29  1  0
M  END
$$$$
