
     RDKit          3D

 28 29  0  0  0  0  0  0  0  0999 V2000
   -3.4106    1.0801   -0.3241 C   0  0  0  0  0  0  0  0  0  0  0  0
   -2.2041    0.4157   -0.6933 N   0  0  0  0  0  0  0  0  0  0  0  0
   -2.1701   -0.9842   -0.2834 C   0  0  0  0  0  0  0  0  0  0  0  0
   -0.7446   -1.3450   -0.6489 C   0  0  2  0  0  0  0  0  0  0  0  0
   -0.2579   -2.4061    0.0817 O   0  0  0  0  0  0  0  0  0  0  0  0
    0.0194   -0.0612   -0.4286 C   0  0  2  0  0  0  0  0  0  0  0  0
    1.0165   -0.1933    0.5935 N   0  0  0  0  0  0  0  0  0  0  0  0
    0.8783   -0.7803    1.7506 N   0  0  0  0  0  0  0  0  0  0  0  0
    1.9828   -0.7296    2.4601 N   0  0  0  0  0  0  0  0  0  0  0  0
    2.8993   -0.0734    1.7311 C   0  0  0  0  0  0  0  0  0  0  0  0
    2.2674    0.2663    0.5340 C   0  0  0  0  0  0  0  0  0  0  0  0
    2.9526    1.0125   -0.5596 C   0  0  0  0  0  0  0  0  0  0  0  0
    3.5632    0.0874   -1.4356 O   0  0  0  0  0  0  0  0  0  0  0  0
   -1.0477    0.9151    0.0317 C   0  0  0  0  0  0  0  0  0  0  0  0
   -4.1705    0.9319   -1.1116 H   0  0  0  0  0  0  0  0  0  0  0  0
   -3.7720    0.8367    0.6941 H   0  0  0  0  0  0  0  0  0  0  0  0
   -3.1985    2.1814   -0.3085 H   0  0  0  0  0  0  0  0  0  0  0  0
   -2.9204   -1.5990   -0.7741 H   0  0  0  0  0  0  0  0  0  0  0  0
   -2.2168   -1.0508    0.8414 H   0  0  0  0  0  0  0  0  0  0  0  0
   -0.7481   -1.5687   -1.7399 H   0  0  0  0  0  0  0  0  0  0  0  0
   -0.9007   -2.7726    0.7369 H   0  0  0  0  0  0  0  0  0  0  0  0
    0.4250    0.3463   -1.3754 H   0  0  0  0  0  0  0  0  0  0  0  0
    3.9253    0.1425    2.0279 H   0  0  0  0  0  0  0  0  0  0  0  0
    3.6993    1.7085   -0.1281 H   0  0  0  0  0  0  0  0  0  0  0  0
    2.2006    1.5850   -1.1585 H   0  0  0  0  0  0  0  0  0  0  0  0
    3.9678   -0.6454   -0.9026 H   0  0  0  0  0  0  0  0  0  0  0  0
   -0.8059    1.9566   -0.2135 H   0  0  0  0  0  0  0  0  0  0  0  0
   -1.2297    0.7435    1.1127 H   0  0  0  0  0  0  0  0  0  0  0  0
  1  2  1  0
  2  3  1  0
  3  4  1  0
  4  5  1  0
  4  6  1  0
  6  7  1  0
  7  8  1  0
  8  9  2  0
  9 10  1  0
 10 11  2  0
 11 12  1  0
 12 13  1  0
  6 14  1  0
 14  2  1  0
 11  7  1  0
  1 15  1  0
  1 16  1  0
  1 17  1  0
  3 18  1  0
  3 19  1  0
  4 20  1  6
  5 21  1  0
  6 22  1  6
 10 23  1  0
 12 24  1  0
 12 25  1  0
 13 26  1  0
 14 27  1  0
 14 28  1  0
M  END
$$$$

     RDKit          3D

 28 29  0  0  0  0  0  0  0  0999 V2000
   -2.9217    0.9995    0.1736 C   0  0  0  0  0  0  0  0  0  0  0  0
   -2.3383   -0.1155   -0.4957 N   0  0  0  0  0  0  0  0  0  0  0  0
   -1.9362   -1.1961    0.3399 C   0  0  0  0  0  0  0  0  0  0  0  0
   -0.4474   -1.3040    0.2453 C   0  0  2  0  0  0  0  0  0  0  0  0
    0.1396   -0.9946    1.4840 O   0  0  0  0  0  0  0  0  0  0  0  0
   -0.0080   -0.3698   -0.8341 C   0  0  2  0  0  0  0  0  0  0  0  0
    0.8273    0.7134   -0.3610 N   0  0  0  0  0  0  0  0  0  0  0  0
    0.4346    1.9798   -0.1565 N   0  0  0  0  0  0  0  0  0  0  0  0
    1.4488    2.7072    0.2766 N   0  0  0  0  0  0  0  0  0  0  0  0
    2.5160    1.9201    0.3591 C   0  0  0  0  0  0  0  0  0  0  0  0
    2.1209    0.6401   -0.0492 C   0  0  0  0  0  0  0  0  0  0  0  0
    2.9996   -0.5313   -0.1071 C   0  0  0  0  0  0  0  0  0  0  0  0
    2.3855   -1.6760   -0.5399 O   0  0  0  0  0  0  0  0  0  0  0  0
   -1.3037    0.1876   -1.4239 C   0  0  0  0  0  0  0  0  0  0  0  0
   -3.9118    1.2364   -0.3152 H   0  0  0  0  0  0  0  0  0  0  0  0
   -3.2019    0.7617    1.2392 H   0  0  0  0  0  0  0  0  0  0  0  0
   -2.3470    1.9268    0.1496 H   0  0  0  0  0  0  0  0  0  0  0  0
   -2.4418   -2.1252   -0.0549 H   0  0  0  0  0  0  0  0  0  0  0  0
   -2.2879   -1.0774    1.3861 H   0  0  0  0  0  0  0  0  0  0  0  0
   -0.2036   -2.3703    0.0526 H   0  0  0  0  0  0  0  0  0  0  0  0
   -0.3810   -0.2574    1.9220 H   0  0  0  0  0  0  0  0  0  0  0  0
    0.4638   -0.9632   -1.6456 H   0  0  0  0  0  0  0  0  0  0  0  0
    3.4866    2.2106    0.6761 H   0  0  0  0  0  0  0  0  0  0  0  0
    3.9037   -0.2774   -0.7242 H   0  0  0  0  0  0  0  0  0  0  0  0
    3.4125   -0.7443    0.9225 H   0  0  0  0  0  0  0  0  0  0  0  0
    2.3100   -2.3815    0.1702 H   0  0  0  0  0  0  0  0  0  0  0  0
   -1.5107   -0.1986   -2.4213 H   0  0  0  0  0  0  0  0  0  0  0  0
   -1.2078    1.2992   -1.4815 H   0  0  0  0  0  0  0  0  0  0  0  0
  1  2  1  0
  2  3  1  0
  3  4  1  0
  4  5  1  0
  4  6  1  0
  6  7  1  0
  7  8  1  0
  8  9  2  0
  9 10  1  0
 10 11  2  0
 11 12  1  0
 12 13  1  0
  6 14  1  0
 14  2  1  0
 11  7  1  0
  1 15  1  0
  1 16  1  0
  1 17  1  0
  3 18  1  0
  3 19  1  0
  4 20  1  6
  5 21  1  0
  6 22  1  6
 10 23  1  0
 12 24  1  0
 12 25  1  0
 13 26  1  0
 14 27  1  0
 14 28  1  0
M  END
$$$$

     RDKit          3D

 28 29  0  0  0  0  0  0  0  0999 V2000
   -3.1267    0.9184    0.8737 C   0  0  0  0  0  0  0  0  0  0  0  0
   -2.1134    0.9079   -0.1308 N   0  0  0  0  0  0  0  0  0  0  0  0
   -2.2807   -0.0837   -1.1489 C   0  0  0  0  0  0  0  0  0  0  0  0
   -1.2068   -1.1133   -0.8563 C   0  0  2  0  0  0  0  0  0  0  0  0
   -1.6181   -1.8515    0.2608 O   0  0  0  0  0  0  0  0  0  0  0  0
   -0.0626   -0.1876   -0.5118 C   0  0  2  0  0  0  0  0  0  0  0  0
    1.0235   -0.8456    0.1472 N   0  0  0  0  0  0  0  0  0  0  0  0
    1.0679   -1.9958    0.7985 N   0  0  0  0  0  0  0  0  0  0  0  0
    2.2871   -2.2284    1.2569 N   0  0  0  0  0  0  0  0  0  0  0  0
    3.0757   -1.2105    0.9039 C   0  0  0  0  0  0  0  0  0  0  0  0
    2.2656   -0.3264    0.1939 C   0  0  0  0  0  0  0  0  0  0  0  0
    2.7151    0.9692   -0.4050 C   0  0  0  0  0  0  0  0  0  0  0  0
    4.0550    1.1572   -0.1476 O   0  0  0  0  0  0  0  0  0  0  0  0
   -0.7709    0.8233    0.3736 C   0  0  0  0  0  0  0  0  0  0  0  0
   -2.7356    0.9318    1.9100 H   0  0  0  0  0  0  0  0  0  0  0  0
   -3.7361    1.8360    0.7353 H   0  0  0  0  0  0  0  0  0  0  0  0
   -3.8082    0.0554    0.7655 H   0  0  0  0  0  0  0  0  0  0  0  0
   -3.2904   -0.5283   -1.1878 H   0  0  0  0  0  0  0  0  0  0  0  0
   -1.9851    0.3910   -2.1238 H   0  0  0  0  0  0  0  0  0  0  0  0
   -0.9971   -1.7634   -1.7105 H   0  0  0  0  0  0  0  0  0  0  0  0
   -1.2373   -1.4819    1.0950 H   0  0  0  0  0  0  0  0  0  0  0  0
    0.2179    0.3426   -1.4350 H   0  0  0  0  0  0  0  0  0  0  0  0
    4.1273   -1.0480    1.0975 H   0  0  0  0  0  0  0  0  0  0  0  0
    2.0882    1.8191   -0.0080 H   0  0  0  0  0  0  0  0  0  0  0  0
    2.5031    0.9084   -1.4997 H   0  0  0  0  0  0  0  0  0  0  0  0
    4.5499    1.2629   -0.9959 H   0  0  0  0  0  0  0  0  0  0  0  0
   -0.7177    0.5110    1.4304 H   0  0  0  0  0  0  0  0  0  0  0  0
   -0.2896    1.8303    0.3188 H   0  0  0  0  0  0  0  0  0  0  0  0
  1  2  1  0
  2  3  1  0
  3  4  1  0
  4  5  1  0
  4  6  1  0
  6  7  1  0
  7  8  1  0
  8  9  2  0
  9 10  1  0
 10 11  2  0
 11 12  1  0
 12 13  1  0
  6 14  1  0
 14  2  1  0
 11  7  1  0
  1 15  1  0
  1 16  1  0
  1 17  1  0
  3 18  1  0
  3 19  1  0
  4 20  1  6
  5 21  1  0
  6 22  1  6
 10 23  1  0
 12 24  1  0
 12 25  1  0
 13 26  1  0
 14 27  1  0
 14 28  1  0
M  END
$$$$

     RDKit          3D

 28 29  0  0  0  0  0  0  0  0999 V2000
   -2.6967   -0.1571    1.4615 C   0  0  0  0  0  0  0  0  0  0  0  0
   -1.9938   -0.9611    0.5157 N   0  0  0  0  0  0  0  0  0  0  0  0
   -2.3770   -0.5737   -0.8327 C   0  0  0  0  0  0  0  0  0  0  0  0
   -1.2768    0.2712   -1.3933 C   0  0  2  0  0  0  0  0  0  0  0  0
   -0.5263   -0.4537   -2.3478 O   0  0  0  0  0  0  0  0  0  0  0  0
   -0.4194    0.5464   -0.1752 C   0  0  2  0  0  0  0  0  0  0  0  0
    0.8973    0.8703   -0.6172 N   0  0  0  0  0  0  0  0  0  0  0  0
    1.1098    1.5778   -1.7151 N   0  0  0  0  0  0  0  0  0  0  0  0
    2.4006    1.7400   -1.9027 N   0  0  0  0  0  0  0  0  0  0  0  0
    3.0706    1.1426   -0.9319 C   0  0  0  0  0  0  0  0  0  0  0  0
    2.1107    0.5798   -0.0992 C   0  0  0  0  0  0  0  0  0  0  0  0
    2.3410   -0.1909    1.1213 C   0  0  0  0  0  0  0  0  0  0  0  0
    3.7344   -0.2637    1.3557 O   0  0  0  0  0  0  0  0  0  0  0  0
   -0.5371   -0.7492    0.5707 C   0  0  0  0  0  0  0  0  0  0  0  0
   -3.6526    0.2636    1.0489 H   0  0  0  0  0  0  0  0  0  0  0  0
   -2.1333    0.6833    1.8690 H   0  0  0  0  0  0  0  0  0  0  0  0
   -3.0144   -0.7846    2.3304 H   0  0  0  0  0  0  0  0  0  0  0  0
   -2.5662   -1.4978   -1.4305 H   0  0  0  0  0  0  0  0  0  0  0  0
   -3.3106    0.0436   -0.8212 H   0  0  0  0  0  0  0  0  0  0  0  0
   -1.6000    1.1950   -1.8689 H   0  0  0  0  0  0  0  0  0  0  0  0
   -0.4491   -1.3977   -2.0614 H   0  0  0  0  0  0  0  0  0  0  0  0
   -0.8505    1.3716    0.4181 H   0  0  0  0  0  0  0  0  0  0  0  0
    4.1403    1.1051   -0.8178 H   0  0  0  0  0  0  0  0  0  0  0  0
    1.9194    0.3196    2.0126 H   0  0  0  0  0  0  0  0  0  0  0  0
    2.0175   -1.2522    1.0424 H   0  0  0  0  0  0  0  0  0  0  0  0
    4.0173   -1.1374    1.6668 H   0  0  0  0  0  0  0  0  0  0  0  0
   -0.2482   -0.7096    1.6168 H   0  0  0  0  0  0  0  0  0  0  0  0
   -0.1069   -1.5815   -0.0149 H   0  0  0  0  0  0  0  0  0  0  0  0
  1  2  1  0
  2  3  1  0
  3  4  1  0
  4  5  1  0
  4  6  1  0
  6  7  1  0
  7  8  1  0
  8  9  2  0
  9 10  1  0
 10 11  2  0
 11 12  1  0
 12 13  1  0
  6 14  1  0
 14  2  1  0
 11  7  1  0
  1 15  1  0
  1 16  1  0
  1 17  1  0
  3 18  1  0
  3 19  1  0
  4 20  1  6
  5 21  1  0
  6 22  1  1
 10 23  1  0
 12 24  1  0
 12 25  1  0
 13 26  1  0
 14 27  1  0
 14 28  1  0
M  END
$$$$

     RDKit          3D

 28 29  0  0  0  0  0  0  0  0999 V2000
    3.2500    0.7947    0.7359 C   0  0  0  0  0  0  0  0  0  0  0  0
    2.4206   -0.3590    0.4844 N   0  0  0  0  0  0  0  0  0  0  0  0
    2.0600   -0.3898   -0.9209 C   0  0  0  0  0  0  0  0  0  0  0  0
    0.5591    0.0038   -0.9339 C   0  0  2  0  0  0  0  0  0  0  0  0
    0.5932    1.3767   -0.8388 O   0  0  0  0  0  0  0  0  0  0  0  0
    0.0975   -0.7179    0.2583 C   0  0  2  0  0  0  0  0  0  0  0  0
   -1.1399   -0.4397    0.8332 N   0  0  0  0  0  0  0  0  0  0  0  0
   -1.3154   -0.4637    2.1617 N   0  0  0  0  0  0  0  0  0  0  0  0
   -2.5478   -0.1785    2.4694 N   0  0  0  0  0  0  0  0  0  0  0  0
   -3.2111    0.0394    1.3536 C   0  0  0  0  0  0  0  0  0  0  0  0
   -2.3339   -0.1218    0.3033 C   0  0  0  0  0  0  0  0  0  0  0  0
   -2.6108    0.0150   -1.1068 C   0  0  0  0  0  0  0  0  0  0  0  0
   -2.9347   -1.1670   -1.7643 O   0  0  0  0  0  0  0  0  0  0  0  0
    1.2014   -0.3521    1.2386 C   0  0  0  0  0  0  0  0  0  0  0  0
    4.3218    0.5045    0.8957 H   0  0  0  0  0  0  0  0  0  0  0  0
    3.2160    1.4987   -0.1337 H   0  0  0  0  0  0  0  0  0  0  0  0
    2.9324    1.3621    1.6230 H   0  0  0  0  0  0  0  0  0  0  0  0
    2.1569   -1.4444   -1.2541 H   0  0  0  0  0  0  0  0  0  0  0  0
    2.6467    0.3165   -1.5260 H   0  0  0  0  0  0  0  0  0  0  0  0
    0.2393   -0.3940   -1.9182 H   0  0  0  0  0  0  0  0  0  0  0  0
    1.1630    1.7732   -1.5306 H   0  0  0  0  0  0  0  0  0  0  0  0
    0.2723   -1.8206    0.0543 H   0  0  0  0  0  0  0  0  0  0  0  0
   -4.2745    0.3045    1.2413 H   0  0  0  0  0  0  0  0  0  0  0  0
   -1.8998    0.6433   -1.6935 H   0  0  0  0  0  0  0  0  0  0  0  0
   -3.5770    0.6084   -1.2100 H   0  0  0  0  0  0  0  0  0  0  0  0
   -3.5327   -1.0496   -2.5270 H   0  0  0  0  0  0  0  0  0  0  0  0
    1.2180   -1.0303    2.1119 H   0  0  0  0  0  0  0  0  0  0  0  0
    1.0297    0.6876    1.5931 H   0  0  0  0  0  0  0  0  0  0  0  0
  1  2  1  0
  2  3  1  0
  3  4  1  0
  4  5  1  0
  4  6  1  0
  6  7  1  0
  7  8  1  0
  8  9  2  0
  9 10  1  0
 10 11  2  0
 11 12  1  0
 12 13  1  0
  6 14  1  0
 14  2  1  0
 11  7  1  0
  1 15  1  0
  1 16  1  0
  1 17  1  0
  3 18  1  0
  3 19  1  0
  4 20  1  6
  5 21  1  0
  6 22  1  6
 10 23  1  0
 12 24  1  0
 12 25  1  0
 13 26  1  0
 14 27  1  0
 14 28  1  0
M  END
$$$$

     RDKit          3D

 28 29  0  0  0  0  0  0  0  0999 V2000
   -3.2250    0.8419    0.4506 C   0  0  0  0  0  0  0  0  0  0  0  0
   -1.9215    0.5929    1.0605 N   0  0  0  0  0  0  0  0  0  0  0  0
   -1.7532   -0.8577    1.2013 C   0  0  0  0  0  0  0  0  0  0  0  0
   -1.3119   -1.2123   -0.2260 C   0  0  2  0  0  0  0  0  0  0  0  0
   -0.7765   -2.4928   -0.1794 O   0  0  0  0  0  0  0  0  0  0  0  0
   -0.2515   -0.1516   -0.4562 C   0  0  2  0  0  0  0  0  0  0  0  0
    0.9945   -0.5824    0.1228 N   0  0  0  0  0  0  0  0  0  0  0  0
    1.2155   -1.6205    0.9111 N   0  0  0  0  0  0  0  0  0  0  0  0
    2.4761   -1.7116    1.2510 N   0  0  0  0  0  0  0  0  0  0  0  0
    3.1645   -0.7017    0.6811 C   0  0  0  0  0  0  0  0  0  0  0  0
    2.2034    0.0084   -0.0348 C   0  0  0  0  0  0  0  0  0  0  0  0
    2.4302    1.2154   -0.8459 C   0  0  0  0  0  0  0  0  0  0  0  0
    3.7805    1.5561   -0.7940 O   0  0  0  0  0  0  0  0  0  0  0  0
   -0.8506    1.0375    0.2155 C   0  0  0  0  0  0  0  0  0  0  0  0
   -3.2259    0.6170   -0.6361 H   0  0  0  0  0  0  0  0  0  0  0  0
   -3.4606    1.9178    0.5865 H   0  0  0  0  0  0  0  0  0  0  0  0
   -3.9779    0.1949    0.9442 H   0  0  0  0  0  0  0  0  0  0  0  0
   -2.6718   -1.3650    1.4899 H   0  0  0  0  0  0  0  0  0  0  0  0
   -0.9442   -1.0216    1.9176 H   0  0  0  0  0  0  0  0  0  0  0  0
   -2.1709   -1.1106   -0.8939 H   0  0  0  0  0  0  0  0  0  0  0  0
   -0.4733   -2.7343   -1.0738 H   0  0  0  0  0  0  0  0  0  0  0  0
   -0.1831   -0.0207   -1.5677 H   0  0  0  0  0  0  0  0  0  0  0  0
    4.2133   -0.4613    0.7386 H   0  0  0  0  0  0  0  0  0  0  0  0
    1.8801    2.1049   -0.4253 H   0  0  0  0  0  0  0  0  0  0  0  0
    2.1668    1.0585   -1.9221 H   0  0  0  0  0  0  0  0  0  0  0  0
    4.1099    1.5775    0.1414 H   0  0  0  0  0  0  0  0  0  0  0  0
   -1.3020    1.6862   -0.5904 H   0  0  0  0  0  0  0  0  0  0  0  0
   -0.1351    1.6353    0.7990 H   0  0  0  0  0  0  0  0  0  0  0  0
  1  2  1  0
  2  3  1  0
  3  4  1  0
  4  5  1  0
  4  6  1  0
  6  7  1  0
  7  8  1  0
  8  9  2  0
  9 10  1  0
 10 11  2  0
 11 12  1  0
 12 13  1  0
  6 14  1  0
 14  2  1  0
 11  7  1  0
  1 15  1  0
  1 16  1  0
  1 17  1  0
  3 18  1  0
  3 19  1  0
  4 20  1  6
  5 21  1  0
  6 22  1  6
 10 23  1  0
 12 24  1  0
 12 25  1  0
 13 26  1  0
 14 27  1  0
 14 28  1  0
M  END
$$$$

     RDKit          3D

 28 29  0  0  0  0  0  0  0  0999 V2000
    2.8063    1.4997    0.7279 C   0  0  0  0  0  0  0  0  0  0  0  0
    1.6383    0.9904    0.0059 N   0  0  0  0  0  0  0  0  0  0  0  0
    2.1118    0.0034   -0.9333 C   0  0  0  0  0  0  0  0  0  0  0  0
    1.2253   -1.2071   -0.7948 C   0  0  2  0  0  0  0  0  0  0  0  0
    0.7259   -1.5513   -2.0319 O   0  0  0  0  0  0  0  0  0  0  0  0
    0.1555   -0.8475    0.2104 C   0  0  2  0  0  0  0  0  0  0  0  0
   -1.1032   -0.7675   -0.3872 N   0  0  0  0  0  0  0  0  0  0  0  0
   -1.3677   -1.3273   -1.5618 N   0  0  0  0  0  0  0  0  0  0  0  0
   -2.5832   -1.1480   -1.9452 N   0  0  0  0  0  0  0  0  0  0  0  0
   -3.2026   -0.4424   -1.0210 C   0  0  0  0  0  0  0  0  0  0  0  0
   -2.2703   -0.1985   -0.0318 C   0  0  0  0  0  0  0  0  0  0  0  0
   -2.4909    0.5475    1.1985 C   0  0  0  0  0  0  0  0  0  0  0  0
   -2.3765    1.9288    1.0669 O   0  0  0  0  0  0  0  0  0  0  0  0
    0.7452    0.2662    0.9277 C   0  0  0  0  0  0  0  0  0  0  0  0
    3.3122    0.5884    1.1502 H   0  0  0  0  0  0  0  0  0  0  0  0
    2.5313    2.1239    1.5798 H   0  0  0  0  0  0  0  0  0  0  0  0
    3.4638    1.9645   -0.0041 H   0  0  0  0  0  0  0  0  0  0  0  0
    2.0239    0.4535   -1.9577 H   0  0  0  0  0  0  0  0  0  0  0  0
    3.1806   -0.2477   -0.8135 H   0  0  0  0  0  0  0  0  0  0  0  0
    1.8673   -2.0417   -0.4572 H   0  0  0  0  0  0  0  0  0  0  0  0
    0.8992   -2.4960   -2.2783 H   0  0  0  0  0  0  0  0  0  0  0  0
    0.1156   -1.7383    0.9182 H   0  0  0  0  0  0  0  0  0  0  0  0
   -4.2440   -0.1189   -1.0398 H   0  0  0  0  0  0  0  0  0  0  0  0
   -3.5877    0.4181    1.4684 H   0  0  0  0  0  0  0  0  0  0  0  0
   -1.9883    0.1434    2.0969 H   0  0  0  0  0  0  0  0  0  0  0  0
   -3.2100    2.3474    0.7374 H   0  0  0  0  0  0  0  0  0  0  0  0
    0.1552    0.9885    1.4594 H   0  0  0  0  0  0  0  0  0  0  0  0
    1.4673   -0.1316    1.7099 H   0  0  0  0  0  0  0  0  0  0  0  0
  1  2  1  0
  2  3  1  0
  3  4  1  0
  4  5  1  0
  4  6  1  0
  6  7  1  0
  7  8  1  0
  8  9  2  0
  9 10  1  0
 10 11  2  0
 11 12  1  0
 12 13  1  0
  6 14  1  0
 14  2  1  0
 11  7  1  0
  1 15  1  0
  1 16  1  0
  1 17  1  0
  3 18  1  0
  3 19  1  0
  4 20  1  1
  5 21  1  0
  6 22  1  1
 10 23  1  0
 12 24  1  0
 12 25  1  0
 13 26  1  0
 14 27  1  0
 14 28  1  0
M  END
$$$$

     RDKit          3D

 28 29  0  0  0  0  0  0  0  0999 V2000
    3.3858    0.7410    0.5716 C   0  0  0  0  0  0  0  0  0  0  0  0
    2.4968    0.1223   -0.4010 N   0  0  0  0  0  0  0  0  0  0  0  0
    2.0239   -1.1560    0.0191 C   0  0  0  0  0  0  0  0  0  0  0  0
    0.4904   -1.0750   -0.1172 C   0  0  2  0  0  0  0  0  0  0  0  0
    0.2426   -1.2745   -1.4740 O   0  0  0  0  0  0  0  0  0  0  0  0
    0.3068    0.3259    0.3307 C   0  0  2  0  0  0  0  0  0  0  0  0
   -0.9564    0.9262    0.1580 N   0  0  0  0  0  0  0  0  0  0  0  0
   -1.1359    2.2216   -0.1429 N   0  0  0  0  0  0  0  0  0  0  0  0
   -2.4093    2.4773   -0.2355 N   0  0  0  0  0  0  0  0  0  0  0  0
   -3.1347    1.3684   -0.0015 C   0  0  0  0  0  0  0  0  0  0  0  0
   -2.1652    0.3840    0.2494 C   0  0  0  0  0  0  0  0  0  0  0  0
   -2.4671   -1.0207    0.5601 C   0  0  0  0  0  0  0  0  0  0  0  0
   -3.8712   -1.1975    0.6614 O   0  0  0  0  0  0  0  0  0  0  0  0
    1.3652    0.9967   -0.5635 C   0  0  0  0  0  0  0  0  0  0  0  0
    3.8380    0.0060    1.2609 H   0  0  0  0  0  0  0  0  0  0  0  0
    2.8379    1.5210    1.1618 H   0  0  0  0  0  0  0  0  0  0  0  0
    4.1542    1.2991   -0.0217 H   0  0  0  0  0  0  0  0  0  0  0  0
    2.2864   -1.3414    1.0992 H   0  0  0  0  0  0  0  0  0  0  0  0
    2.4011   -2.0110   -0.5430 H   0  0  0  0  0  0  0  0  0  0  0  0
    0.0424   -1.8454    0.5294 H   0  0  0  0  0  0  0  0  0  0  0  0
   -0.2593   -2.1229   -1.6410 H   0  0  0  0  0  0  0  0  0  0  0  0
    0.7287    0.4073    1.3605 H   0  0  0  0  0  0  0  0  0  0  0  0
   -4.2145    1.2379   -0.0006 H   0  0  0  0  0  0  0  0  0  0  0  0
   -2.0745   -1.3583    1.5370 H   0  0  0  0  0  0  0  0  0  0  0  0
   -2.1963   -1.7090   -0.2821 H   0  0  0  0  0  0  0  0  0  0  0  0
   -4.2433   -0.8829   -0.2002 H   0  0  0  0  0  0  0  0  0  0  0  0
    1.5577    2.0291   -0.2336 H   0  0  0  0  0  0  0  0  0  0  0  0
    0.9697    0.9307   -1.5933 H   0  0  0  0  0  0  0  0  0  0  0  0
  1  2  1  0
  2  3  1  0
  3  4  1  0
  4  5  1  0
  4  6  1  0
  6  7  1  0
  7  8  1  0
  8  9  2  0
  9 10  1  0
 10 11  2  0
 11 12  1  0
 12 13  1  0
  6 14  1  0
 14  2  1  0
 11  7  1  0
  1 15  1  0
  1 16  1  0
  1 17  1  0
  3 18  1  0
  3 19  1  0
  4 20  1  1
  5 21  1  0
  6 22  1  1
 10 23  1  0
 12 24  1  0
 12 25  1  0
 13 26  1  0
 14 27  1  0
 14 28  1  0
M  END
$$$$
