
     RDKit          3D

 31 32  0  0  0  0  0  0  0  0999 V2000
   -1.1840    0.8398    1.1737 C   0  0  0  0  0  0  0  0  0  0  0  0
   -1.1732   -0.0778    0.1074 N   0  0  0  0  0  0  0  0  0  0  0  0
   -0.3562    0.1782   -1.0122 C   0  0  0  0  0  0  0  0  0  0  0  0
    1.1054    0.0894   -0.8774 C   0  0  2  0  0  0  0  0  0  0  0  0
    1.7343    0.3721   -2.1209 O   0  0  0  0  0  0  0  0  0  0  0  0
    1.6285   -1.2849   -0.4894 C   0  0  0  0  0  0  0  0  0  0  0  0
    3.0413   -1.0571   -0.2224 N   0  0  0  0  0  0  0  0  0  0  0  0
    3.2067    0.3434    0.0753 C   0  0  0  0  0  0  0  0  0  0  0  0
    1.7848    0.9458    0.1268 C   0  0  1  0  0  0  0  0  0  0  0  0
    1.9159    2.2523   -0.3020 O   0  0  0  0  0  0  0  0  0  0  0  0
   -2.3970   -0.6958   -0.2686 C   0  0  0  0  0  0  0  0  0  0  0  0
   -3.1262   -1.5842    0.6992 C   0  0  0  0  0  0  0  0  0  0  0  0
   -3.7334   -0.3070    0.1701 C   0  0  0  0  0  0  0  0  0  0  0  0
   -0.6623    0.5146    2.1084 H   0  0  0  0  0  0  0  0  0  0  0  0
   -2.2101    1.1117    1.5348 H   0  0  0  0  0  0  0  0  0  0  0  0
   -0.6841    1.8010    0.8582 H   0  0  0  0  0  0  0  0  0  0  0  0
   -0.6650   -0.4349   -1.9196 H   0  0  0  0  0  0  0  0  0  0  0  0
   -0.6217    1.2291   -1.3613 H   0  0  0  0  0  0  0  0  0  0  0  0
    1.8053    1.3617   -2.2527 H   0  0  0  0  0  0  0  0  0  0  0  0
    1.4844   -2.0117   -1.3053 H   0  0  0  0  0  0  0  0  0  0  0  0
    1.1587   -1.5904    0.4640 H   0  0  0  0  0  0  0  0  0  0  0  0
    3.4043   -1.6285    0.5618 H   0  0  0  0  0  0  0  0  0  0  0  0
    3.7364    0.5432    1.0261 H   0  0  0  0  0  0  0  0  0  0  0  0
    3.7498    0.8288   -0.7527 H   0  0  0  0  0  0  0  0  0  0  0  0
    1.4569    0.8566    1.1650 H   0  0  0  0  0  0  0  0  0  0  0  0
    2.7274    2.6922    0.0782 H   0  0  0  0  0  0  0  0  0  0  0  0
   -2.3603   -1.1188   -1.3198 H   0  0  0  0  0  0  0  0  0  0  0  0
   -3.5231   -2.5523    0.3385 H   0  0  0  0  0  0  0  0  0  0  0  0
   -2.6533   -1.5822    1.7142 H   0  0  0  0  0  0  0  0  0  0  0  0
   -4.5971   -0.4586   -0.5466 H   0  0  0  0  0  0  0  0  0  0  0  0
   -3.9933    0.4242    0.9355 H   0  0  0  0  0  0  0  0  0  0  0  0
  1  2  1  0
  2  3  1  0
  3  4  1  0
  4  5  1  6
  4  6  1  0
  6  7  1  0
  7  8  1  0
  8  9  1  0
  9 10  1  0
  2 11  1  0
 11 12  1  0
 12 13  1  0
  9  4  1  0
 13 11  1  0
  1 14  1  0
  1 15  1  0
  1 16  1  0
  3 17  1  0
  3 18  1  0
  5 19  1  0
  6 20  1  0
  6 21  1  0
  7 22  1  0
  8 23  1  0
  8 24  1  0
  9 25  1  1
 10 26  1  0
 11 27  1  0
 12 28  1  0
 12 29  1  0
 13 30  1  0
 13 31  1  0
M  END
$$$$

     RDKit          3D

 31 32  0  0  0  0  0  0  0  0999 V2000
    1.1918   -1.7934   -0.5993 C   0  0  0  0  0  0  0  0  0  0  0  0
    1.2965   -0.5245   -0.0291 N   0  0  0  0  0  0  0  0  0  0  0  0
    0.2932    0.0353    0.7514 C   0  0  0  0  0  0  0  0  0  0  0  0
   -0.9904    0.4287    0.1230 C   0  0  2  0  0  0  0  0  0  0  0  0
   -0.8080    1.3619   -0.8979 O   0  0  0  0  0  0  0  0  0  0  0  0
   -1.8140    1.1611    1.1887 C   0  0  0  0  0  0  0  0  0  0  0  0
   -3.1771    1.1053    0.7013 N   0  0  0  0  0  0  0  0  0  0  0  0
   -3.3135   -0.1522   -0.0020 C   0  0  0  0  0  0  0  0  0  0  0  0
   -1.9113   -0.6826   -0.2611 C   0  0  1  0  0  0  0  0  0  0  0  0
   -1.8520   -1.0176   -1.6030 O   0  0  0  0  0  0  0  0  0  0  0  0
    2.2284    0.3762   -0.6387 C   0  0  0  0  0  0  0  0  0  0  0  0
    3.6769   -0.1059   -0.5696 C   0  0  0  0  0  0  0  0  0  0  0  0
    3.2090    1.0203    0.2880 C   0  0  0  0  0  0  0  0  0  0  0  0
    0.2904   -2.3575   -0.3936 H   0  0  0  0  0  0  0  0  0  0  0  0
    1.3333   -1.6846   -1.7162 H   0  0  0  0  0  0  0  0  0  0  0  0
    2.1033   -2.3944   -0.2900 H   0  0  0  0  0  0  0  0  0  0  0  0
    0.0678   -0.6804    1.6011 H   0  0  0  0  0  0  0  0  0  0  0  0
    0.7380    0.9254    1.2906 H   0  0  0  0  0  0  0  0  0  0  0  0
   -0.6315    0.8840   -1.7462 H   0  0  0  0  0  0  0  0  0  0  0  0
   -1.7272    0.6066    2.1423 H   0  0  0  0  0  0  0  0  0  0  0  0
   -1.4351    2.1841    1.3242 H   0  0  0  0  0  0  0  0  0  0  0  0
   -3.3433    1.9372    0.0810 H   0  0  0  0  0  0  0  0  0  0  0  0
   -3.8945   -0.8244    0.6822 H   0  0  0  0  0  0  0  0  0  0  0  0
   -3.8717    0.0473   -0.9388 H   0  0  0  0  0  0  0  0  0  0  0  0
   -1.7868   -1.5772    0.3810 H   0  0  0  0  0  0  0  0  0  0  0  0
   -2.7297   -1.0163   -2.0329 H   0  0  0  0  0  0  0  0  0  0  0  0
    1.8837    0.9140   -1.5277 H   0  0  0  0  0  0  0  0  0  0  0  0
    4.3093    0.0766   -1.4627 H   0  0  0  0  0  0  0  0  0  0  0  0
    3.8952   -1.0932   -0.1055 H   0  0  0  0  0  0  0  0  0  0  0  0
    3.5972    2.0194    0.0295 H   0  0  0  0  0  0  0  0  0  0  0  0
    3.1720    0.8209    1.3781 H   0  0  0  0  0  0  0  0  0  0  0  0
  1  2  1  0
  2  3  1  0
  3  4  1  0
  4  5  1  6
  4  6  1  0
  6  7  1  0
  7  8  1  0
  8  9  1  0
  9 10  1  0
  2 11  1  0
 11 12  1  0
 12 13  1  0
  9  4  1  0
 13 11  1  0
  1 14  1  0
  1 15  1  0
  1 16  1  0
  3 17  1  0
  3 18  1  0
  5 19  1  0
  6 20  1  0
  6 21  1  0
  7 22  1  0
  8 23  1  0
  8 24  1  0
  9 25  1  1
 10 26  1  0
 11 27  1  0
 12 28  1  0
 12 29  1  0
 13 30  1  0
 13 31  1  0
M  END
$$$$

     RDKit          3D

 31 32  0  0  0  0  0  0  0  0999 V2000
    1.4113   -1.0933   -1.4733 C   0  0  0  0  0  0  0  0  0  0  0  0
    1.1216   -0.1536   -0.4434 N   0  0  0  0  0  0  0  0  0  0  0  0
   -0.0386    0.6531   -0.6231 C   0  0  0  0  0  0  0  0  0  0  0  0
   -1.2742   -0.2000   -0.5232 C   0  0  2  0  0  0  0  0  0  0  0  0
   -1.3480   -1.2118   -1.4573 O   0  0  0  0  0  0  0  0  0  0  0  0
   -2.5435    0.6177   -0.6665 C   0  0  0  0  0  0  0  0  0  0  0  0
   -2.7231    1.2326    0.6349 N   0  0  0  0  0  0  0  0  0  0  0  0
   -2.3231    0.2390    1.5980 C   0  0  0  0  0  0  0  0  0  0  0  0
   -1.3958   -0.7347    0.8953 C   0  0  1  0  0  0  0  0  0  0  0  0
   -1.9771   -2.0045    0.8356 O   0  0  0  0  0  0  0  0  0  0  0  0
    2.3204    0.6275   -0.1978 C   0  0  0  0  0  0  0  0  0  0  0  0
    3.5198   -0.0826    0.2877 C   0  0  0  0  0  0  0  0  0  0  0  0
    2.7689    0.8185    1.2301 C   0  0  0  0  0  0  0  0  0  0  0  0
    0.7790   -1.0623   -2.3664 H   0  0  0  0  0  0  0  0  0  0  0  0
    2.4576   -0.9744   -1.8488 H   0  0  0  0  0  0  0  0  0  0  0  0
    1.2969   -2.1266   -1.0256 H   0  0  0  0  0  0  0  0  0  0  0  0
   -0.0153    1.2845   -1.5350 H   0  0  0  0  0  0  0  0  0  0  0  0
   -0.0962    1.3572    0.2599 H   0  0  0  0  0  0  0  0  0  0  0  0
   -1.6605   -0.7807   -2.3178 H   0  0  0  0  0  0  0  0  0  0  0  0
   -2.5076    1.3388   -1.4903 H   0  0  0  0  0  0  0  0  0  0  0  0
   -3.3890   -0.0769   -0.8199 H   0  0  0  0  0  0  0  0  0  0  0  0
   -2.0872    2.0777    0.6641 H   0  0  0  0  0  0  0  0  0  0  0  0
   -3.1892   -0.2893    2.0212 H   0  0  0  0  0  0  0  0  0  0  0  0
   -1.7592    0.7418    2.4019 H   0  0  0  0  0  0  0  0  0  0  0  0
   -0.4226   -0.8356    1.4097 H   0  0  0  0  0  0  0  0  0  0  0  0
   -2.8155   -2.0425    1.3637 H   0  0  0  0  0  0  0  0  0  0  0  0
    2.4967    1.5003   -0.8628 H   0  0  0  0  0  0  0  0  0  0  0  0
    4.5425    0.2450   -0.0496 H   0  0  0  0  0  0  0  0  0  0  0  0
    3.4922   -1.1587    0.5617 H   0  0  0  0  0  0  0  0  0  0  0  0
    2.0955    0.3477    1.9925 H   0  0  0  0  0  0  0  0  0  0  0  0
    3.2633    1.7461    1.5445 H   0  0  0  0  0  0  0  0  0  0  0  0
  1  2  1  0
  2  3  1  0
  3  4  1  0
  4  5  1  6
  4  6  1  0
  6  7  1  0
  7  8  1  0
  8  9  1  0
  9 10  1  0
  2 11  1  0
 11 12  1  0
 12 13  1  0
  9  4  1  0
 13 11  1  0
  1 14  1  0
  1 15  1  0
  1 16  1  0
  3 17  1  0
  3 18  1  0
  5 19  1  0
  6 20  1  0
  6 21  1  0
  7 22  1  0
  8 23  1  0
  8 24  1  0
  9 25  1  1
 10 26  1  0
 11 27  1  0
 12 28  1  0
 12 29  1  0
 13 30  1  0
 13 31  1  0
M  END
$$$$

     RDKit          3D

 31 32  0  0  0  0  0  0  0  0999 V2000
   -1.0050   -0.3303    1.7104 C   0  0  0  0  0  0  0  0  0  0  0  0
   -1.0145   -0.0136    0.3212 N   0  0  0  0  0  0  0  0  0  0  0  0
   -0.2822   -0.8767   -0.5187 C   0  0  0  0  0  0  0  0  0  0  0  0
    1.2039   -0.7917   -0.4855 C   0  0  2  0  0  0  0  0  0  0  0  0
    1.6626   -1.6855   -1.4842 O   0  0  0  0  0  0  0  0  0  0  0  0
    1.8614   -1.1642    0.7914 C   0  0  0  0  0  0  0  0  0  0  0  0
    2.4360    0.0345    1.3640 N   0  0  0  0  0  0  0  0  0  0  0  0
    2.0321    1.1499    0.5561 C   0  0  0  0  0  0  0  0  0  0  0  0
    1.7356    0.5747   -0.8025 C   0  0  1  0  0  0  0  0  0  0  0  0
    2.9507    0.4158   -1.4684 O   0  0  0  0  0  0  0  0  0  0  0  0
   -2.3709    0.0963   -0.1390 C   0  0  0  0  0  0  0  0  0  0  0  0
   -3.2764    1.1717    0.2803 C   0  0  0  0  0  0  0  0  0  0  0  0
   -2.8276    1.0059   -1.1748 C   0  0  0  0  0  0  0  0  0  0  0  0
   -0.1931    0.0845    2.3067 H   0  0  0  0  0  0  0  0  0  0  0  0
   -1.1124   -1.4529    1.8833 H   0  0  0  0  0  0  0  0  0  0  0  0
   -1.9563    0.0606    2.1878 H   0  0  0  0  0  0  0  0  0  0  0  0
   -0.5229   -1.9697   -0.3140 H   0  0  0  0  0  0  0  0  0  0  0  0
   -0.6172   -0.7240   -1.5696 H   0  0  0  0  0  0  0  0  0  0  0  0
    1.0464   -1.5009   -2.2617 H   0  0  0  0  0  0  0  0  0  0  0  0
    2.7409   -1.8485    0.5972 H   0  0  0  0  0  0  0  0  0  0  0  0
    1.2386   -1.6906    1.5112 H   0  0  0  0  0  0  0  0  0  0  0  0
    3.4699   -0.0147    1.4877 H   0  0  0  0  0  0  0  0  0  0  0  0
    1.2037    1.7354    0.9881 H   0  0  0  0  0  0  0  0  0  0  0  0
    2.9265    1.8144    0.4494 H   0  0  0  0  0  0  0  0  0  0  0  0
    1.0368    1.1966   -1.3948 H   0  0  0  0  0  0  0  0  0  0  0  0
    3.6226    0.1193   -0.7809 H   0  0  0  0  0  0  0  0  0  0  0  0
   -2.8644   -0.9345   -0.1547 H   0  0  0  0  0  0  0  0  0  0  0  0
   -2.8830    2.0909    0.7997 H   0  0  0  0  0  0  0  0  0  0  0  0
   -4.3331    0.9603    0.5342 H   0  0  0  0  0  0  0  0  0  0  0  0
   -3.6604    0.6675   -1.8546 H   0  0  0  0  0  0  0  0  0  0  0  0
   -2.2483    1.8195   -1.6125 H   0  0  0  0  0  0  0  0  0  0  0  0
  1  2  1  0
  2  3  1  0
  3  4  1  0
  4  5  1  6
  4  6  1  0
  6  7  1  0
  7  8  1  0
  8  9  1  0
  9 10  1  0
  2 11  1  0
 11 12  1  0
 12 13  1  0
  9  4  1  0
 13 11  1  0
  1 14  1  0
  1 15  1  0
  1 16  1  0
  3 17  1  0
  3 18  1  0
  5 19  1  0
  6 20  1  0
  6 21  1  0
  7 22  1  0
  8 23  1  0
  8 24  1  0
  9 25  1  6
 10 26  1  0
 11 27  1  0
 12 28  1  0
 12 29  1  0
 13 30  1  0
 13 31  1  0
M  END
$$$$

     RDKit          3D

 31 32  0  0  0  0  0  0  0  0999 V2000
   -0.5164   -0.9355    1.7425 C   0  0  0  0  0  0  0  0  0  0  0  0
   -0.9572   -0.2757    0.5921 N   0  0  0  0  0  0  0  0  0  0  0  0
   -0.3110    0.8360    0.0997 C   0  0  0  0  0  0  0  0  0  0  0  0
    1.0485    0.6115   -0.5200 C   0  0  2  0  0  0  0  0  0  0  0  0
    1.5064    1.8626   -1.0247 O   0  0  0  0  0  0  0  0  0  0  0  0
    0.9773   -0.4100   -1.6090 C   0  0  0  0  0  0  0  0  0  0  0  0
    2.1289   -1.2418   -1.4920 N   0  0  0  0  0  0  0  0  0  0  0  0
    2.6443   -1.1546   -0.1682 C   0  0  0  0  0  0  0  0  0  0  0  0
    2.1170    0.1399    0.3911 C   0  0  1  0  0  0  0  0  0  0  0  0
    3.2266    1.0376    0.3583 O   0  0  0  0  0  0  0  0  0  0  0  0
   -2.3274   -0.5012    0.3262 C   0  0  0  0  0  0  0  0  0  0  0  0
   -3.1532    0.2907   -0.6081 C   0  0  0  0  0  0  0  0  0  0  0  0
   -3.3415    0.5199    0.8583 C   0  0  0  0  0  0  0  0  0  0  0  0
   -1.3692   -1.4829    2.2472 H   0  0  0  0  0  0  0  0  0  0  0  0
   -0.1877   -0.2038    2.5253 H   0  0  0  0  0  0  0  0  0  0  0  0
    0.2607   -1.6909    1.4816 H   0  0  0  0  0  0  0  0  0  0  0  0
   -0.9131    1.4786   -0.5969 H   0  0  0  0  0  0  0  0  0  0  0  0
   -0.0879    1.5506    0.9669 H   0  0  0  0  0  0  0  0  0  0  0  0
    1.2502    1.8594   -1.9769 H   0  0  0  0  0  0  0  0  0  0  0  0
    0.9525    0.1336   -2.5786 H   0  0  0  0  0  0  0  0  0  0  0  0
    0.0475   -1.0218   -1.5811 H   0  0  0  0  0  0  0  0  0  0  0  0
    2.8177   -1.0098   -2.2141 H   0  0  0  0  0  0  0  0  0  0  0  0
    3.7728   -1.1278   -0.2428 H   0  0  0  0  0  0  0  0  0  0  0  0
    2.3457   -2.0436    0.4345 H   0  0  0  0  0  0  0  0  0  0  0  0
    1.8337    0.0320    1.4604 H   0  0  0  0  0  0  0  0  0  0  0  0
    2.8427    1.9567    0.3461 H   0  0  0  0  0  0  0  0  0  0  0  0
   -2.6119   -1.5956    0.4483 H   0  0  0  0  0  0  0  0  0  0  0  0
   -2.8008    1.1173   -1.2220 H   0  0  0  0  0  0  0  0  0  0  0  0
   -4.0062   -0.2636   -1.0892 H   0  0  0  0  0  0  0  0  0  0  0  0
   -4.2136    0.0701    1.3780 H   0  0  0  0  0  0  0  0  0  0  0  0
   -2.9757    1.4623    1.2672 H   0  0  0  0  0  0  0  0  0  0  0  0
  1  2  1  0
  2  3  1  0
  3  4  1  0
  4  5  1  6
  4  6  1  0
  6  7  1  0
  7  8  1  0
  8  9  1  0
  9 10  1  0
  2 11  1  0
 11 12  1  0
 12 13  1  0
  9  4  1  0
 13 11  1  0
  1 14  1  0
  1 15  1  0
  1 16  1  0
  3 17  1  0
  3 18  1  0
  5 19  1  0
  6 20  1  0
  6 21  1  0
  7 22  1  0
  8 23  1  0
  8 24  1  0
  9 25  1  1
 10 26  1  0
 11 27  1  0
 12 28  1  0
 12 29  1  0
 13 30  1  0
 13 31  1  0
M  END
$$$$

     RDKit          3D

 31 32  0  0  0  0  0  0  0  0999 V2000
    1.5431   -1.5455   -0.5568 C   0  0  0  0  0  0  0  0  0  0  0  0
    1.2137   -0.1619   -0.6834 N   0  0  0  0  0  0  0  0  0  0  0  0
    0.1954    0.1596    0.3000 C   0  0  0  0  0  0  0  0  0  0  0  0
   -1.1303   -0.4760    0.0307 C   0  0  2  0  0  0  0  0  0  0  0  0
   -1.0221   -1.8485    0.0227 O   0  0  0  0  0  0  0  0  0  0  0  0
   -1.7407    0.0611   -1.2490 C   0  0  0  0  0  0  0  0  0  0  0  0
   -2.6923    1.0725   -0.8695 N   0  0  0  0  0  0  0  0  0  0  0  0
   -2.5470    1.3298    0.5362 C   0  0  0  0  0  0  0  0  0  0  0  0
   -2.0996    0.0120    1.0920 C   0  0  1  0  0  0  0  0  0  0  0  0
   -3.1644   -0.8682    1.2042 O   0  0  0  0  0  0  0  0  0  0  0  0
    2.2846    0.7618   -0.4916 C   0  0  0  0  0  0  0  0  0  0  0  0
    2.8802    0.6953    0.9389 C   0  0  0  0  0  0  0  0  0  0  0  0
    3.6900    0.4234   -0.3039 C   0  0  0  0  0  0  0  0  0  0  0  0
    1.3005   -1.9733    0.4526 H   0  0  0  0  0  0  0  0  0  0  0  0
    2.5813   -1.7911   -0.8464 H   0  0  0  0  0  0  0  0  0  0  0  0
    0.8973   -2.1108   -1.2826 H   0  0  0  0  0  0  0  0  0  0  0  0
    0.5250   -0.0788    1.3337 H   0  0  0  0  0  0  0  0  0  0  0  0
    0.0404    1.2785    0.2916 H   0  0  0  0  0  0  0  0  0  0  0  0
   -1.8294   -2.2559   -0.4024 H   0  0  0  0  0  0  0  0  0  0  0  0
   -2.2191   -0.7734   -1.7803 H   0  0  0  0  0  0  0  0  0  0  0  0
   -0.9509    0.5177   -1.8682 H   0  0  0  0  0  0  0  0  0  0  0  0
   -3.6634    0.8530   -1.0968 H   0  0  0  0  0  0  0  0  0  0  0  0
   -1.8324    2.1474    0.7664 H   0  0  0  0  0  0  0  0  0  0  0  0
   -3.5233    1.6135    1.0008 H   0  0  0  0  0  0  0  0  0  0  0  0
   -1.5579    0.1203    2.0456 H   0  0  0  0  0  0  0  0  0  0  0  0
   -3.4082   -1.1120    0.2540 H   0  0  0  0  0  0  0  0  0  0  0  0
    2.0097    1.8002   -0.8231 H   0  0  0  0  0  0  0  0  0  0  0  0
    2.9854    1.6503    1.4635 H   0  0  0  0  0  0  0  0  0  0  0  0
    2.6688   -0.2076    1.5416 H   0  0  0  0  0  0  0  0  0  0  0  0
    4.1446   -0.5502   -0.4918 H   0  0  0  0  0  0  0  0  0  0  0  0
    4.4210    1.2568   -0.5288 H   0  0  0  0  0  0  0  0  0  0  0  0
  1  2  1  0
  2  3  1  0
  3  4  1  0
  4  5  1  6
  4  6  1  0
  6  7  1  0
  7  8  1  0
  8  9  1  0
  9 10  1  0
  2 11  1  0
 11 12  1  0
 12 13  1  0
  9  4  1  0
 13 11  1  0
  1 14  1  0
  1 15  1  0
  1 16  1  0
  3 17  1  0
  3 18  1  0
  5 19  1  0
  6 20  1  0
  6 21  1  0
  7 22  1  0
  8 23  1  0
  8 24  1  0
  9 25  1  1
 10 26  1  0
 11 27  1  0
 12 28  1  0
 12 29  1  0
 13 30  1  0
 13 31  1  0
M  END
$$$$

     RDKit          3D

 31 32  0  0  0  0  0  0  0  0999 V2000
   -1.9670   -0.7522   -1.6535 C   0  0  0  0  0  0  0  0  0  0  0  0
   -1.0832    0.0151   -0.7589 N   0  0  0  0  0  0  0  0  0  0  0  0
    0.0136   -0.8582   -0.4808 C   0  0  0  0  0  0  0  0  0  0  0  0
    1.2149   -0.3791    0.1695 C   0  0  2  0  0  0  0  0  0  0  0  0
    2.1369   -1.4734    0.3027 O   0  0  0  0  0  0  0  0  0  0  0  0
    1.2028    0.2716    1.4925 C   0  0  0  0  0  0  0  0  0  0  0  0
    2.6765    0.4241    1.6834 N   0  0  0  0  0  0  0  0  0  0  0  0
    3.1666    0.8471    0.3771 C   0  0  0  0  0  0  0  0  0  0  0  0
    2.0151    0.6530   -0.6101 C   0  0  1  0  0  0  0  0  0  0  0  0
    2.4442    0.1843   -1.8236 O   0  0  0  0  0  0  0  0  0  0  0  0
   -1.8032    0.3395    0.4534 C   0  0  0  0  0  0  0  0  0  0  0  0
   -3.0155    1.1809    0.4269 C   0  0  0  0  0  0  0  0  0  0  0  0
   -3.1470   -0.3208    0.6446 C   0  0  0  0  0  0  0  0  0  0  0  0
   -1.4150   -0.8802   -2.6171 H   0  0  0  0  0  0  0  0  0  0  0  0
   -2.1245   -1.7510   -1.2431 H   0  0  0  0  0  0  0  0  0  0  0  0
   -2.8991   -0.2574   -1.8868 H   0  0  0  0  0  0  0  0  0  0  0  0
    0.3412   -1.3949   -1.4320 H   0  0  0  0  0  0  0  0  0  0  0  0
   -0.4164   -1.7394    0.1131 H   0  0  0  0  0  0  0  0  0  0  0  0
    2.3550   -1.7565   -0.6025 H   0  0  0  0  0  0  0  0  0  0  0  0
    0.8782    1.3430    1.5115 H   0  0  0  0  0  0  0  0  0  0  0  0
    0.8019   -0.3015    2.3332 H   0  0  0  0  0  0  0  0  0  0  0  0
    2.8816    1.1056    2.4183 H   0  0  0  0  0  0  0  0  0  0  0  0
    3.9281    0.0935    0.0830 H   0  0  0  0  0  0  0  0  0  0  0  0
    3.5458    1.8728    0.3788 H   0  0  0  0  0  0  0  0  0  0  0  0
    1.4815    1.6203   -0.6420 H   0  0  0  0  0  0  0  0  0  0  0  0
    1.7262   -0.2320   -2.3579 H   0  0  0  0  0  0  0  0  0  0  0  0
   -1.2138    0.3721    1.3588 H   0  0  0  0  0  0  0  0  0  0  0  0
   -3.4547    1.5892   -0.4935 H   0  0  0  0  0  0  0  0  0  0  0  0
   -3.2496    1.7854    1.3262 H   0  0  0  0  0  0  0  0  0  0  0  0
   -3.4364   -0.6676    1.6696 H   0  0  0  0  0  0  0  0  0  0  0  0
   -3.5845   -0.9334   -0.1408 H   0  0  0  0  0  0  0  0  0  0  0  0
  1  2  1  0
  2  3  1  0
  3  4  1  0
  4  5  1  1
  4  6  1  0
  6  7  1  0
  7  8  1  0
  8  9  1  0
  9 10  1  0
  2 11  1  0
 11 12  1  0
 12 13  1  0
  9  4  1  0
 13 11  1  0
  1 14  1  0
  1 15  1  0
  1 16  1  0
  3 17  1  0
  3 18  1  0
  5 19  1  0
  6 20  1  0
  6 21  1  0
  7 22  1  0
  8 23  1  0
  8 24  1  0
  9 25  1  6
 10 26  1  0
 11 27  1  0
 12 28  1  0
 12 29  1  0
 13 30  1  0
 13 31  1  0
M  END
$$$$

     RDKit          3D

 31 32  0  0  0  0  0  0  0  0999 V2000
    1.5837    1.4023    0.5165 C   0  0  0  0  0  0  0  0  0  0  0  0
    1.1894    0.1146    0.0553 N   0  0  0  0  0  0  0  0  0  0  0  0
   -0.0010    0.0615   -0.7188 C   0  0  0  0  0  0  0  0  0  0  0  0
   -1.2658    0.3911    0.0018 C   0  0  2  0  0  0  0  0  0  0  0  0
   -1.2803    1.6685    0.5491 O   0  0  0  0  0  0  0  0  0  0  0  0
   -1.7273   -0.6230    0.9922 C   0  0  0  0  0  0  0  0  0  0  0  0
   -2.3091   -1.6766    0.1896 N   0  0  0  0  0  0  0  0  0  0  0  0
   -3.0519   -0.9678   -0.8218 C   0  0  0  0  0  0  0  0  0  0  0  0
   -2.3873    0.3591   -1.0331 C   0  0  1  0  0  0  0  0  0  0  0  0
   -3.2478    1.4318   -0.8854 O   0  0  0  0  0  0  0  0  0  0  0  0
    2.2156   -0.6389   -0.5893 C   0  0  0  0  0  0  0  0  0  0  0  0
    3.3561   -1.1059    0.3012 C   0  0  0  0  0  0  0  0  0  0  0  0
    3.5886   -0.1114   -0.7726 C   0  0  0  0  0  0  0  0  0  0  0  0
    1.6646    2.1616   -0.2875 H   0  0  0  0  0  0  0  0  0  0  0  0
    0.9083    1.7554    1.3382 H   0  0  0  0  0  0  0  0  0  0  0  0
    2.5805    1.3171    0.9958 H   0  0  0  0  0  0  0  0  0  0  0  0
   -0.1153   -1.0234   -1.0273 H   0  0  0  0  0  0  0  0  0  0  0  0
    0.0401    0.6161   -1.6656 H   0  0  0  0  0  0  0  0  0  0  0  0
   -1.1510    2.3646   -0.1450 H   0  0  0  0  0  0  0  0  0  0  0  0
   -2.5787   -0.1620    1.5580 H   0  0  0  0  0  0  0  0  0  0  0  0
   -0.9597   -0.9803    1.6882 H   0  0  0  0  0  0  0  0  0  0  0  0
   -1.6059   -2.3373   -0.1836 H   0  0  0  0  0  0  0  0  0  0  0  0
   -4.0641   -0.7863   -0.4219 H   0  0  0  0  0  0  0  0  0  0  0  0
   -3.1100   -1.5611   -1.7589 H   0  0  0  0  0  0  0  0  0  0  0  0
   -1.9713    0.4038   -2.0732 H   0  0  0  0  0  0  0  0  0  0  0  0
   -3.2679    1.8170    0.0178 H   0  0  0  0  0  0  0  0  0  0  0  0
    1.8796   -1.3630   -1.3717 H   0  0  0  0  0  0  0  0  0  0  0  0
    3.6875   -2.1705    0.1590 H   0  0  0  0  0  0  0  0  0  0  0  0
    3.3500   -0.8070    1.3581 H   0  0  0  0  0  0  0  0  0  0  0  0
    3.8710    0.9387   -0.5241 H   0  0  0  0  0  0  0  0  0  0  0  0
    4.1791   -0.4886   -1.6312 H   0  0  0  0  0  0  0  0  0  0  0  0
  1  2  1  0
  2  3  1  0
  3  4  1  0
  4  5  1  1
  4  6  1  0
  6  7  1  0
  7  8  1  0
  8  9  1  0
  9 10  1  0
  2 11  1  0
 11 12  1  0
 12 13  1  0
  9  4  1  0
 13 11  1  0
  1 14  1  0
  1 15  1  0
  1 16  1  0
  3 17  1  0
  3 18  1  0
  5 19  1  0
  6 20  1  0
  6 21  1  0
  7 22  1  0
  8 23  1  0
  8 24  1  0
  9 25  1  6
 10 26  1  0
 11 27  1  0
 12 28  1  0
 12 29  1  0
 13 30  1  0
 13 31  1  0
M  END
$$$$
