
     RDKit          3D

 27 27  0  0  0  0  0  0  0  0999 V2000
   -0.0585    2.1890   -0.7973 O   0  0  0  0  0  0  0  0  0  0  0  0
   -0.8455    1.5286   -0.0844 C   0  0  0  0  0  0  0  0  0  0  0  0
   -1.7876    2.2156    0.6775 O   0  0  0  0  0  0  0  0  0  0  0  0
   -0.7571    0.0589   -0.0752 C   0  0  0  0  0  0  0  0  0  0  0  0
    0.4694   -0.5663   -0.5883 C   0  0  1  0  0  0  0  0  0  0  0  0
    0.6814   -0.1596   -1.9037 O   0  0  0  0  0  0  0  0  0  0  0  0
    1.7206   -0.5684    0.1533 C   0  0  2  0  0  0  0  0  0  0  0  0
    1.6750   -0.9769    1.4874 O   0  0  0  0  0  0  0  0  0  0  0  0
    2.6553    0.5920    0.0296 C   0  0  0  0  0  0  0  0  0  0  0  0
    2.3785    1.6792    0.8127 O   0  0  0  0  0  0  0  0  0  0  0  0
   -1.4378   -0.5342    1.1167 C   0  0  0  0  0  0  0  0  0  0  0  0
   -2.1089   -1.5226    0.1934 C   0  0  0  0  0  0  0  0  0  0  0  0
   -1.9564   -0.4702   -0.8937 C   0  0  0  0  0  0  0  0  0  0  0  0
   -1.6460    3.1730    0.9497 H   0  0  0  0  0  0  0  0  0  0  0  0
    0.2287   -1.7062   -0.7580 H   0  0  0  0  0  0  0  0  0  0  0  0
   -0.0584    0.3525   -2.2808 H   0  0  0  0  0  0  0  0  0  0  0  0
    2.3365   -1.4374   -0.3125 H   0  0  0  0  0  0  0  0  0  0  0  0
    1.5667   -1.9535    1.5870 H   0  0  0  0  0  0  0  0  0  0  0  0
    2.7512    0.9429   -1.0406 H   0  0  0  0  0  0  0  0  0  0  0  0
    3.7092    0.2684    0.2784 H   0  0  0  0  0  0  0  0  0  0  0  0
    2.7451    2.4907    0.3775 H   0  0  0  0  0  0  0  0  0  0  0  0
   -2.2042    0.1640    1.5133 H   0  0  0  0  0  0  0  0  0  0  0  0
   -0.8304   -0.9309    1.9179 H   0  0  0  0  0  0  0  0  0  0  0  0
   -1.5517   -2.4193   -0.0646 H   0  0  0  0  0  0  0  0  0  0  0  0
   -3.1561   -1.7635    0.4497 H   0  0  0  0  0  0  0  0  0  0  0  0
   -1.6838   -0.8501   -1.8837 H   0  0  0  0  0  0  0  0  0  0  0  0
   -2.8352    0.2043   -0.8611 H   0  0  0  0  0  0  0  0  0  0  0  0
  1  2  2  0
  2  3  1  0
  2  4  1  0
  4  5  1  0
  5  6  1  0
  5  7  1  0
  7  8  1  0
  7  9  1  0
  9 10  1  0
  4 11  1  0
 11 12  1  0
 12 13  1  0
 13  4  1  0
  3 14  1  0
  5 15  1  6
  6 16  1  0
  7 17  1  6
  8 18  1  0
  9 19  1  0
  9 20  1  0
 10 21  1  0
 11 22  1  0
 11 23  1  0
 12 24  1  0
 12 25  1  0
 13 26  1  0
 13 27  1  0
M  END
$$$$

     RDKit          3D

 27 27  0  0  0  0  0  0  0  0999 V2000
   -0.2155    2.2484   -0.4934 O   0  0  0  0  0  0  0  0  0  0  0  0
   -0.6930    1.4677    0.4003 C   0  0  0  0  0  0  0  0  0  0  0  0
   -1.0903    2.0456    1.5967 O   0  0  0  0  0  0  0  0  0  0  0  0
   -0.7769    0.0426    0.0678 C   0  0  0  0  0  0  0  0  0  0  0  0
    0.1764   -0.4233   -0.9813 C   0  0  1  0  0  0  0  0  0  0  0  0
   -0.0252    0.3163   -2.1349 O   0  0  0  0  0  0  0  0  0  0  0  0
    1.5907   -0.5814   -0.6575 C   0  0  2  0  0  0  0  0  0  0  0  0
    1.8295   -1.3588    0.5069 O   0  0  0  0  0  0  0  0  0  0  0  0
    2.5119    0.5792   -0.7301 C   0  0  0  0  0  0  0  0  0  0  0  0
    2.5086    1.4397    0.3351 O   0  0  0  0  0  0  0  0  0  0  0  0
   -2.2214   -0.2947   -0.3263 C   0  0  0  0  0  0  0  0  0  0  0  0
   -2.4574   -0.5504    1.1435 C   0  0  0  0  0  0  0  0  0  0  0  0
   -0.9867   -0.8811    1.2372 C   0  0  0  0  0  0  0  0  0  0  0  0
   -0.4828    2.7477    2.0234 H   0  0  0  0  0  0  0  0  0  0  0  0
   -0.1825   -1.4798   -1.3063 H   0  0  0  0  0  0  0  0  0  0  0  0
    0.6847    0.1554   -2.7977 H   0  0  0  0  0  0  0  0  0  0  0  0
    2.0056   -1.3007   -1.4713 H   0  0  0  0  0  0  0  0  0  0  0  0
    1.5584   -2.2951    0.3266 H   0  0  0  0  0  0  0  0  0  0  0  0
    3.5717    0.1948   -0.8235 H   0  0  0  0  0  0  0  0  0  0  0  0
    2.2976    1.1413   -1.6655 H   0  0  0  0  0  0  0  0  0  0  0  0
    2.7084    1.0318    1.1922 H   0  0  0  0  0  0  0  0  0  0  0  0
   -2.3041   -1.2664   -0.8798 H   0  0  0  0  0  0  0  0  0  0  0  0
   -2.7715    0.5494   -0.7594 H   0  0  0  0  0  0  0  0  0  0  0  0
   -3.1391   -1.3993    1.3617 H   0  0  0  0  0  0  0  0  0  0  0  0
   -2.6907    0.3781    1.7099 H   0  0  0  0  0  0  0  0  0  0  0  0
   -0.8254   -1.9295    0.9283 H   0  0  0  0  0  0  0  0  0  0  0  0
   -0.5810   -0.5775    2.1975 H   0  0  0  0  0  0  0  0  0  0  0  0
  1  2  2  0
  2  3  1  0
  2  4  1  0
  4  5  1  0
  5  6  1  0
  5  7  1  0
  7  8  1  0
  7  9  1  0
  9 10  1  0
  4 11  1  0
 11 12  1  0
 12 13  1  0
 13  4  1  0
  3 14  1  0
  5 15  1  6
  6 16  1  0
  7 17  1  6
  8 18  1  0
  9 19  1  0
  9 20  1  0
 10 21  1  0
 11 22  1  0
 11 23  1  0
 12 24  1  0
 12 25  1  0
 13 26  1  0
 13 27  1  0
M  END
$$$$

     RDKit          3D

 27 27  0  0  0  0  0  0  0  0999 V2000
   -1.8807   -2.1851    0.5605 O   0  0  0  0  0  0  0  0  0  0  0  0
   -1.5012   -1.0473    0.8730 C   0  0  0  0  0  0  0  0  0  0  0  0
   -1.5332   -0.6800    2.2212 O   0  0  0  0  0  0  0  0  0  0  0  0
   -1.0177   -0.0612   -0.1031 C   0  0  0  0  0  0  0  0  0  0  0  0
    0.3959    0.4150    0.1069 C   0  0  1  0  0  0  0  0  0  0  0  0
    0.4749    1.0096    1.3640 O   0  0  0  0  0  0  0  0  0  0  0  0
    1.4032   -0.7008    0.0550 C   0  0  2  0  0  0  0  0  0  0  0  0
    1.1971   -1.6774    1.0041 O   0  0  0  0  0  0  0  0  0  0  0  0
    2.7743   -0.0606    0.2849 C   0  0  0  0  0  0  0  0  0  0  0  0
    3.0114    0.9338   -0.6628 O   0  0  0  0  0  0  0  0  0  0  0  0
   -1.4182   -0.3118   -1.5345 C   0  0  0  0  0  0  0  0  0  0  0  0
   -1.6967    1.1738   -1.6326 C   0  0  0  0  0  0  0  0  0  0  0  0
   -1.9560    1.1299   -0.1391 C   0  0  0  0  0  0  0  0  0  0  0  0
   -2.1656   -1.1836    2.8484 H   0  0  0  0  0  0  0  0  0  0  0  0
    0.7010    1.1738   -0.6274 H   0  0  0  0  0  0  0  0  0  0  0  0
    0.8164    0.3511    2.0250 H   0  0  0  0  0  0  0  0  0  0  0  0
    1.4605   -1.1835   -0.9399 H   0  0  0  0  0  0  0  0  0  0  0  0
    1.6524   -2.5046    0.6909 H   0  0  0  0  0  0  0  0  0  0  0  0
    2.8354    0.4173    1.2737 H   0  0  0  0  0  0  0  0  0  0  0  0
    3.5779   -0.8344    0.1560 H   0  0  0  0  0  0  0  0  0  0  0  0
    3.8999    1.3035   -0.4875 H   0  0  0  0  0  0  0  0  0  0  0  0
   -0.6287   -0.6868   -2.2027 H   0  0  0  0  0  0  0  0  0  0  0  0
   -2.3778   -0.8630   -1.5618 H   0  0  0  0  0  0  0  0  0  0  0  0
   -0.8123    1.8113   -1.8326 H   0  0  0  0  0  0  0  0  0  0  0  0
   -2.6039    1.4345   -2.2119 H   0  0  0  0  0  0  0  0  0  0  0  0
   -2.9993    0.8091    0.0559 H   0  0  0  0  0  0  0  0  0  0  0  0
   -1.6089    2.0174    0.4161 H   0  0  0  0  0  0  0  0  0  0  0  0
  1  2  2  0
  2  3  1  0
  2  4  1  0
  4  5  1  0
  5  6  1  0
  5  7  1  0
  7  8  1  0
  7  9  1  0
  9 10  1  0
  4 11  1  0
 11 12  1  0
 12 13  1  0
 13  4  1  0
  3 14  1  0
  5 15  1  6
  6 16  1  0
  7 17  1  6
  8 18  1  0
  9 19  1  0
  9 20  1  0
 10 21  1  0
 11 22  1  0
 11 23  1  0
 12 24  1  0
 12 25  1  0
 13 26  1  0
 13 27  1  0
M  END
$$$$

     RDKit          3D

 27 27  0  0  0  0  0  0  0  0999 V2000
   -2.3341    1.2923    1.4470 O   0  0  0  0  0  0  0  0  0  0  0  0
   -1.4985    0.3780    1.2087 C   0  0  0  0  0  0  0  0  0  0  0  0
   -1.1599   -0.5048    2.2189 O   0  0  0  0  0  0  0  0  0  0  0  0
   -0.8595    0.2102   -0.1198 C   0  0  0  0  0  0  0  0  0  0  0  0
    0.5903    0.4023   -0.2145 C   0  0  1  0  0  0  0  0  0  0  0  0
    0.9145    1.7136    0.1899 O   0  0  0  0  0  0  0  0  0  0  0  0
    1.5003   -0.5410    0.4497 C   0  0  2  0  0  0  0  0  0  0  0  0
    1.4041   -0.4444    1.8316 O   0  0  0  0  0  0  0  0  0  0  0  0
    2.9414   -0.2223    0.0472 C   0  0  0  0  0  0  0  0  0  0  0  0
    3.1113   -0.2999   -1.3238 O   0  0  0  0  0  0  0  0  0  0  0  0
   -1.5827    1.0074   -1.2227 C   0  0  0  0  0  0  0  0  0  0  0  0
   -2.6248   -0.0893   -1.1389 C   0  0  0  0  0  0  0  0  0  0  0  0
   -1.4660   -1.0056   -0.7861 C   0  0  0  0  0  0  0  0  0  0  0  0
   -1.4205   -0.4081    3.1760 H   0  0  0  0  0  0  0  0  0  0  0  0
    0.8751    0.4161   -1.3185 H   0  0  0  0  0  0  0  0  0  0  0  0
    0.8634    1.7701    1.1769 H   0  0  0  0  0  0  0  0  0  0  0  0
    1.3483   -1.6019    0.1918 H   0  0  0  0  0  0  0  0  0  0  0  0
    2.2391   -0.5948    2.3021 H   0  0  0  0  0  0  0  0  0  0  0  0
    3.6512   -0.9713    0.4928 H   0  0  0  0  0  0  0  0  0  0  0  0
    3.2320    0.8019    0.3560 H   0  0  0  0  0  0  0  0  0  0  0  0
    2.4182   -0.8594   -1.7594 H   0  0  0  0  0  0  0  0  0  0  0  0
   -0.9931    0.9239   -2.1401 H   0  0  0  0  0  0  0  0  0  0  0  0
   -1.9039    2.0041   -0.9047 H   0  0  0  0  0  0  0  0  0  0  0  0
   -3.3112    0.0791   -0.2861 H   0  0  0  0  0  0  0  0  0  0  0  0
   -3.1160   -0.3217   -2.1012 H   0  0  0  0  0  0  0  0  0  0  0  0
   -1.8327   -1.7815   -0.0753 H   0  0  0  0  0  0  0  0  0  0  0  0
   -0.9863   -1.3528   -1.6977 H   0  0  0  0  0  0  0  0  0  0  0  0
  1  2  2  0
  2  3  1  0
  2  4  1  0
  4  5  1  0
  5  6  1  0
  5  7  1  0
  7  8  1  0
  7  9  1  0
  9 10  1  0
  4 11  1  0
 11 12  1  0
 12 13  1  0
 13  4  1  0
  3 14  1  0
  5 15  1  6
  6 16  1  0
  7 17  1  6
  8 18  1  0
  9 19  1  0
  9 20  1  0
 10 21  1  0
 11 22  1  0
 11 23  1  0
 12 24  1  0
 12 25  1  0
 13 26  1  0
 13 27  1  0
M  END
$$$$

     RDKit          3D

 27 27  0  0  0  0  0  0  0  0999 V2000
   -1.0348    2.7233   -0.4608 O   0  0  0  0  0  0  0  0  0  0  0  0
   -1.5922    1.5939   -0.4748 C   0  0  0  0  0  0  0  0  0  0  0  0
   -2.9281    1.5686   -0.8432 O   0  0  0  0  0  0  0  0  0  0  0  0
   -0.8448    0.3505   -0.1116 C   0  0  0  0  0  0  0  0  0  0  0  0
    0.5657    0.6688    0.2411 C   0  0  1  0  0  0  0  0  0  0  0  0
    0.6779    1.5385    1.3236 O   0  0  0  0  0  0  0  0  0  0  0  0
    1.4652   -0.4892    0.4492 C   0  0  2  0  0  0  0  0  0  0  0  0
    1.2315   -1.2405    1.5675 O   0  0  0  0  0  0  0  0  0  0  0  0
    2.8911    0.0689    0.5881 C   0  0  0  0  0  0  0  0  0  0  0  0
    3.8168   -0.9460    0.6788 O   0  0  0  0  0  0  0  0  0  0  0  0
   -1.1200   -0.7220   -1.0841 C   0  0  0  0  0  0  0  0  0  0  0  0
   -2.3219   -1.1354   -0.2235 C   0  0  0  0  0  0  0  0  0  0  0  0
   -1.6372   -0.4074    0.9238 C   0  0  0  0  0  0  0  0  0  0  0  0
   -3.2391    2.2738   -1.4968 H   0  0  0  0  0  0  0  0  0  0  0  0
    0.9906    1.2482   -0.6340 H   0  0  0  0  0  0  0  0  0  0  0  0
    0.4187    1.1542    2.1734 H   0  0  0  0  0  0  0  0  0  0  0  0
    1.4994   -1.1006   -0.4928 H   0  0  0  0  0  0  0  0  0  0  0  0
    1.4432   -2.1832    1.3548 H   0  0  0  0  0  0  0  0  0  0  0  0
    3.1208    0.7768   -0.2394 H   0  0  0  0  0  0  0  0  0  0  0  0
    2.9340    0.6776    1.5273 H   0  0  0  0  0  0  0  0  0  0  0  0
    4.6748   -0.5583    0.9313 H   0  0  0  0  0  0  0  0  0  0  0  0
   -1.4631   -0.4432   -2.0945 H   0  0  0  0  0  0  0  0  0  0  0  0
   -0.4305   -1.5743   -1.1473 H   0  0  0  0  0  0  0  0  0  0  0  0
   -2.4074   -2.2298   -0.0698 H   0  0  0  0  0  0  0  0  0  0  0  0
   -3.2789   -0.7256   -0.5412 H   0  0  0  0  0  0  0  0  0  0  0  0
   -2.3313    0.2371    1.5045 H   0  0  0  0  0  0  0  0  0  0  0  0
   -1.1005   -1.1247    1.5408 H   0  0  0  0  0  0  0  0  0  0  0  0
  1  2  2  0
  2  3  1  0
  2  4  1  0
  4  5  1  0
  5  6  1  0
  5  7  1  0
  7  8  1  0
  7  9  1  0
  9 10  1  0
  4 11  1  0
 11 12  1  0
 12 13  1  0
 13  4  1  0
  3 14  1  0
  5 15  1  6
  6 16  1  0
  7 17  1  6
  8 18  1  0
  9 19  1  0
  9 20  1  0
 10 21  1  0
 11 22  1  0
 11 23  1  0
 12 24  1  0
 12 25  1  0
 13 26  1  0
 13 27  1  0
M  END
$$$$

     RDKit          3D

 27 27  0  0  0  0  0  0  0  0999 V2000
   -1.0656    2.0878   -1.2238 O   0  0  0  0  0  0  0  0  0  0  0  0
   -1.5895    1.0338   -0.8282 C   0  0  0  0  0  0  0  0  0  0  0  0
   -2.8960    0.7945   -1.2630 O   0  0  0  0  0  0  0  0  0  0  0  0
   -0.8765    0.0795    0.0555 C   0  0  0  0  0  0  0  0  0  0  0  0
    0.5281    0.4116    0.4133 C   0  0  1  0  0  0  0  0  0  0  0  0
    1.0242   -0.5911    1.2518 O   0  0  0  0  0  0  0  0  0  0  0  0
    1.4554    0.6417   -0.7337 C   0  0  2  0  0  0  0  0  0  0  0  0
    1.6394   -0.5128   -1.5150 O   0  0  0  0  0  0  0  0  0  0  0  0
    2.8318    0.9715   -0.1673 C   0  0  0  0  0  0  0  0  0  0  0  0
    3.3011   -0.0879    0.6033 O   0  0  0  0  0  0  0  0  0  0  0  0
   -1.1521   -1.3672   -0.3052 C   0  0  0  0  0  0  0  0  0  0  0  0
   -2.3975   -1.3030    0.5630 C   0  0  0  0  0  0  0  0  0  0  0  0
   -1.7318   -0.1737    1.3091 C   0  0  0  0  0  0  0  0  0  0  0  0
   -3.2408    1.1972   -2.1050 H   0  0  0  0  0  0  0  0  0  0  0  0
    0.5152    1.3469    1.0177 H   0  0  0  0  0  0  0  0  0  0  0  0
    1.3432   -1.3304    0.6926 H   0  0  0  0  0  0  0  0  0  0  0  0
    1.1551    1.5016   -1.3457 H   0  0  0  0  0  0  0  0  0  0  0  0
    2.3693   -1.0609   -1.1414 H   0  0  0  0  0  0  0  0  0  0  0  0
    3.5698    1.1185   -0.9858 H   0  0  0  0  0  0  0  0  0  0  0  0
    2.7861    1.8635    0.4895 H   0  0  0  0  0  0  0  0  0  0  0  0
    3.5806    0.1746    1.5074 H   0  0  0  0  0  0  0  0  0  0  0  0
   -0.4517   -2.0818    0.1428 H   0  0  0  0  0  0  0  0  0  0  0  0
   -1.3293   -1.5372   -1.3732 H   0  0  0  0  0  0  0  0  0  0  0  0
   -3.3340   -1.0831    0.0542 H   0  0  0  0  0  0  0  0  0  0  0  0
   -2.5346   -2.2108    1.2185 H   0  0  0  0  0  0  0  0  0  0  0  0
   -1.0804   -0.5269    2.1320 H   0  0  0  0  0  0  0  0  0  0  0  0
   -2.4194    0.6442    1.5365 H   0  0  0  0  0  0  0  0  0  0  0  0
  1  2  2  0
  2  3  1  0
  2  4  1  0
  4  5  1  0
  5  6  1  0
  5  7  1  0
  7  8  1  0
  7  9  1  0
  9 10  1  0
  4 11  1  0
 11 12  1  0
 12 13  1  0
 13  4  1  0
  3 14  1  0
  5 15  1  1
  6 16  1  0
  7 17  1  6
  8 18  1  0
  9 19  1  0
  9 20  1  0
 10 21  1  0
 11 22  1  0
 11 23  1  0
 12 24  1  0
 12 25  1  0
 13 26  1  0
 13 27  1  0
M  END
$$$$

     RDKit          3D

 27 27  0  0  0  0  0  0  0  0999 V2000
   -1.5247   -1.9213   -1.3643 O   0  0  0  0  0  0  0  0  0  0  0  0
   -1.2324   -1.4547   -0.2534 C   0  0  0  0  0  0  0  0  0  0  0  0
   -1.1603   -2.3007    0.8322 O   0  0  0  0  0  0  0  0  0  0  0  0
   -0.9643   -0.0071   -0.0949 C   0  0  0  0  0  0  0  0  0  0  0  0
    0.4123    0.2957    0.4158 C   0  0  1  0  0  0  0  0  0  0  0  0
    0.5964   -0.2944    1.6643 O   0  0  0  0  0  0  0  0  0  0  0  0
    1.4333   -0.2194   -0.5715 C   0  0  2  0  0  0  0  0  0  0  0  0
    1.3129   -1.5997   -0.7127 O   0  0  0  0  0  0  0  0  0  0  0  0
    2.8354    0.1198   -0.0586 C   0  0  0  0  0  0  0  0  0  0  0  0
    2.9955   -0.5132    1.1762 O   0  0  0  0  0  0  0  0  0  0  0  0
   -1.2946    0.8373   -1.2858 C   0  0  0  0  0  0  0  0  0  0  0  0
   -1.9374    1.8401   -0.3276 C   0  0  0  0  0  0  0  0  0  0  0  0
   -2.0852    0.6825    0.6545 C   0  0  0  0  0  0  0  0  0  0  0  0
   -1.7697   -3.1067    0.9277 H   0  0  0  0  0  0  0  0  0  0  0  0
    0.5127    1.3986    0.4911 H   0  0  0  0  0  0  0  0  0  0  0  0
   -0.3133   -0.4365    2.0631 H   0  0  0  0  0  0  0  0  0  0  0  0
    1.2549    0.2347   -1.5559 H   0  0  0  0  0  0  0  0  0  0  0  0
    2.2034   -2.0239   -0.7609 H   0  0  0  0  0  0  0  0  0  0  0  0
    3.5979   -0.2586   -0.7556 H   0  0  0  0  0  0  0  0  0  0  0  0
    2.9505    1.1969    0.0692 H   0  0  0  0  0  0  0  0  0  0  0  0
    3.6878   -0.0909    1.7362 H   0  0  0  0  0  0  0  0  0  0  0  0
   -2.0310    0.3782   -1.9660 H   0  0  0  0  0  0  0  0  0  0  0  0
   -0.4642    1.3097   -1.8173 H   0  0  0  0  0  0  0  0  0  0  0  0
   -1.2124    2.5949    0.0644 H   0  0  0  0  0  0  0  0  0  0  0  0
   -2.8671    2.2436   -0.7275 H   0  0  0  0  0  0  0  0  0  0  0  0
   -1.8880    0.9422    1.6953 H   0  0  0  0  0  0  0  0  0  0  0  0
   -3.0484    0.1530    0.4618 H   0  0  0  0  0  0  0  0  0  0  0  0
  1  2  2  0
  2  3  1  0
  2  4  1  0
  4  5  1  0
  5  6  1  0
  5  7  1  0
  7  8  1  0
  7  9  1  0
  9 10  1  0
  4 11  1  0
 11 12  1  0
 12 13  1  0
 13  4  1  0
  3 14  1  0
  5 15  1  1
  6 16  1  0
  7 17  1  6
  8 18  1  0
  9 19  1  0
  9 20  1  0
 10 21  1  0
 11 22  1  0
 11 23  1  0
 12 24  1  0
 12 25  1  0
 13 26  1  0
 13 27  1  0
M  END
$$$$

     RDKit          3D

 27 27  0  0  0  0  0  0  0  0999 V2000
   -2.3570   -0.1017   -1.9837 O   0  0  0  0  0  0  0  0  0  0  0  0
   -1.8017   -0.7807   -1.0870 C   0  0  0  0  0  0  0  0  0  0  0  0
   -2.1229   -2.1107   -0.9337 O   0  0  0  0  0  0  0  0  0  0  0  0
   -0.7825   -0.1006   -0.1934 C   0  0  0  0  0  0  0  0  0  0  0  0
    0.4966   -0.7562   -0.3578 C   0  0  1  0  0  0  0  0  0  0  0  0
    0.8921   -0.6536   -1.7146 O   0  0  0  0  0  0  0  0  0  0  0  0
    1.6697   -0.4161    0.4583 C   0  0  2  0  0  0  0  0  0  0  0  0
    1.5282   -0.4270    1.8204 O   0  0  0  0  0  0  0  0  0  0  0  0
    2.4020    0.8201   -0.0664 C   0  0  0  0  0  0  0  0  0  0  0  0
    3.7048    0.8715    0.4892 O   0  0  0  0  0  0  0  0  0  0  0  0
   -1.0174    1.3417   -0.1742 C   0  0  0  0  0  0  0  0  0  0  0  0
   -2.2635    1.0348    0.6852 C   0  0  0  0  0  0  0  0  0  0  0  0
   -1.4089   -0.1335    1.2121 C   0  0  0  0  0  0  0  0  0  0  0  0
   -2.6687   -2.5390   -1.6968 H   0  0  0  0  0  0  0  0  0  0  0  0
    0.3042   -1.8760   -0.2566 H   0  0  0  0  0  0  0  0  0  0  0  0
    0.2535   -1.1941   -2.2409 H   0  0  0  0  0  0  0  0  0  0  0  0
    2.4365   -1.2465    0.2649 H   0  0  0  0  0  0  0  0  0  0  0  0
    2.0927    0.2646    2.2713 H   0  0  0  0  0  0  0  0  0  0  0  0
    2.5521    0.7643   -1.1535 H   0  0  0  0  0  0  0  0  0  0  0  0
    1.9238    1.7497    0.2324 H   0  0  0  0  0  0  0  0  0  0  0  0
    4.2142    0.0563    0.2483 H   0  0  0  0  0  0  0  0  0  0  0  0
   -0.4177    2.0379    0.3935 H   0  0  0  0  0  0  0  0  0  0  0  0
   -1.3508    1.7887   -1.1386 H   0  0  0  0  0  0  0  0  0  0  0  0
   -3.1066    0.6238    0.1025 H   0  0  0  0  0  0  0  0  0  0  0  0
   -2.5010    1.7912    1.4313 H   0  0  0  0  0  0  0  0  0  0  0  0
   -0.6976    0.2285    1.9515 H   0  0  0  0  0  0  0  0  0  0  0  0
   -1.9743   -1.0374    1.4363 H   0  0  0  0  0  0  0  0  0  0  0  0
  1  2  2  0
  2  3  1  0
  2  4  1  0
  4  5  1  0
  5  6  1  0
  5  7  1  0
  7  8  1  0
  7  9  1  0
  9 10  1  0
  4 11  1  0
 11 12  1  0
 12 13  1  0
 13  4  1  0
  3 14  1  0
  5 15  1  1
  6 16  1  0
  7 17  1  1
  8 18  1  0
  9 19  1  0
  9 20  1  0
 10 21  1  0
 11 22  1  0
 11 23  1  0
 12 24  1  0
 12 25  1  0
 13 26  1  0
 13 27  1  0
M  END
$$$$
