
     RDKit          3D

 26 25  0  0  0  0  0  0  0  0999 V2000
    3.1405    0.3542    0.6505 C   0  0  0  0  0  0  0  0  0  0  0  0
    1.7858    0.1509    0.9078 O   0  0  0  0  0  0  0  0  0  0  0  0
    1.1916   -0.1903   -0.3022 C   0  0  0  0  0  0  0  0  0  0  0  0
   -0.2862   -0.4452   -0.1947 C   0  0  2  0  0  0  0  0  0  0  0  0
   -0.4813   -1.5248    0.7382 N   0  0  0  0  0  0  0  0  0  0  0  0
   -0.7386   -0.9653   -1.5595 C   0  0  0  0  0  0  0  0  0  0  0  0
   -2.1619   -1.2413   -1.5524 N   0  0  0  0  0  0  0  0  0  0  0  0
   -1.0557    0.7826    0.1259 C   0  0  0  0  0  0  0  0  0  0  0  0
   -0.7179    1.4649    1.4024 C   0  0  0  0  0  0  0  0  0  0  0  0
   -1.5500    2.6038    1.5527 O   0  0  0  0  0  0  0  0  0  0  0  0
    3.5273   -0.6122    0.2465 H   0  0  0  0  0  0  0  0  0  0  0  0
    3.6962    0.6934    1.5284 H   0  0  0  0  0  0  0  0  0  0  0  0
    3.2822    1.1200   -0.1498 H   0  0  0  0  0  0  0  0  0  0  0  0
    1.7381   -1.0556   -0.7136 H   0  0  0  0  0  0  0  0  0  0  0  0
    1.3540    0.6845   -0.9918 H   0  0  0  0  0  0  0  0  0  0  0  0
   -0.2203   -2.4076    0.2552 H   0  0  0  0  0  0  0  0  0  0  0  0
   -1.4438   -1.6221    1.0850 H   0  0  0  0  0  0  0  0  0  0  0  0
   -0.1822   -1.8771   -1.8143 H   0  0  0  0  0  0  0  0  0  0  0  0
   -0.5595   -0.1685   -2.3169 H   0  0  0  0  0  0  0  0  0  0  0  0
   -2.5594   -1.3247   -0.5982 H   0  0  0  0  0  0  0  0  0  0  0  0
   -2.3203   -2.1112   -2.1064 H   0  0  0  0  0  0  0  0  0  0  0  0
   -0.9204    1.5417   -0.6973 H   0  0  0  0  0  0  0  0  0  0  0  0
   -2.1657    0.5854    0.1387 H   0  0  0  0  0  0  0  0  0  0  0  0
   -0.8460    0.8118    2.2893 H   0  0  0  0  0  0  0  0  0  0  0  0
    0.3258    1.8540    1.4172 H   0  0  0  0  0  0  0  0  0  0  0  0
   -1.8324    2.8989    0.6594 H   0  0  0  0  0  0  0  0  0  0  0  0
  1  2  1  0
  2  3  1  0
  3  4  1  0
  4  5  1  1
  4  6  1  0
  6  7  1  0
  4  8  1  0
  8  9  1  0
  9 10  1  0
  1 11  1  0
  1 12  1  0
  1 13  1  0
  3 14  1  0
  3 15  1  0
  5 16  1  0
  5 17  1  0
  6 18  1  0
  6 19  1  0
  7 20  1  0
  7 21  1  0
  8 22  1  0
  8 23  1  0
  9 24  1  0
  9 25  1  0
 10 26  1  0
M  END
$$$$

     RDKit          3D

 26 25  0  0  0  0  0  0  0  0999 V2000
    3.3582   -0.0092    0.0033 C   0  0  0  0  0  0  0  0  0  0  0  0
    2.0237    0.3198    0.2708 O   0  0  0  0  0  0  0  0  0  0  0  0
    1.2186   -0.5681   -0.4471 C   0  0  0  0  0  0  0  0  0  0  0  0
   -0.2264   -0.2039   -0.1510 C   0  0  2  0  0  0  0  0  0  0  0  0
   -0.4249   -0.3399    1.2623 N   0  0  0  0  0  0  0  0  0  0  0  0
   -1.1293   -1.1963   -0.8797 C   0  0  0  0  0  0  0  0  0  0  0  0
   -0.8438   -2.5356   -0.4069 N   0  0  0  0  0  0  0  0  0  0  0  0
   -0.4478    1.1933   -0.6387 C   0  0  0  0  0  0  0  0  0  0  0  0
   -1.8631    1.6734   -0.3977 C   0  0  0  0  0  0  0  0  0  0  0  0
   -2.0641    2.9543   -0.8454 O   0  0  0  0  0  0  0  0  0  0  0  0
    3.5382   -1.0587    0.3295 H   0  0  0  0  0  0  0  0  0  0  0  0
    4.0100    0.6973    0.5479 H   0  0  0  0  0  0  0  0  0  0  0  0
    3.5267    0.1353   -1.0685 H   0  0  0  0  0  0  0  0  0  0  0  0
    1.4010   -1.6109   -0.1094 H   0  0  0  0  0  0  0  0  0  0  0  0
    1.4320   -0.4784   -1.5294 H   0  0  0  0  0  0  0  0  0  0  0  0
   -0.1410    0.5344    1.7536 H   0  0  0  0  0  0  0  0  0  0  0  0
   -1.3856   -0.6336    1.4809 H   0  0  0  0  0  0  0  0  0  0  0  0
   -0.9449   -1.1556   -1.9770 H   0  0  0  0  0  0  0  0  0  0  0  0
   -2.1854   -0.9751   -0.7026 H   0  0  0  0  0  0  0  0  0  0  0  0
   -0.6761   -3.1890   -1.1861 H   0  0  0  0  0  0  0  0  0  0  0  0
   -1.5821   -2.8889    0.2336 H   0  0  0  0  0  0  0  0  0  0  0  0
    0.2488    1.8553   -0.0902 H   0  0  0  0  0  0  0  0  0  0  0  0
   -0.2113    1.2365   -1.7125 H   0  0  0  0  0  0  0  0  0  0  0  0
   -2.1138    1.5795    0.6755 H   0  0  0  0  0  0  0  0  0  0  0  0
   -2.5651    1.0100   -0.9782 H   0  0  0  0  0  0  0  0  0  0  0  0
   -1.9523    3.6540   -0.1733 H   0  0  0  0  0  0  0  0  0  0  0  0
  1  2  1  0
  2  3  1  0
  3  4  1  0
  4  5  1  1
  4  6  1  0
  6  7  1  0
  4  8  1  0
  8  9  1  0
  9 10  1  0
  1 11  1  0
  1 12  1  0
  1 13  1  0
  3 14  1  0
  3 15  1  0
  5 16  1  0
  5 17  1  0
  6 18  1  0
  6 19  1  0
  7 20  1  0
  7 21  1  0
  8 22  1  0
  8 23  1  0
  9 24  1  0
  9 25  1  0
 10 26  1  0
M  END
$$$$

     RDKit          3D

 26 25  0  0  0  0  0  0  0  0999 V2000
   -1.8188    2.3399    0.4833 C   0  0  0  0  0  0  0  0  0  0  0  0
   -0.7623    1.4359    0.5671 O   0  0  0  0  0  0  0  0  0  0  0  0
   -0.9746    0.4516   -0.3647 C   0  0  0  0  0  0  0  0  0  0  0  0
    0.0866   -0.6104   -0.4016 C   0  0  2  0  0  0  0  0  0  0  0  0
   -0.3503   -1.5445   -1.4614 N   0  0  0  0  0  0  0  0  0  0  0  0
    0.1149   -1.4593    0.8516 C   0  0  0  0  0  0  0  0  0  0  0  0
   -1.1509   -2.1414    1.0528 N   0  0  0  0  0  0  0  0  0  0  0  0
    1.4282   -0.1377   -0.8013 C   0  0  0  0  0  0  0  0  0  0  0  0
    2.0502    0.9098    0.0525 C   0  0  0  0  0  0  0  0  0  0  0  0
    2.2335    0.5113    1.3754 O   0  0  0  0  0  0  0  0  0  0  0  0
   -1.8764    2.7986   -0.5395 H   0  0  0  0  0  0  0  0  0  0  0  0
   -2.7529    1.7316    0.5722 H   0  0  0  0  0  0  0  0  0  0  0  0
   -1.7776    3.1180    1.2575 H   0  0  0  0  0  0  0  0  0  0  0  0
   -1.1288    0.8089   -1.3927 H   0  0  0  0  0  0  0  0  0  0  0  0
   -1.9323   -0.0683   -0.0739 H   0  0  0  0  0  0  0  0  0  0  0  0
    0.2460   -1.4989   -2.2926 H   0  0  0  0  0  0  0  0  0  0  0  0
   -1.3455   -1.4499   -1.6832 H   0  0  0  0  0  0  0  0  0  0  0  0
    0.4209   -0.8890    1.7547 H   0  0  0  0  0  0  0  0  0  0  0  0
    0.8790   -2.2476    0.6834 H   0  0  0  0  0  0  0  0  0  0  0  0
   -1.0110   -3.1727    1.2299 H   0  0  0  0  0  0  0  0  0  0  0  0
   -1.7586   -2.0806    0.2104 H   0  0  0  0  0  0  0  0  0  0  0  0
    2.1267   -1.0262   -0.7713 H   0  0  0  0  0  0  0  0  0  0  0  0
    1.4807    0.2075   -1.8561 H   0  0  0  0  0  0  0  0  0  0  0  0
    3.0658    1.1924   -0.3156 H   0  0  0  0  0  0  0  0  0  0  0  0
    1.4835    1.8601    0.0906 H   0  0  0  0  0  0  0  0  0  0  0  0
    3.0240    0.9607    1.7724 H   0  0  0  0  0  0  0  0  0  0  0  0
  1  2  1  0
  2  3  1  0
  3  4  1  0
  4  5  1  6
  4  6  1  0
  6  7  1  0
  4  8  1  0
  8  9  1  0
  9 10  1  0
  1 11  1  0
  1 12  1  0
  1 13  1  0
  3 14  1  0
  3 15  1  0
  5 16  1  0
  5 17  1  0
  6 18  1  0
  6 19  1  0
  7 20  1  0
  7 21  1  0
  8 22  1  0
  8 23  1  0
  9 24  1  0
  9 25  1  0
 10 26  1  0
M  END
$$$$

     RDKit          3D

 26 25  0  0  0  0  0  0  0  0999 V2000
    3.2620   -0.8108    0.1514 C   0  0  0  0  0  0  0  0  0  0  0  0
    1.9364   -0.5104    0.3761 O   0  0  0  0  0  0  0  0  0  0  0  0
    1.3446    0.1141   -0.7355 C   0  0  0  0  0  0  0  0  0  0  0  0
   -0.1253    0.4097   -0.3937 C   0  0  2  0  0  0  0  0  0  0  0  0
   -0.7257    1.0529   -1.5453 N   0  0  0  0  0  0  0  0  0  0  0  0
   -0.1096    1.3354    0.7698 C   0  0  0  0  0  0  0  0  0  0  0  0
   -1.3887    1.7432    1.2543 N   0  0  0  0  0  0  0  0  0  0  0  0
   -0.7688   -0.9112   -0.1512 C   0  0  0  0  0  0  0  0  0  0  0  0
   -2.2126   -0.8800    0.2008 C   0  0  0  0  0  0  0  0  0  0  0  0
   -2.6132   -2.2257    0.3830 O   0  0  0  0  0  0  0  0  0  0  0  0
    3.3532   -1.4948   -0.7124 H   0  0  0  0  0  0  0  0  0  0  0  0
    3.7086   -1.2070    1.0827 H   0  0  0  0  0  0  0  0  0  0  0  0
    3.7621    0.1620   -0.1306 H   0  0  0  0  0  0  0  0  0  0  0  0
    1.4237   -0.5803   -1.5867 H   0  0  0  0  0  0  0  0  0  0  0  0
    1.8531    1.0648   -0.9528 H   0  0  0  0  0  0  0  0  0  0  0  0
   -0.7448    0.3481   -2.3408 H   0  0  0  0  0  0  0  0  0  0  0  0
   -1.7367    1.2398   -1.3314 H   0  0  0  0  0  0  0  0  0  0  0  0
    0.4317    2.2633    0.4443 H   0  0  0  0  0  0  0  0  0  0  0  0
    0.5142    0.9118    1.5864 H   0  0  0  0  0  0  0  0  0  0  0  0
   -1.2377    2.2896    2.1315 H   0  0  0  0  0  0  0  0  0  0  0  0
   -1.8812    2.3528    0.5893 H   0  0  0  0  0  0  0  0  0  0  0  0
   -0.6774   -1.4920   -1.1160 H   0  0  0  0  0  0  0  0  0  0  0  0
   -0.2414   -1.5301    0.5986 H   0  0  0  0  0  0  0  0  0  0  0  0
   -2.8734   -0.4705   -0.5634 H   0  0  0  0  0  0  0  0  0  0  0  0
   -2.3611   -0.4205    1.2107 H   0  0  0  0  0  0  0  0  0  0  0  0
   -1.8919   -2.7543    0.7808 H   0  0  0  0  0  0  0  0  0  0  0  0
  1  2  1  0
  2  3  1  0
  3  4  1  0
  4  5  1  6
  4  6  1  0
  6  7  1  0
  4  8  1  0
  8  9  1  0
  9 10  1  0
  1 11  1  0
  1 12  1  0
  1 13  1  0
  3 14  1  0
  3 15  1  0
  5 16  1  0
  5 17  1  0
  6 18  1  0
  6 19  1  0
  7 20  1  0
  7 21  1  0
  8 22  1  0
  8 23  1  0
  9 24  1  0
  9 25  1  0
 10 26  1  0
M  END
$$$$

     RDKit          3D

 26 25  0  0  0  0  0  0  0  0999 V2000
    2.1782   -1.1936    1.2967 C   0  0  0  0  0  0  0  0  0  0  0  0
    2.1404   -0.8143   -0.0037 O   0  0  0  0  0  0  0  0  0  0  0  0
    0.9555   -0.9479   -0.6767 C   0  0  0  0  0  0  0  0  0  0  0  0
   -0.2148   -0.1610   -0.1444 C   0  0  2  0  0  0  0  0  0  0  0  0
   -0.5882   -0.4923    1.1903 N   0  0  0  0  0  0  0  0  0  0  0  0
   -1.4054   -0.4562   -1.0578 C   0  0  0  0  0  0  0  0  0  0  0  0
   -1.7020   -1.8534   -1.0549 N   0  0  0  0  0  0  0  0  0  0  0  0
    0.1791    1.3020   -0.2815 C   0  0  0  0  0  0  0  0  0  0  0  0
   -0.8489    2.2626    0.1887 C   0  0  0  0  0  0  0  0  0  0  0  0
   -0.3189    3.5586   -0.0141 O   0  0  0  0  0  0  0  0  0  0  0  0
    1.8900   -2.2693    1.3574 H   0  0  0  0  0  0  0  0  0  0  0  0
    3.2579   -1.1604    1.6202 H   0  0  0  0  0  0  0  0  0  0  0  0
    1.5877   -0.5980    2.0015 H   0  0  0  0  0  0  0  0  0  0  0  0
    1.1695   -0.6706   -1.7410 H   0  0  0  0  0  0  0  0  0  0  0  0
    0.6311   -2.0251   -0.7548 H   0  0  0  0  0  0  0  0  0  0  0  0
   -0.5836    0.3224    1.8473 H   0  0  0  0  0  0  0  0  0  0  0  0
   -1.5114   -0.9984    1.2445 H   0  0  0  0  0  0  0  0  0  0  0  0
   -2.2693    0.0942   -0.6194 H   0  0  0  0  0  0  0  0  0  0  0  0
   -1.2092   -0.1167   -2.0933 H   0  0  0  0  0  0  0  0  0  0  0  0
   -1.3871   -2.2948   -1.9479 H   0  0  0  0  0  0  0  0  0  0  0  0
   -1.2901   -2.3299   -0.2325 H   0  0  0  0  0  0  0  0  0  0  0  0
    0.4301    1.4783   -1.3380 H   0  0  0  0  0  0  0  0  0  0  0  0
    1.0840    1.4244    0.3796 H   0  0  0  0  0  0  0  0  0  0  0  0
   -1.7864    2.2222   -0.3823 H   0  0  0  0  0  0  0  0  0  0  0  0
   -1.0604    2.1983    1.2550 H   0  0  0  0  0  0  0  0  0  0  0  0
    0.6722    3.5187   -0.0389 H   0  0  0  0  0  0  0  0  0  0  0  0
  1  2  1  0
  2  3  1  0
  3  4  1  0
  4  5  1  1
  4  6  1  0
  6  7  1  0
  4  8  1  0
  8  9  1  0
  9 10  1  0
  1 11  1  0
  1 12  1  0
  1 13  1  0
  3 14  1  0
  3 15  1  0
  5 16  1  0
  5 17  1  0
  6 18  1  0
  6 19  1  0
  7 20  1  0
  7 21  1  0
  8 22  1  0
  8 23  1  0
  9 24  1  0
  9 25  1  0
 10 26  1  0
M  END
$$$$

     RDKit          3D

 26 25  0  0  0  0  0  0  0  0999 V2000
    2.7590   -1.3527   -0.4367 C   0  0  0  0  0  0  0  0  0  0  0  0
    1.3946   -1.1205   -0.6688 O   0  0  0  0  0  0  0  0  0  0  0  0
    1.0408    0.0013    0.0259 C   0  0  0  0  0  0  0  0  0  0  0  0
   -0.3804    0.4175   -0.0920 C   0  0  2  0  0  0  0  0  0  0  0  0
   -0.7754    0.7092   -1.4607 N   0  0  0  0  0  0  0  0  0  0  0  0
   -0.4869    1.7465    0.6743 C   0  0  0  0  0  0  0  0  0  0  0  0
    0.3732    2.7500    0.1207 N   0  0  0  0  0  0  0  0  0  0  0  0
   -1.3680   -0.5093    0.5332 C   0  0  0  0  0  0  0  0  0  0  0  0
   -1.3624   -1.8989   -0.0280 C   0  0  0  0  0  0  0  0  0  0  0  0
   -2.3522   -2.6186    0.6813 O   0  0  0  0  0  0  0  0  0  0  0  0
    2.9692   -1.5077    0.6511 H   0  0  0  0  0  0  0  0  0  0  0  0
    3.0117   -2.3189   -0.9285 H   0  0  0  0  0  0  0  0  0  0  0  0
    3.3894   -0.5149   -0.7738 H   0  0  0  0  0  0  0  0  0  0  0  0
    1.2668   -0.1643    1.0943 H   0  0  0  0  0  0  0  0  0  0  0  0
    1.6767    0.8404   -0.3295 H   0  0  0  0  0  0  0  0  0  0  0  0
   -1.3337    1.5837   -1.5431 H   0  0  0  0  0  0  0  0  0  0  0  0
    0.0415    0.6867   -2.1050 H   0  0  0  0  0  0  0  0  0  0  0  0
   -0.0964    1.5051    1.7040 H   0  0  0  0  0  0  0  0  0  0  0  0
   -1.5346    2.0381    0.7672 H   0  0  0  0  0  0  0  0  0  0  0  0
   -0.2381    3.5113   -0.2715 H   0  0  0  0  0  0  0  0  0  0  0  0
    0.9487    3.2228    0.8720 H   0  0  0  0  0  0  0  0  0  0  0  0
   -1.2686   -0.5147    1.6467 H   0  0  0  0  0  0  0  0  0  0  0  0
   -2.3879   -0.0891    0.3419 H   0  0  0  0  0  0  0  0  0  0  0  0
   -0.3908   -2.4169    0.0931 H   0  0  0  0  0  0  0  0  0  0  0  0
   -1.6905   -1.8772   -1.0839 H   0  0  0  0  0  0  0  0  0  0  0  0
   -3.2056   -2.1090    0.5157 H   0  0  0  0  0  0  0  0  0  0  0  0
  1  2  1  0
  2  3  1  0
  3  4  1  0
  4  5  1  6
  4  6  1  0
  6  7  1  0
  4  8  1  0
  8  9  1  0
  9 10  1  0
  1 11  1  0
  1 12  1  0
  1 13  1  0
  3 14  1  0
  3 15  1  0
  5 16  1  0
  5 17  1  0
  6 18  1  0
  6 19  1  0
  7 20  1  0
  7 21  1  0
  8 22  1  0
  8 23  1  0
  9 24  1  0
  9 25  1  0
 10 26  1  0
M  END
$$$$

     RDKit          3D

 26 25  0  0  0  0  0  0  0  0999 V2000
   -2.8935   -0.6049    0.9521 C   0  0  0  0  0  0  0  0  0  0  0  0
   -1.8232    0.2183    0.6610 O   0  0  0  0  0  0  0  0  0  0  0  0
   -0.6295   -0.5244    0.5071 C   0  0  0  0  0  0  0  0  0  0  0  0
    0.5149    0.3744    0.1940 C   0  0  2  0  0  0  0  0  0  0  0  0
    0.6610    1.3046    1.2776 N   0  0  0  0  0  0  0  0  0  0  0  0
    0.1529    1.1866   -1.0338 C   0  0  0  0  0  0  0  0  0  0  0  0
   -1.0420    1.9883   -0.7968 N   0  0  0  0  0  0  0  0  0  0  0  0
    1.8138   -0.2984   -0.0325 C   0  0  0  0  0  0  0  0  0  0  0  0
    1.8955   -1.2794   -1.1456 C   0  0  0  0  0  0  0  0  0  0  0  0
    1.0259   -2.3611   -1.0302 O   0  0  0  0  0  0  0  0  0  0  0  0
   -2.7560   -1.1819    1.8898 H   0  0  0  0  0  0  0  0  0  0  0  0
   -3.7838    0.0469    1.0548 H   0  0  0  0  0  0  0  0  0  0  0  0
   -3.0887   -1.2701    0.0865 H   0  0  0  0  0  0  0  0  0  0  0  0
   -0.5050   -1.0881    1.4549 H   0  0  0  0  0  0  0  0  0  0  0  0
   -0.8757   -1.2657   -0.2755 H   0  0  0  0  0  0  0  0  0  0  0  0
    1.5088    1.8822    1.2475 H   0  0  0  0  0  0  0  0  0  0  0  0
    0.3784    0.9527    2.1991 H   0  0  0  0  0  0  0  0  0  0  0  0
   -0.0099    0.5825   -1.9261 H   0  0  0  0  0  0  0  0  0  0  0  0
    0.9679    1.9085   -1.2632 H   0  0  0  0  0  0  0  0  0  0  0  0
   -1.0453    2.3672    0.1786 H   0  0  0  0  0  0  0  0  0  0  0  0
   -1.1844    2.7047   -1.5182 H   0  0  0  0  0  0  0  0  0  0  0  0
    2.1774   -0.8325    0.8953 H   0  0  0  0  0  0  0  0  0  0  0  0
    2.6162    0.4632   -0.2193 H   0  0  0  0  0  0  0  0  0  0  0  0
    2.9307   -1.7331   -1.0864 H   0  0  0  0  0  0  0  0  0  0  0  0
    1.8587   -0.8192   -2.1553 H   0  0  0  0  0  0  0  0  0  0  0  0
    1.1351   -2.7214   -0.1157 H   0  0  0  0  0  0  0  0  0  0  0  0
  1  2  1  0
  2  3  1  0
  3  4  1  0
  4  5  1  1
  4  6  1  0
  6  7  1  0
  4  8  1  0
  8  9  1  0
  9 10  1  0
  1 11  1  0
  1 12  1  0
  1 13  1  0
  3 14  1  0
  3 15  1  0
  5 16  1  0
  5 17  1  0
  6 18  1  0
  6 19  1  0
  7 20  1  0
  7 21  1  0
  8 22  1  0
  8 23  1  0
  9 24  1  0
  9 25  1  0
 10 26  1  0
M  END
$$$$

     RDKit          3D

 26 25  0  0  0  0  0  0  0  0999 V2000
    2.9782   -0.7458   -0.0192 C   0  0  0  0  0  0  0  0  0  0  0  0
    1.6378   -0.6409   -0.3422 O   0  0  0  0  0  0  0  0  0  0  0  0
    0.9821    0.3738    0.3012 C   0  0  0  0  0  0  0  0  0  0  0  0
   -0.4607    0.3768   -0.1378 C   0  0  2  0  0  0  0  0  0  0  0  0
   -0.4485    0.5604   -1.5855 N   0  0  0  0  0  0  0  0  0  0  0  0
   -1.2021    1.5750    0.4738 C   0  0  0  0  0  0  0  0  0  0  0  0
   -0.5968    2.8167    0.0573 N   0  0  0  0  0  0  0  0  0  0  0  0
   -1.1816   -0.8310    0.3198 C   0  0  0  0  0  0  0  0  0  0  0  0
   -0.6795   -2.1527   -0.1396 C   0  0  0  0  0  0  0  0  0  0  0  0
   -1.5617   -3.1126    0.4312 O   0  0  0  0  0  0  0  0  0  0  0  0
    3.1761   -0.9293    1.0422 H   0  0  0  0  0  0  0  0  0  0  0  0
    3.3764   -1.6341   -0.5768 H   0  0  0  0  0  0  0  0  0  0  0  0
    3.5430    0.1237   -0.3975 H   0  0  0  0  0  0  0  0  0  0  0  0
    1.0464    0.3006    1.4115 H   0  0  0  0  0  0  0  0  0  0  0  0
    1.4005    1.3894    0.0551 H   0  0  0  0  0  0  0  0  0  0  0  0
    0.3214    1.2370   -1.7874 H   0  0  0  0  0  0  0  0  0  0  0  0
   -1.3767    0.8919   -1.8920 H   0  0  0  0  0  0  0  0  0  0  0  0
   -1.1503    1.4942    1.5659 H   0  0  0  0  0  0  0  0  0  0  0  0
   -2.2409    1.5507    0.1113 H   0  0  0  0  0  0  0  0  0  0  0  0
   -1.2050    3.5846    0.4009 H   0  0  0  0  0  0  0  0  0  0  0  0
   -0.6254    2.8714   -0.9900 H   0  0  0  0  0  0  0  0  0  0  0  0
   -2.2439   -0.7499   -0.0636 H   0  0  0  0  0  0  0  0  0  0  0  0
   -1.2218   -0.8517    1.4326 H   0  0  0  0  0  0  0  0  0  0  0  0
    0.3333   -2.4138    0.2426 H   0  0  0  0  0  0  0  0  0  0  0  0
   -0.7498   -2.3109   -1.2306 H   0  0  0  0  0  0  0  0  0  0  0  0
   -1.8503   -2.7736    1.3167 H   0  0  0  0  0  0  0  0  0  0  0  0
  1  2  1  0
  2  3  1  0
  3  4  1  0
  4  5  1  6
  4  6  1  0
  6  7  1  0
  4  8  1  0
  8  9  1  0
  9 10  1  0
  1 11  1  0
  1 12  1  0
  1 13  1  0
  3 14  1  0
  3 15  1  0
  5 16  1  0
  5 17  1  0
  6 18  1  0
  6 19  1  0
  7 20  1  0
  7 21  1  0
  8 22  1  0
  8 23  1  0
  9 24  1  0
  9 25  1  0
 10 26  1  0
M  END
$$$$
