
     RDKit          3D

 23 23  0  0  0  0  0  0  0  0999 V2000
   -3.4876    0.4027    0.3524 N   0  0  0  0  0  0  0  0  0  0  0  0
   -2.9183   -0.7738   -0.2837 C   0  0  0  0  0  0  0  0  0  0  0  0
   -1.4833   -0.5124   -0.6860 C   0  0  0  0  0  0  0  0  0  0  0  0
   -0.6792   -0.1751    0.5481 C   0  0  1  0  0  0  0  0  0  0  0  0
   -0.7360   -1.2497    1.4342 O   0  0  0  0  0  0  0  0  0  0  0  0
    0.7398    0.1170    0.2222 C   0  0  0  0  0  0  0  0  0  0  0  0
    1.6336   -0.8405   -0.0778 N   0  0  0  0  0  0  0  0  0  0  0  0
    2.9257   -0.5534   -0.3728 C   0  0  0  0  0  0  0  0  0  0  0  0
    3.8508   -1.5464   -0.6834 O   0  0  0  0  0  0  0  0  0  0  0  0
    3.3469    0.7135   -0.3718 N   0  0  0  0  0  0  0  0  0  0  0  0
    2.4643    1.6981   -0.0724 C   0  0  0  0  0  0  0  0  0  0  0  0
    2.9456    2.9891   -0.0842 O   0  0  0  0  0  0  0  0  0  0  0  0
    1.1894    1.3862    0.2164 N   0  0  0  0  0  0  0  0  0  0  0  0
   -3.1477    0.4979    1.3267 H   0  0  0  0  0  0  0  0  0  0  0  0
   -3.1814    1.2195   -0.2252 H   0  0  0  0  0  0  0  0  0  0  0  0
   -3.5403   -1.0413   -1.1611 H   0  0  0  0  0  0  0  0  0  0  0  0
   -2.8993   -1.6440    0.4343 H   0  0  0  0  0  0  0  0  0  0  0  0
   -1.1120   -1.4475   -1.1525 H   0  0  0  0  0  0  0  0  0  0  0  0
   -1.4488    0.2685   -1.4429 H   0  0  0  0  0  0  0  0  0  0  0  0
   -1.1321    0.6871    1.0697 H   0  0  0  0  0  0  0  0  0  0  0  0
   -0.1478   -1.9573    1.0655 H   0  0  0  0  0  0  0  0  0  0  0  0
    4.3581   -1.9884    0.0990 H   0  0  0  0  0  0  0  0  0  0  0  0
    2.4596    3.7504    0.3657 H   0  0  0  0  0  0  0  0  0  0  0  0
  1  2  1  0
  2  3  1  0
  3  4  1  0
  4  5  1  0
  4  6  1  0
  6  7  2  0
  7  8  1  0
  8  9  1  0
  8 10  2  0
 10 11  1  0
 11 12  1  0
 11 13  2  0
 13  6  1  0
  1 14  1  0
  1 15  1  0
  2 16  1  0
  2 17  1  0
  3 18  1  0
  3 19  1  0
  4 20  1  1
  5 21  1  0
  9 22  1  0
 12 23  1  0
M  END
$$$$

     RDKit          3D

 23 23  0  0  0  0  0  0  0  0999 V2000
    3.2463   -1.3270   -0.4493 N   0  0  0  0  0  0  0  0  0  0  0  0
    2.0650   -0.4773   -0.6174 C   0  0  0  0  0  0  0  0  0  0  0  0
    1.8119    0.2053    0.6955 C   0  0  0  0  0  0  0  0  0  0  0  0
    0.6301    1.1091    0.6723 C   0  0  1  0  0  0  0  0  0  0  0  0
    0.8293    2.0962   -0.2841 O   0  0  0  0  0  0  0  0  0  0  0  0
   -0.6426    0.4452    0.4185 C   0  0  0  0  0  0  0  0  0  0  0  0
   -0.8615   -0.8654    0.4350 N   0  0  0  0  0  0  0  0  0  0  0  0
   -2.0788   -1.3810    0.1862 C   0  0  0  0  0  0  0  0  0  0  0  0
   -2.2846   -2.7640    0.2093 O   0  0  0  0  0  0  0  0  0  0  0  0
   -3.1204   -0.5663   -0.0898 N   0  0  0  0  0  0  0  0  0  0  0  0
   -2.9256    0.7481   -0.1119 C   0  0  0  0  0  0  0  0  0  0  0  0
   -3.9682    1.6172   -0.3909 O   0  0  0  0  0  0  0  0  0  0  0  0
   -1.7150    1.2386    0.1366 N   0  0  0  0  0  0  0  0  0  0  0  0
    3.1152   -2.1973   -1.0010 H   0  0  0  0  0  0  0  0  0  0  0  0
    4.1059   -0.8641   -0.8023 H   0  0  0  0  0  0  0  0  0  0  0  0
    2.2926    0.3245   -1.3620 H   0  0  0  0  0  0  0  0  0  0  0  0
    1.2087   -1.0438   -1.0021 H   0  0  0  0  0  0  0  0  0  0  0  0
    2.7132    0.8348    0.9099 H   0  0  0  0  0  0  0  0  0  0  0  0
    1.7680   -0.5301    1.5323 H   0  0  0  0  0  0  0  0  0  0  0  0
    0.5662    1.6213    1.6561 H   0  0  0  0  0  0  0  0  0  0  0  0
   -0.0329    2.3400   -0.7056 H   0  0  0  0  0  0  0  0  0  0  0  0
   -2.8319   -3.1605   -0.5346 H   0  0  0  0  0  0  0  0  0  0  0  0
   -3.8909    2.5964   -0.1678 H   0  0  0  0  0  0  0  0  0  0  0  0
  1  2  1  0
  2  3  1  0
  3  4  1  0
  4  5  1  0
  4  6  1  0
  6  7  2  0
  7  8  1  0
  8  9  1  0
  8 10  2  0
 10 11  1  0
 11 12  1  0
 11 13  2  0
 13  6  1  0
  1 14  1  0
  1 15  1  0
  2 16  1  0
  2 17  1  0
  3 18  1  0
  3 19  1  0
  4 20  1  1
  5 21  1  0
  9 22  1  0
 12 23  1  0
M  END
$$$$

     RDKit          3D

 23 23  0  0  0  0  0  0  0  0999 V2000
   -2.7096    1.2482    0.0581 N   0  0  0  0  0  0  0  0  0  0  0  0
   -2.2515    0.1362    0.8466 C   0  0  0  0  0  0  0  0  0  0  0  0
   -1.8455   -1.0248   -0.0374 C   0  0  0  0  0  0  0  0  0  0  0  0
   -0.7256   -0.6365   -0.9800 C   0  0  1  0  0  0  0  0  0  0  0  0
   -1.0729    0.3989   -1.8176 O   0  0  0  0  0  0  0  0  0  0  0  0
    0.5373   -0.3751   -0.2495 C   0  0  0  0  0  0  0  0  0  0  0  0
    0.7772    0.8144    0.3279 N   0  0  0  0  0  0  0  0  0  0  0  0
    1.9442    1.0427    0.9977 C   0  0  0  0  0  0  0  0  0  0  0  0
    2.1435    2.2948    1.5790 O   0  0  0  0  0  0  0  0  0  0  0  0
    2.8714    0.0879    1.0926 N   0  0  0  0  0  0  0  0  0  0  0  0
    2.6460   -1.0902    0.5268 C   0  0  0  0  0  0  0  0  0  0  0  0
    3.5918   -2.0847    0.6158 O   0  0  0  0  0  0  0  0  0  0  0  0
    1.5027   -1.3137   -0.1293 N   0  0  0  0  0  0  0  0  0  0  0  0
   -3.1186    0.9838   -0.8453 H   0  0  0  0  0  0  0  0  0  0  0  0
   -2.0122    2.0228    0.0002 H   0  0  0  0  0  0  0  0  0  0  0  0
   -1.4029    0.3991    1.5104 H   0  0  0  0  0  0  0  0  0  0  0  0
   -3.0773   -0.2484    1.4976 H   0  0  0  0  0  0  0  0  0  0  0  0
   -1.4870   -1.8613    0.5927 H   0  0  0  0  0  0  0  0  0  0  0  0
   -2.7366   -1.3138   -0.6301 H   0  0  0  0  0  0  0  0  0  0  0  0
   -0.5354   -1.5474   -1.6130 H   0  0  0  0  0  0  0  0  0  0  0  0
   -0.4924    1.1869   -1.6853 H   0  0  0  0  0  0  0  0  0  0  0  0
    2.9267    2.9014    1.3041 H   0  0  0  0  0  0  0  0  0  0  0  0
    4.5266   -2.0213    0.2300 H   0  0  0  0  0  0  0  0  0  0  0  0
  1  2  1  0
  2  3  1  0
  3  4  1  0
  4  5  1  0
  4  6  1  0
  6  7  2  0
  7  8  1  0
  8  9  1  0
  8 10  2  0
 10 11  1  0
 11 12  1  0
 11 13  2  0
 13  6  1  0
  1 14  1  0
  1 15  1  0
  2 16  1  0
  2 17  1  0
  3 18  1  0
  3 19  1  0
  4 20  1  6
  5 21  1  0
  9 22  1  0
 12 23  1  0
M  END
$$$$

     RDKit          3D

 23 23  0  0  0  0  0  0  0  0999 V2000
    3.5520    0.2837    0.2359 N   0  0  0  0  0  0  0  0  0  0  0  0
    2.7640   -0.8748    0.5835 C   0  0  0  0  0  0  0  0  0  0  0  0
    1.2994   -0.5525    0.7038 C   0  0  0  0  0  0  0  0  0  0  0  0
    0.7212   -0.0121   -0.5816 C   0  0  1  0  0  0  0  0  0  0  0  0
    0.8631   -0.9539   -1.6162 O   0  0  0  0  0  0  0  0  0  0  0  0
   -0.7330    0.1953   -0.3565 C   0  0  0  0  0  0  0  0  0  0  0  0
   -1.6015   -0.8536   -0.2909 N   0  0  0  0  0  0  0  0  0  0  0  0
   -2.9115   -0.6705   -0.0883 C   0  0  0  0  0  0  0  0  0  0  0  0
   -3.7925   -1.7279   -0.0214 O   0  0  0  0  0  0  0  0  0  0  0  0
   -3.3918    0.5701    0.0549 N   0  0  0  0  0  0  0  0  0  0  0  0
   -2.5759    1.6463   -0.0014 C   0  0  0  0  0  0  0  0  0  0  0  0
   -3.1343    2.9070    0.1544 O   0  0  0  0  0  0  0  0  0  0  0  0
   -1.2718    1.4184   -0.2058 N   0  0  0  0  0  0  0  0  0  0  0  0
    3.8035    0.3281   -0.7644 H   0  0  0  0  0  0  0  0  0  0  0  0
    3.1693    1.1670    0.6157 H   0  0  0  0  0  0  0  0  0  0  0  0
    3.1049   -1.2213    1.5814 H   0  0  0  0  0  0  0  0  0  0  0  0
    2.9056   -1.6860   -0.1626 H   0  0  0  0  0  0  0  0  0  0  0  0
    0.7647   -1.4823    0.9668 H   0  0  0  0  0  0  0  0  0  0  0  0
    1.1556    0.2032    1.4862 H   0  0  0  0  0  0  0  0  0  0  0  0
    1.1963    0.9037   -0.9251 H   0  0  0  0  0  0  0  0  0  0  0  0
    0.2676   -0.7243   -2.3695 H   0  0  0  0  0  0  0  0  0  0  0  0
   -3.6746   -2.5171    0.5985 H   0  0  0  0  0  0  0  0  0  0  0  0
   -2.4802    3.6535    0.4028 H   0  0  0  0  0  0  0  0  0  0  0  0
  1  2  1  0
  2  3  1  0
  3  4  1  0
  4  5  1  0
  4  6  1  0
  6  7  2  0
  7  8  1  0
  8  9  1  0
  8 10  2  0
 10 11  1  0
 11 12  1  0
 11 13  2  0
 13  6  1  0
  1 14  1  0
  1 15  1  0
  2 16  1  0
  2 17  1  0
  3 18  1  0
  3 19  1  0
  4 20  1  6
  5 21  1  0
  9 22  1  0
 12 23  1  0
M  END
$$$$

     RDKit          3D

 23 23  0  0  0  0  0  0  0  0999 V2000
   -3.9391    0.7874   -0.2307 N   0  0  0  0  0  0  0  0  0  0  0  0
   -2.8983   -0.1026    0.1687 C   0  0  0  0  0  0  0  0  0  0  0  0
   -1.5033    0.5006   -0.0504 C   0  0  0  0  0  0  0  0  0  0  0  0
   -0.5394   -0.5591    0.4183 C   0  0  1  0  0  0  0  0  0  0  0  0
   -0.7875   -1.6940   -0.3898 O   0  0  0  0  0  0  0  0  0  0  0  0
    0.8728   -0.1991    0.2063 C   0  0  0  0  0  0  0  0  0  0  0  0
    1.7727   -1.2013    0.2184 N   0  0  0  0  0  0  0  0  0  0  0  0
    3.0869   -1.0267    0.0403 C   0  0  0  0  0  0  0  0  0  0  0  0
    3.9798   -2.1137    0.0635 O   0  0  0  0  0  0  0  0  0  0  0  0
    3.5241    0.2300   -0.1623 N   0  0  0  0  0  0  0  0  0  0  0  0
    2.6445    1.2712   -0.1816 C   0  0  0  0  0  0  0  0  0  0  0  0
    3.1495    2.5282   -0.3923 O   0  0  0  0  0  0  0  0  0  0  0  0
    1.3231    1.0375    0.0045 N   0  0  0  0  0  0  0  0  0  0  0  0
   -4.8072    0.7195    0.3486 H   0  0  0  0  0  0  0  0  0  0  0  0
   -3.6563    1.7475   -0.4450 H   0  0  0  0  0  0  0  0  0  0  0  0
   -2.9498   -1.0794   -0.3341 H   0  0  0  0  0  0  0  0  0  0  0  0
   -3.0255   -0.3132    1.2646 H   0  0  0  0  0  0  0  0  0  0  0  0
   -1.4010    1.4512    0.4806 H   0  0  0  0  0  0  0  0  0  0  0  0
   -1.4259    0.6603   -1.1532 H   0  0  0  0  0  0  0  0  0  0  0  0
   -0.7860   -0.8246    1.4489 H   0  0  0  0  0  0  0  0  0  0  0  0
   -0.3277   -1.4683   -1.2605 H   0  0  0  0  0  0  0  0  0  0  0  0
    3.6568   -3.0173   -0.2811 H   0  0  0  0  0  0  0  0  0  0  0  0
    4.0370    2.6663   -0.8521 H   0  0  0  0  0  0  0  0  0  0  0  0
  1  2  1  0
  2  3  1  0
  3  4  1  0
  4  5  1  0
  4  6  1  0
  6  7  2  0
  7  8  1  0
  8  9  1  0
  8 10  2  0
 10 11  1  0
 11 12  1  0
 11 13  2  0
 13  6  1  0
  1 14  1  0
  1 15  1  0
  2 16  1  0
  2 17  1  0
  3 18  1  0
  3 19  1  0
  4 20  1  1
  5 21  1  0
  9 22  1  0
 12 23  1  0
M  END
$$$$

     RDKit          3D

 23 23  0  0  0  0  0  0  0  0999 V2000
   -3.8585    0.9539   -0.4008 N   0  0  0  0  0  0  0  0  0  0  0  0
   -2.9371   -0.1507   -0.4767 C   0  0  0  0  0  0  0  0  0  0  0  0
   -1.5007    0.3138   -0.2879 C   0  0  0  0  0  0  0  0  0  0  0  0
   -0.5395   -0.8271   -0.3655 C   0  0  1  0  0  0  0  0  0  0  0  0
   -0.5810   -1.4935   -1.5856 O   0  0  0  0  0  0  0  0  0  0  0  0
    0.8147   -0.3862   -0.0077 C   0  0  0  0  0  0  0  0  0  0  0  0
    1.8533   -1.2516   -0.1671 N   0  0  0  0  0  0  0  0  0  0  0  0
    3.0849   -0.8781    0.1484 C   0  0  0  0  0  0  0  0  0  0  0  0
    4.1246   -1.7783   -0.0233 O   0  0  0  0  0  0  0  0  0  0  0  0
    3.3218    0.3370    0.6212 N   0  0  0  0  0  0  0  0  0  0  0  0
    2.2880    1.2012    0.7808 C   0  0  0  0  0  0  0  0  0  0  0  0
    2.5528    2.4520    1.2706 O   0  0  0  0  0  0  0  0  0  0  0  0
    1.0372    0.8377    0.4661 N   0  0  0  0  0  0  0  0  0  0  0  0
   -4.2788    0.9984    0.5330 H   0  0  0  0  0  0  0  0  0  0  0  0
   -3.4285    1.8597   -0.6794 H   0  0  0  0  0  0  0  0  0  0  0  0
   -3.1944   -0.8707    0.3102 H   0  0  0  0  0  0  0  0  0  0  0  0
   -3.0068   -0.6888   -1.4650 H   0  0  0  0  0  0  0  0  0  0  0  0
   -1.4077    0.7700    0.7142 H   0  0  0  0  0  0  0  0  0  0  0  0
   -1.2831    1.0227   -1.1100 H   0  0  0  0  0  0  0  0  0  0  0  0
   -0.8537   -1.5765    0.4044 H   0  0  0  0  0  0  0  0  0  0  0  0
    0.1033   -1.1341   -2.2019 H   0  0  0  0  0  0  0  0  0  0  0  0
    4.1954   -2.5189    0.6693 H   0  0  0  0  0  0  0  0  0  0  0  0
    3.4936    2.8080    1.3626 H   0  0  0  0  0  0  0  0  0  0  0  0
  1  2  1  0
  2  3  1  0
  3  4  1  0
  4  5  1  0
  4  6  1  0
  6  7  2  0
  7  8  1  0
  8  9  1  0
  8 10  2  0
 10 11  1  0
 11 12  1  0
 11 13  2  0
 13  6  1  0
  1 14  1  0
  1 15  1  0
  2 16  1  0
  2 17  1  0
  3 18  1  0
  3 19  1  0
  4 20  1  1
  5 21  1  0
  9 22  1  0
 12 23  1  0
M  END
$$$$

     RDKit          3D

 23 23  0  0  0  0  0  0  0  0999 V2000
   -3.9101    0.7623    0.2312 N   0  0  0  0  0  0  0  0  0  0  0  0
   -2.8527   -0.2210    0.3591 C   0  0  0  0  0  0  0  0  0  0  0  0
   -1.4885    0.3976    0.0793 C   0  0  0  0  0  0  0  0  0  0  0  0
   -0.4761   -0.7326    0.2463 C   0  0  1  0  0  0  0  0  0  0  0  0
   -0.7729   -1.7487   -0.6655 O   0  0  0  0  0  0  0  0  0  0  0  0
    0.9010   -0.2641    0.0687 C   0  0  0  0  0  0  0  0  0  0  0  0
    1.2032    1.0401    0.0522 N   0  0  0  0  0  0  0  0  0  0  0  0
    2.4921    1.3932   -0.1156 C   0  0  0  0  0  0  0  0  0  0  0  0
    2.9015    2.7274   -0.1460 O   0  0  0  0  0  0  0  0  0  0  0  0
    3.4710    0.4602   -0.2657 N   0  0  0  0  0  0  0  0  0  0  0  0
    3.1497   -0.8461   -0.2467 C   0  0  0  0  0  0  0  0  0  0  0  0
    4.1103   -1.8232   -0.3951 O   0  0  0  0  0  0  0  0  0  0  0  0
    1.8756   -1.1714   -0.0803 N   0  0  0  0  0  0  0  0  0  0  0  0
   -4.6589    0.4386   -0.4461 H   0  0  0  0  0  0  0  0  0  0  0  0
   -3.5428    1.6622   -0.1122 H   0  0  0  0  0  0  0  0  0  0  0  0
   -2.8330   -0.6074    1.3932 H   0  0  0  0  0  0  0  0  0  0  0  0
   -2.9813   -1.0750   -0.3423 H   0  0  0  0  0  0  0  0  0  0  0  0
   -1.5050    0.7699   -0.9493 H   0  0  0  0  0  0  0  0  0  0  0  0
   -1.2781    1.1823    0.8207 H   0  0  0  0  0  0  0  0  0  0  0  0
   -0.5989   -1.1665    1.2584 H   0  0  0  0  0  0  0  0  0  0  0  0
   -0.6083   -1.4808   -1.5947 H   0  0  0  0  0  0  0  0  0  0  0  0
    3.5336    3.0944    0.5685 H   0  0  0  0  0  0  0  0  0  0  0  0
    3.8685   -2.7916   -0.4225 H   0  0  0  0  0  0  0  0  0  0  0  0
  1  2  1  0
  2  3  1  0
  3  4  1  0
  4  5  1  0
  4  6  1  0
  6  7  2  0
  7  8  1  0
  8  9  1  0
  8 10  2  0
 10 11  1  0
 11 12  1  0
 11 13  2  0
 13  6  1  0
  1 14  1  0
  1 15  1  0
  2 16  1  0
  2 17  1  0
  3 18  1  0
  3 19  1  0
  4 20  1  1
  5 21  1  0
  9 22  1  0
 12 23  1  0
M  END
$$$$

     RDKit          3D

 23 23  0  0  0  0  0  0  0  0999 V2000
    3.3098   -1.0857    0.1721 N   0  0  0  0  0  0  0  0  0  0  0  0
    2.8719    0.2899   -0.0930 C   0  0  0  0  0  0  0  0  0  0  0  0
    1.4190    0.3336   -0.4467 C   0  0  0  0  0  0  0  0  0  0  0  0
    0.6353   -0.2315    0.7302 C   0  0  1  0  0  0  0  0  0  0  0  0
    0.9182    0.5750    1.8249 O   0  0  0  0  0  0  0  0  0  0  0  0
   -0.7990   -0.1546    0.4109 C   0  0  0  0  0  0  0  0  0  0  0  0
   -1.4834   -1.2667    0.1468 N   0  0  0  0  0  0  0  0  0  0  0  0
   -2.7893   -1.1717   -0.1416 C   0  0  0  0  0  0  0  0  0  0  0  0
   -3.4809   -2.3496   -0.4137 O   0  0  0  0  0  0  0  0  0  0  0  0
   -3.4165    0.0184   -0.1687 N   0  0  0  0  0  0  0  0  0  0  0  0
   -2.7238    1.1387    0.0980 C   0  0  0  0  0  0  0  0  0  0  0  0
   -3.3487    2.3750    0.0758 O   0  0  0  0  0  0  0  0  0  0  0  0
   -1.4131    1.0364    0.3868 N   0  0  0  0  0  0  0  0  0  0  0  0
    3.0156   -1.7303   -0.6011 H   0  0  0  0  0  0  0  0  0  0  0  0
    4.3713   -1.0274    0.2003 H   0  0  0  0  0  0  0  0  0  0  0  0
    3.5008    0.7586   -0.8888 H   0  0  0  0  0  0  0  0  0  0  0  0
    3.0069    0.8556    0.8633 H   0  0  0  0  0  0  0  0  0  0  0  0
    1.1231    1.3972   -0.5278 H   0  0  0  0  0  0  0  0  0  0  0  0
    1.1879   -0.1671   -1.3914 H   0  0  0  0  0  0  0  0  0  0  0  0
    0.9749   -1.2550    0.9334 H   0  0  0  0  0  0  0  0  0  0  0  0
    0.1127    0.9529    2.2561 H   0  0  0  0  0  0  0  0  0  0  0  0
   -4.0703   -2.3704   -1.2574 H   0  0  0  0  0  0  0  0  0  0  0  0
   -2.9224    3.0789   -0.5257 H   0  0  0  0  0  0  0  0  0  0  0  0
  1  2  1  0
  2  3  1  0
  3  4  1  0
  4  5  1  0
  4  6  1  0
  6  7  2  0
  7  8  1  0
  8  9  1  0
  8 10  2  0
 10 11  1  0
 11 12  1  0
 11 13  2  0
 13  6  1  0
  1 14  1  0
  1 15  1  0
  2 16  1  0
  2 17  1  0
  3 18  1  0
  3 19  1  0
  4 20  1  1
  5 21  1  0
  9 22  1  0
 12 23  1  0
M  END
$$$$
