
     RDKit          3D

 26 27  0  0  0  0  0  0  0  0999 V2000
   -2.9028   -0.1772   -2.0745 O   0  0  0  0  0  0  0  0  0  0  0  0
   -1.9240    0.2570   -1.2074 C   0  0  1  0  0  0  0  0  0  0  0  0
   -2.5019    0.6630    0.1300 C   0  0  0  0  0  0  0  0  0  0  0  0
   -1.4865    0.7001    1.2208 C   0  0  0  0  0  0  0  0  0  0  0  0
   -0.1273    0.7701    0.7807 N   0  0  0  0  0  0  0  0  0  0  0  0
    0.2421   -0.1484   -0.2340 C   0  0  1  0  0  0  0  0  0  0  0  0
    1.2948   -1.1457    0.2224 C   0  0  0  0  0  0  0  0  0  0  0  0
    2.4664   -0.4045    0.6180 N   0  0  0  0  0  0  0  0  0  0  0  0
    3.5052   -0.0539   -0.1885 C   0  0  0  0  0  0  0  0  0  0  0  0
    4.4192    0.6313    0.5237 N   0  0  0  0  0  0  0  0  0  0  0  0
    3.9580    0.7070    1.7550 N   0  0  0  0  0  0  0  0  0  0  0  0
    2.7900    0.0867    1.8084 N   0  0  0  0  0  0  0  0  0  0  0  0
   -0.9216   -0.8558   -0.8874 C   0  0  0  0  0  0  0  0  0  0  0  0
   -3.0587    0.5476   -2.7415 H   0  0  0  0  0  0  0  0  0  0  0  0
   -1.3923    1.1399   -1.6137 H   0  0  0  0  0  0  0  0  0  0  0  0
   -3.2469   -0.1424    0.3977 H   0  0  0  0  0  0  0  0  0  0  0  0
   -3.0769    1.5864   -0.0023 H   0  0  0  0  0  0  0  0  0  0  0  0
   -1.5882   -0.1375    1.9517 H   0  0  0  0  0  0  0  0  0  0  0  0
   -1.6814    1.6276    1.8264 H   0  0  0  0  0  0  0  0  0  0  0  0
    0.4843    0.6444    1.6185 H   0  0  0  0  0  0  0  0  0  0  0  0
    0.7387    0.4431   -1.0597 H   0  0  0  0  0  0  0  0  0  0  0  0
    1.5367   -1.7984   -0.6348 H   0  0  0  0  0  0  0  0  0  0  0  0
    0.8725   -1.7687    1.0352 H   0  0  0  0  0  0  0  0  0  0  0  0
    3.5925   -0.2850   -1.2399 H   0  0  0  0  0  0  0  0  0  0  0  0
   -0.5526   -1.3399   -1.8089 H   0  0  0  0  0  0  0  0  0  0  0  0
   -1.4393   -1.5466   -0.1960 H   0  0  0  0  0  0  0  0  0  0  0  0
  1  2  1  0
  2  3  1  0
  3  4  1  0
  4  5  1  0
  5  6  1  0
  6  7  1  0
  7  8  1  0
  8  9  1  0
  9 10  2  0
 10 11  1  0
 11 12  2  0
  6 13  1  0
 13  2  1  0
 12  8  1  0
  1 14  1  0
  2 15  1  6
  3 16  1  0
  3 17  1  0
  4 18  1  0
  4 19  1  0
  5 20  1  0
  6 21  1  6
  7 22  1  0
  7 23  1  0
  9 24  1  0
 13 25  1  0
 13 26  1  0
M  END
$$$$

     RDKit          3D

 26 27  0  0  0  0  0  0  0  0999 V2000
   -2.0554    2.1105    0.7977 O   0  0  0  0  0  0  0  0  0  0  0  0
   -1.6184    0.8383    0.4936 C   0  0  1  0  0  0  0  0  0  0  0  0
   -2.5770    0.0990   -0.4154 C   0  0  0  0  0  0  0  0  0  0  0  0
   -2.0826   -1.2751   -0.6855 C   0  0  0  0  0  0  0  0  0  0  0  0
   -0.7135   -1.4036   -0.9835 N   0  0  0  0  0  0  0  0  0  0  0  0
    0.1815   -0.5604   -0.2829 C   0  0  1  0  0  0  0  0  0  0  0  0
    1.5866   -0.7293   -0.7810 C   0  0  0  0  0  0  0  0  0  0  0  0
    2.5390    0.0995   -0.1093 N   0  0  0  0  0  0  0  0  0  0  0  0
    3.2510   -0.1819    0.9907 C   0  0  0  0  0  0  0  0  0  0  0  0
    4.0223    0.8786    1.2763 N   0  0  0  0  0  0  0  0  0  0  0  0
    3.7798    1.7932    0.3583 N   0  0  0  0  0  0  0  0  0  0  0  0
    2.8844    1.3167   -0.4740 N   0  0  0  0  0  0  0  0  0  0  0  0
   -0.2803    0.8656   -0.2603 C   0  0  0  0  0  0  0  0  0  0  0  0
   -2.5936    2.0578    1.6214 H   0  0  0  0  0  0  0  0  0  0  0  0
   -1.4535    0.2050    1.3848 H   0  0  0  0  0  0  0  0  0  0  0  0
   -2.6589    0.6542   -1.3621 H   0  0  0  0  0  0  0  0  0  0  0  0
   -3.5594    0.0575    0.0870 H   0  0  0  0  0  0  0  0  0  0  0  0
   -2.6753   -1.6845   -1.5531 H   0  0  0  0  0  0  0  0  0  0  0  0
   -2.3328   -1.9121    0.2018 H   0  0  0  0  0  0  0  0  0  0  0  0
   -0.4519   -1.6815   -1.9284 H   0  0  0  0  0  0  0  0  0  0  0  0
    0.1897   -0.8978    0.7964 H   0  0  0  0  0  0  0  0  0  0  0  0
    1.9255   -1.7807   -0.6744 H   0  0  0  0  0  0  0  0  0  0  0  0
    1.5700   -0.5431   -1.8922 H   0  0  0  0  0  0  0  0  0  0  0  0
    3.2557   -1.0818    1.5940 H   0  0  0  0  0  0  0  0  0  0  0  0
   -0.5594    1.2024   -1.3017 H   0  0  0  0  0  0  0  0  0  0  0  0
    0.4266    1.5536    0.1996 H   0  0  0  0  0  0  0  0  0  0  0  0
  1  2  1  0
  2  3  1  0
  3  4  1  0
  4  5  1  0
  5  6  1  0
  6  7  1  0
  7  8  1  0
  8  9  1  0
  9 10  2  0
 10 11  1  0
 11 12  2  0
  6 13  1  0
 13  2  1  0
 12  8  1  0
  1 14  1  0
  2 15  1  1
  3 16  1  0
  3 17  1  0
  4 18  1  0
  4 19  1  0
  5 20  1  0
  6 21  1  1
  7 22  1  0
  7 23  1  0
  9 24  1  0
 13 25  1  0
 13 26  1  0
M  END
$$$$

     RDKit          3D

 26 27  0  0  0  0  0  0  0  0999 V2000
   -1.8703    1.8610   -1.2925 O   0  0  0  0  0  0  0  0  0  0  0  0
   -1.5924    1.2270   -0.0807 C   0  0  1  0  0  0  0  0  0  0  0  0
   -2.6119    0.1547    0.1278 C   0  0  0  0  0  0  0  0  0  0  0  0
   -2.0484   -1.1427   -0.3971 C   0  0  0  0  0  0  0  0  0  0  0  0
   -0.9693   -1.5353    0.4604 N   0  0  0  0  0  0  0  0  0  0  0  0
    0.0465   -0.5509    0.6365 C   0  0  1  0  0  0  0  0  0  0  0  0
    1.3539   -1.1752    0.1871 C   0  0  0  0  0  0  0  0  0  0  0  0
    2.4724   -0.3024    0.3055 N   0  0  0  0  0  0  0  0  0  0  0  0
    2.9077    0.5386   -0.6479 C   0  0  0  0  0  0  0  0  0  0  0  0
    3.9935    1.2056   -0.1736 N   0  0  0  0  0  0  0  0  0  0  0  0
    4.1968    0.7573    1.0578 N   0  0  0  0  0  0  0  0  0  0  0  0
    3.2701   -0.1508    1.3285 N   0  0  0  0  0  0  0  0  0  0  0  0
   -0.1793    0.7435   -0.0582 C   0  0  0  0  0  0  0  0  0  0  0  0
   -1.0569    1.9129   -1.8747 H   0  0  0  0  0  0  0  0  0  0  0  0
   -1.7738    2.0091    0.7107 H   0  0  0  0  0  0  0  0  0  0  0  0
   -2.8292    0.0239    1.2154 H   0  0  0  0  0  0  0  0  0  0  0  0
   -3.5443    0.4528   -0.3941 H   0  0  0  0  0  0  0  0  0  0  0  0
   -1.6331   -0.9492   -1.4009 H   0  0  0  0  0  0  0  0  0  0  0  0
   -2.8045   -1.9551   -0.3784 H   0  0  0  0  0  0  0  0  0  0  0  0
   -1.2671   -2.0112    1.3331 H   0  0  0  0  0  0  0  0  0  0  0  0
    0.1527   -0.3608    1.7343 H   0  0  0  0  0  0  0  0  0  0  0  0
    1.1767   -1.5400   -0.8586 H   0  0  0  0  0  0  0  0  0  0  0  0
    1.4708   -2.1117    0.7937 H   0  0  0  0  0  0  0  0  0  0  0  0
    2.5179    0.7071   -1.6314 H   0  0  0  0  0  0  0  0  0  0  0  0
    0.4457    1.5359    0.4064 H   0  0  0  0  0  0  0  0  0  0  0  0
    0.1760    0.6558   -1.1091 H   0  0  0  0  0  0  0  0  0  0  0  0
  1  2  1  0
  2  3  1  0
  3  4  1  0
  4  5  1  0
  5  6  1  0
  6  7  1  0
  7  8  1  0
  8  9  1  0
  9 10  2  0
 10 11  1  0
 11 12  2  0
  6 13  1  0
 13  2  1  0
 12  8  1  0
  1 14  1  0
  2 15  1  1
  3 16  1  0
  3 17  1  0
  4 18  1  0
  4 19  1  0
  5 20  1  0
  6 21  1  1
  7 22  1  0
  7 23  1  0
  9 24  1  0
 13 25  1  0
 13 26  1  0
M  END
$$$$

     RDKit          3D

 26 27  0  0  0  0  0  0  0  0999 V2000
   -3.3274    0.9071    1.0211 O   0  0  0  0  0  0  0  0  0  0  0  0
   -2.1446    0.1695    0.8940 C   0  0  1  0  0  0  0  0  0  0  0  0
   -2.2565   -0.8974   -0.1334 C   0  0  0  0  0  0  0  0  0  0  0  0
   -1.3044   -0.8113   -1.2732 C   0  0  0  0  0  0  0  0  0  0  0  0
   -0.0128   -0.3222   -0.9980 N   0  0  0  0  0  0  0  0  0  0  0  0
    0.1888    0.2136    0.3114 C   0  0  1  0  0  0  0  0  0  0  0  0
    1.4896    0.9510    0.4162 C   0  0  0  0  0  0  0  0  0  0  0  0
    2.5732    0.0608    0.1254 N   0  0  0  0  0  0  0  0  0  0  0  0
    3.0966   -0.1578   -1.0867 C   0  0  0  0  0  0  0  0  0  0  0  0
    4.0929   -1.0634   -0.9126 N   0  0  0  0  0  0  0  0  0  0  0  0
    4.1519   -1.3685    0.3725 N   0  0  0  0  0  0  0  0  0  0  0  0
    3.2163   -0.6750    1.0047 N   0  0  0  0  0  0  0  0  0  0  0  0
   -0.9941    1.1185    0.6014 C   0  0  0  0  0  0  0  0  0  0  0  0
   -3.1764    1.6038    1.7131 H   0  0  0  0  0  0  0  0  0  0  0  0
   -1.9353   -0.2557    1.9103 H   0  0  0  0  0  0  0  0  0  0  0  0
   -3.2925   -0.8584   -0.5532 H   0  0  0  0  0  0  0  0  0  0  0  0
   -2.1840   -1.8880    0.3739 H   0  0  0  0  0  0  0  0  0  0  0  0
   -1.7451   -0.2250   -2.1183 H   0  0  0  0  0  0  0  0  0  0  0  0
   -1.1933   -1.8572   -1.6895 H   0  0  0  0  0  0  0  0  0  0  0  0
    0.7682   -0.9251   -1.3443 H   0  0  0  0  0  0  0  0  0  0  0  0
    0.2106   -0.6238    1.0331 H   0  0  0  0  0  0  0  0  0  0  0  0
    1.5103    1.8421   -0.2666 H   0  0  0  0  0  0  0  0  0  0  0  0
    1.5920    1.3003    1.4643 H   0  0  0  0  0  0  0  0  0  0  0  0
    2.7863    0.2977   -2.0208 H   0  0  0  0  0  0  0  0  0  0  0  0
   -0.8171    1.7766    1.4668 H   0  0  0  0  0  0  0  0  0  0  0  0
   -1.2930    1.6878   -0.3116 H   0  0  0  0  0  0  0  0  0  0  0  0
  1  2  1  0
  2  3  1  0
  3  4  1  0
  4  5  1  0
  5  6  1  0
  6  7  1  0
  7  8  1  0
  8  9  1  0
  9 10  2  0
 10 11  1  0
 11 12  2  0
  6 13  1  0
 13  2  1  0
 12  8  1  0
  1 14  1  0
  2 15  1  1
  3 16  1  0
  3 17  1  0
  4 18  1  0
  4 19  1  0
  5 20  1  0
  6 21  1  1
  7 22  1  0
  7 23  1  0
  9 24  1  0
 13 25  1  0
 13 26  1  0
M  END
$$$$

     RDKit          3D

 26 27  0  0  0  0  0  0  0  0999 V2000
   -1.4341    0.5574   -1.3335 O   0  0  0  0  0  0  0  0  0  0  0  0
   -1.4968    1.1175   -0.0758 C   0  0  1  0  0  0  0  0  0  0  0  0
   -2.5614    0.3592    0.7020 C   0  0  0  0  0  0  0  0  0  0  0  0
   -2.0948   -1.0620    0.8417 C   0  0  0  0  0  0  0  0  0  0  0  0
   -0.9376   -1.3711    0.0833 N   0  0  0  0  0  0  0  0  0  0  0  0
    0.2138   -0.5666    0.3587 C   0  0  1  0  0  0  0  0  0  0  0  0
    1.1905   -0.5987   -0.7667 C   0  0  0  0  0  0  0  0  0  0  0  0
    2.3443    0.2078   -0.4677 N   0  0  0  0  0  0  0  0  0  0  0  0
    3.4629   -0.2418    0.1751 C   0  0  0  0  0  0  0  0  0  0  0  0
    4.2838    0.8065    0.2310 N   0  0  0  0  0  0  0  0  0  0  0  0
    3.6956    1.8477   -0.3499 N   0  0  0  0  0  0  0  0  0  0  0  0
    2.5083    1.4711   -0.7745 N   0  0  0  0  0  0  0  0  0  0  0  0
   -0.1780    0.8501    0.6648 C   0  0  0  0  0  0  0  0  0  0  0  0
   -2.2263   -0.0050   -1.5501 H   0  0  0  0  0  0  0  0  0  0  0  0
   -1.7112    2.2149   -0.0895 H   0  0  0  0  0  0  0  0  0  0  0  0
   -2.6701    0.8557    1.6985 H   0  0  0  0  0  0  0  0  0  0  0  0
   -3.5299    0.3931    0.1799 H   0  0  0  0  0  0  0  0  0  0  0  0
   -2.8822   -1.7937    0.6113 H   0  0  0  0  0  0  0  0  0  0  0  0
   -1.8412   -1.2281    1.9295 H   0  0  0  0  0  0  0  0  0  0  0  0
   -0.7806   -2.3264   -0.1856 H   0  0  0  0  0  0  0  0  0  0  0  0
    0.6735   -0.9785    1.2959 H   0  0  0  0  0  0  0  0  0  0  0  0
    0.7278   -0.2205   -1.7201 H   0  0  0  0  0  0  0  0  0  0  0  0
    1.4900   -1.6422   -1.0088 H   0  0  0  0  0  0  0  0  0  0  0  0
    3.6589   -1.2164    0.5580 H   0  0  0  0  0  0  0  0  0  0  0  0
   -0.4676    0.9582    1.7513 H   0  0  0  0  0  0  0  0  0  0  0  0
    0.5627    1.6117    0.4626 H   0  0  0  0  0  0  0  0  0  0  0  0
  1  2  1  0
  2  3  1  0
  3  4  1  0
  4  5  1  0
  5  6  1  0
  6  7  1  0
  7  8  1  0
  8  9  1  0
  9 10  2  0
 10 11  1  0
 11 12  2  0
  6 13  1  0
 13  2  1  0
 12  8  1  0
  1 14  1  0
  2 15  1  6
  3 16  1  0
  3 17  1  0
  4 18  1  0
  4 19  1  0
  5 20  1  0
  6 21  1  1
  7 22  1  0
  7 23  1  0
  9 24  1  0
 13 25  1  0
 13 26  1  0
M  END
$$$$

     RDKit          3D

 26 27  0  0  0  0  0  0  0  0999 V2000
   -3.1188    1.6772    0.6633 O   0  0  0  0  0  0  0  0  0  0  0  0
   -2.1051    0.7497    0.5442 C   0  0  1  0  0  0  0  0  0  0  0  0
   -2.5118   -0.4638   -0.2758 C   0  0  0  0  0  0  0  0  0  0  0  0
   -1.4310   -1.4824   -0.1458 C   0  0  0  0  0  0  0  0  0  0  0  0
   -0.1158   -1.0255   -0.3883 N   0  0  0  0  0  0  0  0  0  0  0  0
    0.2090    0.2776    0.0584 C   0  0  1  0  0  0  0  0  0  0  0  0
    1.4343    0.7755   -0.7045 C   0  0  0  0  0  0  0  0  0  0  0  0
    2.5800   -0.0874   -0.4908 N   0  0  0  0  0  0  0  0  0  0  0  0
    3.5132   -0.0008    0.4593 C   0  0  0  0  0  0  0  0  0  0  0  0
    4.3682   -0.9972    0.2724 N   0  0  0  0  0  0  0  0  0  0  0  0
    3.9935   -1.6998   -0.7654 N   0  0  0  0  0  0  0  0  0  0  0  0
    2.8921   -1.1279   -1.2241 N   0  0  0  0  0  0  0  0  0  0  0  0
   -0.8780    1.3008   -0.1568 C   0  0  0  0  0  0  0  0  0  0  0  0
   -3.5944    1.4845    1.5096 H   0  0  0  0  0  0  0  0  0  0  0  0
   -1.7798    0.3397    1.5396 H   0  0  0  0  0  0  0  0  0  0  0  0
   -3.4402   -0.8527    0.1617 H   0  0  0  0  0  0  0  0  0  0  0  0
   -2.6322   -0.1515   -1.3493 H   0  0  0  0  0  0  0  0  0  0  0  0
   -1.6575   -2.2984   -0.8913 H   0  0  0  0  0  0  0  0  0  0  0  0
   -1.5257   -1.9893    0.8501 H   0  0  0  0  0  0  0  0  0  0  0  0
    0.5551   -1.7032    0.0813 H   0  0  0  0  0  0  0  0  0  0  0  0
    0.4837    0.3369    1.1468 H   0  0  0  0  0  0  0  0  0  0  0  0
    1.7116    1.7812   -0.3047 H   0  0  0  0  0  0  0  0  0  0  0  0
    1.1357    0.8154   -1.7717 H   0  0  0  0  0  0  0  0  0  0  0  0
    3.5556    0.7514    1.2378 H   0  0  0  0  0  0  0  0  0  0  0  0
   -1.0781    1.3193   -1.2587 H   0  0  0  0  0  0  0  0  0  0  0  0
   -0.5636    2.2708    0.2210 H   0  0  0  0  0  0  0  0  0  0  0  0
  1  2  1  0
  2  3  1  0
  3  4  1  0
  4  5  1  0
  5  6  1  0
  6  7  1  0
  7  8  1  0
  8  9  1  0
  9 10  2  0
 10 11  1  0
 11 12  2  0
  6 13  1  0
 13  2  1  0
 12  8  1  0
  1 14  1  0
  2 15  1  1
  3 16  1  0
  3 17  1  0
  4 18  1  0
  4 19  1  0
  5 20  1  0
  6 21  1  1
  7 22  1  0
  7 23  1  0
  9 24  1  0
 13 25  1  0
 13 26  1  0
M  END
$$$$

     RDKit          3D

 26 27  0  0  0  0  0  0  0  0999 V2000
   -3.2486   -1.5246   -0.3118 O   0  0  0  0  0  0  0  0  0  0  0  0
   -2.1837   -0.7052   -0.6049 C   0  0  1  0  0  0  0  0  0  0  0  0
   -2.4250    0.7415   -0.2776 C   0  0  0  0  0  0  0  0  0  0  0  0
   -1.1445    1.3424    0.2528 C   0  0  0  0  0  0  0  0  0  0  0  0
   -0.0643    0.9595   -0.6578 N   0  0  0  0  0  0  0  0  0  0  0  0
    0.2667   -0.4281   -0.3558 C   0  0  1  0  0  0  0  0  0  0  0  0
    1.3232   -0.3816    0.7435 C   0  0  0  0  0  0  0  0  0  0  0  0
    2.4744    0.3511    0.2271 N   0  0  0  0  0  0  0  0  0  0  0  0
    3.5229   -0.1866   -0.4228 C   0  0  0  0  0  0  0  0  0  0  0  0
    4.3468    0.8311   -0.7189 N   0  0  0  0  0  0  0  0  0  0  0  0
    3.8045    1.9467   -0.2580 N   0  0  0  0  0  0  0  0  0  0  0  0
    2.6467    1.6567    0.3279 N   0  0  0  0  0  0  0  0  0  0  0  0
   -0.9384   -1.2021    0.1032 C   0  0  0  0  0  0  0  0  0  0  0  0
   -2.9692   -2.2963    0.2540 H   0  0  0  0  0  0  0  0  0  0  0  0
   -1.9729   -0.8152   -1.7012 H   0  0  0  0  0  0  0  0  0  0  0  0
   -2.7275    1.2946   -1.1691 H   0  0  0  0  0  0  0  0  0  0  0  0
   -3.2183    0.8387    0.4864 H   0  0  0  0  0  0  0  0  0  0  0  0
   -0.9203    0.9632    1.2616 H   0  0  0  0  0  0  0  0  0  0  0  0
   -1.2112    2.4511    0.3441 H   0  0  0  0  0  0  0  0  0  0  0  0
   -0.3493    1.0212   -1.6505 H   0  0  0  0  0  0  0  0  0  0  0  0
    0.7054   -0.9301   -1.2564 H   0  0  0  0  0  0  0  0  0  0  0  0
    1.6071   -1.4205    1.0007 H   0  0  0  0  0  0  0  0  0  0  0  0
    0.9272    0.1633    1.6051 H   0  0  0  0  0  0  0  0  0  0  0  0
    3.6507   -1.2339   -0.6483 H   0  0  0  0  0  0  0  0  0  0  0  0
   -1.0959   -1.1639    1.1998 H   0  0  0  0  0  0  0  0  0  0  0  0
   -0.8064   -2.2728   -0.2215 H   0  0  0  0  0  0  0  0  0  0  0  0
  1  2  1  0
  2  3  1  0
  3  4  1  0
  4  5  1  0
  5  6  1  0
  6  7  1  0
  7  8  1  0
  8  9  1  0
  9 10  2  0
 10 11  1  0
 11 12  2  0
  6 13  1  0
 13  2  1  0
 12  8  1  0
  1 14  1  0
  2 15  1  6
  3 16  1  0
  3 17  1  0
  4 18  1  0
  4 19  1  0
  5 20  1  0
  6 21  1  6
  7 22  1  0
  7 23  1  0
  9 24  1  0
 13 25  1  0
 13 26  1  0
M  END
$$$$

     RDKit          3D

 26 27  0  0  0  0  0  0  0  0999 V2000
   -0.9768    1.4526   -1.2474 O   0  0  0  0  0  0  0  0  0  0  0  0
   -1.4052    1.2218    0.0570 C   0  0  1  0  0  0  0  0  0  0  0  0
   -2.5884    0.2766    0.0067 C   0  0  0  0  0  0  0  0  0  0  0  0
   -2.1046   -0.9286   -0.8129 C   0  0  0  0  0  0  0  0  0  0  0  0
   -1.1014   -1.5776   -0.0610 N   0  0  0  0  0  0  0  0  0  0  0  0
    0.0314   -0.8187    0.3055 C   0  0  1  0  0  0  0  0  0  0  0  0
    1.0457   -0.7122   -0.8214 C   0  0  0  0  0  0  0  0  0  0  0  0
    2.1871    0.0694   -0.4092 N   0  0  0  0  0  0  0  0  0  0  0  0
    3.3155   -0.3923    0.1765 C   0  0  0  0  0  0  0  0  0  0  0  0
    4.1499    0.6449    0.4106 N   0  0  0  0  0  0  0  0  0  0  0  0
    3.5259    1.7366   -0.0341 N   0  0  0  0  0  0  0  0  0  0  0  0
    2.3551    1.3729   -0.5201 N   0  0  0  0  0  0  0  0  0  0  0  0
   -0.3349    0.5180    0.8771 C   0  0  0  0  0  0  0  0  0  0  0  0
   -0.3470    2.2273   -1.2657 H   0  0  0  0  0  0  0  0  0  0  0  0
   -1.6444    2.1740    0.5549 H   0  0  0  0  0  0  0  0  0  0  0  0
   -2.7477   -0.0739    1.0630 H   0  0  0  0  0  0  0  0  0  0  0  0
   -3.4816    0.7263   -0.4252 H   0  0  0  0  0  0  0  0  0  0  0  0
   -1.7552   -0.5140   -1.7905 H   0  0  0  0  0  0  0  0  0  0  0  0
   -2.9600   -1.5973   -0.9547 H   0  0  0  0  0  0  0  0  0  0  0  0
   -0.9815   -2.5767   -0.1888 H   0  0  0  0  0  0  0  0  0  0  0  0
    0.5630   -1.3797    1.1282 H   0  0  0  0  0  0  0  0  0  0  0  0
    1.3687   -1.7491   -1.0680 H   0  0  0  0  0  0  0  0  0  0  0  0
    0.5850   -0.2631   -1.7246 H   0  0  0  0  0  0  0  0  0  0  0  0
    3.5675   -1.4104    0.4394 H   0  0  0  0  0  0  0  0  0  0  0  0
   -0.7756    0.3698    1.8880 H   0  0  0  0  0  0  0  0  0  0  0  0
    0.5095    1.2033    0.9726 H   0  0  0  0  0  0  0  0  0  0  0  0
  1  2  1  0
  2  3  1  0
  3  4  1  0
  4  5  1  0
  5  6  1  0
  6  7  1  0
  7  8  1  0
  8  9  1  0
  9 10  2  0
 10 11  1  0
 11 12  2  0
  6 13  1  0
 13  2  1  0
 12  8  1  0
  1 14  1  0
  2 15  1  1
  3 16  1  0
  3 17  1  0
  4 18  1  0
  4 19  1  0
  5 20  1  0
  6 21  1  1
  7 22  1  0
  7 23  1  0
  9 24  1  0
 13 25  1  0
 13 26  1  0
M  END
$$$$
