
     RDKit          3D

 24 24  0  0  0  0  0  0  0  0999 V2000
    3.7437   -0.9376    0.0390 C   0  0  0  0  0  0  0  0  0  0  0  0
    2.5096   -0.3861   -0.4887 N   0  0  0  0  0  0  0  0  0  0  0  0
    2.2972    0.3389   -1.5977 C   0  0  0  0  0  0  0  0  0  0  0  0
    0.9916    0.6375   -1.6957 N   0  0  0  0  0  0  0  0  0  0  0  0
    0.3253    0.1061   -0.6407 C   0  0  0  0  0  0  0  0  0  0  0  0
   -1.1279    0.2506   -0.4462 C   0  0  2  0  0  0  0  0  0  0  0  0
   -1.4971    1.6313   -0.6999 N   0  0  0  0  0  0  0  0  0  0  0  0
   -1.5597   -0.0926    0.9570 C   0  0  2  0  0  0  0  0  0  0  0  0
   -1.2416   -1.4084    1.2855 O   0  0  0  0  0  0  0  0  0  0  0  0
   -3.0323    0.0671    1.0479 C   0  0  0  0  0  0  0  0  0  0  0  0
   -3.7823   -0.9121    1.3823 O   0  0  0  0  0  0  0  0  0  0  0  0
   -3.6837    1.2587    0.7835 O   0  0  0  0  0  0  0  0  0  0  0  0
    1.2932   -0.5291    0.1007 C   0  0  0  0  0  0  0  0  0  0  0  0
    3.6254   -1.9825    0.3445 H   0  0  0  0  0  0  0  0  0  0  0  0
    4.0934   -0.3450    0.9189 H   0  0  0  0  0  0  0  0  0  0  0  0
    4.5387   -0.8647   -0.7354 H   0  0  0  0  0  0  0  0  0  0  0  0
    3.0623    0.6313   -2.2956 H   0  0  0  0  0  0  0  0  0  0  0  0
   -1.6377   -0.4394   -1.1290 H   0  0  0  0  0  0  0  0  0  0  0  0
   -1.1604    2.2172    0.0821 H   0  0  0  0  0  0  0  0  0  0  0  0
   -1.1390    1.9155   -1.6265 H   0  0  0  0  0  0  0  0  0  0  0  0
   -1.1018    0.5855    1.7167 H   0  0  0  0  0  0  0  0  0  0  0  0
   -1.9273   -2.0420    0.9567 H   0  0  0  0  0  0  0  0  0  0  0  0
   -4.6838    1.3557    0.7300 H   0  0  0  0  0  0  0  0  0  0  0  0
    1.0942   -1.0560    1.0107 H   0  0  0  0  0  0  0  0  0  0  0  0
  1  2  1  0
  2  3  1  0
  3  4  2  0
  4  5  1  0
  5  6  1  0
  6  7  1  0
  6  8  1  0
  8  9  1  0
  8 10  1  0
 10 11  2  0
 10 12  1  0
  5 13  2  0
 13  2  1  0
  1 14  1  0
  1 15  1  0
  1 16  1  0
  3 17  1  0
  6 18  1  6
  7 19  1  0
  7 20  1  0
  8 21  1  1
  9 22  1  0
 12 23  1  0
 13 24  1  0
M  END
$$$$

     RDKit          3D

 24 24  0  0  0  0  0  0  0  0999 V2000
    3.6778    0.7998    0.1463 C   0  0  0  0  0  0  0  0  0  0  0  0
    2.5121   -0.0605    0.1683 N   0  0  0  0  0  0  0  0  0  0  0  0
    2.4523   -1.3996    0.2409 C   0  0  0  0  0  0  0  0  0  0  0  0
    1.1765   -1.8095    0.2356 N   0  0  0  0  0  0  0  0  0  0  0  0
    0.3710   -0.7134    0.1575 C   0  0  0  0  0  0  0  0  0  0  0  0
   -1.1040   -0.7366    0.1250 C   0  0  2  0  0  0  0  0  0  0  0  0
   -1.5280   -1.7693   -0.8228 N   0  0  0  0  0  0  0  0  0  0  0  0
   -1.6755    0.5855   -0.2738 C   0  0  2  0  0  0  0  0  0  0  0  0
   -1.2869    1.5718    0.6194 O   0  0  0  0  0  0  0  0  0  0  0  0
   -3.1469    0.5091   -0.3705 C   0  0  0  0  0  0  0  0  0  0  0  0
   -3.7111   -0.3129   -1.1199 O   0  0  0  0  0  0  0  0  0  0  0  0
   -3.9105    1.3694    0.3878 O   0  0  0  0  0  0  0  0  0  0  0  0
    1.2311    0.3587    0.1171 C   0  0  0  0  0  0  0  0  0  0  0  0
    3.6848    1.4763   -0.7438 H   0  0  0  0  0  0  0  0  0  0  0  0
    3.6879    1.4641    1.0359 H   0  0  0  0  0  0  0  0  0  0  0  0
    4.6051    0.2064    0.0811 H   0  0  0  0  0  0  0  0  0  0  0  0
    3.3075   -2.0811    0.2972 H   0  0  0  0  0  0  0  0  0  0  0  0
   -1.4541   -0.9705    1.1559 H   0  0  0  0  0  0  0  0  0  0  0  0
   -1.5556   -2.6545   -0.2797 H   0  0  0  0  0  0  0  0  0  0  0  0
   -0.8097   -1.7783   -1.5796 H   0  0  0  0  0  0  0  0  0  0  0  0
   -1.2672    0.8834   -1.2704 H   0  0  0  0  0  0  0  0  0  0  0  0
   -1.3378    2.4455    0.1813 H   0  0  0  0  0  0  0  0  0  0  0  0
   -4.8780    1.2094    0.6236 H   0  0  0  0  0  0  0  0  0  0  0  0
    0.9590    1.4068    0.0526 H   0  0  0  0  0  0  0  0  0  0  0  0
  1  2  1  0
  2  3  1  0
  3  4  2  0
  4  5  1  0
  5  6  1  0
  6  7  1  0
  6  8  1  0
  8  9  1  0
  8 10  1  0
 10 11  2  0
 10 12  1  0
  5 13  2  0
 13  2  1  0
  1 14  1  0
  1 15  1  0
  1 16  1  0
  3 17  1  0
  6 18  1  1
  7 19  1  0
  7 20  1  0
  8 21  1  6
  9 22  1  0
 12 23  1  0
 13 24  1  0
M  END
$$$$

     RDKit          3D

 24 24  0  0  0  0  0  0  0  0999 V2000
   -3.6052    0.5507   -0.7615 C   0  0  0  0  0  0  0  0  0  0  0  0
   -2.2007    0.4794   -0.4040 N   0  0  0  0  0  0  0  0  0  0  0  0
   -1.5473    1.3930    0.3338 C   0  0  0  0  0  0  0  0  0  0  0  0
   -0.2941    0.9764    0.4398 N   0  0  0  0  0  0  0  0  0  0  0  0
   -0.1390   -0.1850   -0.2170 C   0  0  0  0  0  0  0  0  0  0  0  0
    1.1252   -0.9730   -0.3320 C   0  0  2  0  0  0  0  0  0  0  0  0
    0.9088   -2.3830   -0.1074 N   0  0  0  0  0  0  0  0  0  0  0  0
    2.1318   -0.4590    0.6464 C   0  0  2  0  0  0  0  0  0  0  0  0
    1.6811   -0.6450    1.9482 O   0  0  0  0  0  0  0  0  0  0  0  0
    2.3998    0.9852    0.4534 C   0  0  0  0  0  0  0  0  0  0  0  0
    2.2181    1.8229    1.3759 O   0  0  0  0  0  0  0  0  0  0  0  0
    2.8682    1.4970   -0.7606 O   0  0  0  0  0  0  0  0  0  0  0  0
   -1.3509   -0.5016   -0.7537 C   0  0  0  0  0  0  0  0  0  0  0  0
   -3.7253    1.4209   -1.4306 H   0  0  0  0  0  0  0  0  0  0  0  0
   -4.2202    0.7033    0.1351 H   0  0  0  0  0  0  0  0  0  0  0  0
   -3.9131   -0.3877   -1.2541 H   0  0  0  0  0  0  0  0  0  0  0  0
   -1.9265    2.3068    0.7772 H   0  0  0  0  0  0  0  0  0  0  0  0
    1.5061   -0.8585   -1.3615 H   0  0  0  0  0  0  0  0  0  0  0  0
    0.1314   -2.7542   -0.6806 H   0  0  0  0  0  0  0  0  0  0  0  0
    0.6820   -2.5962    0.8945 H   0  0  0  0  0  0  0  0  0  0  0  0
    3.0932   -0.9852    0.5404 H   0  0  0  0  0  0  0  0  0  0  0  0
    2.3024   -0.3271    2.6272 H   0  0  0  0  0  0  0  0  0  0  0  0
    3.4774    2.3018   -0.7518 H   0  0  0  0  0  0  0  0  0  0  0  0
   -1.6033   -1.3819   -1.3570 H   0  0  0  0  0  0  0  0  0  0  0  0
  1  2  1  0
  2  3  1  0
  3  4  2  0
  4  5  1  0
  5  6  1  0
  6  7  1  0
  6  8  1  0
  8  9  1  0
  8 10  1  0
 10 11  2  0
 10 12  1  0
  5 13  2  0
 13  2  1  0
  1 14  1  0
  1 15  1  0
  1 16  1  0
  3 17  1  0
  6 18  1  6
  7 19  1  0
  7 20  1  0
  8 21  1  1
  9 22  1  0
 12 23  1  0
 13 24  1  0
M  END
$$$$

     RDKit          3D

 24 24  0  0  0  0  0  0  0  0999 V2000
    3.7194    0.1763    0.4303 C   0  0  0  0  0  0  0  0  0  0  0  0
    2.2797    0.2988    0.3868 N   0  0  0  0  0  0  0  0  0  0  0  0
    1.5611    1.2962    0.9023 C   0  0  0  0  0  0  0  0  0  0  0  0
    0.2561    1.0390    0.6517 N   0  0  0  0  0  0  0  0  0  0  0  0
    0.1520   -0.1176   -0.0200 C   0  0  0  0  0  0  0  0  0  0  0  0
   -1.0245   -0.8452   -0.5302 C   0  0  2  0  0  0  0  0  0  0  0  0
   -0.7268   -1.2768   -1.8833 N   0  0  0  0  0  0  0  0  0  0  0  0
   -2.2698    0.0074   -0.5546 C   0  0  2  0  0  0  0  0  0  0  0  0
   -2.1058    1.1156   -1.3457 O   0  0  0  0  0  0  0  0  0  0  0  0
   -2.6022    0.3693    0.8490 C   0  0  0  0  0  0  0  0  0  0  0  0
   -2.6955    1.5631    1.1589 O   0  0  0  0  0  0  0  0  0  0  0  0
   -2.8074   -0.6088    1.8077 O   0  0  0  0  0  0  0  0  0  0  0  0
    1.4453   -0.5731   -0.1792 C   0  0  0  0  0  0  0  0  0  0  0  0
    4.0855   -0.1311    1.4311 H   0  0  0  0  0  0  0  0  0  0  0  0
    4.0551   -0.6186   -0.2826 H   0  0  0  0  0  0  0  0  0  0  0  0
    4.2030    1.1118    0.0819 H   0  0  0  0  0  0  0  0  0  0  0  0
    1.9690    2.1683    1.4348 H   0  0  0  0  0  0  0  0  0  0  0  0
   -1.1949   -1.7242    0.1217 H   0  0  0  0  0  0  0  0  0  0  0  0
   -0.8718   -0.5122   -2.5517 H   0  0  0  0  0  0  0  0  0  0  0  0
   -1.2076   -2.1394   -2.1528 H   0  0  0  0  0  0  0  0  0  0  0  0
   -3.0734   -0.6335   -1.0108 H   0  0  0  0  0  0  0  0  0  0  0  0
   -1.7701    1.8790   -0.7998 H   0  0  0  0  0  0  0  0  0  0  0  0
   -3.1407   -0.3533    2.7348 H   0  0  0  0  0  0  0  0  0  0  0  0
    1.7643   -1.4908   -0.6804 H   0  0  0  0  0  0  0  0  0  0  0  0
  1  2  1  0
  2  3  1  0
  3  4  2  0
  4  5  1  0
  5  6  1  0
  6  7  1  0
  6  8  1  0
  8  9  1  0
  8 10  1  0
 10 11  2  0
 10 12  1  0
  5 13  2  0
 13  2  1  0
  1 14  1  0
  1 15  1  0
  1 16  1  0
  3 17  1  0
  6 18  1  1
  7 19  1  0
  7 20  1  0
  8 21  1  6
  9 22  1  0
 12 23  1  0
 13 24  1  0
M  END
$$$$

     RDKit          3D

 24 24  0  0  0  0  0  0  0  0999 V2000
    3.5569    0.5394   -0.4711 C   0  0  0  0  0  0  0  0  0  0  0  0
    2.3398   -0.1745   -0.0833 N   0  0  0  0  0  0  0  0  0  0  0  0
    2.2355   -1.1748    0.7879 C   0  0  0  0  0  0  0  0  0  0  0  0
    0.9457   -1.5349    0.8451 N   0  0  0  0  0  0  0  0  0  0  0  0
    0.2106   -0.7756    0.0171 C   0  0  0  0  0  0  0  0  0  0  0  0
   -1.2482   -0.9045   -0.1721 C   0  0  2  0  0  0  0  0  0  0  0  0
   -1.6225   -0.8110   -1.5637 N   0  0  0  0  0  0  0  0  0  0  0  0
   -2.0383   -0.0253    0.7469 C   0  0  2  0  0  0  0  0  0  0  0  0
   -3.3977   -0.3378    0.6927 O   0  0  0  0  0  0  0  0  0  0  0  0
   -1.7942    1.4081    0.6313 C   0  0  0  0  0  0  0  0  0  0  0  0
   -0.6992    1.9798    0.6580 O   0  0  0  0  0  0  0  0  0  0  0  0
   -2.9190    2.2404    0.4720 O   0  0  0  0  0  0  0  0  0  0  0  0
    1.1082    0.0913   -0.5727 C   0  0  0  0  0  0  0  0  0  0  0  0
    3.4459    0.8257   -1.5471 H   0  0  0  0  0  0  0  0  0  0  0  0
    3.5992    1.4714    0.1369 H   0  0  0  0  0  0  0  0  0  0  0  0
    4.4417   -0.0967   -0.3129 H   0  0  0  0  0  0  0  0  0  0  0  0
    3.0407   -1.6147    1.3452 H   0  0  0  0  0  0  0  0  0  0  0  0
   -1.5152   -1.9623    0.1247 H   0  0  0  0  0  0  0  0  0  0  0  0
   -1.2119   -1.6537   -2.0415 H   0  0  0  0  0  0  0  0  0  0  0  0
   -1.1749    0.0197   -2.0382 H   0  0  0  0  0  0  0  0  0  0  0  0
   -1.7210   -0.3224    1.7916 H   0  0  0  0  0  0  0  0  0  0  0  0
   -3.5404   -1.2386    1.1192 H   0  0  0  0  0  0  0  0  0  0  0  0
   -2.8860    3.2189    0.7240 H   0  0  0  0  0  0  0  0  0  0  0  0
    0.8443    0.8319   -1.2899 H   0  0  0  0  0  0  0  0  0  0  0  0
  1  2  1  0
  2  3  1  0
  3  4  2  0
  4  5  1  0
  5  6  1  0
  6  7  1  0
  6  8  1  0
  8  9  1  0
  8 10  1  0
 10 11  2  0
 10 12  1  0
  5 13  2  0
 13  2  1  0
  1 14  1  0
  1 15  1  0
  1 16  1  0
  3 17  1  0
  6 18  1  1
  7 19  1  0
  7 20  1  0
  8 21  1  1
  9 22  1  0
 12 23  1  0
 13 24  1  0
M  END
$$$$

     RDKit          3D

 24 24  0  0  0  0  0  0  0  0999 V2000
    3.7604    0.3883    0.2334 C   0  0  0  0  0  0  0  0  0  0  0  0
    2.3888   -0.0875    0.4384 N   0  0  0  0  0  0  0  0  0  0  0  0
    1.8688   -0.7289    1.4855 C   0  0  0  0  0  0  0  0  0  0  0  0
    0.5706   -0.9607    1.2200 N   0  0  0  0  0  0  0  0  0  0  0  0
    0.2734   -0.4696    0.0152 C   0  0  0  0  0  0  0  0  0  0  0  0
   -0.9993   -0.4606   -0.7412 C   0  0  2  0  0  0  0  0  0  0  0  0
   -1.1931    0.8425   -1.3261 N   0  0  0  0  0  0  0  0  0  0  0  0
   -2.2019   -0.8009    0.1042 C   0  0  2  0  0  0  0  0  0  0  0  0
   -3.3015   -0.7998   -0.7621 O   0  0  0  0  0  0  0  0  0  0  0  0
   -2.3880    0.2003    1.1698 C   0  0  0  0  0  0  0  0  0  0  0  0
   -1.5509    0.3962    2.0760 O   0  0  0  0  0  0  0  0  0  0  0  0
   -3.5705    0.9630    1.1504 O   0  0  0  0  0  0  0  0  0  0  0  0
    1.4338    0.0920   -0.4927 C   0  0  0  0  0  0  0  0  0  0  0  0
    4.3478    0.2742    1.1611 H   0  0  0  0  0  0  0  0  0  0  0  0
    3.6815    1.4195   -0.1196 H   0  0  0  0  0  0  0  0  0  0  0  0
    4.1620   -0.2230   -0.6120 H   0  0  0  0  0  0  0  0  0  0  0  0
    2.4195   -0.9985    2.3715 H   0  0  0  0  0  0  0  0  0  0  0  0
   -0.9062   -1.2305   -1.5563 H   0  0  0  0  0  0  0  0  0  0  0  0
   -1.2163    1.5544   -0.5723 H   0  0  0  0  0  0  0  0  0  0  0  0
   -0.4122    1.0320   -1.9832 H   0  0  0  0  0  0  0  0  0  0  0  0
   -2.0846   -1.8270    0.5049 H   0  0  0  0  0  0  0  0  0  0  0  0
   -3.0106   -0.9764   -1.6919 H   0  0  0  0  0  0  0  0  0  0  0  0
   -3.6223    1.8176    1.7133 H   0  0  0  0  0  0  0  0  0  0  0  0
    1.5508    0.5833   -1.4577 H   0  0  0  0  0  0  0  0  0  0  0  0
  1  2  1  0
  2  3  1  0
  3  4  2  0
  4  5  1  0
  5  6  1  0
  6  7  1  0
  6  8  1  0
  8  9  1  0
  8 10  1  0
 10 11  2  0
 10 12  1  0
  5 13  2  0
 13  2  1  0
  1 14  1  0
  1 15  1  0
  1 16  1  0
  3 17  1  0
  6 18  1  6
  7 19  1  0
  7 20  1  0
  8 21  1  1
  9 22  1  0
 12 23  1  0
 13 24  1  0
M  END
$$$$

     RDKit          3D

 24 24  0  0  0  0  0  0  0  0999 V2000
    3.6076    0.7281   -0.0160 C   0  0  0  0  0  0  0  0  0  0  0  0
    2.4117   -0.0627   -0.1587 N   0  0  0  0  0  0  0  0  0  0  0  0
    2.3235   -1.2401   -0.7950 C   0  0  0  0  0  0  0  0  0  0  0  0
    1.0695   -1.6742   -0.7238 N   0  0  0  0  0  0  0  0  0  0  0  0
    0.3256   -0.7876   -0.0419 C   0  0  0  0  0  0  0  0  0  0  0  0
   -1.1102   -0.9664    0.2336 C   0  0  2  0  0  0  0  0  0  0  0  0
   -1.7785   -1.5344   -0.8935 N   0  0  0  0  0  0  0  0  0  0  0  0
   -1.7979    0.2759    0.7568 C   0  0  2  0  0  0  0  0  0  0  0  0
   -3.0827   -0.0863    1.1692 O   0  0  0  0  0  0  0  0  0  0  0  0
   -1.9313    1.3191   -0.2744 C   0  0  0  0  0  0  0  0  0  0  0  0
   -0.9780    1.8645   -0.8806 O   0  0  0  0  0  0  0  0  0  0  0  0
   -3.1963    1.7584   -0.6295 O   0  0  0  0  0  0  0  0  0  0  0  0
    1.1745    0.2353    0.3179 C   0  0  0  0  0  0  0  0  0  0  0  0
    3.5903    1.3418    0.9037 H   0  0  0  0  0  0  0  0  0  0  0  0
    4.4725    0.0567    0.0189 H   0  0  0  0  0  0  0  0  0  0  0  0
    3.7597    1.4135   -0.8731 H   0  0  0  0  0  0  0  0  0  0  0  0
    3.1712   -1.7340   -1.2835 H   0  0  0  0  0  0  0  0  0  0  0  0
   -1.1786   -1.7126    1.0697 H   0  0  0  0  0  0  0  0  0  0  0  0
   -2.7769   -1.2485   -0.9758 H   0  0  0  0  0  0  0  0  0  0  0  0
   -1.2181   -1.3118   -1.7545 H   0  0  0  0  0  0  0  0  0  0  0  0
   -1.2123    0.6637    1.6039 H   0  0  0  0  0  0  0  0  0  0  0  0
   -3.2486   -1.0539    1.0358 H   0  0  0  0  0  0  0  0  0  0  0  0
   -3.3360    2.6272   -1.1508 H   0  0  0  0  0  0  0  0  0  0  0  0
    0.9394    1.1284    0.8831 H   0  0  0  0  0  0  0  0  0  0  0  0
  1  2  1  0
  2  3  1  0
  3  4  2  0
  4  5  1  0
  5  6  1  0
  6  7  1  0
  6  8  1  0
  8  9  1  0
  8 10  1  0
 10 11  2  0
 10 12  1  0
  5 13  2  0
 13  2  1  0
  1 14  1  0
  1 15  1  0
  1 16  1  0
  3 17  1  0
  6 18  1  1
  7 19  1  0
  7 20  1  0
  8 21  1  1
  9 22  1  0
 12 23  1  0
 13 24  1  0
M  END
$$$$

     RDKit          3D

 24 24  0  0  0  0  0  0  0  0999 V2000
    3.6255    0.7735    0.4928 C   0  0  0  0  0  0  0  0  0  0  0  0
    2.2141    0.6171    0.1283 N   0  0  0  0  0  0  0  0  0  0  0  0
    1.5526    1.2356   -0.8652 C   0  0  0  0  0  0  0  0  0  0  0  0
    0.2647    0.8441   -0.9019 N   0  0  0  0  0  0  0  0  0  0  0  0
    0.0876   -0.0417    0.0827 C   0  0  0  0  0  0  0  0  0  0  0  0
   -1.1259   -0.7884    0.4976 C   0  0  2  0  0  0  0  0  0  0  0  0
   -0.7598   -2.1240    0.7183 N   0  0  0  0  0  0  0  0  0  0  0  0
   -2.2499   -0.6465   -0.4940 C   0  0  2  0  0  0  0  0  0  0  0  0
   -1.9365   -1.1635   -1.7352 O   0  0  0  0  0  0  0  0  0  0  0  0
   -2.6483    0.7892   -0.6364 C   0  0  0  0  0  0  0  0  0  0  0  0
   -2.6570    1.3242   -1.7532 O   0  0  0  0  0  0  0  0  0  0  0  0
   -3.0110    1.5343    0.4773 O   0  0  0  0  0  0  0  0  0  0  0  0
    1.3035   -0.1781    0.7190 C   0  0  0  0  0  0  0  0  0  0  0  0
    4.0298    1.6487   -0.0367 H   0  0  0  0  0  0  0  0  0  0  0  0
    4.1705   -0.1262    0.2101 H   0  0  0  0  0  0  0  0  0  0  0  0
    3.7275    0.8909    1.6065 H   0  0  0  0  0  0  0  0  0  0  0  0
    2.0587    1.9511   -1.5189 H   0  0  0  0  0  0  0  0  0  0  0  0
   -1.4773   -0.3308    1.4554 H   0  0  0  0  0  0  0  0  0  0  0  0
   -1.3736   -2.7214    1.2642 H   0  0  0  0  0  0  0  0  0  0  0  0
   -0.0530   -2.5460    0.1317 H   0  0  0  0  0  0  0  0  0  0  0  0
   -3.1338   -1.1598   -0.0555 H   0  0  0  0  0  0  0  0  0  0  0  0
   -1.0258   -1.5016   -1.7613 H   0  0  0  0  0  0  0  0  0  0  0  0
   -3.1386    2.5325    0.4017 H   0  0  0  0  0  0  0  0  0  0  0  0
    1.5559   -0.8132    1.5729 H   0  0  0  0  0  0  0  0  0  0  0  0
  1  2  1  0
  2  3  1  0
  3  4  2  0
  4  5  1  0
  5  6  1  0
  6  7  1  0
  6  8  1  0
  8  9  1  0
  8 10  1  0
 10 11  2  0
 10 12  1  0
  5 13  2  0
 13  2  1  0
  1 14  1  0
  1 15  1  0
  1 16  1  0
  3 17  1  0
  6 18  1  1
  7 19  1  0
  7 20  1  0
  8 21  1  1
  9 22  1  0
 12 23  1  0
 13 24  1  0
M  END
$$$$
