
     RDKit          3D

 27 27  0  0  0  0  0  0  0  0999 V2000
   -1.0468    1.9852    0.1740 C   0  0  0  0  0  0  0  0  0  0  0  0
   -0.9552    0.5634    0.2186 N   0  0  0  0  0  0  0  0  0  0  0  0
   -2.1290   -0.0944   -0.3429 C   0  0  0  0  0  0  0  0  0  0  0  0
   -1.6859   -1.4888   -0.7417 C   0  0  0  0  0  0  0  0  0  0  0  0
   -0.1931   -1.4809   -0.3690 C   0  0  2  0  0  0  0  0  0  0  0  0
   -0.1396   -1.9058    1.0096 N   0  0  0  0  0  0  0  0  0  0  0  0
    0.0873   -0.0144   -0.5510 C   0  0  2  0  0  0  0  0  0  0  0  0
    1.4644    0.4122   -0.2494 C   0  0  1  0  0  0  0  0  0  0  0  0
    1.5229    1.8096   -0.4623 O   0  0  0  0  0  0  0  0  0  0  0  0
    1.9448    0.1617    1.1324 C   0  0  0  0  0  0  0  0  0  0  0  0
    3.2715    0.6489    1.2087 O   0  0  0  0  0  0  0  0  0  0  0  0
   -0.7053    2.4564   -0.7487 H   0  0  0  0  0  0  0  0  0  0  0  0
   -2.1252    2.2944    0.3066 H   0  0  0  0  0  0  0  0  0  0  0  0
   -0.5371    2.3885    1.0938 H   0  0  0  0  0  0  0  0  0  0  0  0
   -2.9780   -0.1188    0.3669 H   0  0  0  0  0  0  0  0  0  0  0  0
   -2.4194    0.4307   -1.2815 H   0  0  0  0  0  0  0  0  0  0  0  0
   -1.7549   -1.6647   -1.8215 H   0  0  0  0  0  0  0  0  0  0  0  0
   -2.2258   -2.2514   -0.1734 H   0  0  0  0  0  0  0  0  0  0  0  0
    0.3881   -2.1414   -1.0016 H   0  0  0  0  0  0  0  0  0  0  0  0
    0.4094   -2.7474    1.1825 H   0  0  0  0  0  0  0  0  0  0  0  0
   -1.0292   -1.8137    1.4998 H   0  0  0  0  0  0  0  0  0  0  0  0
   -0.1172    0.2125   -1.6288 H   0  0  0  0  0  0  0  0  0  0  0  0
    2.1509   -0.0278   -1.0010 H   0  0  0  0  0  0  0  0  0  0  0  0
    1.7422    1.9990   -1.4109 H   0  0  0  0  0  0  0  0  0  0  0  0
    1.9800   -0.9075    1.4115 H   0  0  0  0  0  0  0  0  0  0  0  0
    1.3733    0.7470    1.8695 H   0  0  0  0  0  0  0  0  0  0  0  0
    3.7071    0.5474    0.3098 H   0  0  0  0  0  0  0  0  0  0  0  0
  1  2  1  0
  2  3  1  0
  3  4  1  0
  4  5  1  0
  5  6  1  0
  5  7  1  0
  7  8  1  0
  8  9  1  0
  8 10  1  0
 10 11  1  0
  7  2  1  0
  1 12  1  0
  1 13  1  0
  1 14  1  0
  3 15  1  0
  3 16  1  0
  4 17  1  0
  4 18  1  0
  5 19  1  6
  6 20  1  0
  6 21  1  0
  7 22  1  6
  8 23  1  6
  9 24  1  0
 10 25  1  0
 10 26  1  0
 11 27  1  0
M  END
$$$$

     RDKit          3D

 27 27  0  0  0  0  0  0  0  0999 V2000
   -0.6750    1.8810    0.9531 C   0  0  0  0  0  0  0  0  0  0  0  0
   -0.7917    0.4805    0.6134 N   0  0  0  0  0  0  0  0  0  0  0  0
   -2.1112    0.3076    0.0288 C   0  0  0  0  0  0  0  0  0  0  0  0
   -1.9726   -0.6701   -1.0992 C   0  0  0  0  0  0  0  0  0  0  0  0
   -0.5906   -1.2493   -0.8344 C   0  0  2  0  0  0  0  0  0  0  0  0
   -0.6809   -2.1594    0.2811 N   0  0  0  0  0  0  0  0  0  0  0  0
    0.1147    0.0332   -0.3776 C   0  0  2  0  0  0  0  0  0  0  0  0
    1.4651   -0.3670    0.0590 C   0  0  1  0  0  0  0  0  0  0  0  0
    2.1655   -0.7685   -1.1078 O   0  0  0  0  0  0  0  0  0  0  0  0
    2.3012    0.7113    0.6734 C   0  0  0  0  0  0  0  0  0  0  0  0
    3.5605    0.1341    0.9659 O   0  0  0  0  0  0  0  0  0  0  0  0
   -0.2895    2.0152    2.0050 H   0  0  0  0  0  0  0  0  0  0  0  0
   -1.6811    2.3885    0.9831 H   0  0  0  0  0  0  0  0  0  0  0  0
   -0.0835    2.4397    0.2204 H   0  0  0  0  0  0  0  0  0  0  0  0
   -2.5084    1.2549   -0.4003 H   0  0  0  0  0  0  0  0  0  0  0  0
   -2.8558   -0.0177    0.7867 H   0  0  0  0  0  0  0  0  0  0  0  0
   -1.8964   -0.1513   -2.0950 H   0  0  0  0  0  0  0  0  0  0  0  0
   -2.7646   -1.4257   -1.0716 H   0  0  0  0  0  0  0  0  0  0  0  0
   -0.1268   -1.6777   -1.7209 H   0  0  0  0  0  0  0  0  0  0  0  0
   -0.6886   -1.6488    1.1885 H   0  0  0  0  0  0  0  0  0  0  0  0
   -1.4892   -2.8002    0.2433 H   0  0  0  0  0  0  0  0  0  0  0  0
    0.1036    0.7036   -1.2599 H   0  0  0  0  0  0  0  0  0  0  0  0
    1.4161   -1.2827    0.6828 H   0  0  0  0  0  0  0  0  0  0  0  0
    1.9588   -0.0616   -1.7782 H   0  0  0  0  0  0  0  0  0  0  0  0
    2.5122    1.5282   -0.0393 H   0  0  0  0  0  0  0  0  0  0  0  0
    1.9313    1.1307    1.5970 H   0  0  0  0  0  0  0  0  0  0  0  0
    3.6768   -0.7284    0.5030 H   0  0  0  0  0  0  0  0  0  0  0  0
  1  2  1  0
  2  3  1  0
  3  4  1  0
  4  5  1  0
  5  6  1  0
  5  7  1  0
  7  8  1  0
  8  9  1  0
  8 10  1  0
 10 11  1  0
  7  2  1  0
  1 12  1  0
  1 13  1  0
  1 14  1  0
  3 15  1  0
  3 16  1  0
  4 17  1  0
  4 18  1  0
  5 19  1  6
  6 20  1  0
  6 21  1  0
  7 22  1  6
  8 23  1  1
  9 24  1  0
 10 25  1  0
 10 26  1  0
 11 27  1  0
M  END
$$$$

     RDKit          3D

 27 27  0  0  0  0  0  0  0  0999 V2000
   -0.5680    2.2448   -0.1649 C   0  0  0  0  0  0  0  0  0  0  0  0
   -0.6941    0.8863    0.3594 N   0  0  0  0  0  0  0  0  0  0  0  0
   -2.1251    0.5759    0.1653 C   0  0  0  0  0  0  0  0  0  0  0  0
   -2.2348   -0.9008    0.3448 C   0  0  0  0  0  0  0  0  0  0  0  0
   -0.8781   -1.3676   -0.0889 C   0  0  2  0  0  0  0  0  0  0  0  0
   -0.2383   -1.9585    1.0969 N   0  0  0  0  0  0  0  0  0  0  0  0
   -0.0807   -0.1026   -0.4485 C   0  0  2  0  0  0  0  0  0  0  0  0
    1.3416   -0.4393   -0.1714 C   0  0  1  0  0  0  0  0  0  0  0  0
    1.6923   -1.4395   -1.1120 O   0  0  0  0  0  0  0  0  0  0  0  0
    2.3312    0.6548   -0.3259 C   0  0  0  0  0  0  0  0  0  0  0  0
    3.6029    0.0897   -0.0638 O   0  0  0  0  0  0  0  0  0  0  0  0
   -1.4748    2.7928    0.2301 H   0  0  0  0  0  0  0  0  0  0  0  0
   -0.6761    2.2675   -1.2660 H   0  0  0  0  0  0  0  0  0  0  0  0
    0.2832    2.7969    0.2257 H   0  0  0  0  0  0  0  0  0  0  0  0
   -2.7561    1.1670    0.8276 H   0  0  0  0  0  0  0  0  0  0  0  0
   -2.3132    0.8016   -0.9208 H   0  0  0  0  0  0  0  0  0  0  0  0
   -2.4692   -1.1062    1.4004 H   0  0  0  0  0  0  0  0  0  0  0  0
   -3.0300   -1.3327   -0.3250 H   0  0  0  0  0  0  0  0  0  0  0  0
   -0.8862   -2.0811   -0.9227 H   0  0  0  0  0  0  0  0  0  0  0  0
   -0.2569   -1.1880    1.8312 H   0  0  0  0  0  0  0  0  0  0  0  0
   -0.9004   -2.6799    1.4637 H   0  0  0  0  0  0  0  0  0  0  0  0
   -0.2204    0.0395   -1.5426 H   0  0  0  0  0  0  0  0  0  0  0  0
    1.4964   -0.9212    0.8233 H   0  0  0  0  0  0  0  0  0  0  0  0
    2.3072   -2.1007   -0.7200 H   0  0  0  0  0  0  0  0  0  0  0  0
    2.3450    1.0534   -1.3371 H   0  0  0  0  0  0  0  0  0  0  0  0
    2.2023    1.4013    0.4799 H   0  0  0  0  0  0  0  0  0  0  0  0
    4.2004    0.8466    0.1612 H   0  0  0  0  0  0  0  0  0  0  0  0
  1  2  1  0
  2  3  1  0
  3  4  1  0
  4  5  1  0
  5  6  1  0
  5  7  1  0
  7  8  1  0
  8  9  1  0
  8 10  1  0
 10 11  1  0
  7  2  1  0
  1 12  1  0
  1 13  1  0
  1 14  1  0
  3 15  1  0
  3 16  1  0
  4 17  1  0
  4 18  1  0
  5 19  1  6
  6 20  1  0
  6 21  1  0
  7 22  1  6
  8 23  1  1
  9 24  1  0
 10 25  1  0
 10 26  1  0
 11 27  1  0
M  END
$$$$

     RDKit          3D

 27 27  0  0  0  0  0  0  0  0999 V2000
   -1.1585   -1.8855   -0.7852 C   0  0  0  0  0  0  0  0  0  0  0  0
   -0.6861   -0.4962   -0.8764 N   0  0  0  0  0  0  0  0  0  0  0  0
   -1.8843    0.3229   -0.8959 C   0  0  0  0  0  0  0  0  0  0  0  0
   -2.0786    0.7572    0.5578 C   0  0  0  0  0  0  0  0  0  0  0  0
   -0.6157    1.0564    0.9152 C   0  0  2  0  0  0  0  0  0  0  0  0
   -0.2629    2.2539    0.1837 N   0  0  0  0  0  0  0  0  0  0  0  0
    0.0527   -0.1724    0.2977 C   0  0  2  0  0  0  0  0  0  0  0  0
    1.4822    0.1662    0.0745 C   0  0  1  0  0  0  0  0  0  0  0  0
    2.0564    0.4565    1.3227 O   0  0  0  0  0  0  0  0  0  0  0  0
    2.2811   -0.9516   -0.5436 C   0  0  0  0  0  0  0  0  0  0  0  0
    3.6073   -0.5540   -0.7037 O   0  0  0  0  0  0  0  0  0  0  0  0
   -0.5129   -2.5056   -0.1630 H   0  0  0  0  0  0  0  0  0  0  0  0
   -1.3192   -2.2987   -1.8149 H   0  0  0  0  0  0  0  0  0  0  0  0
   -2.1824   -1.9136   -0.3115 H   0  0  0  0  0  0  0  0  0  0  0  0
   -1.7512    1.2359   -1.5026 H   0  0  0  0  0  0  0  0  0  0  0  0
   -2.7848   -0.2374   -1.1794 H   0  0  0  0  0  0  0  0  0  0  0  0
   -2.6682    1.6673    0.6468 H   0  0  0  0  0  0  0  0  0  0  0  0
   -2.4108   -0.0783    1.1780 H   0  0  0  0  0  0  0  0  0  0  0  0
   -0.4579    1.1280    1.9909 H   0  0  0  0  0  0  0  0  0  0  0  0
    0.4580    2.8276    0.6284 H   0  0  0  0  0  0  0  0  0  0  0  0
   -1.1005    2.8329   -0.0498 H   0  0  0  0  0  0  0  0  0  0  0  0
   -0.0279   -0.9718    1.0624 H   0  0  0  0  0  0  0  0  0  0  0  0
    1.6173    1.0805   -0.5371 H   0  0  0  0  0  0  0  0  0  0  0  0
    2.1424   -0.3964    1.8518 H   0  0  0  0  0  0  0  0  0  0  0  0
    2.2842   -1.8647    0.0601 H   0  0  0  0  0  0  0  0  0  0  0  0
    1.8968   -1.1520   -1.5793 H   0  0  0  0  0  0  0  0  0  0  0  0
    4.0234   -0.3069    0.1724 H   0  0  0  0  0  0  0  0  0  0  0  0
  1  2  1  0
  2  3  1  0
  3  4  1  0
  4  5  1  0
  5  6  1  0
  5  7  1  0
  7  8  1  0
  8  9  1  0
  8 10  1  0
 10 11  1  0
  7  2  1  0
  1 12  1  0
  1 13  1  0
  1 14  1  0
  3 15  1  0
  3 16  1  0
  4 17  1  0
  4 18  1  0
  5 19  1  1
  6 20  1  0
  6 21  1  0
  7 22  1  1
  8 23  1  6
  9 24  1  0
 10 25  1  0
 10 26  1  0
 11 27  1  0
M  END
$$$$

     RDKit          3D

 27 27  0  0  0  0  0  0  0  0999 V2000
   -1.4163   -2.0289   -0.5266 C   0  0  0  0  0  0  0  0  0  0  0  0
   -1.1989   -0.6116   -0.4420 N   0  0  0  0  0  0  0  0  0  0  0  0
   -2.1463   -0.0845    0.5450 C   0  0  0  0  0  0  0  0  0  0  0  0
   -1.5336    1.2293    1.0241 C   0  0  0  0  0  0  0  0  0  0  0  0
   -0.1251    1.2034    0.4671 C   0  0  2  0  0  0  0  0  0  0  0  0
    0.0284    2.0780   -0.6656 N   0  0  0  0  0  0  0  0  0  0  0  0
    0.0590   -0.2347    0.1172 C   0  0  2  0  0  0  0  0  0  0  0  0
    1.2285   -0.4978   -0.7838 C   0  0  1  0  0  0  0  0  0  0  0  0
    1.1825    0.1594   -1.9854 O   0  0  0  0  0  0  0  0  0  0  0  0
    2.5160   -0.2135   -0.0640 C   0  0  0  0  0  0  0  0  0  0  0  0
    2.5137   -0.9040    1.1508 O   0  0  0  0  0  0  0  0  0  0  0  0
   -2.5086   -2.2218   -0.6543 H   0  0  0  0  0  0  0  0  0  0  0  0
   -0.9281   -2.4825   -1.4193 H   0  0  0  0  0  0  0  0  0  0  0  0
   -1.1218   -2.5529    0.4050 H   0  0  0  0  0  0  0  0  0  0  0  0
   -2.2410   -0.8100    1.3789 H   0  0  0  0  0  0  0  0  0  0  0  0
   -3.1053    0.0870    0.0198 H   0  0  0  0  0  0  0  0  0  0  0  0
   -1.4735    1.1692    2.1399 H   0  0  0  0  0  0  0  0  0  0  0  0
   -2.1286    2.0758    0.6645 H   0  0  0  0  0  0  0  0  0  0  0  0
    0.5904    1.5159    1.2417 H   0  0  0  0  0  0  0  0  0  0  0  0
   -0.1308    3.0552   -0.3746 H   0  0  0  0  0  0  0  0  0  0  0  0
   -0.5077    1.7849   -1.5039 H   0  0  0  0  0  0  0  0  0  0  0  0
    0.2193   -0.8026    1.0534 H   0  0  0  0  0  0  0  0  0  0  0  0
    1.2209   -1.5987   -1.0051 H   0  0  0  0  0  0  0  0  0  0  0  0
    1.8549    0.8762   -2.0928 H   0  0  0  0  0  0  0  0  0  0  0  0
    3.3954   -0.6147   -0.6329 H   0  0  0  0  0  0  0  0  0  0  0  0
    2.7053    0.8576    0.0934 H   0  0  0  0  0  0  0  0  0  0  0  0
    3.0512   -0.4338    1.8495 H   0  0  0  0  0  0  0  0  0  0  0  0
  1  2  1  0
  2  3  1  0
  3  4  1  0
  4  5  1  0
  5  6  1  0
  5  7  1  0
  7  8  1  0
  8  9  1  0
  8 10  1  0
 10 11  1  0
  7  2  1  0
  1 12  1  0
  1 13  1  0
  1 14  1  0
  3 15  1  0
  3 16  1  0
  4 17  1  0
  4 18  1  0
  5 19  1  1
  6 20  1  0
  6 21  1  0
  7 22  1  1
  8 23  1  6
  9 24  1  0
 10 25  1  0
 10 26  1  0
 11 27  1  0
M  END
$$$$

     RDKit          3D

 27 27  0  0  0  0  0  0  0  0999 V2000
   -0.1354    2.0978   -0.5067 C   0  0  0  0  0  0  0  0  0  0  0  0
   -0.4392    0.8690    0.1608 N   0  0  0  0  0  0  0  0  0  0  0  0
   -1.8814    0.7361    0.1777 C   0  0  0  0  0  0  0  0  0  0  0  0
   -2.1985   -0.5963   -0.4590 C   0  0  0  0  0  0  0  0  0  0  0  0
   -0.9283   -1.3492   -0.2341 C   0  0  2  0  0  0  0  0  0  0  0  0
   -0.9109   -1.8032    1.1648 N   0  0  0  0  0  0  0  0  0  0  0  0
    0.1446   -0.2919   -0.4035 C   0  0  2  0  0  0  0  0  0  0  0  0
    1.3568   -0.8038    0.3556 C   0  0  1  0  0  0  0  0  0  0  0  0
    1.8123   -1.9547   -0.3354 O   0  0  0  0  0  0  0  0  0  0  0  0
    2.5055    0.1492    0.3374 C   0  0  0  0  0  0  0  0  0  0  0  0
    2.2637    1.3507    0.9702 O   0  0  0  0  0  0  0  0  0  0  0  0
    0.7231    2.0484   -1.1953 H   0  0  0  0  0  0  0  0  0  0  0  0
    0.0735    2.8675    0.2910 H   0  0  0  0  0  0  0  0  0  0  0  0
   -0.9963    2.4526   -1.1103 H   0  0  0  0  0  0  0  0  0  0  0  0
   -2.3895    1.5098   -0.4381 H   0  0  0  0  0  0  0  0  0  0  0  0
   -2.3071    0.8211    1.2021 H   0  0  0  0  0  0  0  0  0  0  0  0
   -3.0307   -1.0462    0.1065 H   0  0  0  0  0  0  0  0  0  0  0  0
   -2.3916   -0.5244   -1.5345 H   0  0  0  0  0  0  0  0  0  0  0  0
   -0.7743   -2.1987   -0.9255 H   0  0  0  0  0  0  0  0  0  0  0  0
   -1.7933   -2.3477    1.3392 H   0  0  0  0  0  0  0  0  0  0  0  0
   -0.9877   -0.9182    1.7336 H   0  0  0  0  0  0  0  0  0  0  0  0
    0.4335   -0.1830   -1.4704 H   0  0  0  0  0  0  0  0  0  0  0  0
    1.0946   -1.1328    1.3789 H   0  0  0  0  0  0  0  0  0  0  0  0
    1.7036   -1.7183   -1.3103 H   0  0  0  0  0  0  0  0  0  0  0  0
    3.3448   -0.3357    0.8797 H   0  0  0  0  0  0  0  0  0  0  0  0
    2.8533    0.2712   -0.7102 H   0  0  0  0  0  0  0  0  0  0  0  0
    2.8546    2.0307    0.5359 H   0  0  0  0  0  0  0  0  0  0  0  0
  1  2  1  0
  2  3  1  0
  3  4  1  0
  4  5  1  0
  5  6  1  0
  5  7  1  0
  7  8  1  0
  8  9  1  0
  8 10  1  0
 10 11  1  0
  7  2  1  0
  1 12  1  0
  1 13  1  0
  1 14  1  0
  3 15  1  0
  3 16  1  0
  4 17  1  0
  4 18  1  0
  5 19  1  6
  6 20  1  0
  6 21  1  0
  7 22  1  6
  8 23  1  1
  9 24  1  0
 10 25  1  0
 10 26  1  0
 11 27  1  0
M  END
$$$$

     RDKit          3D

 27 27  0  0  0  0  0  0  0  0999 V2000
   -1.5398   -2.1172    0.1298 C   0  0  0  0  0  0  0  0  0  0  0  0
   -0.7430   -1.0440   -0.4209 N   0  0  0  0  0  0  0  0  0  0  0  0
   -1.6271   -0.2065   -1.2116 C   0  0  0  0  0  0  0  0  0  0  0  0
   -1.1041    1.2186   -1.0315 C   0  0  0  0  0  0  0  0  0  0  0  0
   -0.6648    1.1831    0.4023 C   0  0  2  0  0  0  0  0  0  0  0  0
    0.2770    2.2008    0.7532 N   0  0  0  0  0  0  0  0  0  0  0  0
   -0.1762   -0.2100    0.6084 C   0  0  2  0  0  0  0  0  0  0  0  0
    1.3205   -0.3214    0.6939 C   0  0  1  0  0  0  0  0  0  0  0  0
    1.6401   -1.6534    0.9758 O   0  0  0  0  0  0  0  0  0  0  0  0
    2.0215    0.0395   -0.5858 C   0  0  0  0  0  0  0  0  0  0  0  0
    3.4010   -0.1357   -0.3455 O   0  0  0  0  0  0  0  0  0  0  0  0
   -2.5340   -1.7577    0.4823 H   0  0  0  0  0  0  0  0  0  0  0  0
   -1.7132   -2.8779   -0.6520 H   0  0  0  0  0  0  0  0  0  0  0  0
   -1.0288   -2.5788    1.0242 H   0  0  0  0  0  0  0  0  0  0  0  0
   -1.6478   -0.5073   -2.2718 H   0  0  0  0  0  0  0  0  0  0  0  0
   -2.6652   -0.2096   -0.7835 H   0  0  0  0  0  0  0  0  0  0  0  0
   -1.9484    1.9290   -1.2002 H   0  0  0  0  0  0  0  0  0  0  0  0
   -0.3276    1.4660   -1.7458 H   0  0  0  0  0  0  0  0  0  0  0  0
   -1.5901    1.3725    1.0215 H   0  0  0  0  0  0  0  0  0  0  0  0
    0.2682    2.2713    1.8136 H   0  0  0  0  0  0  0  0  0  0  0  0
   -0.0351    3.1172    0.4106 H   0  0  0  0  0  0  0  0  0  0  0  0
   -0.5796   -0.5694    1.5827 H   0  0  0  0  0  0  0  0  0  0  0  0
    1.6624    0.2950    1.5453 H   0  0  0  0  0  0  0  0  0  0  0  0
    1.7615   -1.7994    1.9509 H   0  0  0  0  0  0  0  0  0  0  0  0
    1.8861    1.0650   -0.9101 H   0  0  0  0  0  0  0  0  0  0  0  0
    1.7373   -0.6703   -1.3872 H   0  0  0  0  0  0  0  0  0  0  0  0
    3.9493    0.5004   -0.8484 H   0  0  0  0  0  0  0  0  0  0  0  0
  1  2  1  0
  2  3  1  0
  3  4  1  0
  4  5  1  0
  5  6  1  0
  5  7  1  0
  7  8  1  0
  8  9  1  0
  8 10  1  0
 10 11  1  0
  7  2  1  0
  1 12  1  0
  1 13  1  0
  1 14  1  0
  3 15  1  0
  3 16  1  0
  4 17  1  0
  4 18  1  0
  5 19  1  1
  6 20  1  0
  6 21  1  0
  7 22  1  1
  8 23  1  1
  9 24  1  0
 10 25  1  0
 10 26  1  0
 11 27  1  0
M  END
$$$$

     RDKit          3D

 27 27  0  0  0  0  0  0  0  0999 V2000
   -0.9768   -1.8791   -1.1006 C   0  0  0  0  0  0  0  0  0  0  0  0
   -0.5073   -0.5154   -0.8977 N   0  0  0  0  0  0  0  0  0  0  0  0
   -1.6470    0.3516   -1.1039 C   0  0  0  0  0  0  0  0  0  0  0  0
   -2.0699    0.7928    0.2911 C   0  0  0  0  0  0  0  0  0  0  0  0
   -0.6872    0.9471    0.9506 C   0  0  2  0  0  0  0  0  0  0  0  0
   -0.0802    2.1827    0.5778 N   0  0  0  0  0  0  0  0  0  0  0  0
   -0.0372   -0.2920    0.4513 C   0  0  2  0  0  0  0  0  0  0  0  0
    1.4273   -0.4146    0.6385 C   0  0  1  0  0  0  0  0  0  0  0  0
    1.7613   -1.7431    0.2662 O   0  0  0  0  0  0  0  0  0  0  0  0
    2.2709    0.5112   -0.1964 C   0  0  0  0  0  0  0  0  0  0  0  0
    3.6141    0.1799    0.1108 O   0  0  0  0  0  0  0  0  0  0  0  0
   -0.2056   -2.5548   -0.7007 H   0  0  0  0  0  0  0  0  0  0  0  0
   -1.1681   -2.0295   -2.1625 H   0  0  0  0  0  0  0  0  0  0  0  0
   -1.9284   -2.0038   -0.5295 H   0  0  0  0  0  0  0  0  0  0  0  0
   -1.3008    1.2412   -1.6946 H   0  0  0  0  0  0  0  0  0  0  0  0
   -2.4670   -0.1142   -1.6582 H   0  0  0  0  0  0  0  0  0  0  0  0
   -2.5475   -0.0683    0.7638 H   0  0  0  0  0  0  0  0  0  0  0  0
   -2.6331    1.7214    0.2988 H   0  0  0  0  0  0  0  0  0  0  0  0
   -0.8931    0.9349    2.0463 H   0  0  0  0  0  0  0  0  0  0  0  0
   -0.3282    2.5079   -0.3895 H   0  0  0  0  0  0  0  0  0  0  0  0
   -0.4318    2.9287    1.2281 H   0  0  0  0  0  0  0  0  0  0  0  0
   -0.4956   -1.1379    1.0524 H   0  0  0  0  0  0  0  0  0  0  0  0
    1.6691   -0.3220    1.6974 H   0  0  0  0  0  0  0  0  0  0  0  0
    1.6835   -2.3219    1.0496 H   0  0  0  0  0  0  0  0  0  0  0  0
    2.1504    1.5412    0.1748 H   0  0  0  0  0  0  0  0  0  0  0  0
    2.1465    0.3783   -1.2680 H   0  0  0  0  0  0  0  0  0  0  0  0
    3.6818   -0.8222    0.1044 H   0  0  0  0  0  0  0  0  0  0  0  0
  1  2  1  0
  2  3  1  0
  3  4  1  0
  4  5  1  0
  5  6  1  0
  5  7  1  0
  7  8  1  0
  8  9  1  0
  8 10  1  0
 10 11  1  0
  7  2  1  0
  1 12  1  0
  1 13  1  0
  1 14  1  0
  3 15  1  0
  3 16  1  0
  4 17  1  0
  4 18  1  0
  5 19  1  1
  6 20  1  0
  6 21  1  0
  7 22  1  1
  8 23  1  1
  9 24  1  0
 10 25  1  0
 10 26  1  0
 11 27  1  0
M  END
$$$$
