
     RDKit          3D

 28 28  0  0  0  0  0  0  0  0999 V2000
    4.4818    0.4126   -0.4931 C   0  0  0  0  0  0  0  0  0  0  0  0
    3.1556    0.5771   -0.0174 O   0  0  0  0  0  0  0  0  0  0  0  0
    2.0490    0.3722   -0.8236 C   0  0  0  0  0  0  0  0  0  0  0  0
    2.2959    0.0253   -2.0243 O   0  0  0  0  0  0  0  0  0  0  0  0
    0.6433    0.5417   -0.3365 C   0  0  2  0  0  0  0  0  0  0  0  0
    0.7401    0.9356    1.0552 N   0  0  0  0  0  0  0  0  0  0  0  0
   -0.1015   -0.7317   -0.4958 C   0  0  2  0  0  0  0  0  0  0  0  0
   -0.1345   -1.0336   -1.8812 O   0  0  0  0  0  0  0  0  0  0  0  0
   -1.4815   -0.7868   -0.0076 C   0  0  2  0  0  0  0  0  0  0  0  0
   -2.4188    0.2146   -0.6639 C   0  0  0  0  0  0  0  0  0  0  0  0
   -3.5546    0.2220    0.3460 C   0  0  0  0  0  0  0  0  0  0  0  0
   -3.1506   -0.5145    1.4479 O   0  0  0  0  0  0  0  0  0  0  0  0
   -1.7428   -0.5144    1.4286 C   0  0  0  0  0  0  0  0  0  0  0  0
    5.1145    1.1215    0.0927 H   0  0  0  0  0  0  0  0  0  0  0  0
    4.8651   -0.6078   -0.2517 H   0  0  0  0  0  0  0  0  0  0  0  0
    4.6003    0.6714   -1.5516 H   0  0  0  0  0  0  0  0  0  0  0  0
    0.2115    1.3890   -0.9070 H   0  0  0  0  0  0  0  0  0  0  0  0
    0.9506    0.0701    1.6322 H   0  0  0  0  0  0  0  0  0  0  0  0
    1.5685    1.5640    1.2082 H   0  0  0  0  0  0  0  0  0  0  0  0
    0.4979   -1.5418   -0.0292 H   0  0  0  0  0  0  0  0  0  0  0  0
   -0.7786   -1.7775   -1.9684 H   0  0  0  0  0  0  0  0  0  0  0  0
   -1.9127   -1.7937   -0.2375 H   0  0  0  0  0  0  0  0  0  0  0  0
   -1.9624    1.2186   -0.6944 H   0  0  0  0  0  0  0  0  0  0  0  0
   -2.7535   -0.1161   -1.6577 H   0  0  0  0  0  0  0  0  0  0  0  0
   -3.8954    1.2359    0.5957 H   0  0  0  0  0  0  0  0  0  0  0  0
   -4.4080   -0.3172   -0.1182 H   0  0  0  0  0  0  0  0  0  0  0  0
   -1.4534    0.4806    1.7837 H   0  0  0  0  0  0  0  0  0  0  0  0
   -1.4257   -1.3169    2.1178 H   0  0  0  0  0  0  0  0  0  0  0  0
  1  2  1  0
  2  3  1  0
  3  4  2  0
  3  5  1  0
  5  6  1  0
  5  7  1  0
  7  8  1  0
  7  9  1  0
  9 10  1  0
 10 11  1  0
 11 12  1  0
 12 13  1  0
 13  9  1  0
  1 14  1  0
  1 15  1  0
  1 16  1  0
  5 17  1  6
  6 18  1  0
  6 19  1  0
  7 20  1  1
  8 21  1  0
  9 22  1  6
 10 23  1  0
 10 24  1  0
 11 25  1  0
 11 26  1  0
 13 27  1  0
 13 28  1  0
M  END
$$$$

     RDKit          3D

 28 28  0  0  0  0  0  0  0  0999 V2000
    3.1947   -1.5117    0.0981 C   0  0  0  0  0  0  0  0  0  0  0  0
    2.3051   -0.5515   -0.4210 O   0  0  0  0  0  0  0  0  0  0  0  0
    1.7668    0.4134    0.3904 C   0  0  0  0  0  0  0  0  0  0  0  0
    2.0565    0.4578    1.6064 O   0  0  0  0  0  0  0  0  0  0  0  0
    0.8408    1.4081   -0.1704 C   0  0  2  0  0  0  0  0  0  0  0  0
    0.3487    2.3050    0.8386 N   0  0  0  0  0  0  0  0  0  0  0  0
   -0.2430    0.7976   -0.9987 C   0  0  2  0  0  0  0  0  0  0  0  0
   -0.8877    1.8877   -1.6495 O   0  0  0  0  0  0  0  0  0  0  0  0
   -1.2895    0.1979   -0.1265 C   0  0  2  0  0  0  0  0  0  0  0  0
   -0.8318   -0.8969    0.7950 C   0  0  0  0  0  0  0  0  0  0  0  0
   -2.1660   -1.6289    1.0185 C   0  0  0  0  0  0  0  0  0  0  0  0
   -2.9374   -1.4491   -0.0914 O   0  0  0  0  0  0  0  0  0  0  0  0
   -2.3241   -0.5849   -0.9527 C   0  0  0  0  0  0  0  0  0  0  0  0
    3.7319   -1.9599   -0.7770 H   0  0  0  0  0  0  0  0  0  0  0  0
    2.6051   -2.2920    0.6164 H   0  0  0  0  0  0  0  0  0  0  0  0
    3.9489   -1.0546    0.7389 H   0  0  0  0  0  0  0  0  0  0  0  0
    1.4965    2.0869   -0.8342 H   0  0  0  0  0  0  0  0  0  0  0  0
    0.9376    2.3268    1.6907 H   0  0  0  0  0  0  0  0  0  0  0  0
    0.2659    3.2859    0.4928 H   0  0  0  0  0  0  0  0  0  0  0  0
    0.1085    0.1242   -1.7773 H   0  0  0  0  0  0  0  0  0  0  0  0
   -1.1531    2.4922   -0.9111 H   0  0  0  0  0  0  0  0  0  0  0  0
   -1.7954    1.0004    0.4528 H   0  0  0  0  0  0  0  0  0  0  0  0
   -0.1329   -1.5470    0.2525 H   0  0  0  0  0  0  0  0  0  0  0  0
   -0.4544   -0.5095    1.7642 H   0  0  0  0  0  0  0  0  0  0  0  0
   -2.0041   -2.6799    1.3075 H   0  0  0  0  0  0  0  0  0  0  0  0
   -2.6525   -1.0605    1.8643 H   0  0  0  0  0  0  0  0  0  0  0  0
   -3.0145    0.1133   -1.4681 H   0  0  0  0  0  0  0  0  0  0  0  0
   -1.7204   -1.1712   -1.6825 H   0  0  0  0  0  0  0  0  0  0  0  0
  1  2  1  0
  2  3  1  0
  3  4  2  0
  3  5  1  0
  5  6  1  0
  5  7  1  0
  7  8  1  0
  7  9  1  0
  9 10  1  0
 10 11  1  0
 11 12  1  0
 12 13  1  0
 13  9  1  0
  1 14  1  0
  1 15  1  0
  1 16  1  0
  5 17  1  6
  6 18  1  0
  6 19  1  0
  7 20  1  6
  8 21  1  0
  9 22  1  1
 10 23  1  0
 10 24  1  0
 11 25  1  0
 11 26  1  0
 13 27  1  0
 13 28  1  0
M  END
$$$$

     RDKit          3D

 28 28  0  0  0  0  0  0  0  0999 V2000
    2.9669    2.0876    0.7324 C   0  0  0  0  0  0  0  0  0  0  0  0
    2.4247    0.9248    0.1077 O   0  0  0  0  0  0  0  0  0  0  0  0
    1.6894   -0.0090    0.8217 C   0  0  0  0  0  0  0  0  0  0  0  0
    1.5227    0.2165    2.0457 O   0  0  0  0  0  0  0  0  0  0  0  0
    1.1206   -1.2163    0.1964 C   0  0  2  0  0  0  0  0  0  0  0  0
    1.4526   -1.3452   -1.2006 N   0  0  0  0  0  0  0  0  0  0  0  0
   -0.3522   -1.4076    0.4363 C   0  0  2  0  0  0  0  0  0  0  0  0
   -0.6198   -2.7256   -0.0177 O   0  0  0  0  0  0  0  0  0  0  0  0
   -1.2238   -0.5095   -0.3720 C   0  0  2  0  0  0  0  0  0  0  0  0
   -1.0178    0.9628   -0.1478 C   0  0  0  0  0  0  0  0  0  0  0  0
   -2.4477    1.4907   -0.3244 C   0  0  0  0  0  0  0  0  0  0  0  0
   -3.2561    0.4019   -0.5839 O   0  0  0  0  0  0  0  0  0  0  0  0
   -2.6626   -0.6375    0.1470 C   0  0  0  0  0  0  0  0  0  0  0  0
    3.1562    2.8796   -0.0209 H   0  0  0  0  0  0  0  0  0  0  0  0
    2.2743    2.4434    1.5413 H   0  0  0  0  0  0  0  0  0  0  0  0
    3.9270    1.8448    1.2432 H   0  0  0  0  0  0  0  0  0  0  0  0
    1.6135   -2.1070    0.6926 H   0  0  0  0  0  0  0  0  0  0  0  0
    2.4589   -1.0148   -1.3029 H   0  0  0  0  0  0  0  0  0  0  0  0
    1.4703   -2.3416   -1.5174 H   0  0  0  0  0  0  0  0  0  0  0  0
   -0.5661   -1.3885    1.5038 H   0  0  0  0  0  0  0  0  0  0  0  0
   -0.5078   -2.6599   -1.0181 H   0  0  0  0  0  0  0  0  0  0  0  0
   -1.2401   -0.7526   -1.4451 H   0  0  0  0  0  0  0  0  0  0  0  0
   -0.7551    1.1736    0.8877 H   0  0  0  0  0  0  0  0  0  0  0  0
   -0.3529    1.4367   -0.8808 H   0  0  0  0  0  0  0  0  0  0  0  0
   -2.4768    2.2282   -1.1625 H   0  0  0  0  0  0  0  0  0  0  0  0
   -2.8277    1.9887    0.5801 H   0  0  0  0  0  0  0  0  0  0  0  0
   -3.0855   -1.6166   -0.0692 H   0  0  0  0  0  0  0  0  0  0  0  0
   -2.6852   -0.3477    1.2158 H   0  0  0  0  0  0  0  0  0  0  0  0
  1  2  1  0
  2  3  1  0
  3  4  2  0
  3  5  1  0
  5  6  1  0
  5  7  1  0
  7  8  1  0
  7  9  1  0
  9 10  1  0
 10 11  1  0
 11 12  1  0
 12 13  1  0
 13  9  1  0
  1 14  1  0
  1 15  1  0
  1 16  1  0
  5 17  1  1
  6 18  1  0
  6 19  1  0
  7 20  1  1
  8 21  1  0
  9 22  1  6
 10 23  1  0
 10 24  1  0
 11 25  1  0
 11 26  1  0
 13 27  1  0
 13 28  1  0
M  END
$$$$

     RDKit          3D

 28 28  0  0  0  0  0  0  0  0999 V2000
    4.2651    0.8858   -0.2677 C   0  0  0  0  0  0  0  0  0  0  0  0
    3.0615    0.1304   -0.4321 O   0  0  0  0  0  0  0  0  0  0  0  0
    2.0465    0.1586    0.5018 C   0  0  0  0  0  0  0  0  0  0  0  0
    2.2209    0.8822    1.5159 O   0  0  0  0  0  0  0  0  0  0  0  0
    0.7791   -0.6420    0.3202 C   0  0  2  0  0  0  0  0  0  0  0  0
    0.8374   -1.3666   -0.8994 N   0  0  0  0  0  0  0  0  0  0  0  0
   -0.3596    0.2714    0.5367 C   0  0  2  0  0  0  0  0  0  0  0  0
   -0.1432    0.8689    1.8140 O   0  0  0  0  0  0  0  0  0  0  0  0
   -1.7211   -0.3169    0.6139 C   0  0  2  0  0  0  0  0  0  0  0  0
   -2.1408   -1.0458   -0.6212 C   0  0  0  0  0  0  0  0  0  0  0  0
   -2.5495    0.1396   -1.5016 C   0  0  0  0  0  0  0  0  0  0  0  0
   -3.2968    0.8858   -0.6235 O   0  0  0  0  0  0  0  0  0  0  0  0
   -2.7779    0.7991    0.6412 C   0  0  0  0  0  0  0  0  0  0  0  0
    4.5010    1.4893   -1.1465 H   0  0  0  0  0  0  0  0  0  0  0  0
    5.0725    0.1304   -0.1240 H   0  0  0  0  0  0  0  0  0  0  0  0
    4.2409    1.4834    0.6766 H   0  0  0  0  0  0  0  0  0  0  0  0
    0.7529   -1.4199    1.1437 H   0  0  0  0  0  0  0  0  0  0  0  0
    1.2461   -2.3179   -0.7702 H   0  0  0  0  0  0  0  0  0  0  0  0
    1.5309   -0.8625   -1.5318 H   0  0  0  0  0  0  0  0  0  0  0  0
   -0.3350    1.1472   -0.1696 H   0  0  0  0  0  0  0  0  0  0  0  0
   -0.0792    0.1219    2.4699 H   0  0  0  0  0  0  0  0  0  0  0  0
   -1.8853   -0.9375    1.5120 H   0  0  0  0  0  0  0  0  0  0  0  0
   -3.1255   -1.5603   -0.4043 H   0  0  0  0  0  0  0  0  0  0  0  0
   -1.4268   -1.7130   -1.0779 H   0  0  0  0  0  0  0  0  0  0  0  0
   -1.6615    0.6776   -1.8845 H   0  0  0  0  0  0  0  0  0  0  0  0
   -3.1604   -0.1973   -2.3566 H   0  0  0  0  0  0  0  0  0  0  0  0
   -3.5719    0.5538    1.3758 H   0  0  0  0  0  0  0  0  0  0  0  0
   -2.3202    1.7543    0.9799 H   0  0  0  0  0  0  0  0  0  0  0  0
  1  2  1  0
  2  3  1  0
  3  4  2  0
  3  5  1  0
  5  6  1  0
  5  7  1  0
  7  8  1  0
  7  9  1  0
  9 10  1  0
 10 11  1  0
 11 12  1  0
 12 13  1  0
 13  9  1  0
  1 14  1  0
  1 15  1  0
  1 16  1  0
  5 17  1  1
  6 18  1  0
  6 19  1  0
  7 20  1  6
  8 21  1  0
  9 22  1  1
 10 23  1  0
 10 24  1  0
 11 25  1  0
 11 26  1  0
 13 27  1  0
 13 28  1  0
M  END
$$$$

     RDKit          3D

 28 28  0  0  0  0  0  0  0  0999 V2000
    4.0983    0.7320    0.4099 C   0  0  0  0  0  0  0  0  0  0  0  0
    3.0284   -0.2061    0.4691 O   0  0  0  0  0  0  0  0  0  0  0  0
    1.7107    0.1588    0.4938 C   0  0  0  0  0  0  0  0  0  0  0  0
    1.3974    1.3671    0.4641 O   0  0  0  0  0  0  0  0  0  0  0  0
    0.6465   -0.8651    0.5555 C   0  0  2  0  0  0  0  0  0  0  0  0
    1.2767   -2.1893    0.6047 N   0  0  0  0  0  0  0  0  0  0  0  0
   -0.2987   -0.8294   -0.6234 C   0  0  2  0  0  0  0  0  0  0  0  0
    0.3093   -1.0427   -1.8290 O   0  0  0  0  0  0  0  0  0  0  0  0
   -1.1455    0.3927   -0.5488 C   0  0  2  0  0  0  0  0  0  0  0  0
   -1.9804    0.4514    0.7164 C   0  0  0  0  0  0  0  0  0  0  0  0
   -2.9753    1.5232    0.2528 C   0  0  0  0  0  0  0  0  0  0  0  0
   -3.3417    1.0640   -0.9864 O   0  0  0  0  0  0  0  0  0  0  0  0
   -2.2781    0.3989   -1.5573 C   0  0  0  0  0  0  0  0  0  0  0  0
    3.8206    1.5523   -0.3050 H   0  0  0  0  0  0  0  0  0  0  0  0
    4.1978    1.1692    1.4234 H   0  0  0  0  0  0  0  0  0  0  0  0
    5.0267    0.2712    0.0564 H   0  0  0  0  0  0  0  0  0  0  0  0
    0.0327   -0.7725    1.4784 H   0  0  0  0  0  0  0  0  0  0  0  0
    0.5543   -2.8986    0.8800 H   0  0  0  0  0  0  0  0  0  0  0  0
    1.7323   -2.4135   -0.3083 H   0  0  0  0  0  0  0  0  0  0  0  0
   -0.9888   -1.7110   -0.4652 H   0  0  0  0  0  0  0  0  0  0  0  0
    0.5166   -2.0076   -1.9050 H   0  0  0  0  0  0  0  0  0  0  0  0
   -0.6205    1.3471   -0.6813 H   0  0  0  0  0  0  0  0  0  0  0  0
   -2.5270   -0.5026    0.7993 H   0  0  0  0  0  0  0  0  0  0  0  0
   -1.4257    0.7494    1.5976 H   0  0  0  0  0  0  0  0  0  0  0  0
   -2.3563    2.4587    0.1519 H   0  0  0  0  0  0  0  0  0  0  0  0
   -3.7902    1.6192    0.9691 H   0  0  0  0  0  0  0  0  0  0  0  0
   -2.0082    0.8460   -2.5125 H   0  0  0  0  0  0  0  0  0  0  0  0
   -2.6118   -0.6629   -1.7320 H   0  0  0  0  0  0  0  0  0  0  0  0
  1  2  1  0
  2  3  1  0
  3  4  2  0
  3  5  1  0
  5  6  1  0
  5  7  1  0
  7  8  1  0
  7  9  1  0
  9 10  1  0
 10 11  1  0
 11 12  1  0
 12 13  1  0
 13  9  1  0
  1 14  1  0
  1 15  1  0
  1 16  1  0
  5 17  1  1
  6 18  1  0
  6 19  1  0
  7 20  1  1
  8 21  1  0
  9 22  1  6
 10 23  1  0
 10 24  1  0
 11 25  1  0
 11 26  1  0
 13 27  1  0
 13 28  1  0
M  END
$$$$

     RDKit          3D

 28 28  0  0  0  0  0  0  0  0999 V2000
    3.8529    1.2037    0.7157 C   0  0  0  0  0  0  0  0  0  0  0  0
    3.0383    0.2378    0.0755 O   0  0  0  0  0  0  0  0  0  0  0  0
    1.7214   -0.0232    0.5185 C   0  0  0  0  0  0  0  0  0  0  0  0
    1.3592    0.6493    1.4864 O   0  0  0  0  0  0  0  0  0  0  0  0
    0.8662   -1.0534   -0.1721 C   0  0  2  0  0  0  0  0  0  0  0  0
    1.7524   -1.6501   -1.2224 N   0  0  0  0  0  0  0  0  0  0  0  0
   -0.2602   -0.4592   -0.9319 C   0  0  2  0  0  0  0  0  0  0  0  0
    0.2365    0.5605   -1.7533 O   0  0  0  0  0  0  0  0  0  0  0  0
   -1.4948   -0.0771   -0.3034 C   0  0  2  0  0  0  0  0  0  0  0  0
   -1.5453    0.9302    0.7901 C   0  0  0  0  0  0  0  0  0  0  0  0
   -3.1016    0.9120    0.9234 C   0  0  0  0  0  0  0  0  0  0  0  0
   -3.4419   -0.4154    0.7768 O   0  0  0  0  0  0  0  0  0  0  0  0
   -2.3335   -1.1508    0.3609 C   0  0  0  0  0  0  0  0  0  0  0  0
    4.8306    0.7330    0.9730 H   0  0  0  0  0  0  0  0  0  0  0  0
    3.4027    1.5403    1.6829 H   0  0  0  0  0  0  0  0  0  0  0  0
    4.0836    2.0672    0.0700 H   0  0  0  0  0  0  0  0  0  0  0  0
    0.6196   -1.8908    0.4956 H   0  0  0  0  0  0  0  0  0  0  0  0
    1.6306   -2.6670   -1.2614 H   0  0  0  0  0  0  0  0  0  0  0  0
    1.6549   -1.1403   -2.1062 H   0  0  0  0  0  0  0  0  0  0  0  0
   -0.5747   -1.2608   -1.7329 H   0  0  0  0  0  0  0  0  0  0  0  0
   -0.3796    0.7028   -2.5249 H   0  0  0  0  0  0  0  0  0  0  0  0
   -2.1701    0.3596   -1.1238 H   0  0  0  0  0  0  0  0  0  0  0  0
   -1.2172    1.9354    0.5618 H   0  0  0  0  0  0  0  0  0  0  0  0
   -1.2542    0.5431    1.8002 H   0  0  0  0  0  0  0  0  0  0  0  0
   -3.4132    1.3771    1.8553 H   0  0  0  0  0  0  0  0  0  0  0  0
   -3.4489    1.4828    0.0384 H   0  0  0  0  0  0  0  0  0  0  0  0
   -2.5910   -1.9546   -0.3281 H   0  0  0  0  0  0  0  0  0  0  0  0
   -1.8228   -1.4922    1.2901 H   0  0  0  0  0  0  0  0  0  0  0  0
  1  2  1  0
  2  3  1  0
  3  4  2  0
  3  5  1  0
  5  6  1  0
  5  7  1  0
  7  8  1  0
  7  9  1  0
  9 10  1  0
 10 11  1  0
 11 12  1  0
 12 13  1  0
 13  9  1  0
  1 14  1  0
  1 15  1  0
  1 16  1  0
  5 17  1  1
  6 18  1  0
  6 19  1  0
  7 20  1  6
  8 21  1  0
  9 22  1  6
 10 23  1  0
 10 24  1  0
 11 25  1  0
 11 26  1  0
 13 27  1  0
 13 28  1  0
M  END
$$$$

     RDKit          3D

 28 28  0  0  0  0  0  0  0  0999 V2000
    4.1033    0.2946   -0.5160 C   0  0  0  0  0  0  0  0  0  0  0  0
    2.9448    0.7641    0.1411 O   0  0  0  0  0  0  0  0  0  0  0  0
    1.6793    0.5820   -0.3664 C   0  0  0  0  0  0  0  0  0  0  0  0
    1.5447   -0.0231   -1.4530 O   0  0  0  0  0  0  0  0  0  0  0  0
    0.4987    1.0871    0.3504 C   0  0  2  0  0  0  0  0  0  0  0  0
    0.9886    1.7856    1.5549 N   0  0  0  0  0  0  0  0  0  0  0  0
   -0.3831   -0.0316    0.8355 C   0  0  2  0  0  0  0  0  0  0  0  0
    0.3178   -0.9217    1.6426 O   0  0  0  0  0  0  0  0  0  0  0  0
   -1.0997   -0.7059   -0.2908 C   0  0  2  0  0  0  0  0  0  0  0  0
   -1.9718    0.2677   -1.0274 C   0  0  0  0  0  0  0  0  0  0  0  0
   -3.3574   -0.3685   -0.9259 C   0  0  0  0  0  0  0  0  0  0  0  0
   -3.0463   -1.7180   -0.8400 O   0  0  0  0  0  0  0  0  0  0  0  0
   -2.1125   -1.7135    0.2230 C   0  0  0  0  0  0  0  0  0  0  0  0
    4.6793    1.1085   -0.9803 H   0  0  0  0  0  0  0  0  0  0  0  0
    3.8443   -0.4621   -1.2830 H   0  0  0  0  0  0  0  0  0  0  0  0
    4.7918   -0.1821    0.2374 H   0  0  0  0  0  0  0  0  0  0  0  0
   -0.0845    1.8069   -0.2494 H   0  0  0  0  0  0  0  0  0  0  0  0
    1.8943    2.2672    1.3470 H   0  0  0  0  0  0  0  0  0  0  0  0
    1.2156    1.0249    2.2363 H   0  0  0  0  0  0  0  0  0  0  0  0
   -1.1839    0.3946    1.4998 H   0  0  0  0  0  0  0  0  0  0  0  0
    0.8015   -1.5434    1.0408 H   0  0  0  0  0  0  0  0  0  0  0  0
   -0.3606   -1.2230   -0.9360 H   0  0  0  0  0  0  0  0  0  0  0  0
   -2.0130    1.2802   -0.5618 H   0  0  0  0  0  0  0  0  0  0  0  0
   -1.6350    0.2995   -2.0796 H   0  0  0  0  0  0  0  0  0  0  0  0
   -3.8205    0.0139    0.0084 H   0  0  0  0  0  0  0  0  0  0  0  0
   -3.9337   -0.1001   -1.8225 H   0  0  0  0  0  0  0  0  0  0  0  0
   -2.6181   -1.2757    1.1021 H   0  0  0  0  0  0  0  0  0  0  0  0
   -1.6840   -2.7081    0.3925 H   0  0  0  0  0  0  0  0  0  0  0  0
  1  2  1  0
  2  3  1  0
  3  4  2  0
  3  5  1  0
  5  6  1  0
  5  7  1  0
  7  8  1  0
  7  9  1  0
  9 10  1  0
 10 11  1  0
 11 12  1  0
 12 13  1  0
 13  9  1  0
  1 14  1  0
  1 15  1  0
  1 16  1  0
  5 17  1  6
  6 18  1  0
  6 19  1  0
  7 20  1  1
  8 21  1  0
  9 22  1  6
 10 23  1  0
 10 24  1  0
 11 25  1  0
 11 26  1  0
 13 27  1  0
 13 28  1  0
M  END
$$$$

     RDKit          3D

 28 28  0  0  0  0  0  0  0  0999 V2000
    3.5789   -0.4787    1.3534 C   0  0  0  0  0  0  0  0  0  0  0  0
    2.5676    0.2434    0.6981 O   0  0  0  0  0  0  0  0  0  0  0  0
    1.9913   -0.1705   -0.5091 C   0  0  0  0  0  0  0  0  0  0  0  0
    2.4369   -1.2471   -0.9862 O   0  0  0  0  0  0  0  0  0  0  0  0
    0.9220    0.6082   -1.1865 C   0  0  2  0  0  0  0  0  0  0  0  0
    0.6591    1.7763   -0.3667 N   0  0  0  0  0  0  0  0  0  0  0  0
   -0.3352   -0.2114   -1.3747 C   0  0  2  0  0  0  0  0  0  0  0  0
   -1.2828    0.5977   -2.0006 O   0  0  0  0  0  0  0  0  0  0  0  0
   -0.8817   -0.5528    0.0028 C   0  0  2  0  0  0  0  0  0  0  0  0
   -2.1487   -1.3796   -0.1103 C   0  0  0  0  0  0  0  0  0  0  0  0
   -3.2071   -0.4158    0.3875 C   0  0  0  0  0  0  0  0  0  0  0  0
   -2.5387    0.2377    1.4051 O   0  0  0  0  0  0  0  0  0  0  0  0
   -1.3699    0.6616    0.7315 C   0  0  0  0  0  0  0  0  0  0  0  0
    4.4900    0.1693    1.3776 H   0  0  0  0  0  0  0  0  0  0  0  0
    3.3513   -0.7507    2.3850 H   0  0  0  0  0  0  0  0  0  0  0  0
    3.8739   -1.3985    0.8195 H   0  0  0  0  0  0  0  0  0  0  0  0
    1.3290    0.9517   -2.1594 H   0  0  0  0  0  0  0  0  0  0  0  0
    1.4914    1.9855    0.2269 H   0  0  0  0  0  0  0  0  0  0  0  0
    0.4873    2.6126   -0.9827 H   0  0  0  0  0  0  0  0  0  0  0  0
   -0.1791   -1.1001   -1.9818 H   0  0  0  0  0  0  0  0  0  0  0  0
   -0.9068    1.0326   -2.8125 H   0  0  0  0  0  0  0  0  0  0  0  0
   -0.0941   -1.0939    0.5721 H   0  0  0  0  0  0  0  0  0  0  0  0
   -2.3306   -1.7290   -1.1358 H   0  0  0  0  0  0  0  0  0  0  0  0
   -2.0706   -2.1917    0.6309 H   0  0  0  0  0  0  0  0  0  0  0  0
   -3.4479    0.3008   -0.4089 H   0  0  0  0  0  0  0  0  0  0  0  0
   -4.0850   -0.9924    0.7425 H   0  0  0  0  0  0  0  0  0  0  0  0
   -0.6407    1.0354    1.4800 H   0  0  0  0  0  0  0  0  0  0  0  0
   -1.6598    1.4992    0.0797 H   0  0  0  0  0  0  0  0  0  0  0  0
  1  2  1  0
  2  3  1  0
  3  4  2  0
  3  5  1  0
  5  6  1  0
  5  7  1  0
  7  8  1  0
  7  9  1  0
  9 10  1  0
 10 11  1  0
 11 12  1  0
 12 13  1  0
 13  9  1  0
  1 14  1  0
  1 15  1  0
  1 16  1  0
  5 17  1  6
  6 18  1  0
  6 19  1  0
  7 20  1  6
  8 21  1  0
  9 22  1  1
 10 23  1  0
 10 24  1  0
 11 25  1  0
 11 26  1  0
 13 27  1  0
 13 28  1  0
M  END
$$$$
