
     RDKit          3D

 20 21  0  0  0  0  0  0  0  0999 V2000
    3.1511    0.0320    0.4486 N   0  0  0  0  0  0  0  0  0  0  0  0
    1.9878    0.6868   -0.1331 C   0  0  2  0  0  0  0  0  0  0  0  0
    0.7517    0.5706    0.7047 C   0  0  0  0  0  0  0  0  0  0  0  0
    0.0704   -0.0277   -0.4189 N   0  0  0  0  0  0  0  0  0  0  0  0
   -1.2965   -0.3530   -0.6977 C   0  0  0  0  0  0  0  0  0  0  0  0
   -1.9530   -1.1033    0.4648 C   0  0  0  0  0  0  0  0  0  0  0  0
   -2.2772    0.1352    1.0166 O   0  0  0  0  0  0  0  0  0  0  0  0
   -2.3113    0.6609   -0.2645 C   0  0  0  0  0  0  0  0  0  0  0  0
    1.2846   -0.1624   -1.1278 C   0  0  0  0  0  0  0  0  0  0  0  0
    1.6473   -0.7539   -2.1750 O   0  0  0  0  0  0  0  0  0  0  0  0
    3.2715   -0.9325    0.1220 H   0  0  0  0  0  0  0  0  0  0  0  0
    3.1936    0.1085    1.4710 H   0  0  0  0  0  0  0  0  0  0  0  0
    2.2028    1.7269   -0.4948 H   0  0  0  0  0  0  0  0  0  0  0  0
    0.3069    1.5422    0.9997 H   0  0  0  0  0  0  0  0  0  0  0  0
    0.8311   -0.1131    1.5816 H   0  0  0  0  0  0  0  0  0  0  0  0
   -1.5011   -0.8131   -1.6682 H   0  0  0  0  0  0  0  0  0  0  0  0
   -1.1909   -1.6173    1.1068 H   0  0  0  0  0  0  0  0  0  0  0  0
   -2.8041   -1.7264    0.1637 H   0  0  0  0  0  0  0  0  0  0  0  0
   -3.3109    0.4249   -0.7255 H   0  0  0  0  0  0  0  0  0  0  0  0
   -2.0537    1.7148   -0.3742 H   0  0  0  0  0  0  0  0  0  0  0  0
  1  2  1  0
  2  3  1  0
  3  4  1  0
  4  5  1  0
  5  6  1  0
  6  7  1  0
  7  8  1  0
  4  9  1  0
  9 10  2  0
  9  2  1  0
  8  5  1  0
  1 11  1  0
  1 12  1  0
  2 13  1  6
  3 14  1  0
  3 15  1  0
  5 16  1  0
  6 17  1  0
  6 18  1  0
  8 19  1  0
  8 20  1  0
M  END
$$$$

     RDKit          3D

 20 21  0  0  0  0  0  0  0  0999 V2000
    2.1374    1.2085   -0.0621 N   0  0  0  0  0  0  0  0  0  0  0  0
    2.0460   -0.1980    0.2788 C   0  0  2  0  0  0  0  0  0  0  0  0
    1.2597   -0.9824   -0.7693 C   0  0  0  0  0  0  0  0  0  0  0  0
    0.0907   -0.4303   -0.0698 N   0  0  0  0  0  0  0  0  0  0  0  0
   -1.2155   -0.0402   -0.4932 C   0  0  0  0  0  0  0  0  0  0  0  0
   -2.3205   -0.6716    0.3103 C   0  0  0  0  0  0  0  0  0  0  0  0
   -2.9435    0.5790    0.3462 O   0  0  0  0  0  0  0  0  0  0  0  0
   -1.7474    1.2574    0.0259 C   0  0  0  0  0  0  0  0  0  0  0  0
    0.8721   -0.4876    1.1184 C   0  0  0  0  0  0  0  0  0  0  0  0
    0.5334   -0.7058    2.3021 O   0  0  0  0  0  0  0  0  0  0  0  0
    2.0600    1.3381   -1.0875 H   0  0  0  0  0  0  0  0  0  0  0  0
    3.0675    1.5516    0.2660 H   0  0  0  0  0  0  0  0  0  0  0  0
    2.9810   -0.6956    0.5473 H   0  0  0  0  0  0  0  0  0  0  0  0
    1.3818   -0.6377   -1.7994 H   0  0  0  0  0  0  0  0  0  0  0  0
    1.3698   -2.0717   -0.6311 H   0  0  0  0  0  0  0  0  0  0  0  0
   -1.3965   -0.1765   -1.5626 H   0  0  0  0  0  0  0  0  0  0  0  0
   -2.0533   -1.0170    1.3241 H   0  0  0  0  0  0  0  0  0  0  0  0
   -2.8882   -1.4514   -0.2420 H   0  0  0  0  0  0  0  0  0  0  0  0
   -1.9316    2.0019   -0.7665 H   0  0  0  0  0  0  0  0  0  0  0  0
   -1.3028    1.6293    0.9646 H   0  0  0  0  0  0  0  0  0  0  0  0
  1  2  1  0
  2  3  1  0
  3  4  1  0
  4  5  1  0
  5  6  1  0
  6  7  1  0
  7  8  1  0
  4  9  1  0
  9 10  2  0
  9  2  1  0
  8  5  1  0
  1 11  1  0
  1 12  1  0
  2 13  1  1
  3 14  1  0
  3 15  1  0
  5 16  1  0
  6 17  1  0
  6 18  1  0
  8 19  1  0
  8 20  1  0
M  END
$$$$

     RDKit          3D

 20 21  0  0  0  0  0  0  0  0999 V2000
    3.2291   -0.3589   -0.1719 N   0  0  0  0  0  0  0  0  0  0  0  0
    1.9344   -0.2631    0.4664 C   0  0  2  0  0  0  0  0  0  0  0  0
    0.7907   -0.7453   -0.3725 C   0  0  0  0  0  0  0  0  0  0  0  0
    0.0395    0.3719    0.1622 N   0  0  0  0  0  0  0  0  0  0  0  0
   -1.3430    0.6349    0.3915 C   0  0  0  0  0  0  0  0  0  0  0  0
   -2.1200   -0.4535    1.0923 C   0  0  0  0  0  0  0  0  0  0  0  0
   -2.7725   -0.8259   -0.0821 O   0  0  0  0  0  0  0  0  0  0  0  0
   -2.2623    0.2496   -0.7741 C   0  0  0  0  0  0  0  0  0  0  0  0
    1.2662    1.0485    0.3414 C   0  0  0  0  0  0  0  0  0  0  0  0
    1.6167    2.2431    0.3763 O   0  0  0  0  0  0  0  0  0  0  0  0
    3.7530    0.5405   -0.1502 H   0  0  0  0  0  0  0  0  0  0  0  0
    3.1343   -0.7254   -1.1537 H   0  0  0  0  0  0  0  0  0  0  0  0
    1.8927   -0.6311    1.5079 H   0  0  0  0  0  0  0  0  0  0  0  0
    0.3935   -1.7474   -0.1220 H   0  0  0  0  0  0  0  0  0  0  0  0
    0.9895   -0.5732   -1.4503 H   0  0  0  0  0  0  0  0  0  0  0  0
   -1.5681    1.6195    0.8249 H   0  0  0  0  0  0  0  0  0  0  0  0
   -1.5102   -1.2774    1.5164 H   0  0  0  0  0  0  0  0  0  0  0  0
   -2.8718   -0.0633    1.8087 H   0  0  0  0  0  0  0  0  0  0  0  0
   -1.6369   -0.1072   -1.6195 H   0  0  0  0  0  0  0  0  0  0  0  0
   -2.9547    1.0640   -1.0064 H   0  0  0  0  0  0  0  0  0  0  0  0
  1  2  1  0
  2  3  1  0
  3  4  1  0
  4  5  1  0
  5  6  1  0
  6  7  1  0
  7  8  1  0
  4  9  1  0
  9 10  2  0
  9  2  1  0
  8  5  1  0
  1 11  1  0
  1 12  1  0
  2 13  1  1
  3 14  1  0
  3 15  1  0
  5 16  1  0
  6 17  1  0
  6 18  1  0
  8 19  1  0
  8 20  1  0
M  END
$$$$

     RDKit          3D

 20 21  0  0  0  0  0  0  0  0999 V2000
    2.9134    0.7546    0.1594 N   0  0  0  0  0  0  0  0  0  0  0  0
    2.0573   -0.3260    0.5463 C   0  0  2  0  0  0  0  0  0  0  0  0
    1.2846   -0.8626   -0.6389 C   0  0  0  0  0  0  0  0  0  0  0  0
    0.0760   -0.2996   -0.0657 N   0  0  0  0  0  0  0  0  0  0  0  0
   -1.2859   -0.2514   -0.5389 C   0  0  0  0  0  0  0  0  0  0  0  0
   -2.2956   -0.6936    0.5076 C   0  0  0  0  0  0  0  0  0  0  0  0
   -3.0101    0.4662    0.2583 O   0  0  0  0  0  0  0  0  0  0  0  0
   -1.9640    1.0876   -0.4566 C   0  0  0  0  0  0  0  0  0  0  0  0
    0.7736    0.1590    1.0991 C   0  0  0  0  0  0  0  0  0  0  0  0
    0.4073    0.7438    2.1627 O   0  0  0  0  0  0  0  0  0  0  0  0
    3.0377    0.8304   -0.8576 H   0  0  0  0  0  0  0  0  0  0  0  0
    2.6943    1.6644    0.6202 H   0  0  0  0  0  0  0  0  0  0  0  0
    2.5496   -1.1379    1.1484 H   0  0  0  0  0  0  0  0  0  0  0  0
    1.2379   -1.9728   -0.6136 H   0  0  0  0  0  0  0  0  0  0  0  0
    1.5507   -0.4263   -1.6189 H   0  0  0  0  0  0  0  0  0  0  0  0
   -1.4579   -0.7199   -1.5045 H   0  0  0  0  0  0  0  0  0  0  0  0
   -1.8654   -0.7246    1.5294 H   0  0  0  0  0  0  0  0  0  0  0  0
   -2.8436   -1.6288    0.2285 H   0  0  0  0  0  0  0  0  0  0  0  0
   -1.4777    1.8528    0.1601 H   0  0  0  0  0  0  0  0  0  0  0  0
   -2.3824    1.4847   -1.4000 H   0  0  0  0  0  0  0  0  0  0  0  0
  1  2  1  0
  2  3  1  0
  3  4  1  0
  4  5  1  0
  5  6  1  0
  6  7  1  0
  7  8  1  0
  4  9  1  0
  9 10  2  0
  9  2  1  0
  8  5  1  0
  1 11  1  0
  1 12  1  0
  2 13  1  1
  3 14  1  0
  3 15  1  0
  5 16  1  0
  6 17  1  0
  6 18  1  0
  8 19  1  0
  8 20  1  0
M  END
$$$$

     RDKit          3D

 20 21  0  0  0  0  0  0  0  0999 V2000
    3.2443   -0.2009   -0.2688 N   0  0  0  0  0  0  0  0  0  0  0  0
    1.8678   -0.4494   -0.6400 C   0  0  2  0  0  0  0  0  0  0  0  0
    0.9466    0.6386   -0.1801 C   0  0  0  0  0  0  0  0  0  0  0  0
    0.0071   -0.4107    0.1564 N   0  0  0  0  0  0  0  0  0  0  0  0
   -1.4152   -0.5333    0.3174 C   0  0  0  0  0  0  0  0  0  0  0  0
   -2.0295    0.6296    1.0917 C   0  0  0  0  0  0  0  0  0  0  0  0
   -1.9236    1.3685   -0.1059 O   0  0  0  0  0  0  0  0  0  0  0  0
   -2.2278    0.1802   -0.7705 C   0  0  0  0  0  0  0  0  0  0  0  0
    1.1020   -1.3042    0.2674 C   0  0  0  0  0  0  0  0  0  0  0  0
    1.3240   -2.3707    0.8791 O   0  0  0  0  0  0  0  0  0  0  0  0
    3.2815    0.1844    0.6888 H   0  0  0  0  0  0  0  0  0  0  0  0
    3.6125    0.5237   -0.9224 H   0  0  0  0  0  0  0  0  0  0  0  0
    1.7350   -0.6955   -1.7071 H   0  0  0  0  0  0  0  0  0  0  0  0
    1.3387    1.1778    0.7244 H   0  0  0  0  0  0  0  0  0  0  0  0
    0.5944    1.3385   -0.9568 H   0  0  0  0  0  0  0  0  0  0  0  0
   -1.7946   -1.5177    0.5866 H   0  0  0  0  0  0  0  0  0  0  0  0
   -3.1013    0.4160    1.3086 H   0  0  0  0  0  0  0  0  0  0  0  0
   -1.4325    1.0098    1.9213 H   0  0  0  0  0  0  0  0  0  0  0  0
   -3.2967   -0.0628   -0.6135 H   0  0  0  0  0  0  0  0  0  0  0  0
   -1.8326    0.0782   -1.7766 H   0  0  0  0  0  0  0  0  0  0  0  0
  1  2  1  0
  2  3  1  0
  3  4  1  0
  4  5  1  0
  5  6  1  0
  6  7  1  0
  7  8  1  0
  4  9  1  0
  9 10  2  0
  9  2  1  0
  8  5  1  0
  1 11  1  0
  1 12  1  0
  2 13  1  6
  3 14  1  0
  3 15  1  0
  5 16  1  0
  6 17  1  0
  6 18  1  0
  8 19  1  0
  8 20  1  0
M  END
$$$$

     RDKit          3D

 20 21  0  0  0  0  0  0  0  0999 V2000
    2.8207    0.5551    0.8865 N   0  0  0  0  0  0  0  0  0  0  0  0
    2.0324    0.2942   -0.3027 C   0  0  2  0  0  0  0  0  0  0  0  0
    0.6732    0.9645   -0.2038 C   0  0  0  0  0  0  0  0  0  0  0  0
    0.0798   -0.3557   -0.0959 N   0  0  0  0  0  0  0  0  0  0  0  0
   -1.2668   -0.7971    0.1263 C   0  0  0  0  0  0  0  0  0  0  0  0
   -2.0216   -0.1511    1.2386 C   0  0  0  0  0  0  0  0  0  0  0  0
   -2.7038    0.6751    0.3421 O   0  0  0  0  0  0  0  0  0  0  0  0
   -2.3150   -0.1204   -0.7288 C   0  0  0  0  0  0  0  0  0  0  0  0
    1.3105   -0.9979   -0.2896 C   0  0  0  0  0  0  0  0  0  0  0  0
    1.6811   -2.1933   -0.4083 O   0  0  0  0  0  0  0  0  0  0  0  0
    3.3015    1.4631    0.7471 H   0  0  0  0  0  0  0  0  0  0  0  0
    3.4631   -0.2323    1.1282 H   0  0  0  0  0  0  0  0  0  0  0  0
    2.5529    0.4621   -1.2663 H   0  0  0  0  0  0  0  0  0  0  0  0
    0.5251    1.5634    0.7247 H   0  0  0  0  0  0  0  0  0  0  0  0
    0.3935    1.5228   -1.1005 H   0  0  0  0  0  0  0  0  0  0  0  0
   -1.3824   -1.9031    0.1548 H   0  0  0  0  0  0  0  0  0  0  0  0
   -1.4118    0.4143    1.9773 H   0  0  0  0  0  0  0  0  0  0  0  0
   -2.7449   -0.8222    1.7730 H   0  0  0  0  0  0  0  0  0  0  0  0
   -3.0937   -0.8529   -1.0683 H   0  0  0  0  0  0  0  0  0  0  0  0
   -1.8938    0.5116   -1.5397 H   0  0  0  0  0  0  0  0  0  0  0  0
  1  2  1  0
  2  3  1  0
  3  4  1  0
  4  5  1  0
  5  6  1  0
  6  7  1  0
  7  8  1  0
  4  9  1  0
  9 10  2  0
  9  2  1  0
  8  5  1  0
  1 11  1  0
  1 12  1  0
  2 13  1  6
  3 14  1  0
  3 15  1  0
  5 16  1  0
  6 17  1  0
  6 18  1  0
  8 19  1  0
  8 20  1  0
M  END
$$$$

     RDKit          3D

 20 21  0  0  0  0  0  0  0  0999 V2000
   -1.5336    0.5800   -1.7313 N   0  0  0  0  0  0  0  0  0  0  0  0
   -1.9893   -0.0934   -0.5303 C   0  0  2  0  0  0  0  0  0  0  0  0
   -1.1388    0.3455    0.6486 C   0  0  0  0  0  0  0  0  0  0  0  0
   -0.1729   -0.6107    0.1420 N   0  0  0  0  0  0  0  0  0  0  0  0
    1.2448   -0.6809    0.1782 C   0  0  0  0  0  0  0  0  0  0  0  0
    1.8483    0.6569   -0.2703 C   0  0  0  0  0  0  0  0  0  0  0  0
    2.9045    0.3544    0.6117 O   0  0  0  0  0  0  0  0  0  0  0  0
    1.9117   -0.1931    1.4467 C   0  0  0  0  0  0  0  0  0  0  0  0
   -1.2586   -1.3617   -0.3565 C   0  0  0  0  0  0  0  0  0  0  0  0
   -1.4742   -2.5662   -0.5516 O   0  0  0  0  0  0  0  0  0  0  0  0
   -2.1461    0.3547   -2.5437 H   0  0  0  0  0  0  0  0  0  0  0  0
   -1.4979    1.5919   -1.5241 H   0  0  0  0  0  0  0  0  0  0  0  0
   -3.0647   -0.1027   -0.3621 H   0  0  0  0  0  0  0  0  0  0  0  0
   -0.8024    1.3815    0.6415 H   0  0  0  0  0  0  0  0  0  0  0  0
   -1.5430   -0.0142    1.6338 H   0  0  0  0  0  0  0  0  0  0  0  0
    1.7311   -1.5310   -0.2925 H   0  0  0  0  0  0  0  0  0  0  0  0
    1.2792    1.5010    0.1503 H   0  0  0  0  0  0  0  0  0  0  0  0
    2.1170    0.7070   -1.3198 H   0  0  0  0  0  0  0  0  0  0  0  0
    1.3342    0.6459    1.8942 H   0  0  0  0  0  0  0  0  0  0  0  0
    2.2504   -0.9650    2.1354 H   0  0  0  0  0  0  0  0  0  0  0  0
  1  2  1  0
  2  3  1  0
  3  4  1  0
  4  5  1  0
  5  6  1  0
  6  7  1  0
  7  8  1  0
  4  9  1  0
  9 10  2  0
  9  2  1  0
  8  5  1  0
  1 11  1  0
  1 12  1  0
  2 13  1  1
  3 14  1  0
  3 15  1  0
  5 16  1  0
  6 17  1  0
  6 18  1  0
  8 19  1  0
  8 20  1  0
M  END
$$$$

     RDKit          3D

 20 21  0  0  0  0  0  0  0  0999 V2000
    3.2429    0.3393    0.1862 N   0  0  0  0  0  0  0  0  0  0  0  0
    1.9324   -0.2731    0.2869 C   0  0  2  0  0  0  0  0  0  0  0  0
    1.1506   -0.2195   -1.0067 C   0  0  0  0  0  0  0  0  0  0  0  0
   -0.0031    0.0424   -0.1697 N   0  0  0  0  0  0  0  0  0  0  0  0
   -1.3914   -0.2502   -0.3737 C   0  0  0  0  0  0  0  0  0  0  0  0
   -2.0467   -0.9904    0.8015 C   0  0  0  0  0  0  0  0  0  0  0  0
   -3.2201   -0.2777    0.4657 O   0  0  0  0  0  0  0  0  0  0  0  0
   -2.3619    0.7815    0.1095 C   0  0  0  0  0  0  0  0  0  0  0  0
    0.8664    0.6352    0.7753 C   0  0  0  0  0  0  0  0  0  0  0  0
    0.7200    1.5307    1.6188 O   0  0  0  0  0  0  0  0  0  0  0  0
    3.8293   -0.1419   -0.5325 H   0  0  0  0  0  0  0  0  0  0  0  0
    3.1377    1.3668    0.0060 H   0  0  0  0  0  0  0  0  0  0  0  0
    1.9417   -1.2852    0.6994 H   0  0  0  0  0  0  0  0  0  0  0  0
    1.0948   -1.1991   -1.5021 H   0  0  0  0  0  0  0  0  0  0  0  0
    1.3507    0.6460   -1.6546 H   0  0  0  0  0  0  0  0  0  0  0  0
   -1.6653   -0.7492   -1.2966 H   0  0  0  0  0  0  0  0  0  0  0  0
   -2.1179   -2.0701    0.6575 H   0  0  0  0  0  0  0  0  0  0  0  0
   -1.6882   -0.6227    1.7760 H   0  0  0  0  0  0  0  0  0  0  0  0
   -2.0145    1.2640    1.0585 H   0  0  0  0  0  0  0  0  0  0  0  0
   -2.7574    1.4732   -0.6380 H   0  0  0  0  0  0  0  0  0  0  0  0
  1  2  1  0
  2  3  1  0
  3  4  1  0
  4  5  1  0
  5  6  1  0
  6  7  1  0
  7  8  1  0
  4  9  1  0
  9 10  2  0
  9  2  1  0
  8  5  1  0
  1 11  1  0
  1 12  1  0
  2 13  1  1
  3 14  1  0
  3 15  1  0
  5 16  1  0
  6 17  1  0
  6 18  1  0
  8 19  1  0
  8 20  1  0
M  END
$$$$
