
     RDKit          3D

 30 30  0  0  0  0  0  0  0  0999 V2000
    2.5982    1.1776    0.5611 C   0  0  0  0  0  0  0  0  0  0  0  0
    2.0399   -0.2154    0.4038 C   0  0  2  0  0  0  0  0  0  0  0  0
    3.0796   -1.0995    0.3613 O   0  0  0  0  0  0  0  0  0  0  0  0
    1.1148   -0.3150   -0.7942 C   0  0  1  0  0  0  0  0  0  0  0  0
    0.7459   -1.7021   -1.1661 C   0  0  0  0  0  0  0  0  0  0  0  0
    1.9207   -2.4816   -1.1684 O   0  0  0  0  0  0  0  0  0  0  0  0
    0.0444    0.5827   -0.7703 N   0  0  0  0  0  0  0  0  0  0  0  0
   -0.9184    0.5999    0.2427 C   0  0  2  0  0  0  0  0  0  0  0  0
   -1.7896   -0.6061    0.3914 C   0  0  0  0  0  0  0  0  0  0  0  0
   -3.0758   -0.0424    0.9850 C   0  0  0  0  0  0  0  0  0  0  0  0
   -3.2305    1.1923    0.2776 N   0  0  0  0  0  0  0  0  0  0  0  0
   -1.9187    1.7364    0.0894 C   0  0  0  0  0  0  0  0  0  0  0  0
    2.8505    1.2753    1.6575 H   0  0  0  0  0  0  0  0  0  0  0  0
    3.5727    1.2854    0.0355 H   0  0  0  0  0  0  0  0  0  0  0  0
    1.9029    1.9757    0.2700 H   0  0  0  0  0  0  0  0  0  0  0  0
    1.4264   -0.4308    1.2968 H   0  0  0  0  0  0  0  0  0  0  0  0
    3.1983   -1.6612    1.1457 H   0  0  0  0  0  0  0  0  0  0  0  0
    1.7942    0.0654   -1.6614 H   0  0  0  0  0  0  0  0  0  0  0  0
   -0.0193   -2.1643   -0.5215 H   0  0  0  0  0  0  0  0  0  0  0  0
    0.3397   -1.7611   -2.2059 H   0  0  0  0  0  0  0  0  0  0  0  0
    2.5931   -2.1132   -1.7781 H   0  0  0  0  0  0  0  0  0  0  0  0
   -0.1503    1.0866   -1.6442 H   0  0  0  0  0  0  0  0  0  0  0  0
   -0.3961    0.7470    1.2437 H   0  0  0  0  0  0  0  0  0  0  0  0
   -2.0736   -1.0467   -0.5640 H   0  0  0  0  0  0  0  0  0  0  0  0
   -1.3787   -1.3367    1.1325 H   0  0  0  0  0  0  0  0  0  0  0  0
   -2.9356    0.0897    2.0787 H   0  0  0  0  0  0  0  0  0  0  0  0
   -3.9514   -0.6808    0.7399 H   0  0  0  0  0  0  0  0  0  0  0  0
   -3.8156    1.1468   -0.5631 H   0  0  0  0  0  0  0  0  0  0  0  0
   -1.7957    2.1638   -0.9136 H   0  0  0  0  0  0  0  0  0  0  0  0
   -1.7720    2.5325    0.8381 H   0  0  0  0  0  0  0  0  0  0  0  0
  1  2  1  0
  2  3  1  0
  2  4  1  0
  4  5  1  0
  5  6  1  0
  4  7  1  0
  7  8  1  0
  8  9  1  0
  9 10  1  0
 10 11  1  0
 11 12  1  0
 12  8  1  0
  1 13  1  0
  1 14  1  0
  1 15  1  0
  2 16  1  1
  3 17  1  0
  4 18  1  6
  5 19  1  0
  5 20  1  0
  6 21  1  0
  7 22  1  0
  8 23  1  1
  9 24  1  0
  9 25  1  0
 10 26  1  0
 10 27  1  0
 11 28  1  0
 12 29  1  0
 12 30  1  0
M  END
$$$$

     RDKit          3D

 30 30  0  0  0  0  0  0  0  0999 V2000
   -2.8121   -0.2069    1.7361 C   0  0  0  0  0  0  0  0  0  0  0  0
   -1.6250    0.5402    1.2403 C   0  0  2  0  0  0  0  0  0  0  0  0
   -2.0025    1.8296    0.9080 O   0  0  0  0  0  0  0  0  0  0  0  0
   -0.9351   -0.1739    0.0678 C   0  0  1  0  0  0  0  0  0  0  0  0
   -1.9931   -0.3710   -0.9678 C   0  0  0  0  0  0  0  0  0  0  0  0
   -1.5936   -0.9918   -2.1112 O   0  0  0  0  0  0  0  0  0  0  0  0
    0.1775    0.5713   -0.2537 N   0  0  0  0  0  0  0  0  0  0  0  0
    1.2065    0.2085   -1.0784 C   0  0  2  0  0  0  0  0  0  0  0  0
    1.9367   -1.0008   -0.5018 C   0  0  0  0  0  0  0  0  0  0  0  0
    2.8672   -0.3777    0.4980 C   0  0  0  0  0  0  0  0  0  0  0  0
    2.6547    1.0535    0.4610 N   0  0  0  0  0  0  0  0  0  0  0  0
    2.2979    1.2594   -0.9517 C   0  0  0  0  0  0  0  0  0  0  0  0
   -2.6994   -1.3116    1.6893 H   0  0  0  0  0  0  0  0  0  0  0  0
   -3.7540    0.0298    1.1888 H   0  0  0  0  0  0  0  0  0  0  0  0
   -3.0137    0.0813    2.8081 H   0  0  0  0  0  0  0  0  0  0  0  0
   -0.9112    0.6497    2.1005 H   0  0  0  0  0  0  0  0  0  0  0  0
   -2.9249    1.8246    0.5600 H   0  0  0  0  0  0  0  0  0  0  0  0
   -0.6332   -1.1678    0.4570 H   0  0  0  0  0  0  0  0  0  0  0  0
   -2.8207   -0.9792   -0.5195 H   0  0  0  0  0  0  0  0  0  0  0  0
   -2.4964    0.5937   -1.2553 H   0  0  0  0  0  0  0  0  0  0  0  0
   -1.3911   -0.3438   -2.8572 H   0  0  0  0  0  0  0  0  0  0  0  0
    0.4708    1.2283    0.4918 H   0  0  0  0  0  0  0  0  0  0  0  0
    1.0558    0.0171   -2.1293 H   0  0  0  0  0  0  0  0  0  0  0  0
    1.2610   -1.7505   -0.0790 H   0  0  0  0  0  0  0  0  0  0  0  0
    2.5757   -1.4432   -1.3119 H   0  0  0  0  0  0  0  0  0  0  0  0
    3.9382   -0.5783    0.2687 H   0  0  0  0  0  0  0  0  0  0  0  0
    2.6488   -0.7287    1.5211 H   0  0  0  0  0  0  0  0  0  0  0  0
    3.4660    1.6199    0.7291 H   0  0  0  0  0  0  0  0  0  0  0  0
    3.1495    0.9932   -1.5913 H   0  0  0  0  0  0  0  0  0  0  0  0
    1.8999    2.2714   -1.1175 H   0  0  0  0  0  0  0  0  0  0  0  0
  1  2  1  0
  2  3  1  0
  2  4  1  0
  4  5  1  0
  5  6  1  0
  4  7  1  0
  7  8  1  0
  8  9  1  0
  9 10  1  0
 10 11  1  0
 11 12  1  0
 12  8  1  0
  1 13  1  0
  1 14  1  0
  1 15  1  0
  2 16  1  1
  3 17  1  0
  4 18  1  1
  5 19  1  0
  5 20  1  0
  6 21  1  0
  7 22  1  0
  8 23  1  6
  9 24  1  0
  9 25  1  0
 10 26  1  0
 10 27  1  0
 11 28  1  0
 12 29  1  0
 12 30  1  0
M  END
$$$$

     RDKit          3D

 30 30  0  0  0  0  0  0  0  0999 V2000
   -3.1056    0.5894    0.9920 C   0  0  0  0  0  0  0  0  0  0  0  0
   -1.8486    0.7463    0.1568 C   0  0  2  0  0  0  0  0  0  0  0  0
   -2.2401    1.0295   -1.1556 O   0  0  0  0  0  0  0  0  0  0  0  0
   -1.0261   -0.4953    0.2552 C   0  0  1  0  0  0  0  0  0  0  0  0
   -1.7586   -1.7416   -0.2025 C   0  0  0  0  0  0  0  0  0  0  0  0
   -2.0102   -1.6485   -1.5467 O   0  0  0  0  0  0  0  0  0  0  0  0
    0.1910   -0.4340   -0.5063 N   0  0  0  0  0  0  0  0  0  0  0  0
    1.1285    0.5428   -0.0546 C   0  0  2  0  0  0  0  0  0  0  0  0
    2.1887    0.7995   -1.1098 C   0  0  0  0  0  0  0  0  0  0  0  0
    3.5023    0.4751   -0.4661 C   0  0  0  0  0  0  0  0  0  0  0  0
    3.2286   -0.2780    0.7232 N   0  0  0  0  0  0  0  0  0  0  0  0
    1.9034    0.0560    1.1604 C   0  0  0  0  0  0  0  0  0  0  0  0
   -3.7511    1.4842    0.7929 H   0  0  0  0  0  0  0  0  0  0  0  0
   -3.6740   -0.3135    0.7511 H   0  0  0  0  0  0  0  0  0  0  0  0
   -2.8169    0.5621    2.0593 H   0  0  0  0  0  0  0  0  0  0  0  0
   -1.3178    1.6364    0.5320 H   0  0  0  0  0  0  0  0  0  0  0  0
   -3.0961    1.5287   -1.1351 H   0  0  0  0  0  0  0  0  0  0  0  0
   -0.7590   -0.6123    1.3521 H   0  0  0  0  0  0  0  0  0  0  0  0
   -1.0499   -2.6028   -0.0541 H   0  0  0  0  0  0  0  0  0  0  0  0
   -2.6303   -1.9915    0.4130 H   0  0  0  0  0  0  0  0  0  0  0  0
   -1.1754   -1.4560   -2.0253 H   0  0  0  0  0  0  0  0  0  0  0  0
    0.6513   -1.3886   -0.4184 H   0  0  0  0  0  0  0  0  0  0  0  0
    0.6201    1.4818    0.1858 H   0  0  0  0  0  0  0  0  0  0  0  0
    2.1683    1.8830   -1.4404 H   0  0  0  0  0  0  0  0  0  0  0  0
    1.9731    0.2277   -2.0306 H   0  0  0  0  0  0  0  0  0  0  0  0
    4.0964   -0.1364   -1.1644 H   0  0  0  0  0  0  0  0  0  0  0  0
    4.0203    1.4120   -0.1762 H   0  0  0  0  0  0  0  0  0  0  0  0
    3.3175   -1.3147    0.5684 H   0  0  0  0  0  0  0  0  0  0  0  0
    1.8869    0.8139    1.9654 H   0  0  0  0  0  0  0  0  0  0  0  0
    1.3834   -0.8554    1.5784 H   0  0  0  0  0  0  0  0  0  0  0  0
  1  2  1  0
  2  3  1  0
  2  4  1  0
  4  5  1  0
  5  6  1  0
  4  7  1  0
  7  8  1  0
  8  9  1  0
  9 10  1  0
 10 11  1  0
 11 12  1  0
 12  8  1  0
  1 13  1  0
  1 14  1  0
  1 15  1  0
  2 16  1  1
  3 17  1  0
  4 18  1  1
  5 19  1  0
  5 20  1  0
  6 21  1  0
  7 22  1  0
  8 23  1  1
  9 24  1  0
  9 25  1  0
 10 26  1  0
 10 27  1  0
 11 28  1  0
 12 29  1  0
 12 30  1  0
M  END
$$$$

     RDKit          3D

 30 30  0  0  0  0  0  0  0  0999 V2000
   -1.9803   -1.1798   -1.5221 C   0  0  0  0  0  0  0  0  0  0  0  0
   -2.2356   -0.5942   -0.1496 C   0  0  2  0  0  0  0  0  0  0  0  0
   -3.4177    0.1134   -0.1699 O   0  0  0  0  0  0  0  0  0  0  0  0
   -1.0536    0.2903    0.2865 C   0  0  1  0  0  0  0  0  0  0  0  0
   -1.4701    1.0003    1.5130 C   0  0  0  0  0  0  0  0  0  0  0  0
   -2.6597    1.7164    1.2560 O   0  0  0  0  0  0  0  0  0  0  0  0
    0.0847   -0.4824    0.2789 N   0  0  0  0  0  0  0  0  0  0  0  0
    1.3270   -0.0592    0.6833 C   0  0  2  0  0  0  0  0  0  0  0  0
    1.8158    1.0688   -0.1944 C   0  0  0  0  0  0  0  0  0  0  0  0
    2.7638    0.3594   -1.1307 C   0  0  0  0  0  0  0  0  0  0  0  0
    3.4726   -0.5182   -0.1894 N   0  0  0  0  0  0  0  0  0  0  0  0
    2.3539   -1.1668    0.4751 C   0  0  0  0  0  0  0  0  0  0  0  0
   -2.9582   -1.2847   -2.0593 H   0  0  0  0  0  0  0  0  0  0  0  0
   -1.5088   -2.1670   -1.4975 H   0  0  0  0  0  0  0  0  0  0  0  0
   -1.3432   -0.4498   -2.0604 H   0  0  0  0  0  0  0  0  0  0  0  0
   -2.3704   -1.4528    0.5412 H   0  0  0  0  0  0  0  0  0  0  0  0
   -3.9916   -0.1029    0.6334 H   0  0  0  0  0  0  0  0  0  0  0  0
   -0.9947    1.0569   -0.5398 H   0  0  0  0  0  0  0  0  0  0  0  0
   -1.7517    0.2908    2.3344 H   0  0  0  0  0  0  0  0  0  0  0  0
   -0.7776    1.7140    1.9367 H   0  0  0  0  0  0  0  0  0  0  0  0
   -2.5543    2.2105    0.3907 H   0  0  0  0  0  0  0  0  0  0  0  0
    0.1011   -1.3261   -0.3050 H   0  0  0  0  0  0  0  0  0  0  0  0
    1.4720    0.2755    1.7214 H   0  0  0  0  0  0  0  0  0  0  0  0
    0.9743    1.5353   -0.7473 H   0  0  0  0  0  0  0  0  0  0  0  0
    2.4071    1.8197    0.3775 H   0  0  0  0  0  0  0  0  0  0  0  0
    3.4675    1.0395   -1.6493 H   0  0  0  0  0  0  0  0  0  0  0  0
    2.2283   -0.2685   -1.8821 H   0  0  0  0  0  0  0  0  0  0  0  0
    3.9422    0.1394    0.4941 H   0  0  0  0  0  0  0  0  0  0  0  0
    2.6774   -1.6391    1.4007 H   0  0  0  0  0  0  0  0  0  0  0  0
    1.9798   -1.9388   -0.2259 H   0  0  0  0  0  0  0  0  0  0  0  0
  1  2  1  0
  2  3  1  0
  2  4  1  0
  4  5  1  0
  5  6  1  0
  4  7  1  0
  7  8  1  0
  8  9  1  0
  9 10  1  0
 10 11  1  0
 11 12  1  0
 12  8  1  0
  1 13  1  0
  1 14  1  0
  1 15  1  0
  2 16  1  1
  3 17  1  0
  4 18  1  6
  5 19  1  0
  5 20  1  0
  6 21  1  0
  7 22  1  0
  8 23  1  1
  9 24  1  0
  9 25  1  0
 10 26  1  0
 10 27  1  0
 11 28  1  0
 12 29  1  0
 12 30  1  0
M  END
$$$$

     RDKit          3D

 30 30  0  0  0  0  0  0  0  0999 V2000
    3.2565    0.9024    0.5932 C   0  0  0  0  0  0  0  0  0  0  0  0
    1.9918    0.1537    0.9767 C   0  0  2  0  0  0  0  0  0  0  0  0
    2.3546   -1.1748    1.1766 O   0  0  0  0  0  0  0  0  0  0  0  0
    0.9648    0.2481   -0.1586 C   0  0  1  0  0  0  0  0  0  0  0  0
    1.6855   -0.2476   -1.3976 C   0  0  0  0  0  0  0  0  0  0  0  0
    2.1654   -1.5342   -1.2209 O   0  0  0  0  0  0  0  0  0  0  0  0
   -0.1499   -0.5535    0.2026 N   0  0  0  0  0  0  0  0  0  0  0  0
   -1.3581   -0.3150   -0.5138 C   0  0  2  0  0  0  0  0  0  0  0  0
   -1.9029    1.0618   -0.2383 C   0  0  0  0  0  0  0  0  0  0  0  0
   -3.2905    0.8474    0.3472 C   0  0  0  0  0  0  0  0  0  0  0  0
   -3.6743   -0.4874   -0.1065 N   0  0  0  0  0  0  0  0  0  0  0  0
   -2.4358   -1.2338    0.0442 C   0  0  0  0  0  0  0  0  0  0  0  0
    2.9859    1.7411   -0.0621 H   0  0  0  0  0  0  0  0  0  0  0  0
    3.9659    0.2017    0.0541 H   0  0  0  0  0  0  0  0  0  0  0  0
    3.7579    1.2468    1.5378 H   0  0  0  0  0  0  0  0  0  0  0  0
    1.5124    0.5894    1.8694 H   0  0  0  0  0  0  0  0  0  0  0  0
    3.2555   -1.3619    0.8310 H   0  0  0  0  0  0  0  0  0  0  0  0
    0.6541    1.2876   -0.2829 H   0  0  0  0  0  0  0  0  0  0  0  0
    1.0756   -0.1330   -2.3206 H   0  0  0  0  0  0  0  0  0  0  0  0
    2.5862    0.3944   -1.5580 H   0  0  0  0  0  0  0  0  0  0  0  0
    1.5007   -2.1077   -0.7717 H   0  0  0  0  0  0  0  0  0  0  0  0
   -0.2800   -0.6794    1.2236 H   0  0  0  0  0  0  0  0  0  0  0  0
   -1.2584   -0.4445   -1.6116 H   0  0  0  0  0  0  0  0  0  0  0  0
   -1.3078    1.6141    0.5271 H   0  0  0  0  0  0  0  0  0  0  0  0
   -1.9653    1.6761   -1.1423 H   0  0  0  0  0  0  0  0  0  0  0  0
   -4.0174    1.6087   -0.0271 H   0  0  0  0  0  0  0  0  0  0  0  0
   -3.2102    0.8342    1.4500 H   0  0  0  0  0  0  0  0  0  0  0  0
   -4.0534   -0.5030   -1.0616 H   0  0  0  0  0  0  0  0  0  0  0  0
   -2.3046   -1.4329    1.1236 H   0  0  0  0  0  0  0  0  0  0  0  0
   -2.5043   -2.1986   -0.4931 H   0  0  0  0  0  0  0  0  0  0  0  0
  1  2  1  0
  2  3  1  0
  2  4  1  0
  4  5  1  0
  5  6  1  0
  4  7  1  0
  7  8  1  0
  8  9  1  0
  9 10  1  0
 10 11  1  0
 11 12  1  0
 12  8  1  0
  1 13  1  0
  1 14  1  0
  1 15  1  0
  2 16  1  1
  3 17  1  0
  4 18  1  6
  5 19  1  0
  5 20  1  0
  6 21  1  0
  7 22  1  0
  8 23  1  6
  9 24  1  0
  9 25  1  0
 10 26  1  0
 10 27  1  0
 11 28  1  0
 12 29  1  0
 12 30  1  0
M  END
$$$$

     RDKit          3D

 30 30  0  0  0  0  0  0  0  0999 V2000
    1.5983   -1.6914    0.9954 C   0  0  0  0  0  0  0  0  0  0  0  0
    2.1882   -0.7763   -0.0766 C   0  0  2  0  0  0  0  0  0  0  0  0
    3.3988   -0.2973    0.4103 O   0  0  0  0  0  0  0  0  0  0  0  0
    1.2443    0.3931   -0.2928 C   0  0  1  0  0  0  0  0  0  0  0  0
    1.8962    1.4702   -1.1310 C   0  0  0  0  0  0  0  0  0  0  0  0
    0.9772    2.5376   -1.2139 O   0  0  0  0  0  0  0  0  0  0  0  0
    0.0311   -0.1199   -0.8162 N   0  0  0  0  0  0  0  0  0  0  0  0
   -1.1863    0.4646   -0.4180 C   0  0  2  0  0  0  0  0  0  0  0  0
   -1.5667    0.3962    1.0099 C   0  0  0  0  0  0  0  0  0  0  0  0
   -2.4188   -0.8600    1.1221 C   0  0  0  0  0  0  0  0  0  0  0  0
   -3.2003   -0.7722   -0.0770 N   0  0  0  0  0  0  0  0  0  0  0  0
   -2.3064   -0.3138   -1.1246 C   0  0  0  0  0  0  0  0  0  0  0  0
    1.5825   -1.0932    1.9411 H   0  0  0  0  0  0  0  0  0  0  0  0
    0.5800   -2.0021    0.7618 H   0  0  0  0  0  0  0  0  0  0  0  0
    2.2804   -2.5448    1.0933 H   0  0  0  0  0  0  0  0  0  0  0  0
    2.3374   -1.3766   -0.9781 H   0  0  0  0  0  0  0  0  0  0  0  0
    3.2042    0.4196    1.0505 H   0  0  0  0  0  0  0  0  0  0  0  0
    1.1339    0.8514    0.7207 H   0  0  0  0  0  0  0  0  0  0  0  0
    2.1020    1.1263   -2.1577 H   0  0  0  0  0  0  0  0  0  0  0  0
    2.8167    1.8350   -0.6201 H   0  0  0  0  0  0  0  0  0  0  0  0
    1.0174    3.0391   -0.3364 H   0  0  0  0  0  0  0  0  0  0  0  0
    0.0777   -0.1905   -1.8477 H   0  0  0  0  0  0  0  0  0  0  0  0
   -1.2750    1.5164   -0.8045 H   0  0  0  0  0  0  0  0  0  0  0  0
   -0.7657    0.3236    1.7364 H   0  0  0  0  0  0  0  0  0  0  0  0
   -2.1942    1.2748    1.2733 H   0  0  0  0  0  0  0  0  0  0  0  0
   -1.7674   -1.7591    1.1622 H   0  0  0  0  0  0  0  0  0  0  0  0
   -3.0333   -0.7613    2.0169 H   0  0  0  0  0  0  0  0  0  0  0  0
   -3.9953   -0.1375    0.0548 H   0  0  0  0  0  0  0  0  0  0  0  0
   -2.8586    0.2886   -1.8469 H   0  0  0  0  0  0  0  0  0  0  0  0
   -1.8985   -1.2402   -1.6072 H   0  0  0  0  0  0  0  0  0  0  0  0
  1  2  1  0
  2  3  1  0
  2  4  1  0
  4  5  1  0
  5  6  1  0
  4  7  1  0
  7  8  1  0
  8  9  1  0
  9 10  1  0
 10 11  1  0
 11 12  1  0
 12  8  1  0
  1 13  1  0
  1 14  1  0
  1 15  1  0
  2 16  1  6
  3 17  1  0
  4 18  1  1
  5 19  1  0
  5 20  1  0
  6 21  1  0
  7 22  1  0
  8 23  1  6
  9 24  1  0
  9 25  1  0
 10 26  1  0
 10 27  1  0
 11 28  1  0
 12 29  1  0
 12 30  1  0
M  END
$$$$

     RDKit          3D

 30 30  0  0  0  0  0  0  0  0999 V2000
    2.0139   -1.5202   -0.4115 C   0  0  0  0  0  0  0  0  0  0  0  0
    2.1916   -0.0638   -0.2363 C   0  0  2  0  0  0  0  0  0  0  0  0
    3.3767    0.2470    0.4816 O   0  0  0  0  0  0  0  0  0  0  0  0
    1.0691    0.7603    0.2054 C   0  0  1  0  0  0  0  0  0  0  0  0
    1.4763    2.2493    0.1525 C   0  0  0  0  0  0  0  0  0  0  0  0
    1.5024    2.7431   -1.1314 O   0  0  0  0  0  0  0  0  0  0  0  0
   -0.2143    0.5657   -0.3552 N   0  0  0  0  0  0  0  0  0  0  0  0
   -0.8840   -0.5949    0.0877 C   0  0  2  0  0  0  0  0  0  0  0  0
   -1.9722   -1.0727   -0.8808 C   0  0  0  0  0  0  0  0  0  0  0  0
   -3.2792   -0.6236   -0.2092 C   0  0  0  0  0  0  0  0  0  0  0  0
   -2.9113   -0.9381    1.1798 N   0  0  0  0  0  0  0  0  0  0  0  0
   -1.7290   -0.1361    1.3141 C   0  0  0  0  0  0  0  0  0  0  0  0
    2.9796   -1.9553   -0.8870 H   0  0  0  0  0  0  0  0  0  0  0  0
    1.2398   -1.7228   -1.1735 H   0  0  0  0  0  0  0  0  0  0  0  0
    1.8760   -2.0627    0.5324 H   0  0  0  0  0  0  0  0  0  0  0  0
    2.4783    0.3446   -1.2851 H   0  0  0  0  0  0  0  0  0  0  0  0
    3.2767   -0.0490    1.4306 H   0  0  0  0  0  0  0  0  0  0  0  0
    0.9943    0.6105    1.3647 H   0  0  0  0  0  0  0  0  0  0  0  0
    2.4619    2.3327    0.6887 H   0  0  0  0  0  0  0  0  0  0  0  0
    0.7183    2.8302    0.7483 H   0  0  0  0  0  0  0  0  0  0  0  0
    1.1440    3.6364   -1.2347 H   0  0  0  0  0  0  0  0  0  0  0  0
   -0.1838    0.6643   -1.4121 H   0  0  0  0  0  0  0  0  0  0  0  0
   -0.3062   -1.4678    0.3859 H   0  0  0  0  0  0  0  0  0  0  0  0
   -1.8909   -0.6117   -1.8748 H   0  0  0  0  0  0  0  0  0  0  0  0
   -2.0306   -2.1876   -0.9304 H   0  0  0  0  0  0  0  0  0  0  0  0
   -3.3608    0.4807   -0.2732 H   0  0  0  0  0  0  0  0  0  0  0  0
   -4.1570   -1.1383   -0.5595 H   0  0  0  0  0  0  0  0  0  0  0  0
   -2.6950   -1.9467    1.2735 H   0  0  0  0  0  0  0  0  0  0  0  0
   -1.1802   -0.2852    2.2389 H   0  0  0  0  0  0  0  0  0  0  0  0
   -2.0048    0.9117    1.1119 H   0  0  0  0  0  0  0  0  0  0  0  0
  1  2  1  0
  2  3  1  0
  2  4  1  0
  4  5  1  0
  5  6  1  0
  4  7  1  0
  7  8  1  0
  8  9  1  0
  9 10  1  0
 10 11  1  0
 11 12  1  0
 12  8  1  0
  1 13  1  0
  1 14  1  0
  1 15  1  0
  2 16  1  6
  3 17  1  0
  4 18  1  1
  5 19  1  0
  5 20  1  0
  6 21  1  0
  7 22  1  0
  8 23  1  1
  9 24  1  0
  9 25  1  0
 10 26  1  0
 10 27  1  0
 11 28  1  0
 12 29  1  0
 12 30  1  0
M  END
$$$$

     RDKit          3D

 30 30  0  0  0  0  0  0  0  0999 V2000
   -1.7837   -0.9606    1.3078 C   0  0  0  0  0  0  0  0  0  0  0  0
   -1.8242    0.3805    0.5914 C   0  0  2  0  0  0  0  0  0  0  0  0
   -3.2224    0.5682    0.3535 O   0  0  0  0  0  0  0  0  0  0  0  0
   -1.1426    0.3660   -0.7431 C   0  0  1  0  0  0  0  0  0  0  0  0
   -1.5990    1.7088   -1.4044 C   0  0  0  0  0  0  0  0  0  0  0  0
   -2.9815    1.8202   -1.3532 O   0  0  0  0  0  0  0  0  0  0  0  0
    0.2251    0.3205   -0.8361 N   0  0  0  0  0  0  0  0  0  0  0  0
    1.1142   -0.6292   -0.3828 C   0  0  2  0  0  0  0  0  0  0  0  0
    1.2650   -0.7069    1.1026 C   0  0  0  0  0  0  0  0  0  0  0  0
    2.7567   -0.5263    1.3727 C   0  0  0  0  0  0  0  0  0  0  0  0
    3.3698   -0.1226    0.1524 N   0  0  0  0  0  0  0  0  0  0  0  0
    2.5246   -0.4943   -0.9329 C   0  0  0  0  0  0  0  0  0  0  0  0
   -1.3455   -1.7219    0.6352 H   0  0  0  0  0  0  0  0  0  0  0  0
   -1.3002   -0.8921    2.3036 H   0  0  0  0  0  0  0  0  0  0  0  0
   -2.8404   -1.2843    1.5212 H   0  0  0  0  0  0  0  0  0  0  0  0
   -1.4530    1.1872    1.2221 H   0  0  0  0  0  0  0  0  0  0  0  0
   -3.5274   -0.2128   -0.1699 H   0  0  0  0  0  0  0  0  0  0  0  0
   -1.6725   -0.4171   -1.3923 H   0  0  0  0  0  0  0  0  0  0  0  0
   -1.2160    1.7886   -2.4195 H   0  0  0  0  0  0  0  0  0  0  0  0
   -1.1725    2.5284   -0.7799 H   0  0  0  0  0  0  0  0  0  0  0  0
   -3.2770    2.2048   -2.2168 H   0  0  0  0  0  0  0  0  0  0  0  0
    0.6799    1.1784   -1.2799 H   0  0  0  0  0  0  0  0  0  0  0  0
    0.7768   -1.6533   -0.7435 H   0  0  0  0  0  0  0  0  0  0  0  0
    0.7774    0.1429    1.6425 H   0  0  0  0  0  0  0  0  0  0  0  0
    0.9286   -1.6737    1.5474 H   0  0  0  0  0  0  0  0  0  0  0  0
    2.9522    0.2676    2.1310 H   0  0  0  0  0  0  0  0  0  0  0  0
    3.1792   -1.4802    1.7987 H   0  0  0  0  0  0  0  0  0  0  0  0
    4.3264   -0.5398    0.0761 H   0  0  0  0  0  0  0  0  0  0  0  0
    2.8969   -1.4342   -1.3752 H   0  0  0  0  0  0  0  0  0  0  0  0
    2.5850    0.2871   -1.7286 H   0  0  0  0  0  0  0  0  0  0  0  0
  1  2  1  0
  2  3  1  0
  2  4  1  0
  4  5  1  0
  5  6  1  0
  4  7  1  0
  7  8  1  0
  8  9  1  0
  9 10  1  0
 10 11  1  0
 11 12  1  0
 12  8  1  0
  1 13  1  0
  1 14  1  0
  1 15  1  0
  2 16  1  1
  3 17  1  0
  4 18  1  6
  5 19  1  0
  5 20  1  0
  6 21  1  0
  7 22  1  0
  8 23  1  6
  9 24  1  0
  9 25  1  0
 10 26  1  0
 10 27  1  0
 11 28  1  0
 12 29  1  0
 12 30  1  0
M  END
$$$$
