
     RDKit          3D

 30 30  0  0  0  0  0  0  0  0999 V2000
   -4.4842    0.2727   -0.4691 C   0  0  0  0  0  0  0  0  0  0  0  0
   -3.3093    0.8551   -0.8304 O   0  0  0  0  0  0  0  0  0  0  0  0
   -2.1897    0.0158   -0.8241 C   0  0  0  0  0  0  0  0  0  0  0  0
   -1.8999   -0.5574    0.5207 C   0  0  1  0  0  0  0  0  0  0  0  0
   -0.7575   -1.5023    0.6659 C   0  0  0  0  0  0  0  0  0  0  0  0
   -0.6693   -0.1418    1.2995 C   0  0  1  0  0  0  0  0  0  0  0  0
    0.2521    0.7775    0.7591 N   0  0  0  0  0  0  0  0  0  0  0  0
    1.1258    0.3888   -0.2745 C   0  0  0  0  0  0  0  0  0  0  0  0
    2.2431   -0.5334    0.2525 C   0  0  2  0  0  0  0  0  0  0  0  0
    2.9626    0.2598    1.2433 N   0  0  0  0  0  0  0  0  0  0  0  0
    3.1119   -0.9460   -0.9029 C   0  0  0  0  0  0  0  0  0  0  0  0
    3.6209    0.1659   -1.5818 O   0  0  0  0  0  0  0  0  0  0  0  0
   -5.2668    1.0900   -0.5431 H   0  0  0  0  0  0  0  0  0  0  0  0
   -4.8616   -0.5293   -1.1325 H   0  0  0  0  0  0  0  0  0  0  0  0
   -4.5733   -0.0793    0.5698 H   0  0  0  0  0  0  0  0  0  0  0  0
   -1.3536    0.7454   -1.0644 H   0  0  0  0  0  0  0  0  0  0  0  0
   -2.1786   -0.7354   -1.6157 H   0  0  0  0  0  0  0  0  0  0  0  0
   -2.7803   -0.6853    1.2285 H   0  0  0  0  0  0  0  0  0  0  0  0
   -0.1653   -1.7654   -0.2048 H   0  0  0  0  0  0  0  0  0  0  0  0
   -0.9347   -2.3576    1.3483 H   0  0  0  0  0  0  0  0  0  0  0  0
   -0.7086   -0.1607    2.4111 H   0  0  0  0  0  0  0  0  0  0  0  0
    0.7910    1.2426    1.5308 H   0  0  0  0  0  0  0  0  0  0  0  0
    1.6389    1.2951   -0.6942 H   0  0  0  0  0  0  0  0  0  0  0  0
    0.6309   -0.1547   -1.0843 H   0  0  0  0  0  0  0  0  0  0  0  0
    1.8694   -1.4074    0.7841 H   0  0  0  0  0  0  0  0  0  0  0  0
    3.6662    0.8830    0.8027 H   0  0  0  0  0  0  0  0  0  0  0  0
    3.3000   -0.2892    2.0451 H   0  0  0  0  0  0  0  0  0  0  0  0
    2.5457   -1.5657   -1.6310 H   0  0  0  0  0  0  0  0  0  0  0  0
    3.9599   -1.5455   -0.4818 H   0  0  0  0  0  0  0  0  0  0  0  0
    4.4143   -0.0713   -2.1267 H   0  0  0  0  0  0  0  0  0  0  0  0
  1  2  1  0
  2  3  1  0
  3  4  1  0
  4  5  1  0
  5  6  1  0
  6  7  1  0
  7  8  1  0
  8  9  1  0
  9 10  1  0
  9 11  1  0
 11 12  1  0
  6  4  1  0
  1 13  1  0
  1 14  1  0
  1 15  1  0
  3 16  1  0
  3 17  1  0
  4 18  1  1
  5 19  1  0
  5 20  1  0
  6 21  1  1
  7 22  1  0
  8 23  1  0
  8 24  1  0
  9 25  1  1
 10 26  1  0
 10 27  1  0
 11 28  1  0
 11 29  1  0
 12 30  1  0
M  END
$$$$

     RDKit          3D

 30 30  0  0  0  0  0  0  0  0999 V2000
    4.6207    0.2248   -0.2253 C   0  0  0  0  0  0  0  0  0  0  0  0
    3.6561   -0.6531   -0.6835 O   0  0  0  0  0  0  0  0  0  0  0  0
    2.6731   -0.9491    0.2726 C   0  0  0  0  0  0  0  0  0  0  0  0
    2.0237    0.3536    0.6250 C   0  0  1  0  0  0  0  0  0  0  0  0
    1.3647    1.0114   -0.6286 C   0  0  0  0  0  0  0  0  0  0  0  0
    0.5977    0.6391    0.6133 C   0  0  1  0  0  0  0  0  0  0  0  0
   -0.4315   -0.3731    0.5670 N   0  0  0  0  0  0  0  0  0  0  0  0
   -1.5963    0.2482   -0.0394 C   0  0  0  0  0  0  0  0  0  0  0  0
   -2.8359   -0.5757    0.0449 C   0  0  2  0  0  0  0  0  0  0  0  0
   -2.8089   -1.8491   -0.5628 N   0  0  0  0  0  0  0  0  0  0  0  0
   -4.0049    0.2266   -0.5499 C   0  0  0  0  0  0  0  0  0  0  0  0
   -4.0704    1.4972    0.0092 O   0  0  0  0  0  0  0  0  0  0  0  0
    5.1614   -0.2001    0.6651 H   0  0  0  0  0  0  0  0  0  0  0  0
    4.2405    1.2440   -0.0479 H   0  0  0  0  0  0  0  0  0  0  0  0
    5.3765    0.3060   -1.0371 H   0  0  0  0  0  0  0  0  0  0  0  0
    3.1480   -1.4300    1.1516 H   0  0  0  0  0  0  0  0  0  0  0  0
    1.9791   -1.6754   -0.2061 H   0  0  0  0  0  0  0  0  0  0  0  0
    2.6978    1.0191    1.2176 H   0  0  0  0  0  0  0  0  0  0  0  0
    1.6844    2.0652   -0.7678 H   0  0  0  0  0  0  0  0  0  0  0  0
    1.2369    0.3963   -1.5208 H   0  0  0  0  0  0  0  0  0  0  0  0
    0.3033    1.5498    1.2309 H   0  0  0  0  0  0  0  0  0  0  0  0
   -0.1141   -1.0958   -0.1679 H   0  0  0  0  0  0  0  0  0  0  0  0
   -1.7357    1.2417    0.4835 H   0  0  0  0  0  0  0  0  0  0  0  0
   -1.3184    0.5095   -1.0824 H   0  0  0  0  0  0  0  0  0  0  0  0
   -3.0968   -0.7083    1.1123 H   0  0  0  0  0  0  0  0  0  0  0  0
   -2.6903   -2.6460    0.1060 H   0  0  0  0  0  0  0  0  0  0  0  0
   -2.3522   -1.9526   -1.4699 H   0  0  0  0  0  0  0  0  0  0  0  0
   -3.9206    0.2873   -1.6539 H   0  0  0  0  0  0  0  0  0  0  0  0
   -4.9872   -0.2946   -0.3188 H   0  0  0  0  0  0  0  0  0  0  0  0
   -4.8005    1.5832    0.6650 H   0  0  0  0  0  0  0  0  0  0  0  0
  1  2  1  0
  2  3  1  0
  3  4  1  0
  4  5  1  0
  5  6  1  0
  6  7  1  0
  7  8  1  0
  8  9  1  0
  9 10  1  0
  9 11  1  0
 11 12  1  0
  6  4  1  0
  1 13  1  0
  1 14  1  0
  1 15  1  0
  3 16  1  0
  3 17  1  0
  4 18  1  1
  5 19  1  0
  5 20  1  0
  6 21  1  1
  7 22  1  0
  8 23  1  0
  8 24  1  0
  9 25  1  1
 10 26  1  0
 10 27  1  0
 11 28  1  0
 11 29  1  0
 12 30  1  0
M  END
$$$$

     RDKit          3D

 30 30  0  0  0  0  0  0  0  0999 V2000
    4.6849    0.8985   -0.1165 C   0  0  0  0  0  0  0  0  0  0  0  0
    3.7063    0.3238    0.6600 O   0  0  0  0  0  0  0  0  0  0  0  0
    2.7874   -0.4318   -0.0965 C   0  0  0  0  0  0  0  0  0  0  0  0
    1.7963   -1.0347    0.8165 C   0  0  1  0  0  0  0  0  0  0  0  0
    0.9164   -0.2022    1.6735 C   0  0  0  0  0  0  0  0  0  0  0  0
    0.3225   -1.0751    0.5653 C   0  0  1  0  0  0  0  0  0  0  0  0
   -0.2356   -0.3458   -0.4840 N   0  0  0  0  0  0  0  0  0  0  0  0
   -1.3480    0.5034   -0.1539 C   0  0  0  0  0  0  0  0  0  0  0  0
   -2.5706   -0.2627    0.2000 C   0  0  2  0  0  0  0  0  0  0  0  0
   -2.9949   -1.0402   -0.9661 N   0  0  0  0  0  0  0  0  0  0  0  0
   -3.7163    0.5551    0.7019 C   0  0  0  0  0  0  0  0  0  0  0  0
   -4.2416    1.4663   -0.2032 O   0  0  0  0  0  0  0  0  0  0  0  0
    5.2675    0.1109   -0.6717 H   0  0  0  0  0  0  0  0  0  0  0  0
    4.2935    1.6605   -0.8048 H   0  0  0  0  0  0  0  0  0  0  0  0
    5.4322    1.4054    0.5366 H   0  0  0  0  0  0  0  0  0  0  0  0
    2.3665    0.2930   -0.8272 H   0  0  0  0  0  0  0  0  0  0  0  0
    3.3634   -1.2383   -0.5727 H   0  0  0  0  0  0  0  0  0  0  0  0
    2.2471   -1.9042    1.4043 H   0  0  0  0  0  0  0  0  0  0  0  0
    0.9135    0.8730    1.4997 H   0  0  0  0  0  0  0  0  0  0  0  0
    0.6199   -0.5274    2.6944 H   0  0  0  0  0  0  0  0  0  0  0  0
   -0.1520   -2.0352    0.8789 H   0  0  0  0  0  0  0  0  0  0  0  0
    0.3464    0.0839   -1.2021 H   0  0  0  0  0  0  0  0  0  0  0  0
   -1.5473    1.1058   -1.0621 H   0  0  0  0  0  0  0  0  0  0  0  0
   -1.0558    1.1825    0.6330 H   0  0  0  0  0  0  0  0  0  0  0  0
   -2.3826   -1.0398    0.9799 H   0  0  0  0  0  0  0  0  0  0  0  0
   -3.7407   -1.6860   -0.6689 H   0  0  0  0  0  0  0  0  0  0  0  0
   -3.4519   -0.3304   -1.5978 H   0  0  0  0  0  0  0  0  0  0  0  0
   -3.4829    1.0648    1.6818 H   0  0  0  0  0  0  0  0  0  0  0  0
   -4.5948   -0.1019    0.9860 H   0  0  0  0  0  0  0  0  0  0  0  0
   -3.5485    1.7288   -0.8578 H   0  0  0  0  0  0  0  0  0  0  0  0
  1  2  1  0
  2  3  1  0
  3  4  1  0
  4  5  1  0
  5  6  1  0
  6  7  1  0
  7  8  1  0
  8  9  1  0
  9 10  1  0
  9 11  1  0
 11 12  1  0
  6  4  1  0
  1 13  1  0
  1 14  1  0
  1 15  1  0
  3 16  1  0
  3 17  1  0
  4 18  1  1
  5 19  1  0
  5 20  1  0
  6 21  1  1
  7 22  1  0
  8 23  1  0
  8 24  1  0
  9 25  1  1
 10 26  1  0
 10 27  1  0
 11 28  1  0
 11 29  1  0
 12 30  1  0
M  END
$$$$

     RDKit          3D

 30 30  0  0  0  0  0  0  0  0999 V2000
    4.2104    0.8461    0.0445 C   0  0  0  0  0  0  0  0  0  0  0  0
    2.9272    1.3085    0.1372 O   0  0  0  0  0  0  0  0  0  0  0  0
    2.0314    0.3366    0.5090 C   0  0  0  0  0  0  0  0  0  0  0  0
    1.9082   -0.7952   -0.4430 C   0  0  1  0  0  0  0  0  0  0  0  0
    0.9409   -1.9548   -0.1449 C   0  0  0  0  0  0  0  0  0  0  0  0
    0.7337   -0.9760   -1.3254 C   0  0  1  0  0  0  0  0  0  0  0  0
   -0.4691   -0.2388   -1.3088 N   0  0  0  0  0  0  0  0  0  0  0  0
   -1.3336   -0.3704   -0.1895 C   0  0  0  0  0  0  0  0  0  0  0  0
   -2.5438    0.5594   -0.3803 C   0  0  2  0  0  0  0  0  0  0  0  0
   -2.0134    1.8968   -0.4702 N   0  0  0  0  0  0  0  0  0  0  0  0
   -3.5259    0.3688    0.7355 C   0  0  0  0  0  0  0  0  0  0  0  0
   -3.9816   -0.9529    0.7370 O   0  0  0  0  0  0  0  0  0  0  0  0
    4.3682    0.0460   -0.6959 H   0  0  0  0  0  0  0  0  0  0  0  0
    4.6004    0.4612    1.0184 H   0  0  0  0  0  0  0  0  0  0  0  0
    4.8624    1.6961   -0.2736 H   0  0  0  0  0  0  0  0  0  0  0  0
    1.0899    0.8583    0.7545 H   0  0  0  0  0  0  0  0  0  0  0  0
    2.4291   -0.0807    1.4855 H   0  0  0  0  0  0  0  0  0  0  0  0
    2.8701   -1.1744   -0.9331 H   0  0  0  0  0  0  0  0  0  0  0  0
    0.2235   -1.8192    0.6873 H   0  0  0  0  0  0  0  0  0  0  0  0
    1.2814   -2.9857   -0.3868 H   0  0  0  0  0  0  0  0  0  0  0  0
    0.8928   -1.4998   -2.3314 H   0  0  0  0  0  0  0  0  0  0  0  0
   -0.4446    0.7225   -1.6861 H   0  0  0  0  0  0  0  0  0  0  0  0
   -0.9359   -0.1253    0.7975 H   0  0  0  0  0  0  0  0  0  0  0  0
   -1.7069   -1.4358   -0.1192 H   0  0  0  0  0  0  0  0  0  0  0  0
   -3.0128    0.2893   -1.3460 H   0  0  0  0  0  0  0  0  0  0  0  0
   -2.6896    2.5989   -0.8290 H   0  0  0  0  0  0  0  0  0  0  0  0
   -1.5511    2.1802    0.4279 H   0  0  0  0  0  0  0  0  0  0  0  0
   -3.0935    0.6072    1.7226 H   0  0  0  0  0  0  0  0  0  0  0  0
   -4.3795    1.0706    0.5749 H   0  0  0  0  0  0  0  0  0  0  0  0
   -3.6881   -1.4374    1.5487 H   0  0  0  0  0  0  0  0  0  0  0  0
  1  2  1  0
  2  3  1  0
  3  4  1  0
  4  5  1  0
  5  6  1  0
  6  7  1  0
  7  8  1  0
  8  9  1  0
  9 10  1  0
  9 11  1  0
 11 12  1  0
  6  4  1  0
  1 13  1  0
  1 14  1  0
  1 15  1  0
  3 16  1  0
  3 17  1  0
  4 18  1  6
  5 19  1  0
  5 20  1  0
  6 21  1  6
  7 22  1  0
  8 23  1  0
  8 24  1  0
  9 25  1  6
 10 26  1  0
 10 27  1  0
 11 28  1  0
 11 29  1  0
 12 30  1  0
M  END
$$$$

     RDKit          3D

 30 30  0  0  0  0  0  0  0  0999 V2000
    4.1665    0.7688    0.3021 C   0  0  0  0  0  0  0  0  0  0  0  0
    3.9834   -0.4142   -0.3144 O   0  0  0  0  0  0  0  0  0  0  0  0
    2.7676   -0.8732   -0.6390 C   0  0  0  0  0  0  0  0  0  0  0  0
    1.8491   -1.0569    0.5100 C   0  0  1  0  0  0  0  0  0  0  0  0
    1.4114    0.0294    1.3792 C   0  0  0  0  0  0  0  0  0  0  0  0
    0.3808   -0.7531    0.4933 C   0  0  1  0  0  0  0  0  0  0  0  0
   -0.2256    0.0589   -0.4980 N   0  0  0  0  0  0  0  0  0  0  0  0
   -1.5209   -0.3926   -0.9561 C   0  0  0  0  0  0  0  0  0  0  0  0
   -2.5679   -0.3113    0.1180 C   0  0  2  0  0  0  0  0  0  0  0  0
   -3.8286   -0.7635   -0.4281 N   0  0  0  0  0  0  0  0  0  0  0  0
   -2.7475    0.9892    0.7966 C   0  0  0  0  0  0  0  0  0  0  0  0
   -3.2116    2.0236    0.0244 O   0  0  0  0  0  0  0  0  0  0  0  0
    5.2710    0.9506    0.4531 H   0  0  0  0  0  0  0  0  0  0  0  0
    3.7513    1.6473   -0.2479 H   0  0  0  0  0  0  0  0  0  0  0  0
    3.7495    0.8229    1.3337 H   0  0  0  0  0  0  0  0  0  0  0  0
    2.3261   -0.1711   -1.3999 H   0  0  0  0  0  0  0  0  0  0  0  0
    2.9134   -1.8659   -1.1920 H   0  0  0  0  0  0  0  0  0  0  0  0
    2.1579   -1.9933    1.1100 H   0  0  0  0  0  0  0  0  0  0  0  0
    1.5190    1.0931    1.1112 H   0  0  0  0  0  0  0  0  0  0  0  0
    1.2830   -0.1265    2.4799 H   0  0  0  0  0  0  0  0  0  0  0  0
   -0.2360   -1.5069    1.0578 H   0  0  0  0  0  0  0  0  0  0  0  0
    0.3274    0.2903   -1.3271 H   0  0  0  0  0  0  0  0  0  0  0  0
   -1.5344   -1.4221   -1.3515 H   0  0  0  0  0  0  0  0  0  0  0  0
   -1.8254    0.2732   -1.7834 H   0  0  0  0  0  0  0  0  0  0  0  0
   -2.3384   -1.0677    0.9428 H   0  0  0  0  0  0  0  0  0  0  0  0
   -4.0043   -0.3553   -1.3832 H   0  0  0  0  0  0  0  0  0  0  0  0
   -4.6397   -0.4900    0.1801 H   0  0  0  0  0  0  0  0  0  0  0  0
   -1.7770    1.2458    1.3004 H   0  0  0  0  0  0  0  0  0  0  0  0
   -3.4525    0.8487    1.6465 H   0  0  0  0  0  0  0  0  0  0  0  0
   -3.9478    2.5216    0.4945 H   0  0  0  0  0  0  0  0  0  0  0  0
  1  2  1  0
  2  3  1  0
  3  4  1  0
  4  5  1  0
  5  6  1  0
  6  7  1  0
  7  8  1  0
  8  9  1  0
  9 10  1  0
  9 11  1  0
 11 12  1  0
  6  4  1  0
  1 13  1  0
  1 14  1  0
  1 15  1  0
  3 16  1  0
  3 17  1  0
  4 18  1  1
  5 19  1  0
  5 20  1  0
  6 21  1  1
  7 22  1  0
  8 23  1  0
  8 24  1  0
  9 25  1  1
 10 26  1  0
 10 27  1  0
 11 28  1  0
 11 29  1  0
 12 30  1  0
M  END
$$$$

     RDKit          3D

 30 30  0  0  0  0  0  0  0  0999 V2000
   -4.6578   -0.0507   -0.4236 C   0  0  0  0  0  0  0  0  0  0  0  0
   -3.7056    0.8481   -0.8424 O   0  0  0  0  0  0  0  0  0  0  0  0
   -2.6610    1.0392    0.0342 C   0  0  0  0  0  0  0  0  0  0  0  0
   -1.9102   -0.2362    0.2944 C   0  0  1  0  0  0  0  0  0  0  0  0
   -1.2946   -0.8795   -0.8945 C   0  0  0  0  0  0  0  0  0  0  0  0
   -0.4356   -0.3058    0.1832 C   0  0  1  0  0  0  0  0  0  0  0  0
    0.3663    0.8519   -0.0157 N   0  0  0  0  0  0  0  0  0  0  0  0
    1.7008    0.7317    0.4367 C   0  0  0  0  0  0  0  0  0  0  0  0
    2.6124   -0.1802   -0.3121 C   0  0  2  0  0  0  0  0  0  0  0  0
    2.2343   -1.5388   -0.3623 N   0  0  0  0  0  0  0  0  0  0  0  0
    3.9937   -0.0342    0.3593 C   0  0  0  0  0  0  0  0  0  0  0  0
    4.2625    1.3299    0.3557 O   0  0  0  0  0  0  0  0  0  0  0  0
   -4.2668   -1.0801   -0.2400 H   0  0  0  0  0  0  0  0  0  0  0  0
   -5.2088    0.2910    0.4949 H   0  0  0  0  0  0  0  0  0  0  0  0
   -5.4163   -0.1410   -1.2265 H   0  0  0  0  0  0  0  0  0  0  0  0
   -2.0088    1.8337   -0.3966 H   0  0  0  0  0  0  0  0  0  0  0  0
   -3.0583    1.4906    0.9848 H   0  0  0  0  0  0  0  0  0  0  0  0
   -2.4168   -0.9037    1.0141 H   0  0  0  0  0  0  0  0  0  0  0  0
   -1.3492   -0.3360   -1.8772 H   0  0  0  0  0  0  0  0  0  0  0  0
   -1.3747   -1.9762   -1.0324 H   0  0  0  0  0  0  0  0  0  0  0  0
    0.0411   -1.0650    0.8594 H   0  0  0  0  0  0  0  0  0  0  0  0
    0.3696    1.2216   -0.9914 H   0  0  0  0  0  0  0  0  0  0  0  0
    2.2249    1.7262    0.5155 H   0  0  0  0  0  0  0  0  0  0  0  0
    1.6982    0.3466    1.5044 H   0  0  0  0  0  0  0  0  0  0  0  0
    2.7167    0.1753   -1.3791 H   0  0  0  0  0  0  0  0  0  0  0  0
    2.2019   -1.9685    0.5620 H   0  0  0  0  0  0  0  0  0  0  0  0
    1.4304   -1.7574   -0.9495 H   0  0  0  0  0  0  0  0  0  0  0  0
    4.7480   -0.6190   -0.1819 H   0  0  0  0  0  0  0  0  0  0  0  0
    3.9548   -0.3660    1.4037 H   0  0  0  0  0  0  0  0  0  0  0  0
    5.2089    1.5522    0.4214 H   0  0  0  0  0  0  0  0  0  0  0  0
  1  2  1  0
  2  3  1  0
  3  4  1  0
  4  5  1  0
  5  6  1  0
  6  7  1  0
  7  8  1  0
  8  9  1  0
  9 10  1  0
  9 11  1  0
 11 12  1  0
  6  4  1  0
  1 13  1  0
  1 14  1  0
  1 15  1  0
  3 16  1  0
  3 17  1  0
  4 18  1  1
  5 19  1  0
  5 20  1  0
  6 21  1  1
  7 22  1  0
  8 23  1  0
  8 24  1  0
  9 25  1  6
 10 26  1  0
 10 27  1  0
 11 28  1  0
 11 29  1  0
 12 30  1  0
M  END
$$$$

     RDKit          3D

 30 30  0  0  0  0  0  0  0  0999 V2000
    4.3937    0.0462   -0.4702 C   0  0  0  0  0  0  0  0  0  0  0  0
    3.2690   -0.6521   -0.8964 O   0  0  0  0  0  0  0  0  0  0  0  0
    2.3513   -0.8357    0.1547 C   0  0  0  0  0  0  0  0  0  0  0  0
    1.8829    0.4423    0.7253 C   0  0  1  0  0  0  0  0  0  0  0  0
    1.1664    1.3388   -0.2557 C   0  0  0  0  0  0  0  0  0  0  0  0
    0.5579    0.9139    1.0542 C   0  0  1  0  0  0  0  0  0  0  0  0
   -0.6448    0.2193    1.0808 N   0  0  0  0  0  0  0  0  0  0  0  0
   -1.2171   -0.2920   -0.0862 C   0  0  0  0  0  0  0  0  0  0  0  0
   -2.5916   -0.9057    0.2820 C   0  0  2  0  0  0  0  0  0  0  0  0
   -3.2197   -1.4495   -0.9039 N   0  0  0  0  0  0  0  0  0  0  0  0
   -3.3946    0.2429    0.8660 C   0  0  0  0  0  0  0  0  0  0  0  0
   -3.5027    1.2575   -0.0780 O   0  0  0  0  0  0  0  0  0  0  0  0
    4.1666    1.0586   -0.0784 H   0  0  0  0  0  0  0  0  0  0  0  0
    5.0399    0.1840   -1.3586 H   0  0  0  0  0  0  0  0  0  0  0  0
    4.9746   -0.4657    0.3010 H   0  0  0  0  0  0  0  0  0  0  0  0
    2.8012   -1.5259    0.9265 H   0  0  0  0  0  0  0  0  0  0  0  0
    1.5320   -1.4011   -0.2908 H   0  0  0  0  0  0  0  0  0  0  0  0
    2.7055    0.9506    1.3453 H   0  0  0  0  0  0  0  0  0  0  0  0
    0.7128    0.8737   -1.1495 H   0  0  0  0  0  0  0  0  0  0  0  0
    1.5946    2.3197   -0.4060 H   0  0  0  0  0  0  0  0  0  0  0  0
    0.5194    1.8291    1.7630 H   0  0  0  0  0  0  0  0  0  0  0  0
   -0.7529   -0.4068    1.9036 H   0  0  0  0  0  0  0  0  0  0  0  0
   -1.4025    0.4768   -0.8796 H   0  0  0  0  0  0  0  0  0  0  0  0
   -0.6456   -1.1154   -0.5173 H   0  0  0  0  0  0  0  0  0  0  0  0
   -2.4309   -1.6718    1.0648 H   0  0  0  0  0  0  0  0  0  0  0  0
   -2.5702   -2.1309   -1.3268 H   0  0  0  0  0  0  0  0  0  0  0  0
   -4.1356   -1.8370   -0.5926 H   0  0  0  0  0  0  0  0  0  0  0  0
   -4.3778   -0.1329    1.1992 H   0  0  0  0  0  0  0  0  0  0  0  0
   -2.8329    0.6309    1.7432 H   0  0  0  0  0  0  0  0  0  0  0  0
   -3.9490    2.0384    0.3523 H   0  0  0  0  0  0  0  0  0  0  0  0
  1  2  1  0
  2  3  1  0
  3  4  1  0
  4  5  1  0
  5  6  1  0
  6  7  1  0
  7  8  1  0
  8  9  1  0
  9 10  1  0
  9 11  1  0
 11 12  1  0
  6  4  1  0
  1 13  1  0
  1 14  1  0
  1 15  1  0
  3 16  1  0
  3 17  1  0
  4 18  1  1
  5 19  1  0
  5 20  1  0
  6 21  1  1
  7 22  1  0
  8 23  1  0
  8 24  1  0
  9 25  1  1
 10 26  1  0
 10 27  1  0
 11 28  1  0
 11 29  1  0
 12 30  1  0
M  END
$$$$

     RDKit          3D

 30 30  0  0  0  0  0  0  0  0999 V2000
    3.9704    1.0454   -0.2844 C   0  0  0  0  0  0  0  0  0  0  0  0
    3.0967    1.1636   -1.3185 O   0  0  0  0  0  0  0  0  0  0  0  0
    1.7838    0.8089   -1.1318 C   0  0  0  0  0  0  0  0  0  0  0  0
    1.4966   -0.5938   -0.7096 C   0  0  1  0  0  0  0  0  0  0  0  0
    2.0407   -1.0520    0.5909 C   0  0  0  0  0  0  0  0  0  0  0  0
    0.5725   -0.9687    0.3555 C   0  0  1  0  0  0  0  0  0  0  0  0
   -0.2594    0.0297    0.9566 N   0  0  0  0  0  0  0  0  0  0  0  0
   -1.2481    0.5907    0.0846 C   0  0  0  0  0  0  0  0  0  0  0  0
   -2.3572   -0.4122   -0.2747 C   0  0  2  0  0  0  0  0  0  0  0  0
   -3.2725    0.2933   -1.1518 N   0  0  0  0  0  0  0  0  0  0  0  0
   -3.0802   -0.6965    1.0345 C   0  0  0  0  0  0  0  0  0  0  0  0
   -3.4301    0.5637    1.5648 O   0  0  0  0  0  0  0  0  0  0  0  0
    4.9844    1.4708   -0.5958 H   0  0  0  0  0  0  0  0  0  0  0  0
    3.6691    1.5598    0.6335 H   0  0  0  0  0  0  0  0  0  0  0  0
    4.1683   -0.0387    0.0048 H   0  0  0  0  0  0  0  0  0  0  0  0
    1.4266    1.4787   -0.2765 H   0  0  0  0  0  0  0  0  0  0  0  0
    1.1944    1.0844   -2.0638 H   0  0  0  0  0  0  0  0  0  0  0  0
    1.5725   -1.3813   -1.5394 H   0  0  0  0  0  0  0  0  0  0  0  0
    2.4932   -2.0782    0.6091 H   0  0  0  0  0  0  0  0  0  0  0  0
    2.3900   -0.3496    1.3852 H   0  0  0  0  0  0  0  0  0  0  0  0
    0.0626   -1.9731    0.3481 H   0  0  0  0  0  0  0  0  0  0  0  0
   -0.6404   -0.3570    1.8497 H   0  0  0  0  0  0  0  0  0  0  0  0
   -0.7693    0.9277   -0.8489 H   0  0  0  0  0  0  0  0  0  0  0  0
   -1.7231    1.5080    0.5513 H   0  0  0  0  0  0  0  0  0  0  0  0
   -1.9071   -1.3030   -0.7110 H   0  0  0  0  0  0  0  0  0  0  0  0
   -3.8580   -0.3749   -1.6894 H   0  0  0  0  0  0  0  0  0  0  0  0
   -2.7688    0.9663   -1.7823 H   0  0  0  0  0  0  0  0  0  0  0  0
   -4.0234   -1.2601    0.8202 H   0  0  0  0  0  0  0  0  0  0  0  0
   -2.4563   -1.2617    1.7354 H   0  0  0  0  0  0  0  0  0  0  0  0
   -3.1281    0.6098    2.5198 H   0  0  0  0  0  0  0  0  0  0  0  0
  1  2  1  0
  2  3  1  0
  3  4  1  0
  4  5  1  0
  5  6  1  0
  6  7  1  0
  7  8  1  0
  8  9  1  0
  9 10  1  0
  9 11  1  0
 11 12  1  0
  6  4  1  0
  1 13  1  0
  1 14  1  0
  1 15  1  0
  3 16  1  0
  3 17  1  0
  4 18  1  6
  5 19  1  0
  5 20  1  0
  6 21  1  6
  7 22  1  0
  8 23  1  0
  8 24  1  0
  9 25  1  6
 10 26  1  0
 10 27  1  0
 11 28  1  0
 11 29  1  0
 12 30  1  0
M  END
$$$$
