
     RDKit          3D

 25 25  0  0  0  0  0  0  0  0999 V2000
   -2.6074   -0.3854    1.4758 C   0  0  0  0  0  0  0  0  0  0  0  0
   -1.9238   -0.1915    0.1374 C   0  0  1  0  0  0  0  0  0  0  0  0
   -2.8684    0.6602   -0.7139 C   0  0  0  0  0  0  0  0  0  0  0  0
   -4.0825   -0.0120   -0.8085 O   0  0  0  0  0  0  0  0  0  0  0  0
   -0.6474    0.4618    0.2672 N   0  0  0  0  0  0  0  0  0  0  0  0
    0.5337   -0.1572   -0.1916 C   0  0  0  0  0  0  0  0  0  0  0  0
    0.4222   -1.3070   -0.7199 O   0  0  0  0  0  0  0  0  0  0  0  0
    1.8829    0.4231   -0.1066 C   0  0  2  0  0  0  0  0  0  0  0  0
    2.7766    0.1156   -1.2757 C   0  0  0  0  0  0  0  0  0  0  0  0
    3.0627   -0.4538    0.0739 C   0  0  1  0  0  0  0  0  0  0  0  0
    4.2699    0.0556    0.6982 N   0  0  0  0  0  0  0  0  0  0  0  0
   -2.1630   -1.1769    2.0847 H   0  0  0  0  0  0  0  0  0  0  0  0
   -2.5866    0.5488    2.0641 H   0  0  0  0  0  0  0  0  0  0  0  0
   -3.6582   -0.6887    1.2665 H   0  0  0  0  0  0  0  0  0  0  0  0
   -1.7919   -1.1631   -0.3412 H   0  0  0  0  0  0  0  0  0  0  0  0
   -2.4568    0.7795   -1.7244 H   0  0  0  0  0  0  0  0  0  0  0  0
   -3.0388    1.6467   -0.2418 H   0  0  0  0  0  0  0  0  0  0  0  0
   -4.3062   -0.2441   -1.7526 H   0  0  0  0  0  0  0  0  0  0  0  0
   -0.5817    1.3994    0.7015 H   0  0  0  0  0  0  0  0  0  0  0  0
    1.9333    1.4180    0.3570 H   0  0  0  0  0  0  0  0  0  0  0  0
    2.4346   -0.5916   -2.0558 H   0  0  0  0  0  0  0  0  0  0  0  0
    3.3622    0.9614   -1.6755 H   0  0  0  0  0  0  0  0  0  0  0  0
    2.8984   -1.5437    0.2398 H   0  0  0  0  0  0  0  0  0  0  0  0
    5.0208   -0.6315    0.5013 H   0  0  0  0  0  0  0  0  0  0  0  0
    4.1153    0.0763    1.7401 H   0  0  0  0  0  0  0  0  0  0  0  0
  1  2  1  0
  2  3  1  0
  3  4  1  0
  2  5  1  0
  5  6  1  0
  6  7  2  0
  6  8  1  0
  8  9  1  0
  9 10  1  0
 10 11  1  0
 10  8  1  0
  1 12  1  0
  1 13  1  0
  1 14  1  0
  2 15  1  6
  3 16  1  0
  3 17  1  0
  4 18  1  0
  5 19  1  0
  8 20  1  1
  9 21  1  0
  9 22  1  0
 10 23  1  6
 11 24  1  0
 11 25  1  0
M  END
$$$$

     RDKit          3D

 25 25  0  0  0  0  0  0  0  0999 V2000
   -2.7549    0.8142   -0.6609 C   0  0  0  0  0  0  0  0  0  0  0  0
   -1.9707   -0.0469    0.3092 C   0  0  1  0  0  0  0  0  0  0  0  0
   -2.8260   -1.2297    0.6552 C   0  0  0  0  0  0  0  0  0  0  0  0
   -4.0164   -0.7250    1.1905 O   0  0  0  0  0  0  0  0  0  0  0  0
   -0.7040   -0.3553   -0.2545 N   0  0  0  0  0  0  0  0  0  0  0  0
    0.5553    0.0439    0.2761 C   0  0  0  0  0  0  0  0  0  0  0  0
    0.5124    0.7245    1.3311 O   0  0  0  0  0  0  0  0  0  0  0  0
    1.8480   -0.3128   -0.3641 C   0  0  2  0  0  0  0  0  0  0  0  0
    3.0480   -0.5983    0.5080 C   0  0  0  0  0  0  0  0  0  0  0  0
    2.9153    0.7130   -0.2969 C   0  0  1  0  0  0  0  0  0  0  0  0
    3.8693    0.8225   -1.3854 N   0  0  0  0  0  0  0  0  0  0  0  0
   -2.0301    1.3221   -1.3221 H   0  0  0  0  0  0  0  0  0  0  0  0
   -3.3840    0.1575   -1.3170 H   0  0  0  0  0  0  0  0  0  0  0  0
   -3.3625    1.5845   -0.1437 H   0  0  0  0  0  0  0  0  0  0  0  0
   -1.8622    0.5637    1.2456 H   0  0  0  0  0  0  0  0  0  0  0  0
   -2.3944   -1.8796    1.4334 H   0  0  0  0  0  0  0  0  0  0  0  0
   -3.1174   -1.7855   -0.2653 H   0  0  0  0  0  0  0  0  0  0  0  0
   -3.7614    0.0349    1.7726 H   0  0  0  0  0  0  0  0  0  0  0  0
   -0.6728   -0.9230   -1.1342 H   0  0  0  0  0  0  0  0  0  0  0  0
    1.8319   -0.9153   -1.2941 H   0  0  0  0  0  0  0  0  0  0  0  0
    3.8006   -1.3255    0.1888 H   0  0  0  0  0  0  0  0  0  0  0  0
    2.9343   -0.5205    1.6057 H   0  0  0  0  0  0  0  0  0  0  0  0
    2.8138    1.6135    0.3342 H   0  0  0  0  0  0  0  0  0  0  0  0
    4.7815    0.3948   -1.1424 H   0  0  0  0  0  0  0  0  0  0  0  0
    3.9465    1.8283   -1.6410 H   0  0  0  0  0  0  0  0  0  0  0  0
  1  2  1  0
  2  3  1  0
  3  4  1  0
  2  5  1  0
  5  6  1  0
  6  7  2  0
  6  8  1  0
  8  9  1  0
  9 10  1  0
 10 11  1  0
 10  8  1  0
  1 12  1  0
  1 13  1  0
  1 14  1  0
  2 15  1  1
  3 16  1  0
  3 17  1  0
  4 18  1  0
  5 19  1  0
  8 20  1  6
  9 21  1  0
  9 22  1  0
 10 23  1  1
 11 24  1  0
 11 25  1  0
M  END
$$$$

     RDKit          3D

 25 25  0  0  0  0  0  0  0  0999 V2000
   -2.5501    1.2946    0.1086 C   0  0  0  0  0  0  0  0  0  0  0  0
   -1.7026    0.3208    0.8693 C   0  0  1  0  0  0  0  0  0  0  0  0
   -2.3597   -1.0564    0.8744 C   0  0  0  0  0  0  0  0  0  0  0  0
   -3.6385   -0.9150    1.4074 O   0  0  0  0  0  0  0  0  0  0  0  0
   -0.3635    0.2108    0.3185 N   0  0  0  0  0  0  0  0  0  0  0  0
    0.7965    0.5178    1.0816 C   0  0  0  0  0  0  0  0  0  0  0  0
    0.6866    0.9009    2.2804 O   0  0  0  0  0  0  0  0  0  0  0  0
    2.1360    0.3889    0.4722 C   0  0  2  0  0  0  0  0  0  0  0  0
    2.2138    0.7558   -0.9939 C   0  0  0  0  0  0  0  0  0  0  0  0
    2.3254   -0.6807   -0.5783 C   0  0  1  0  0  0  0  0  0  0  0  0
    3.6255   -1.3178   -0.6086 N   0  0  0  0  0  0  0  0  0  0  0  0
   -3.4246    0.7535   -0.3548 H   0  0  0  0  0  0  0  0  0  0  0  0
   -2.9170    2.0886    0.7644 H   0  0  0  0  0  0  0  0  0  0  0  0
   -1.9584    1.6975   -0.7425 H   0  0  0  0  0  0  0  0  0  0  0  0
   -1.6168    0.6654    1.9188 H   0  0  0  0  0  0  0  0  0  0  0  0
   -2.4620   -1.4080   -0.1750 H   0  0  0  0  0  0  0  0  0  0  0  0
   -1.7301   -1.7597    1.4335 H   0  0  0  0  0  0  0  0  0  0  0  0
   -4.0099   -1.7968    1.6874 H   0  0  0  0  0  0  0  0  0  0  0  0
   -0.2272   -0.1018   -0.6673 H   0  0  0  0  0  0  0  0  0  0  0  0
    3.0035    0.6444    1.1231 H   0  0  0  0  0  0  0  0  0  0  0  0
    3.1342    1.2899   -1.3071 H   0  0  0  0  0  0  0  0  0  0  0  0
    1.2896    1.1106   -1.5035 H   0  0  0  0  0  0  0  0  0  0  0  0
    1.4454   -1.3524   -0.7459 H   0  0  0  0  0  0  0  0  0  0  0  0
    4.1657   -1.1331   -1.4572 H   0  0  0  0  0  0  0  0  0  0  0  0
    4.1382   -1.1176    0.2703 H   0  0  0  0  0  0  0  0  0  0  0  0
  1  2  1  0
  2  3  1  0
  3  4  1  0
  2  5  1  0
  5  6  1  0
  6  7  2  0
  6  8  1  0
  8  9  1  0
  9 10  1  0
 10 11  1  0
 10  8  1  0
  1 12  1  0
  1 13  1  0
  1 14  1  0
  2 15  1  1
  3 16  1  0
  3 17  1  0
  4 18  1  0
  5 19  1  0
  8 20  1  1
  9 21  1  0
  9 22  1  0
 10 23  1  6
 11 24  1  0
 11 25  1  0
M  END
$$$$

     RDKit          3D

 25 25  0  0  0  0  0  0  0  0999 V2000
   -2.5624   -0.8598    1.1852 C   0  0  0  0  0  0  0  0  0  0  0  0
   -1.9532   -0.3542   -0.1021 C   0  0  1  0  0  0  0  0  0  0  0  0
   -2.5185    1.0200   -0.4375 C   0  0  0  0  0  0  0  0  0  0  0  0
   -2.2279    1.9448    0.5377 O   0  0  0  0  0  0  0  0  0  0  0  0
   -0.4947   -0.2267    0.0193 N   0  0  0  0  0  0  0  0  0  0  0  0
    0.3851   -0.9558   -0.8084 C   0  0  0  0  0  0  0  0  0  0  0  0
   -0.0872   -1.7308   -1.6676 O   0  0  0  0  0  0  0  0  0  0  0  0
    1.8542   -0.8313   -0.6905 C   0  0  2  0  0  0  0  0  0  0  0  0
    2.3574   -0.7833    0.7499 C   0  0  0  0  0  0  0  0  0  0  0  0
    2.4668    0.4129   -0.1636 C   0  0  1  0  0  0  0  0  0  0  0  0
    3.7742    0.7348   -0.6959 N   0  0  0  0  0  0  0  0  0  0  0  0
   -1.8612   -1.4787    1.7786 H   0  0  0  0  0  0  0  0  0  0  0  0
   -2.8770   -0.0028    1.8386 H   0  0  0  0  0  0  0  0  0  0  0  0
   -3.4898   -1.4488    0.9621 H   0  0  0  0  0  0  0  0  0  0  0  0
   -2.2143   -1.0725   -0.9010 H   0  0  0  0  0  0  0  0  0  0  0  0
   -3.6251    0.8838   -0.5344 H   0  0  0  0  0  0  0  0  0  0  0  0
   -2.1079    1.3599   -1.4079 H   0  0  0  0  0  0  0  0  0  0  0  0
   -1.9239    2.7994    0.1246 H   0  0  0  0  0  0  0  0  0  0  0  0
   -0.0688    0.4099    0.7246 H   0  0  0  0  0  0  0  0  0  0  0  0
    2.4532   -1.4547   -1.3958 H   0  0  0  0  0  0  0  0  0  0  0  0
    3.2850   -1.3595    0.9480 H   0  0  0  0  0  0  0  0  0  0  0  0
    1.5943   -0.7394    1.5658 H   0  0  0  0  0  0  0  0  0  0  0  0
    1.7697    1.2702    0.0400 H   0  0  0  0  0  0  0  0  0  0  0  0
    3.7053    1.1898   -1.6389 H   0  0  0  0  0  0  0  0  0  0  0  0
    4.3665    1.2729   -0.0307 H   0  0  0  0  0  0  0  0  0  0  0  0
  1  2  1  0
  2  3  1  0
  3  4  1  0
  2  5  1  0
  5  6  1  0
  6  7  2  0
  6  8  1  0
  8  9  1  0
  9 10  1  0
 10 11  1  0
 10  8  1  0
  1 12  1  0
  1 13  1  0
  1 14  1  0
  2 15  1  6
  3 16  1  0
  3 17  1  0
  4 18  1  0
  5 19  1  0
  8 20  1  6
  9 21  1  0
  9 22  1  0
 10 23  1  1
 11 24  1  0
 11 25  1  0
M  END
$$$$

     RDKit          3D

 25 25  0  0  0  0  0  0  0  0999 V2000
   -2.3731   -0.8630   -1.5847 C   0  0  0  0  0  0  0  0  0  0  0  0
   -1.8710   -0.1955   -0.3422 C   0  0  1  0  0  0  0  0  0  0  0  0
   -2.7495   -0.6046    0.8288 C   0  0  0  0  0  0  0  0  0  0  0  0
   -4.0802   -0.3073    0.5844 O   0  0  0  0  0  0  0  0  0  0  0  0
   -0.5050   -0.5272   -0.0328 N   0  0  0  0  0  0  0  0  0  0  0  0
    0.4794    0.4695    0.0760 C   0  0  0  0  0  0  0  0  0  0  0  0
    0.1825    1.6648   -0.0950 O   0  0  0  0  0  0  0  0  0  0  0  0
    1.8819    0.0995    0.3964 C   0  0  2  0  0  0  0  0  0  0  0  0
    2.6180    1.1480    1.2028 C   0  0  0  0  0  0  0  0  0  0  0  0
    2.9801    0.9673   -0.2733 C   0  0  1  0  0  0  0  0  0  0  0  0
    4.2143    0.2954   -0.5741 N   0  0  0  0  0  0  0  0  0  0  0  0
   -2.0982   -0.2457   -2.4573 H   0  0  0  0  0  0  0  0  0  0  0  0
   -2.0889   -1.9187   -1.6656 H   0  0  0  0  0  0  0  0  0  0  0  0
   -3.4957   -0.8317   -1.5387 H   0  0  0  0  0  0  0  0  0  0  0  0
   -1.9855    0.8997   -0.4669 H   0  0  0  0  0  0  0  0  0  0  0  0
   -2.6790   -1.7071    0.9832 H   0  0  0  0  0  0  0  0  0  0  0  0
   -2.4565   -0.1139    1.7639 H   0  0  0  0  0  0  0  0  0  0  0  0
   -4.4703    0.3051    1.2444 H   0  0  0  0  0  0  0  0  0  0  0  0
   -0.2783   -1.5408    0.1071 H   0  0  0  0  0  0  0  0  0  0  0  0
    2.1354   -0.9621    0.5461 H   0  0  0  0  0  0  0  0  0  0  0  0
    2.0952    2.0697    1.4999 H   0  0  0  0  0  0  0  0  0  0  0  0
    3.3499    0.7155    1.9245 H   0  0  0  0  0  0  0  0  0  0  0  0
    2.6351    1.7825   -0.9135 H   0  0  0  0  0  0  0  0  0  0  0  0
    4.4548   -0.3325    0.2232 H   0  0  0  0  0  0  0  0  0  0  0  0
    4.1046   -0.2668   -1.4367 H   0  0  0  0  0  0  0  0  0  0  0  0
  1  2  1  0
  2  3  1  0
  3  4  1  0
  2  5  1  0
  5  6  1  0
  6  7  2  0
  6  8  1  0
  8  9  1  0
  9 10  1  0
 10 11  1  0
 10  8  1  0
  1 12  1  0
  1 13  1  0
  1 14  1  0
  2 15  1  6
  3 16  1  0
  3 17  1  0
  4 18  1  0
  5 19  1  0
  8 20  1  1
  9 21  1  0
  9 22  1  0
 10 23  1  6
 11 24  1  0
 11 25  1  0
M  END
$$$$

     RDKit          3D

 25 25  0  0  0  0  0  0  0  0999 V2000
   -2.6403    1.2175   -0.3282 C   0  0  0  0  0  0  0  0  0  0  0  0
   -1.8077    0.0376    0.1315 C   0  0  1  0  0  0  0  0  0  0  0  0
   -2.2901   -1.1675   -0.6575 C   0  0  0  0  0  0  0  0  0  0  0  0
   -3.6541   -1.3484   -0.4336 O   0  0  0  0  0  0  0  0  0  0  0  0
   -0.4001    0.2732   -0.0625 N   0  0  0  0  0  0  0  0  0  0  0  0
    0.4855    0.2346    1.0327 C   0  0  0  0  0  0  0  0  0  0  0  0
   -0.0116   -0.0114    2.1613 O   0  0  0  0  0  0  0  0  0  0  0  0
    1.9286    0.4568    0.9599 C   0  0  2  0  0  0  0  0  0  0  0  0
    2.5930    1.1755   -0.1355 C   0  0  0  0  0  0  0  0  0  0  0  0
    2.5726   -0.2931   -0.2421 C   0  0  1  0  0  0  0  0  0  0  0  0
    3.6830   -1.1194    0.1204 N   0  0  0  0  0  0  0  0  0  0  0  0
   -3.6055    0.8926   -0.7715 H   0  0  0  0  0  0  0  0  0  0  0  0
   -2.8354    1.8568    0.5544 H   0  0  0  0  0  0  0  0  0  0  0  0
   -2.1156    1.7924   -1.1344 H   0  0  0  0  0  0  0  0  0  0  0  0
   -1.9901   -0.1530    1.1978 H   0  0  0  0  0  0  0  0  0  0  0  0
   -1.7970   -2.1144   -0.3020 H   0  0  0  0  0  0  0  0  0  0  0  0
   -2.1406   -1.0122   -1.7497 H   0  0  0  0  0  0  0  0  0  0  0  0
   -3.7979   -1.1807    0.5443 H   0  0  0  0  0  0  0  0  0  0  0  0
   -0.0122    0.4752   -1.0083 H   0  0  0  0  0  0  0  0  0  0  0  0
    2.4713    0.3882    1.9232 H   0  0  0  0  0  0  0  0  0  0  0  0
    3.5649    1.6554    0.0967 H   0  0  0  0  0  0  0  0  0  0  0  0
    2.0134    1.7763   -0.8877 H   0  0  0  0  0  0  0  0  0  0  0  0
    1.9136   -0.7163   -1.0050 H   0  0  0  0  0  0  0  0  0  0  0  0
    4.5177   -0.9941   -0.4936 H   0  0  0  0  0  0  0  0  0  0  0  0
    3.3546   -2.1217    0.0806 H   0  0  0  0  0  0  0  0  0  0  0  0
  1  2  1  0
  2  3  1  0
  3  4  1  0
  2  5  1  0
  5  6  1  0
  6  7  2  0
  6  8  1  0
  8  9  1  0
  9 10  1  0
 10 11  1  0
 10  8  1  0
  1 12  1  0
  1 13  1  0
  1 14  1  0
  2 15  1  1
  3 16  1  0
  3 17  1  0
  4 18  1  0
  5 19  1  0
  8 20  1  1
  9 21  1  0
  9 22  1  0
 10 23  1  6
 11 24  1  0
 11 25  1  0
M  END
$$$$

     RDKit          3D

 25 25  0  0  0  0  0  0  0  0999 V2000
   -2.4890    1.1818   -0.6671 C   0  0  0  0  0  0  0  0  0  0  0  0
   -1.8285    0.0584    0.1067 C   0  0  1  0  0  0  0  0  0  0  0  0
   -2.5019   -1.2640   -0.1668 C   0  0  0  0  0  0  0  0  0  0  0  0
   -3.8860   -1.0412    0.0296 O   0  0  0  0  0  0  0  0  0  0  0  0
   -0.4083    0.0244   -0.0454 N   0  0  0  0  0  0  0  0  0  0  0  0
    0.5059    0.2442    1.0275 C   0  0  0  0  0  0  0  0  0  0  0  0
   -0.0019    0.4770    2.1506 O   0  0  0  0  0  0  0  0  0  0  0  0
    1.9545    0.2149    0.8979 C   0  0  2  0  0  0  0  0  0  0  0  0
    2.4628    1.0088   -0.3463 C   0  0  0  0  0  0  0  0  0  0  0  0
    2.6657   -0.4646   -0.1986 C   0  0  1  0  0  0  0  0  0  0  0  0
    4.0208   -0.9128    0.0738 N   0  0  0  0  0  0  0  0  0  0  0  0
   -2.0955    1.2435   -1.7024 H   0  0  0  0  0  0  0  0  0  0  0  0
   -3.5859    1.0016   -0.6609 H   0  0  0  0  0  0  0  0  0  0  0  0
   -2.2886    2.1269   -0.1217 H   0  0  0  0  0  0  0  0  0  0  0  0
   -2.0480    0.2837    1.1940 H   0  0  0  0  0  0  0  0  0  0  0  0
   -2.2310   -2.0309    0.5883 H   0  0  0  0  0  0  0  0  0  0  0  0
   -2.2832   -1.6806   -1.1494 H   0  0  0  0  0  0  0  0  0  0  0  0
   -4.3973   -1.3086   -0.7668 H   0  0  0  0  0  0  0  0  0  0  0  0
    0.0293   -0.1680   -0.9734 H   0  0  0  0  0  0  0  0  0  0  0  0
    2.5272    0.4056    1.8275 H   0  0  0  0  0  0  0  0  0  0  0  0
    3.3037    1.6960   -0.1480 H   0  0  0  0  0  0  0  0  0  0  0  0
    1.7214    1.2967   -1.1005 H   0  0  0  0  0  0  0  0  0  0  0  0
    2.0947   -1.1747   -0.8271 H   0  0  0  0  0  0  0  0  0  0  0  0
    4.6837   -0.1381   -0.1336 H   0  0  0  0  0  0  0  0  0  0  0  0
    4.0756   -1.0800    1.1120 H   0  0  0  0  0  0  0  0  0  0  0  0
  1  2  1  0
  2  3  1  0
  3  4  1  0
  2  5  1  0
  5  6  1  0
  6  7  2  0
  6  8  1  0
  8  9  1  0
  9 10  1  0
 10 11  1  0
 10  8  1  0
  1 12  1  0
  1 13  1  0
  1 14  1  0
  2 15  1  1
  3 16  1  0
  3 17  1  0
  4 18  1  0
  5 19  1  0
  8 20  1  1
  9 21  1  0
  9 22  1  0
 10 23  1  6
 11 24  1  0
 11 25  1  0
M  END
$$$$

     RDKit          3D

 25 25  0  0  0  0  0  0  0  0999 V2000
   -2.6980    0.4667    1.0189 C   0  0  0  0  0  0  0  0  0  0  0  0
   -1.9480   -0.0717   -0.2010 C   0  0  1  0  0  0  0  0  0  0  0  0
   -2.8096    0.2485   -1.4088 C   0  0  0  0  0  0  0  0  0  0  0  0
   -4.0409   -0.3892   -1.1924 O   0  0  0  0  0  0  0  0  0  0  0  0
   -0.6482    0.5130   -0.2725 N   0  0  0  0  0  0  0  0  0  0  0  0
    0.5298   -0.2667   -0.2806 C   0  0  0  0  0  0  0  0  0  0  0  0
    0.3817   -1.5308   -0.2205 O   0  0  0  0  0  0  0  0  0  0  0  0
    1.9005    0.2988   -0.3537 C   0  0  2  0  0  0  0  0  0  0  0  0
    2.9740   -0.4596   -1.0427 C   0  0  0  0  0  0  0  0  0  0  0  0
    2.9384   -0.3888    0.4625 C   0  0  1  0  0  0  0  0  0  0  0  0
    3.9316    0.3863    1.1499 N   0  0  0  0  0  0  0  0  0  0  0  0
   -2.6368    1.5618    1.0154 H   0  0  0  0  0  0  0  0  0  0  0  0
   -3.7368    0.0926    1.0367 H   0  0  0  0  0  0  0  0  0  0  0  0
   -2.1432    0.1245    1.9329 H   0  0  0  0  0  0  0  0  0  0  0  0
   -1.8645   -1.1732   -0.1561 H   0  0  0  0  0  0  0  0  0  0  0  0
   -2.9867    1.3339   -1.5264 H   0  0  0  0  0  0  0  0  0  0  0  0
   -2.3956   -0.2007   -2.3346 H   0  0  0  0  0  0  0  0  0  0  0  0
   -3.9158   -1.1729   -0.5740 H   0  0  0  0  0  0  0  0  0  0  0  0
   -0.5626    1.5513   -0.3206 H   0  0  0  0  0  0  0  0  0  0  0  0
    1.9627    1.3973   -0.4036 H   0  0  0  0  0  0  0  0  0  0  0  0
    3.7724    0.1095   -1.5598 H   0  0  0  0  0  0  0  0  0  0  0  0
    2.7203   -1.4488   -1.4584 H   0  0  0  0  0  0  0  0  0  0  0  0
    2.6191   -1.3102    1.0225 H   0  0  0  0  0  0  0  0  0  0  0  0
    3.7840    0.2808    2.1779 H   0  0  0  0  0  0  0  0  0  0  0  0
    4.8721    0.0478    0.8809 H   0  0  0  0  0  0  0  0  0  0  0  0
  1  2  1  0
  2  3  1  0
  3  4  1  0
  2  5  1  0
  5  6  1  0
  6  7  2  0
  6  8  1  0
  8  9  1  0
  9 10  1  0
 10 11  1  0
 10  8  1  0
  1 12  1  0
  1 13  1  0
  1 14  1  0
  2 15  1  1
  3 16  1  0
  3 17  1  0
  4 18  1  0
  5 19  1  0
  8 20  1  6
  9 21  1  0
  9 22  1  0
 10 23  1  1
 11 24  1  0
 11 25  1  0
M  END
$$$$
