
     RDKit          3D

 25 25  0  0  0  0  0  0  0  0999 V2000
    3.5067   -1.6148    0.3236 O   0  0  0  0  0  0  0  0  0  0  0  0
    3.1852   -0.4520    0.6419 C   0  0  0  0  0  0  0  0  0  0  0  0
    4.1408    0.3285    1.2771 O   0  0  0  0  0  0  0  0  0  0  0  0
    1.8634    0.1565    0.3934 C   0  0  0  0  0  0  0  0  0  0  0  0
    0.9105   -0.7746   -0.2970 C   0  0  2  0  0  0  0  0  0  0  0  0
    1.3945   -1.1777   -1.5256 O   0  0  0  0  0  0  0  0  0  0  0  0
   -0.3907   -0.0143   -0.5048 C   0  0  1  0  0  0  0  0  0  0  0  0
   -1.4194   -0.8139   -1.2384 C   0  0  0  0  0  0  0  0  0  0  0  0
   -2.6679   -0.7917   -0.6382 O   0  0  0  0  0  0  0  0  0  0  0  0
   -3.0938    0.4561   -0.2678 C   0  0  0  0  0  0  0  0  0  0  0  0
   -2.0655    1.3094    0.3918 C   0  0  0  0  0  0  0  0  0  0  0  0
   -0.9453    0.4341    0.7597 N   0  0  0  0  0  0  0  0  0  0  0  0
    5.1363    0.2363    1.1218 H   0  0  0  0  0  0  0  0  0  0  0  0
    1.9752    1.0569   -0.2266 H   0  0  0  0  0  0  0  0  0  0  0  0
    1.4151    0.4012    1.3933 H   0  0  0  0  0  0  0  0  0  0  0  0
    0.6552   -1.6640    0.3262 H   0  0  0  0  0  0  0  0  0  0  0  0
    2.0603   -0.5182   -1.8164 H   0  0  0  0  0  0  0  0  0  0  0  0
   -0.2097    0.9192   -1.1025 H   0  0  0  0  0  0  0  0  0  0  0  0
   -1.0858   -1.8726   -1.2552 H   0  0  0  0  0  0  0  0  0  0  0  0
   -1.4812   -0.4952   -2.3200 H   0  0  0  0  0  0  0  0  0  0  0  0
   -3.9396    0.3170    0.4660 H   0  0  0  0  0  0  0  0  0  0  0  0
   -3.5461    1.0371   -1.1069 H   0  0  0  0  0  0  0  0  0  0  0  0
   -2.4243    1.9070    1.2260 H   0  0  0  0  0  0  0  0  0  0  0  0
   -1.6299    2.0152   -0.3707 H   0  0  0  0  0  0  0  0  0  0  0  0
   -1.3441   -0.3855    1.2650 H   0  0  0  0  0  0  0  0  0  0  0  0
  1  2  2  0
  2  3  1  0
  2  4  1  0
  4  5  1  0
  5  6  1  0
  5  7  1  0
  7  8  1  0
  8  9  1  0
  9 10  1  0
 10 11  1  0
 11 12  1  0
 12  7  1  0
  3 13  1  0
  4 14  1  0
  4 15  1  0
  5 16  1  1
  6 17  1  0
  7 18  1  6
  8 19  1  0
  8 20  1  0
 10 21  1  0
 10 22  1  0
 11 23  1  0
 11 24  1  0
 12 25  1  0
M  END
$$$$

     RDKit          3D

 25 25  0  0  0  0  0  0  0  0999 V2000
    3.7911   -0.8745    0.3942 O   0  0  0  0  0  0  0  0  0  0  0  0
    3.1116   -0.0035   -0.2047 C   0  0  0  0  0  0  0  0  0  0  0  0
    3.6397    1.2945   -0.2540 O   0  0  0  0  0  0  0  0  0  0  0  0
    1.8165   -0.3284   -0.8286 C   0  0  0  0  0  0  0  0  0  0  0  0
    0.7279   -0.4024    0.2443 C   0  0  2  0  0  0  0  0  0  0  0  0
    1.1023   -1.4033    1.1406 O   0  0  0  0  0  0  0  0  0  0  0  0
   -0.6105   -0.7157   -0.3932 C   0  0  1  0  0  0  0  0  0  0  0  0
   -1.6369   -1.0380    0.6367 C   0  0  0  0  0  0  0  0  0  0  0  0
   -2.2354    0.0248    1.2414 O   0  0  0  0  0  0  0  0  0  0  0  0
   -2.1573    1.2259    0.6162 C   0  0  0  0  0  0  0  0  0  0  0  0
   -1.9988    1.2005   -0.8539 C   0  0  0  0  0  0  0  0  0  0  0  0
   -0.9657    0.3253   -1.3028 N   0  0  0  0  0  0  0  0  0  0  0  0
    4.5185    1.5009    0.2432 H   0  0  0  0  0  0  0  0  0  0  0  0
    1.5395    0.4011   -1.6083 H   0  0  0  0  0  0  0  0  0  0  0  0
    1.9175   -1.3139   -1.3322 H   0  0  0  0  0  0  0  0  0  0  0  0
    0.7068    0.5533    0.7918 H   0  0  0  0  0  0  0  0  0  0  0  0
    1.0889   -2.2793    0.6543 H   0  0  0  0  0  0  0  0  0  0  0  0
   -0.4466   -1.6468   -0.9960 H   0  0  0  0  0  0  0  0  0  0  0  0
   -2.4410   -1.6919    0.2145 H   0  0  0  0  0  0  0  0  0  0  0  0
   -1.1385   -1.6488    1.4243 H   0  0  0  0  0  0  0  0  0  0  0  0
   -1.3320    1.8196    1.0693 H   0  0  0  0  0  0  0  0  0  0  0  0
   -3.1025    1.7982    0.8485 H   0  0  0  0  0  0  0  0  0  0  0  0
   -1.7159    2.2425   -1.1828 H   0  0  0  0  0  0  0  0  0  0  0  0
   -2.9772    1.0140   -1.3833 H   0  0  0  0  0  0  0  0  0  0  0  0
   -1.2021   -0.0541   -2.2614 H   0  0  0  0  0  0  0  0  0  0  0  0
  1  2  2  0
  2  3  1  0
  2  4  1  0
  4  5  1  0
  5  6  1  0
  5  7  1  0
  7  8  1  0
  8  9  1  0
  9 10  1  0
 10 11  1  0
 11 12  1  0
 12  7  1  0
  3 13  1  0
  4 14  1  0
  4 15  1  0
  5 16  1  1
  6 17  1  0
  7 18  1  6
  8 19  1  0
  8 20  1  0
 10 21  1  0
 10 22  1  0
 11 23  1  0
 11 24  1  0
 12 25  1  0
M  END
$$$$

     RDKit          3D

 25 25  0  0  0  0  0  0  0  0999 V2000
    3.5637   -0.6600    1.0009 O   0  0  0  0  0  0  0  0  0  0  0  0
    3.2715    0.1751    0.1096 C   0  0  0  0  0  0  0  0  0  0  0  0
    4.2799    0.9535   -0.4299 O   0  0  0  0  0  0  0  0  0  0  0  0
    1.8833    0.3504   -0.3789 C   0  0  0  0  0  0  0  0  0  0  0  0
    0.9487   -0.6069    0.3540 C   0  0  2  0  0  0  0  0  0  0  0  0
    1.3610   -1.9030    0.1173 O   0  0  0  0  0  0  0  0  0  0  0  0
   -0.4334   -0.3686   -0.1986 C   0  0  1  0  0  0  0  0  0  0  0  0
   -1.4728   -1.2751    0.3867 C   0  0  0  0  0  0  0  0  0  0  0  0
   -2.6555   -1.0746   -0.3377 O   0  0  0  0  0  0  0  0  0  0  0  0
   -3.1200    0.2125   -0.1726 C   0  0  0  0  0  0  0  0  0  0  0  0
   -2.1047    1.2768   -0.3999 C   0  0  0  0  0  0  0  0  0  0  0  0
   -0.7983    0.9898    0.0803 N   0  0  0  0  0  0  0  0  0  0  0  0
    5.1972    0.9159    0.0165 H   0  0  0  0  0  0  0  0  0  0  0  0
    1.8342    0.1267   -1.4693 H   0  0  0  0  0  0  0  0  0  0  0  0
    1.5523    1.4001   -0.2671 H   0  0  0  0  0  0  0  0  0  0  0  0
    0.9461   -0.3604    1.4258 H   0  0  0  0  0  0  0  0  0  0  0  0
    1.6624   -2.0233   -0.8107 H   0  0  0  0  0  0  0  0  0  0  0  0
   -0.4551   -0.5006   -1.3009 H   0  0  0  0  0  0  0  0  0  0  0  0
   -1.6127   -1.0044    1.4548 H   0  0  0  0  0  0  0  0  0  0  0  0
   -1.1991   -2.3397    0.2886 H   0  0  0  0  0  0  0  0  0  0  0  0
   -3.9540    0.3636   -0.9123 H   0  0  0  0  0  0  0  0  0  0  0  0
   -3.6165    0.2883    0.8313 H   0  0  0  0  0  0  0  0  0  0  0  0
   -2.4627    2.2042    0.1326 H   0  0  0  0  0  0  0  0  0  0  0  0
   -2.0405    1.5392   -1.4748 H   0  0  0  0  0  0  0  0  0  0  0  0
   -0.5750    1.3205    1.0241 H   0  0  0  0  0  0  0  0  0  0  0  0
  1  2  2  0
  2  3  1  0
  2  4  1  0
  4  5  1  0
  5  6  1  0
  5  7  1  0
  7  8  1  0
  8  9  1  0
  9 10  1  0
 10 11  1  0
 11 12  1  0
 12  7  1  0
  3 13  1  0
  4 14  1  0
  4 15  1  0
  5 16  1  1
  6 17  1  0
  7 18  1  6
  8 19  1  0
  8 20  1  0
 10 21  1  0
 10 22  1  0
 11 23  1  0
 11 24  1  0
 12 25  1  0
M  END
$$$$

     RDKit          3D

 25 25  0  0  0  0  0  0  0  0999 V2000
    2.0578    1.0563    1.4298 O   0  0  0  0  0  0  0  0  0  0  0  0
    2.6266    0.7817    0.3473 C   0  0  0  0  0  0  0  0  0  0  0  0
    3.7472    1.5178    0.0016 O   0  0  0  0  0  0  0  0  0  0  0  0
    2.1284   -0.2871   -0.5370 C   0  0  0  0  0  0  0  0  0  0  0  0
    0.9125   -0.9883   -0.0511 C   0  0  2  0  0  0  0  0  0  0  0  0
    0.5670   -1.9682   -0.9864 O   0  0  0  0  0  0  0  0  0  0  0  0
   -0.2997   -0.1036    0.0898 C   0  0  1  0  0  0  0  0  0  0  0  0
   -0.7574    0.4917   -1.2041 C   0  0  0  0  0  0  0  0  0  0  0  0
   -2.1410    0.6783   -1.2006 O   0  0  0  0  0  0  0  0  0  0  0  0
   -2.6243    0.9725    0.0677 C   0  0  0  0  0  0  0  0  0  0  0  0
   -2.5534   -0.2789    0.9268 C   0  0  0  0  0  0  0  0  0  0  0  0
   -1.3747   -0.9959    0.5566 N   0  0  0  0  0  0  0  0  0  0  0  0
    4.3942    1.8949    0.6827 H   0  0  0  0  0  0  0  0  0  0  0  0
    2.9380   -1.0614   -0.6211 H   0  0  0  0  0  0  0  0  0  0  0  0
    2.0005    0.1128   -1.5637 H   0  0  0  0  0  0  0  0  0  0  0  0
    1.1026   -1.4888    0.9034 H   0  0  0  0  0  0  0  0  0  0  0  0
    1.0584   -2.8062   -0.7457 H   0  0  0  0  0  0  0  0  0  0  0  0
   -0.1571    0.7221    0.8127 H   0  0  0  0  0  0  0  0  0  0  0  0
   -0.3222    1.5190   -1.3663 H   0  0  0  0  0  0  0  0  0  0  0  0
   -0.5391   -0.1559   -2.0906 H   0  0  0  0  0  0  0  0  0  0  0  0
   -3.6800    1.2585   -0.0440 H   0  0  0  0  0  0  0  0  0  0  0  0
   -2.0765    1.7616    0.5822 H   0  0  0  0  0  0  0  0  0  0  0  0
   -2.5471   -0.0424    2.0117 H   0  0  0  0  0  0  0  0  0  0  0  0
   -3.4359   -0.9275    0.7287 H   0  0  0  0  0  0  0  0  0  0  0  0
   -1.0247   -1.6632    1.2694 H   0  0  0  0  0  0  0  0  0  0  0  0
  1  2  2  0
  2  3  1  0
  2  4  1  0
  4  5  1  0
  5  6  1  0
  5  7  1  0
  7  8  1  0
  8  9  1  0
  9 10  1  0
 10 11  1  0
 11 12  1  0
 12  7  1  0
  3 13  1  0
  4 14  1  0
  4 15  1  0
  5 16  1  1
  6 17  1  0
  7 18  1  1
  8 19  1  0
  8 20  1  0
 10 21  1  0
 10 22  1  0
 11 23  1  0
 11 24  1  0
 12 25  1  0
M  END
$$$$

     RDKit          3D

 25 25  0  0  0  0  0  0  0  0999 V2000
    3.5053   -1.5212   -0.2696 O   0  0  0  0  0  0  0  0  0  0  0  0
    3.3553   -0.2643   -0.2531 C   0  0  0  0  0  0  0  0  0  0  0  0
    4.5007    0.5151   -0.3915 O   0  0  0  0  0  0  0  0  0  0  0  0
    2.0428    0.3971   -0.0962 C   0  0  0  0  0  0  0  0  0  0  0  0
    0.9491   -0.6353    0.0365 C   0  0  2  0  0  0  0  0  0  0  0  0
    0.8494   -1.4708   -1.0496 O   0  0  0  0  0  0  0  0  0  0  0  0
   -0.3749   -0.0054    0.4131 C   0  0  1  0  0  0  0  0  0  0  0  0
   -0.8920    0.9276   -0.6331 C   0  0  0  0  0  0  0  0  0  0  0  0
   -2.0747    0.5866   -1.2020 O   0  0  0  0  0  0  0  0  0  0  0  0
   -3.0326    0.0558   -0.4084 C   0  0  0  0  0  0  0  0  0  0  0  0
   -2.5958   -0.4947    0.9028 C   0  0  0  0  0  0  0  0  0  0  0  0
   -1.2842   -1.0822    0.7288 N   0  0  0  0  0  0  0  0  0  0  0  0
    5.3934    0.1368   -0.0496 H   0  0  0  0  0  0  0  0  0  0  0  0
    1.8736    0.9948   -1.0167 H   0  0  0  0  0  0  0  0  0  0  0  0
    2.0792    1.0162    0.8055 H   0  0  0  0  0  0  0  0  0  0  0  0
    1.2315   -1.2861    0.9153 H   0  0  0  0  0  0  0  0  0  0  0  0
   -0.0436   -1.4386   -1.4470 H   0  0  0  0  0  0  0  0  0  0  0  0
   -0.2014    0.5507    1.3655 H   0  0  0  0  0  0  0  0  0  0  0  0
   -0.1166    0.9576   -1.4549 H   0  0  0  0  0  0  0  0  0  0  0  0
   -0.9307    1.9767   -0.2451 H   0  0  0  0  0  0  0  0  0  0  0  0
   -3.8875    0.7672   -0.2158 H   0  0  0  0  0  0  0  0  0  0  0  0
   -3.5207   -0.7899   -0.9776 H   0  0  0  0  0  0  0  0  0  0  0  0
   -3.2785   -1.3287    1.1985 H   0  0  0  0  0  0  0  0  0  0  0  0
   -2.5636    0.2612    1.7252 H   0  0  0  0  0  0  0  0  0  0  0  0
   -0.9834   -1.5339    1.6190 H   0  0  0  0  0  0  0  0  0  0  0  0
  1  2  2  0
  2  3  1  0
  2  4  1  0
  4  5  1  0
  5  6  1  0
  5  7  1  0
  7  8  1  0
  8  9  1  0
  9 10  1  0
 10 11  1  0
 11 12  1  0
 12  7  1  0
  3 13  1  0
  4 14  1  0
  4 15  1  0
  5 16  1  1
  6 17  1  0
  7 18  1  1
  8 19  1  0
  8 20  1  0
 10 21  1  0
 10 22  1  0
 11 23  1  0
 11 24  1  0
 12 25  1  0
M  END
$$$$

     RDKit          3D

 25 25  0  0  0  0  0  0  0  0999 V2000
    3.7336   -1.4188   -0.0919 O   0  0  0  0  0  0  0  0  0  0  0  0
    3.3313   -0.2263    0.0040 C   0  0  0  0  0  0  0  0  0  0  0  0
    4.1335    0.7336    0.6342 O   0  0  0  0  0  0  0  0  0  0  0  0
    2.0231    0.2359   -0.5251 C   0  0  0  0  0  0  0  0  0  0  0  0
    0.9533   -0.1037    0.4523 C   0  0  2  0  0  0  0  0  0  0  0  0
    0.9368   -1.4875    0.6280 O   0  0  0  0  0  0  0  0  0  0  0  0
   -0.3980    0.4238    0.1463 C   0  0  1  0  0  0  0  0  0  0  0  0
   -1.0095   -0.0932   -1.1226 C   0  0  0  0  0  0  0  0  0  0  0  0
   -2.2591    0.5644   -1.2457 O   0  0  0  0  0  0  0  0  0  0  0  0
   -3.1083   -0.0567   -0.3541 C   0  0  0  0  0  0  0  0  0  0  0  0
   -2.6401    0.2495    1.0304 C   0  0  0  0  0  0  0  0  0  0  0  0
   -1.2534    0.0911    1.2640 N   0  0  0  0  0  0  0  0  0  0  0  0
    5.0643    0.5050    0.9400 H   0  0  0  0  0  0  0  0  0  0  0  0
    2.1205    1.2816   -0.7965 H   0  0  0  0  0  0  0  0  0  0  0  0
    1.8524   -0.3174   -1.4954 H   0  0  0  0  0  0  0  0  0  0  0  0
    1.2356    0.3095    1.4653 H   0  0  0  0  0  0  0  0  0  0  0  0
    1.7602   -1.7577    1.1086 H   0  0  0  0  0  0  0  0  0  0  0  0
   -0.3753    1.5299    0.0750 H   0  0  0  0  0  0  0  0  0  0  0  0
   -1.2176   -1.1641   -0.9886 H   0  0  0  0  0  0  0  0  0  0  0  0
   -0.4681    0.1701   -2.0286 H   0  0  0  0  0  0  0  0  0  0  0  0
   -3.0837   -1.1554   -0.5825 H   0  0  0  0  0  0  0  0  0  0  0  0
   -4.1606    0.2759   -0.4564 H   0  0  0  0  0  0  0  0  0  0  0  0
   -3.1806   -0.4671    1.7196 H   0  0  0  0  0  0  0  0  0  0  0  0
   -2.9941    1.2754    1.3060 H   0  0  0  0  0  0  0  0  0  0  0  0
   -0.9961    0.6021    2.1358 H   0  0  0  0  0  0  0  0  0  0  0  0
  1  2  2  0
  2  3  1  0
  2  4  1  0
  4  5  1  0
  5  6  1  0
  5  7  1  0
  7  8  1  0
  8  9  1  0
  9 10  1  0
 10 11  1  0
 11 12  1  0
 12  7  1  0
  3 13  1  0
  4 14  1  0
  4 15  1  0
  5 16  1  1
  6 17  1  0
  7 18  1  6
  8 19  1  0
  8 20  1  0
 10 21  1  0
 10 22  1  0
 11 23  1  0
 11 24  1  0
 12 25  1  0
M  END
$$$$

     RDKit          3D

 25 25  0  0  0  0  0  0  0  0999 V2000
    3.8492   -0.2898    0.3207 O   0  0  0  0  0  0  0  0  0  0  0  0
    3.0990    0.3310   -0.4668 C   0  0  0  0  0  0  0  0  0  0  0  0
    3.4932    1.5844   -0.8947 O   0  0  0  0  0  0  0  0  0  0  0  0
    1.8379   -0.3269   -0.8839 C   0  0  0  0  0  0  0  0  0  0  0  0
    0.8539   -0.1390    0.2392 C   0  0  2  0  0  0  0  0  0  0  0  0
    1.3934   -0.7379    1.3776 O   0  0  0  0  0  0  0  0  0  0  0  0
   -0.4696   -0.8641   -0.0372 C   0  0  1  0  0  0  0  0  0  0  0  0
   -1.2264   -0.8903    1.2455 C   0  0  0  0  0  0  0  0  0  0  0  0
   -2.4463   -0.2523    1.2190 O   0  0  0  0  0  0  0  0  0  0  0  0
   -2.4249    0.9157    0.4817 C   0  0  0  0  0  0  0  0  0  0  0  0
   -2.2548    0.4824   -0.9664 C   0  0  0  0  0  0  0  0  0  0  0  0
   -1.1513   -0.3709   -1.1707 N   0  0  0  0  0  0  0  0  0  0  0  0
    4.0129    2.2331   -0.2842 H   0  0  0  0  0  0  0  0  0  0  0  0
    2.0625   -1.4139   -0.9925 H   0  0  0  0  0  0  0  0  0  0  0  0
    1.4554    0.0898   -1.8398 H   0  0  0  0  0  0  0  0  0  0  0  0
    0.6791    0.9251    0.4504 H   0  0  0  0  0  0  0  0  0  0  0  0
    1.3891   -0.1515    2.1652 H   0  0  0  0  0  0  0  0  0  0  0  0
   -0.1559   -1.9233   -0.2664 H   0  0  0  0  0  0  0  0  0  0  0  0
   -0.6598   -0.4498    2.1042 H   0  0  0  0  0  0  0  0  0  0  0  0
   -1.4376   -1.9515    1.5850 H   0  0  0  0  0  0  0  0  0  0  0  0
   -1.6069    1.6083    0.7755 H   0  0  0  0  0  0  0  0  0  0  0  0
   -3.3988    1.4138    0.5746 H   0  0  0  0  0  0  0  0  0  0  0  0
   -3.1962   -0.0860   -1.2184 H   0  0  0  0  0  0  0  0  0  0  0  0
   -2.2926    1.3694   -1.6272 H   0  0  0  0  0  0  0  0  0  0  0  0
   -1.4044   -1.1057   -1.8902 H   0  0  0  0  0  0  0  0  0  0  0  0
  1  2  2  0
  2  3  1  0
  2  4  1  0
  4  5  1  0
  5  6  1  0
  5  7  1  0
  7  8  1  0
  8  9  1  0
  9 10  1  0
 10 11  1  0
 11 12  1  0
 12  7  1  0
  3 13  1  0
  4 14  1  0
  4 15  1  0
  5 16  1  1
  6 17  1  0
  7 18  1  6
  8 19  1  0
  8 20  1  0
 10 21  1  0
 10 22  1  0
 11 23  1  0
 11 24  1  0
 12 25  1  0
M  END
$$$$

     RDKit          3D

 25 25  0  0  0  0  0  0  0  0999 V2000
   -2.2461    1.3995    1.2071 O   0  0  0  0  0  0  0  0  0  0  0  0
   -2.4891    0.7606    0.1580 C   0  0  0  0  0  0  0  0  0  0  0  0
   -3.0287    1.4496   -0.9216 O   0  0  0  0  0  0  0  0  0  0  0  0
   -2.2144   -0.6704    0.0671 C   0  0  0  0  0  0  0  0  0  0  0  0
   -0.8429   -1.0541   -0.3764 C   0  0  2  0  0  0  0  0  0  0  0  0
   -0.8236   -2.4702   -0.3837 O   0  0  0  0  0  0  0  0  0  0  0  0
    0.2759   -0.5105    0.4659 C   0  0  1  0  0  0  0  0  0  0  0  0
    1.5618   -1.1183   -0.0088 C   0  0  0  0  0  0  0  0  0  0  0  0
    2.3864   -0.1376   -0.5567 O   0  0  0  0  0  0  0  0  0  0  0  0
    2.6926    0.7279    0.5196 C   0  0  0  0  0  0  0  0  0  0  0  0
    1.4698    1.5532    0.8275 C   0  0  0  0  0  0  0  0  0  0  0  0
    0.2444    0.9089    0.4467 N   0  0  0  0  0  0  0  0  0  0  0  0
   -3.4022    2.3970   -0.8014 H   0  0  0  0  0  0  0  0  0  0  0  0
   -2.4766   -1.1768    1.0431 H   0  0  0  0  0  0  0  0  0  0  0  0
   -2.9205   -1.1572   -0.6686 H   0  0  0  0  0  0  0  0  0  0  0  0
   -0.7190   -0.7447   -1.4448 H   0  0  0  0  0  0  0  0  0  0  0  0
   -0.5544   -2.8269   -1.2603 H   0  0  0  0  0  0  0  0  0  0  0  0
    0.1094   -0.9103    1.5090 H   0  0  0  0  0  0  0  0  0  0  0  0
    1.4170   -1.9136   -0.7737 H   0  0  0  0  0  0  0  0  0  0  0  0
    2.1429   -1.5993    0.8237 H   0  0  0  0  0  0  0  0  0  0  0  0
    3.5551    1.3533    0.2327 H   0  0  0  0  0  0  0  0  0  0  0  0
    2.9833    0.1125    1.3972 H   0  0  0  0  0  0  0  0  0  0  0  0
    1.5568    2.4887    0.2258 H   0  0  0  0  0  0  0  0  0  0  0  0
    1.4086    1.8674    1.8882 H   0  0  0  0  0  0  0  0  0  0  0  0
   -0.0866    1.2712   -0.4838 H   0  0  0  0  0  0  0  0  0  0  0  0
  1  2  2  0
  2  3  1  0
  2  4  1  0
  4  5  1  0
  5  6  1  0
  5  7  1  0
  7  8  1  0
  8  9  1  0
  9 10  1  0
 10 11  1  0
 11 12  1  0
 12  7  1  0
  3 13  1  0
  4 14  1  0
  4 15  1  0
  5 16  1  6
  6 17  1  0
  7 18  1  1
  8 19  1  0
  8 20  1  0
 10 21  1  0
 10 22  1  0
 11 23  1  0
 11 24  1  0
 12 25  1  0
M  END
$$$$
