
     RDKit          3D

 31 32  0  0  0  0  0  0  0  0999 V2000
   -0.7143    0.2971   -2.0533 N   0  0  0  0  0  0  0  0  0  0  0  0
   -0.1359    0.1711   -0.7223 C   0  0  2  0  0  0  0  0  0  0  0  0
   -1.1747   -0.2320    0.2655 C   0  0  0  0  0  0  0  0  0  0  0  0
   -1.8239   -1.5602   -0.0610 C   0  0  0  0  0  0  0  0  0  0  0  0
   -2.7748   -1.8327    0.9277 O   0  0  0  0  0  0  0  0  0  0  0  0
   -2.2971    0.8117    0.1612 C   0  0  0  0  0  0  0  0  0  0  0  0
   -1.8590    2.0772    0.4429 O   0  0  0  0  0  0  0  0  0  0  0  0
    0.4984    1.4852   -0.3167 C   0  0  0  0  0  0  0  0  0  0  0  0
    1.8692    0.8630   -0.5605 C   0  0  1  0  0  0  0  0  0  0  0  0
    2.7437    0.8242    0.5580 N   0  0  0  0  0  0  0  0  0  0  0  0
    2.7225   -0.4816    1.1330 C   0  0  0  0  0  0  0  0  0  0  0  0
    1.6121   -1.2598    0.4743 C   0  0  0  0  0  0  0  0  0  0  0  0
    1.1882   -0.4660   -0.6882 C   0  0  1  0  0  0  0  0  0  0  0  0
   -1.0188   -0.6251   -2.4321 H   0  0  0  0  0  0  0  0  0  0  0  0
   -0.0240    0.7786   -2.6970 H   0  0  0  0  0  0  0  0  0  0  0  0
   -0.8117   -0.2407    1.3021 H   0  0  0  0  0  0  0  0  0  0  0  0
   -2.3607   -1.5371   -1.0187 H   0  0  0  0  0  0  0  0  0  0  0  0
   -1.0955   -2.4013   -0.0206 H   0  0  0  0  0  0  0  0  0  0  0  0
   -2.5812   -1.3021    1.7341 H   0  0  0  0  0  0  0  0  0  0  0  0
   -3.1530    0.5412    0.7866 H   0  0  0  0  0  0  0  0  0  0  0  0
   -2.6286    0.7770   -0.9107 H   0  0  0  0  0  0  0  0  0  0  0  0
   -2.3427    2.4839    1.2042 H   0  0  0  0  0  0  0  0  0  0  0  0
    0.4237    1.7088    0.7869 H   0  0  0  0  0  0  0  0  0  0  0  0
    0.2623    2.3396   -0.9584 H   0  0  0  0  0  0  0  0  0  0  0  0
    2.3423    1.2500   -1.4716 H   0  0  0  0  0  0  0  0  0  0  0  0
    2.4651    1.5412    1.2795 H   0  0  0  0  0  0  0  0  0  0  0  0
    3.7216   -0.9435    0.9907 H   0  0  0  0  0  0  0  0  0  0  0  0
    2.5652   -0.4118    2.2280 H   0  0  0  0  0  0  0  0  0  0  0  0
    0.8496   -1.5174    1.2072 H   0  0  0  0  0  0  0  0  0  0  0  0
    2.0840   -2.2198    0.1112 H   0  0  0  0  0  0  0  0  0  0  0  0
    1.4477   -0.9187   -1.6819 H   0  0  0  0  0  0  0  0  0  0  0  0
  2  1  1  6
  2  3  1  0
  3  4  1  0
  4  5  1  0
  3  6  1  0
  6  7  1  0
  2  8  1  0
  8  9  1  0
  9 10  1  0
 10 11  1  0
 11 12  1  0
 12 13  1  0
 13  2  1  0
 13  9  1  0
  1 14  1  0
  1 15  1  0
  3 16  1  0
  4 17  1  0
  4 18  1  0
  5 19  1  0
  6 20  1  0
  6 21  1  0
  7 22  1  0
  8 23  1  0
  8 24  1  0
  9 25  1  6
 10 26  1  0
 11 27  1  0
 11 28  1  0
 12 29  1  0
 12 30  1  0
 13 31  1  6
M  END
$$$$

     RDKit          3D

 31 32  0  0  0  0  0  0  0  0999 V2000
   -0.8209   -0.9358    1.6326 N   0  0  0  0  0  0  0  0  0  0  0  0
   -0.1852   -0.3829    0.4725 C   0  0  2  0  0  0  0  0  0  0  0  0
   -1.1908    0.1631   -0.4897 C   0  0  0  0  0  0  0  0  0  0  0  0
   -1.9967    1.2669    0.2080 C   0  0  0  0  0  0  0  0  0  0  0  0
   -2.9448    1.7968   -0.6659 O   0  0  0  0  0  0  0  0  0  0  0  0
   -2.1961   -0.9650   -0.7368 C   0  0  0  0  0  0  0  0  0  0  0  0
   -2.7472   -1.2612    0.5124 O   0  0  0  0  0  0  0  0  0  0  0  0
    0.7782   -1.3321   -0.2421 C   0  0  0  0  0  0  0  0  0  0  0  0
    1.8483   -0.7732    0.6909 C   0  0  1  0  0  0  0  0  0  0  0  0
    3.0475   -0.3969    0.0134 N   0  0  0  0  0  0  0  0  0  0  0  0
    3.0142    1.0181   -0.2154 C   0  0  0  0  0  0  0  0  0  0  0  0
    1.5328    1.3502   -0.2606 C   0  0  0  0  0  0  0  0  0  0  0  0
    0.9821    0.4650    0.8137 C   0  0  1  0  0  0  0  0  0  0  0  0
   -0.1294   -1.4461    2.2521 H   0  0  0  0  0  0  0  0  0  0  0  0
   -1.1735   -0.1479    2.2202 H   0  0  0  0  0  0  0  0  0  0  0  0
   -0.7898    0.5004   -1.4446 H   0  0  0  0  0  0  0  0  0  0  0  0
   -2.5681    0.8128    1.0465 H   0  0  0  0  0  0  0  0  0  0  0  0
   -1.3395    2.0805    0.5612 H   0  0  0  0  0  0  0  0  0  0  0  0
   -3.6817    1.1478   -0.8346 H   0  0  0  0  0  0  0  0  0  0  0  0
   -2.9851   -0.6781   -1.4273 H   0  0  0  0  0  0  0  0  0  0  0  0
   -1.6286   -1.8683   -1.0452 H   0  0  0  0  0  0  0  0  0  0  0  0
   -2.6843   -2.2057    0.7407 H   0  0  0  0  0  0  0  0  0  0  0  0
    0.9616   -1.0502   -1.2781 H   0  0  0  0  0  0  0  0  0  0  0  0
    0.5209   -2.3868   -0.0593 H   0  0  0  0  0  0  0  0  0  0  0  0
    1.9423   -1.3596    1.6148 H   0  0  0  0  0  0  0  0  0  0  0  0
    3.8645   -0.7205    0.5703 H   0  0  0  0  0  0  0  0  0  0  0  0
    3.5069    1.5174    0.6377 H   0  0  0  0  0  0  0  0  0  0  0  0
    3.5233    1.2872   -1.1635 H   0  0  0  0  0  0  0  0  0  0  0  0
    1.1454    1.1363   -1.2695 H   0  0  0  0  0  0  0  0  0  0  0  0
    1.4045    2.4158    0.0174 H   0  0  0  0  0  0  0  0  0  0  0  0
    0.9892    0.9520    1.8055 H   0  0  0  0  0  0  0  0  0  0  0  0
  2  1  1  1
  2  3  1  0
  3  4  1  0
  4  5  1  0
  3  6  1  0
  6  7  1  0
  2  8  1  0
  8  9  1  0
  9 10  1  0
 10 11  1  0
 11 12  1  0
 12 13  1  0
 13  2  1  0
 13  9  1  0
  1 14  1  0
  1 15  1  0
  3 16  1  0
  4 17  1  0
  4 18  1  0
  5 19  1  0
  6 20  1  0
  6 21  1  0
  7 22  1  0
  8 23  1  0
  8 24  1  0
  9 25  1  1
 10 26  1  0
 11 27  1  0
 11 28  1  0
 12 29  1  0
 12 30  1  0
 13 31  1  1
M  END
$$$$

     RDKit          3D

 31 32  0  0  0  0  0  0  0  0999 V2000
   -0.9062    0.0038    1.8148 N   0  0  0  0  0  0  0  0  0  0  0  0
   -0.2389   -0.1687    0.5270 C   0  0  2  0  0  0  0  0  0  0  0  0
   -1.2212   -0.0674   -0.5807 C   0  0  0  0  0  0  0  0  0  0  0  0
   -1.8817    1.3111   -0.5343 C   0  0  0  0  0  0  0  0  0  0  0  0
   -2.8116    1.3913   -1.5922 O   0  0  0  0  0  0  0  0  0  0  0  0
   -2.3434   -1.0680   -0.3173 C   0  0  0  0  0  0  0  0  0  0  0  0
   -1.8396   -2.3524   -0.2601 O   0  0  0  0  0  0  0  0  0  0  0  0
    0.5864   -1.4227    0.5144 C   0  0  0  0  0  0  0  0  0  0  0  0
    1.8013   -0.5985    0.8214 C   0  0  1  0  0  0  0  0  0  0  0  0
    2.8073   -0.7566   -0.1967 N   0  0  0  0  0  0  0  0  0  0  0  0
    3.0111    0.5817   -0.6699 C   0  0  0  0  0  0  0  0  0  0  0  0
    1.5489    1.0147   -0.8657 C   0  0  0  0  0  0  0  0  0  0  0  0
    0.9998    0.6366    0.4677 C   0  0  1  0  0  0  0  0  0  0  0  0
   -0.1993   -0.3202    2.5342 H   0  0  0  0  0  0  0  0  0  0  0  0
   -1.0410    1.0313    1.9477 H   0  0  0  0  0  0  0  0  0  0  0  0
   -0.8310   -0.2245   -1.5853 H   0  0  0  0  0  0  0  0  0  0  0  0
   -1.1346    2.1072   -0.6001 H   0  0  0  0  0  0  0  0  0  0  0  0
   -2.4896    1.3677    0.3945 H   0  0  0  0  0  0  0  0  0  0  0  0
   -3.1594    2.3251   -1.6004 H   0  0  0  0  0  0  0  0  0  0  0  0
   -3.0790   -1.0273   -1.1653 H   0  0  0  0  0  0  0  0  0  0  0  0
   -2.9029   -0.8422    0.5913 H   0  0  0  0  0  0  0  0  0  0  0  0
   -2.2516   -2.8552    0.4822 H   0  0  0  0  0  0  0  0  0  0  0  0
    0.5946   -1.8739   -0.5018 H   0  0  0  0  0  0  0  0  0  0  0  0
    0.3746   -2.1497    1.3193 H   0  0  0  0  0  0  0  0  0  0  0  0
    2.1673   -0.6328    1.8669 H   0  0  0  0  0  0  0  0  0  0  0  0
    3.6642   -1.2343    0.1345 H   0  0  0  0  0  0  0  0  0  0  0  0
    3.3954    1.1792    0.1934 H   0  0  0  0  0  0  0  0  0  0  0  0
    3.6001    0.6793   -1.5715 H   0  0  0  0  0  0  0  0  0  0  0  0
    1.1559    0.4193   -1.7088 H   0  0  0  0  0  0  0  0  0  0  0  0
    1.5880    2.0983   -1.0607 H   0  0  0  0  0  0  0  0  0  0  0  0
    1.0359    1.4479    1.2017 H   0  0  0  0  0  0  0  0  0  0  0  0
  2  1  1  1
  2  3  1  0
  3  4  1  0
  4  5  1  0
  3  6  1  0
  6  7  1  0
  2  8  1  0
  8  9  1  0
  9 10  1  0
 10 11  1  0
 11 12  1  0
 12 13  1  0
 13  2  1  0
 13  9  1  0
  1 14  1  0
  1 15  1  0
  3 16  1  0
  4 17  1  0
  4 18  1  0
  5 19  1  0
  6 20  1  0
  6 21  1  0
  7 22  1  0
  8 23  1  0
  8 24  1  0
  9 25  1  1
 10 26  1  0
 11 27  1  0
 11 28  1  0
 12 29  1  0
 12 30  1  0
 13 31  1  1
M  END
$$$$

     RDKit          3D

 31 32  0  0  0  0  0  0  0  0999 V2000
    0.2974   -2.2547   -0.2228 N   0  0  0  0  0  0  0  0  0  0  0  0
    0.0803   -0.8008    0.0571 C   0  0  2  0  0  0  0  0  0  0  0  0
    1.3869   -0.1325   -0.0259 C   0  0  0  0  0  0  0  0  0  0  0  0
    2.0494   -0.2391   -1.3711 C   0  0  0  0  0  0  0  0  0  0  0  0
    3.2777    0.4174   -1.3643 O   0  0  0  0  0  0  0  0  0  0  0  0
    1.5383    1.2229    0.5800 C   0  0  0  0  0  0  0  0  0  0  0  0
    2.8824    1.6413    0.3730 O   0  0  0  0  0  0  0  0  0  0  0  0
   -0.6805   -0.7230    1.3363 C   0  0  0  0  0  0  0  0  0  0  0  0
   -1.9186   -0.9925    0.5011 C   0  0  1  0  0  0  0  0  0  0  0  0
   -3.0211   -0.1286    0.7497 N   0  0  0  0  0  0  0  0  0  0  0  0
   -2.5395    1.1995    0.4323 C   0  0  0  0  0  0  0  0  0  0  0  0
   -1.6633    0.9399   -0.7880 C   0  0  0  0  0  0  0  0  0  0  0  0
   -1.1149   -0.4079   -0.6768 C   0  0  1  0  0  0  0  0  0  0  0  0
    1.2532   -2.5317    0.0323 H   0  0  0  0  0  0  0  0  0  0  0  0
    0.0632   -2.4410   -1.2279 H   0  0  0  0  0  0  0  0  0  0  0  0
    2.0733   -0.7758    0.6402 H   0  0  0  0  0  0  0  0  0  0  0  0
    1.4139    0.1443   -2.1946 H   0  0  0  0  0  0  0  0  0  0  0  0
    2.2764   -1.3018   -1.6444 H   0  0  0  0  0  0  0  0  0  0  0  0
    3.2854    1.1998   -1.9584 H   0  0  0  0  0  0  0  0  0  0  0  0
    0.9693    2.0368    0.1075 H   0  0  0  0  0  0  0  0  0  0  0  0
    1.4297    1.2063    1.6850 H   0  0  0  0  0  0  0  0  0  0  0  0
    3.4667    1.0635    0.8928 H   0  0  0  0  0  0  0  0  0  0  0  0
   -0.7609    0.2522    1.8186 H   0  0  0  0  0  0  0  0  0  0  0  0
   -0.4433   -1.5459    2.0490 H   0  0  0  0  0  0  0  0  0  0  0  0
   -2.1437   -2.0604    0.3386 H   0  0  0  0  0  0  0  0  0  0  0  0
   -3.2346   -0.1480    1.7804 H   0  0  0  0  0  0  0  0  0  0  0  0
   -2.0353    1.7203    1.2427 H   0  0  0  0  0  0  0  0  0  0  0  0
   -3.4404    1.8073    0.1679 H   0  0  0  0  0  0  0  0  0  0  0  0
   -1.0310    1.7722   -1.0523 H   0  0  0  0  0  0  0  0  0  0  0  0
   -2.4298    0.9096   -1.6352 H   0  0  0  0  0  0  0  0  0  0  0  0
   -1.2866   -1.0497   -1.5994 H   0  0  0  0  0  0  0  0  0  0  0  0
  2  1  1  6
  2  3  1  0
  3  4  1  0
  4  5  1  0
  3  6  1  0
  6  7  1  0
  2  8  1  0
  8  9  1  0
  9 10  1  0
 10 11  1  0
 11 12  1  0
 12 13  1  0
 13  2  1  0
 13  9  1  0
  1 14  1  0
  1 15  1  0
  3 16  1  0
  4 17  1  0
  4 18  1  0
  5 19  1  0
  6 20  1  0
  6 21  1  0
  7 22  1  0
  8 23  1  0
  8 24  1  0
  9 25  1  6
 10 26  1  0
 11 27  1  0
 11 28  1  0
 12 29  1  0
 12 30  1  0
 13 31  1  6
M  END
$$$$

     RDKit          3D

 31 32  0  0  0  0  0  0  0  0999 V2000
   -0.9328    0.8072   -1.8041 N   0  0  0  0  0  0  0  0  0  0  0  0
   -0.1472    0.5065   -0.5827 C   0  0  2  0  0  0  0  0  0  0  0  0
   -0.9715   -0.2324    0.3680 C   0  0  0  0  0  0  0  0  0  0  0  0
   -1.4687   -1.5828   -0.1454 C   0  0  0  0  0  0  0  0  0  0  0  0
   -2.2492   -2.1417    0.9017 O   0  0  0  0  0  0  0  0  0  0  0  0
   -2.2849    0.5544    0.5529 C   0  0  0  0  0  0  0  0  0  0  0  0
   -2.1320    1.8147    1.0340 O   0  0  0  0  0  0  0  0  0  0  0  0
    0.4019    1.7908   -0.0322 C   0  0  0  0  0  0  0  0  0  0  0  0
    1.7357    1.0337    0.1665 C   0  0  1  0  0  0  0  0  0  0  0  0
    1.7289    0.1406    1.2715 N   0  0  0  0  0  0  0  0  0  0  0  0
    2.1174   -1.1462    0.8203 C   0  0  0  0  0  0  0  0  0  0  0  0
    1.8854   -1.1208   -0.6736 C   0  0  0  0  0  0  0  0  0  0  0  0
    1.2154    0.1393   -0.9724 C   0  0  1  0  0  0  0  0  0  0  0  0
   -1.0293   -0.0633   -2.3816 H   0  0  0  0  0  0  0  0  0  0  0  0
   -0.3231    1.5047   -2.3253 H   0  0  0  0  0  0  0  0  0  0  0  0
   -0.5810   -0.3941    1.3836 H   0  0  0  0  0  0  0  0  0  0  0  0
   -0.6150   -2.2823   -0.2086 H   0  0  0  0  0  0  0  0  0  0  0  0
   -2.0954   -1.5087   -1.0331 H   0  0  0  0  0  0  0  0  0  0  0  0
   -1.7772   -1.8803    1.7370 H   0  0  0  0  0  0  0  0  0  0  0  0
   -2.9719   -0.0025    1.2219 H   0  0  0  0  0  0  0  0  0  0  0  0
   -2.8291    0.6178   -0.4316 H   0  0  0  0  0  0  0  0  0  0  0  0
   -2.8788    2.3734    0.7153 H   0  0  0  0  0  0  0  0  0  0  0  0
    0.6041    2.5596   -0.8150 H   0  0  0  0  0  0  0  0  0  0  0  0
    0.0420    2.1673    0.9224 H   0  0  0  0  0  0  0  0  0  0  0  0
    2.6261    1.6089   -0.0637 H   0  0  0  0  0  0  0  0  0  0  0  0
    2.1844    0.4838    2.1242 H   0  0  0  0  0  0  0  0  0  0  0  0
    1.5686   -1.9842    1.3000 H   0  0  0  0  0  0  0  0  0  0  0  0
    3.1887   -1.2956    1.0994 H   0  0  0  0  0  0  0  0  0  0  0  0
    2.9417   -1.0295   -1.1018 H   0  0  0  0  0  0  0  0  0  0  0  0
    1.5249   -2.0450   -1.1102 H   0  0  0  0  0  0  0  0  0  0  0  0
    1.5215    0.6067   -1.9373 H   0  0  0  0  0  0  0  0  0  0  0  0
  2  1  1  6
  2  3  1  0
  3  4  1  0
  4  5  1  0
  3  6  1  0
  6  7  1  0
  2  8  1  0
  8  9  1  0
  9 10  1  0
 10 11  1  0
 11 12  1  0
 12 13  1  0
 13  2  1  0
 13  9  1  0
  1 14  1  0
  1 15  1  0
  3 16  1  0
  4 17  1  0
  4 18  1  0
  5 19  1  0
  6 20  1  0
  6 21  1  0
  7 22  1  0
  8 23  1  0
  8 24  1  0
  9 25  1  6
 10 26  1  0
 11 27  1  0
 11 28  1  0
 12 29  1  0
 12 30  1  0
 13 31  1  6
M  END
$$$$

     RDKit          3D

 31 32  0  0  0  0  0  0  0  0999 V2000
   -0.3020   -1.9428    1.1243 N   0  0  0  0  0  0  0  0  0  0  0  0
   -0.1319   -0.6843    0.3654 C   0  0  2  0  0  0  0  0  0  0  0  0
   -1.3708    0.0753    0.3996 C   0  0  0  0  0  0  0  0  0  0  0  0
   -2.5148   -0.7390   -0.2349 C   0  0  0  0  0  0  0  0  0  0  0  0
   -3.6938   -0.0079   -0.1981 O   0  0  0  0  0  0  0  0  0  0  0  0
   -1.4587    1.4442   -0.1090 C   0  0  0  0  0  0  0  0  0  0  0  0
   -2.7830    1.9390    0.0415 O   0  0  0  0  0  0  0  0  0  0  0  0
    0.5706   -0.9971   -0.9045 C   0  0  0  0  0  0  0  0  0  0  0  0
    1.8586   -1.0601   -0.0841 C   0  0  1  0  0  0  0  0  0  0  0  0
    2.9916   -0.4086   -0.6359 N   0  0  0  0  0  0  0  0  0  0  0  0
    3.0408    0.9396   -0.0760 C   0  0  0  0  0  0  0  0  0  0  0  0
    1.5577    1.2489    0.2166 C   0  0  0  0  0  0  0  0  0  0  0  0
    1.1443   -0.0422    0.8344 C   0  0  1  0  0  0  0  0  0  0  0  0
   -0.5860   -2.7165    0.5041 H   0  0  0  0  0  0  0  0  0  0  0  0
    0.5200   -2.1533    1.7016 H   0  0  0  0  0  0  0  0  0  0  0  0
   -1.6946    0.1157    1.4903 H   0  0  0  0  0  0  0  0  0  0  0  0
   -2.2448   -1.0134   -1.2929 H   0  0  0  0  0  0  0  0  0  0  0  0
   -2.6622   -1.6933    0.2961 H   0  0  0  0  0  0  0  0  0  0  0  0
   -4.3150   -0.2433   -0.9248 H   0  0  0  0  0  0  0  0  0  0  0  0
   -1.2524    1.5310   -1.1933 H   0  0  0  0  0  0  0  0  0  0  0  0
   -0.8451    2.2080    0.3963 H   0  0  0  0  0  0  0  0  0  0  0  0
   -2.8491    2.8336   -0.4081 H   0  0  0  0  0  0  0  0  0  0  0  0
    0.6249   -0.2578   -1.6862 H   0  0  0  0  0  0  0  0  0  0  0  0
    0.3220   -2.0094   -1.2774 H   0  0  0  0  0  0  0  0  0  0  0  0
    2.0653   -2.0241    0.3815 H   0  0  0  0  0  0  0  0  0  0  0  0
    3.0446   -0.4039   -1.6745 H   0  0  0  0  0  0  0  0  0  0  0  0
    3.4715    1.6706   -0.7692 H   0  0  0  0  0  0  0  0  0  0  0  0
    3.5237    0.9277    0.9267 H   0  0  0  0  0  0  0  0  0  0  0  0
    1.1022    1.4853   -0.7419 H   0  0  0  0  0  0  0  0  0  0  0  0
    1.4784    2.1262    0.8782 H   0  0  0  0  0  0  0  0  0  0  0  0
    1.3882   -0.1478    1.8922 H   0  0  0  0  0  0  0  0  0  0  0  0
  2  1  1  1
  2  3  1  0
  3  4  1  0
  4  5  1  0
  3  6  1  0
  6  7  1  0
  2  8  1  0
  8  9  1  0
  9 10  1  0
 10 11  1  0
 11 12  1  0
 12 13  1  0
 13  2  1  0
 13  9  1  0
  1 14  1  0
  1 15  1  0
  3 16  1  0
  4 17  1  0
  4 18  1  0
  5 19  1  0
  6 20  1  0
  6 21  1  0
  7 22  1  0
  8 23  1  0
  8 24  1  0
  9 25  1  1
 10 26  1  0
 11 27  1  0
 11 28  1  0
 12 29  1  0
 12 30  1  0
 13 31  1  1
M  END
$$$$

     RDKit          3D

 31 32  0  0  0  0  0  0  0  0999 V2000
    0.4587    0.6030   -2.0183 N   0  0  0  0  0  0  0  0  0  0  0  0
    0.2683    0.1092   -0.6312 C   0  0  2  0  0  0  0  0  0  0  0  0
    1.5702   -0.0018   -0.0114 C   0  0  0  0  0  0  0  0  0  0  0  0
    1.7050   -0.4716    1.3860 C   0  0  0  0  0  0  0  0  0  0  0  0
    1.1969   -1.7596    1.5902 O   0  0  0  0  0  0  0  0  0  0  0  0
    2.3013    1.3295   -0.1217 C   0  0  0  0  0  0  0  0  0  0  0  0
    2.4821    1.7152   -1.4448 O   0  0  0  0  0  0  0  0  0  0  0  0
   -0.5331   -1.1956   -0.7898 C   0  0  0  0  0  0  0  0  0  0  0  0
   -1.6955   -0.2194   -1.0431 C   0  0  1  0  0  0  0  0  0  0  0  0
   -2.8682   -0.6412   -0.3860 N   0  0  0  0  0  0  0  0  0  0  0  0
   -2.5943   -0.6882    1.0031 C   0  0  0  0  0  0  0  0  0  0  0  0
   -1.5459    0.4128    1.1924 C   0  0  0  0  0  0  0  0  0  0  0  0
   -0.9233    0.7011   -0.0724 C   0  0  1  0  0  0  0  0  0  0  0  0
   -0.1457    1.3981   -2.2333 H   0  0  0  0  0  0  0  0  0  0  0  0
    0.4983   -0.1590   -2.6955 H   0  0  0  0  0  0  0  0  0  0  0  0
    2.1979   -0.7077   -0.6419 H   0  0  0  0  0  0  0  0  0  0  0  0
    2.8218   -0.6065    1.5579 H   0  0  0  0  0  0  0  0  0  0  0  0
    1.4180    0.2528    2.1556 H   0  0  0  0  0  0  0  0  0  0  0  0
    1.3578   -2.0124    2.5164 H   0  0  0  0  0  0  0  0  0  0  0  0
    3.3150    1.2121    0.3158 H   0  0  0  0  0  0  0  0  0  0  0  0
    1.7959    2.1305    0.4504 H   0  0  0  0  0  0  0  0  0  0  0  0
    3.1751    1.1672   -1.8894 H   0  0  0  0  0  0  0  0  0  0  0  0
   -0.2472   -1.7706   -1.6877 H   0  0  0  0  0  0  0  0  0  0  0  0
   -0.6177   -1.7874    0.1155 H   0  0  0  0  0  0  0  0  0  0  0  0
   -1.7425    0.1405   -2.0615 H   0  0  0  0  0  0  0  0  0  0  0  0
   -3.7437   -0.1981   -0.6745 H   0  0  0  0  0  0  0  0  0  0  0  0
   -3.5218   -0.4791    1.5684 H   0  0  0  0  0  0  0  0  0  0  0  0
   -2.2172   -1.6605    1.3741 H   0  0  0  0  0  0  0  0  0  0  0  0
   -2.1503    1.3052    1.5432 H   0  0  0  0  0  0  0  0  0  0  0  0
   -0.9579    0.1114    2.0513 H   0  0  0  0  0  0  0  0  0  0  0  0
   -1.0579    1.7702   -0.4177 H   0  0  0  0  0  0  0  0  0  0  0  0
  2  1  1  6
  2  3  1  0
  3  4  1  0
  4  5  1  0
  3  6  1  0
  6  7  1  0
  2  8  1  0
  8  9  1  0
  9 10  1  0
 10 11  1  0
 11 12  1  0
 12 13  1  0
 13  2  1  0
 13  9  1  0
  1 14  1  0
  1 15  1  0
  3 16  1  0
  4 17  1  0
  4 18  1  0
  5 19  1  0
  6 20  1  0
  6 21  1  0
  7 22  1  0
  8 23  1  0
  8 24  1  0
  9 25  1  6
 10 26  1  0
 11 27  1  0
 11 28  1  0
 12 29  1  0
 12 30  1  0
 13 31  1  6
M  END
$$$$

     RDKit          3D

 31 32  0  0  0  0  0  0  0  0999 V2000
   -0.6469    1.8257    0.6208 N   0  0  0  0  0  0  0  0  0  0  0  0
   -0.2968    0.4630    0.1689 C   0  0  2  0  0  0  0  0  0  0  0  0
   -1.5044   -0.2899   -0.0909 C   0  0  0  0  0  0  0  0  0  0  0  0
   -1.4279   -1.6871   -0.5590 C   0  0  0  0  0  0  0  0  0  0  0  0
   -2.7666   -2.1386   -0.7153 O   0  0  0  0  0  0  0  0  0  0  0  0
   -2.3404    0.4957   -1.1124 C   0  0  0  0  0  0  0  0  0  0  0  0
   -2.6377    1.7318   -0.5658 O   0  0  0  0  0  0  0  0  0  0  0  0
    0.6797   -0.0957    1.2142 C   0  0  0  0  0  0  0  0  0  0  0  0
    1.7115    0.7832    0.4871 C   0  0  1  0  0  0  0  0  0  0  0  0
    2.9756    0.1940    0.2521 N   0  0  0  0  0  0  0  0  0  0  0  0
    2.9646   -0.4465   -1.0426 C   0  0  0  0  0  0  0  0  0  0  0  0
    1.4683   -0.6897   -1.3043 C   0  0  0  0  0  0  0  0  0  0  0  0
    0.8382    0.5292   -0.7571 C   0  0  1  0  0  0  0  0  0  0  0  0
   -0.1352    2.5488    0.1076 H   0  0  0  0  0  0  0  0  0  0  0  0
   -0.5213    1.9440    1.6293 H   0  0  0  0  0  0  0  0  0  0  0  0
   -2.1454   -0.2844    0.8401 H   0  0  0  0  0  0  0  0  0  0  0  0
   -0.9933   -2.3894    0.1833 H   0  0  0  0  0  0  0  0  0  0  0  0
   -1.0028   -1.8126   -1.5763 H   0  0  0  0  0  0  0  0  0  0  0  0
   -3.2124   -1.8481    0.1406 H   0  0  0  0  0  0  0  0  0  0  0  0
   -1.7560    0.6026   -2.0461 H   0  0  0  0  0  0  0  0  0  0  0  0
   -3.2692   -0.0492   -1.3476 H   0  0  0  0  0  0  0  0  0  0  0  0
   -2.6318    2.4304   -1.2643 H   0  0  0  0  0  0  0  0  0  0  0  0
    0.8551   -1.1678    1.1402 H   0  0  0  0  0  0  0  0  0  0  0  0
    0.4310    0.2667    2.2264 H   0  0  0  0  0  0  0  0  0  0  0  0
    1.6660    1.8153    0.8546 H   0  0  0  0  0  0  0  0  0  0  0  0
    3.2178   -0.4853    1.0232 H   0  0  0  0  0  0  0  0  0  0  0  0
    3.4358    0.1256   -1.8373 H   0  0  0  0  0  0  0  0  0  0  0  0
    3.5083   -1.4094   -0.9336 H   0  0  0  0  0  0  0  0  0  0  0  0
    1.2474   -1.6309   -0.8019 H   0  0  0  0  0  0  0  0  0  0  0  0
    1.3605   -0.7212   -2.4030 H   0  0  0  0  0  0  0  0  0  0  0  0
    0.9278    1.3897   -1.4316 H   0  0  0  0  0  0  0  0  0  0  0  0
  2  1  1  1
  2  3  1  0
  3  4  1  0
  4  5  1  0
  3  6  1  0
  6  7  1  0
  2  8  1  0
  8  9  1  0
  9 10  1  0
 10 11  1  0
 11 12  1  0
 12 13  1  0
 13  2  1  0
 13  9  1  0
  1 14  1  0
  1 15  1  0
  3 16  1  0
  4 17  1  0
  4 18  1  0
  5 19  1  0
  6 20  1  0
  6 21  1  0
  7 22  1  0
  8 23  1  0
  8 24  1  0
  9 25  1  1
 10 26  1  0
 11 27  1  0
 11 28  1  0
 12 29  1  0
 12 30  1  0
 13 31  1  6
M  END
$$$$
