
     RDKit          3D

 23 24  0  0  0  0  0  0  0  0999 V2000
   -2.4302    2.1320   -0.0726 O   0  0  0  0  0  0  0  0  0  0  0  0
   -1.9071    1.0451   -0.7701 C   0  0  0  0  0  0  0  0  0  0  0  0
   -2.2897   -0.2553   -0.1086 C   0  0  1  0  0  0  0  0  0  0  0  0
   -1.7794   -1.5309   -0.7735 C   0  0  0  0  0  0  0  0  0  0  0  0
   -1.3359   -1.1062    0.5928 C   0  0  1  0  0  0  0  0  0  0  0  0
    0.1028   -0.7035    0.8103 C   0  0  0  0  0  0  0  0  0  0  0  0
    0.7940   -0.4837   -0.4519 N   0  0  0  0  0  0  0  0  0  0  0  0
    1.9822    0.0174   -0.3936 C   0  0  0  0  0  0  0  0  0  0  0  0
    2.7764    0.2912   -1.4579 N   0  0  0  0  0  0  0  0  0  0  0  0
    3.9210    0.7951   -1.0197 N   0  0  0  0  0  0  0  0  0  0  0  0
    3.8884    0.8534    0.2824 N   0  0  0  0  0  0  0  0  0  0  0  0
    2.7049    0.3796    0.6813 N   0  0  0  0  0  0  0  0  0  0  0  0
   -2.4864    1.8703    0.8839 H   0  0  0  0  0  0  0  0  0  0  0  0
   -0.8323    1.2031   -0.8644 H   0  0  0  0  0  0  0  0  0  0  0  0
   -2.3280    1.0657   -1.8086 H   0  0  0  0  0  0  0  0  0  0  0  0
   -3.3695   -0.2844    0.1967 H   0  0  0  0  0  0  0  0  0  0  0  0
   -2.4790   -2.3795   -0.8904 H   0  0  0  0  0  0  0  0  0  0  0  0
   -1.0418   -1.3798   -1.6111 H   0  0  0  0  0  0  0  0  0  0  0  0
   -1.7382   -1.7331    1.4180 H   0  0  0  0  0  0  0  0  0  0  0  0
    0.6726   -1.4961    1.3371 H   0  0  0  0  0  0  0  0  0  0  0  0
    0.2027    0.2161    1.4025 H   0  0  0  0  0  0  0  0  0  0  0  0
    4.6151    1.1956    0.9631 H   0  0  0  0  0  0  0  0  0  0  0  0
    2.3573    0.2878    1.6544 H   0  0  0  0  0  0  0  0  0  0  0  0
  1  2  1  0
  2  3  1  0
  3  4  1  0
  4  5  1  0
  5  6  1  0
  6  7  1  0
  7  8  2  3
  8  9  1  0
  9 10  2  0
 10 11  1  0
 11 12  1  0
  5  3  1  0
 12  8  1  0
  1 13  1  0
  2 14  1  0
  2 15  1  0
  3 16  1  1
  4 17  1  0
  4 18  1  0
  5 19  1  1
  6 20  1  0
  6 21  1  0
 11 22  1  0
 12 23  1  0
M  END
$$$$

     RDKit          3D

 23 24  0  0  0  0  0  0  0  0999 V2000
   -3.9042    0.4315   -0.2451 O   0  0  0  0  0  0  0  0  0  0  0  0
   -2.6349    0.7533   -0.7574 C   0  0  0  0  0  0  0  0  0  0  0  0
   -1.6632    0.6650    0.3871 C   0  0  1  0  0  0  0  0  0  0  0  0
   -1.6153   -0.7354    1.0124 C   0  0  0  0  0  0  0  0  0  0  0  0
   -0.4393   -0.1389    0.3312 C   0  0  1  0  0  0  0  0  0  0  0  0
    0.0733   -0.7860   -0.9104 C   0  0  0  0  0  0  0  0  0  0  0  0
    1.2970   -1.4926   -0.5829 N   0  0  0  0  0  0  0  0  0  0  0  0
    2.3970   -0.8893   -0.3047 C   0  0  0  0  0  0  0  0  0  0  0  0
    3.5391   -1.5304    0.0007 N   0  0  0  0  0  0  0  0  0  0  0  0
    4.4749   -0.6126    0.2321 N   0  0  0  0  0  0  0  0  0  0  0  0
    3.9626    0.5970    0.0830 N   0  0  0  0  0  0  0  0  0  0  0  0
    2.6845    0.4228   -0.2472 N   0  0  0  0  0  0  0  0  0  0  0  0
   -4.1024    0.9587    0.5864 H   0  0  0  0  0  0  0  0  0  0  0  0
   -2.4175   -0.0106   -1.5367 H   0  0  0  0  0  0  0  0  0  0  0  0
   -2.7233    1.7698   -1.1715 H   0  0  0  0  0  0  0  0  0  0  0  0
   -1.7036    1.5364    1.0728 H   0  0  0  0  0  0  0  0  0  0  0  0
   -2.1131   -1.5619    0.5075 H   0  0  0  0  0  0  0  0  0  0  0  0
   -1.6875   -0.7337    2.1299 H   0  0  0  0  0  0  0  0  0  0  0  0
    0.3823    0.1900    1.0334 H   0  0  0  0  0  0  0  0  0  0  0  0
    0.3556    0.0002   -1.6527 H   0  0  0  0  0  0  0  0  0  0  0  0
   -0.6415   -1.5166   -1.3429 H   0  0  0  0  0  0  0  0  0  0  0  0
    4.4794    1.4907    0.2057 H   0  0  0  0  0  0  0  0  0  0  0  0
    1.9998    1.1926   -0.4354 H   0  0  0  0  0  0  0  0  0  0  0  0
  1  2  1  0
  2  3  1  0
  3  4  1  0
  4  5  1  0
  5  6  1  0
  6  7  1  0
  7  8  2  3
  8  9  1  0
  9 10  2  0
 10 11  1  0
 11 12  1  0
  5  3  1  0
 12  8  1  0
  1 13  1  0
  2 14  1  0
  2 15  1  0
  3 16  1  1
  4 17  1  0
  4 18  1  0
  5 19  1  1
  6 20  1  0
  6 21  1  0
 11 22  1  0
 12 23  1  0
M  END
$$$$

     RDKit          3D

 23 24  0  0  0  0  0  0  0  0999 V2000
   -3.5303   -1.7809   -0.1065 O   0  0  0  0  0  0  0  0  0  0  0  0
   -2.9288   -0.6316    0.4120 C   0  0  0  0  0  0  0  0  0  0  0  0
   -2.4347    0.2577   -0.6964 C   0  0  1  0  0  0  0  0  0  0  0  0
   -1.7663    1.5315   -0.2097 C   0  0  0  0  0  0  0  0  0  0  0  0
   -1.0158    0.4517   -0.9863 C   0  0  1  0  0  0  0  0  0  0  0  0
    0.0703   -0.3034   -0.2412 C   0  0  0  0  0  0  0  0  0  0  0  0
    1.3308    0.1104   -0.7572 N   0  0  0  0  0  0  0  0  0  0  0  0
    2.4651   -0.0880   -0.2278 C   0  0  0  0  0  0  0  0  0  0  0  0
    2.7162   -0.7221    0.9170 N   0  0  0  0  0  0  0  0  0  0  0  0
    4.0412   -0.7248    1.1364 N   0  0  0  0  0  0  0  0  0  0  0  0
    4.6105   -0.0865    0.1175 N   0  0  0  0  0  0  0  0  0  0  0  0
    3.6461    0.3006   -0.7129 N   0  0  0  0  0  0  0  0  0  0  0  0
   -3.1083   -2.0599   -0.9750 H   0  0  0  0  0  0  0  0  0  0  0  0
   -3.7590   -0.0696    0.9303 H   0  0  0  0  0  0  0  0  0  0  0  0
   -2.1726   -0.8540    1.1718 H   0  0  0  0  0  0  0  0  0  0  0  0
   -3.1715    0.3752   -1.5237 H   0  0  0  0  0  0  0  0  0  0  0  0
   -1.5491    1.6328    0.8787 H   0  0  0  0  0  0  0  0  0  0  0  0
   -2.0508    2.4488   -0.7314 H   0  0  0  0  0  0  0  0  0  0  0  0
   -0.7682    0.7625   -2.0385 H   0  0  0  0  0  0  0  0  0  0  0  0
    0.0219   -0.0658    0.8351 H   0  0  0  0  0  0  0  0  0  0  0  0
   -0.1373   -1.3839   -0.3661 H   0  0  0  0  0  0  0  0  0  0  0  0
    5.6426    0.0788   -0.0029 H   0  0  0  0  0  0  0  0  0  0  0  0
    3.8480    0.8204   -1.5852 H   0  0  0  0  0  0  0  0  0  0  0  0
  1  2  1  0
  2  3  1  0
  3  4  1  0
  4  5  1  0
  5  6  1  0
  6  7  1  0
  7  8  2  3
  8  9  1  0
  9 10  2  0
 10 11  1  0
 11 12  1  0
  5  3  1  0
 12  8  1  0
  1 13  1  0
  2 14  1  0
  2 15  1  0
  3 16  1  6
  4 17  1  0
  4 18  1  0
  5 19  1  6
  6 20  1  0
  6 21  1  0
 11 22  1  0
 12 23  1  0
M  END
$$$$

     RDKit          3D

 23 24  0  0  0  0  0  0  0  0999 V2000
   -3.1389   -0.8380    1.5441 O   0  0  0  0  0  0  0  0  0  0  0  0
   -2.3929    0.1064    0.8442 C   0  0  0  0  0  0  0  0  0  0  0  0
   -2.2539   -0.2624   -0.6162 C   0  0  1  0  0  0  0  0  0  0  0  0
   -1.4934    0.6155   -1.5366 C   0  0  0  0  0  0  0  0  0  0  0  0
   -0.9772   -0.7654   -1.1580 C   0  0  1  0  0  0  0  0  0  0  0  0
    0.2936   -0.7538   -0.3772 C   0  0  0  0  0  0  0  0  0  0  0  0
    0.6983    0.5770    0.0287 N   0  0  0  0  0  0  0  0  0  0  0  0
    1.9434    0.7517    0.3207 C   0  0  0  0  0  0  0  0  0  0  0  0
    2.5502    1.8990    0.7222 N   0  0  0  0  0  0  0  0  0  0  0  0
    3.8338    1.6939    0.9293 N   0  0  0  0  0  0  0  0  0  0  0  0
    4.0816    0.4184    0.6677 N   0  0  0  0  0  0  0  0  0  0  0  0
    2.9533   -0.1553    0.3016 N   0  0  0  0  0  0  0  0  0  0  0  0
   -4.1049   -0.7208    1.4566 H   0  0  0  0  0  0  0  0  0  0  0  0
   -1.3698    0.1708    1.2850 H   0  0  0  0  0  0  0  0  0  0  0  0
   -2.9439    1.0643    0.8945 H   0  0  0  0  0  0  0  0  0  0  0  0
   -3.1766   -0.7049   -1.0449 H   0  0  0  0  0  0  0  0  0  0  0  0
   -1.7660    0.7128   -2.6042 H   0  0  0  0  0  0  0  0  0  0  0  0
   -0.9827    1.5036   -1.1196 H   0  0  0  0  0  0  0  0  0  0  0  0
   -1.0291   -1.5784   -1.9258 H   0  0  0  0  0  0  0  0  0  0  0  0
    0.2733   -1.3751    0.5291 H   0  0  0  0  0  0  0  0  0  0  0  0
    1.1073   -1.1377   -1.0267 H   0  0  0  0  0  0  0  0  0  0  0  0
    5.0229   -0.0674    0.7377 H   0  0  0  0  0  0  0  0  0  0  0  0
    2.8717   -1.1542    0.0416 H   0  0  0  0  0  0  0  0  0  0  0  0
  1  2  1  0
  2  3  1  0
  3  4  1  0
  4  5  1  0
  5  6  1  0
  6  7  1  0
  7  8  2  3
  8  9  1  0
  9 10  2  0
 10 11  1  0
 11 12  1  0
  5  3  1  0
 12  8  1  0
  1 13  1  0
  2 14  1  0
  2 15  1  0
  3 16  1  6
  4 17  1  0
  4 18  1  0
  5 19  1  6
  6 20  1  0
  6 21  1  0
 11 22  1  0
 12 23  1  0
M  END
$$$$

     RDKit          3D

 23 24  0  0  0  0  0  0  0  0999 V2000
   -1.7826    1.4398    0.8171 O   0  0  0  0  0  0  0  0  0  0  0  0
   -2.8461    0.6222    0.4828 C   0  0  0  0  0  0  0  0  0  0  0  0
   -2.4305   -0.6940   -0.0823 C   0  0  1  0  0  0  0  0  0  0  0  0
   -1.6040   -0.5849   -1.3576 C   0  0  0  0  0  0  0  0  0  0  0  0
   -1.0588   -1.1899   -0.1057 C   0  0  1  0  0  0  0  0  0  0  0  0
    0.0888   -0.4702    0.5661 C   0  0  0  0  0  0  0  0  0  0  0  0
    1.3311   -1.2105    0.3683 N   0  0  0  0  0  0  0  0  0  0  0  0
    2.4728   -0.6202    0.2871 C   0  0  0  0  0  0  0  0  0  0  0  0
    3.6265   -1.2798    0.1056 N   0  0  0  0  0  0  0  0  0  0  0  0
    4.6032   -0.3716    0.0680 N   0  0  0  0  0  0  0  0  0  0  0  0
    4.0961    0.8300    0.2200 N   0  0  0  0  0  0  0  0  0  0  0  0
    2.7714    0.6841    0.3569 N   0  0  0  0  0  0  0  0  0  0  0  0
   -1.8422    2.3425    0.4186 H   0  0  0  0  0  0  0  0  0  0  0  0
   -3.4082    1.1642   -0.3335 H   0  0  0  0  0  0  0  0  0  0  0  0
   -3.5843    0.5311    1.3118 H   0  0  0  0  0  0  0  0  0  0  0  0
   -3.2539   -1.4553   -0.0733 H   0  0  0  0  0  0  0  0  0  0  0  0
   -1.1901    0.3940   -1.6354 H   0  0  0  0  0  0  0  0  0  0  0  0
   -1.9755   -1.1840   -2.1878 H   0  0  0  0  0  0  0  0  0  0  0  0
   -0.9092   -2.2925   -0.1559 H   0  0  0  0  0  0  0  0  0  0  0  0
    0.2480    0.5419    0.0966 H   0  0  0  0  0  0  0  0  0  0  0  0
   -0.0961   -0.3723    1.6358 H   0  0  0  0  0  0  0  0  0  0  0  0
    4.6544    1.7136    0.2274 H   0  0  0  0  0  0  0  0  0  0  0  0
    2.0892    1.4619    0.4950 H   0  0  0  0  0  0  0  0  0  0  0  0
  1  2  1  0
  2  3  1  0
  3  4  1  0
  4  5  1  0
  5  6  1  0
  6  7  1  0
  7  8  2  3
  8  9  1  0
  9 10  2  0
 10 11  1  0
 11 12  1  0
  5  3  1  0
 12  8  1  0
  1 13  1  0
  2 14  1  0
  2 15  1  0
  3 16  1  6
  4 17  1  0
  4 18  1  0
  5 19  1  6
  6 20  1  0
  6 21  1  0
 11 22  1  0
 12 23  1  0
M  END
$$$$

     RDKit          3D

 23 24  0  0  0  0  0  0  0  0999 V2000
   -2.7330    0.3916   -2.1996 O   0  0  0  0  0  0  0  0  0  0  0  0
   -2.6264   -0.3921   -1.0601 C   0  0  0  0  0  0  0  0  0  0  0  0
   -2.1873    0.4282    0.1218 C   0  0  1  0  0  0  0  0  0  0  0  0
   -2.0521   -0.3781    1.4042 C   0  0  0  0  0  0  0  0  0  0  0  0
   -0.8627    0.2359    0.7531 C   0  0  1  0  0  0  0  0  0  0  0  0
    0.0991   -0.6510    0.0141 C   0  0  0  0  0  0  0  0  0  0  0  0
    1.3587   -0.7904    0.6842 N   0  0  0  0  0  0  0  0  0  0  0  0
    2.3956   -0.0923    0.3514 C   0  0  0  0  0  0  0  0  0  0  0  0
    2.4655    0.8307   -0.6239 N   0  0  0  0  0  0  0  0  0  0  0  0
    3.6969    1.3265   -0.6565 N   0  0  0  0  0  0  0  0  0  0  0  0
    4.4179    0.7251    0.2945 N   0  0  0  0  0  0  0  0  0  0  0  0
    3.6158   -0.1424    0.9080 N   0  0  0  0  0  0  0  0  0  0  0  0
   -3.3877    1.1075   -2.0106 H   0  0  0  0  0  0  0  0  0  0  0  0
   -2.0238   -1.2975   -1.2169 H   0  0  0  0  0  0  0  0  0  0  0  0
   -3.6641   -0.7630   -0.8118 H   0  0  0  0  0  0  0  0  0  0  0  0
   -2.6395    1.4317    0.1635 H   0  0  0  0  0  0  0  0  0  0  0  0
   -2.1899   -1.4624    1.3753 H   0  0  0  0  0  0  0  0  0  0  0  0
   -2.5427    0.1092    2.2701 H   0  0  0  0  0  0  0  0  0  0  0  0
   -0.4301    1.1028    1.2862 H   0  0  0  0  0  0  0  0  0  0  0  0
    0.2934   -0.1871   -0.9933 H   0  0  0  0  0  0  0  0  0  0  0  0
   -0.3146   -1.6641   -0.1655 H   0  0  0  0  0  0  0  0  0  0  0  0
    5.4218    0.8972    0.5205 H   0  0  0  0  0  0  0  0  0  0  0  0
    3.8894   -0.7660    1.6992 H   0  0  0  0  0  0  0  0  0  0  0  0
  1  2  1  0
  2  3  1  0
  3  4  1  0
  4  5  1  0
  5  6  1  0
  6  7  1  0
  7  8  2  3
  8  9  1  0
  9 10  2  0
 10 11  1  0
 11 12  1  0
  5  3  1  0
 12  8  1  0
  1 13  1  0
  2 14  1  0
  2 15  1  0
  3 16  1  1
  4 17  1  0
  4 18  1  0
  5 19  1  1
  6 20  1  0
  6 21  1  0
 11 22  1  0
 12 23  1  0
M  END
$$$$

     RDKit          3D

 23 24  0  0  0  0  0  0  0  0999 V2000
   -1.9012    1.0178   -1.2734 O   0  0  0  0  0  0  0  0  0  0  0  0
   -2.5934    1.0682   -0.0846 C   0  0  0  0  0  0  0  0  0  0  0  0
   -2.0647    0.0914    0.9383 C   0  0  1  0  0  0  0  0  0  0  0  0
   -2.0818   -1.3527    0.6067 C   0  0  0  0  0  0  0  0  0  0  0  0
   -0.7767   -0.5934    0.7679 C   0  0  1  0  0  0  0  0  0  0  0  0
    0.0333   -0.5019   -0.4929 C   0  0  0  0  0  0  0  0  0  0  0  0
    1.2420   -1.2887   -0.3340 N   0  0  0  0  0  0  0  0  0  0  0  0
    2.3716   -0.7504   -0.0369 C   0  0  0  0  0  0  0  0  0  0  0  0
    3.5218   -1.4072    0.1249 N   0  0  0  0  0  0  0  0  0  0  0  0
    4.5019   -0.5655    0.4264 N   0  0  0  0  0  0  0  0  0  0  0  0
    3.9599    0.6303    0.4536 N   0  0  0  0  0  0  0  0  0  0  0  0
    2.6549    0.5448    0.1730 N   0  0  0  0  0  0  0  0  0  0  0  0
   -1.5207    1.8809   -1.5372 H   0  0  0  0  0  0  0  0  0  0  0  0
   -2.5547    2.1099    0.2943 H   0  0  0  0  0  0  0  0  0  0  0  0
   -3.6827    0.8563   -0.2641 H   0  0  0  0  0  0  0  0  0  0  0  0
   -2.3772    0.3361    1.9812 H   0  0  0  0  0  0  0  0  0  0  0  0
   -2.4223   -1.6307   -0.4081 H   0  0  0  0  0  0  0  0  0  0  0  0
   -2.3414   -2.0874    1.3833 H   0  0  0  0  0  0  0  0  0  0  0  0
   -0.1759   -0.7994    1.6804 H   0  0  0  0  0  0  0  0  0  0  0  0
   -0.5004   -0.9386   -1.3744 H   0  0  0  0  0  0  0  0  0  0  0  0
    0.3263    0.5092   -0.7750 H   0  0  0  0  0  0  0  0  0  0  0  0
    4.4113    1.5523    0.6548 H   0  0  0  0  0  0  0  0  0  0  0  0
    1.9702    1.3186    0.1213 H   0  0  0  0  0  0  0  0  0  0  0  0
  1  2  1  0
  2  3  1  0
  3  4  1  0
  4  5  1  0
  5  6  1  0
  6  7  1  0
  7  8  2  3
  8  9  1  0
  9 10  2  0
 10 11  1  0
 11 12  1  0
  5  3  1  0
 12  8  1  0
  1 13  1  0
  2 14  1  0
  2 15  1  0
  3 16  1  1
  4 17  1  0
  4 18  1  0
  5 19  1  1
  6 20  1  0
  6 21  1  0
 11 22  1  0
 12 23  1  0
M  END
$$$$

     RDKit          3D

 23 24  0  0  0  0  0  0  0  0999 V2000
   -3.8658   -0.7507   -0.7136 O   0  0  0  0  0  0  0  0  0  0  0  0
   -3.0191   -0.0811    0.1681 C   0  0  0  0  0  0  0  0  0  0  0  0
   -1.8635    0.5220   -0.5844 C   0  0  1  0  0  0  0  0  0  0  0  0
   -0.8218    1.2895    0.1467 C   0  0  0  0  0  0  0  0  0  0  0  0
   -0.5091   -0.0364   -0.5278 C   0  0  1  0  0  0  0  0  0  0  0  0
   -0.1269   -1.1376    0.4249 C   0  0  0  0  0  0  0  0  0  0  0  0
    1.2722   -1.4781    0.2489 N   0  0  0  0  0  0  0  0  0  0  0  0
    2.1774   -0.5617    0.0813 C   0  0  0  0  0  0  0  0  0  0  0  0
    1.9322    0.7456    0.0533 N   0  0  0  0  0  0  0  0  0  0  0  0
    3.1186    1.3399   -0.1376 N   0  0  0  0  0  0  0  0  0  0  0  0
    4.0640    0.4372   -0.2249 N   0  0  0  0  0  0  0  0  0  0  0  0
    3.4947   -0.7551   -0.0905 N   0  0  0  0  0  0  0  0  0  0  0  0
   -4.3104   -0.0338   -1.2626 H   0  0  0  0  0  0  0  0  0  0  0  0
   -2.7139   -0.7988    0.9411 H   0  0  0  0  0  0  0  0  0  0  0  0
   -3.6060    0.7237    0.6426 H   0  0  0  0  0  0  0  0  0  0  0  0
   -2.1711    0.9723   -1.5610 H   0  0  0  0  0  0  0  0  0  0  0  0
   -0.4155    2.2252   -0.3185 H   0  0  0  0  0  0  0  0  0  0  0  0
   -0.8420    1.3230    1.2400 H   0  0  0  0  0  0  0  0  0  0  0  0
    0.1594    0.0440   -1.4107 H   0  0  0  0  0  0  0  0  0  0  0  0
   -0.7036   -2.0643    0.2728 H   0  0  0  0  0  0  0  0  0  0  0  0
   -0.2529   -0.8370    1.4954 H   0  0  0  0  0  0  0  0  0  0  0  0
    5.0641    0.6081   -0.3703 H   0  0  0  0  0  0  0  0  0  0  0  0
    3.9391   -1.6959   -0.1071 H   0  0  0  0  0  0  0  0  0  0  0  0
  1  2  1  0
  2  3  1  0
  3  4  1  0
  4  5  1  0
  5  6  1  0
  6  7  1  0
  7  8  2  3
  8  9  1  0
  9 10  2  0
 10 11  1  0
 11 12  1  0
  5  3  1  0
 12  8  1  0
  1 13  1  0
  2 14  1  0
  2 15  1  0
  3 16  1  6
  4 17  1  0
  4 18  1  0
  5 19  1  6
  6 20  1  0
  6 21  1  0
 11 22  1  0
 12 23  1  0
M  END
$$$$
