
     RDKit          3D

 30 30  0  0  0  0  0  0  0  0999 V2000
    1.7474   -1.5871   -0.3193 N   0  0  0  0  0  0  0  0  0  0  0  0
    1.2047   -0.2249   -0.3713 C   0  0  1  0  0  0  0  0  0  0  0  0
   -0.1859   -0.2897    0.1799 C   0  0  2  0  0  0  0  0  0  0  0  0
   -1.0045   -1.2340   -0.6725 C   0  0  0  0  0  0  0  0  0  0  0  0
   -2.3380   -0.8042   -0.8989 N   0  0  0  0  0  0  0  0  0  0  0  0
   -3.1367   -0.5762    0.2407 C   0  0  0  0  0  0  0  0  0  0  0  0
   -3.0813    0.8154    0.7947 C   0  0  0  0  0  0  0  0  0  0  0  0
   -1.8112    1.0225    1.3091 O   0  0  0  0  0  0  0  0  0  0  0  0
   -0.8945    1.0167    0.2516 C   0  0  0  0  0  0  0  0  0  0  0  0
    2.1397    0.6511    0.3759 C   0  0  1  0  0  0  0  0  0  0  0  0
    2.2353    0.2186    1.6846 F   0  0  0  0  0  0  0  0  0  0  0  0
    3.5183    0.5098   -0.2414 C   0  0  0  0  0  0  0  0  0  0  0  0
    4.3714    1.3434    0.4814 O   0  0  0  0  0  0  0  0  0  0  0  0
    1.0249   -2.2812   -0.6065 H   0  0  0  0  0  0  0  0  0  0  0  0
    1.9772   -1.7971    0.6836 H   0  0  0  0  0  0  0  0  0  0  0  0
    1.1882    0.0379   -1.4556 H   0  0  0  0  0  0  0  0  0  0  0  0
   -0.1420   -0.7132    1.2076 H   0  0  0  0  0  0  0  0  0  0  0  0
   -1.0484   -2.2427   -0.1784 H   0  0  0  0  0  0  0  0  0  0  0  0
   -0.5096   -1.3682   -1.6616 H   0  0  0  0  0  0  0  0  0  0  0  0
   -2.5127   -0.2391   -1.7254 H   0  0  0  0  0  0  0  0  0  0  0  0
   -4.2163   -0.7695   -0.0293 H   0  0  0  0  0  0  0  0  0  0  0  0
   -2.8545   -1.2763    1.0386 H   0  0  0  0  0  0  0  0  0  0  0  0
   -3.2904    1.6020    0.0608 H   0  0  0  0  0  0  0  0  0  0  0  0
   -3.7846    0.8606    1.6628 H   0  0  0  0  0  0  0  0  0  0  0  0
   -0.2501    1.8915    0.3968 H   0  0  0  0  0  0  0  0  0  0  0  0
   -1.4545    1.1871   -0.7145 H   0  0  0  0  0  0  0  0  0  0  0  0
    1.9001    1.7327    0.3087 H   0  0  0  0  0  0  0  0  0  0  0  0
    3.4729    0.9304   -1.2695 H   0  0  0  0  0  0  0  0  0  0  0  0
    3.8877   -0.5300   -0.2246 H   0  0  0  0  0  0  0  0  0  0  0  0
    3.8476    2.1138    0.7785 H   0  0  0  0  0  0  0  0  0  0  0  0
  1  2  1  0
  2  3  1  0
  3  4  1  0
  4  5  1  0
  5  6  1  0
  6  7  1  0
  7  8  1  0
  8  9  1  0
  2 10  1  0
 10 11  1  0
 10 12  1  0
 12 13  1  0
  9  3  1  0
  1 14  1  0
  1 15  1  0
  2 16  1  6
  3 17  1  1
  4 18  1  0
  4 19  1  0
  5 20  1  0
  6 21  1  0
  6 22  1  0
  7 23  1  0
  7 24  1  0
  9 25  1  0
  9 26  1  0
 10 27  1  1
 12 28  1  0
 12 29  1  0
 13 30  1  0
M  END
$$$$

     RDKit          3D

 30 30  0  0  0  0  0  0  0  0999 V2000
    0.8006   -0.4814   -2.2826 N   0  0  0  0  0  0  0  0  0  0  0  0
    0.7363    0.1570   -0.9093 C   0  0  1  0  0  0  0  0  0  0  0  0
    0.3281   -0.9717   -0.0394 C   0  0  2  0  0  0  0  0  0  0  0  0
   -1.0237   -1.5199   -0.5770 C   0  0  0  0  0  0  0  0  0  0  0  0
   -1.9194   -0.4490   -0.7506 N   0  0  0  0  0  0  0  0  0  0  0  0
   -2.8198   -0.1452    0.3183 C   0  0  0  0  0  0  0  0  0  0  0  0
   -2.2196   -0.3071    1.6848 C   0  0  0  0  0  0  0  0  0  0  0  0
   -1.2037   -1.2478    1.7224 O   0  0  0  0  0  0  0  0  0  0  0  0
    0.0361   -0.6383    1.3969 C   0  0  0  0  0  0  0  0  0  0  0  0
    2.0342    0.8062   -0.7738 C   0  0  1  0  0  0  0  0  0  0  0  0
    2.1274    1.7469   -1.8404 F   0  0  0  0  0  0  0  0  0  0  0  0
    2.4878    1.4975    0.4239 C   0  0  0  0  0  0  0  0  0  0  0  0
    2.5980    0.7522    1.5575 O   0  0  0  0  0  0  0  0  0  0  0  0
   -0.1615   -0.5072   -2.6903 H   0  0  0  0  0  0  0  0  0  0  0  0
    1.3280    0.1860   -2.8887 H   0  0  0  0  0  0  0  0  0  0  0  0
   -0.1204    0.8550   -1.0049 H   0  0  0  0  0  0  0  0  0  0  0  0
    1.0121   -1.8452   -0.1037 H   0  0  0  0  0  0  0  0  0  0  0  0
   -1.3973   -2.2485    0.1576 H   0  0  0  0  0  0  0  0  0  0  0  0
   -0.8340   -2.0391   -1.5431 H   0  0  0  0  0  0  0  0  0  0  0  0
   -2.3264   -0.3337   -1.6921 H   0  0  0  0  0  0  0  0  0  0  0  0
   -3.7476   -0.7449    0.2167 H   0  0  0  0  0  0  0  0  0  0  0  0
   -3.1217    0.9184    0.2158 H   0  0  0  0  0  0  0  0  0  0  0  0
   -1.8047    0.6458    2.0792 H   0  0  0  0  0  0  0  0  0  0  0  0
   -3.0111   -0.6234    2.3945 H   0  0  0  0  0  0  0  0  0  0  0  0
   -0.0522    0.4328    1.5729 H   0  0  0  0  0  0  0  0  0  0  0  0
    0.7917   -1.0505    2.0989 H   0  0  0  0  0  0  0  0  0  0  0  0
    2.8856    0.0905   -1.0646 H   0  0  0  0  0  0  0  0  0  0  0  0
    1.9280    2.4239    0.6915 H   0  0  0  0  0  0  0  0  0  0  0  0
    3.5291    1.9034    0.2004 H   0  0  0  0  0  0  0  0  0  0  0  0
    3.1399   -0.0724    1.4293 H   0  0  0  0  0  0  0  0  0  0  0  0
  1  2  1  0
  2  3  1  0
  3  4  1  0
  4  5  1  0
  5  6  1  0
  6  7  1  0
  7  8  1  0
  8  9  1  0
  2 10  1  0
 10 11  1  0
 10 12  1  0
 12 13  1  0
  9  3  1  0
  1 14  1  0
  1 15  1  0
  2 16  1  6
  3 17  1  1
  4 18  1  0
  4 19  1  0
  5 20  1  0
  6 21  1  0
  6 22  1  0
  7 23  1  0
  7 24  1  0
  9 25  1  0
  9 26  1  0
 10 27  1  6
 12 28  1  0
 12 29  1  0
 13 30  1  0
M  END
$$$$

     RDKit          3D

 30 30  0  0  0  0  0  0  0  0999 V2000
    1.6423   -1.8096    0.2725 N   0  0  0  0  0  0  0  0  0  0  0  0
    1.0963   -0.6973   -0.4820 C   0  0  1  0  0  0  0  0  0  0  0  0
    0.0499   -0.0361    0.3268 C   0  0  2  0  0  0  0  0  0  0  0  0
   -1.0377   -1.0557    0.6256 C   0  0  0  0  0  0  0  0  0  0  0  0
   -2.1154   -1.0151   -0.3047 N   0  0  0  0  0  0  0  0  0  0  0  0
   -3.2261   -0.2141    0.0878 C   0  0  0  0  0  0  0  0  0  0  0  0
   -2.8983    1.2470   -0.1891 C   0  0  0  0  0  0  0  0  0  0  0  0
   -1.7020    1.5073    0.4987 O   0  0  0  0  0  0  0  0  0  0  0  0
   -0.5917    1.1524   -0.2963 C   0  0  0  0  0  0  0  0  0  0  0  0
    2.2254    0.1639   -0.9250 C   0  0  1  0  0  0  0  0  0  0  0  0
    1.8335    1.2614   -1.6561 F   0  0  0  0  0  0  0  0  0  0  0  0
    3.1808    0.5254    0.1878 C   0  0  0  0  0  0  0  0  0  0  0  0
    2.5860    1.2134    1.2160 O   0  0  0  0  0  0  0  0  0  0  0  0
    1.4303   -1.7534    1.2908 H   0  0  0  0  0  0  0  0  0  0  0  0
    1.4605   -2.7288   -0.1480 H   0  0  0  0  0  0  0  0  0  0  0  0
    0.6155   -1.1216   -1.4045 H   0  0  0  0  0  0  0  0  0  0  0  0
    0.4482    0.2742    1.3291 H   0  0  0  0  0  0  0  0  0  0  0  0
   -0.5926   -2.0931    0.5696 H   0  0  0  0  0  0  0  0  0  0  0  0
   -1.4392   -0.9660    1.6433 H   0  0  0  0  0  0  0  0  0  0  0  0
   -1.8474   -0.9389   -1.2968 H   0  0  0  0  0  0  0  0  0  0  0  0
   -4.1459   -0.4985   -0.4534 H   0  0  0  0  0  0  0  0  0  0  0  0
   -3.3691   -0.3024    1.1734 H   0  0  0  0  0  0  0  0  0  0  0  0
   -2.8029    1.4423   -1.2685 H   0  0  0  0  0  0  0  0  0  0  0  0
   -3.6802    1.9112    0.2485 H   0  0  0  0  0  0  0  0  0  0  0  0
    0.0533    2.0625   -0.3043 H   0  0  0  0  0  0  0  0  0  0  0  0
   -0.9356    0.8863   -1.3152 H   0  0  0  0  0  0  0  0  0  0  0  0
    2.8387   -0.4621   -1.6420 H   0  0  0  0  0  0  0  0  0  0  0  0
    3.9493    1.2116   -0.2727 H   0  0  0  0  0  0  0  0  0  0  0  0
    3.7463   -0.3724    0.5061 H   0  0  0  0  0  0  0  0  0  0  0  0
    3.2277    1.2059    1.9829 H   0  0  0  0  0  0  0  0  0  0  0  0
  1  2  1  0
  2  3  1  0
  3  4  1  0
  4  5  1  0
  5  6  1  0
  6  7  1  0
  7  8  1  0
  8  9  1  0
  2 10  1  0
 10 11  1  0
 10 12  1  0
 12 13  1  0
  9  3  1  0
  1 14  1  0
  1 15  1  0
  2 16  1  6
  3 17  1  1
  4 18  1  0
  4 19  1  0
  5 20  1  0
  6 21  1  0
  6 22  1  0
  7 23  1  0
  7 24  1  0
  9 25  1  0
  9 26  1  0
 10 27  1  6
 12 28  1  0
 12 29  1  0
 13 30  1  0
M  END
$$$$

     RDKit          3D

 30 30  0  0  0  0  0  0  0  0999 V2000
   -1.7405   -1.1254   -0.9168 N   0  0  0  0  0  0  0  0  0  0  0  0
   -1.0755   -0.3350    0.1205 C   0  0  1  0  0  0  0  0  0  0  0  0
    0.2037    0.2856   -0.4055 C   0  0  2  0  0  0  0  0  0  0  0  0
    1.0947   -0.8345   -0.8400 C   0  0  0  0  0  0  0  0  0  0  0  0
    2.0974   -1.2381    0.0820 N   0  0  0  0  0  0  0  0  0  0  0  0
    3.3042   -0.4556    0.0303 C   0  0  0  0  0  0  0  0  0  0  0  0
    2.9979    0.9146    0.5808 C   0  0  0  0  0  0  0  0  0  0  0  0
    1.8074    0.8916    1.3079 O   0  0  0  0  0  0  0  0  0  0  0  0
    0.7993    1.3187    0.4504 C   0  0  0  0  0  0  0  0  0  0  0  0
   -2.0836    0.6651    0.5925 C   0  0  1  0  0  0  0  0  0  0  0  0
   -2.4612    1.4591   -0.4895 F   0  0  0  0  0  0  0  0  0  0  0  0
   -3.3500   -0.1330    0.9408 C   0  0  0  0  0  0  0  0  0  0  0  0
   -3.8411   -0.8165   -0.1461 O   0  0  0  0  0  0  0  0  0  0  0  0
   -1.4624   -0.8176   -1.8774 H   0  0  0  0  0  0  0  0  0  0  0  0
   -1.4967   -2.1390   -0.8507 H   0  0  0  0  0  0  0  0  0  0  0  0
   -0.8781   -1.0351    0.9589 H   0  0  0  0  0  0  0  0  0  0  0  0
   -0.1118    0.8005   -1.3657 H   0  0  0  0  0  0  0  0  0  0  0  0
    0.4895   -1.7339   -1.0897 H   0  0  0  0  0  0  0  0  0  0  0  0
    1.6268   -0.5854   -1.8067 H   0  0  0  0  0  0  0  0  0  0  0  0
    1.7353   -1.2288    1.0469 H   0  0  0  0  0  0  0  0  0  0  0  0
    3.7271   -0.4295   -0.9935 H   0  0  0  0  0  0  0  0  0  0  0  0
    4.0350   -0.9378    0.7306 H   0  0  0  0  0  0  0  0  0  0  0  0
    3.8040    1.3060    1.2343 H   0  0  0  0  0  0  0  0  0  0  0  0
    2.9345    1.6115   -0.2965 H   0  0  0  0  0  0  0  0  0  0  0  0
    1.2752    2.1610   -0.1402 H   0  0  0  0  0  0  0  0  0  0  0  0
    0.0569    1.8362    1.0919 H   0  0  0  0  0  0  0  0  0  0  0  0
   -1.8343    1.2226    1.4876 H   0  0  0  0  0  0  0  0  0  0  0  0
   -4.1297    0.5269    1.3651 H   0  0  0  0  0  0  0  0  0  0  0  0
   -3.1171   -0.8893    1.7297 H   0  0  0  0  0  0  0  0  0  0  0  0
   -4.4070   -0.2648   -0.7398 H   0  0  0  0  0  0  0  0  0  0  0  0
  1  2  1  0
  2  3  1  0
  3  4  1  0
  4  5  1  0
  5  6  1  0
  6  7  1  0
  7  8  1  0
  8  9  1  0
  2 10  1  0
 10 11  1  0
 10 12  1  0
 12 13  1  0
  9  3  1  0
  1 14  1  0
  1 15  1  0
  2 16  1  1
  3 17  1  6
  4 18  1  0
  4 19  1  0
  5 20  1  0
  6 21  1  0
  6 22  1  0
  7 23  1  0
  7 24  1  0
  9 25  1  0
  9 26  1  0
 10 27  1  1
 12 28  1  0
 12 29  1  0
 13 30  1  0
M  END
$$$$

     RDKit          3D

 30 30  0  0  0  0  0  0  0  0999 V2000
    0.7924   -1.6948   -1.7636 N   0  0  0  0  0  0  0  0  0  0  0  0
    1.0194   -0.4977   -0.8587 C   0  0  1  0  0  0  0  0  0  0  0  0
   -0.2128   -0.4627    0.0097 C   0  0  2  0  0  0  0  0  0  0  0  0
   -1.3921   -0.3376   -0.9315 C   0  0  0  0  0  0  0  0  0  0  0  0
   -2.0015    0.9747   -0.9436 N   0  0  0  0  0  0  0  0  0  0  0  0
   -3.1725    0.8242   -0.0499 C   0  0  0  0  0  0  0  0  0  0  0  0
   -2.5275    0.2961    1.2477 C   0  0  0  0  0  0  0  0  0  0  0  0
   -1.4341    1.0903    1.4374 O   0  0  0  0  0  0  0  0  0  0  0  0
   -0.2074    0.5329    1.0935 C   0  0  0  0  0  0  0  0  0  0  0  0
    2.3248   -0.7217   -0.1757 C   0  0  1  0  0  0  0  0  0  0  0  0
    3.2719   -0.8455   -1.2408 F   0  0  0  0  0  0  0  0  0  0  0  0
    2.8513    0.3529    0.7010 C   0  0  0  0  0  0  0  0  0  0  0  0
    3.0291    1.5476    0.0099 O   0  0  0  0  0  0  0  0  0  0  0  0
    1.5703   -1.6451   -2.4717 H   0  0  0  0  0  0  0  0  0  0  0  0
    1.0253   -2.5025   -1.1430 H   0  0  0  0  0  0  0  0  0  0  0  0
    0.9823    0.3562   -1.5548 H   0  0  0  0  0  0  0  0  0  0  0  0
   -0.3097   -1.4826    0.4895 H   0  0  0  0  0  0  0  0  0  0  0  0
   -2.1559   -1.1392   -0.7466 H   0  0  0  0  0  0  0  0  0  0  0  0
   -1.0419   -0.5258   -1.9642 H   0  0  0  0  0  0  0  0  0  0  0  0
   -1.3090    1.6396   -0.5075 H   0  0  0  0  0  0  0  0  0  0  0  0
   -3.6523    1.7905    0.1300 H   0  0  0  0  0  0  0  0  0  0  0  0
   -3.8145    0.0460   -0.4753 H   0  0  0  0  0  0  0  0  0  0  0  0
   -2.3712   -0.7773    1.2413 H   0  0  0  0  0  0  0  0  0  0  0  0
   -3.2926    0.5154    2.0430 H   0  0  0  0  0  0  0  0  0  0  0  0
    0.1775    0.1052    2.0623 H   0  0  0  0  0  0  0  0  0  0  0  0
    0.4261    1.3927    0.8142 H   0  0  0  0  0  0  0  0  0  0  0  0
    2.2940   -1.7188    0.2978 H   0  0  0  0  0  0  0  0  0  0  0  0
    2.3797    0.5295    1.6570 H   0  0  0  0  0  0  0  0  0  0  0  0
    3.9341    0.0576    0.9921 H   0  0  0  0  0  0  0  0  0  0  0  0
    2.8169    2.2999    0.6005 H   0  0  0  0  0  0  0  0  0  0  0  0
  1  2  1  0
  2  3  1  0
  3  4  1  0
  4  5  1  0
  5  6  1  0
  6  7  1  0
  7  8  1  0
  8  9  1  0
  2 10  1  0
 10 11  1  0
 10 12  1  0
 12 13  1  0
  9  3  1  0
  1 14  1  0
  1 15  1  0
  2 16  1  6
  3 17  1  1
  4 18  1  0
  4 19  1  0
  5 20  1  0
  6 21  1  0
  6 22  1  0
  7 23  1  0
  7 24  1  0
  9 25  1  0
  9 26  1  0
 10 27  1  1
 12 28  1  0
 12 29  1  0
 13 30  1  0
M  END
$$$$

     RDKit          3D

 30 30  0  0  0  0  0  0  0  0999 V2000
   -0.9469    1.1658   -0.7474 N   0  0  0  0  0  0  0  0  0  0  0  0
   -1.0420   -0.2764   -0.7874 C   0  0  1  0  0  0  0  0  0  0  0  0
    0.2279   -0.8945   -0.3042 C   0  0  2  0  0  0  0  0  0  0  0  0
    0.6369   -0.5673    1.0813 C   0  0  0  0  0  0  0  0  0  0  0  0
    2.0694   -0.6794    1.1973 N   0  0  0  0  0  0  0  0  0  0  0  0
    2.8203    0.4176    0.7059 C   0  0  0  0  0  0  0  0  0  0  0  0
    2.0527    1.4514   -0.0426 C   0  0  0  0  0  0  0  0  0  0  0  0
    1.3565    0.9853   -1.1255 O   0  0  0  0  0  0  0  0  0  0  0  0
    1.3362   -0.3940   -1.2410 C   0  0  0  0  0  0  0  0  0  0  0  0
   -2.3002   -0.8205   -0.2314 C   0  0  1  0  0  0  0  0  0  0  0  0
   -2.2926   -2.1820   -0.3121 F   0  0  0  0  0  0  0  0  0  0  0  0
   -2.6875   -0.3714    1.1274 C   0  0  0  0  0  0  0  0  0  0  0  0
   -2.8700    1.0012    1.2374 O   0  0  0  0  0  0  0  0  0  0  0  0
   -1.6902    1.5895   -1.3431 H   0  0  0  0  0  0  0  0  0  0  0  0
   -0.8641    1.5683    0.1846 H   0  0  0  0  0  0  0  0  0  0  0  0
   -1.0700   -0.5156   -1.9000 H   0  0  0  0  0  0  0  0  0  0  0  0
    0.2238   -2.0030   -0.4131 H   0  0  0  0  0  0  0  0  0  0  0  0
    0.2273   -1.3678    1.7658 H   0  0  0  0  0  0  0  0  0  0  0  0
    0.3217    0.4414    1.4112 H   0  0  0  0  0  0  0  0  0  0  0  0
    2.4151   -1.5792    0.8477 H   0  0  0  0  0  0  0  0  0  0  0  0
    3.7006    0.0557    0.0976 H   0  0  0  0  0  0  0  0  0  0  0  0
    3.2958    0.9298    1.5843 H   0  0  0  0  0  0  0  0  0  0  0  0
    1.4392    2.0185    0.6780 H   0  0  0  0  0  0  0  0  0  0  0  0
    2.8076    2.1958   -0.4315 H   0  0  0  0  0  0  0  0  0  0  0  0
    1.0164   -0.6327   -2.2769 H   0  0  0  0  0  0  0  0  0  0  0  0
    2.2901   -0.8861   -1.0650 H   0  0  0  0  0  0  0  0  0  0  0  0
   -3.1355   -0.4886   -0.9223 H   0  0  0  0  0  0  0  0  0  0  0  0
   -3.7081   -0.8182    1.3306 H   0  0  0  0  0  0  0  0  0  0  0  0
   -2.0598   -0.6934    1.9530 H   0  0  0  0  0  0  0  0  0  0  0  0
   -3.5704    1.3498    0.6344 H   0  0  0  0  0  0  0  0  0  0  0  0
  1  2  1  0
  2  3  1  0
  3  4  1  0
  4  5  1  0
  5  6  1  0
  6  7  1  0
  7  8  1  0
  8  9  1  0
  2 10  1  0
 10 11  1  0
 10 12  1  0
 12 13  1  0
  9  3  1  0
  1 14  1  0
  1 15  1  0
  2 16  1  6
  3 17  1  1
  4 18  1  0
  4 19  1  0
  5 20  1  0
  6 21  1  0
  6 22  1  0
  7 23  1  0
  7 24  1  0
  9 25  1  0
  9 26  1  0
 10 27  1  6
 12 28  1  0
 12 29  1  0
 13 30  1  0
M  END
$$$$

     RDKit          3D

 30 30  0  0  0  0  0  0  0  0999 V2000
    1.5001   -0.3872    1.5742 N   0  0  0  0  0  0  0  0  0  0  0  0
    1.1784   -0.2267    0.1749 C   0  0  1  0  0  0  0  0  0  0  0  0
   -0.3386   -0.0894    0.0925 C   0  0  2  0  0  0  0  0  0  0  0  0
   -1.0206   -1.3161    0.6501 C   0  0  0  0  0  0  0  0  0  0  0  0
   -2.2650   -0.9141    1.2350 N   0  0  0  0  0  0  0  0  0  0  0  0
   -2.9916    0.0718    0.4977 C   0  0  0  0  0  0  0  0  0  0  0  0
   -3.0688   -0.1727   -0.9730 C   0  0  0  0  0  0  0  0  0  0  0  0
   -1.9251   -0.6274   -1.5578 O   0  0  0  0  0  0  0  0  0  0  0  0
   -0.7947    0.1015   -1.3197 C   0  0  0  0  0  0  0  0  0  0  0  0
    1.7717    1.0005   -0.4310 C   0  0  1  0  0  0  0  0  0  0  0  0
    1.3428    2.1415    0.1860 F   0  0  0  0  0  0  0  0  0  0  0  0
    3.2836    0.9548   -0.4806 C   0  0  0  0  0  0  0  0  0  0  0  0
    3.7548   -0.1060   -1.2230 O   0  0  0  0  0  0  0  0  0  0  0  0
    1.8010   -1.3299    1.8365 H   0  0  0  0  0  0  0  0  0  0  0  0
    2.0502    0.3837    1.9614 H   0  0  0  0  0  0  0  0  0  0  0  0
    1.4557   -1.1226   -0.3898 H   0  0  0  0  0  0  0  0  0  0  0  0
   -0.6595    0.7789    0.7158 H   0  0  0  0  0  0  0  0  0  0  0  0
   -0.3644   -1.6833    1.4919 H   0  0  0  0  0  0  0  0  0  0  0  0
   -1.1139   -2.1322   -0.0936 H   0  0  0  0  0  0  0  0  0  0  0  0
   -2.0704   -0.5358    2.1888 H   0  0  0  0  0  0  0  0  0  0  0  0
   -4.0541    0.0391    0.8837 H   0  0  0  0  0  0  0  0  0  0  0  0
   -2.6676    1.1273    0.7350 H   0  0  0  0  0  0  0  0  0  0  0  0
   -3.4591    0.7667   -1.4452 H   0  0  0  0  0  0  0  0  0  0  0  0
   -3.8721   -0.9296   -1.1436 H   0  0  0  0  0  0  0  0  0  0  0  0
    0.0151   -0.3315   -1.9784 H   0  0  0  0  0  0  0  0  0  0  0  0
   -0.8676    1.1631   -1.6227 H   0  0  0  0  0  0  0  0  0  0  0  0
    1.4284    1.0531   -1.4883 H   0  0  0  0  0  0  0  0  0  0  0  0
    3.6782    0.8633    0.5721 H   0  0  0  0  0  0  0  0  0  0  0  0
    3.6961    1.9063   -0.8714 H   0  0  0  0  0  0  0  0  0  0  0  0
    4.5770   -0.4470   -0.7988 H   0  0  0  0  0  0  0  0  0  0  0  0
  1  2  1  0
  2  3  1  0
  3  4  1  0
  4  5  1  0
  5  6  1  0
  6  7  1  0
  7  8  1  0
  8  9  1  0
  2 10  1  0
 10 11  1  0
 10 12  1  0
 12 13  1  0
  9  3  1  0
  1 14  1  0
  1 15  1  0
  2 16  1  6
  3 17  1  1
  4 18  1  0
  4 19  1  0
  5 20  1  0
  6 21  1  0
  6 22  1  0
  7 23  1  0
  7 24  1  0
  9 25  1  0
  9 26  1  0
 10 27  1  6
 12 28  1  0
 12 29  1  0
 13 30  1  0
M  END
$$$$

     RDKit          3D

 30 30  0  0  0  0  0  0  0  0999 V2000
    1.3584   -1.9694   -0.1421 N   0  0  0  0  0  0  0  0  0  0  0  0
    1.1346   -0.6576   -0.7866 C   0  0  1  0  0  0  0  0  0  0  0  0
   -0.0452   -0.0719   -0.0477 C   0  0  2  0  0  0  0  0  0  0  0  0
   -1.2510   -1.0118   -0.1844 C   0  0  0  0  0  0  0  0  0  0  0  0
   -2.0115   -0.8917    1.0286 N   0  0  0  0  0  0  0  0  0  0  0  0
   -3.1386    0.0114    0.8791 C   0  0  0  0  0  0  0  0  0  0  0  0
   -2.7785    1.2268    0.0610 C   0  0  0  0  0  0  0  0  0  0  0  0
   -1.5221    1.6959    0.2962 O   0  0  0  0  0  0  0  0  0  0  0  0
   -0.5350    1.2457   -0.5847 C   0  0  0  0  0  0  0  0  0  0  0  0
    2.3439    0.2028   -0.6029 C   0  0  1  0  0  0  0  0  0  0  0  0
    2.2933    1.4435   -1.1724 F   0  0  0  0  0  0  0  0  0  0  0  0
    2.6902    0.3914    0.8626 C   0  0  0  0  0  0  0  0  0  0  0  0
    3.8407    1.2127    0.8693 O   0  0  0  0  0  0  0  0  0  0  0  0
    2.2253   -2.3914   -0.5886 H   0  0  0  0  0  0  0  0  0  0  0  0
    1.4323   -1.8809    0.8753 H   0  0  0  0  0  0  0  0  0  0  0  0
    0.8531   -0.8565   -1.8162 H   0  0  0  0  0  0  0  0  0  0  0  0
    0.1917   -0.0344    1.0313 H   0  0  0  0  0  0  0  0  0  0  0  0
   -0.8232   -2.0426   -0.2241 H   0  0  0  0  0  0  0  0  0  0  0  0
   -1.8100   -0.8342   -1.1016 H   0  0  0  0  0  0  0  0  0  0  0  0
   -2.4201   -1.8342    1.2373 H   0  0  0  0  0  0  0  0  0  0  0  0
   -3.3967    0.3652    1.8961 H   0  0  0  0  0  0  0  0  0  0  0  0
   -4.0366   -0.4861    0.4690 H   0  0  0  0  0  0  0  0  0  0  0  0
   -3.4994    2.0486    0.2465 H   0  0  0  0  0  0  0  0  0  0  0  0
   -2.8679    0.9725   -1.0145 H   0  0  0  0  0  0  0  0  0  0  0  0
   -0.9783    1.0950   -1.5906 H   0  0  0  0  0  0  0  0  0  0  0  0
    0.3106    1.9553   -0.6178 H   0  0  0  0  0  0  0  0  0  0  0  0
    3.2355   -0.3457   -1.0480 H   0  0  0  0  0  0  0  0  0  0  0  0
    2.9056   -0.5538    1.3571 H   0  0  0  0  0  0  0  0  0  0  0  0
    1.9067    0.9867    1.3559 H   0  0  0  0  0  0  0  0  0  0  0  0
    4.3921    1.0086    0.0692 H   0  0  0  0  0  0  0  0  0  0  0  0
  1  2  1  0
  2  3  1  0
  3  4  1  0
  4  5  1  0
  5  6  1  0
  6  7  1  0
  7  8  1  0
  8  9  1  0
  2 10  1  0
 10 11  1  0
 10 12  1  0
 12 13  1  0
  9  3  1  0
  1 14  1  0
  1 15  1  0
  2 16  1  6
  3 17  1  1
  4 18  1  0
  4 19  1  0
  5 20  1  0
  6 21  1  0
  6 22  1  0
  7 23  1  0
  7 24  1  0
  9 25  1  0
  9 26  1  0
 10 27  1  6
 12 28  1  0
 12 29  1  0
 13 30  1  0
M  END
$$$$
