
     RDKit          3D

 19 20  0  0  0  0  0  0  0  0999 V2000
    3.5568   -0.9832    0.7894 O   0  0  0  0  0  0  0  0  0  0  0  0
    2.5292   -0.4121    0.3610 C   0  0  0  0  0  0  0  0  0  0  0  0
    1.4494   -0.9960   -0.4871 C   0  0  0  0  0  0  0  0  0  0  0  0
    0.3134   -0.1719   -0.1400 N   0  0  0  0  0  0  0  0  0  0  0  0
   -1.0472   -0.5955   -0.2462 C   0  0  0  0  0  0  0  0  0  0  0  0
   -1.9711   -0.1245    0.8673 C   0  0  0  0  0  0  0  0  0  0  0  0
   -2.9811   -0.0490   -0.1215 O   0  0  0  0  0  0  0  0  0  0  0  0
   -1.9581    0.3810   -0.9966 C   0  0  0  0  0  0  0  0  0  0  0  0
    0.8217    1.0726    0.3015 C   0  0  0  0  0  0  0  0  0  0  0  0
    0.1583    2.1619    0.4070 O   0  0  0  0  0  0  0  0  0  0  0  0
    2.1993    0.9538    0.6208 N   0  0  0  0  0  0  0  0  0  0  0  0
    1.7225   -0.9282   -1.5601 H   0  0  0  0  0  0  0  0  0  0  0  0
    1.3063   -2.0537   -0.1781 H   0  0  0  0  0  0  0  0  0  0  0  0
   -1.2339   -1.6025   -0.6118 H   0  0  0  0  0  0  0  0  0  0  0  0
   -1.6884    0.8906    1.1664 H   0  0  0  0  0  0  0  0  0  0  0  0
   -2.1716   -0.8560    1.6542 H   0  0  0  0  0  0  0  0  0  0  0  0
   -1.7444    1.4577   -0.7535 H   0  0  0  0  0  0  0  0  0  0  0  0
   -2.1193    0.1503   -2.0494 H   0  0  0  0  0  0  0  0  0  0  0  0
    2.8582    1.7049    0.9767 H   0  0  0  0  0  0  0  0  0  0  0  0
  1  2  2  0
  2  3  1  0
  3  4  1  0
  4  5  1  0
  5  6  1  0
  6  7  1  0
  7  8  1  0
  4  9  1  0
  9 10  2  0
  9 11  1  0
 11  2  1  0
  8  5  1  0
  3 12  1  0
  3 13  1  0
  5 14  1  0
  6 15  1  0
  6 16  1  0
  8 17  1  0
  8 18  1  0
 11 19  1  0
M  END
$$$$

     RDKit          3D

 19 20  0  0  0  0  0  0  0  0999 V2000
    3.5435    0.0317   -1.0643 O   0  0  0  0  0  0  0  0  0  0  0  0
    2.5304   -0.1160   -0.2978 C   0  0  0  0  0  0  0  0  0  0  0  0
    1.4067   -1.0712   -0.4562 C   0  0  0  0  0  0  0  0  0  0  0  0
    0.2883   -0.2844    0.0133 N   0  0  0  0  0  0  0  0  0  0  0  0
   -1.0355   -0.3340   -0.5195 C   0  0  0  0  0  0  0  0  0  0  0  0
   -1.6936    1.0014   -0.7869 C   0  0  0  0  0  0  0  0  0  0  0  0
   -2.9147    0.3710   -0.4587 O   0  0  0  0  0  0  0  0  0  0  0  0
   -2.1605   -0.3801    0.4761 C   0  0  0  0  0  0  0  0  0  0  0  0
    0.8328    0.4913    1.0717 C   0  0  0  0  0  0  0  0  0  0  0  0
    0.1393    0.9911    2.0185 O   0  0  0  0  0  0  0  0  0  0  0  0
    2.2466    0.6080    0.8926 N   0  0  0  0  0  0  0  0  0  0  0  0
    1.2826   -1.4178   -1.4958 H   0  0  0  0  0  0  0  0  0  0  0  0
    1.6068   -1.9164    0.2464 H   0  0  0  0  0  0  0  0  0  0  0  0
   -1.2173   -1.0167   -1.3437 H   0  0  0  0  0  0  0  0  0  0  0  0
   -1.4929    1.7662    0.0055 H   0  0  0  0  0  0  0  0  0  0  0  0
   -1.6814    1.3550   -1.8188 H   0  0  0  0  0  0  0  0  0  0  0  0
   -2.5722   -1.4113    0.6388 H   0  0  0  0  0  0  0  0  0  0  0  0
   -2.0448    0.2201    1.3833 H   0  0  0  0  0  0  0  0  0  0  0  0
    2.9362    1.1119    1.4956 H   0  0  0  0  0  0  0  0  0  0  0  0
  1  2  2  0
  2  3  1  0
  3  4  1  0
  4  5  1  0
  5  6  1  0
  6  7  1  0
  7  8  1  0
  4  9  1  0
  9 10  2  0
  9 11  1  0
 11  2  1  0
  8  5  1  0
  3 12  1  0
  3 13  1  0
  5 14  1  0
  6 15  1  0
  6 16  1  0
  8 17  1  0
  8 18  1  0
 11 19  1  0
M  END
$$$$

     RDKit          3D

 19 20  0  0  0  0  0  0  0  0999 V2000
    3.0486    0.1593    1.7370 O   0  0  0  0  0  0  0  0  0  0  0  0
    2.2672    0.0463    0.7559 C   0  0  0  0  0  0  0  0  0  0  0  0
    1.0383   -0.7430    0.5853 C   0  0  0  0  0  0  0  0  0  0  0  0
    0.2959    0.0496   -0.3739 N   0  0  0  0  0  0  0  0  0  0  0  0
   -1.1258    0.1747   -0.5501 C   0  0  0  0  0  0  0  0  0  0  0  0
   -1.7869    0.6165    0.7599 C   0  0  0  0  0  0  0  0  0  0  0  0
   -2.1339   -0.6891    1.0700 O   0  0  0  0  0  0  0  0  0  0  0  0
   -1.9447   -1.0424   -0.2694 C   0  0  0  0  0  0  0  0  0  0  0  0
    1.2383    0.7438   -1.1836 C   0  0  0  0  0  0  0  0  0  0  0  0
    1.0587    1.2768   -2.3201 O   0  0  0  0  0  0  0  0  0  0  0  0
    2.4758    0.7403   -0.4716 N   0  0  0  0  0  0  0  0  0  0  0  0
    0.4839   -0.9326    1.5131 H   0  0  0  0  0  0  0  0  0  0  0  0
    1.3169   -1.7370    0.1297 H   0  0  0  0  0  0  0  0  0  0  0  0
   -1.4530    0.8393   -1.3488 H   0  0  0  0  0  0  0  0  0  0  0  0
   -2.6981    1.2222    0.6103 H   0  0  0  0  0  0  0  0  0  0  0  0
   -1.0666    1.0968    1.4440 H   0  0  0  0  0  0  0  0  0  0  0  0
   -1.4443   -2.0175   -0.4297 H   0  0  0  0  0  0  0  0  0  0  0  0
   -2.9148   -0.9928   -0.8112 H   0  0  0  0  0  0  0  0  0  0  0  0
    3.3444    1.1888   -0.8468 H   0  0  0  0  0  0  0  0  0  0  0  0
  1  2  2  0
  2  3  1  0
  3  4  1  0
  4  5  1  0
  5  6  1  0
  6  7  1  0
  7  8  1  0
  4  9  1  0
  9 10  2  0
  9 11  1  0
 11  2  1  0
  8  5  1  0
  3 12  1  0
  3 13  1  0
  5 14  1  0
  6 15  1  0
  6 16  1  0
  8 17  1  0
  8 18  1  0
 11 19  1  0
M  END
$$$$

     RDKit          3D

 19 20  0  0  0  0  0  0  0  0999 V2000
    3.7755   -0.7215   -0.4200 O   0  0  0  0  0  0  0  0  0  0  0  0
    2.6484   -0.2752   -0.0919 C   0  0  0  0  0  0  0  0  0  0  0  0
    1.4154   -1.0878   -0.1060 C   0  0  0  0  0  0  0  0  0  0  0  0
    0.3112   -0.1524    0.0364 N   0  0  0  0  0  0  0  0  0  0  0  0
   -1.0473   -0.5551   -0.2042 C   0  0  0  0  0  0  0  0  0  0  0  0
   -2.0532   -0.1366    0.8458 C   0  0  0  0  0  0  0  0  0  0  0  0
   -2.9780   -0.0809   -0.2116 O   0  0  0  0  0  0  0  0  0  0  0  0
   -1.8979    0.4029   -0.9820 C   0  0  0  0  0  0  0  0  0  0  0  0
    0.8590    1.0825    0.4206 C   0  0  0  0  0  0  0  0  0  0  0  0
    0.1947    2.0849    0.7742 O   0  0  0  0  0  0  0  0  0  0  0  0
    2.2675    1.0236    0.3482 N   0  0  0  0  0  0  0  0  0  0  0  0
    1.2922   -1.5607   -1.1109 H   0  0  0  0  0  0  0  0  0  0  0  0
    1.3809   -1.8594    0.6647 H   0  0  0  0  0  0  0  0  0  0  0  0
   -1.2151   -1.5873   -0.4969 H   0  0  0  0  0  0  0  0  0  0  0  0
   -2.3003   -0.8735    1.6047 H   0  0  0  0  0  0  0  0  0  0  0  0
   -1.9036    0.9124    1.2132 H   0  0  0  0  0  0  0  0  0  0  0  0
   -1.6900    1.4787   -0.7902 H   0  0  0  0  0  0  0  0  0  0  0  0
   -2.0499    0.1400   -2.0582 H   0  0  0  0  0  0  0  0  0  0  0  0
    2.9905    1.7655    0.5641 H   0  0  0  0  0  0  0  0  0  0  0  0
  1  2  2  0
  2  3  1  0
  3  4  1  0
  4  5  1  0
  5  6  1  0
  6  7  1  0
  7  8  1  0
  4  9  1  0
  9 10  2  0
  9 11  1  0
 11  2  1  0
  8  5  1  0
  3 12  1  0
  3 13  1  0
  5 14  1  0
  6 15  1  0
  6 16  1  0
  8 17  1  0
  8 18  1  0
 11 19  1  0
M  END
$$$$

     RDKit          3D

 19 20  0  0  0  0  0  0  0  0999 V2000
    3.8027   -0.2434    0.5421 O   0  0  0  0  0  0  0  0  0  0  0  0
    2.6162   -0.1344    0.1519 C   0  0  0  0  0  0  0  0  0  0  0  0
    1.4416   -0.9644    0.5757 C   0  0  0  0  0  0  0  0  0  0  0  0
    0.3075   -0.2265    0.1062 N   0  0  0  0  0  0  0  0  0  0  0  0
   -1.0631   -0.4654    0.5065 C   0  0  0  0  0  0  0  0  0  0  0  0
   -1.8540    0.7980    0.8255 C   0  0  0  0  0  0  0  0  0  0  0  0
   -2.9801    0.1313    0.3043 O   0  0  0  0  0  0  0  0  0  0  0  0
   -2.0751   -0.4864   -0.5911 C   0  0  0  0  0  0  0  0  0  0  0  0
    0.7654    0.7621   -0.8048 C   0  0  0  0  0  0  0  0  0  0  0  0
    0.0650    1.5004   -1.5451 O   0  0  0  0  0  0  0  0  0  0  0  0
    2.1902    0.8358   -0.7926 N   0  0  0  0  0  0  0  0  0  0  0  0
    1.4352   -1.0984    1.6884 H   0  0  0  0  0  0  0  0  0  0  0  0
    1.5188   -1.9651    0.1266 H   0  0  0  0  0  0  0  0  0  0  0  0
   -1.2010   -1.2843    1.2259 H   0  0  0  0  0  0  0  0  0  0  0  0
   -1.9184    1.0535    1.8837 H   0  0  0  0  0  0  0  0  0  0  0  0
   -1.5689    1.5989    0.1216 H   0  0  0  0  0  0  0  0  0  0  0  0
   -1.8845    0.2166   -1.4159 H   0  0  0  0  0  0  0  0  0  0  0  0
   -2.4099   -1.5035   -0.8953 H   0  0  0  0  0  0  0  0  0  0  0  0
    2.8125    1.4750   -1.3628 H   0  0  0  0  0  0  0  0  0  0  0  0
  1  2  2  0
  2  3  1  0
  3  4  1  0
  4  5  1  0
  5  6  1  0
  6  7  1  0
  7  8  1  0
  4  9  1  0
  9 10  2  0
  9 11  1  0
 11  2  1  0
  8  5  1  0
  3 12  1  0
  3 13  1  0
  5 14  1  0
  6 15  1  0
  6 16  1  0
  8 17  1  0
  8 18  1  0
 11 19  1  0
M  END
$$$$

     RDKit          3D

 19 20  0  0  0  0  0  0  0  0999 V2000
    3.1998   -1.8341    0.0613 O   0  0  0  0  0  0  0  0  0  0  0  0
    2.4013   -0.8616    0.0934 C   0  0  0  0  0  0  0  0  0  0  0  0
    1.3336   -0.5789    1.1082 C   0  0  0  0  0  0  0  0  0  0  0  0
    0.3198    0.0353    0.2605 N   0  0  0  0  0  0  0  0  0  0  0  0
   -1.0896   -0.1638    0.4819 C   0  0  0  0  0  0  0  0  0  0  0  0
   -1.8704   -0.5539   -0.7694 C   0  0  0  0  0  0  0  0  0  0  0  0
   -2.9457    0.1635   -0.2258 O   0  0  0  0  0  0  0  0  0  0  0  0
   -1.9729    1.0237    0.3367 C   0  0  0  0  0  0  0  0  0  0  0  0
    0.9899    0.7858   -0.7165 C   0  0  0  0  0  0  0  0  0  0  0  0
    0.4906    1.7489   -1.3408 O   0  0  0  0  0  0  0  0  0  0  0  0
    2.3031    0.2272   -0.8284 N   0  0  0  0  0  0  0  0  0  0  0  0
    1.7284    0.1991    1.8001 H   0  0  0  0  0  0  0  0  0  0  0  0
    0.9851   -1.4789    1.6154 H   0  0  0  0  0  0  0  0  0  0  0  0
   -1.3616   -0.7991    1.3181 H   0  0  0  0  0  0  0  0  0  0  0  0
   -1.5231   -0.0161   -1.6826 H   0  0  0  0  0  0  0  0  0  0  0  0
   -2.0334   -1.6313   -0.8909 H   0  0  0  0  0  0  0  0  0  0  0  0
   -1.6848    1.7576   -0.4401 H   0  0  0  0  0  0  0  0  0  0  0  0
   -2.3336    1.4251    1.2874 H   0  0  0  0  0  0  0  0  0  0  0  0
    3.0635    0.5514   -1.4686 H   0  0  0  0  0  0  0  0  0  0  0  0
  1  2  2  0
  2  3  1  0
  3  4  1  0
  4  5  1  0
  5  6  1  0
  6  7  1  0
  7  8  1  0
  4  9  1  0
  9 10  2  0
  9 11  1  0
 11  2  1  0
  8  5  1  0
  3 12  1  0
  3 13  1  0
  5 14  1  0
  6 15  1  0
  6 16  1  0
  8 17  1  0
  8 18  1  0
 11 19  1  0
M  END
$$$$

     RDKit          3D

 19 20  0  0  0  0  0  0  0  0999 V2000
   -3.4679    0.0364   -1.2672 O   0  0  0  0  0  0  0  0  0  0  0  0
   -2.5077   -0.0515   -0.4308 C   0  0  0  0  0  0  0  0  0  0  0  0
   -1.4158   -1.0603   -0.4492 C   0  0  0  0  0  0  0  0  0  0  0  0
   -0.2877   -0.2546    0.0050 N   0  0  0  0  0  0  0  0  0  0  0  0
    1.0550   -0.3822   -0.4500 C   0  0  0  0  0  0  0  0  0  0  0  0
    1.7954    0.9098   -0.7102 C   0  0  0  0  0  0  0  0  0  0  0  0
    2.9486    0.3002   -0.2304 O   0  0  0  0  0  0  0  0  0  0  0  0
    2.1209   -0.4676    0.6031 C   0  0  0  0  0  0  0  0  0  0  0  0
   -0.8563    0.6432    0.9706 C   0  0  0  0  0  0  0  0  0  0  0  0
   -0.1852    1.1951    1.8833 O   0  0  0  0  0  0  0  0  0  0  0  0
   -2.2487    0.7705    0.6972 N   0  0  0  0  0  0  0  0  0  0  0  0
   -1.2450   -1.4978   -1.4381 H   0  0  0  0  0  0  0  0  0  0  0  0
   -1.6350   -1.8746    0.3020 H   0  0  0  0  0  0  0  0  0  0  0  0
    1.1780   -1.1630   -1.1963 H   0  0  0  0  0  0  0  0  0  0  0  0
    1.8243    1.2366   -1.7574 H   0  0  0  0  0  0  0  0  0  0  0  0
    1.3757    1.7011   -0.0316 H   0  0  0  0  0  0  0  0  0  0  0  0
    2.5691   -1.4629    0.7640 H   0  0  0  0  0  0  0  0  0  0  0  0
    1.9406    0.0799    1.5331 H   0  0  0  0  0  0  0  0  0  0  0  0
   -2.9581    1.3418    1.2027 H   0  0  0  0  0  0  0  0  0  0  0  0
  1  2  2  0
  2  3  1  0
  3  4  1  0
  4  5  1  0
  5  6  1  0
  6  7  1  0
  7  8  1  0
  4  9  1  0
  9 10  2  0
  9 11  1  0
 11  2  1  0
  8  5  1  0
  3 12  1  0
  3 13  1  0
  5 14  1  0
  6 15  1  0
  6 16  1  0
  8 17  1  0
  8 18  1  0
 11 19  1  0
M  END
$$$$

     RDKit          3D

 19 20  0  0  0  0  0  0  0  0999 V2000
    3.3599    1.1604   -0.6625 O   0  0  0  0  0  0  0  0  0  0  0  0
    2.4165    0.4430   -0.2560 C   0  0  0  0  0  0  0  0  0  0  0  0
    0.9770    0.5705   -0.6459 C   0  0  0  0  0  0  0  0  0  0  0  0
    0.2591   -0.3112    0.2513 N   0  0  0  0  0  0  0  0  0  0  0  0
   -1.1653   -0.3605    0.3677 C   0  0  0  0  0  0  0  0  0  0  0  0
   -1.8491    0.9864    0.4661 C   0  0  0  0  0  0  0  0  0  0  0  0
   -2.7342    0.6466   -0.5389 O   0  0  0  0  0  0  0  0  0  0  0  0
   -1.9416   -0.4568   -0.9181 C   0  0  0  0  0  0  0  0  0  0  0  0
    1.2222   -1.0750    0.9527 C   0  0  0  0  0  0  0  0  0  0  0  0
    0.9311   -2.0179    1.7304 O   0  0  0  0  0  0  0  0  0  0  0  0
    2.5448   -0.6269    0.6537 N   0  0  0  0  0  0  0  0  0  0  0  0
    0.7144    1.6270   -0.5312 H   0  0  0  0  0  0  0  0  0  0  0  0
    0.9190    0.2186   -1.6977 H   0  0  0  0  0  0  0  0  0  0  0  0
   -1.5700   -1.0887    1.0997 H   0  0  0  0  0  0  0  0  0  0  0  0
   -1.2210    1.8525    0.2065 H   0  0  0  0  0  0  0  0  0  0  0  0
   -2.2980    1.1170    1.4718 H   0  0  0  0  0  0  0  0  0  0  0  0
   -1.3804   -0.3196   -1.8415 H   0  0  0  0  0  0  0  0  0  0  0  0
   -2.6247   -1.3401   -0.9950 H   0  0  0  0  0  0  0  0  0  0  0  0
    3.4401   -1.0254    1.0431 H   0  0  0  0  0  0  0  0  0  0  0  0
  1  2  2  0
  2  3  1  0
  3  4  1  0
  4  5  1  0
  5  6  1  0
  6  7  1  0
  7  8  1  0
  4  9  1  0
  9 10  2  0
  9 11  1  0
 11  2  1  0
  8  5  1  0
  3 12  1  0
  3 13  1  0
  5 14  1  0
  6 15  1  0
  6 16  1  0
  8 17  1  0
  8 18  1  0
 11 19  1  0
M  END
$$$$
