
     RDKit          3D

 26 25  0  0  0  0  0  0  0  0999 V2000
   -4.5138   -1.0157    0.0820 C   0  0  0  0  0  0  0  0  0  0  0  0
   -3.4682   -0.4416    1.4353 S   0  0  0  0  0  0  0  0  0  0  0  0
   -1.7138   -0.6636    1.0856 C   0  0  0  0  0  0  0  0  0  0  0  0
   -1.3213    0.2387   -0.0628 C   0  0  1  0  0  0  0  0  0  0  0  0
   -1.5925    1.5975    0.3436 N   0  0  0  0  0  0  0  0  0  0  0  0
    0.1040    0.0520   -0.4424 C   0  0  0  0  0  0  0  0  0  0  0  0
    0.5223   -1.0703   -0.8251 O   0  0  0  0  0  0  0  0  0  0  0  0
    1.0657    1.1074   -0.3981 N   0  0  0  0  0  0  0  0  0  0  0  0
    2.4404    0.9323   -0.7629 C   0  0  0  0  0  0  0  0  0  0  0  0
    3.1616   -0.0979    0.0781 C   0  0  0  0  0  0  0  0  0  0  0  0
    4.5405   -0.1484   -0.4251 N   0  0  0  0  0  0  0  0  0  0  0  0
   -5.4267   -1.4854    0.5147 H   0  0  0  0  0  0  0  0  0  0  0  0
   -4.0252   -1.8295   -0.5188 H   0  0  0  0  0  0  0  0  0  0  0  0
   -4.8661   -0.1941   -0.5716 H   0  0  0  0  0  0  0  0  0  0  0  0
   -1.1561   -0.2908    1.9783 H   0  0  0  0  0  0  0  0  0  0  0  0
   -1.4269   -1.7163    0.9203 H   0  0  0  0  0  0  0  0  0  0  0  0
   -1.9450   -0.0049   -0.9274 H   0  0  0  0  0  0  0  0  0  0  0  0
   -1.3065    2.2227   -0.4416 H   0  0  0  0  0  0  0  0  0  0  0  0
   -1.1137    1.8856    1.2061 H   0  0  0  0  0  0  0  0  0  0  0  0
    0.6916    2.0378   -0.0745 H   0  0  0  0  0  0  0  0  0  0  0  0
    2.5623    0.5936   -1.8284 H   0  0  0  0  0  0  0  0  0  0  0  0
    2.9437    1.9171   -0.7125 H   0  0  0  0  0  0  0  0  0  0  0  0
    2.7498   -1.1114   -0.1037 H   0  0  0  0  0  0  0  0  0  0  0  0
    3.1201    0.1129    1.1550 H   0  0  0  0  0  0  0  0  0  0  0  0
    4.7540    0.6485   -1.0497 H   0  0  0  0  0  0  0  0  0  0  0  0
    5.2196   -0.2818    0.3458 H   0  0  0  0  0  0  0  0  0  0  0  0
  1  2  1  0
  2  3  1  0
  3  4  1  0
  4  5  1  0
  4  6  1  0
  6  7  2  0
  6  8  1  0
  8  9  1  0
  9 10  1  0
 10 11  1  0
  1 12  1  0
  1 13  1  0
  1 14  1  0
  3 15  1  0
  3 16  1  0
  4 17  1  6
  5 18  1  0
  5 19  1  0
  8 20  1  0
  9 21  1  0
  9 22  1  0
 10 23  1  0
 10 24  1  0
 11 25  1  0
 11 26  1  0
M  END
$$$$

     RDKit          3D

 26 25  0  0  0  0  0  0  0  0999 V2000
    2.9883   -1.0801   -2.2210 C   0  0  0  0  0  0  0  0  0  0  0  0
    2.0695    0.4107   -1.7556 S   0  0  0  0  0  0  0  0  0  0  0  0
    2.0605    0.6630    0.0385 C   0  0  0  0  0  0  0  0  0  0  0  0
    1.2730   -0.4500    0.7193 C   0  0  1  0  0  0  0  0  0  0  0  0
    1.2538   -0.2667    2.1554 N   0  0  0  0  0  0  0  0  0  0  0  0
   -0.1305   -0.4005    0.2180 C   0  0  0  0  0  0  0  0  0  0  0  0
   -0.3349   -0.5395   -0.9893 O   0  0  0  0  0  0  0  0  0  0  0  0
   -1.2256   -0.2000    1.0828 N   0  0  0  0  0  0  0  0  0  0  0  0
   -2.6012   -0.1269    0.7451 C   0  0  0  0  0  0  0  0  0  0  0  0
   -3.0284    0.9611   -0.1693 C   0  0  0  0  0  0  0  0  0  0  0  0
   -2.4266    0.9489   -1.4580 N   0  0  0  0  0  0  0  0  0  0  0  0
    3.8046   -0.8641   -2.9306 H   0  0  0  0  0  0  0  0  0  0  0  0
    3.4460   -1.5383   -1.3084 H   0  0  0  0  0  0  0  0  0  0  0  0
    2.3162   -1.8118   -2.7391 H   0  0  0  0  0  0  0  0  0  0  0  0
    1.5970    1.6507    0.2336 H   0  0  0  0  0  0  0  0  0  0  0  0
    3.0873    0.6893    0.4637 H   0  0  0  0  0  0  0  0  0  0  0  0
    1.7266   -1.4161    0.4401 H   0  0  0  0  0  0  0  0  0  0  0  0
    1.5982    0.6898    2.3507 H   0  0  0  0  0  0  0  0  0  0  0  0
    1.8227   -1.0136    2.5839 H   0  0  0  0  0  0  0  0  0  0  0  0
   -0.9517   -0.0934    2.1091 H   0  0  0  0  0  0  0  0  0  0  0  0
   -2.9856   -1.1233    0.3630 H   0  0  0  0  0  0  0  0  0  0  0  0
   -3.1933    0.0030    1.6987 H   0  0  0  0  0  0  0  0  0  0  0  0
   -2.9317    1.9309    0.3608 H   0  0  0  0  0  0  0  0  0  0  0  0
   -4.1417    0.8535   -0.3346 H   0  0  0  0  0  0  0  0  0  0  0  0
   -2.3191    1.8931   -1.8910 H   0  0  0  0  0  0  0  0  0  0  0  0
   -2.7735    0.2301   -2.0980 H   0  0  0  0  0  0  0  0  0  0  0  0
  1  2  1  0
  2  3  1  0
  3  4  1  0
  4  5  1  0
  4  6  1  0
  6  7  2  0
  6  8  1  0
  8  9  1  0
  9 10  1  0
 10 11  1  0
  1 12  1  0
  1 13  1  0
  1 14  1  0
  3 15  1  0
  3 16  1  0
  4 17  1  1
  5 18  1  0
  5 19  1  0
  8 20  1  0
  9 21  1  0
  9 22  1  0
 10 23  1  0
 10 24  1  0
 11 25  1  0
 11 26  1  0
M  END
$$$$

     RDKit          3D

 26 25  0  0  0  0  0  0  0  0999 V2000
    4.3353    1.2792   -0.5282 C   0  0  0  0  0  0  0  0  0  0  0  0
    3.7693    0.1518    0.7815 S   0  0  0  0  0  0  0  0  0  0  0  0
    1.9742    0.3923    1.0355 C   0  0  0  0  0  0  0  0  0  0  0  0
    1.2253   -0.0533   -0.1968 C   0  0  1  0  0  0  0  0  0  0  0  0
    1.4750   -1.4388   -0.4602 N   0  0  0  0  0  0  0  0  0  0  0  0
   -0.2310    0.1548    0.0438 C   0  0  0  0  0  0  0  0  0  0  0  0
   -0.6319    1.3078    0.2951 O   0  0  0  0  0  0  0  0  0  0  0  0
   -1.1400   -0.9105   -0.0081 N   0  0  0  0  0  0  0  0  0  0  0  0
   -2.5417   -0.7671    0.2117 C   0  0  0  0  0  0  0  0  0  0  0  0
   -3.2035    0.1667   -0.7736 C   0  0  0  0  0  0  0  0  0  0  0  0
   -4.6310    0.2800   -0.5140 N   0  0  0  0  0  0  0  0  0  0  0  0
    5.2096    0.8634   -1.0362 H   0  0  0  0  0  0  0  0  0  0  0  0
    4.5090    2.2895   -0.0994 H   0  0  0  0  0  0  0  0  0  0  0  0
    3.5249    1.3533   -1.2967 H   0  0  0  0  0  0  0  0  0  0  0  0
    1.6253   -0.1702    1.9063 H   0  0  0  0  0  0  0  0  0  0  0  0
    1.7503    1.4849    1.1622 H   0  0  0  0  0  0  0  0  0  0  0  0
    1.5622    0.5270   -1.0888 H   0  0  0  0  0  0  0  0  0  0  0  0
    1.2044   -2.0242    0.3768 H   0  0  0  0  0  0  0  0  0  0  0  0
    2.4845   -1.6009   -0.6825 H   0  0  0  0  0  0  0  0  0  0  0  0
   -0.7517   -1.8613   -0.2215 H   0  0  0  0  0  0  0  0  0  0  0  0
   -3.0340   -1.7398    0.1409 H   0  0  0  0  0  0  0  0  0  0  0  0
   -2.7289   -0.3938    1.2477 H   0  0  0  0  0  0  0  0  0  0  0  0
   -2.7737    1.1931   -0.5979 H   0  0  0  0  0  0  0  0  0  0  0  0
   -2.9887   -0.1560   -1.8056 H   0  0  0  0  0  0  0  0  0  0  0  0
   -4.8710   -0.3643    0.2701 H   0  0  0  0  0  0  0  0  0  0  0  0
   -5.1220    0.0366   -1.4054 H   0  0  0  0  0  0  0  0  0  0  0  0
  1  2  1  0
  2  3  1  0
  3  4  1  0
  4  5  1  0
  4  6  1  0
  6  7  2  0
  6  8  1  0
  8  9  1  0
  9 10  1  0
 10 11  1  0
  1 12  1  0
  1 13  1  0
  1 14  1  0
  3 15  1  0
  3 16  1  0
  4 17  1  6
  5 18  1  0
  5 19  1  0
  8 20  1  0
  9 21  1  0
  9 22  1  0
 10 23  1  0
 10 24  1  0
 11 25  1  0
 11 26  1  0
M  END
$$$$

     RDKit          3D

 26 25  0  0  0  0  0  0  0  0999 V2000
    4.0358   -0.5779   -1.3551 C   0  0  0  0  0  0  0  0  0  0  0  0
    3.4762   -0.7563    0.3393 S   0  0  0  0  0  0  0  0  0  0  0  0
    1.6563   -0.7551    0.4637 C   0  0  0  0  0  0  0  0  0  0  0  0
    1.1872    0.6192    0.0769 C   0  0  1  0  0  0  0  0  0  0  0  0
    1.6142    0.9091   -1.2722 N   0  0  0  0  0  0  0  0  0  0  0  0
   -0.2700    0.8047    0.1693 C   0  0  0  0  0  0  0  0  0  0  0  0
   -0.8825    1.1943   -0.8487 O   0  0  0  0  0  0  0  0  0  0  0  0
   -1.0171    0.5668    1.3466 N   0  0  0  0  0  0  0  0  0  0  0  0
   -2.4179    0.7094    1.5348 C   0  0  0  0  0  0  0  0  0  0  0  0
   -3.3049   -0.1635    0.7039 C   0  0  0  0  0  0  0  0  0  0  0  0
   -3.1736    0.0295   -0.7170 N   0  0  0  0  0  0  0  0  0  0  0  0
    3.4283   -1.2553   -1.9972 H   0  0  0  0  0  0  0  0  0  0  0  0
    5.0956   -0.9290   -1.4095 H   0  0  0  0  0  0  0  0  0  0  0  0
    4.0348    0.4520   -1.7417 H   0  0  0  0  0  0  0  0  0  0  0  0
    1.2827   -1.5551   -0.1725 H   0  0  0  0  0  0  0  0  0  0  0  0
    1.4197   -0.9352    1.5412 H   0  0  0  0  0  0  0  0  0  0  0  0
    1.6537    1.3403    0.7833 H   0  0  0  0  0  0  0  0  0  0  0  0
    1.4269    1.9420   -1.4381 H   0  0  0  0  0  0  0  0  0  0  0  0
    1.0772    0.3085   -1.9378 H   0  0  0  0  0  0  0  0  0  0  0  0
   -0.4344    0.2411    2.1775 H   0  0  0  0  0  0  0  0  0  0  0  0
   -2.7809    1.7574    1.3694 H   0  0  0  0  0  0  0  0  0  0  0  0
   -2.6870    0.5132    2.6122 H   0  0  0  0  0  0  0  0  0  0  0  0
   -4.3617    0.0880    1.0324 H   0  0  0  0  0  0  0  0  0  0  0  0
   -3.2003   -1.2432    0.9638 H   0  0  0  0  0  0  0  0  0  0  0  0
   -4.0954    0.2967   -1.0989 H   0  0  0  0  0  0  0  0  0  0  0  0
   -2.7629   -0.8325   -1.1256 H   0  0  0  0  0  0  0  0  0  0  0  0
  1  2  1  0
  2  3  1  0
  3  4  1  0
  4  5  1  0
  4  6  1  0
  6  7  2  0
  6  8  1  0
  8  9  1  0
  9 10  1  0
 10 11  1  0
  1 12  1  0
  1 13  1  0
  1 14  1  0
  3 15  1  0
  3 16  1  0
  4 17  1  1
  5 18  1  0
  5 19  1  0
  8 20  1  0
  9 21  1  0
  9 22  1  0
 10 23  1  0
 10 24  1  0
 11 25  1  0
 11 26  1  0
M  END
$$$$

     RDKit          3D

 26 25  0  0  0  0  0  0  0  0999 V2000
    4.8791   -0.1403    0.1292 C   0  0  0  0  0  0  0  0  0  0  0  0
    3.4056   -1.2074   -0.0803 S   0  0  0  0  0  0  0  0  0  0  0  0
    1.9780   -0.1250   -0.0503 C   0  0  0  0  0  0  0  0  0  0  0  0
    0.6686   -0.8516   -0.2119 C   0  0  1  0  0  0  0  0  0  0  0  0
    0.4421   -1.8178    0.8224 N   0  0  0  0  0  0  0  0  0  0  0  0
   -0.3909    0.2204   -0.2008 C   0  0  0  0  0  0  0  0  0  0  0  0
   -0.3318    1.1422   -1.0503 O   0  0  0  0  0  0  0  0  0  0  0  0
   -1.4412    0.2054    0.7421 N   0  0  0  0  0  0  0  0  0  0  0  0
   -2.4684    1.2212    0.7708 C   0  0  0  0  0  0  0  0  0  0  0  0
   -3.2325    1.2517   -0.5253 C   0  0  0  0  0  0  0  0  0  0  0  0
   -3.8418   -0.0550   -0.7137 N   0  0  0  0  0  0  0  0  0  0  0  0
    4.9942    0.4360   -0.8032 H   0  0  0  0  0  0  0  0  0  0  0  0
    5.7576   -0.7204    0.4234 H   0  0  0  0  0  0  0  0  0  0  0  0
    4.5810    0.6060    0.9208 H   0  0  0  0  0  0  0  0  0  0  0  0
    2.0724    0.5984   -0.8899 H   0  0  0  0  0  0  0  0  0  0  0  0
    1.9497    0.3787    0.9390 H   0  0  0  0  0  0  0  0  0  0  0  0
    0.5709   -1.3589   -1.1909 H   0  0  0  0  0  0  0  0  0  0  0  0
    1.2148   -2.5025    0.7946 H   0  0  0  0  0  0  0  0  0  0  0  0
   -0.4321   -2.3426    0.5893 H   0  0  0  0  0  0  0  0  0  0  0  0
   -1.4627   -0.5728    1.4359 H   0  0  0  0  0  0  0  0  0  0  0  0
   -1.9143    2.2037    0.8433 H   0  0  0  0  0  0  0  0  0  0  0  0
   -3.1383    1.1098    1.6354 H   0  0  0  0  0  0  0  0  0  0  0  0
   -2.5964    1.5087   -1.3717 H   0  0  0  0  0  0  0  0  0  0  0  0
   -4.0455    2.0220   -0.4824 H   0  0  0  0  0  0  0  0  0  0  0  0
   -3.2945   -0.6275   -1.3875 H   0  0  0  0  0  0  0  0  0  0  0  0
   -3.9234   -0.5824    0.1874 H   0  0  0  0  0  0  0  0  0  0  0  0
  1  2  1  0
  2  3  1  0
  3  4  1  0
  4  5  1  0
  4  6  1  0
  6  7  2  0
  6  8  1  0
  8  9  1  0
  9 10  1  0
 10 11  1  0
  1 12  1  0
  1 13  1  0
  1 14  1  0
  3 15  1  0
  3 16  1  0
  4 17  1  6
  5 18  1  0
  5 19  1  0
  8 20  1  0
  9 21  1  0
  9 22  1  0
 10 23  1  0
 10 24  1  0
 11 25  1  0
 11 26  1  0
M  END
$$$$

     RDKit          3D

 26 25  0  0  0  0  0  0  0  0999 V2000
    4.3296    1.1321    0.6695 C   0  0  0  0  0  0  0  0  0  0  0  0
    2.7583    1.9421    0.9438 S   0  0  0  0  0  0  0  0  0  0  0  0
    1.3535    0.8251    0.8550 C   0  0  0  0  0  0  0  0  0  0  0  0
    1.1468    0.2620   -0.5379 C   0  0  1  0  0  0  0  0  0  0  0  0
    2.2742   -0.4782   -1.0056 N   0  0  0  0  0  0  0  0  0  0  0  0
   -0.0301   -0.6323   -0.4739 C   0  0  0  0  0  0  0  0  0  0  0  0
    0.1116   -1.8317   -0.8115 O   0  0  0  0  0  0  0  0  0  0  0  0
   -1.3219   -0.1878   -0.0437 N   0  0  0  0  0  0  0  0  0  0  0  0
   -2.4036   -1.1645   -0.0241 C   0  0  0  0  0  0  0  0  0  0  0  0
   -3.6890   -0.5723    0.4399 C   0  0  0  0  0  0  0  0  0  0  0  0
   -3.6574   -0.0225    1.7613 N   0  0  0  0  0  0  0  0  0  0  0  0
    4.9886    1.8359    0.0846 H   0  0  0  0  0  0  0  0  0  0  0  0
    4.8799    0.8931    1.6182 H   0  0  0  0  0  0  0  0  0  0  0  0
    4.2816    0.2013    0.1011 H   0  0  0  0  0  0  0  0  0  0  0  0
    1.3957    0.0073    1.6114 H   0  0  0  0  0  0  0  0  0  0  0  0
    0.4433    1.4149    1.0940 H   0  0  0  0  0  0  0  0  0  0  0  0
    0.9691    1.1206   -1.2157 H   0  0  0  0  0  0  0  0  0  0  0  0
    2.5304   -0.1846   -1.9504 H   0  0  0  0  0  0  0  0  0  0  0  0
    2.0928   -1.5208   -0.9298 H   0  0  0  0  0  0  0  0  0  0  0  0
   -1.4146    0.7957    0.2278 H   0  0  0  0  0  0  0  0  0  0  0  0
   -2.5834   -1.6009   -1.0382 H   0  0  0  0  0  0  0  0  0  0  0  0
   -2.1115   -2.0171    0.6263 H   0  0  0  0  0  0  0  0  0  0  0  0
   -4.4394   -1.4126    0.4598 H   0  0  0  0  0  0  0  0  0  0  0  0
   -4.0677    0.1273   -0.3337 H   0  0  0  0  0  0  0  0  0  0  0  0
   -4.6602    0.1752    2.0397 H   0  0  0  0  0  0  0  0  0  0  0  0
   -3.1764    0.8927    1.7846 H   0  0  0  0  0  0  0  0  0  0  0  0
  1  2  1  0
  2  3  1  0
  3  4  1  0
  4  5  1  0
  4  6  1  0
  6  7  2  0
  6  8  1  0
  8  9  1  0
  9 10  1  0
 10 11  1  0
  1 12  1  0
  1 13  1  0
  1 14  1  0
  3 15  1  0
  3 16  1  0
  4 17  1  6
  5 18  1  0
  5 19  1  0
  8 20  1  0
  9 21  1  0
  9 22  1  0
 10 23  1  0
 10 24  1  0
 11 25  1  0
 11 26  1  0
M  END
$$$$

     RDKit          3D

 26 25  0  0  0  0  0  0  0  0999 V2000
    2.4175    1.4960    0.0468 C   0  0  0  0  0  0  0  0  0  0  0  0
    2.9899   -0.0198    0.7810 S   0  0  0  0  0  0  0  0  0  0  0  0
    2.4036   -1.5111    0.0072 C   0  0  0  0  0  0  0  0  0  0  0  0
    0.9322   -1.7664    0.1452 C   0  0  1  0  0  0  0  0  0  0  0  0
    0.5830   -1.8461    1.5397 N   0  0  0  0  0  0  0  0  0  0  0  0
    0.1493   -0.7949   -0.6299 C   0  0  0  0  0  0  0  0  0  0  0  0
    0.3017   -0.6675   -1.8909 O   0  0  0  0  0  0  0  0  0  0  0  0
   -0.8323    0.0747   -0.0536 N   0  0  0  0  0  0  0  0  0  0  0  0
   -1.5886    1.0210   -0.8460 C   0  0  0  0  0  0  0  0  0  0  0  0
   -2.5255    1.7672    0.0519 C   0  0  0  0  0  0  0  0  0  0  0  0
   -3.4117    0.8010    0.6724 N   0  0  0  0  0  0  0  0  0  0  0  0
    1.5798    1.3395   -0.6258 H   0  0  0  0  0  0  0  0  0  0  0  0
    3.2328    1.9611   -0.5531 H   0  0  0  0  0  0  0  0  0  0  0  0
    2.1564    2.2442    0.8494 H   0  0  0  0  0  0  0  0  0  0  0  0
    2.9722   -2.3955    0.3846 H   0  0  0  0  0  0  0  0  0  0  0  0
    2.6943   -1.4612   -1.0822 H   0  0  0  0  0  0  0  0  0  0  0  0
    0.7486   -2.8274   -0.2409 H   0  0  0  0  0  0  0  0  0  0  0  0
   -0.3553   -2.2669    1.6215 H   0  0  0  0  0  0  0  0  0  0  0  0
    1.2572   -2.5112    1.9824 H   0  0  0  0  0  0  0  0  0  0  0  0
   -0.9878    0.0066    0.9637 H   0  0  0  0  0  0  0  0  0  0  0  0
   -2.1899    0.4425   -1.6016 H   0  0  0  0  0  0  0  0  0  0  0  0
   -0.9020    1.6964   -1.4006 H   0  0  0  0  0  0  0  0  0  0  0  0
   -1.9715    2.3051    0.8439 H   0  0  0  0  0  0  0  0  0  0  0  0
   -3.1526    2.5000   -0.4843 H   0  0  0  0  0  0  0  0  0  0  0  0
   -3.5575    0.0231   -0.0076 H   0  0  0  0  0  0  0  0  0  0  0  0
   -2.9435    0.3897    1.5280 H   0  0  0  0  0  0  0  0  0  0  0  0
  1  2  1  0
  2  3  1  0
  3  4  1  0
  4  5  1  0
  4  6  1  0
  6  7  2  0
  6  8  1  0
  8  9  1  0
  9 10  1  0
 10 11  1  0
  1 12  1  0
  1 13  1  0
  1 14  1  0
  3 15  1  0
  3 16  1  0
  4 17  1  6
  5 18  1  0
  5 19  1  0
  8 20  1  0
  9 21  1  0
  9 22  1  0
 10 23  1  0
 10 24  1  0
 11 25  1  0
 11 26  1  0
M  END
$$$$

     RDKit          3D

 26 25  0  0  0  0  0  0  0  0999 V2000
   -4.5764    0.1152    0.1011 C   0  0  0  0  0  0  0  0  0  0  0  0
   -3.4874   -1.2972   -0.1104 S   0  0  0  0  0  0  0  0  0  0  0  0
   -1.7911   -0.9421    0.4093 C   0  0  0  0  0  0  0  0  0  0  0  0
   -1.1418    0.0923   -0.4862 C   0  0  1  0  0  0  0  0  0  0  0  0
   -1.8497    1.3410   -0.4831 N   0  0  0  0  0  0  0  0  0  0  0  0
    0.2683    0.2667   -0.1172 C   0  0  0  0  0  0  0  0  0  0  0  0
    0.6718    1.4210    0.1604 O   0  0  0  0  0  0  0  0  0  0  0  0
    1.1217   -0.8542   -0.0848 N   0  0  0  0  0  0  0  0  0  0  0  0
    2.5044   -0.7499    0.2645 C   0  0  0  0  0  0  0  0  0  0  0  0
    3.2475    0.1358   -0.6743 C   0  0  0  0  0  0  0  0  0  0  0  0
    4.6662    0.2198   -0.2949 N   0  0  0  0  0  0  0  0  0  0  0  0
   -4.2393    0.9311   -0.5925 H   0  0  0  0  0  0  0  0  0  0  0  0
   -5.5799   -0.1772   -0.2564 H   0  0  0  0  0  0  0  0  0  0  0  0
   -4.6348    0.4661    1.1412 H   0  0  0  0  0  0  0  0  0  0  0  0
   -1.2181   -1.8888    0.2699 H   0  0  0  0  0  0  0  0  0  0  0  0
   -1.7412   -0.6973    1.4730 H   0  0  0  0  0  0  0  0  0  0  0  0
   -1.1687   -0.3426   -1.5219 H   0  0  0  0  0  0  0  0  0  0  0  0
   -1.2097    2.0677   -0.8812 H   0  0  0  0  0  0  0  0  0  0  0  0
   -2.1926    1.6112    0.4720 H   0  0  0  0  0  0  0  0  0  0  0  0
    0.7235   -1.7861   -0.3249 H   0  0  0  0  0  0  0  0  0  0  0  0
    2.6083   -0.3612    1.3182 H   0  0  0  0  0  0  0  0  0  0  0  0
    3.0056   -1.7453    0.2547 H   0  0  0  0  0  0  0  0  0  0  0  0
    2.7898    1.1400   -0.6842 H   0  0  0  0  0  0  0  0  0  0  0  0
    3.1896   -0.3165   -1.6825 H   0  0  0  0  0  0  0  0  0  0  0  0
    5.1987    0.2890   -1.1855 H   0  0  0  0  0  0  0  0  0  0  0  0
    4.8354    1.0616    0.2991 H   0  0  0  0  0  0  0  0  0  0  0  0
  1  2  1  0
  2  3  1  0
  3  4  1  0
  4  5  1  0
  4  6  1  0
  6  7  2  0
  6  8  1  0
  8  9  1  0
  9 10  1  0
 10 11  1  0
  1 12  1  0
  1 13  1  0
  1 14  1  0
  3 15  1  0
  3 16  1  0
  4 17  1  6
  5 18  1  0
  5 19  1  0
  8 20  1  0
  9 21  1  0
  9 22  1  0
 10 23  1  0
 10 24  1  0
 11 25  1  0
 11 26  1  0
M  END
$$$$
