
     RDKit          3D

 27 28  0  0  0  0  0  0  0  0999 V2000
    3.4702   -0.5691    0.3192 N   0  0  0  0  0  0  0  0  0  0  0  0
    2.1261   -0.7128    0.7481 C   0  0  0  0  0  0  0  0  0  0  0  0
    1.9044   -1.4638    1.7439 O   0  0  0  0  0  0  0  0  0  0  0  0
    1.0084   -0.0277    0.0815 C   0  0  2  0  0  0  0  0  0  0  0  0
    1.5788    0.7595   -1.0006 N   0  0  0  0  0  0  0  0  0  0  0  0
    0.2043    0.8602    1.0240 C   0  0  0  0  0  0  0  0  0  0  0  0
   -1.2260    0.3436    0.9676 C   0  0  2  0  0  0  0  0  0  0  0  0
   -0.9091   -1.1523    0.7627 C   0  0  0  0  0  0  0  0  0  0  0  0
   -0.0479   -0.9367   -0.4675 C   0  0  1  0  0  0  0  0  0  0  0  0
   -0.9449   -0.0516   -1.3264 C   0  0  0  0  0  0  0  0  0  0  0  0
   -1.8896    0.6142   -0.3451 C   0  0  1  0  0  0  0  0  0  0  0  0
   -3.1328   -0.1370   -0.3924 N   0  0  0  0  0  0  0  0  0  0  0  0
    3.8549   -1.1619   -0.4255 H   0  0  0  0  0  0  0  0  0  0  0  0
    4.0708    0.1461    0.7663 H   0  0  0  0  0  0  0  0  0  0  0  0
    2.5540    1.0364   -0.7943 H   0  0  0  0  0  0  0  0  0  0  0  0
    1.5863    0.1243   -1.8424 H   0  0  0  0  0  0  0  0  0  0  0  0
    0.5749    0.7782    2.0475 H   0  0  0  0  0  0  0  0  0  0  0  0
    0.2330    1.8845    0.6331 H   0  0  0  0  0  0  0  0  0  0  0  0
   -1.8061    0.5332    1.8497 H   0  0  0  0  0  0  0  0  0  0  0  0
   -1.8753   -1.6342    0.5077 H   0  0  0  0  0  0  0  0  0  0  0  0
   -0.3988   -1.5950    1.6098 H   0  0  0  0  0  0  0  0  0  0  0  0
    0.2889   -1.8285   -0.9488 H   0  0  0  0  0  0  0  0  0  0  0  0
   -0.3600    0.7604   -1.8060 H   0  0  0  0  0  0  0  0  0  0  0  0
   -1.4997   -0.6433   -2.0855 H   0  0  0  0  0  0  0  0  0  0  0  0
   -2.0370    1.6852   -0.5596 H   0  0  0  0  0  0  0  0  0  0  0  0
   -3.8212    0.2190    0.3006 H   0  0  0  0  0  0  0  0  0  0  0  0
   -3.5067   -0.0104   -1.3674 H   0  0  0  0  0  0  0  0  0  0  0  0
  1  2  1  0
  2  3  2  0
  2  4  1  0
  4  5  1  6
  4  6  1  0
  6  7  1  0
  7  8  1  0
  8  9  1  0
  9 10  1  0
 10 11  1  0
 11 12  1  0
  9  4  1  0
 11  7  1  0
  1 13  1  0
  1 14  1  0
  5 15  1  0
  5 16  1  0
  6 17  1  0
  6 18  1  0
  7 19  1  1
  8 20  1  0
  8 21  1  0
  9 22  1  6
 10 23  1  0
 10 24  1  0
 11 25  1  6
 12 26  1  0
 12 27  1  0
M  END
$$$$

     RDKit          3D

 27 28  0  0  0  0  0  0  0  0999 V2000
    3.3862   -0.4880    0.4229 N   0  0  0  0  0  0  0  0  0  0  0  0
    2.2167    0.3231    0.5067 C   0  0  0  0  0  0  0  0  0  0  0  0
    2.3101    1.4030    1.1108 O   0  0  0  0  0  0  0  0  0  0  0  0
    0.9827   -0.1467   -0.1122 C   0  0  2  0  0  0  0  0  0  0  0  0
    1.1740   -1.4352   -0.7837 N   0  0  0  0  0  0  0  0  0  0  0  0
    0.3414    0.8508   -1.0572 C   0  0  0  0  0  0  0  0  0  0  0  0
   -1.0325    1.1397   -0.4792 C   0  0  2  0  0  0  0  0  0  0  0  0
   -0.6628    1.0575    1.0135 C   0  0  0  0  0  0  0  0  0  0  0  0
   -0.0855   -0.3381    0.9308 C   0  0  1  0  0  0  0  0  0  0  0  0
   -1.2009   -1.0944    0.2350 C   0  0  0  0  0  0  0  0  0  0  0  0
   -1.8993   -0.0566   -0.6200 C   0  0  1  0  0  0  0  0  0  0  0  0
   -3.2241    0.1181   -0.0743 N   0  0  0  0  0  0  0  0  0  0  0  0
    4.2364   -0.1882   -0.1282 H   0  0  0  0  0  0  0  0  0  0  0  0
    3.4739   -1.4165    0.8948 H   0  0  0  0  0  0  0  0  0  0  0  0
    2.1605   -1.6949   -0.6559 H   0  0  0  0  0  0  0  0  0  0  0  0
    0.8629   -1.3995   -1.7790 H   0  0  0  0  0  0  0  0  0  0  0  0
    0.8917    1.8158   -1.0530 H   0  0  0  0  0  0  0  0  0  0  0  0
    0.2775    0.4544   -2.0909 H   0  0  0  0  0  0  0  0  0  0  0  0
   -1.4480    2.0875   -0.7592 H   0  0  0  0  0  0  0  0  0  0  0  0
    0.0772    1.8177    1.2797 H   0  0  0  0  0  0  0  0  0  0  0  0
   -1.5765    1.0948    1.6385 H   0  0  0  0  0  0  0  0  0  0  0  0
    0.2362   -0.7578    1.8600 H   0  0  0  0  0  0  0  0  0  0  0  0
   -1.8761   -1.6057    0.9204 H   0  0  0  0  0  0  0  0  0  0  0  0
   -0.7426   -1.8262   -0.4612 H   0  0  0  0  0  0  0  0  0  0  0  0
   -2.0261   -0.4012   -1.6663 H   0  0  0  0  0  0  0  0  0  0  0  0
   -3.3891   -0.4265    0.7923 H   0  0  0  0  0  0  0  0  0  0  0  0
   -3.4641    1.1134    0.1149 H   0  0  0  0  0  0  0  0  0  0  0  0
  1  2  1  0
  2  3  2  0
  2  4  1  0
  4  5  1  6
  4  6  1  0
  6  7  1  0
  7  8  1  0
  8  9  1  0
  9 10  1  0
 10 11  1  0
 11 12  1  0
  9  4  1  0
 11  7  1  0
  1 13  1  0
  1 14  1  0
  5 15  1  0
  5 16  1  0
  6 17  1  0
  6 18  1  0
  7 19  1  1
  8 20  1  0
  8 21  1  0
  9 22  1  1
 10 23  1  0
 10 24  1  0
 11 25  1  6
 12 26  1  0
 12 27  1  0
M  END
$$$$

     RDKit          3D

 27 28  0  0  0  0  0  0  0  0999 V2000
    2.9209    0.8484    0.1425 N   0  0  0  0  0  0  0  0  0  0  0  0
    2.2916   -0.3902    0.3013 C   0  0  0  0  0  0  0  0  0  0  0  0
    3.0437   -1.3419    0.7060 O   0  0  0  0  0  0  0  0  0  0  0  0
    0.8912   -0.6959    0.0557 C   0  0  2  0  0  0  0  0  0  0  0  0
    0.6421   -2.1001    0.3380 N   0  0  0  0  0  0  0  0  0  0  0  0
    0.4343   -0.3408   -1.3534 C   0  0  0  0  0  0  0  0  0  0  0  0
   -0.7353    0.6289   -1.1396 C   0  0  2  0  0  0  0  0  0  0  0  0
   -0.1406    1.4037    0.0480 C   0  0  0  0  0  0  0  0  0  0  0  0
    0.0461    0.1966    0.9441 C   0  0  1  0  0  0  0  0  0  0  0  0
   -1.3449   -0.3871    0.9245 C   0  0  0  0  0  0  0  0  0  0  0  0
   -1.8718   -0.0762   -0.4840 C   0  0  1  0  0  0  0  0  0  0  0  0
   -3.0394    0.7463   -0.4400 N   0  0  0  0  0  0  0  0  0  0  0  0
    3.4219    1.0605   -0.7330 H   0  0  0  0  0  0  0  0  0  0  0  0
    2.8907    1.5553    0.8916 H   0  0  0  0  0  0  0  0  0  0  0  0
    1.3143   -2.6647   -0.2190 H   0  0  0  0  0  0  0  0  0  0  0  0
    0.8616   -2.2346    1.3513 H   0  0  0  0  0  0  0  0  0  0  0  0
    0.0212   -1.2264   -1.8649 H   0  0  0  0  0  0  0  0  0  0  0  0
    1.2112    0.1868   -1.9215 H   0  0  0  0  0  0  0  0  0  0  0  0
   -0.9551    1.2428   -1.9886 H   0  0  0  0  0  0  0  0  0  0  0  0
   -0.8693    2.1244    0.4530 H   0  0  0  0  0  0  0  0  0  0  0  0
    0.8052    1.8373   -0.2638 H   0  0  0  0  0  0  0  0  0  0  0  0
    0.4554    0.4005    1.9111 H   0  0  0  0  0  0  0  0  0  0  0  0
   -2.0026    0.0101    1.7021 H   0  0  0  0  0  0  0  0  0  0  0  0
   -1.2621   -1.4875    1.0501 H   0  0  0  0  0  0  0  0  0  0  0  0
   -2.1347   -1.0165   -1.0103 H   0  0  0  0  0  0  0  0  0  0  0  0
   -3.8957    0.1820   -0.1986 H   0  0  0  0  0  0  0  0  0  0  0  0
   -2.9999    1.5383    0.2079 H   0  0  0  0  0  0  0  0  0  0  0  0
  1  2  1  0
  2  3  2  0
  2  4  1  0
  4  5  1  1
  4  6  1  0
  6  7  1  0
  7  8  1  0
  8  9  1  0
  9 10  1  0
 10 11  1  0
 11 12  1  0
  9  4  1  0
 11  7  1  0
  1 13  1  0
  1 14  1  0
  5 15  1  0
  5 16  1  0
  6 17  1  0
  6 18  1  0
  7 19  1  6
  8 20  1  0
  8 21  1  0
  9 22  1  1
 10 23  1  0
 10 24  1  0
 11 25  1  6
 12 26  1  0
 12 27  1  0
M  END
$$$$

     RDKit          3D

 27 28  0  0  0  0  0  0  0  0999 V2000
    3.4577    0.3123    0.1700 N   0  0  0  0  0  0  0  0  0  0  0  0
    2.0969    0.4722    0.5492 C   0  0  0  0  0  0  0  0  0  0  0  0
    1.8571    0.9740    1.6668 O   0  0  0  0  0  0  0  0  0  0  0  0
    0.9714    0.0770   -0.3075 C   0  0  2  0  0  0  0  0  0  0  0  0
    1.4190   -0.4894   -1.5725 N   0  0  0  0  0  0  0  0  0  0  0  0
    0.1060    1.3189   -0.5669 C   0  0  0  0  0  0  0  0  0  0  0  0
   -1.2769    0.9227   -0.1079 C   0  0  2  0  0  0  0  0  0  0  0  0
   -0.9229    0.0281    1.0904 C   0  0  0  0  0  0  0  0  0  0  0  0
    0.0248   -0.8901    0.3126 C   0  0  1  0  0  0  0  0  0  0  0  0
   -0.9349   -1.3536   -0.7880 C   0  0  0  0  0  0  0  0  0  0  0  0
   -1.7959   -0.1109   -1.0612 C   0  0  1  0  0  0  0  0  0  0  0  0
   -3.1823   -0.3515   -0.7875 N   0  0  0  0  0  0  0  0  0  0  0  0
    4.2084    0.1712    0.8967 H   0  0  0  0  0  0  0  0  0  0  0  0
    3.7788    0.3261   -0.8301 H   0  0  0  0  0  0  0  0  0  0  0  0
    1.9341   -1.3529   -1.3608 H   0  0  0  0  0  0  0  0  0  0  0  0
    1.9290    0.1934   -2.1604 H   0  0  0  0  0  0  0  0  0  0  0  0
    0.0902    1.5592   -1.6463 H   0  0  0  0  0  0  0  0  0  0  0  0
    0.4819    2.1949   -0.0341 H   0  0  0  0  0  0  0  0  0  0  0  0
   -1.9373    1.7292    0.1355 H   0  0  0  0  0  0  0  0  0  0  0  0
   -1.7851   -0.5830    1.3657 H   0  0  0  0  0  0  0  0  0  0  0  0
   -0.4337    0.5692    1.8885 H   0  0  0  0  0  0  0  0  0  0  0  0
    0.4397   -1.6846    0.8945 H   0  0  0  0  0  0  0  0  0  0  0  0
   -0.3138   -1.6157   -1.6561 H   0  0  0  0  0  0  0  0  0  0  0  0
   -1.5574   -2.1891   -0.4176 H   0  0  0  0  0  0  0  0  0  0  0  0
   -1.6391    0.2470   -2.0937 H   0  0  0  0  0  0  0  0  0  0  0  0
   -3.6531    0.5569   -0.5129 H   0  0  0  0  0  0  0  0  0  0  0  0
   -3.3626   -1.0317   -0.0420 H   0  0  0  0  0  0  0  0  0  0  0  0
  1  2  1  0
  2  3  2  0
  2  4  1  0
  4  5  1  6
  4  6  1  0
  6  7  1  0
  7  8  1  0
  8  9  1  0
  9 10  1  0
 10 11  1  0
 11 12  1  0
  9  4  1  0
 11  7  1  0
  1 13  1  0
  1 14  1  0
  5 15  1  0
  5 16  1  0
  6 17  1  0
  6 18  1  0
  7 19  1  1
  8 20  1  0
  8 21  1  0
  9 22  1  1
 10 23  1  0
 10 24  1  0
 11 25  1  6
 12 26  1  0
 12 27  1  0
M  END
$$$$

     RDKit          3D

 27 28  0  0  0  0  0  0  0  0999 V2000
   -3.4720    0.1102    0.3424 N   0  0  0  0  0  0  0  0  0  0  0  0
   -2.1394    0.2889    0.8120 C   0  0  0  0  0  0  0  0  0  0  0  0
   -2.0146    0.9407    1.8793 O   0  0  0  0  0  0  0  0  0  0  0  0
   -1.0079   -0.2758    0.0565 C   0  0  2  0  0  0  0  0  0  0  0  0
   -1.4979   -0.9665   -1.1230 N   0  0  0  0  0  0  0  0  0  0  0  0
   -0.1443   -1.1995    0.9084 C   0  0  0  0  0  0  0  0  0  0  0  0
    1.2052   -0.5531    1.0255 C   0  0  2  0  0  0  0  0  0  0  0  0
    0.8293    0.9292    0.8643 C   0  0  0  0  0  0  0  0  0  0  0  0
   -0.0013    0.7332   -0.3879 C   0  0  1  0  0  0  0  0  0  0  0  0
    1.0085   -0.0293   -1.2592 C   0  0  0  0  0  0  0  0  0  0  0  0
    1.9269   -0.7416   -0.2813 C   0  0  1  0  0  0  0  0  0  0  0  0
    3.2050   -0.0164   -0.1989 N   0  0  0  0  0  0  0  0  0  0  0  0
   -4.1035   -0.6484    0.7057 H   0  0  0  0  0  0  0  0  0  0  0  0
   -3.7976    0.7779   -0.3905 H   0  0  0  0  0  0  0  0  0  0  0  0
   -2.5321   -1.1709   -0.9850 H   0  0  0  0  0  0  0  0  0  0  0  0
   -1.4782   -0.3062   -1.9430 H   0  0  0  0  0  0  0  0  0  0  0  0
   -0.6160   -1.4474    1.8627 H   0  0  0  0  0  0  0  0  0  0  0  0
   -0.0081   -2.1448    0.3283 H   0  0  0  0  0  0  0  0  0  0  0  0
    1.7632   -0.7630    1.9114 H   0  0  0  0  0  0  0  0  0  0  0  0
    0.2849    1.3193    1.7093 H   0  0  0  0  0  0  0  0  0  0  0  0
    1.6959    1.5306    0.5909 H   0  0  0  0  0  0  0  0  0  0  0  0
   -0.3724    1.6310   -0.8396 H   0  0  0  0  0  0  0  0  0  0  0  0
    1.5394    0.6494   -1.9221 H   0  0  0  0  0  0  0  0  0  0  0  0
    0.4865   -0.8442   -1.8308 H   0  0  0  0  0  0  0  0  0  0  0  0
    2.0871   -1.7941   -0.5278 H   0  0  0  0  0  0  0  0  0  0  0  0
    3.9802   -0.5867   -0.6034 H   0  0  0  0  0  0  0  0  0  0  0  0
    3.1732    0.8767   -0.7042 H   0  0  0  0  0  0  0  0  0  0  0  0
  1  2  1  0
  2  3  2  0
  2  4  1  0
  4  5  1  6
  4  6  1  0
  6  7  1  0
  7  8  1  0
  8  9  1  0
  9 10  1  0
 10 11  1  0
 11 12  1  0
  9  4  1  0
 11  7  1  0
  1 13  1  0
  1 14  1  0
  5 15  1  0
  5 16  1  0
  6 17  1  0
  6 18  1  0
  7 19  1  1
  8 20  1  0
  8 21  1  0
  9 22  1  6
 10 23  1  0
 10 24  1  0
 11 25  1  6
 12 26  1  0
 12 27  1  0
M  END
$$$$

     RDKit          3D

 27 28  0  0  0  0  0  0  0  0999 V2000
   -3.4674   -0.2532   -0.2035 N   0  0  0  0  0  0  0  0  0  0  0  0
   -2.1818   -0.8490   -0.0223 C   0  0  0  0  0  0  0  0  0  0  0  0
   -2.1578   -2.0415    0.3598 O   0  0  0  0  0  0  0  0  0  0  0  0
   -0.9985   -0.0400   -0.2906 C   0  0  2  0  0  0  0  0  0  0  0  0
   -1.3366    1.3102   -0.7301 N   0  0  0  0  0  0  0  0  0  0  0  0
   -0.0407   -0.6631   -1.2994 C   0  0  0  0  0  0  0  0  0  0  0  0
    1.2718   -0.8662   -0.5830 C   0  0  2  0  0  0  0  0  0  0  0  0
    0.7244   -1.1322    0.8318 C   0  0  0  0  0  0  0  0  0  0  0  0
   -0.0837    0.1548    0.9019 C   0  0  1  0  0  0  0  0  0  0  0  0
    0.9100    1.2126    0.4638 C   0  0  0  0  0  0  0  0  0  0  0  0
    1.9507    0.4452   -0.3268 C   0  0  1  0  0  0  0  0  0  0  0  0
    3.1075    0.3047    0.5160 N   0  0  0  0  0  0  0  0  0  0  0  0
   -4.2520   -0.4983    0.4349 H   0  0  0  0  0  0  0  0  0  0  0  0
   -3.6376    0.4380   -0.9809 H   0  0  0  0  0  0  0  0  0  0  0  0
   -1.8640    1.7723    0.0373 H   0  0  0  0  0  0  0  0  0  0  0  0
   -1.8806    1.2735   -1.6140 H   0  0  0  0  0  0  0  0  0  0  0  0
    0.1433    0.0395   -2.1431 H   0  0  0  0  0  0  0  0  0  0  0  0
   -0.4742   -1.6013   -1.6531 H   0  0  0  0  0  0  0  0  0  0  0  0
    1.8872   -1.6594   -0.9558 H   0  0  0  0  0  0  0  0  0  0  0  0
    1.5585   -1.1353    1.5548 H   0  0  0  0  0  0  0  0  0  0  0  0
    0.1138   -2.0278    0.8324 H   0  0  0  0  0  0  0  0  0  0  0  0
   -0.5699    0.3356    1.8322 H   0  0  0  0  0  0  0  0  0  0  0  0
    1.3434    1.7662    1.3159 H   0  0  0  0  0  0  0  0  0  0  0  0
    0.4631    1.9463   -0.2423 H   0  0  0  0  0  0  0  0  0  0  0  0
    2.1794    0.9216   -1.2972 H   0  0  0  0  0  0  0  0  0  0  0  0
    3.7938   -0.3946    0.1949 H   0  0  0  0  0  0  0  0  0  0  0  0
    3.4978    1.2416    0.7142 H   0  0  0  0  0  0  0  0  0  0  0  0
  1  2  1  0
  2  3  2  0
  2  4  1  0
  4  5  1  6
  4  6  1  0
  6  7  1  0
  7  8  1  0
  8  9  1  0
  9 10  1  0
 10 11  1  0
 11 12  1  0
  9  4  1  0
 11  7  1  0
  1 13  1  0
  1 14  1  0
  5 15  1  0
  5 16  1  0
  6 17  1  0
  6 18  1  0
  7 19  1  6
  8 20  1  0
  8 21  1  0
  9 22  1  1
 10 23  1  0
 10 24  1  0
 11 25  1  6
 12 26  1  0
 12 27  1  0
M  END
$$$$

     RDKit          3D

 27 28  0  0  0  0  0  0  0  0999 V2000
    3.3840    0.3404    0.0239 N   0  0  0  0  0  0  0  0  0  0  0  0
    2.2418   -0.3250   -0.4779 C   0  0  0  0  0  0  0  0  0  0  0  0
    2.3497   -1.1933   -1.3775 O   0  0  0  0  0  0  0  0  0  0  0  0
    0.9256    0.0117    0.0660 C   0  0  2  0  0  0  0  0  0  0  0  0
    1.0325    1.0316    1.0873 N   0  0  0  0  0  0  0  0  0  0  0  0
    0.1830   -1.2051    0.5944 C   0  0  0  0  0  0  0  0  0  0  0  0
   -1.1366   -1.1239   -0.1161 C   0  0  2  0  0  0  0  0  0  0  0  0
   -0.6249   -0.7450   -1.5198 C   0  0  0  0  0  0  0  0  0  0  0  0
    0.0692    0.5478   -1.0574 C   0  0  1  0  0  0  0  0  0  0  0  0
   -1.0860    1.2772   -0.4456 C   0  0  0  0  0  0  0  0  0  0  0  0
   -1.8864    0.1497    0.2210 C   0  0  1  0  0  0  0  0  0  0  0  0
   -3.1743    0.1217   -0.4243 N   0  0  0  0  0  0  0  0  0  0  0  0
    3.5050    1.3656   -0.0342 H   0  0  0  0  0  0  0  0  0  0  0  0
    4.1562   -0.2066    0.4794 H   0  0  0  0  0  0  0  0  0  0  0  0
    1.6354    1.7898    0.7312 H   0  0  0  0  0  0  0  0  0  0  0  0
    1.3829    0.6036    1.9700 H   0  0  0  0  0  0  0  0  0  0  0  0
    0.1065   -1.2127    1.6882 H   0  0  0  0  0  0  0  0  0  0  0  0
    0.7149   -2.0989    0.1929 H   0  0  0  0  0  0  0  0  0  0  0  0
   -1.7330   -2.0173   -0.1124 H   0  0  0  0  0  0  0  0  0  0  0  0
    0.0836   -1.4934   -1.8651 H   0  0  0  0  0  0  0  0  0  0  0  0
   -1.4510   -0.5250   -2.2004 H   0  0  0  0  0  0  0  0  0  0  0  0
    0.5972    1.0529   -1.8417 H   0  0  0  0  0  0  0  0  0  0  0  0
   -1.6929    1.8525   -1.1502 H   0  0  0  0  0  0  0  0  0  0  0  0
   -0.6661    1.9637    0.3416 H   0  0  0  0  0  0  0  0  0  0  0  0
   -2.0214    0.3115    1.2895 H   0  0  0  0  0  0  0  0  0  0  0  0
   -3.1667    0.4487   -1.4009 H   0  0  0  0  0  0  0  0  0  0  0  0
   -3.7283   -0.7222   -0.2454 H   0  0  0  0  0  0  0  0  0  0  0  0
  1  2  1  0
  2  3  2  0
  2  4  1  0
  4  5  1  1
  4  6  1  0
  6  7  1  0
  7  8  1  0
  8  9  1  0
  9 10  1  0
 10 11  1  0
 11 12  1  0
  9  4  1  0
 11  7  1  0
  1 13  1  0
  1 14  1  0
  5 15  1  0
  5 16  1  0
  6 17  1  0
  6 18  1  0
  7 19  1  6
  8 20  1  0
  8 21  1  0
  9 22  1  6
 10 23  1  0
 10 24  1  0
 11 25  1  1
 12 26  1  0
 12 27  1  0
M  END
$$$$

     RDKit          3D

 27 28  0  0  0  0  0  0  0  0999 V2000
    2.8278    1.0292   -0.3377 N   0  0  0  0  0  0  0  0  0  0  0  0
    2.3791   -0.2174    0.1197 C   0  0  0  0  0  0  0  0  0  0  0  0
    3.2351   -1.0576    0.5002 O   0  0  0  0  0  0  0  0  0  0  0  0
    0.9508   -0.5894    0.1754 C   0  0  2  0  0  0  0  0  0  0  0  0
    0.7748   -1.9214    0.6830 N   0  0  0  0  0  0  0  0  0  0  0  0
    0.3485   -0.5364   -1.2344 C   0  0  0  0  0  0  0  0  0  0  0  0
   -0.8296    0.3940   -1.0743 C   0  0  2  0  0  0  0  0  0  0  0  0
   -0.2518    1.4008   -0.0654 C   0  0  0  0  0  0  0  0  0  0  0  0
    0.1160    0.3467    0.9923 C   0  0  1  0  0  0  0  0  0  0  0  0
   -1.2381   -0.3039    1.1906 C   0  0  0  0  0  0  0  0  0  0  0  0
   -1.8470   -0.2983   -0.2188 C   0  0  1  0  0  0  0  0  0  0  0  0
   -3.0780    0.4426   -0.2584 N   0  0  0  0  0  0  0  0  0  0  0  0
    2.7959    1.3754   -1.3148 H   0  0  0  0  0  0  0  0  0  0  0  0
    3.2460    1.7024    0.3708 H   0  0  0  0  0  0  0  0  0  0  0  0
    1.4330   -2.1846    1.4289 H   0  0  0  0  0  0  0  0  0  0  0  0
    0.6823   -2.6367   -0.0690 H   0  0  0  0  0  0  0  0  0  0  0  0
    1.0810   -0.1766   -1.9675 H   0  0  0  0  0  0  0  0  0  0  0  0
    0.0044   -1.5360   -1.5496 H   0  0  0  0  0  0  0  0  0  0  0  0
   -1.1896    0.8493   -1.9757 H   0  0  0  0  0  0  0  0  0  0  0  0
   -1.0322    2.0335    0.3580 H   0  0  0  0  0  0  0  0  0  0  0  0
    0.6229    1.9177   -0.4521 H   0  0  0  0  0  0  0  0  0  0  0  0
    0.5648    0.7569    1.8727 H   0  0  0  0  0  0  0  0  0  0  0  0
   -1.0843   -1.3579    1.4805 H   0  0  0  0  0  0  0  0  0  0  0  0
   -1.8811    0.2485    1.8924 H   0  0  0  0  0  0  0  0  0  0  0  0
   -1.9648   -1.3432   -0.5999 H   0  0  0  0  0  0  0  0  0  0  0  0
   -3.7284    0.2214    0.5056 H   0  0  0  0  0  0  0  0  0  0  0  0
   -2.9375    1.4412   -0.4527 H   0  0  0  0  0  0  0  0  0  0  0  0
  1  2  1  0
  2  3  2  0
  2  4  1  0
  4  5  1  1
  4  6  1  0
  6  7  1  0
  7  8  1  0
  8  9  1  0
  9 10  1  0
 10 11  1  0
 11 12  1  0
  9  4  1  0
 11  7  1  0
  1 13  1  0
  1 14  1  0
  5 15  1  0
  5 16  1  0
  6 17  1  0
  6 18  1  0
  7 19  1  6
  8 20  1  0
  8 21  1  0
  9 22  1  1
 10 23  1  0
 10 24  1  0
 11 25  1  6
 12 26  1  0
 12 27  1  0
M  END
$$$$
