
     RDKit          3D

 22 21  0  0  0  0  0  0  0  0999 V2000
    3.1704    0.5271    0.2484 C   0  0  0  0  0  0  0  0  0  0  0  0
    2.8813   -0.6186   -0.3318 C   0  0  0  0  0  0  0  0  0  0  0  0
    1.6003   -1.6114    0.2467 S   0  0  0  0  0  6  0  0  0  0  0  0
    1.5133   -1.4887    1.7422 O   0  0  0  0  0  0  0  0  0  0  0  0
    1.8221   -3.0438   -0.1703 O   0  0  0  0  0  0  0  0  0  0  0  0
    0.0495   -1.1499   -0.3830 N   0  0  0  0  0  0  0  0  0  0  0  0
   -0.1796    0.2052    0.0770 C   0  0  0  0  0  0  0  0  0  0  0  0
   -1.4978    0.7618   -0.3876 C   0  0  2  0  0  0  0  0  0  0  0  0
   -1.6007    2.0587    0.1146 O   0  0  0  0  0  0  0  0  0  0  0  0
   -2.6138   -0.0576    0.2197 C   0  0  0  0  0  0  0  0  0  0  0  0
   -3.8660    0.4598   -0.0999 O   0  0  0  0  0  0  0  0  0  0  0  0
    2.5843    0.8377    1.1029 H   0  0  0  0  0  0  0  0  0  0  0  0
    3.9682    1.1674   -0.0949 H   0  0  0  0  0  0  0  0  0  0  0  0
    3.4629   -0.9312   -1.1831 H   0  0  0  0  0  0  0  0  0  0  0  0
    0.0177   -1.2435   -1.4130 H   0  0  0  0  0  0  0  0  0  0  0  0
    0.6571    0.8194   -0.3332 H   0  0  0  0  0  0  0  0  0  0  0  0
   -0.1567    0.1840    1.1854 H   0  0  0  0  0  0  0  0  0  0  0  0
   -1.5970    0.7591   -1.4721 H   0  0  0  0  0  0  0  0  0  0  0  0
   -0.9065    2.6080   -0.2931 H   0  0  0  0  0  0  0  0  0  0  0  0
   -2.5154   -1.1173   -0.1038 H   0  0  0  0  0  0  0  0  0  0  0  0
   -2.5416   -0.0694    1.3297 H   0  0  0  0  0  0  0  0  0  0  0  0
   -4.2520    0.9434    0.6606 H   0  0  0  0  0  0  0  0  0  0  0  0
  1  2  2  0
  2  3  1  0
  3  4  2  0
  3  5  2  0
  3  6  1  0
  6  7  1  0
  7  8  1  0
  8  9  1  0
  8 10  1  0
 10 11  1  0
  1 12  1  0
  1 13  1  0
  2 14  1  0
  6 15  1  0
  7 16  1  0
  7 17  1  0
  8 18  1  6
  9 19  1  0
 10 20  1  0
 10 21  1  0
 11 22  1  0
M  END
$$$$

     RDKit          3D

 22 21  0  0  0  0  0  0  0  0999 V2000
    2.6066   -0.6022    0.8327 C   0  0  0  0  0  0  0  0  0  0  0  0
    2.8178    0.1537   -0.2306 C   0  0  0  0  0  0  0  0  0  0  0  0
    1.8695    1.6060   -0.5051 S   0  0  0  0  0  6  0  0  0  0  0  0
    2.5850    2.7902    0.0403 O   0  0  0  0  0  0  0  0  0  0  0  0
    1.7016    1.7641   -1.9991 O   0  0  0  0  0  0  0  0  0  0  0  0
    0.3434    1.3921    0.2324 N   0  0  0  0  0  0  0  0  0  0  0  0
   -0.3513    0.2746   -0.3624 C   0  0  0  0  0  0  0  0  0  0  0  0
   -1.6867    0.1299    0.3217 C   0  0  2  0  0  0  0  0  0  0  0  0
   -1.4806   -0.0967    1.6707 O   0  0  0  0  0  0  0  0  0  0  0  0
   -2.4526   -1.0243   -0.2962 C   0  0  0  0  0  0  0  0  0  0  0  0
   -1.7202   -2.2034   -0.1376 O   0  0  0  0  0  0  0  0  0  0  0  0
    3.1819   -1.4892    1.0054 H   0  0  0  0  0  0  0  0  0  0  0  0
    1.8424   -0.3149    1.5313 H   0  0  0  0  0  0  0  0  0  0  0  0
    3.5876   -0.1282   -0.9423 H   0  0  0  0  0  0  0  0  0  0  0  0
   -0.2331    2.2396    0.2959 H   0  0  0  0  0  0  0  0  0  0  0  0
    0.2184   -0.6476   -0.2443 H   0  0  0  0  0  0  0  0  0  0  0  0
   -0.4927    0.4332   -1.4633 H   0  0  0  0  0  0  0  0  0  0  0  0
   -2.2567    1.0602    0.1168 H   0  0  0  0  0  0  0  0  0  0  0  0
   -2.0559   -0.7710    2.0697 H   0  0  0  0  0  0  0  0  0  0  0  0
   -3.4513   -1.1220    0.1555 H   0  0  0  0  0  0  0  0  0  0  0  0
   -2.5340   -0.8487   -1.3954 H   0  0  0  0  0  0  0  0  0  0  0  0
   -2.0393   -2.5952    0.7362 H   0  0  0  0  0  0  0  0  0  0  0  0
  1  2  2  0
  2  3  1  0
  3  4  2  0
  3  5  2  0
  3  6  1  0
  6  7  1  0
  7  8  1  0
  8  9  1  0
  8 10  1  0
 10 11  1  0
  1 12  1  0
  1 13  1  0
  2 14  1  0
  6 15  1  0
  7 16  1  0
  7 17  1  0
  8 18  1  1
  9 19  1  0
 10 20  1  0
 10 21  1  0
 11 22  1  0
M  END
$$$$

     RDKit          3D

 22 21  0  0  0  0  0  0  0  0999 V2000
   -3.8264    0.1718   -1.1364 C   0  0  0  0  0  0  0  0  0  0  0  0
   -2.7251   -0.4311   -0.7201 C   0  0  0  0  0  0  0  0  0  0  0  0
   -1.9706   -0.0154    0.8044 S   0  0  0  0  0  6  0  0  0  0  0  0
   -2.6722    1.1262    1.4557 O   0  0  0  0  0  0  0  0  0  0  0  0
   -1.9677   -1.2114    1.6960 O   0  0  0  0  0  0  0  0  0  0  0  0
   -0.3563    0.4531    0.4851 N   0  0  0  0  0  0  0  0  0  0  0  0
    0.4336   -0.6085   -0.1113 C   0  0  0  0  0  0  0  0  0  0  0  0
    1.8224   -0.0512   -0.3334 C   0  0  2  0  0  0  0  0  0  0  0  0
    2.6815   -0.9636   -0.8994 O   0  0  0  0  0  0  0  0  0  0  0  0
    2.3547    0.4847    0.9937 C   0  0  0  0  0  0  0  0  0  0  0  0
    3.5707    1.1144    0.8237 O   0  0  0  0  0  0  0  0  0  0  0  0
   -4.2679    0.9332   -0.5262 H   0  0  0  0  0  0  0  0  0  0  0  0
   -4.2967   -0.0791   -2.0744 H   0  0  0  0  0  0  0  0  0  0  0  0
   -2.2910   -1.1988   -1.3486 H   0  0  0  0  0  0  0  0  0  0  0  0
   -0.3695    1.2366   -0.2148 H   0  0  0  0  0  0  0  0  0  0  0  0
    0.4766   -1.5062    0.5445 H   0  0  0  0  0  0  0  0  0  0  0  0
    0.0086   -0.9496   -1.0715 H   0  0  0  0  0  0  0  0  0  0  0  0
    1.7142    0.7940   -1.0460 H   0  0  0  0  0  0  0  0  0  0  0  0
    3.4225   -1.2071   -0.2950 H   0  0  0  0  0  0  0  0  0  0  0  0
    1.6294    1.2066    1.3964 H   0  0  0  0  0  0  0  0  0  0  0  0
    2.4597   -0.3498    1.7093 H   0  0  0  0  0  0  0  0  0  0  0  0
    4.1695    1.0510    1.6051 H   0  0  0  0  0  0  0  0  0  0  0  0
  1  2  2  0
  2  3  1  0
  3  4  2  0
  3  5  2  0
  3  6  1  0
  6  7  1  0
  7  8  1  0
  8  9  1  0
  8 10  1  0
 10 11  1  0
  1 12  1  0
  1 13  1  0
  2 14  1  0
  6 15  1  0
  7 16  1  0
  7 17  1  0
  8 18  1  6
  9 19  1  0
 10 20  1  0
 10 21  1  0
 11 22  1  0
M  END
$$$$

     RDKit          3D

 22 21  0  0  0  0  0  0  0  0999 V2000
    3.5126   -0.8954    0.8745 C   0  0  0  0  0  0  0  0  0  0  0  0
    2.8696    0.2012    0.5000 C   0  0  0  0  0  0  0  0  0  0  0  0
    1.7747    0.1482   -0.8420 S   0  0  0  0  0  6  0  0  0  0  0  0
    1.7259    1.4916   -1.5333 O   0  0  0  0  0  0  0  0  0  0  0  0
    2.2974   -0.8591   -1.8291 O   0  0  0  0  0  0  0  0  0  0  0  0
    0.1978   -0.3659   -0.3764 N   0  0  0  0  0  0  0  0  0  0  0  0
   -0.4071    0.5411    0.5844 C   0  0  0  0  0  0  0  0  0  0  0  0
   -1.7670    0.0127    0.9262 C   0  0  2  0  0  0  0  0  0  0  0  0
   -1.7134   -1.2580    1.4807 O   0  0  0  0  0  0  0  0  0  0  0  0
   -2.6914   -0.0307   -0.2626 C   0  0  0  0  0  0  0  0  0  0  0  0
   -2.7735    1.2430   -0.8589 O   0  0  0  0  0  0  0  0  0  0  0  0
    4.2110   -0.9092    1.7131 H   0  0  0  0  0  0  0  0  0  0  0  0
    3.3832   -1.8502    0.3679 H   0  0  0  0  0  0  0  0  0  0  0  0
    3.0558    1.1093    1.0581 H   0  0  0  0  0  0  0  0  0  0  0  0
   -0.4002   -0.2991   -1.2476 H   0  0  0  0  0  0  0  0  0  0  0  0
    0.2070    0.5618    1.5083 H   0  0  0  0  0  0  0  0  0  0  0  0
   -0.4101    1.5462    0.1728 H   0  0  0  0  0  0  0  0  0  0  0  0
   -2.2497    0.6662    1.7014 H   0  0  0  0  0  0  0  0  0  0  0  0
   -2.1372   -1.9394    0.9025 H   0  0  0  0  0  0  0  0  0  0  0  0
   -3.7203   -0.2917    0.0235 H   0  0  0  0  0  0  0  0  0  0  0  0
   -2.3781   -0.7364   -1.0395 H   0  0  0  0  0  0  0  0  0  0  0  0
   -2.5870    1.9138   -0.1666 H   0  0  0  0  0  0  0  0  0  0  0  0
  1  2  2  0
  2  3  1  0
  3  4  2  0
  3  5  2  0
  3  6  1  0
  6  7  1  0
  7  8  1  0
  8  9  1  0
  8 10  1  0
 10 11  1  0
  1 12  1  0
  1 13  1  0
  2 14  1  0
  6 15  1  0
  7 16  1  0
  7 17  1  0
  8 18  1  1
  9 19  1  0
 10 20  1  0
 10 21  1  0
 11 22  1  0
M  END
$$$$

     RDKit          3D

 22 21  0  0  0  0  0  0  0  0999 V2000
    2.7684    1.3796   -1.0800 C   0  0  0  0  0  0  0  0  0  0  0  0
    2.8911    0.6241   -0.0021 C   0  0  0  0  0  0  0  0  0  0  0  0
    1.6798    0.6924    1.2355 S   0  0  0  0  0  6  0  0  0  0  0  0
    1.1519    2.0973    1.4296 O   0  0  0  0  0  0  0  0  0  0  0  0
    2.3176    0.3173    2.5667 O   0  0  0  0  0  0  0  0  0  0  0  0
    0.4028   -0.3941    0.9581 N   0  0  0  0  0  0  0  0  0  0  0  0
   -0.3022   -0.1239   -0.2647 C   0  0  0  0  0  0  0  0  0  0  0  0
   -1.4302   -1.0628   -0.5354 C   0  0  2  0  0  0  0  0  0  0  0  0
   -2.0556   -0.7436   -1.7177 O   0  0  0  0  0  0  0  0  0  0  0  0
   -2.4517   -0.8710    0.5864 C   0  0  0  0  0  0  0  0  0  0  0  0
   -2.8866    0.4596    0.6082 O   0  0  0  0  0  0  0  0  0  0  0  0
    1.9117    2.0456   -1.1976 H   0  0  0  0  0  0  0  0  0  0  0  0
    3.5094    1.3604   -1.8733 H   0  0  0  0  0  0  0  0  0  0  0  0
    3.7560   -0.0188    0.0694 H   0  0  0  0  0  0  0  0  0  0  0  0
    0.6065   -1.3746    1.1462 H   0  0  0  0  0  0  0  0  0  0  0  0
   -0.7485    0.9029   -0.1543 H   0  0  0  0  0  0  0  0  0  0  0  0
    0.3444   -0.0847   -1.1575 H   0  0  0  0  0  0  0  0  0  0  0  0
   -1.1386   -2.1252   -0.5237 H   0  0  0  0  0  0  0  0  0  0  0  0
   -1.5951   -1.2017   -2.4650 H   0  0  0  0  0  0  0  0  0  0  0  0
   -1.9592   -1.0415    1.5845 H   0  0  0  0  0  0  0  0  0  0  0  0
   -3.3218   -1.5176    0.4816 H   0  0  0  0  0  0  0  0  0  0  0  0
   -3.4501    0.6803   -0.1651 H   0  0  0  0  0  0  0  0  0  0  0  0
  1  2  2  0
  2  3  1  0
  3  4  2  0
  3  5  2  0
  3  6  1  0
  6  7  1  0
  7  8  1  0
  8  9  1  0
  8 10  1  0
 10 11  1  0
  1 12  1  0
  1 13  1  0
  2 14  1  0
  6 15  1  0
  7 16  1  0
  7 17  1  0
  8 18  1  6
  9 19  1  0
 10 20  1  0
 10 21  1  0
 11 22  1  0
M  END
$$$$

     RDKit          3D

 22 21  0  0  0  0  0  0  0  0999 V2000
   -3.2145    0.8063   -0.8836 C   0  0  0  0  0  0  0  0  0  0  0  0
   -2.8508    0.3634    0.2970 C   0  0  0  0  0  0  0  0  0  0  0  0
   -2.1094   -1.2155    0.4806 S   0  0  0  0  0  6  0  0  0  0  0  0
   -2.8887   -2.0207    1.4543 O   0  0  0  0  0  0  0  0  0  0  0  0
   -2.1333   -1.9166   -0.8682 O   0  0  0  0  0  0  0  0  0  0  0  0
   -0.4597   -1.0657    0.9538 N   0  0  0  0  0  0  0  0  0  0  0  0
    0.3015   -0.3646   -0.0421 C   0  0  0  0  0  0  0  0  0  0  0  0
    1.7512   -0.2314    0.3709 C   0  0  2  0  0  0  0  0  0  0  0  0
    1.8906    0.4646    1.5595 O   0  0  0  0  0  0  0  0  0  0  0  0
    2.5693    0.4150   -0.7216 C   0  0  0  0  0  0  0  0  0  0  0  0
    3.9021    0.3969   -0.3140 O   0  0  0  0  0  0  0  0  0  0  0  0
   -3.6734    1.7790   -1.0125 H   0  0  0  0  0  0  0  0  0  0  0  0
   -3.0682    0.2121   -1.7763 H   0  0  0  0  0  0  0  0  0  0  0  0
   -3.0144    0.9891    1.1675 H   0  0  0  0  0  0  0  0  0  0  0  0
   -0.3694   -0.6418    1.8905 H   0  0  0  0  0  0  0  0  0  0  0  0
    0.2437   -0.9064   -0.9984 H   0  0  0  0  0  0  0  0  0  0  0  0
   -0.1117    0.6651   -0.1334 H   0  0  0  0  0  0  0  0  0  0  0  0
    2.1762   -1.2494    0.5335 H   0  0  0  0  0  0  0  0  0  0  0  0
    2.3012    1.3431    1.4736 H   0  0  0  0  0  0  0  0  0  0  0  0
    2.5097   -0.1384   -1.6621 H   0  0  0  0  0  0  0  0  0  0  0  0
    2.1950    1.4460   -0.8801 H   0  0  0  0  0  0  0  0  0  0  0  0
    4.0529    0.8698    0.5407 H   0  0  0  0  0  0  0  0  0  0  0  0
  1  2  2  0
  2  3  1  0
  3  4  2  0
  3  5  2  0
  3  6  1  0
  6  7  1  0
  7  8  1  0
  8  9  1  0
  8 10  1  0
 10 11  1  0
  1 12  1  0
  1 13  1  0
  2 14  1  0
  6 15  1  0
  7 16  1  0
  7 17  1  0
  8 18  1  1
  9 19  1  0
 10 20  1  0
 10 21  1  0
 11 22  1  0
M  END
$$$$

     RDKit          3D

 22 21  0  0  0  0  0  0  0  0999 V2000
    3.9818    0.5454   -0.3894 C   0  0  0  0  0  0  0  0  0  0  0  0
    2.7668    0.0253   -0.4226 C   0  0  0  0  0  0  0  0  0  0  0  0
    1.8439   -0.2621    1.0028 S   0  0  0  0  0  6  0  0  0  0  0  0
    2.4597    0.4113    2.2076 O   0  0  0  0  0  0  0  0  0  0  0  0
    1.7722   -1.7457    1.3338 O   0  0  0  0  0  0  0  0  0  0  0  0
    0.2154    0.2879    0.8837 N   0  0  0  0  0  0  0  0  0  0  0  0
   -0.4085   -0.4490   -0.1946 C   0  0  0  0  0  0  0  0  0  0  0  0
   -1.8501   -0.0584   -0.4052 C   0  0  2  0  0  0  0  0  0  0  0  0
   -1.9768    1.2858   -0.7171 O   0  0  0  0  0  0  0  0  0  0  0  0
   -2.7243   -0.4156    0.7691 C   0  0  0  0  0  0  0  0  0  0  0  0
   -4.0453   -0.1301    0.4035 O   0  0  0  0  0  0  0  0  0  0  0  0
    4.4198    0.8026    0.5622 H   0  0  0  0  0  0  0  0  0  0  0  0
    4.5520    0.7216   -1.2894 H   0  0  0  0  0  0  0  0  0  0  0  0
    2.3498   -0.2239   -1.3882 H   0  0  0  0  0  0  0  0  0  0  0  0
    0.1156    1.3013    0.8033 H   0  0  0  0  0  0  0  0  0  0  0  0
    0.1096   -0.2713   -1.1600 H   0  0  0  0  0  0  0  0  0  0  0  0
   -0.3903   -1.5366   -0.0119 H   0  0  0  0  0  0  0  0  0  0  0  0
   -2.2156   -0.6485   -1.2740 H   0  0  0  0  0  0  0  0  0  0  0  0
   -1.7083    1.4553   -1.6420 H   0  0  0  0  0  0  0  0  0  0  0  0
   -2.4986    0.1646    1.6782 H   0  0  0  0  0  0  0  0  0  0  0  0
   -2.6560   -1.5049    0.9603 H   0  0  0  0  0  0  0  0  0  0  0  0
   -4.1127    0.2448   -0.5116 H   0  0  0  0  0  0  0  0  0  0  0  0
  1  2  2  0
  2  3  1  0
  3  4  2  0
  3  5  2  0
  3  6  1  0
  6  7  1  0
  7  8  1  0
  8  9  1  0
  8 10  1  0
 10 11  1  0
  1 12  1  0
  1 13  1  0
  2 14  1  0
  6 15  1  0
  7 16  1  0
  7 17  1  0
  8 18  1  6
  9 19  1  0
 10 20  1  0
 10 21  1  0
 11 22  1  0
M  END
$$$$

     RDKit          3D

 22 21  0  0  0  0  0  0  0  0999 V2000
    3.3291    0.4561   -0.7293 C   0  0  0  0  0  0  0  0  0  0  0  0
    2.4893   -0.5158   -0.4321 C   0  0  0  0  0  0  0  0  0  0  0  0
    1.2762   -1.0457   -1.5617 S   0  0  0  0  0  6  0  0  0  0  0  0
    1.2431   -2.5153   -1.7547 O   0  0  0  0  0  0  0  0  0  0  0  0
    1.5745   -0.4272   -2.9205 O   0  0  0  0  0  0  0  0  0  0  0  0
   -0.2682   -0.4239   -1.0715 N   0  0  0  0  0  0  0  0  0  0  0  0
   -0.5613   -0.9595    0.2193 C   0  0  0  0  0  0  0  0  0  0  0  0
   -1.8807   -0.5074    0.7830 C   0  0  2  0  0  0  0  0  0  0  0  0
   -2.9354   -0.8783   -0.0334 O   0  0  0  0  0  0  0  0  0  0  0  0
   -1.8985    0.9617    1.1114 C   0  0  0  0  0  0  0  0  0  0  0  0
   -0.8140    1.2506    1.9296 O   0  0  0  0  0  0  0  0  0  0  0  0
    3.2641    0.9321   -1.6896 H   0  0  0  0  0  0  0  0  0  0  0  0
    4.0724    0.7719   -0.0214 H   0  0  0  0  0  0  0  0  0  0  0  0
    2.5416   -1.0081    0.5357 H   0  0  0  0  0  0  0  0  0  0  0  0
   -0.3310    0.5907   -1.1685 H   0  0  0  0  0  0  0  0  0  0  0  0
   -0.6304   -2.0743    0.1094 H   0  0  0  0  0  0  0  0  0  0  0  0
    0.2399   -0.7902    0.9666 H   0  0  0  0  0  0  0  0  0  0  0  0
   -2.0127   -1.0497    1.7551 H   0  0  0  0  0  0  0  0  0  0  0  0
   -3.0519   -0.2073   -0.7412 H   0  0  0  0  0  0  0  0  0  0  0  0
   -1.9573    1.6174    0.2395 H   0  0  0  0  0  0  0  0  0  0  0  0
   -2.8218    1.1298    1.7402 H   0  0  0  0  0  0  0  0  0  0  0  0
   -0.8670    0.6694    2.7340 H   0  0  0  0  0  0  0  0  0  0  0  0
  1  2  2  0
  2  3  1  0
  3  4  2  0
  3  5  2  0
  3  6  1  0
  6  7  1  0
  7  8  1  0
  8  9  1  0
  8 10  1  0
 10 11  1  0
  1 12  1  0
  1 13  1  0
  2 14  1  0
  6 15  1  0
  7 16  1  0
  7 17  1  0
  8 18  1  1
  9 19  1  0
 10 20  1  0
 10 21  1  0
 11 22  1  0
M  END
$$$$
