
     RDKit          3D

 26 26  0  0  0  0  0  0  0  0999 V2000
    0.1738   -1.7584   -0.7135 C   0  0  0  0  0  0  0  0  0  0  0  0
    0.0089   -0.5753    0.2532 C   0  0  1  0  0  0  0  0  0  0  0  0
    0.3737   -1.0793    1.5611 N   0  0  0  0  0  0  0  0  0  0  0  0
    0.9662    0.4849   -0.2089 C   0  0  0  0  0  0  0  0  0  0  0  0
    2.3727    0.0086   -0.1886 C   0  0  0  0  0  0  0  0  0  0  0  0
    3.4832    0.7932   -0.5718 N   0  0  0  0  0  0  0  0  0  0  0  0
    2.5980   -1.1667    0.1928 O   0  0  0  0  0  0  0  0  0  0  0  0
   -1.4096   -0.2026    0.2475 C   0  0  1  0  0  0  0  0  0  0  0  0
   -1.9348    0.8987    1.0631 C   0  0  0  0  0  0  0  0  0  0  0  0
   -2.4757    1.5404   -0.2009 C   0  0  0  0  0  0  0  0  0  0  0  0
   -1.7422    0.5623   -0.9658 N   0  0  0  0  0  0  0  0  0  0  0  0
    0.7566   -2.5733   -0.2648 H   0  0  0  0  0  0  0  0  0  0  0  0
   -0.7995   -2.1743   -1.0153 H   0  0  0  0  0  0  0  0  0  0  0  0
    0.6838   -1.4397   -1.6483 H   0  0  0  0  0  0  0  0  0  0  0  0
    0.4481   -2.1144    1.5952 H   0  0  0  0  0  0  0  0  0  0  0  0
    1.1870   -0.6145    1.9803 H   0  0  0  0  0  0  0  0  0  0  0  0
    0.9191    1.4164    0.3737 H   0  0  0  0  0  0  0  0  0  0  0  0
    0.7462    0.7636   -1.2611 H   0  0  0  0  0  0  0  0  0  0  0  0
    4.1966    1.0516    0.1116 H   0  0  0  0  0  0  0  0  0  0  0  0
    3.5515    1.0971   -1.5635 H   0  0  0  0  0  0  0  0  0  0  0  0
   -2.0706   -1.0987    0.2882 H   0  0  0  0  0  0  0  0  0  0  0  0
   -2.7833    0.6124    1.7256 H   0  0  0  0  0  0  0  0  0  0  0  0
   -1.2492    1.5563    1.6076 H   0  0  0  0  0  0  0  0  0  0  0  0
   -3.5606    1.4133   -0.3562 H   0  0  0  0  0  0  0  0  0  0  0  0
   -2.1476    2.5788   -0.3766 H   0  0  0  0  0  0  0  0  0  0  0  0
   -2.2922    0.0195   -1.6647 H   0  0  0  0  0  0  0  0  0  0  0  0
  1  2  1  0
  2  3  1  1
  2  4  1  0
  4  5  1  0
  5  6  1  0
  5  7  2  0
  2  8  1  0
  8  9  1  0
  9 10  1  0
 10 11  1  0
 11  8  1  0
  1 12  1  0
  1 13  1  0
  1 14  1  0
  3 15  1  0
  3 16  1  0
  4 17  1  0
  4 18  1  0
  6 19  1  0
  6 20  1  0
  8 21  1  6
  9 22  1  0
  9 23  1  0
 10 24  1  0
 10 25  1  0
 11 26  1  0
M  END
$$$$

     RDKit          3D

 26 26  0  0  0  0  0  0  0  0999 V2000
    0.4589   -0.7342   -1.7682 C   0  0  0  0  0  0  0  0  0  0  0  0
    0.1737   -0.2121   -0.3786 C   0  0  1  0  0  0  0  0  0  0  0  0
    0.1728   -1.3569    0.5114 N   0  0  0  0  0  0  0  0  0  0  0  0
    1.1949    0.7914    0.0805 C   0  0  0  0  0  0  0  0  0  0  0  0
    2.5593    0.2386    0.1268 C   0  0  0  0  0  0  0  0  0  0  0  0
    3.6292    1.0659    0.5341 N   0  0  0  0  0  0  0  0  0  0  0  0
    2.7525   -0.9513   -0.1938 O   0  0  0  0  0  0  0  0  0  0  0  0
   -1.2204    0.3638   -0.3875 C   0  0  1  0  0  0  0  0  0  0  0  0
   -2.3050   -0.6283   -0.7470 C   0  0  0  0  0  0  0  0  0  0  0  0
   -3.1184    0.2203    0.2383 C   0  0  0  0  0  0  0  0  0  0  0  0
   -1.8402    0.4750    0.9171 N   0  0  0  0  0  0  0  0  0  0  0  0
    0.8177    0.1114   -2.3952 H   0  0  0  0  0  0  0  0  0  0  0  0
   -0.5261   -1.0363   -2.2078 H   0  0  0  0  0  0  0  0  0  0  0  0
    1.1718   -1.5843   -1.7798 H   0  0  0  0  0  0  0  0  0  0  0  0
    0.9215   -1.2630    1.2344 H   0  0  0  0  0  0  0  0  0  0  0  0
    0.2187   -2.2625    0.0221 H   0  0  0  0  0  0  0  0  0  0  0  0
    0.9257    1.0426    1.1490 H   0  0  0  0  0  0  0  0  0  0  0  0
    1.1439    1.7225   -0.5295 H   0  0  0  0  0  0  0  0  0  0  0  0
    4.5065    0.6985    0.9784 H   0  0  0  0  0  0  0  0  0  0  0  0
    3.6013    2.1072    0.4113 H   0  0  0  0  0  0  0  0  0  0  0  0
   -1.3120    1.2574   -1.0062 H   0  0  0  0  0  0  0  0  0  0  0  0
   -2.1822   -1.6389   -0.3080 H   0  0  0  0  0  0  0  0  0  0  0  0
   -2.6628   -0.5860   -1.7789 H   0  0  0  0  0  0  0  0  0  0  0  0
   -3.4604    1.1248   -0.2707 H   0  0  0  0  0  0  0  0  0  0  0  0
   -3.8413   -0.3485    0.8269 H   0  0  0  0  0  0  0  0  0  0  0  0
   -1.7796    1.3829    1.3819 H   0  0  0  0  0  0  0  0  0  0  0  0
  1  2  1  0
  2  3  1  1
  2  4  1  0
  4  5  1  0
  5  6  1  0
  5  7  2  0
  2  8  1  0
  8  9  1  0
  9 10  1  0
 10 11  1  0
 11  8  1  0
  1 12  1  0
  1 13  1  0
  1 14  1  0
  3 15  1  0
  3 16  1  0
  4 17  1  0
  4 18  1  0
  6 19  1  0
  6 20  1  0
  8 21  1  6
  9 22  1  0
  9 23  1  0
 10 24  1  0
 10 25  1  0
 11 26  1  0
M  END
$$$$

     RDKit          3D

 26 26  0  0  0  0  0  0  0  0999 V2000
   -0.2845   -1.9345   -0.7018 C   0  0  0  0  0  0  0  0  0  0  0  0
    0.0395   -0.6002   -0.0291 C   0  0  1  0  0  0  0  0  0  0  0  0
   -0.1947   -0.7576    1.3836 N   0  0  0  0  0  0  0  0  0  0  0  0
    1.5102   -0.4250   -0.2557 C   0  0  0  0  0  0  0  0  0  0  0  0
    2.1384    0.7602    0.2874 C   0  0  0  0  0  0  0  0  0  0  0  0
    3.5223    0.9590    0.0320 N   0  0  0  0  0  0  0  0  0  0  0  0
    1.5489    1.6196    0.9643 O   0  0  0  0  0  0  0  0  0  0  0  0
   -0.8249    0.4993   -0.5773 C   0  0  1  0  0  0  0  0  0  0  0  0
   -2.3117    0.2940   -0.4136 C   0  0  0  0  0  0  0  0  0  0  0  0
   -2.2411    1.1991    0.7967 C   0  0  0  0  0  0  0  0  0  0  0  0
   -0.9562    1.6304    0.3166 N   0  0  0  0  0  0  0  0  0  0  0  0
    0.4271   -2.6683   -0.2563 H   0  0  0  0  0  0  0  0  0  0  0  0
   -1.2950   -2.2679   -0.4610 H   0  0  0  0  0  0  0  0  0  0  0  0
   -0.0944   -1.8710   -1.7974 H   0  0  0  0  0  0  0  0  0  0  0  0
    0.6589   -1.2274    1.7795 H   0  0  0  0  0  0  0  0  0  0  0  0
   -1.0222   -1.3902    1.5403 H   0  0  0  0  0  0  0  0  0  0  0  0
    1.9847   -1.3193    0.2642 H   0  0  0  0  0  0  0  0  0  0  0  0
    1.7854   -0.6168   -1.3330 H   0  0  0  0  0  0  0  0  0  0  0  0
    3.8305    1.8459   -0.3722 H   0  0  0  0  0  0  0  0  0  0  0  0
    4.1836    0.1902    0.2662 H   0  0  0  0  0  0  0  0  0  0  0  0
   -0.6013    0.8235   -1.6121 H   0  0  0  0  0  0  0  0  0  0  0  0
   -2.6344   -0.7166   -0.1162 H   0  0  0  0  0  0  0  0  0  0  0  0
   -2.9463    0.7310   -1.1911 H   0  0  0  0  0  0  0  0  0  0  0  0
   -2.2203    0.6749    1.7766 H   0  0  0  0  0  0  0  0  0  0  0  0
   -3.0268    2.0062    0.7897 H   0  0  0  0  0  0  0  0  0  0  0  0
   -0.9757    2.5617   -0.1122 H   0  0  0  0  0  0  0  0  0  0  0  0
  1  2  1  0
  2  3  1  1
  2  4  1  0
  4  5  1  0
  5  6  1  0
  5  7  2  0
  2  8  1  0
  8  9  1  0
  9 10  1  0
 10 11  1  0
 11  8  1  0
  1 12  1  0
  1 13  1  0
  1 14  1  0
  3 15  1  0
  3 16  1  0
  4 17  1  0
  4 18  1  0
  6 19  1  0
  6 20  1  0
  8 21  1  6
  9 22  1  0
  9 23  1  0
 10 24  1  0
 10 25  1  0
 11 26  1  0
M  END
$$$$

     RDKit          3D

 26 26  0  0  0  0  0  0  0  0999 V2000
    0.3538   -1.9140    0.4307 C   0  0  0  0  0  0  0  0  0  0  0  0
    0.1822   -0.4141    0.3672 C   0  0  1  0  0  0  0  0  0  0  0  0
    0.4741    0.0291    1.7482 N   0  0  0  0  0  0  0  0  0  0  0  0
    1.1406    0.2516   -0.5284 C   0  0  0  0  0  0  0  0  0  0  0  0
    2.5565    0.0617   -0.1549 C   0  0  0  0  0  0  0  0  0  0  0  0
    3.3708    1.1079    0.3559 N   0  0  0  0  0  0  0  0  0  0  0  0
    3.0721   -1.0732   -0.2942 O   0  0  0  0  0  0  0  0  0  0  0  0
   -1.2469   -0.1357    0.1386 C   0  0  1  0  0  0  0  0  0  0  0  0
   -1.7119    1.2832    0.0325 C   0  0  0  0  0  0  0  0  0  0  0  0
   -2.8552    0.5850   -0.7309 C   0  0  0  0  0  0  0  0  0  0  0  0
   -1.8008   -0.3402   -1.1840 N   0  0  0  0  0  0  0  0  0  0  0  0
   -0.3945   -2.2537    1.2164 H   0  0  0  0  0  0  0  0  0  0  0  0
    1.3604   -2.2434    0.6766 H   0  0  0  0  0  0  0  0  0  0  0  0
   -0.0671   -2.3289   -0.5153 H   0  0  0  0  0  0  0  0  0  0  0  0
    0.0652    0.9775    1.9034 H   0  0  0  0  0  0  0  0  0  0  0  0
    0.1030   -0.6749    2.4278 H   0  0  0  0  0  0  0  0  0  0  0  0
    1.0472   -0.1869   -1.5649 H   0  0  0  0  0  0  0  0  0  0  0  0
    0.9992    1.3429   -0.6396 H   0  0  0  0  0  0  0  0  0  0  0  0
    3.0126    1.8060    1.0304 H   0  0  0  0  0  0  0  0  0  0  0  0
    4.3485    1.1647    0.0395 H   0  0  0  0  0  0  0  0  0  0  0  0
   -1.8854   -0.6850    0.8765 H   0  0  0  0  0  0  0  0  0  0  0  0
   -2.0161    1.7990    0.9429 H   0  0  0  0  0  0  0  0  0  0  0  0
   -1.1852    1.9122   -0.7231 H   0  0  0  0  0  0  0  0  0  0  0  0
   -3.3304    1.1603   -1.5108 H   0  0  0  0  0  0  0  0  0  0  0  0
   -3.4769    0.0536    0.0113 H   0  0  0  0  0  0  0  0  0  0  0  0
   -2.1157   -1.2847   -1.4238 H   0  0  0  0  0  0  0  0  0  0  0  0
  1  2  1  0
  2  3  1  1
  2  4  1  0
  4  5  1  0
  5  6  1  0
  5  7  2  0
  2  8  1  0
  8  9  1  0
  9 10  1  0
 10 11  1  0
 11  8  1  0
  1 12  1  0
  1 13  1  0
  1 14  1  0
  3 15  1  0
  3 16  1  0
  4 17  1  0
  4 18  1  0
  6 19  1  0
  6 20  1  0
  8 21  1  1
  9 22  1  0
  9 23  1  0
 10 24  1  0
 10 25  1  0
 11 26  1  0
M  END
$$$$

     RDKit          3D

 26 26  0  0  0  0  0  0  0  0999 V2000
    0.0894   -1.0354   -1.3285 C   0  0  0  0  0  0  0  0  0  0  0  0
    0.1719   -0.4511    0.0616 C   0  0  1  0  0  0  0  0  0  0  0  0
    0.3974   -1.5402    0.9608 N   0  0  0  0  0  0  0  0  0  0  0  0
    1.1776    0.6504    0.1997 C   0  0  0  0  0  0  0  0  0  0  0  0
    2.5523    0.2496   -0.1265 C   0  0  0  0  0  0  0  0  0  0  0  0
    3.6217    0.5014    0.7566 N   0  0  0  0  0  0  0  0  0  0  0  0
    2.7798   -0.3264   -1.2060 O   0  0  0  0  0  0  0  0  0  0  0  0
   -1.1948    0.1014    0.4029 C   0  0  1  0  0  0  0  0  0  0  0  0
   -1.6824    1.1813   -0.5551 C   0  0  0  0  0  0  0  0  0  0  0  0
   -3.0437    0.6188   -0.1082 C   0  0  0  0  0  0  0  0  0  0  0  0
   -2.3319   -0.6769   -0.0392 N   0  0  0  0  0  0  0  0  0  0  0  0
    0.9428   -1.7039   -1.5779 H   0  0  0  0  0  0  0  0  0  0  0  0
    0.1137   -0.2004   -2.0463 H   0  0  0  0  0  0  0  0  0  0  0  0
   -0.8914   -1.5721   -1.4645 H   0  0  0  0  0  0  0  0  0  0  0  0
    1.3133   -1.9840    0.9146 H   0  0  0  0  0  0  0  0  0  0  0  0
   -0.0155   -1.4292    1.8976 H   0  0  0  0  0  0  0  0  0  0  0  0
    0.8227    1.4768   -0.4858 H   0  0  0  0  0  0  0  0  0  0  0  0
    1.1777    1.0262    1.2621 H   0  0  0  0  0  0  0  0  0  0  0  0
    3.5149    0.8863    1.7156 H   0  0  0  0  0  0  0  0  0  0  0  0
    4.6133    0.2984    0.4709 H   0  0  0  0  0  0  0  0  0  0  0  0
   -1.3001    0.4109    1.4592 H   0  0  0  0  0  0  0  0  0  0  0  0
   -1.4579    2.1873   -0.2180 H   0  0  0  0  0  0  0  0  0  0  0  0
   -1.5099    0.9416   -1.6146 H   0  0  0  0  0  0  0  0  0  0  0  0
   -3.8115    0.6649   -0.8749 H   0  0  0  0  0  0  0  0  0  0  0  0
   -3.2747    1.0335    0.8988 H   0  0  0  0  0  0  0  0  0  0  0  0
   -2.7747   -1.3095    0.6452 H   0  0  0  0  0  0  0  0  0  0  0  0
  1  2  1  0
  2  3  1  1
  2  4  1  0
  4  5  1  0
  5  6  1  0
  5  7  2  0
  2  8  1  0
  8  9  1  0
  9 10  1  0
 10 11  1  0
 11  8  1  0
  1 12  1  0
  1 13  1  0
  1 14  1  0
  3 15  1  0
  3 16  1  0
  4 17  1  0
  4 18  1  0
  6 19  1  0
  6 20  1  0
  8 21  1  1
  9 22  1  0
  9 23  1  0
 10 24  1  0
 10 25  1  0
 11 26  1  0
M  END
$$$$

     RDKit          3D

 26 26  0  0  0  0  0  0  0  0999 V2000
   -0.5223   -1.8814   -0.4430 C   0  0  0  0  0  0  0  0  0  0  0  0
    0.1890   -0.7803    0.3158 C   0  0  1  0  0  0  0  0  0  0  0  0
    0.7879   -1.3218    1.5122 N   0  0  0  0  0  0  0  0  0  0  0  0
    1.2862   -0.2148   -0.5470 C   0  0  0  0  0  0  0  0  0  0  0  0
    2.0729    0.8575    0.0866 C   0  0  0  0  0  0  0  0  0  0  0  0
    3.0999    1.4578   -0.7318 N   0  0  0  0  0  0  0  0  0  0  0  0
    1.9002    1.2551    1.2505 O   0  0  0  0  0  0  0  0  0  0  0  0
   -0.7320    0.3283    0.6962 C   0  0  1  0  0  0  0  0  0  0  0  0
   -1.4274    1.0624   -0.4064 C   0  0  0  0  0  0  0  0  0  0  0  0
   -2.4744    1.2536    0.7021 C   0  0  0  0  0  0  0  0  0  0  0  0
   -2.0748   -0.1035    1.1204 N   0  0  0  0  0  0  0  0  0  0  0  0
    0.2457   -2.3642   -1.1134 H   0  0  0  0  0  0  0  0  0  0  0  0
   -1.3374   -1.5477   -1.0771 H   0  0  0  0  0  0  0  0  0  0  0  0
   -0.8879   -2.6829    0.2254 H   0  0  0  0  0  0  0  0  0  0  0  0
    1.3932   -2.1293    1.2018 H   0  0  0  0  0  0  0  0  0  0  0  0
    0.0600   -1.7294    2.1189 H   0  0  0  0  0  0  0  0  0  0  0  0
    1.9772   -1.0206   -0.8919 H   0  0  0  0  0  0  0  0  0  0  0  0
    0.7776    0.2606   -1.4351 H   0  0  0  0  0  0  0  0  0  0  0  0
    2.9862    2.4518   -0.9749 H   0  0  0  0  0  0  0  0  0  0  0  0
    3.9115    0.8965   -1.0525 H   0  0  0  0  0  0  0  0  0  0  0  0
   -0.3299    0.9755    1.4615 H   0  0  0  0  0  0  0  0  0  0  0  0
   -0.9670    2.0055   -0.7521 H   0  0  0  0  0  0  0  0  0  0  0  0
   -1.8725    0.4372   -1.1975 H   0  0  0  0  0  0  0  0  0  0  0  0
   -3.4996    1.3374    0.3629 H   0  0  0  0  0  0  0  0  0  0  0  0
   -2.0879    1.9643    1.4297 H   0  0  0  0  0  0  0  0  0  0  0  0
   -2.4745   -0.7674    0.4203 H   0  0  0  0  0  0  0  0  0  0  0  0
  1  2  1  0
  2  3  1  1
  2  4  1  0
  4  5  1  0
  5  6  1  0
  5  7  2  0
  2  8  1  0
  8  9  1  0
  9 10  1  0
 10 11  1  0
 11  8  1  0
  1 12  1  0
  1 13  1  0
  1 14  1  0
  3 15  1  0
  3 16  1  0
  4 17  1  0
  4 18  1  0
  6 19  1  0
  6 20  1  0
  8 21  1  1
  9 22  1  0
  9 23  1  0
 10 24  1  0
 10 25  1  0
 11 26  1  0
M  END
$$$$

     RDKit          3D

 26 26  0  0  0  0  0  0  0  0999 V2000
   -0.2064   -1.9450   -0.7350 C   0  0  0  0  0  0  0  0  0  0  0  0
    0.1667   -0.6210   -0.0661 C   0  0  1  0  0  0  0  0  0  0  0  0
    0.3893   -0.8610    1.3379 N   0  0  0  0  0  0  0  0  0  0  0  0
    1.4182   -0.1554   -0.7725 C   0  0  0  0  0  0  0  0  0  0  0  0
    1.9698    1.1118   -0.2948 C   0  0  0  0  0  0  0  0  0  0  0  0
    3.3100    1.1872    0.1842 N   0  0  0  0  0  0  0  0  0  0  0  0
    1.2831    2.1574   -0.2929 O   0  0  0  0  0  0  0  0  0  0  0  0
   -0.9328    0.3345   -0.3058 C   0  0  1  0  0  0  0  0  0  0  0  0
   -2.2963   -0.0812    0.2223 C   0  0  0  0  0  0  0  0  0  0  0  0
   -2.4563    1.4199    0.3906 C   0  0  0  0  0  0  0  0  0  0  0  0
   -1.0252    1.4279    0.6840 N   0  0  0  0  0  0  0  0  0  0  0  0
    0.7362   -2.4521   -1.0577 H   0  0  0  0  0  0  0  0  0  0  0  0
   -0.8866   -1.7392   -1.5705 H   0  0  0  0  0  0  0  0  0  0  0  0
   -0.7418   -2.6107   -0.0292 H   0  0  0  0  0  0  0  0  0  0  0  0
   -0.2848   -1.6057    1.6356 H   0  0  0  0  0  0  0  0  0  0  0  0
    1.3470   -1.2381    1.5144 H   0  0  0  0  0  0  0  0  0  0  0  0
    1.1573   -0.1101   -1.8776 H   0  0  0  0  0  0  0  0  0  0  0  0
    2.1951   -0.9764   -0.7378 H   0  0  0  0  0  0  0  0  0  0  0  0
    3.7000    2.0481    0.6227 H   0  0  0  0  0  0  0  0  0  0  0  0
    3.9910    0.3797    0.1250 H   0  0  0  0  0  0  0  0  0  0  0  0
   -1.0210    0.7351   -1.3146 H   0  0  0  0  0  0  0  0  0  0  0  0
   -2.2767   -0.5654    1.2264 H   0  0  0  0  0  0  0  0  0  0  0  0
   -2.9517   -0.5203   -0.5331 H   0  0  0  0  0  0  0  0  0  0  0  0
   -3.0973    1.7426    1.2210 H   0  0  0  0  0  0  0  0  0  0  0  0
   -2.6231    1.9373   -0.5680 H   0  0  0  0  0  0  0  0  0  0  0  0
   -0.8635    1.0000    1.6231 H   0  0  0  0  0  0  0  0  0  0  0  0
  1  2  1  0
  2  3  1  1
  2  4  1  0
  4  5  1  0
  5  6  1  0
  5  7  2  0
  2  8  1  0
  8  9  1  0
  9 10  1  0
 10 11  1  0
 11  8  1  0
  1 12  1  0
  1 13  1  0
  1 14  1  0
  3 15  1  0
  3 16  1  0
  4 17  1  0
  4 18  1  0
  6 19  1  0
  6 20  1  0
  8 21  1  6
  9 22  1  0
  9 23  1  0
 10 24  1  0
 10 25  1  0
 11 26  1  0
M  END
$$$$

     RDKit          3D

 26 26  0  0  0  0  0  0  0  0999 V2000
    0.1739   -1.5993    1.4383 C   0  0  0  0  0  0  0  0  0  0  0  0
   -0.1104   -0.6575    0.2429 C   0  0  1  0  0  0  0  0  0  0  0  0
    0.2113   -1.3429   -0.9564 N   0  0  0  0  0  0  0  0  0  0  0  0
   -1.5305   -0.2609    0.4260 C   0  0  0  0  0  0  0  0  0  0  0  0
   -2.1207    0.6273   -0.5530 C   0  0  0  0  0  0  0  0  0  0  0  0
   -3.4628    1.0524   -0.3873 N   0  0  0  0  0  0  0  0  0  0  0  0
   -1.4733    1.0251   -1.5374 O   0  0  0  0  0  0  0  0  0  0  0  0
    0.8009    0.5537    0.3491 C   0  0  1  0  0  0  0  0  0  0  0  0
    2.2822    0.1791    0.3364 C   0  0  0  0  0  0  0  0  0  0  0  0
    2.3948    1.5463   -0.3518 C   0  0  0  0  0  0  0  0  0  0  0  0
    1.0661    1.2385   -0.9082 N   0  0  0  0  0  0  0  0  0  0  0  0
   -0.0016   -0.9863    2.3341 H   0  0  0  0  0  0  0  0  0  0  0  0
   -0.6215   -2.3669    1.4074 H   0  0  0  0  0  0  0  0  0  0  0  0
    1.1651   -2.0379    1.3637 H   0  0  0  0  0  0  0  0  0  0  0  0
    0.9867   -2.0122   -0.8920 H   0  0  0  0  0  0  0  0  0  0  0  0
   -0.5911   -1.6513   -1.5259 H   0  0  0  0  0  0  0  0  0  0  0  0
   -2.1388   -1.1928    0.4475 H   0  0  0  0  0  0  0  0  0  0  0  0
   -1.6201    0.1507    1.4698 H   0  0  0  0  0  0  0  0  0  0  0  0
   -3.7458    2.0561   -0.4069 H   0  0  0  0  0  0  0  0  0  0  0  0
   -4.1976    0.3356   -0.2398 H   0  0  0  0  0  0  0  0  0  0  0  0
    0.5579    1.2595    1.1389 H   0  0  0  0  0  0  0  0  0  0  0  0
    2.5334   -0.5993   -0.3874 H   0  0  0  0  0  0  0  0  0  0  0  0
    2.7465    0.1503    1.3205 H   0  0  0  0  0  0  0  0  0  0  0  0
    3.1904    1.6208   -1.0923 H   0  0  0  0  0  0  0  0  0  0  0  0
    2.2795    2.3566    0.3771 H   0  0  0  0  0  0  0  0  0  0  0  0
    1.2258    0.5553   -1.6952 H   0  0  0  0  0  0  0  0  0  0  0  0
  1  2  1  0
  2  3  1  6
  2  4  1  0
  4  5  1  0
  5  6  1  0
  5  7  2  0
  2  8  1  0
  8  9  1  0
  9 10  1  0
 10 11  1  0
 11  8  1  0
  1 12  1  0
  1 13  1  0
  1 14  1  0
  3 15  1  0
  3 16  1  0
  4 17  1  0
  4 18  1  0
  6 19  1  0
  6 20  1  0
  8 21  1  1
  9 22  1  0
  9 23  1  0
 10 24  1  0
 10 25  1  0
 11 26  1  0
M  END
$$$$
