
     RDKit          3D

 28 29  0  0  0  0  0  0  0  0999 V2000
   -3.4521    1.1717    0.3019 N   0  0  0  0  0  0  0  0  0  0  0  0
   -2.3135    0.6456   -0.4211 C   0  0  2  0  0  0  0  0  0  0  0  0
   -2.3450   -0.8733   -0.3858 C   0  0  0  0  0  0  0  0  0  0  0  0
   -0.9079   -1.2180   -0.6195 C   0  0  2  0  0  0  0  0  0  0  0  0
   -0.5928   -2.5150   -0.2200 O   0  0  0  0  0  0  0  0  0  0  0  0
   -0.0883   -0.1859    0.1229 C   0  0  1  0  0  0  0  0  0  0  0  0
    1.0481    0.1657   -0.6604 N   0  0  0  0  0  0  0  0  0  0  0  0
    2.0807    0.9576   -0.0214 C   0  0  0  0  0  0  0  0  0  0  0  0
    3.0640    0.3000   -0.9785 C   0  0  0  0  0  0  0  0  0  0  0  0
    4.2977   -0.0010   -0.4677 O   0  0  0  0  0  0  0  0  0  0  0  0
    2.0472   -0.8476   -0.9044 C   0  0  0  0  0  0  0  0  0  0  0  0
   -0.9961    1.0450    0.1657 C   0  0  0  0  0  0  0  0  0  0  0  0
   -3.7520    0.5361    1.0699 H   0  0  0  0  0  0  0  0  0  0  0  0
   -3.3387    2.1596    0.5791 H   0  0  0  0  0  0  0  0  0  0  0  0
   -2.4414    0.9790   -1.4900 H   0  0  0  0  0  0  0  0  0  0  0  0
   -2.9390   -1.2996   -1.2193 H   0  0  0  0  0  0  0  0  0  0  0  0
   -2.6676   -1.2651    0.5981 H   0  0  0  0  0  0  0  0  0  0  0  0
   -0.6755   -1.1356   -1.6944 H   0  0  0  0  0  0  0  0  0  0  0  0
   -0.3519   -2.5597    0.7420 H   0  0  0  0  0  0  0  0  0  0  0  0
    0.1214   -0.4856    1.1538 H   0  0  0  0  0  0  0  0  0  0  0  0
    1.9207    2.0256   -0.1753 H   0  0  0  0  0  0  0  0  0  0  0  0
    2.2401    0.6419    1.0398 H   0  0  0  0  0  0  0  0  0  0  0  0
    3.0158    0.7799   -1.9531 H   0  0  0  0  0  0  0  0  0  0  0  0
    4.5967    0.5317    0.2929 H   0  0  0  0  0  0  0  0  0  0  0  0
    1.9367   -1.3705   -1.8892 H   0  0  0  0  0  0  0  0  0  0  0  0
    2.2111   -1.4866   -0.0385 H   0  0  0  0  0  0  0  0  0  0  0  0
   -1.1207    1.4241    1.2040 H   0  0  0  0  0  0  0  0  0  0  0  0
   -0.5975    1.8799   -0.4392 H   0  0  0  0  0  0  0  0  0  0  0  0
  1  2  1  0
  2  3  1  0
  3  4  1  0
  4  5  1  0
  4  6  1  0
  6  7  1  0
  7  8  1  0
  8  9  1  0
  9 10  1  0
  9 11  1  0
  6 12  1  0
 12  2  1  0
 11  7  1  0
  1 13  1  0
  1 14  1  0
  2 15  1  6
  3 16  1  0
  3 17  1  0
  4 18  1  6
  5 19  1  0
  6 20  1  1
  8 21  1  0
  8 22  1  0
  9 23  1  0
 10 24  1  0
 11 25  1  0
 11 26  1  0
 12 27  1  0
 12 28  1  0
M  END
$$$$

     RDKit          3D

 28 29  0  0  0  0  0  0  0  0999 V2000
   -3.2055   -1.5015    0.0025 N   0  0  0  0  0  0  0  0  0  0  0  0
   -2.0099   -0.7644    0.2892 C   0  0  2  0  0  0  0  0  0  0  0  0
   -2.2778    0.6995    0.6164 C   0  0  0  0  0  0  0  0  0  0  0  0
   -0.8394    1.2060    0.6738 C   0  0  2  0  0  0  0  0  0  0  0  0
   -0.8331    2.5812    0.4124 O   0  0  0  0  0  0  0  0  0  0  0  0
   -0.1084    0.4301   -0.4077 C   0  0  1  0  0  0  0  0  0  0  0  0
    1.0092   -0.3050    0.0711 N   0  0  0  0  0  0  0  0  0  0  0  0
    2.1218   -0.4821   -0.8597 C   0  0  0  0  0  0  0  0  0  0  0  0
    2.9564   -0.6682    0.4042 C   0  0  0  0  0  0  0  0  0  0  0  0
    4.2595   -0.2400    0.3246 O   0  0  0  0  0  0  0  0  0  0  0  0
    1.9555    0.3603    0.9267 C   0  0  0  0  0  0  0  0  0  0  0  0
   -1.1085   -0.6010   -0.9238 C   0  0  0  0  0  0  0  0  0  0  0  0
   -3.5791   -1.8676    0.9180 H   0  0  0  0  0  0  0  0  0  0  0  0
   -2.9081   -2.3677   -0.5209 H   0  0  0  0  0  0  0  0  0  0  0  0
   -1.4193   -1.1606    1.1254 H   0  0  0  0  0  0  0  0  0  0  0  0
   -2.8277    1.1291   -0.2496 H   0  0  0  0  0  0  0  0  0  0  0  0
   -2.8019    0.8292    1.5741 H   0  0  0  0  0  0  0  0  0  0  0  0
   -0.4641    0.9684    1.6892 H   0  0  0  0  0  0  0  0  0  0  0  0
   -1.4477    2.9741    1.0955 H   0  0  0  0  0  0  0  0  0  0  0  0
    0.0883    1.1128   -1.2459 H   0  0  0  0  0  0  0  0  0  0  0  0
    2.0565   -1.3616   -1.5124 H   0  0  0  0  0  0  0  0  0  0  0  0
    2.4129    0.4563   -1.3651 H   0  0  0  0  0  0  0  0  0  0  0  0
    2.8016   -1.6874    0.7846 H   0  0  0  0  0  0  0  0  0  0  0  0
    4.3945    0.4621   -0.3476 H   0  0  0  0  0  0  0  0  0  0  0  0
    2.2950    1.3668    0.5892 H   0  0  0  0  0  0  0  0  0  0  0  0
    1.7727    0.2697    2.0071 H   0  0  0  0  0  0  0  0  0  0  0  0
   -1.6601   -0.2468   -1.8044 H   0  0  0  0  0  0  0  0  0  0  0  0
   -0.6332   -1.5919   -1.0843 H   0  0  0  0  0  0  0  0  0  0  0  0
  1  2  1  0
  2  3  1  0
  3  4  1  0
  4  5  1  0
  4  6  1  0
  6  7  1  0
  7  8  1  0
  8  9  1  0
  9 10  1  0
  9 11  1  0
  6 12  1  0
 12  2  1  0
 11  7  1  0
  1 13  1  0
  1 14  1  0
  2 15  1  1
  3 16  1  0
  3 17  1  0
  4 18  1  1
  5 19  1  0
  6 20  1  6
  8 21  1  0
  8 22  1  0
  9 23  1  0
 10 24  1  0
 11 25  1  0
 11 26  1  0
 12 27  1  0
 12 28  1  0
M  END
$$$$

     RDKit          3D

 28 29  0  0  0  0  0  0  0  0999 V2000
    2.6137    1.7451    0.5814 N   0  0  0  0  0  0  0  0  0  0  0  0
    1.9692    0.5033    1.0245 C   0  0  2  0  0  0  0  0  0  0  0  0
    2.3697   -0.6669    0.1516 C   0  0  0  0  0  0  0  0  0  0  0  0
    1.0386   -1.4241    0.0527 C   0  0  2  0  0  0  0  0  0  0  0  0
    1.0446   -2.3897   -0.9035 O   0  0  0  0  0  0  0  0  0  0  0  0
    0.1607   -0.2201   -0.3124 C   0  0  1  0  0  0  0  0  0  0  0  0
   -1.1772   -0.5771   -0.4966 N   0  0  0  0  0  0  0  0  0  0  0  0
   -2.0360    0.5025   -0.8738 C   0  0  0  0  0  0  0  0  0  0  0  0
   -2.9458    0.1272    0.2788 C   0  0  0  0  0  0  0  0  0  0  0  0
   -2.9171    1.0442    1.3293 O   0  0  0  0  0  0  0  0  0  0  0  0
   -1.9731   -1.0210    0.5789 C   0  0  0  0  0  0  0  0  0  0  0  0
    0.4646    0.6623    0.8687 C   0  0  0  0  0  0  0  0  0  0  0  0
    3.2871    2.0464    1.3214 H   0  0  0  0  0  0  0  0  0  0  0  0
    1.8828    2.4772    0.4042 H   0  0  0  0  0  0  0  0  0  0  0  0
    2.2630    0.2838    2.0674 H   0  0  0  0  0  0  0  0  0  0  0  0
    3.1693   -1.2775    0.5616 H   0  0  0  0  0  0  0  0  0  0  0  0
    2.5852   -0.3197   -0.8967 H   0  0  0  0  0  0  0  0  0  0  0  0
    0.8159   -1.7630    1.0784 H   0  0  0  0  0  0  0  0  0  0  0  0
    1.7560   -2.3639   -1.5616 H   0  0  0  0  0  0  0  0  0  0  0  0
    0.5684    0.2600   -1.2089 H   0  0  0  0  0  0  0  0  0  0  0  0
   -2.4982    0.2741   -1.8733 H   0  0  0  0  0  0  0  0  0  0  0  0
   -1.5516    1.4773   -0.8139 H   0  0  0  0  0  0  0  0  0  0  0  0
   -3.9501   -0.1872   -0.0113 H   0  0  0  0  0  0  0  0  0  0  0  0
   -3.0443    1.9454    0.8983 H   0  0  0  0  0  0  0  0  0  0  0  0
   -2.4832   -1.9957    0.3274 H   0  0  0  0  0  0  0  0  0  0  0  0
   -1.5842   -1.0367    1.5905 H   0  0  0  0  0  0  0  0  0  0  0  0
    0.1457    1.6979    0.7552 H   0  0  0  0  0  0  0  0  0  0  0  0
    0.0260    0.1962    1.7924 H   0  0  0  0  0  0  0  0  0  0  0  0
  1  2  1  0
  2  3  1  0
  3  4  1  0
  4  5  1  0
  4  6  1  0
  6  7  1  0
  7  8  1  0
  8  9  1  0
  9 10  1  0
  9 11  1  0
  6 12  1  0
 12  2  1  0
 11  7  1  0
  1 13  1  0
  1 14  1  0
  2 15  1  1
  3 16  1  0
  3 17  1  0
  4 18  1  1
  5 19  1  0
  6 20  1  6
  8 21  1  0
  8 22  1  0
  9 23  1  0
 10 24  1  0
 11 25  1  0
 11 26  1  0
 12 27  1  0
 12 28  1  0
M  END
$$$$

     RDKit          3D

 28 29  0  0  0  0  0  0  0  0999 V2000
    2.9943   -0.7289    0.1581 N   0  0  0  0  0  0  0  0  0  0  0  0
    2.2564   -0.1648   -0.9502 C   0  0  2  0  0  0  0  0  0  0  0  0
    1.8164    1.2416   -0.5204 C   0  0  0  0  0  0  0  0  0  0  0  0
    0.9100    0.8911    0.6390 C   0  0  2  0  0  0  0  0  0  0  0  0
    1.6661    0.5836    1.7805 O   0  0  0  0  0  0  0  0  0  0  0  0
    0.1696   -0.3350    0.1484 C   0  0  1  0  0  0  0  0  0  0  0  0
   -1.1571    0.0946   -0.2120 N   0  0  0  0  0  0  0  0  0  0  0  0
   -2.0886   -0.9886   -0.4866 C   0  0  0  0  0  0  0  0  0  0  0  0
   -3.1624   -0.0711    0.1168 C   0  0  0  0  0  0  0  0  0  0  0  0
   -3.5475    0.8429   -0.8504 O   0  0  0  0  0  0  0  0  0  0  0  0
   -1.9630    0.3893    0.9580 C   0  0  0  0  0  0  0  0  0  0  0  0
    0.8774   -0.8130   -1.0929 C   0  0  0  0  0  0  0  0  0  0  0  0
    3.7340   -0.0360    0.4406 H   0  0  0  0  0  0  0  0  0  0  0  0
    3.4336   -1.6331   -0.0692 H   0  0  0  0  0  0  0  0  0  0  0  0
    2.8058   -0.1484   -1.8911 H   0  0  0  0  0  0  0  0  0  0  0  0
    1.1642    1.6899   -1.3035 H   0  0  0  0  0  0  0  0  0  0  0  0
    2.6502    1.8683   -0.2143 H   0  0  0  0  0  0  0  0  0  0  0  0
    0.2042    1.7185    0.8946 H   0  0  0  0  0  0  0  0  0  0  0  0
    1.3247   -0.2461    2.1882 H   0  0  0  0  0  0  0  0  0  0  0  0
    0.0898   -1.0934    0.9251 H   0  0  0  0  0  0  0  0  0  0  0  0
   -1.8592   -1.8454    0.2041 H   0  0  0  0  0  0  0  0  0  0  0  0
   -2.2298   -1.2368   -1.5363 H   0  0  0  0  0  0  0  0  0  0  0  0
   -3.9435   -0.5683    0.6842 H   0  0  0  0  0  0  0  0  0  0  0  0
   -3.7784    1.7256   -0.5243 H   0  0  0  0  0  0  0  0  0  0  0  0
   -1.9897    1.4375    1.2660 H   0  0  0  0  0  0  0  0  0  0  0  0
   -1.7557   -0.3381    1.7600 H   0  0  0  0  0  0  0  0  0  0  0  0
    0.9378   -1.8924   -1.2001 H   0  0  0  0  0  0  0  0  0  0  0  0
    0.4403   -0.3435   -2.0120 H   0  0  0  0  0  0  0  0  0  0  0  0
  1  2  1  0
  2  3  1  0
  3  4  1  0
  4  5  1  0
  4  6  1  0
  6  7  1  0
  7  8  1  0
  8  9  1  0
  9 10  1  0
  9 11  1  0
  6 12  1  0
 12  2  1  0
 11  7  1  0
  1 13  1  0
  1 14  1  0
  2 15  1  6
  3 16  1  0
  3 17  1  0
  4 18  1  1
  5 19  1  0
  6 20  1  1
  8 21  1  0
  8 22  1  0
  9 23  1  0
 10 24  1  0
 11 25  1  0
 11 26  1  0
 12 27  1  0
 12 28  1  0
M  END
$$$$

     RDKit          3D

 28 29  0  0  0  0  0  0  0  0999 V2000
   -3.6230   -0.0435   -0.5731 N   0  0  0  0  0  0  0  0  0  0  0  0
   -2.3651   -0.1534    0.0686 C   0  0  2  0  0  0  0  0  0  0  0  0
   -1.9161    1.1652    0.7113 C   0  0  0  0  0  0  0  0  0  0  0  0
   -0.4864    0.7853    1.0852 C   0  0  2  0  0  0  0  0  0  0  0  0
    0.2520    1.9045    1.4369 O   0  0  0  0  0  0  0  0  0  0  0  0
    0.0035    0.1444   -0.1815 C   0  0  1  0  0  0  0  0  0  0  0  0
    0.8476   -1.0077    0.0734 N   0  0  0  0  0  0  0  0  0  0  0  0
    2.0743   -0.7373    0.7845 C   0  0  0  0  0  0  0  0  0  0  0  0
    2.7535   -0.4449   -0.5176 C   0  0  0  0  0  0  0  0  0  0  0  0
    4.0357   -1.0256   -0.6269 O   0  0  0  0  0  0  0  0  0  0  0  0
    1.6656   -1.2922   -1.1061 C   0  0  0  0  0  0  0  0  0  0  0  0
   -1.2364   -0.3944   -0.8913 C   0  0  0  0  0  0  0  0  0  0  0  0
   -4.4181   -0.0245    0.0820 H   0  0  0  0  0  0  0  0  0  0  0  0
   -3.6516    0.6756   -1.3085 H   0  0  0  0  0  0  0  0  0  0  0  0
   -2.4103   -0.8945    0.8939 H   0  0  0  0  0  0  0  0  0  0  0  0
   -2.5204    1.4278    1.5863 H   0  0  0  0  0  0  0  0  0  0  0  0
   -1.8872    1.9691   -0.0677 H   0  0  0  0  0  0  0  0  0  0  0  0
   -0.5547    0.0375    1.9110 H   0  0  0  0  0  0  0  0  0  0  0  0
    0.4236    1.9586    2.4137 H   0  0  0  0  0  0  0  0  0  0  0  0
    0.5390    0.8939   -0.7720 H   0  0  0  0  0  0  0  0  0  0  0  0
    1.9495    0.1120    1.4621 H   0  0  0  0  0  0  0  0  0  0  0  0
    2.4586   -1.6756    1.2434 H   0  0  0  0  0  0  0  0  0  0  0  0
    2.7198    0.6034   -0.8563 H   0  0  0  0  0  0  0  0  0  0  0  0
    4.7337   -0.3282   -0.7386 H   0  0  0  0  0  0  0  0  0  0  0  0
    1.2529   -0.8847   -2.0508 H   0  0  0  0  0  0  0  0  0  0  0  0
    1.9756   -2.3338   -1.1894 H   0  0  0  0  0  0  0  0  0  0  0  0
   -1.4266    0.2070   -1.7984 H   0  0  0  0  0  0  0  0  0  0  0  0
   -1.1891   -1.4762   -1.0741 H   0  0  0  0  0  0  0  0  0  0  0  0
  1  2  1  0
  2  3  1  0
  3  4  1  0
  4  5  1  0
  4  6  1  0
  6  7  1  0
  7  8  1  0
  8  9  1  0
  9 10  1  0
  9 11  1  0
  6 12  1  0
 12  2  1  0
 11  7  1  0
  1 13  1  0
  1 14  1  0
  2 15  1  1
  3 16  1  0
  3 17  1  0
  4 18  1  1
  5 19  1  0
  6 20  1  6
  8 21  1  0
  8 22  1  0
  9 23  1  0
 10 24  1  0
 11 25  1  0
 11 26  1  0
 12 27  1  0
 12 28  1  0
M  END
$$$$

     RDKit          3D

 28 29  0  0  0  0  0  0  0  0999 V2000
   -3.3305    1.4146    0.0263 N   0  0  0  0  0  0  0  0  0  0  0  0
   -2.3482    0.4977   -0.5029 C   0  0  2  0  0  0  0  0  0  0  0  0
   -2.2425   -0.7640    0.2993 C   0  0  0  0  0  0  0  0  0  0  0  0
   -0.8427   -1.2125    0.0573 C   0  0  2  0  0  0  0  0  0  0  0  0
   -0.3922   -2.1684    0.9295 O   0  0  0  0  0  0  0  0  0  0  0  0
   -0.0510    0.0970    0.1244 C   0  0  1  0  0  0  0  0  0  0  0  0
    1.1858   -0.1244   -0.5194 N   0  0  0  0  0  0  0  0  0  0  0  0
    2.0264   -1.1165    0.1164 C   0  0  0  0  0  0  0  0  0  0  0  0
    3.1477   -0.0781    0.1055 C   0  0  0  0  0  0  0  0  0  0  0  0
    3.5050    0.3948    1.3710 O   0  0  0  0  0  0  0  0  0  0  0  0
    2.1831    0.8664   -0.5932 C   0  0  0  0  0  0  0  0  0  0  0  0
   -0.9558    1.0872   -0.5042 C   0  0  0  0  0  0  0  0  0  0  0  0
   -3.8062    1.9723   -0.7272 H   0  0  0  0  0  0  0  0  0  0  0  0
   -2.9631    2.0675    0.7354 H   0  0  0  0  0  0  0  0  0  0  0  0
   -2.6827    0.2174   -1.5318 H   0  0  0  0  0  0  0  0  0  0  0  0
   -2.9946   -1.4883   -0.0894 H   0  0  0  0  0  0  0  0  0  0  0  0
   -2.3821   -0.6229    1.3866 H   0  0  0  0  0  0  0  0  0  0  0  0
   -0.7587   -1.5311   -1.0164 H   0  0  0  0  0  0  0  0  0  0  0  0
    0.0457   -2.9235    0.4353 H   0  0  0  0  0  0  0  0  0  0  0  0
    0.0869    0.3466    1.2072 H   0  0  0  0  0  0  0  0  0  0  0  0
    2.2238   -1.9647   -0.5910 H   0  0  0  0  0  0  0  0  0  0  0  0
    1.7844   -1.4105    1.1377 H   0  0  0  0  0  0  0  0  0  0  0  0
    4.0068   -0.3611   -0.5504 H   0  0  0  0  0  0  0  0  0  0  0  0
    2.6661    0.5482    1.8687 H   0  0  0  0  0  0  0  0  0  0  0  0
    2.0764    1.8135   -0.0502 H   0  0  0  0  0  0  0  0  0  0  0  0
    2.4933    1.0914   -1.6569 H   0  0  0  0  0  0  0  0  0  0  0  0
   -0.9627    2.0292    0.0942 H   0  0  0  0  0  0  0  0  0  0  0  0
   -0.7183    1.3221   -1.5617 H   0  0  0  0  0  0  0  0  0  0  0  0
  1  2  1  0
  2  3  1  0
  3  4  1  0
  4  5  1  0
  4  6  1  0
  6  7  1  0
  7  8  1  0
  8  9  1  0
  9 10  1  0
  9 11  1  0
  6 12  1  0
 12  2  1  0
 11  7  1  0
  1 13  1  0
  1 14  1  0
  2 15  1  6
  3 16  1  0
  3 17  1  0
  4 18  1  6
  5 19  1  0
  6 20  1  1
  8 21  1  0
  8 22  1  0
  9 23  1  0
 10 24  1  0
 11 25  1  0
 11 26  1  0
 12 27  1  0
 12 28  1  0
M  END
$$$$

     RDKit          3D

 28 29  0  0  0  0  0  0  0  0999 V2000
   -3.4260    0.8068   -1.3519 N   0  0  0  0  0  0  0  0  0  0  0  0
   -2.4691    0.1238   -0.5368 C   0  0  2  0  0  0  0  0  0  0  0  0
   -2.0399    0.9615    0.6748 C   0  0  0  0  0  0  0  0  0  0  0  0
   -0.8188    0.1241    1.0882 C   0  0  2  0  0  0  0  0  0  0  0  0
   -0.1123    0.7211    2.1157 O   0  0  0  0  0  0  0  0  0  0  0  0
   -0.0522    0.1361   -0.2275 C   0  0  1  0  0  0  0  0  0  0  0  0
    0.9658   -0.8855   -0.2667 N   0  0  0  0  0  0  0  0  0  0  0  0
    1.9801   -0.6693    0.7370 C   0  0  0  0  0  0  0  0  0  0  0  0
    3.1053   -0.7492   -0.2773 C   0  0  0  0  0  0  0  0  0  0  0  0
    4.0351    0.2787   -0.1833 O   0  0  0  0  0  0  0  0  0  0  0  0
    1.9904   -0.5547   -1.2681 C   0  0  0  0  0  0  0  0  0  0  0  0
   -1.1593   -0.1567   -1.2218 C   0  0  0  0  0  0  0  0  0  0  0  0
   -4.3569    0.3535   -1.2848 H   0  0  0  0  0  0  0  0  0  0  0  0
   -3.1203    0.9442   -2.3318 H   0  0  0  0  0  0  0  0  0  0  0  0
   -2.8924   -0.8233   -0.1084 H   0  0  0  0  0  0  0  0  0  0  0  0
   -2.8008    0.9985    1.4556 H   0  0  0  0  0  0  0  0  0  0  0  0
   -1.6689    1.9513    0.3490 H   0  0  0  0  0  0  0  0  0  0  0  0
   -1.2128   -0.8738    1.3311 H   0  0  0  0  0  0  0  0  0  0  0  0
    0.0898    0.1302    2.8723 H   0  0  0  0  0  0  0  0  0  0  0  0
    0.2941    1.1519   -0.4074 H   0  0  0  0  0  0  0  0  0  0  0  0
    2.0090    0.3091    1.2303 H   0  0  0  0  0  0  0  0  0  0  0  0
    1.9722   -1.5148    1.4591 H   0  0  0  0  0  0  0  0  0  0  0  0
    3.5819   -1.7379   -0.2864 H   0  0  0  0  0  0  0  0  0  0  0  0
    4.4021    0.5685   -1.0413 H   0  0  0  0  0  0  0  0  0  0  0  0
    1.9175    0.4377   -1.7099 H   0  0  0  0  0  0  0  0  0  0  0  0
    2.0679   -1.3120   -2.0797 H   0  0  0  0  0  0  0  0  0  0  0  0
   -1.0957    0.5009   -2.1216 H   0  0  0  0  0  0  0  0  0  0  0  0
   -1.1859   -1.2205   -1.5296 H   0  0  0  0  0  0  0  0  0  0  0  0
  1  2  1  0
  2  3  1  0
  3  4  1  0
  4  5  1  0
  4  6  1  0
  6  7  1  0
  7  8  1  0
  8  9  1  0
  9 10  1  0
  9 11  1  0
  6 12  1  0
 12  2  1  0
 11  7  1  0
  1 13  1  0
  1 14  1  0
  2 15  1  1
  3 16  1  0
  3 17  1  0
  4 18  1  1
  5 19  1  0
  6 20  1  6
  8 21  1  0
  8 22  1  0
  9 23  1  0
 10 24  1  0
 11 25  1  0
 11 26  1  0
 12 27  1  0
 12 28  1  0
M  END
$$$$

     RDKit          3D

 28 29  0  0  0  0  0  0  0  0999 V2000
   -2.9754    1.0340    0.0020 N   0  0  0  0  0  0  0  0  0  0  0  0
   -1.6906    0.5436   -0.4680 C   0  0  2  0  0  0  0  0  0  0  0  0
   -1.7411   -0.9692   -0.6328 C   0  0  0  0  0  0  0  0  0  0  0  0
   -1.1695   -1.4524    0.6562 C   0  0  2  0  0  0  0  0  0  0  0  0
   -2.1497   -1.3139    1.6551 O   0  0  0  0  0  0  0  0  0  0  0  0
   -0.0530   -0.5011    0.9960 C   0  0  1  0  0  0  0  0  0  0  0  0
    1.2090   -0.8567    0.4288 N   0  0  0  0  0  0  0  0  0  0  0  0
    2.2983   -0.0763    0.9611 C   0  0  0  0  0  0  0  0  0  0  0  0
    2.6222    0.5428   -0.3700 C   0  0  0  0  0  0  0  0  0  0  0  0
    3.9085    0.2261   -0.8487 O   0  0  0  0  0  0  0  0  0  0  0  0
    1.5264   -0.3448   -0.8724 C   0  0  0  0  0  0  0  0  0  0  0  0
   -0.5936    0.8190    0.5445 C   0  0  0  0  0  0  0  0  0  0  0  0
   -2.8904    1.9807    0.4330 H   0  0  0  0  0  0  0  0  0  0  0  0
   -3.6084    1.0812   -0.8319 H   0  0  0  0  0  0  0  0  0  0  0  0
   -1.5031    1.0338   -1.4423 H   0  0  0  0  0  0  0  0  0  0  0  0
   -2.8159   -1.2419   -0.7615 H   0  0  0  0  0  0  0  0  0  0  0  0
   -1.1797   -1.2953   -1.5183 H   0  0  0  0  0  0  0  0  0  0  0  0
   -0.8572   -2.5137    0.6558 H   0  0  0  0  0  0  0  0  0  0  0  0
   -2.3108   -0.3579    1.8561 H   0  0  0  0  0  0  0  0  0  0  0  0
    0.0602   -0.5150    2.1096 H   0  0  0  0  0  0  0  0  0  0  0  0
    3.1289   -0.7666    1.2807 H   0  0  0  0  0  0  0  0  0  0  0  0
    2.0141    0.6293    1.7730 H   0  0  0  0  0  0  0  0  0  0  0  0
    2.4690    1.6289   -0.4610 H   0  0  0  0  0  0  0  0  0  0  0  0
    4.5089    0.8997   -0.4264 H   0  0  0  0  0  0  0  0  0  0  0  0
    1.9705   -1.1730   -1.4926 H   0  0  0  0  0  0  0  0  0  0  0  0
    0.7331    0.1345   -1.4536 H   0  0  0  0  0  0  0  0  0  0  0  0
    0.1385    1.5024    0.1178 H   0  0  0  0  0  0  0  0  0  0  0  0
   -1.0491    1.3218    1.4227 H   0  0  0  0  0  0  0  0  0  0  0  0
  1  2  1  0
  2  3  1  0
  3  4  1  0
  4  5  1  0
  4  6  1  0
  6  7  1  0
  7  8  1  0
  8  9  1  0
  9 10  1  0
  9 11  1  0
  6 12  1  0
 12  2  1  0
 11  7  1  0
  1 13  1  0
  1 14  1  0
  2 15  1  6
  3 16  1  0
  3 17  1  0
  4 18  1  6
  5 19  1  0
  6 20  1  1
  8 21  1  0
  8 22  1  0
  9 23  1  0
 10 24  1  0
 11 25  1  0
 11 26  1  0
 12 27  1  0
 12 28  1  0
M  END
$$$$
