
     RDKit          3D

 24 24  0  0  0  0  0  0  0  0999 V2000
    3.9507   -0.4093    0.5173 N   0  0  0  0  0  0  0  0  0  0  0  0
    2.7943    0.4057    0.3846 C   0  0  0  0  0  0  0  0  0  0  0  0
    2.8628    1.6654    0.4972 O   0  0  0  0  0  0  0  0  0  0  0  0
    1.5186   -0.1544    0.1213 N   0  0  0  0  0  0  0  0  0  0  0  0
    0.3966    0.7351    0.0004 C   0  0  0  0  0  0  0  0  0  0  0  0
   -0.9084    0.0786   -0.2778 C   0  0  0  0  0  0  0  0  0  0  0  0
   -2.0000    1.0793   -0.3815 C   0  0  0  0  0  0  0  0  0  0  0  0
   -2.2796    1.9018    0.7265 N   0  0  0  0  0  0  0  0  0  0  0  0
   -2.6299    1.1479   -1.4605 O   0  0  0  0  0  0  0  0  0  0  0  0
   -1.2785   -1.0899    0.5874 C   0  0  0  0  0  0  0  0  0  0  0  0
   -1.9897   -1.6266   -0.5894 N   0  0  0  0  0  0  0  0  0  0  0  0
   -0.9474   -0.9480   -1.3783 C   0  0  0  0  0  0  0  0  0  0  0  0
    3.8965   -1.2511    1.1190 H   0  0  0  0  0  0  0  0  0  0  0  0
    4.8174   -0.1456    0.0127 H   0  0  0  0  0  0  0  0  0  0  0  0
    1.3691   -1.1726    0.0152 H   0  0  0  0  0  0  0  0  0  0  0  0
    0.5701    1.4795   -0.8330 H   0  0  0  0  0  0  0  0  0  0  0  0
    0.2786    1.3564    0.9095 H   0  0  0  0  0  0  0  0  0  0  0  0
   -3.2238    1.8839    1.1559 H   0  0  0  0  0  0  0  0  0  0  0  0
   -1.5263    2.5152    1.0938 H   0  0  0  0  0  0  0  0  0  0  0  0
   -0.4243   -1.7685    0.7835 H   0  0  0  0  0  0  0  0  0  0  0  0
   -1.9314   -0.8757    1.4408 H   0  0  0  0  0  0  0  0  0  0  0  0
   -1.9713   -2.6534   -0.6678 H   0  0  0  0  0  0  0  0  0  0  0  0
   -0.0500   -1.5763   -1.3773 H   0  0  0  0  0  0  0  0  0  0  0  0
   -1.2941   -0.5775   -2.3586 H   0  0  0  0  0  0  0  0  0  0  0  0
  1  2  1  0
  2  3  2  0
  2  4  1  0
  4  5  1  0
  5  6  1  0
  6  7  1  0
  7  8  1  0
  7  9  2  0
  6 10  1  0
 10 11  1  0
 11 12  1  0
 12  6  1  0
  1 13  1  0
  1 14  1  0
  4 15  1  0
  5 16  1  0
  5 17  1  0
  8 18  1  0
  8 19  1  0
 10 20  1  0
 10 21  1  0
 11 22  1  0
 12 23  1  0
 12 24  1  0
M  END
$$$$

     RDKit          3D

 24 24  0  0  0  0  0  0  0  0999 V2000
    3.5690    1.0071   -0.5761 N   0  0  0  0  0  0  0  0  0  0  0  0
    2.4960    0.1365   -0.1927 C   0  0  0  0  0  0  0  0  0  0  0  0
    2.4980   -0.4055    0.9353 O   0  0  0  0  0  0  0  0  0  0  0  0
    1.4686   -0.0682   -1.1313 N   0  0  0  0  0  0  0  0  0  0  0  0
    0.3125   -0.8731   -0.9322 C   0  0  0  0  0  0  0  0  0  0  0  0
   -0.7128   -0.4863    0.0433 C   0  0  0  0  0  0  0  0  0  0  0  0
   -1.8779   -1.4255    0.1400 C   0  0  0  0  0  0  0  0  0  0  0  0
   -2.9120   -1.1487    1.0412 N   0  0  0  0  0  0  0  0  0  0  0  0
   -1.8828   -2.4215   -0.5881 O   0  0  0  0  0  0  0  0  0  0  0  0
   -0.4310    0.2470    1.2988 C   0  0  0  0  0  0  0  0  0  0  0  0
   -0.0417    1.3731    0.4329 N   0  0  0  0  0  0  0  0  0  0  0  0
   -1.2131    0.9422   -0.3773 C   0  0  0  0  0  0  0  0  0  0  0  0
    4.2201    0.7475   -1.3361 H   0  0  0  0  0  0  0  0  0  0  0  0
    3.6992    1.9098   -0.0890 H   0  0  0  0  0  0  0  0  0  0  0  0
    1.6056    0.4513   -2.0778 H   0  0  0  0  0  0  0  0  0  0  0  0
    0.6384   -1.9482   -0.7566 H   0  0  0  0  0  0  0  0  0  0  0  0
   -0.1671   -0.9560   -1.9712 H   0  0  0  0  0  0  0  0  0  0  0  0
   -2.7204   -0.9676    2.0453 H   0  0  0  0  0  0  0  0  0  0  0  0
   -3.9393   -1.1053    0.7690 H   0  0  0  0  0  0  0  0  0  0  0  0
    0.2811   -0.0931    2.0228 H   0  0  0  0  0  0  0  0  0  0  0  0
   -1.4216    0.5801    1.7643 H   0  0  0  0  0  0  0  0  0  0  0  0
   -0.1876    2.3055    0.8715 H   0  0  0  0  0  0  0  0  0  0  0  0
   -2.1704    1.1100    0.1122 H   0  0  0  0  0  0  0  0  0  0  0  0
   -1.1107    1.0889   -1.4483 H   0  0  0  0  0  0  0  0  0  0  0  0
  1  2  1  0
  2  3  2  0
  2  4  1  0
  4  5  1  0
  5  6  1  0
  6  7  1  0
  7  8  1  0
  7  9  2  0
  6 10  1  0
 10 11  1  0
 11 12  1  0
 12  6  1  0
  1 13  1  0
  1 14  1  0
  4 15  1  0
  5 16  1  0
  5 17  1  0
  8 18  1  0
  8 19  1  0
 10 20  1  0
 10 21  1  0
 11 22  1  0
 12 23  1  0
 12 24  1  0
M  END
$$$$

     RDKit          3D

 24 24  0  0  0  0  0  0  0  0999 V2000
    3.9050   -0.3169    0.5295 N   0  0  0  0  0  0  0  0  0  0  0  0
    2.7573   -0.8269   -0.1509 C   0  0  0  0  0  0  0  0  0  0  0  0
    2.8391   -1.8229   -0.8852 O   0  0  0  0  0  0  0  0  0  0  0  0
    1.4993   -0.1840    0.0147 N   0  0  0  0  0  0  0  0  0  0  0  0
    0.2946   -0.6462   -0.6441 C   0  0  0  0  0  0  0  0  0  0  0  0
   -0.8628    0.2296   -0.2761 C   0  0  0  0  0  0  0  0  0  0  0  0
   -1.1471    0.2561    1.1793 C   0  0  0  0  0  0  0  0  0  0  0  0
   -1.4800   -0.9199    1.8937 N   0  0  0  0  0  0  0  0  0  0  0  0
   -1.0727    1.3981    1.7399 O   0  0  0  0  0  0  0  0  0  0  0  0
   -2.1420   -0.0310   -1.0436 C   0  0  0  0  0  0  0  0  0  0  0  0
   -2.4019    1.4037   -0.8978 N   0  0  0  0  0  0  0  0  0  0  0  0
   -0.9441    1.5551   -0.9597 C   0  0  0  0  0  0  0  0  0  0  0  0
    3.9342   -0.2683    1.5679 H   0  0  0  0  0  0  0  0  0  0  0  0
    4.7027    0.0014   -0.0343 H   0  0  0  0  0  0  0  0  0  0  0  0
    1.4783    0.6537    0.6446 H   0  0  0  0  0  0  0  0  0  0  0  0
    0.1175   -1.6815   -0.2975 H   0  0  0  0  0  0  0  0  0  0  0  0
    0.4280   -0.6627   -1.7366 H   0  0  0  0  0  0  0  0  0  0  0  0
   -1.2052   -0.9848    2.8920 H   0  0  0  0  0  0  0  0  0  0  0  0
   -1.9847   -1.7061    1.4480 H   0  0  0  0  0  0  0  0  0  0  0  0
   -1.9405   -0.2459   -2.0995 H   0  0  0  0  0  0  0  0  0  0  0  0
   -2.8609   -0.6822   -0.5253 H   0  0  0  0  0  0  0  0  0  0  0  0
   -2.7325    1.5959    0.0728 H   0  0  0  0  0  0  0  0  0  0  0  0
   -0.5466    2.4220   -0.4131 H   0  0  0  0  0  0  0  0  0  0  0  0
   -0.6351    1.4637   -2.0186 H   0  0  0  0  0  0  0  0  0  0  0  0
  1  2  1  0
  2  3  2  0
  2  4  1  0
  4  5  1  0
  5  6  1  0
  6  7  1  0
  7  8  1  0
  7  9  2  0
  6 10  1  0
 10 11  1  0
 11 12  1  0
 12  6  1  0
  1 13  1  0
  1 14  1  0
  4 15  1  0
  5 16  1  0
  5 17  1  0
  8 18  1  0
  8 19  1  0
 10 20  1  0
 10 21  1  0
 11 22  1  0
 12 23  1  0
 12 24  1  0
M  END
$$$$

     RDKit          3D

 24 24  0  0  0  0  0  0  0  0999 V2000
    4.1252   -0.1782   -0.5968 N   0  0  0  0  0  0  0  0  0  0  0  0
    2.9119   -0.7826   -0.2303 C   0  0  0  0  0  0  0  0  0  0  0  0
    2.9888   -2.0038    0.1453 O   0  0  0  0  0  0  0  0  0  0  0  0
    1.6563   -0.1181   -0.2595 N   0  0  0  0  0  0  0  0  0  0  0  0
    0.4988   -0.8372    0.1352 C   0  0  0  0  0  0  0  0  0  0  0  0
   -0.7788   -0.1057    0.0878 C   0  0  0  0  0  0  0  0  0  0  0  0
   -1.9244   -0.9550    0.5221 C   0  0  0  0  0  0  0  0  0  0  0  0
   -3.2473   -0.5086    0.5716 N   0  0  0  0  0  0  0  0  0  0  0  0
   -1.7006   -2.1531    0.8692 O   0  0  0  0  0  0  0  0  0  0  0  0
   -0.8311    1.2333    0.7657 C   0  0  0  0  0  0  0  0  0  0  0  0
   -1.0020    1.9185   -0.4965 N   0  0  0  0  0  0  0  0  0  0  0  0
   -1.1102    0.6384   -1.1726 C   0  0  0  0  0  0  0  0  0  0  0  0
    4.7693   -0.6381   -1.2654 H   0  0  0  0  0  0  0  0  0  0  0  0
    4.4176    0.7442   -0.2134 H   0  0  0  0  0  0  0  0  0  0  0  0
    1.6535    0.8717   -0.5725 H   0  0  0  0  0  0  0  0  0  0  0  0
    0.4101   -1.7316   -0.5435 H   0  0  0  0  0  0  0  0  0  0  0  0
    0.6567   -1.2236    1.1601 H   0  0  0  0  0  0  0  0  0  0  0  0
   -3.7871   -0.5712    1.4499 H   0  0  0  0  0  0  0  0  0  0  0  0
   -3.6953   -0.1126   -0.2698 H   0  0  0  0  0  0  0  0  0  0  0  0
   -1.7184    1.4114    1.4170 H   0  0  0  0  0  0  0  0  0  0  0  0
    0.0781    1.5385    1.3067 H   0  0  0  0  0  0  0  0  0  0  0  0
   -1.8436    2.5233   -0.5623 H   0  0  0  0  0  0  0  0  0  0  0  0
   -2.1492    0.4926   -1.5160 H   0  0  0  0  0  0  0  0  0  0  0  0
   -0.3783    0.5475   -1.9963 H   0  0  0  0  0  0  0  0  0  0  0  0
  1  2  1  0
  2  3  2  0
  2  4  1  0
  4  5  1  0
  5  6  1  0
  6  7  1  0
  7  8  1  0
  7  9  2  0
  6 10  1  0
 10 11  1  0
 11 12  1  0
 12  6  1  0
  1 13  1  0
  1 14  1  0
  4 15  1  0
  5 16  1  0
  5 17  1  0
  8 18  1  0
  8 19  1  0
 10 20  1  0
 10 21  1  0
 11 22  1  0
 12 23  1  0
 12 24  1  0
M  END
$$$$

     RDKit          3D

 24 24  0  0  0  0  0  0  0  0999 V2000
    3.9419   -0.1151   -0.0655 N   0  0  0  0  0  0  0  0  0  0  0  0
    2.6953    0.4819   -0.3028 C   0  0  0  0  0  0  0  0  0  0  0  0
    2.7047    1.6034   -0.9157 O   0  0  0  0  0  0  0  0  0  0  0  0
    1.4516   -0.0660    0.0848 N   0  0  0  0  0  0  0  0  0  0  0  0
    0.2543    0.6370   -0.2138 C   0  0  0  0  0  0  0  0  0  0  0  0
   -0.9986   -0.0372    0.2423 C   0  0  0  0  0  0  0  0  0  0  0  0
   -2.2216    0.7347   -0.0905 C   0  0  0  0  0  0  0  0  0  0  0  0
   -2.3678    2.0344    0.4309 N   0  0  0  0  0  0  0  0  0  0  0  0
   -3.0879    0.1888   -0.8339 O   0  0  0  0  0  0  0  0  0  0  0  0
   -1.0410   -1.4772   -0.2626 C   0  0  0  0  0  0  0  0  0  0  0  0
   -1.6071   -1.8509    1.0196 N   0  0  0  0  0  0  0  0  0  0  0  0
   -0.9896   -0.6685    1.5867 C   0  0  0  0  0  0  0  0  0  0  0  0
    4.1410   -1.0358   -0.5120 H   0  0  0  0  0  0  0  0  0  0  0  0
    4.6758    0.3161    0.5336 H   0  0  0  0  0  0  0  0  0  0  0  0
    1.4249   -0.9700    0.5808 H   0  0  0  0  0  0  0  0  0  0  0  0
    0.3151    1.6504    0.2518 H   0  0  0  0  0  0  0  0  0  0  0  0
    0.2131    0.7671   -1.3328 H   0  0  0  0  0  0  0  0  0  0  0  0
   -2.1677    2.8539   -0.1733 H   0  0  0  0  0  0  0  0  0  0  0  0
   -2.6750    2.1586    1.4169 H   0  0  0  0  0  0  0  0  0  0  0  0
   -1.7325   -1.6141   -1.1246 H   0  0  0  0  0  0  0  0  0  0  0  0
   -0.0527   -1.9330   -0.4361 H   0  0  0  0  0  0  0  0  0  0  0  0
   -1.1318   -2.6976    1.4115 H   0  0  0  0  0  0  0  0  0  0  0  0
   -0.0168   -0.8180    2.0773 H   0  0  0  0  0  0  0  0  0  0  0  0
   -1.7276   -0.1425    2.2618 H   0  0  0  0  0  0  0  0  0  0  0  0
  1  2  1  0
  2  3  2  0
  2  4  1  0
  4  5  1  0
  5  6  1  0
  6  7  1  0
  7  8  1  0
  7  9  2  0
  6 10  1  0
 10 11  1  0
 11 12  1  0
 12  6  1  0
  1 13  1  0
  1 14  1  0
  4 15  1  0
  5 16  1  0
  5 17  1  0
  8 18  1  0
  8 19  1  0
 10 20  1  0
 10 21  1  0
 11 22  1  0
 12 23  1  0
 12 24  1  0
M  END
$$$$

     RDKit          3D

 24 24  0  0  0  0  0  0  0  0999 V2000
    3.2346    1.3108   -0.9561 N   0  0  0  0  0  0  0  0  0  0  0  0
    2.1827    0.8473   -0.1159 C   0  0  0  0  0  0  0  0  0  0  0  0
    1.7537    1.6185    0.7660 O   0  0  0  0  0  0  0  0  0  0  0  0
    1.6136   -0.4459   -0.2470 N   0  0  0  0  0  0  0  0  0  0  0  0
    0.5487   -0.9793    0.5411 C   0  0  0  0  0  0  0  0  0  0  0  0
   -0.7861   -0.3545    0.4462 C   0  0  0  0  0  0  0  0  0  0  0  0
   -0.9798    1.0624    0.7734 C   0  0  0  0  0  0  0  0  0  0  0  0
   -1.0456    2.0489   -0.2256 N   0  0  0  0  0  0  0  0  0  0  0  0
   -1.0902    1.4087    1.9683 O   0  0  0  0  0  0  0  0  0  0  0  0
   -1.4472   -0.7755   -0.8668 C   0  0  0  0  0  0  0  0  0  0  0  0
   -1.9375   -1.9400   -0.2054 N   0  0  0  0  0  0  0  0  0  0  0  0
   -1.8965   -1.2321    1.0467 C   0  0  0  0  0  0  0  0  0  0  0  0
    4.2365    1.1295   -0.7287 H   0  0  0  0  0  0  0  0  0  0  0  0
    3.0114    1.8352   -1.8056 H   0  0  0  0  0  0  0  0  0  0  0  0
    2.0660   -1.0351   -1.0295 H   0  0  0  0  0  0  0  0  0  0  0  0
    0.4577   -2.0732    0.2568 H   0  0  0  0  0  0  0  0  0  0  0  0
    0.8970   -0.9679    1.6074 H   0  0  0  0  0  0  0  0  0  0  0  0
   -1.8003    2.7484   -0.2119 H   0  0  0  0  0  0  0  0  0  0  0  0
   -0.3361    2.0692   -0.9711 H   0  0  0  0  0  0  0  0  0  0  0  0
   -0.7035   -1.0158   -1.6499 H   0  0  0  0  0  0  0  0  0  0  0  0
   -2.1898   -0.0599   -1.2317 H   0  0  0  0  0  0  0  0  0  0  0  0
   -1.3724   -2.7907   -0.2462 H   0  0  0  0  0  0  0  0  0  0  0  0
   -2.8282   -0.6136    1.1577 H   0  0  0  0  0  0  0  0  0  0  0  0
   -1.5887   -1.7954    1.9279 H   0  0  0  0  0  0  0  0  0  0  0  0
  1  2  1  0
  2  3  2  0
  2  4  1  0
  4  5  1  0
  5  6  1  0
  6  7  1  0
  7  8  1  0
  7  9  2  0
  6 10  1  0
 10 11  1  0
 11 12  1  0
 12  6  1  0
  1 13  1  0
  1 14  1  0
  4 15  1  0
  5 16  1  0
  5 17  1  0
  8 18  1  0
  8 19  1  0
 10 20  1  0
 10 21  1  0
 11 22  1  0
 12 23  1  0
 12 24  1  0
M  END
$$$$

     RDKit          3D

 24 24  0  0  0  0  0  0  0  0999 V2000
    3.8766    0.0794   -0.9067 N   0  0  0  0  0  0  0  0  0  0  0  0
    2.4744    0.2298   -0.9392 C   0  0  0  0  0  0  0  0  0  0  0  0
    1.8938    0.0487   -2.0112 O   0  0  0  0  0  0  0  0  0  0  0  0
    1.6809    0.5711    0.1568 N   0  0  0  0  0  0  0  0  0  0  0  0
    0.3320    0.7576    0.3241 C   0  0  0  0  0  0  0  0  0  0  0  0
   -0.7770   -0.1415    0.1537 C   0  0  0  0  0  0  0  0  0  0  0  0
   -2.0170    0.6525    0.5025 C   0  0  0  0  0  0  0  0  0  0  0  0
   -2.3636    1.8165   -0.2328 N   0  0  0  0  0  0  0  0  0  0  0  0
   -2.7650    0.3067    1.4421 O   0  0  0  0  0  0  0  0  0  0  0  0
   -1.0993   -0.9016   -1.0714 C   0  0  0  0  0  0  0  0  0  0  0  0
   -0.6591   -2.1052   -0.3458 N   0  0  0  0  0  0  0  0  0  0  0  0
   -0.8413   -1.4278    0.9375 C   0  0  0  0  0  0  0  0  0  0  0  0
    4.5014    0.5376   -1.6078 H   0  0  0  0  0  0  0  0  0  0  0  0
    4.2840   -0.5119   -0.1512 H   0  0  0  0  0  0  0  0  0  0  0  0
    2.2791    0.7088    1.0518 H   0  0  0  0  0  0  0  0  0  0  0  0
    0.0679    1.6490   -0.3577 H   0  0  0  0  0  0  0  0  0  0  0  0
    0.1777    1.2651    1.3335 H   0  0  0  0  0  0  0  0  0  0  0  0
   -3.3186    1.8733   -0.6505 H   0  0  0  0  0  0  0  0  0  0  0  0
   -1.7238    2.6264   -0.3856 H   0  0  0  0  0  0  0  0  0  0  0  0
   -0.6595   -0.6942   -2.0251 H   0  0  0  0  0  0  0  0  0  0  0  0
   -2.2074   -1.0775   -1.2629 H   0  0  0  0  0  0  0  0  0  0  0  0
   -1.2138   -2.9489   -0.4961 H   0  0  0  0  0  0  0  0  0  0  0  0
   -0.0846   -1.6039    1.6929 H   0  0  0  0  0  0  0  0  0  0  0  0
   -1.8379   -1.7098    1.3357 H   0  0  0  0  0  0  0  0  0  0  0  0
  1  2  1  0
  2  3  2  0
  2  4  1  0
  4  5  1  0
  5  6  1  0
  6  7  1  0
  7  8  1  0
  7  9  2  0
  6 10  1  0
 10 11  1  0
 11 12  1  0
 12  6  1  0
  1 13  1  0
  1 14  1  0
  4 15  1  0
  5 16  1  0
  5 17  1  0
  8 18  1  0
  8 19  1  0
 10 20  1  0
 10 21  1  0
 11 22  1  0
 12 23  1  0
 12 24  1  0
M  END
$$$$

     RDKit          3D

 24 24  0  0  0  0  0  0  0  0999 V2000
    3.5025    0.4012    1.3014 N   0  0  0  0  0  0  0  0  0  0  0  0
    2.2453    0.6110    0.6476 C   0  0  0  0  0  0  0  0  0  0  0  0
    1.6279    1.6852    0.8317 O   0  0  0  0  0  0  0  0  0  0  0  0
    1.6660   -0.3492   -0.2032 N   0  0  0  0  0  0  0  0  0  0  0  0
    0.4396   -0.2997   -0.9120 C   0  0  0  0  0  0  0  0  0  0  0  0
   -0.8276   -0.1955   -0.1595 C   0  0  0  0  0  0  0  0  0  0  0  0
   -1.0649    0.9672    0.6847 C   0  0  0  0  0  0  0  0  0  0  0  0
   -1.2616    2.2378    0.0718 N   0  0  0  0  0  0  0  0  0  0  0  0
   -1.1090    0.9193    1.9390 O   0  0  0  0  0  0  0  0  0  0  0  0
   -1.2664   -1.4920    0.5111 C   0  0  0  0  0  0  0  0  0  0  0  0
   -1.8658   -1.8906   -0.7438 N   0  0  0  0  0  0  0  0  0  0  0  0
   -2.0081   -0.5152   -1.1052 C   0  0  0  0  0  0  0  0  0  0  0  0
    3.7114   -0.4908    1.7645 H   0  0  0  0  0  0  0  0  0  0  0  0
    4.1908    1.1669    1.2951 H   0  0  0  0  0  0  0  0  0  0  0  0
    2.2717   -1.2402   -0.3066 H   0  0  0  0  0  0  0  0  0  0  0  0
    0.3847   -1.2134   -1.5788 H   0  0  0  0  0  0  0  0  0  0  0  0
    0.4445    0.5583   -1.6714 H   0  0  0  0  0  0  0  0  0  0  0  0
   -0.6942    3.0640    0.3128 H   0  0  0  0  0  0  0  0  0  0  0  0
   -2.0146    2.3061   -0.6439 H   0  0  0  0  0  0  0  0  0  0  0  0
   -0.4519   -2.1230    0.8847 H   0  0  0  0  0  0  0  0  0  0  0  0
   -2.0131   -1.3142    1.2985 H   0  0  0  0  0  0  0  0  0  0  0  0
   -1.2122   -2.4383   -1.3089 H   0  0  0  0  0  0  0  0  0  0  0  0
   -2.9447   -0.0453   -0.7489 H   0  0  0  0  0  0  0  0  0  0  0  0
   -1.7502   -0.3097   -2.1604 H   0  0  0  0  0  0  0  0  0  0  0  0
  1  2  1  0
  2  3  2  0
  2  4  1  0
  4  5  1  0
  5  6  1  0
  6  7  1  0
  7  8  1  0
  7  9  2  0
  6 10  1  0
 10 11  1  0
 11 12  1  0
 12  6  1  0
  1 13  1  0
  1 14  1  0
  4 15  1  0
  5 16  1  0
  5 17  1  0
  8 18  1  0
  8 19  1  0
 10 20  1  0
 10 21  1  0
 11 22  1  0
 12 23  1  0
 12 24  1  0
M  END
$$$$
