
     RDKit          3D

 25 25  0  0  0  0  0  0  0  0999 V2000
    3.7144    1.0565   -0.1266 N   0  0  0  0  0  0  0  0  0  0  0  0
    3.5946   -0.2871    0.4451 C   0  0  0  0  0  0  0  0  0  0  0  0
    2.3325   -0.9195   -0.1212 C   0  0  0  0  0  0  0  0  0  0  0  0
    1.1350   -0.1076    0.2381 C   0  0  0  0  0  0  0  0  0  0  0  0
    1.2817    0.9354    0.9194 O   0  0  0  0  0  0  0  0  0  0  0  0
   -0.1620   -0.5053   -0.1835 N   0  0  0  0  0  0  0  0  0  0  0  0
   -1.3171    0.2903    0.1710 C   0  0  1  0  0  0  0  0  0  0  0  0
   -2.1432    0.6931   -1.0407 C   0  0  0  0  0  0  0  0  0  0  0  0
   -3.3208   -0.0108   -0.4008 C   0  0  2  0  0  0  0  0  0  0  0  0
   -4.3216    0.8687    0.0545 O   0  0  0  0  0  0  0  0  0  0  0  0
   -2.4736   -0.4877    0.7589 C   0  0  0  0  0  0  0  0  0  0  0  0
    3.4632    1.7289    0.6440 H   0  0  0  0  0  0  0  0  0  0  0  0
    4.7167    1.2008   -0.4220 H   0  0  0  0  0  0  0  0  0  0  0  0
    4.4624   -0.8972    0.1402 H   0  0  0  0  0  0  0  0  0  0  0  0
    3.5570   -0.2608    1.5433 H   0  0  0  0  0  0  0  0  0  0  0  0
    2.2024   -1.9153    0.3368 H   0  0  0  0  0  0  0  0  0  0  0  0
    2.3895   -1.0275   -1.2047 H   0  0  0  0  0  0  0  0  0  0  0  0
   -0.2741   -1.3809   -0.7539 H   0  0  0  0  0  0  0  0  0  0  0  0
   -1.0463    1.1738    0.7671 H   0  0  0  0  0  0  0  0  0  0  0  0
   -2.3121    1.7710   -1.1370 H   0  0  0  0  0  0  0  0  0  0  0  0
   -1.8060    0.2102   -1.9698 H   0  0  0  0  0  0  0  0  0  0  0  0
   -3.7257   -0.8013   -1.0534 H   0  0  0  0  0  0  0  0  0  0  0  0
   -4.7825    0.3713    0.7922 H   0  0  0  0  0  0  0  0  0  0  0  0
   -2.7827   -0.1233    1.7517 H   0  0  0  0  0  0  0  0  0  0  0  0
   -2.3815   -1.5758    0.7440 H   0  0  0  0  0  0  0  0  0  0  0  0
  1  2  1  0
  2  3  1  0
  3  4  1  0
  4  5  2  0
  4  6  1  0
  6  7  1  0
  7  8  1  0
  8  9  1  0
  9 10  1  0
  9 11  1  0
 11  7  1  0
  1 12  1  0
  1 13  1  0
  2 14  1  0
  2 15  1  0
  3 16  1  0
  3 17  1  0
  6 18  1  0
  7 19  1  1
  8 20  1  0
  8 21  1  0
  9 22  1  6
 10 23  1  0
 11 24  1  0
 11 25  1  0
M  END
$$$$

     RDKit          3D

 25 25  0  0  0  0  0  0  0  0999 V2000
    3.6344    1.3948   -0.7887 N   0  0  0  0  0  0  0  0  0  0  0  0
    3.5743    0.2082    0.0093 C   0  0  0  0  0  0  0  0  0  0  0  0
    2.3447   -0.6091   -0.1971 C   0  0  0  0  0  0  0  0  0  0  0  0
    1.0972    0.0921    0.1072 C   0  0  0  0  0  0  0  0  0  0  0  0
    1.0054    1.2780    0.5106 O   0  0  0  0  0  0  0  0  0  0  0  0
   -0.1295   -0.6074   -0.0602 N   0  0  0  0  0  0  0  0  0  0  0  0
   -1.3825    0.0129    0.2172 C   0  0  1  0  0  0  0  0  0  0  0  0
   -2.3405   -0.1533   -0.9627 C   0  0  0  0  0  0  0  0  0  0  0  0
   -3.4465   -0.2932    0.0777 C   0  0  2  0  0  0  0  0  0  0  0  0
   -3.9370    0.9733    0.4220 O   0  0  0  0  0  0  0  0  0  0  0  0
   -2.3684   -0.7949    1.0275 C   0  0  0  0  0  0  0  0  0  0  0  0
    2.9678    2.1312   -0.5381 H   0  0  0  0  0  0  0  0  0  0  0  0
    4.5886    1.7380   -0.9632 H   0  0  0  0  0  0  0  0  0  0  0  0
    4.4530   -0.4255   -0.2539 H   0  0  0  0  0  0  0  0  0  0  0  0
    3.6460    0.4558    1.0935 H   0  0  0  0  0  0  0  0  0  0  0  0
    2.3397   -1.0247   -1.2383 H   0  0  0  0  0  0  0  0  0  0  0  0
    2.4110   -1.4961    0.4703 H   0  0  0  0  0  0  0  0  0  0  0  0
   -0.1321   -1.5970   -0.3925 H   0  0  0  0  0  0  0  0  0  0  0  0
   -1.3704    1.0478    0.5639 H   0  0  0  0  0  0  0  0  0  0  0  0
   -2.4216    0.7329   -1.6027 H   0  0  0  0  0  0  0  0  0  0  0  0
   -2.1777   -1.1229   -1.4695 H   0  0  0  0  0  0  0  0  0  0  0  0
   -4.2203   -1.0341   -0.1755 H   0  0  0  0  0  0  0  0  0  0  0  0
   -3.3576    1.4458    1.0626 H   0  0  0  0  0  0  0  0  0  0  0  0
   -2.2839   -1.8942    0.9257 H   0  0  0  0  0  0  0  0  0  0  0  0
   -2.4940   -0.4585    2.0769 H   0  0  0  0  0  0  0  0  0  0  0  0
  1  2  1  0
  2  3  1  0
  3  4  1  0
  4  5  2  0
  4  6  1  0
  6  7  1  0
  7  8  1  0
  8  9  1  0
  9 10  1  0
  9 11  1  0
 11  7  1  0
  1 12  1  0
  1 13  1  0
  2 14  1  0
  2 15  1  0
  3 16  1  0
  3 17  1  0
  6 18  1  0
  7 19  1  1
  8 20  1  0
  8 21  1  0
  9 22  1  6
 10 23  1  0
 11 24  1  0
 11 25  1  0
M  END
$$$$

     RDKit          3D

 25 25  0  0  0  0  0  0  0  0999 V2000
    3.9106    0.8296    0.3400 N   0  0  0  0  0  0  0  0  0  0  0  0
    3.6080   -0.3556   -0.3690 C   0  0  0  0  0  0  0  0  0  0  0  0
    2.2624   -0.9491   -0.0725 C   0  0  0  0  0  0  0  0  0  0  0  0
    1.1397   -0.0611   -0.3757 C   0  0  0  0  0  0  0  0  0  0  0  0
    1.3261    1.0912   -0.8427 O   0  0  0  0  0  0  0  0  0  0  0  0
   -0.1782   -0.5362   -0.1276 N   0  0  0  0  0  0  0  0  0  0  0  0
   -1.3512    0.2572   -0.3909 C   0  0  1  0  0  0  0  0  0  0  0  0
   -2.3753   -0.5161   -1.2304 C   0  0  0  0  0  0  0  0  0  0  0  0
   -3.4422    0.2009   -0.3923 C   0  0  2  0  0  0  0  0  0  0  0  0
   -3.6351    1.4790   -0.8948 O   0  0  0  0  0  0  0  0  0  0  0  0
   -2.3902    0.2295    0.7253 C   0  0  0  0  0  0  0  0  0  0  0  0
    3.3337    1.0503    1.1530 H   0  0  0  0  0  0  0  0  0  0  0  0
    4.2583    1.6231   -0.2058 H   0  0  0  0  0  0  0  0  0  0  0  0
    4.3695   -1.1301   -0.1002 H   0  0  0  0  0  0  0  0  0  0  0  0
    3.7283   -0.1825   -1.4526 H   0  0  0  0  0  0  0  0  0  0  0  0
    2.1387   -1.8730   -0.6745 H   0  0  0  0  0  0  0  0  0  0  0  0
    2.1874   -1.2535    0.9848 H   0  0  0  0  0  0  0  0  0  0  0  0
   -0.3176   -1.4905    0.2585 H   0  0  0  0  0  0  0  0  0  0  0  0
   -1.1810    1.2584   -0.7970 H   0  0  0  0  0  0  0  0  0  0  0  0
   -2.3472   -1.5676   -0.9425 H   0  0  0  0  0  0  0  0  0  0  0  0
   -2.3823   -0.2656   -2.2895 H   0  0  0  0  0  0  0  0  0  0  0  0
   -4.3285   -0.3869   -0.1693 H   0  0  0  0  0  0  0  0  0  0  0  0
   -3.5181    2.1761   -0.2082 H   0  0  0  0  0  0  0  0  0  0  0  0
   -2.4246    1.1190    1.3522 H   0  0  0  0  0  0  0  0  0  0  0  0
   -2.3914   -0.7465    1.2571 H   0  0  0  0  0  0  0  0  0  0  0  0
  1  2  1  0
  2  3  1  0
  3  4  1  0
  4  5  2  0
  4  6  1  0
  6  7  1  0
  7  8  1  0
  8  9  1  0
  9 10  1  0
  9 11  1  0
 11  7  1  0
  1 12  1  0
  1 13  1  0
  2 14  1  0
  2 15  1  0
  3 16  1  0
  3 17  1  0
  6 18  1  0
  7 19  1  6
  8 20  1  0
  8 21  1  0
  9 22  1  1
 10 23  1  0
 11 24  1  0
 11 25  1  0
M  END
$$$$

     RDKit          3D

 25 25  0  0  0  0  0  0  0  0999 V2000
    3.7399    1.1324   -0.3780 N   0  0  0  0  0  0  0  0  0  0  0  0
    3.5589   -0.3044   -0.4017 C   0  0  0  0  0  0  0  0  0  0  0  0
    2.4046   -0.7301    0.4440 C   0  0  0  0  0  0  0  0  0  0  0  0
    1.1176   -0.1317   -0.0003 C   0  0  0  0  0  0  0  0  0  0  0  0
    1.0943    0.6318   -0.9817 O   0  0  0  0  0  0  0  0  0  0  0  0
   -0.1074   -0.3912    0.6489 N   0  0  0  0  0  0  0  0  0  0  0  0
   -1.3766    0.1282    0.3021 C   0  0  1  0  0  0  0  0  0  0  0  0
   -2.4776   -0.8852    0.0550 C   0  0  0  0  0  0  0  0  0  0  0  0
   -3.4298    0.1967    0.5594 C   0  0  2  0  0  0  0  0  0  0  0  0
   -3.8094    1.0290   -0.5069 O   0  0  0  0  0  0  0  0  0  0  0  0
   -2.2414    0.7368    1.3412 C   0  0  0  0  0  0  0  0  0  0  0  0
    4.7450    1.3769   -0.2701 H   0  0  0  0  0  0  0  0  0  0  0  0
    3.2861    1.5963   -1.1938 H   0  0  0  0  0  0  0  0  0  0  0  0
    4.4741   -0.7585    0.0114 H   0  0  0  0  0  0  0  0  0  0  0  0
    3.4505   -0.6931   -1.4354 H   0  0  0  0  0  0  0  0  0  0  0  0
    2.5600   -0.4137    1.4942 H   0  0  0  0  0  0  0  0  0  0  0  0
    2.3722   -1.8426    0.4344 H   0  0  0  0  0  0  0  0  0  0  0  0
   -0.0580   -1.0469    1.4842 H   0  0  0  0  0  0  0  0  0  0  0  0
   -1.3082    0.7985   -0.5820 H   0  0  0  0  0  0  0  0  0  0  0  0
   -2.4344   -1.7784    0.7126 H   0  0  0  0  0  0  0  0  0  0  0  0
   -2.6014   -1.1230   -1.0226 H   0  0  0  0  0  0  0  0  0  0  0  0
   -4.2612   -0.1731    1.1582 H   0  0  0  0  0  0  0  0  0  0  0  0
   -4.2545    0.5002   -1.2284 H   0  0  0  0  0  0  0  0  0  0  0  0
   -2.2581    0.2935    2.3394 H   0  0  0  0  0  0  0  0  0  0  0  0
   -2.1852    1.8517    1.3216 H   0  0  0  0  0  0  0  0  0  0  0  0
  1  2  1  0
  2  3  1  0
  3  4  1  0
  4  5  2  0
  4  6  1  0
  6  7  1  0
  7  8  1  0
  8  9  1  0
  9 10  1  0
  9 11  1  0
 11  7  1  0
  1 12  1  0
  1 13  1  0
  2 14  1  0
  2 15  1  0
  3 16  1  0
  3 17  1  0
  6 18  1  0
  7 19  1  6
  8 20  1  0
  8 21  1  0
  9 22  1  1
 10 23  1  0
 11 24  1  0
 11 25  1  0
M  END
$$$$

     RDKit          3D

 25 25  0  0  0  0  0  0  0  0999 V2000
    4.6101   -0.2207    0.5578 N   0  0  0  0  0  0  0  0  0  0  0  0
    3.3368   -0.6858   -0.0022 C   0  0  0  0  0  0  0  0  0  0  0  0
    2.2690    0.2343    0.5010 C   0  0  0  0  0  0  0  0  0  0  0  0
    0.9463   -0.2057   -0.0487 C   0  0  0  0  0  0  0  0  0  0  0  0
    0.8778   -1.2187   -0.8123 O   0  0  0  0  0  0  0  0  0  0  0  0
   -0.2666    0.4595    0.2408 N   0  0  0  0  0  0  0  0  0  0  0  0
   -1.4934    0.0127   -0.2978 C   0  0  1  0  0  0  0  0  0  0  0  0
   -2.6725   -0.0837    0.6452 C   0  0  0  0  0  0  0  0  0  0  0  0
   -3.5227    0.3082   -0.5500 C   0  0  2  0  0  0  0  0  0  0  0  0
   -3.6919   -0.7968   -1.3802 O   0  0  0  0  0  0  0  0  0  0  0  0
   -2.2978    1.1134   -1.0062 C   0  0  0  0  0  0  0  0  0  0  0  0
    5.3267   -0.9700    0.5335 H   0  0  0  0  0  0  0  0  0  0  0  0
    4.9637    0.5392   -0.0745 H   0  0  0  0  0  0  0  0  0  0  0  0
    3.3827   -0.6540   -1.1055 H   0  0  0  0  0  0  0  0  0  0  0  0
    3.1662   -1.7340    0.3719 H   0  0  0  0  0  0  0  0  0  0  0  0
    2.2381    0.1903    1.6170 H   0  0  0  0  0  0  0  0  0  0  0  0
    2.5220    1.2630    0.1564 H   0  0  0  0  0  0  0  0  0  0  0  0
   -0.2341    1.2869    0.8605 H   0  0  0  0  0  0  0  0  0  0  0  0
   -1.4788   -0.8731   -0.9529 H   0  0  0  0  0  0  0  0  0  0  0  0
   -2.7360    0.6824    1.4227 H   0  0  0  0  0  0  0  0  0  0  0  0
   -2.8376   -1.1270    0.9730 H   0  0  0  0  0  0  0  0  0  0  0  0
   -4.4089    0.9022   -0.3402 H   0  0  0  0  0  0  0  0  0  0  0  0
   -3.6154   -1.6189   -0.8484 H   0  0  0  0  0  0  0  0  0  0  0  0
   -2.2604    2.0837   -0.4837 H   0  0  0  0  0  0  0  0  0  0  0  0
   -2.1235    1.1128   -2.0818 H   0  0  0  0  0  0  0  0  0  0  0  0
  1  2  1  0
  2  3  1  0
  3  4  1  0
  4  5  2  0
  4  6  1  0
  6  7  1  0
  7  8  1  0
  8  9  1  0
  9 10  1  0
  9 11  1  0
 11  7  1  0
  1 12  1  0
  1 13  1  0
  2 14  1  0
  2 15  1  0
  3 16  1  0
  3 17  1  0
  6 18  1  0
  7 19  1  6
  8 20  1  0
  8 21  1  0
  9 22  1  1
 10 23  1  0
 11 24  1  0
 11 25  1  0
M  END
$$$$

     RDKit          3D

 25 25  0  0  0  0  0  0  0  0999 V2000
    4.4729    0.9730   -1.2226 N   0  0  0  0  0  0  0  0  0  0  0  0
    3.0633    0.8991   -1.5589 C   0  0  0  0  0  0  0  0  0  0  0  0
    2.3396    0.3579   -0.3740 C   0  0  0  0  0  0  0  0  0  0  0  0
    0.8602    0.2427   -0.6252 C   0  0  0  0  0  0  0  0  0  0  0  0
    0.3445    0.5739   -1.7142 O   0  0  0  0  0  0  0  0  0  0  0  0
   -0.0167   -0.2525    0.3775 N   0  0  0  0  0  0  0  0  0  0  0  0
   -1.4262   -0.3951    0.2269 C   0  0  1  0  0  0  0  0  0  0  0  0
   -2.0262   -1.7279    0.5378 C   0  0  0  0  0  0  0  0  0  0  0  0
   -3.2853   -0.9471    0.9497 C   0  0  2  0  0  0  0  0  0  0  0  0
   -4.0861   -0.5890   -0.1421 O   0  0  0  0  0  0  0  0  0  0  0  0
   -2.3146    0.2045    1.2597 C   0  0  0  0  0  0  0  0  0  0  0  0
    4.9376    1.5044   -2.0170 H   0  0  0  0  0  0  0  0  0  0  0  0
    4.5407    1.6331   -0.3947 H   0  0  0  0  0  0  0  0  0  0  0  0
    2.9677    0.2335   -2.4407 H   0  0  0  0  0  0  0  0  0  0  0  0
    2.6917    1.9240   -1.7858 H   0  0  0  0  0  0  0  0  0  0  0  0
    2.6866   -0.6827   -0.1996 H   0  0  0  0  0  0  0  0  0  0  0  0
    2.5197    0.9814    0.5018 H   0  0  0  0  0  0  0  0  0  0  0  0
    0.4422   -0.5264    1.2906 H   0  0  0  0  0  0  0  0  0  0  0  0
   -1.7530   -0.0636   -0.7908 H   0  0  0  0  0  0  0  0  0  0  0  0
   -2.2641   -2.3736   -0.3363 H   0  0  0  0  0  0  0  0  0  0  0  0
   -1.6381   -2.2497    1.4241 H   0  0  0  0  0  0  0  0  0  0  0  0
   -3.8039   -1.3492    1.8166 H   0  0  0  0  0  0  0  0  0  0  0  0
   -4.5114    0.2956    0.0169 H   0  0  0  0  0  0  0  0  0  0  0  0
   -2.0170    0.1287    2.3090 H   0  0  0  0  0  0  0  0  0  0  0  0
   -2.7241    1.2050    1.0501 H   0  0  0  0  0  0  0  0  0  0  0  0
  1  2  1  0
  2  3  1  0
  3  4  1  0
  4  5  2  0
  4  6  1  0
  6  7  1  0
  7  8  1  0
  8  9  1  0
  9 10  1  0
  9 11  1  0
 11  7  1  0
  1 12  1  0
  1 13  1  0
  2 14  1  0
  2 15  1  0
  3 16  1  0
  3 17  1  0
  6 18  1  0
  7 19  1  6
  8 20  1  0
  8 21  1  0
  9 22  1  1
 10 23  1  0
 11 24  1  0
 11 25  1  0
M  END
$$$$

     RDKit          3D

 25 25  0  0  0  0  0  0  0  0999 V2000
   -3.9058   -0.6443    0.0548 N   0  0  0  0  0  0  0  0  0  0  0  0
   -3.5387    0.7289    0.2009 C   0  0  0  0  0  0  0  0  0  0  0  0
   -2.2125    1.0707   -0.4306 C   0  0  0  0  0  0  0  0  0  0  0  0
   -1.1207    0.2755    0.1733 C   0  0  0  0  0  0  0  0  0  0  0  0
   -1.3920   -0.5351    1.0752 O   0  0  0  0  0  0  0  0  0  0  0  0
    0.2335    0.3842   -0.2203 N   0  0  0  0  0  0  0  0  0  0  0  0
    1.2911   -0.3634    0.3409 C   0  0  1  0  0  0  0  0  0  0  0  0
    2.1408   -1.1653   -0.6445 C   0  0  0  0  0  0  0  0  0  0  0  0
    3.1972   -0.0692   -0.5169 C   0  0  2  0  0  0  0  0  0  0  0  0
    4.4974   -0.5572   -0.3762 O   0  0  0  0  0  0  0  0  0  0  0  0
    2.5278    0.3247    0.7868 C   0  0  0  0  0  0  0  0  0  0  0  0
   -4.8724   -0.7992   -0.3084 H   0  0  0  0  0  0  0  0  0  0  0  0
   -3.6843   -1.2288    0.8878 H   0  0  0  0  0  0  0  0  0  0  0  0
   -4.3476    1.3779   -0.1765 H   0  0  0  0  0  0  0  0  0  0  0  0
   -3.4478    0.9412    1.2941 H   0  0  0  0  0  0  0  0  0  0  0  0
   -2.2326    1.0163   -1.5297 H   0  0  0  0  0  0  0  0  0  0  0  0
   -2.0143    2.1466   -0.1783 H   0  0  0  0  0  0  0  0  0  0  0  0
    0.4482    1.0716   -0.9820 H   0  0  0  0  0  0  0  0  0  0  0  0
    0.9163   -1.0526    1.1372 H   0  0  0  0  0  0  0  0  0  0  0  0
    1.7126   -1.2658   -1.6472 H   0  0  0  0  0  0  0  0  0  0  0  0
    2.5569   -2.1068   -0.2167 H   0  0  0  0  0  0  0  0  0  0  0  0
    3.1744    0.6870   -1.3116 H   0  0  0  0  0  0  0  0  0  0  0  0
    4.5278   -1.4190    0.0953 H   0  0  0  0  0  0  0  0  0  0  0  0
    3.0558   -0.2062    1.6176 H   0  0  0  0  0  0  0  0  0  0  0  0
    2.4891    1.3884    1.0095 H   0  0  0  0  0  0  0  0  0  0  0  0
  1  2  1  0
  2  3  1  0
  3  4  1  0
  4  5  2  0
  4  6  1  0
  6  7  1  0
  7  8  1  0
  8  9  1  0
  9 10  1  0
  9 11  1  0
 11  7  1  0
  1 12  1  0
  1 13  1  0
  2 14  1  0
  2 15  1  0
  3 16  1  0
  3 17  1  0
  6 18  1  0
  7 19  1  1
  8 20  1  0
  8 21  1  0
  9 22  1  6
 10 23  1  0
 11 24  1  0
 11 25  1  0
M  END
$$$$

     RDKit          3D

 25 25  0  0  0  0  0  0  0  0999 V2000
    3.6983    0.4810   -0.8584 N   0  0  0  0  0  0  0  0  0  0  0  0
    3.5308   -0.3124    0.3347 C   0  0  0  0  0  0  0  0  0  0  0  0
    2.2454   -1.0814    0.2142 C   0  0  0  0  0  0  0  0  0  0  0  0
    1.1204   -0.1262    0.0717 C   0  0  0  0  0  0  0  0  0  0  0  0
    1.3542    1.1170    0.0685 O   0  0  0  0  0  0  0  0  0  0  0  0
   -0.2269   -0.5413   -0.0635 N   0  0  0  0  0  0  0  0  0  0  0  0
   -1.2811    0.4387   -0.1990 C   0  0  1  0  0  0  0  0  0  0  0  0
   -2.2284    0.0957   -1.3095 C   0  0  0  0  0  0  0  0  0  0  0  0
   -3.3772    0.0704   -0.3163 C   0  0  2  0  0  0  0  0  0  0  0  0
   -4.2684    1.1178   -0.5375 O   0  0  0  0  0  0  0  0  0  0  0  0
   -2.4066    0.2988    0.8006 C   0  0  0  0  0  0  0  0  0  0  0  0
    4.3211    0.0243   -1.5499 H   0  0  0  0  0  0  0  0  0  0  0  0
    3.9817    1.4593   -0.6253 H   0  0  0  0  0  0  0  0  0  0  0  0
    4.3537   -1.0741    0.3971 H   0  0  0  0  0  0  0  0  0  0  0  0
    3.4824    0.2967    1.2621 H   0  0  0  0  0  0  0  0  0  0  0  0
    2.2737   -1.6794   -0.7242 H   0  0  0  0  0  0  0  0  0  0  0  0
    2.0647   -1.7529    1.0851 H   0  0  0  0  0  0  0  0  0  0  0  0
   -0.4728   -1.5467   -0.0670 H   0  0  0  0  0  0  0  0  0  0  0  0
   -0.8962    1.4780   -0.1813 H   0  0  0  0  0  0  0  0  0  0  0  0
   -2.3068    0.8885   -2.0550 H   0  0  0  0  0  0  0  0  0  0  0  0
   -2.0829   -0.9260   -1.7223 H   0  0  0  0  0  0  0  0  0  0  0  0
   -3.8890   -0.9077   -0.2242 H   0  0  0  0  0  0  0  0  0  0  0  0
   -4.0843    1.5704   -1.4030 H   0  0  0  0  0  0  0  0  0  0  0  0
   -2.3000   -0.5869    1.4820 H   0  0  0  0  0  0  0  0  0  0  0  0
   -2.6055    1.1986    1.4008 H   0  0  0  0  0  0  0  0  0  0  0  0
  1  2  1  0
  2  3  1  0
  3  4  1  0
  4  5  2  0
  4  6  1  0
  6  7  1  0
  7  8  1  0
  8  9  1  0
  9 10  1  0
  9 11  1  0
 11  7  1  0
  1 12  1  0
  1 13  1  0
  2 14  1  0
  2 15  1  0
  3 16  1  0
  3 17  1  0
  6 18  1  0
  7 19  1  6
  8 20  1  0
  8 21  1  0
  9 22  1  1
 10 23  1  0
 11 24  1  0
 11 25  1  0
M  END
$$$$
