
     RDKit          3D

 26 26  0  0  0  0  0  0  0  0999 V2000
   -2.8346    1.0786   -1.1612 C   0  0  0  0  0  0  0  0  0  0  0  0
   -2.5192   -0.2188   -0.5004 C   0  0  2  0  0  0  0  0  0  0  0  0
   -3.6980   -0.7180    0.0841 O   0  0  0  0  0  0  0  0  0  0  0  0
   -1.5093   -0.0987    0.6118 C   0  0  1  0  0  0  0  0  0  0  0  0
   -1.3117   -1.4018    1.1699 N   0  0  0  0  0  0  0  0  0  0  0  0
   -0.2490    0.5411    0.1842 C   0  0  0  0  0  0  0  0  0  0  0  0
   -0.2957    1.6802   -0.3181 O   0  0  0  0  0  0  0  0  0  0  0  0
    1.0034   -0.0871    0.3223 N   0  0  0  0  0  0  0  0  0  0  0  0
    2.2594    0.4743   -0.0699 C   0  0  0  0  0  0  0  0  0  0  0  0
    3.1469   -0.4070   -0.9173 C   0  0  0  0  0  0  0  0  0  0  0  0
    4.5133    0.7033   -0.4527 S   0  0  0  0  0  0  0  0  0  0  0  0
    3.3578    0.4695    0.9579 C   0  0  0  0  0  0  0  0  0  0  0  0
   -3.9063    1.0823   -1.4346 H   0  0  0  0  0  0  0  0  0  0  0  0
   -2.6321    1.9082   -0.4512 H   0  0  0  0  0  0  0  0  0  0  0  0
   -2.2732    1.1808   -2.1146 H   0  0  0  0  0  0  0  0  0  0  0  0
   -2.1558   -0.9849   -1.2121 H   0  0  0  0  0  0  0  0  0  0  0  0
   -3.4966   -1.6309    0.4177 H   0  0  0  0  0  0  0  0  0  0  0  0
   -1.9737    0.5328    1.4233 H   0  0  0  0  0  0  0  0  0  0  0  0
   -0.9990   -2.1104    0.4791 H   0  0  0  0  0  0  0  0  0  0  0  0
   -0.7809   -1.4131    2.0636 H   0  0  0  0  0  0  0  0  0  0  0  0
    1.0211   -1.0420    0.7458 H   0  0  0  0  0  0  0  0  0  0  0  0
    2.1707    1.4901   -0.5118 H   0  0  0  0  0  0  0  0  0  0  0  0
    3.2862   -1.3857   -0.4018 H   0  0  0  0  0  0  0  0  0  0  0  0
    2.9172   -0.4400   -1.9833 H   0  0  0  0  0  0  0  0  0  0  0  0
    3.3600    1.3183    1.6712 H   0  0  0  0  0  0  0  0  0  0  0  0
    3.5992   -0.5209    1.3979 H   0  0  0  0  0  0  0  0  0  0  0  0
  1  2  1  0
  2  3  1  0
  2  4  1  0
  4  5  1  0
  4  6  1  0
  6  7  2  0
  6  8  1  0
  8  9  1  0
  9 10  1  0
 10 11  1  0
 11 12  1  0
 12  9  1  0
  1 13  1  0
  1 14  1  0
  1 15  1  0
  2 16  1  6
  3 17  1  0
  4 18  1  1
  5 19  1  0
  5 20  1  0
  8 21  1  0
  9 22  1  0
 10 23  1  0
 10 24  1  0
 12 25  1  0
 12 26  1  0
M  END
$$$$

     RDKit          3D

 26 26  0  0  0  0  0  0  0  0999 V2000
   -3.2132   -0.2510   -0.8456 C   0  0  0  0  0  0  0  0  0  0  0  0
   -1.8140   -0.5779   -0.3826 C   0  0  2  0  0  0  0  0  0  0  0  0
   -1.6784   -1.8587    0.0787 O   0  0  0  0  0  0  0  0  0  0  0  0
   -1.3685    0.4731    0.6115 C   0  0  1  0  0  0  0  0  0  0  0  0
   -2.1269    0.4122    1.8465 N   0  0  0  0  0  0  0  0  0  0  0  0
    0.0666    0.3361    0.9492 C   0  0  0  0  0  0  0  0  0  0  0  0
    0.4831    0.1940    2.1372 O   0  0  0  0  0  0  0  0  0  0  0  0
    1.0816    0.3553   -0.0459 N   0  0  0  0  0  0  0  0  0  0  0  0
    2.4809    0.2270    0.2274 C   0  0  0  0  0  0  0  0  0  0  0  0
    3.0354   -0.9899   -0.4973 C   0  0  0  0  0  0  0  0  0  0  0  0
    3.7421    0.0468   -1.8031 S   0  0  0  0  0  0  0  0  0  0  0  0
    3.4036    1.1793   -0.4600 C   0  0  0  0  0  0  0  0  0  0  0  0
   -3.9787   -0.7091   -0.1867 H   0  0  0  0  0  0  0  0  0  0  0  0
   -3.4091   -0.6103   -1.8798 H   0  0  0  0  0  0  0  0  0  0  0  0
   -3.3908    0.8405   -0.8529 H   0  0  0  0  0  0  0  0  0  0  0  0
   -1.1522   -0.4629   -1.2719 H   0  0  0  0  0  0  0  0  0  0  0  0
   -2.0893   -1.9660    0.9615 H   0  0  0  0  0  0  0  0  0  0  0  0
   -1.5946    1.4599    0.1493 H   0  0  0  0  0  0  0  0  0  0  0  0
   -2.4168    1.3577    2.1842 H   0  0  0  0  0  0  0  0  0  0  0  0
   -2.8701   -0.2907    1.8511 H   0  0  0  0  0  0  0  0  0  0  0  0
    0.7769    0.4716   -1.0455 H   0  0  0  0  0  0  0  0  0  0  0  0
    2.6746    0.1108    1.3146 H   0  0  0  0  0  0  0  0  0  0  0  0
    2.2613   -1.6530   -0.9357 H   0  0  0  0  0  0  0  0  0  0  0  0
    3.7710   -1.5758    0.0514 H   0  0  0  0  0  0  0  0  0  0  0  0
    3.0006    2.1565   -0.7506 H   0  0  0  0  0  0  0  0  0  0  0  0
    4.3248    1.3244    0.1621 H   0  0  0  0  0  0  0  0  0  0  0  0
  1  2  1  0
  2  3  1  0
  2  4  1  0
  4  5  1  0
  4  6  1  0
  6  7  2  0
  6  8  1  0
  8  9  1  0
  9 10  1  0
 10 11  1  0
 11 12  1  0
 12  9  1  0
  1 13  1  0
  1 14  1  0
  1 15  1  0
  2 16  1  6
  3 17  1  0
  4 18  1  6
  5 19  1  0
  5 20  1  0
  8 21  1  0
  9 22  1  0
 10 23  1  0
 10 24  1  0
 12 25  1  0
 12 26  1  0
M  END
$$$$

     RDKit          3D

 26 26  0  0  0  0  0  0  0  0999 V2000
   -3.6551   -0.8032   -0.0569 C   0  0  0  0  0  0  0  0  0  0  0  0
   -2.3452   -0.8204    0.6749 C   0  0  2  0  0  0  0  0  0  0  0  0
   -2.2397    0.3511    1.4056 O   0  0  0  0  0  0  0  0  0  0  0  0
   -1.2225   -0.8975   -0.3545 C   0  0  1  0  0  0  0  0  0  0  0  0
   -1.3650    0.2682   -1.2333 N   0  0  0  0  0  0  0  0  0  0  0  0
    0.1111   -0.8632    0.2934 C   0  0  0  0  0  0  0  0  0  0  0  0
    0.4128   -1.7883    1.0857 O   0  0  0  0  0  0  0  0  0  0  0  0
    1.0343    0.1600    0.0503 N   0  0  0  0  0  0  0  0  0  0  0  0
    2.3306    0.1860    0.6851 C   0  0  0  0  0  0  0  0  0  0  0  0
    3.4931    0.4948   -0.2283 C   0  0  0  0  0  0  0  0  0  0  0  0
    4.4102    1.0017    1.2785 S   0  0  0  0  0  0  0  0  0  0  0  0
    2.6482    1.5013    1.3904 C   0  0  0  0  0  0  0  0  0  0  0  0
   -4.3225    0.0097    0.3389 H   0  0  0  0  0  0  0  0  0  0  0  0
   -3.4912   -0.5519   -1.1218 H   0  0  0  0  0  0  0  0  0  0  0  0
   -4.1448   -1.7848   -0.0119 H   0  0  0  0  0  0  0  0  0  0  0  0
   -2.2583   -1.6938    1.3501 H   0  0  0  0  0  0  0  0  0  0  0  0
   -1.3761    0.3915    1.8721 H   0  0  0  0  0  0  0  0  0  0  0  0
   -1.3195   -1.7896   -0.9893 H   0  0  0  0  0  0  0  0  0  0  0  0
   -1.2656    1.1450   -0.6796 H   0  0  0  0  0  0  0  0  0  0  0  0
   -0.6800    0.2282   -2.0169 H   0  0  0  0  0  0  0  0  0  0  0  0
    0.7739    0.9191   -0.6062 H   0  0  0  0  0  0  0  0  0  0  0  0
    2.5187   -0.6615    1.3663 H   0  0  0  0  0  0  0  0  0  0  0  0
    3.9311   -0.3405   -0.7656 H   0  0  0  0  0  0  0  0  0  0  0  0
    3.2905    1.4176   -0.8223 H   0  0  0  0  0  0  0  0  0  0  0  0
    2.2700    1.5875    2.4059 H   0  0  0  0  0  0  0  0  0  0  0  0
    2.4612    2.3331    0.6938 H   0  0  0  0  0  0  0  0  0  0  0  0
  1  2  1  0
  2  3  1  0
  2  4  1  0
  4  5  1  0
  4  6  1  0
  6  7  2  0
  6  8  1  0
  8  9  1  0
  9 10  1  0
 10 11  1  0
 11 12  1  0
 12  9  1  0
  1 13  1  0
  1 14  1  0
  1 15  1  0
  2 16  1  1
  3 17  1  0
  4 18  1  6
  5 19  1  0
  5 20  1  0
  8 21  1  0
  9 22  1  0
 10 23  1  0
 10 24  1  0
 12 25  1  0
 12 26  1  0
M  END
$$$$

     RDKit          3D

 26 26  0  0  0  0  0  0  0  0999 V2000
   -1.9798    0.4393   -1.2752 C   0  0  0  0  0  0  0  0  0  0  0  0
   -2.2930   -0.1983    0.0499 C   0  0  2  0  0  0  0  0  0  0  0  0
   -3.6042    0.2211    0.3812 O   0  0  0  0  0  0  0  0  0  0  0  0
   -1.4202    0.2944    1.1824 C   0  0  1  0  0  0  0  0  0  0  0  0
   -1.9637   -0.3594    2.3854 N   0  0  0  0  0  0  0  0  0  0  0  0
   -0.0100   -0.1552    1.0594 C   0  0  0  0  0  0  0  0  0  0  0  0
    0.5124   -0.9778    1.8878 O   0  0  0  0  0  0  0  0  0  0  0  0
    0.8722    0.2779    0.0313 N   0  0  0  0  0  0  0  0  0  0  0  0
    2.2351   -0.1572   -0.0876 C   0  0  0  0  0  0  0  0  0  0  0  0
    3.2698    0.9012   -0.2703 C   0  0  0  0  0  0  0  0  0  0  0  0
    4.3668   -0.3813   -0.9871 S   0  0  0  0  0  0  0  0  0  0  0  0
    2.6224   -0.7418   -1.4237 C   0  0  0  0  0  0  0  0  0  0  0  0
   -2.9349    0.3841   -1.8780 H   0  0  0  0  0  0  0  0  0  0  0  0
   -1.7593    1.5071   -1.1862 H   0  0  0  0  0  0  0  0  0  0  0  0
   -1.2485   -0.1368   -1.8801 H   0  0  0  0  0  0  0  0  0  0  0  0
   -2.2901   -1.2935   -0.0326 H   0  0  0  0  0  0  0  0  0  0  0  0
   -3.9963   -0.3854    1.0637 H   0  0  0  0  0  0  0  0  0  0  0  0
   -1.4671    1.3814    1.2428 H   0  0  0  0  0  0  0  0  0  0  0  0
   -1.2770   -0.3398    3.1569 H   0  0  0  0  0  0  0  0  0  0  0  0
   -2.1925   -1.3591    2.1324 H   0  0  0  0  0  0  0  0  0  0  0  0
    0.5136    0.9488   -0.6760 H   0  0  0  0  0  0  0  0  0  0  0  0
    2.5116   -0.8676    0.7163 H   0  0  0  0  0  0  0  0  0  0  0  0
    3.6615    1.3732    0.6390 H   0  0  0  0  0  0  0  0  0  0  0  0
    3.0262    1.6423   -1.0537 H   0  0  0  0  0  0  0  0  0  0  0  0
    2.5102   -1.8488   -1.5016 H   0  0  0  0  0  0  0  0  0  0  0  0
    2.3346   -0.1689   -2.3046 H   0  0  0  0  0  0  0  0  0  0  0  0
  1  2  1  0
  2  3  1  0
  2  4  1  0
  4  5  1  0
  4  6  1  0
  6  7  2  0
  6  8  1  0
  8  9  1  0
  9 10  1  0
 10 11  1  0
 11 12  1  0
 12  9  1  0
  1 13  1  0
  1 14  1  0
  1 15  1  0
  2 16  1  6
  3 17  1  0
  4 18  1  1
  5 19  1  0
  5 20  1  0
  8 21  1  0
  9 22  1  0
 10 23  1  0
 10 24  1  0
 12 25  1  0
 12 26  1  0
M  END
$$$$

     RDKit          3D

 26 26  0  0  0  0  0  0  0  0999 V2000
   -3.5445   -0.4582    1.0104 C   0  0  0  0  0  0  0  0  0  0  0  0
   -2.1226   -0.8665    0.7833 C   0  0  2  0  0  0  0  0  0  0  0  0
   -1.3987   -0.8372    1.9705 O   0  0  0  0  0  0  0  0  0  0  0  0
   -1.4672   -0.0324   -0.3027 C   0  0  1  0  0  0  0  0  0  0  0  0
   -1.3577    1.3453    0.1005 N   0  0  0  0  0  0  0  0  0  0  0  0
   -0.1278   -0.5484   -0.6033 C   0  0  0  0  0  0  0  0  0  0  0  0
    0.0053   -1.7388   -0.9766 O   0  0  0  0  0  0  0  0  0  0  0  0
    1.0281    0.2617   -0.4844 N   0  0  0  0  0  0  0  0  0  0  0  0
    2.3446   -0.2817   -0.7907 C   0  0  0  0  0  0  0  0  0  0  0  0
    3.3443   -0.0703    0.3334 C   0  0  0  0  0  0  0  0  0  0  0  0
    4.6630   -0.0355   -0.9299 S   0  0  0  0  0  0  0  0  0  0  0  0
    3.1516    0.6480   -1.6492 C   0  0  0  0  0  0  0  0  0  0  0  0
   -4.2108   -1.3505    1.0715 H   0  0  0  0  0  0  0  0  0  0  0  0
   -3.6331    0.0536    1.9915 H   0  0  0  0  0  0  0  0  0  0  0  0
   -3.9457    0.2159    0.2342 H   0  0  0  0  0  0  0  0  0  0  0  0
   -2.1262   -1.9156    0.4169 H   0  0  0  0  0  0  0  0  0  0  0  0
   -1.1051    0.0722    2.2261 H   0  0  0  0  0  0  0  0  0  0  0  0
   -2.1267   -0.1406   -1.2034 H   0  0  0  0  0  0  0  0  0  0  0  0
   -1.8623    1.5883    0.9530 H   0  0  0  0  0  0  0  0  0  0  0  0
   -1.4776    2.0107   -0.6851 H   0  0  0  0  0  0  0  0  0  0  0  0
    0.9792    1.2696   -0.1753 H   0  0  0  0  0  0  0  0  0  0  0  0
    2.3209   -1.3319   -1.1047 H   0  0  0  0  0  0  0  0  0  0  0  0
    3.4365   -0.9522    1.0247 H   0  0  0  0  0  0  0  0  0  0  0  0
    3.2074    0.8851    0.8589 H   0  0  0  0  0  0  0  0  0  0  0  0
    3.0463    0.5037   -2.7495 H   0  0  0  0  0  0  0  0  0  0  0  0
    2.9790    1.7060   -1.3202 H   0  0  0  0  0  0  0  0  0  0  0  0
  1  2  1  0
  2  3  1  0
  2  4  1  0
  4  5  1  0
  4  6  1  0
  6  7  2  0
  6  8  1  0
  8  9  1  0
  9 10  1  0
 10 11  1  0
 11 12  1  0
 12  9  1  0
  1 13  1  0
  1 14  1  0
  1 15  1  0
  2 16  1  6
  3 17  1  0
  4 18  1  6
  5 19  1  0
  5 20  1  0
  8 21  1  0
  9 22  1  0
 10 23  1  0
 10 24  1  0
 12 25  1  0
 12 26  1  0
M  END
$$$$

     RDKit          3D

 26 26  0  0  0  0  0  0  0  0999 V2000
   -1.6558    0.1435    1.7064 C   0  0  0  0  0  0  0  0  0  0  0  0
   -2.2679    0.2645    0.3715 C   0  0  2  0  0  0  0  0  0  0  0  0
   -3.5725   -0.2859    0.4095 O   0  0  0  0  0  0  0  0  0  0  0  0
   -1.5764   -0.4239   -0.7663 C   0  0  1  0  0  0  0  0  0  0  0  0
   -2.3968   -0.0932   -1.9490 N   0  0  0  0  0  0  0  0  0  0  0  0
   -0.1731   -0.0119   -0.9735 C   0  0  0  0  0  0  0  0  0  0  0  0
    0.0939    0.5980   -2.0539 O   0  0  0  0  0  0  0  0  0  0  0  0
    0.8870   -0.2462   -0.0626 N   0  0  0  0  0  0  0  0  0  0  0  0
    2.2392    0.1410   -0.2406 C   0  0  0  0  0  0  0  0  0  0  0  0
    3.3169   -0.8684   -0.0665 C   0  0  0  0  0  0  0  0  0  0  0  0
    4.4179    0.4863    0.4688 S   0  0  0  0  0  0  0  0  0  0  0  0
    2.7274    1.0184    0.8888 C   0  0  0  0  0  0  0  0  0  0  0  0
   -1.4158   -0.8780    2.0331 H   0  0  0  0  0  0  0  0  0  0  0  0
   -0.8080    0.8426    1.8560 H   0  0  0  0  0  0  0  0  0  0  0  0
   -2.4250    0.4965    2.4590 H   0  0  0  0  0  0  0  0  0  0  0  0
   -2.3879    1.3391    0.1276 H   0  0  0  0  0  0  0  0  0  0  0  0
   -3.8122   -0.7345   -0.4170 H   0  0  0  0  0  0  0  0  0  0  0  0
   -1.6990   -1.5184   -0.6292 H   0  0  0  0  0  0  0  0  0  0  0  0
   -2.0573    0.8336   -2.3309 H   0  0  0  0  0  0  0  0  0  0  0  0
   -2.2473   -0.7761   -2.7146 H   0  0  0  0  0  0  0  0  0  0  0  0
    0.6298   -0.7533    0.8110 H   0  0  0  0  0  0  0  0  0  0  0  0
    2.3827    0.6708   -1.2140 H   0  0  0  0  0  0  0  0  0  0  0  0
    3.2264   -1.5984    0.7378 H   0  0  0  0  0  0  0  0  0  0  0  0
    3.7159   -1.3402   -0.9812 H   0  0  0  0  0  0  0  0  0  0  0  0
    2.5067    2.0693    0.6818 H   0  0  0  0  0  0  0  0  0  0  0  0
    2.3512    0.6248    1.8481 H   0  0  0  0  0  0  0  0  0  0  0  0
  1  2  1  0
  2  3  1  0
  2  4  1  0
  4  5  1  0
  4  6  1  0
  6  7  2  0
  6  8  1  0
  8  9  1  0
  9 10  1  0
 10 11  1  0
 11 12  1  0
 12  9  1  0
  1 13  1  0
  1 14  1  0
  1 15  1  0
  2 16  1  6
  3 17  1  0
  4 18  1  1
  5 19  1  0
  5 20  1  0
  8 21  1  0
  9 22  1  0
 10 23  1  0
 10 24  1  0
 12 25  1  0
 12 26  1  0
M  END
$$$$

     RDKit          3D

 26 26  0  0  0  0  0  0  0  0999 V2000
   -2.5990    0.7979   -0.4910 C   0  0  0  0  0  0  0  0  0  0  0  0
   -2.6067   -0.3067    0.5529 C   0  0  2  0  0  0  0  0  0  0  0  0
   -2.6973    0.2191    1.8347 O   0  0  0  0  0  0  0  0  0  0  0  0
   -1.3630   -1.1607    0.4540 C   0  0  1  0  0  0  0  0  0  0  0  0
   -1.2036   -1.7393   -0.8485 N   0  0  0  0  0  0  0  0  0  0  0  0
   -0.1519   -0.3778    0.8660 C   0  0  0  0  0  0  0  0  0  0  0  0
   -0.1659    0.1811    1.9925 O   0  0  0  0  0  0  0  0  0  0  0  0
    0.9834   -0.2492    0.0468 N   0  0  0  0  0  0  0  0  0  0  0  0
    2.1332    0.5145    0.4788 C   0  0  0  0  0  0  0  0  0  0  0  0
    2.6103    1.5530   -0.5236 C   0  0  0  0  0  0  0  0  0  0  0  0
    4.2204    1.4947    0.3479 S   0  0  0  0  0  0  0  0  0  0  0  0
    3.4562   -0.1730    0.3005 C   0  0  0  0  0  0  0  0  0  0  0  0
   -2.1164    0.4196   -1.4363 H   0  0  0  0  0  0  0  0  0  0  0  0
   -2.0517    1.6857   -0.0929 H   0  0  0  0  0  0  0  0  0  0  0  0
   -3.6460    1.0862   -0.7026 H   0  0  0  0  0  0  0  0  0  0  0  0
   -3.4734   -0.9685    0.3477 H   0  0  0  0  0  0  0  0  0  0  0  0
   -2.7132    1.2174    1.7542 H   0  0  0  0  0  0  0  0  0  0  0  0
   -1.4690   -1.9762    1.1988 H   0  0  0  0  0  0  0  0  0  0  0  0
   -2.0400   -2.3330   -1.0304 H   0  0  0  0  0  0  0  0  0  0  0  0
   -0.3935   -2.4140   -0.7864 H   0  0  0  0  0  0  0  0  0  0  0  0
    0.9703   -0.7223   -0.8827 H   0  0  0  0  0  0  0  0  0  0  0  0
    2.0553    0.9739    1.4674 H   0  0  0  0  0  0  0  0  0  0  0  0
    2.7596    1.1651   -1.5523 H   0  0  0  0  0  0  0  0  0  0  0  0
    2.0979    2.5247   -0.4600 H   0  0  0  0  0  0  0  0  0  0  0  0
    3.7912   -0.8388    1.0929 H   0  0  0  0  0  0  0  0  0  0  0  0
    3.6129   -0.5734   -0.7411 H   0  0  0  0  0  0  0  0  0  0  0  0
  1  2  1  0
  2  3  1  0
  2  4  1  0
  4  5  1  0
  4  6  1  0
  6  7  2  0
  6  8  1  0
  8  9  1  0
  9 10  1  0
 10 11  1  0
 11 12  1  0
 12  9  1  0
  1 13  1  0
  1 14  1  0
  1 15  1  0
  2 16  1  6
  3 17  1  0
  4 18  1  1
  5 19  1  0
  5 20  1  0
  8 21  1  0
  9 22  1  0
 10 23  1  0
 10 24  1  0
 12 25  1  0
 12 26  1  0
M  END
$$$$

     RDKit          3D

 26 26  0  0  0  0  0  0  0  0999 V2000
    3.7531   -0.1165    0.1941 C   0  0  0  0  0  0  0  0  0  0  0  0
    2.4297    0.4972   -0.2168 C   0  0  2  0  0  0  0  0  0  0  0  0
    2.0852    1.4376    0.7255 O   0  0  0  0  0  0  0  0  0  0  0  0
    1.3883   -0.6009   -0.2946 C   0  0  1  0  0  0  0  0  0  0  0  0
    1.2914   -1.2367    0.9895 N   0  0  0  0  0  0  0  0  0  0  0  0
    0.0737   -0.0512   -0.6833 C   0  0  0  0  0  0  0  0  0  0  0  0
   -0.0718    0.5510   -1.7772 O   0  0  0  0  0  0  0  0  0  0  0  0
   -1.0443   -0.1970    0.1765 N   0  0  0  0  0  0  0  0  0  0  0  0
   -2.3581    0.3190   -0.1472 C   0  0  0  0  0  0  0  0  0  0  0  0
   -3.4690   -0.7296   -0.0216 C   0  0  0  0  0  0  0  0  0  0  0  0
   -4.6291    0.6396    0.2362 S   0  0  0  0  0  0  0  0  0  0  0  0
   -3.0234    1.0503    0.9985 C   0  0  0  0  0  0  0  0  0  0  0  0
    3.8994   -0.0233    1.2778 H   0  0  0  0  0  0  0  0  0  0  0  0
    4.5804    0.4163   -0.3501 H   0  0  0  0  0  0  0  0  0  0  0  0
    3.7523   -1.1718   -0.1114 H   0  0  0  0  0  0  0  0  0  0  0  0
    2.5101    0.9692   -1.2197 H   0  0  0  0  0  0  0  0  0  0  0  0
    1.5437    2.1584    0.3234 H   0  0  0  0  0  0  0  0  0  0  0  0
    1.6582   -1.3674   -1.0323 H   0  0  0  0  0  0  0  0  0  0  0  0
    0.6223   -2.0184    0.9098 H   0  0  0  0  0  0  0  0  0  0  0  0
    1.0090   -0.5905    1.7326 H   0  0  0  0  0  0  0  0  0  0  0  0
   -0.9243   -0.6960    1.0833 H   0  0  0  0  0  0  0  0  0  0  0  0
   -2.3775    0.8233   -1.1161 H   0  0  0  0  0  0  0  0  0  0  0  0
   -3.3589   -1.3560    0.8655 H   0  0  0  0  0  0  0  0  0  0  0  0
   -3.6373   -1.3022   -0.9531 H   0  0  0  0  0  0  0  0  0  0  0  0
   -2.8089    2.1273    1.0712 H   0  0  0  0  0  0  0  0  0  0  0  0
   -2.8942    0.4684    1.9291 H   0  0  0  0  0  0  0  0  0  0  0  0
  1  2  1  0
  2  3  1  0
  2  4  1  0
  4  5  1  0
  4  6  1  0
  6  7  2  0
  6  8  1  0
  8  9  1  0
  9 10  1  0
 10 11  1  0
 11 12  1  0
 12  9  1  0
  1 13  1  0
  1 14  1  0
  1 15  1  0
  2 16  1  6
  3 17  1  0
  4 18  1  6
  5 19  1  0
  5 20  1  0
  8 21  1  0
  9 22  1  0
 10 23  1  0
 10 24  1  0
 12 25  1  0
 12 26  1  0
M  END
$$$$
