
     RDKit          3D

 21 20  0  0  0  0  0  0  0  0999 V2000
   -2.2432   -1.1141   -0.3227 C   0  0  0  0  0  0  0  0  0  0  0  0
   -1.3781   -0.2754    0.5991 C   0  0  1  0  0  0  0  0  0  0  0  0
   -0.0559   -0.1034    0.0426 N   0  0  0  0  0  0  0  0  0  0  0  0
    1.0987   -0.5168    0.7506 C   0  0  0  0  0  0  0  0  0  0  0  0
    0.9199   -1.0378    1.8801 O   0  0  0  0  0  0  0  0  0  0  0  0
    2.4675   -0.3722    0.2456 C   0  0  0  0  0  0  0  0  0  0  0  0
    2.4985    0.2505   -1.0781 N   0  0  0  0  0  0  0  0  0  0  0  0
    3.7704    0.3724   -1.5209 O   0  0  0  0  0  0  0  0  0  0  0  0
   -2.0694    1.0353    0.7514 C   0  0  0  0  0  0  0  0  0  0  0  0
   -1.4428    2.0653    0.3939 O   0  0  0  0  0  0  0  0  0  0  0  0
   -3.3574    1.1196    1.2685 O   0  0  0  0  0  0  0  0  0  0  0  0
   -2.0999   -2.1914   -0.1704 H   0  0  0  0  0  0  0  0  0  0  0  0
   -3.2988   -0.8636   -0.0827 H   0  0  0  0  0  0  0  0  0  0  0  0
   -2.0435   -0.8092   -1.3674 H   0  0  0  0  0  0  0  0  0  0  0  0
   -1.3668   -0.7441    1.5897 H   0  0  0  0  0  0  0  0  0  0  0  0
    0.0660    0.3301   -0.8934 H   0  0  0  0  0  0  0  0  0  0  0  0
    3.0230   -1.3154    0.1809 H   0  0  0  0  0  0  0  0  0  0  0  0
    3.0419    0.3116    0.9087 H   0  0  0  0  0  0  0  0  0  0  0  0
    2.0687    1.1840   -1.0343 H   0  0  0  0  0  0  0  0  0  0  0  0
    4.3117    0.7417   -0.7532 H   0  0  0  0  0  0  0  0  0  0  0  0
   -3.9108    1.9326    0.9883 H   0  0  0  0  0  0  0  0  0  0  0  0
  1  2  1  0
  2  3  1  0
  3  4  1  0
  4  5  2  0
  4  6  1  0
  6  7  1  0
  7  8  1  0
  2  9  1  0
  9 10  2  0
  9 11  1  0
  1 12  1  0
  1 13  1  0
  1 14  1  0
  2 15  1  1
  3 16  1  0
  6 17  1  0
  6 18  1  0
  7 19  1  0
  8 20  1  0
 11 21  1  0
M  END
$$$$

     RDKit          3D

 21 20  0  0  0  0  0  0  0  0999 V2000
   -2.3656   -0.8293    0.7912 C   0  0  0  0  0  0  0  0  0  0  0  0
   -1.4613    0.2445    0.1903 C   0  0  1  0  0  0  0  0  0  0  0  0
   -0.2711   -0.4772   -0.2434 N   0  0  0  0  0  0  0  0  0  0  0  0
    1.0271    0.0704   -0.2133 C   0  0  0  0  0  0  0  0  0  0  0  0
    1.0565    1.2897    0.1791 O   0  0  0  0  0  0  0  0  0  0  0  0
    2.2012   -0.7160   -0.6048 C   0  0  0  0  0  0  0  0  0  0  0  0
    3.3979    0.1086   -0.6304 N   0  0  0  0  0  0  0  0  0  0  0  0
    3.8716    0.4111    0.6315 O   0  0  0  0  0  0  0  0  0  0  0  0
   -2.1991    0.8605   -0.9522 C   0  0  0  0  0  0  0  0  0  0  0  0
   -2.3512    0.2129   -2.0100 O   0  0  0  0  0  0  0  0  0  0  0  0
   -2.7066    2.1357   -0.8614 O   0  0  0  0  0  0  0  0  0  0  0  0
   -3.2548   -0.4238    1.3071 H   0  0  0  0  0  0  0  0  0  0  0  0
   -1.7386   -1.4871    1.4056 H   0  0  0  0  0  0  0  0  0  0  0  0
   -2.7456   -1.4077   -0.0729 H   0  0  0  0  0  0  0  0  0  0  0  0
   -1.2070    1.0500    0.9380 H   0  0  0  0  0  0  0  0  0  0  0  0
   -0.4013   -1.4646   -0.5779 H   0  0  0  0  0  0  0  0  0  0  0  0
    2.3074   -1.5934    0.0347 H   0  0  0  0  0  0  0  0  0  0  0  0
    2.0418   -1.0735   -1.6581 H   0  0  0  0  0  0  0  0  0  0  0  0
    4.1776   -0.5306   -1.0851 H   0  0  0  0  0  0  0  0  0  0  0  0
    4.3146    1.3211    0.5237 H   0  0  0  0  0  0  0  0  0  0  0  0
   -3.6936    2.2986   -1.1155 H   0  0  0  0  0  0  0  0  0  0  0  0
  1  2  1  0
  2  3  1  0
  3  4  1  0
  4  5  2  0
  4  6  1  0
  6  7  1  0
  7  8  1  0
  2  9  1  0
  9 10  2  0
  9 11  1  0
  1 12  1  0
  1 13  1  0
  1 14  1  0
  2 15  1  1
  3 16  1  0
  6 17  1  0
  6 18  1  0
  7 19  1  0
  8 20  1  0
 11 21  1  0
M  END
$$$$

     RDKit          3D

 21 20  0  0  0  0  0  0  0  0999 V2000
   -2.5881   -1.0599    0.4801 C   0  0  0  0  0  0  0  0  0  0  0  0
   -1.5266    0.0190    0.3942 C   0  0  1  0  0  0  0  0  0  0  0  0
   -0.2333   -0.4780    0.5966 N   0  0  0  0  0  0  0  0  0  0  0  0
    0.9535   -0.0087    0.0288 C   0  0  0  0  0  0  0  0  0  0  0  0
    0.9401    0.9293   -0.8085 O   0  0  0  0  0  0  0  0  0  0  0  0
    2.3237   -0.5741    0.3685 C   0  0  0  0  0  0  0  0  0  0  0  0
    3.3272    0.0785   -0.4444 N   0  0  0  0  0  0  0  0  0  0  0  0
    3.7844    1.2053    0.1921 O   0  0  0  0  0  0  0  0  0  0  0  0
   -1.7905    1.0058   -0.6575 C   0  0  0  0  0  0  0  0  0  0  0  0
   -1.1040    1.9923   -0.9840 O   0  0  0  0  0  0  0  0  0  0  0  0
   -2.9849    0.8314   -1.4022 O   0  0  0  0  0  0  0  0  0  0  0  0
   -2.2040   -1.9394   -0.0197 H   0  0  0  0  0  0  0  0  0  0  0  0
   -3.5510   -0.7468    0.0205 H   0  0  0  0  0  0  0  0  0  0  0  0
   -2.8162   -1.2634    1.5673 H   0  0  0  0  0  0  0  0  0  0  0  0
   -1.6950    0.6627    1.3767 H   0  0  0  0  0  0  0  0  0  0  0  0
   -0.1584   -1.2898    1.2922 H   0  0  0  0  0  0  0  0  0  0  0  0
    2.5641   -0.4919    1.4057 H   0  0  0  0  0  0  0  0  0  0  0  0
    2.2998   -1.6626    0.1193 H   0  0  0  0  0  0  0  0  0  0  0  0
    4.1558   -0.6031   -0.5971 H   0  0  0  0  0  0  0  0  0  0  0  0
    3.4488    1.9891   -0.3732 H   0  0  0  0  0  0  0  0  0  0  0  0
   -3.1455    1.4045   -2.2183 H   0  0  0  0  0  0  0  0  0  0  0  0
  1  2  1  0
  2  3  1  0
  3  4  1  0
  4  5  2  0
  4  6  1  0
  6  7  1  0
  7  8  1  0
  2  9  1  0
  9 10  2  0
  9 11  1  0
  1 12  1  0
  1 13  1  0
  1 14  1  0
  2 15  1  1
  3 16  1  0
  6 17  1  0
  6 18  1  0
  7 19  1  0
  8 20  1  0
 11 21  1  0
M  END
$$$$

     RDKit          3D

 21 20  0  0  0  0  0  0  0  0999 V2000
   -2.4758    0.2791    1.3406 C   0  0  0  0  0  0  0  0  0  0  0  0
   -1.3813    0.4628    0.3721 C   0  0  1  0  0  0  0  0  0  0  0  0
   -0.2122   -0.3683    0.4323 N   0  0  0  0  0  0  0  0  0  0  0  0
    1.0092    0.0657   -0.0968 C   0  0  0  0  0  0  0  0  0  0  0  0
    1.2083    1.1656   -0.6514 O   0  0  0  0  0  0  0  0  0  0  0  0
    2.2633   -0.7982   -0.0246 C   0  0  0  0  0  0  0  0  0  0  0  0
    3.3005   -0.0169   -0.5227 N   0  0  0  0  0  0  0  0  0  0  0  0
    3.8619    0.8049    0.4090 O   0  0  0  0  0  0  0  0  0  0  0  0
   -1.8955    0.1433   -1.0299 C   0  0  0  0  0  0  0  0  0  0  0  0
   -1.6667    0.9330   -1.9200 O   0  0  0  0  0  0  0  0  0  0  0  0
   -2.5904   -1.0877   -1.1256 O   0  0  0  0  0  0  0  0  0  0  0  0
   -2.7114   -0.7738    1.6664 H   0  0  0  0  0  0  0  0  0  0  0  0
   -2.4566    0.9762    2.2404 H   0  0  0  0  0  0  0  0  0  0  0  0
   -3.4447    0.6105    0.7986 H   0  0  0  0  0  0  0  0  0  0  0  0
   -1.0068    1.4953    0.3851 H   0  0  0  0  0  0  0  0  0  0  0  0
   -0.2478   -1.3212    0.9035 H   0  0  0  0  0  0  0  0  0  0  0  0
    2.3666   -1.4005    0.8633 H   0  0  0  0  0  0  0  0  0  0  0  0
    1.9893   -1.5398   -0.9161 H   0  0  0  0  0  0  0  0  0  0  0  0
    3.4263    0.2394   -1.4671 H   0  0  0  0  0  0  0  0  0  0  0  0
    3.2223    1.6281    0.4218 H   0  0  0  0  0  0  0  0  0  0  0  0
   -2.5583   -1.4976   -2.0789 H   0  0  0  0  0  0  0  0  0  0  0  0
  1  2  1  0
  2  3  1  0
  3  4  1  0
  4  5  2  0
  4  6  1  0
  6  7  1  0
  7  8  1  0
  2  9  1  0
  9 10  2  0
  9 11  1  0
  1 12  1  0
  1 13  1  0
  1 14  1  0
  2 15  1  6
  3 16  1  0
  6 17  1  0
  6 18  1  0
  7 19  1  0
  8 20  1  0
 11 21  1  0
M  END
$$$$

     RDKit          3D

 21 20  0  0  0  0  0  0  0  0999 V2000
   -2.3700   -1.2254   -0.1989 C   0  0  0  0  0  0  0  0  0  0  0  0
   -1.3792   -0.3578    0.4215 C   0  0  1  0  0  0  0  0  0  0  0  0
   -0.2086   -0.1353   -0.3544 N   0  0  0  0  0  0  0  0  0  0  0  0
    1.0970   -0.3203    0.0238 C   0  0  0  0  0  0  0  0  0  0  0  0
    1.3418   -0.7370    1.1698 O   0  0  0  0  0  0  0  0  0  0  0  0
    2.2396   -0.0353   -0.9083 C   0  0  0  0  0  0  0  0  0  0  0  0
    3.3850   -0.1795   -0.0766 N   0  0  0  0  0  0  0  0  0  0  0  0
    3.5827    0.8776    0.7425 O   0  0  0  0  0  0  0  0  0  0  0  0
   -1.9379    0.9654    0.8769 C   0  0  0  0  0  0  0  0  0  0  0  0
   -1.8219    1.3787    2.0228 O   0  0  0  0  0  0  0  0  0  0  0  0
   -2.6012    1.7123   -0.1062 O   0  0  0  0  0  0  0  0  0  0  0  0
   -2.0056   -2.2807   -0.1249 H   0  0  0  0  0  0  0  0  0  0  0  0
   -3.3354   -1.1135    0.3685 H   0  0  0  0  0  0  0  0  0  0  0  0
   -2.5888   -0.9296   -1.2338 H   0  0  0  0  0  0  0  0  0  0  0  0
   -1.0327   -0.8671    1.3913 H   0  0  0  0  0  0  0  0  0  0  0  0
   -0.3921    0.2521   -1.3440 H   0  0  0  0  0  0  0  0  0  0  0  0
    2.0770    0.7725   -1.5766 H   0  0  0  0  0  0  0  0  0  0  0  0
    2.2533   -0.9670   -1.6375 H   0  0  0  0  0  0  0  0  0  0  0  0
    4.1640   -0.7052   -0.3519 H   0  0  0  0  0  0  0  0  0  0  0  0
    2.7626    1.4380    0.7990 H   0  0  0  0  0  0  0  0  0  0  0  0
   -3.2297    2.4571    0.0970 H   0  0  0  0  0  0  0  0  0  0  0  0
  1  2  1  0
  2  3  1  0
  3  4  1  0
  4  5  2  0
  4  6  1  0
  6  7  1  0
  7  8  1  0
  2  9  1  0
  9 10  2  0
  9 11  1  0
  1 12  1  0
  1 13  1  0
  1 14  1  0
  2 15  1  1
  3 16  1  0
  6 17  1  0
  6 18  1  0
  7 19  1  0
  8 20  1  0
 11 21  1  0
M  END
$$$$

     RDKit          3D

 21 20  0  0  0  0  0  0  0  0999 V2000
    1.7931   -1.7289    0.5990 C   0  0  0  0  0  0  0  0  0  0  0  0
    1.3075   -0.3815   -0.1066 C   0  0  1  0  0  0  0  0  0  0  0  0
    0.0108   -0.0819    0.4268 N   0  0  0  0  0  0  0  0  0  0  0  0
   -0.7442    0.8448   -0.4013 C   0  0  0  0  0  0  0  0  0  0  0  0
   -0.1618    1.4918   -1.3119 O   0  0  0  0  0  0  0  0  0  0  0  0
   -2.2339    1.0569   -0.2648 C   0  0  0  0  0  0  0  0  0  0  0  0
   -2.7603    0.1124    0.6523 N   0  0  0  0  0  0  0  0  0  0  0  0
   -3.0458   -1.1164    0.1693 O   0  0  0  0  0  0  0  0  0  0  0  0
    2.3676    0.5353   -0.1094 C   0  0  0  0  0  0  0  0  0  0  0  0
    3.1815    0.6429    0.6964 O   0  0  0  0  0  0  0  0  0  0  0  0
    2.4753    1.3428   -1.2111 O   0  0  0  0  0  0  0  0  0  0  0  0
    2.5085   -1.4533    1.3916 H   0  0  0  0  0  0  0  0  0  0  0  0
    0.9786   -2.3530    0.9910 H   0  0  0  0  0  0  0  0  0  0  0  0
    2.3607   -2.3568   -0.1262 H   0  0  0  0  0  0  0  0  0  0  0  0
    1.1226   -0.7674   -1.1780 H   0  0  0  0  0  0  0  0  0  0  0  0
   -0.3837   -0.2717    1.3499 H   0  0  0  0  0  0  0  0  0  0  0  0
   -2.6223    0.8778   -1.2936 H   0  0  0  0  0  0  0  0  0  0  0  0
   -2.4153    2.0663    0.0473 H   0  0  0  0  0  0  0  0  0  0  0  0
   -3.0856    0.3627    1.5375 H   0  0  0  0  0  0  0  0  0  0  0  0
   -3.4254   -1.1626   -0.7147 H   0  0  0  0  0  0  0  0  0  0  0  0
    2.7721    2.3396   -1.1435 H   0  0  0  0  0  0  0  0  0  0  0  0
  1  2  1  0
  2  3  1  0
  3  4  1  0
  4  5  2  0
  4  6  1  0
  6  7  1  0
  7  8  1  0
  2  9  1  0
  9 10  2  0
  9 11  1  0
  1 12  1  0
  1 13  1  0
  1 14  1  0
  2 15  1  6
  3 16  1  0
  6 17  1  0
  6 18  1  0
  7 19  1  0
  8 20  1  0
 11 21  1  0
M  END
$$$$

     RDKit          3D

 21 20  0  0  0  0  0  0  0  0999 V2000
   -2.0604   -1.4321   -0.1408 C   0  0  0  0  0  0  0  0  0  0  0  0
   -1.6299   -0.1885    0.5872 C   0  0  1  0  0  0  0  0  0  0  0  0
   -0.2483    0.0515    0.7360 N   0  0  0  0  0  0  0  0  0  0  0  0
    0.7738   -0.0986   -0.2178 C   0  0  0  0  0  0  0  0  0  0  0  0
    0.4827   -0.4895   -1.3939 O   0  0  0  0  0  0  0  0  0  0  0  0
    2.1881    0.1778    0.0746 C   0  0  0  0  0  0  0  0  0  0  0  0
    3.0536    0.0085   -1.1085 N   0  0  0  0  0  0  0  0  0  0  0  0
    4.3512    0.3923   -0.6722 O   0  0  0  0  0  0  0  0  0  0  0  0
   -2.4988    0.9419    0.3135 C   0  0  0  0  0  0  0  0  0  0  0  0
   -3.2800    1.4562    1.1113 O   0  0  0  0  0  0  0  0  0  0  0  0
   -2.4294    1.5124   -1.0330 O   0  0  0  0  0  0  0  0  0  0  0  0
   -3.0545   -1.7277    0.3549 H   0  0  0  0  0  0  0  0  0  0  0  0
   -1.4269   -2.3177    0.0950 H   0  0  0  0  0  0  0  0  0  0  0  0
   -2.2582   -1.3754   -1.1843 H   0  0  0  0  0  0  0  0  0  0  0  0
   -1.9577   -0.4979    1.6848 H   0  0  0  0  0  0  0  0  0  0  0  0
    0.1082    0.3872    1.6918 H   0  0  0  0  0  0  0  0  0  0  0  0
    2.5970   -0.6481    0.8276 H   0  0  0  0  0  0  0  0  0  0  0  0
    2.4155    1.1448    0.5182 H   0  0  0  0  0  0  0  0  0  0  0  0
    3.2021   -1.0559   -1.2184 H   0  0  0  0  0  0  0  0  0  0  0  0
    4.2271    1.2081   -0.0340 H   0  0  0  0  0  0  0  0  0  0  0  0
   -2.5551    2.5508   -0.9920 H   0  0  0  0  0  0  0  0  0  0  0  0
  1  2  1  0
  2  3  1  0
  3  4  1  0
  4  5  2  0
  4  6  1  0
  6  7  1  0
  7  8  1  0
  2  9  1  0
  9 10  2  0
  9 11  1  0
  1 12  1  0
  1 13  1  0
  1 14  1  0
  2 15  1  1
  3 16  1  0
  6 17  1  0
  6 18  1  0
  7 19  1  0
  8 20  1  0
 11 21  1  0
M  END
$$$$

     RDKit          3D

 21 20  0  0  0  0  0  0  0  0999 V2000
   -2.4042   -0.7377   -0.3085 C   0  0  0  0  0  0  0  0  0  0  0  0
   -1.3059   -0.3995    0.6403 C   0  0  1  0  0  0  0  0  0  0  0  0
   -0.0420   -0.1433    0.0480 N   0  0  0  0  0  0  0  0  0  0  0  0
    1.1401   -0.9027    0.3304 C   0  0  0  0  0  0  0  0  0  0  0  0
    1.0182   -1.8286    1.1419 O   0  0  0  0  0  0  0  0  0  0  0  0
    2.4138   -0.5491   -0.3463 C   0  0  0  0  0  0  0  0  0  0  0  0
    2.1956    0.5985   -1.2412 N   0  0  0  0  0  0  0  0  0  0  0  0
    3.3950    0.8821   -1.8382 O   0  0  0  0  0  0  0  0  0  0  0  0
   -1.7219    0.7372    1.4704 C   0  0  0  0  0  0  0  0  0  0  0  0
   -0.9886    1.7354    1.5687 O   0  0  0  0  0  0  0  0  0  0  0  0
   -2.9258    0.7417    2.1641 O   0  0  0  0  0  0  0  0  0  0  0  0
   -2.3531    0.0036   -1.1525 H   0  0  0  0  0  0  0  0  0  0  0  0
   -3.3728   -0.5190    0.2026 H   0  0  0  0  0  0  0  0  0  0  0  0
   -2.4429   -1.7716   -0.6413 H   0  0  0  0  0  0  0  0  0  0  0  0
   -1.1767   -1.2794    1.3374 H   0  0  0  0  0  0  0  0  0  0  0  0
    0.0181    0.6612   -0.6438 H   0  0  0  0  0  0  0  0  0  0  0  0
    2.8387   -1.3899   -0.9315 H   0  0  0  0  0  0  0  0  0  0  0  0
    3.1982   -0.2512    0.3825 H   0  0  0  0  0  0  0  0  0  0  0  0
    1.9035    1.4339   -0.7146 H   0  0  0  0  0  0  0  0  0  0  0  0
    4.0045    1.3606   -1.2183 H   0  0  0  0  0  0  0  0  0  0  0  0
   -3.3919    1.6176    2.3275 H   0  0  0  0  0  0  0  0  0  0  0  0
  1  2  1  0
  2  3  1  0
  3  4  1  0
  4  5  2  0
  4  6  1  0
  6  7  1  0
  7  8  1  0
  2  9  1  0
  9 10  2  0
  9 11  1  0
  1 12  1  0
  1 13  1  0
  1 14  1  0
  2 15  1  1
  3 16  1  0
  6 17  1  0
  6 18  1  0
  7 19  1  0
  8 20  1  0
 11 21  1  0
M  END
$$$$
