
     RDKit          3D

 23 23  0  0  0  0  0  0  0  0999 V2000
    3.7216    0.0865   -0.6012 N   0  0  0  0  0  0  0  0  0  0  0  0
    2.4081    0.4937   -0.2536 C   0  0  0  0  0  0  0  0  0  0  0  0
    2.1517    1.7294   -0.0500 O   0  0  0  0  0  0  0  0  0  0  0  0
    1.3110   -0.3846   -0.1063 N   0  0  0  0  0  0  0  0  0  0  0  0
   -0.0146    0.0848    0.2513 C   0  0  2  0  0  0  0  0  0  0  0  0
   -0.3807   -0.5696    1.5568 C   0  0  0  0  0  0  0  0  0  0  0  0
   -1.4288   -1.5576    1.1940 C   0  0  0  0  0  0  0  0  0  0  0  0
   -1.6600   -1.5126   -0.1488 O   0  0  0  0  0  0  0  0  0  0  0  0
   -1.0801   -0.3978   -0.6867 C   0  0  1  0  0  0  0  0  0  0  0  0
   -2.1136    0.6530   -0.7931 C   0  0  0  0  0  0  0  0  0  0  0  0
   -1.7446    1.9086   -1.3269 N   0  0  0  0  0  0  0  0  0  0  0  0
   -3.2916    0.4688   -0.4299 O   0  0  0  0  0  0  0  0  0  0  0  0
    4.1464   -0.8237   -0.3577 H   0  0  0  0  0  0  0  0  0  0  0  0
    4.3184    0.7469   -1.1455 H   0  0  0  0  0  0  0  0  0  0  0  0
    1.4650   -1.4023   -0.2609 H   0  0  0  0  0  0  0  0  0  0  0  0
   -0.0528    1.1718    0.3877 H   0  0  0  0  0  0  0  0  0  0  0  0
   -0.7905    0.1662    2.2721 H   0  0  0  0  0  0  0  0  0  0  0  0
    0.4548   -1.0874    2.0468 H   0  0  0  0  0  0  0  0  0  0  0  0
   -2.3858   -1.3390    1.7412 H   0  0  0  0  0  0  0  0  0  0  0  0
   -1.1522   -2.5904    1.4897 H   0  0  0  0  0  0  0  0  0  0  0  0
   -0.6860   -0.6570   -1.6909 H   0  0  0  0  0  0  0  0  0  0  0  0
   -1.5753    2.7581   -0.7340 H   0  0  0  0  0  0  0  0  0  0  0  0
   -1.6205    2.0542   -2.3543 H   0  0  0  0  0  0  0  0  0  0  0  0
  1  2  1  0
  2  3  2  0
  2  4  1  0
  4  5  1  0
  5  6  1  0
  6  7  1  0
  7  8  1  0
  8  9  1  0
  9 10  1  0
 10 11  1  0
 10 12  2  0
  9  5  1  0
  1 13  1  0
  1 14  1  0
  4 15  1  0
  5 16  1  1
  6 17  1  0
  6 18  1  0
  7 19  1  0
  7 20  1  0
  9 21  1  6
 11 22  1  0
 11 23  1  0
M  END
$$$$

     RDKit          3D

 23 23  0  0  0  0  0  0  0  0999 V2000
    3.7168    1.0064    0.0346 N   0  0  0  0  0  0  0  0  0  0  0  0
    2.4287    0.7500    0.5318 C   0  0  0  0  0  0  0  0  0  0  0  0
    2.0588    1.1662    1.6576 O   0  0  0  0  0  0  0  0  0  0  0  0
    1.4708    0.0059   -0.2088 N   0  0  0  0  0  0  0  0  0  0  0  0
    0.1687   -0.2487    0.3031 C   0  0  2  0  0  0  0  0  0  0  0  0
    0.0152   -1.7693    0.4229 C   0  0  0  0  0  0  0  0  0  0  0  0
   -1.4954   -1.8558    0.4033 C   0  0  0  0  0  0  0  0  0  0  0  0
   -1.9742   -0.8607   -0.3931 O   0  0  0  0  0  0  0  0  0  0  0  0
   -0.9602    0.0623   -0.6250 C   0  0  1  0  0  0  0  0  0  0  0  0
   -1.5262    1.4131   -0.3941 C   0  0  0  0  0  0  0  0  0  0  0  0
   -2.8818    1.5883   -0.0074 N   0  0  0  0  0  0  0  0  0  0  0  0
   -0.8439    2.4676   -0.5265 O   0  0  0  0  0  0  0  0  0  0  0  0
    4.1102    1.9617    0.1008 H   0  0  0  0  0  0  0  0  0  0  0  0
    4.3003    0.2662   -0.4035 H   0  0  0  0  0  0  0  0  0  0  0  0
    1.7176   -0.3674   -1.1517 H   0  0  0  0  0  0  0  0  0  0  0  0
   -0.0287    0.1656    1.2895 H   0  0  0  0  0  0  0  0  0  0  0  0
    0.3810   -2.2419   -0.4978 H   0  0  0  0  0  0  0  0  0  0  0  0
    0.4559   -2.1577    1.3458 H   0  0  0  0  0  0  0  0  0  0  0  0
   -1.8537   -2.8679    0.1510 H   0  0  0  0  0  0  0  0  0  0  0  0
   -1.8272   -1.6508    1.4551 H   0  0  0  0  0  0  0  0  0  0  0  0
   -0.6690   -0.0796   -1.7020 H   0  0  0  0  0  0  0  0  0  0  0  0
   -3.2629    0.9169    0.7197 H   0  0  0  0  0  0  0  0  0  0  0  0
   -3.5008    2.3296   -0.3984 H   0  0  0  0  0  0  0  0  0  0  0  0
  1  2  1  0
  2  3  2  0
  2  4  1  0
  4  5  1  0
  5  6  1  0
  6  7  1  0
  7  8  1  0
  8  9  1  0
  9 10  1  0
 10 11  1  0
 10 12  2  0
  9  5  1  0
  1 13  1  0
  1 14  1  0
  4 15  1  0
  5 16  1  1
  6 17  1  0
  6 18  1  0
  7 19  1  0
  7 20  1  0
  9 21  1  6
 11 22  1  0
 11 23  1  0
M  END
$$$$

     RDKit          3D

 23 23  0  0  0  0  0  0  0  0999 V2000
   -3.4179    1.3341    0.7390 N   0  0  0  0  0  0  0  0  0  0  0  0
   -2.2010    1.0851    0.0577 C   0  0  0  0  0  0  0  0  0  0  0  0
   -1.8646    1.8506   -0.8629 O   0  0  0  0  0  0  0  0  0  0  0  0
   -1.3274    0.0128    0.3529 N   0  0  0  0  0  0  0  0  0  0  0  0
   -0.1325   -0.1788   -0.3625 C   0  0  2  0  0  0  0  0  0  0  0  0
    0.1795   -1.5503   -0.8368 C   0  0  0  0  0  0  0  0  0  0  0  0
    0.8764   -2.1780    0.3345 C   0  0  0  0  0  0  0  0  0  0  0  0
    1.3081   -1.1876    1.1711 O   0  0  0  0  0  0  0  0  0  0  0  0
    1.0296    0.0363    0.6224 C   0  0  1  0  0  0  0  0  0  0  0  0
    2.2324    0.4892   -0.1287 C   0  0  0  0  0  0  0  0  0  0  0  0
    2.2015    1.7492   -0.8012 N   0  0  0  0  0  0  0  0  0  0  0  0
    3.2827   -0.1939   -0.1978 O   0  0  0  0  0  0  0  0  0  0  0  0
   -3.5122    1.7957    1.6518 H   0  0  0  0  0  0  0  0  0  0  0  0
   -4.3014    1.0166    0.2647 H   0  0  0  0  0  0  0  0  0  0  0  0
   -1.5940   -0.6352    1.1187 H   0  0  0  0  0  0  0  0  0  0  0  0
    0.0243    0.5927   -1.1552 H   0  0  0  0  0  0  0  0  0  0  0  0
    0.9473   -1.4517   -1.6547 H   0  0  0  0  0  0  0  0  0  0  0  0
   -0.6367   -2.1265   -1.2435 H   0  0  0  0  0  0  0  0  0  0  0  0
    1.7016   -2.8477   -0.0262 H   0  0  0  0  0  0  0  0  0  0  0  0
    0.1226   -2.8195    0.8616 H   0  0  0  0  0  0  0  0  0  0  0  0
    0.7448    0.7288    1.4214 H   0  0  0  0  0  0  0  0  0  0  0  0
    1.4157    2.4383   -0.6146 H   0  0  0  0  0  0  0  0  0  0  0  0
    2.9212    2.0399   -1.4803 H   0  0  0  0  0  0  0  0  0  0  0  0
  1  2  1  0
  2  3  2  0
  2  4  1  0
  4  5  1  0
  5  6  1  0
  6  7  1  0
  7  8  1  0
  8  9  1  0
  9 10  1  0
 10 11  1  0
 10 12  2  0
  9  5  1  0
  1 13  1  0
  1 14  1  0
  4 15  1  0
  5 16  1  6
  6 17  1  0
  6 18  1  0
  7 19  1  0
  7 20  1  0
  9 21  1  1
 11 22  1  0
 11 23  1  0
M  END
$$$$

     RDKit          3D

 23 23  0  0  0  0  0  0  0  0999 V2000
    3.5111   -1.3601   -0.3738 N   0  0  0  0  0  0  0  0  0  0  0  0
    2.1559   -1.0862   -0.7232 C   0  0  0  0  0  0  0  0  0  0  0  0
    1.5977   -1.5878   -1.7235 O   0  0  0  0  0  0  0  0  0  0  0  0
    1.4167   -0.2002    0.1131 N   0  0  0  0  0  0  0  0  0  0  0  0
    0.0423    0.1511   -0.1385 C   0  0  2  0  0  0  0  0  0  0  0  0
   -0.0239    1.6513   -0.3596 C   0  0  0  0  0  0  0  0  0  0  0  0
   -1.0644    2.1170    0.6135 C   0  0  0  0  0  0  0  0  0  0  0  0
   -0.9687    1.2265    1.6555 O   0  0  0  0  0  0  0  0  0  0  0  0
   -0.8435   -0.0299    1.0620 C   0  0  1  0  0  0  0  0  0  0  0  0
   -2.2059   -0.4941    0.6761 C   0  0  0  0  0  0  0  0  0  0  0  0
   -2.3862   -1.7435    0.0494 N   0  0  0  0  0  0  0  0  0  0  0  0
   -3.2454    0.2022    0.8906 O   0  0  0  0  0  0  0  0  0  0  0  0
    3.8434   -1.2533    0.6092 H   0  0  0  0  0  0  0  0  0  0  0  0
    4.2167   -1.6741   -1.0763 H   0  0  0  0  0  0  0  0  0  0  0  0
    1.8734    0.2257    0.9533 H   0  0  0  0  0  0  0  0  0  0  0  0
   -0.3491   -0.3445   -1.0408 H   0  0  0  0  0  0  0  0  0  0  0  0
    0.9433    2.1367   -0.0508 H   0  0  0  0  0  0  0  0  0  0  0  0
   -0.2726    1.9133   -1.4075 H   0  0  0  0  0  0  0  0  0  0  0  0
   -2.0413    2.1074    0.0954 H   0  0  0  0  0  0  0  0  0  0  0  0
   -0.8578    3.1554    0.9648 H   0  0  0  0  0  0  0  0  0  0  0  0
   -0.4387   -0.7174    1.8094 H   0  0  0  0  0  0  0  0  0  0  0  0
   -2.1715   -2.6094    0.5652 H   0  0  0  0  0  0  0  0  0  0  0  0
   -2.7314   -1.7864   -0.9204 H   0  0  0  0  0  0  0  0  0  0  0  0
  1  2  1  0
  2  3  2  0
  2  4  1  0
  4  5  1  0
  5  6  1  0
  6  7  1  0
  7  8  1  0
  8  9  1  0
  9 10  1  0
 10 11  1  0
 10 12  2  0
  9  5  1  0
  1 13  1  0
  1 14  1  0
  4 15  1  0
  5 16  1  6
  6 17  1  0
  6 18  1  0
  7 19  1  0
  7 20  1  0
  9 21  1  1
 11 22  1  0
 11 23  1  0
M  END
$$$$

     RDKit          3D

 23 23  0  0  0  0  0  0  0  0999 V2000
    2.7514   -1.6807    1.2954 N   0  0  0  0  0  0  0  0  0  0  0  0
    2.0158   -0.9121    0.3699 C   0  0  0  0  0  0  0  0  0  0  0  0
    2.3692   -0.8546   -0.8537 O   0  0  0  0  0  0  0  0  0  0  0  0
    0.8589   -0.1600    0.7000 N   0  0  0  0  0  0  0  0  0  0  0  0
    0.1481    0.6012   -0.2667 C   0  0  2  0  0  0  0  0  0  0  0  0
   -0.0547    2.0461    0.1024 C   0  0  0  0  0  0  0  0  0  0  0  0
   -1.3805    2.3543   -0.5612 C   0  0  0  0  0  0  0  0  0  0  0  0
   -1.7995    1.2008   -1.1889 O   0  0  0  0  0  0  0  0  0  0  0  0
   -1.3195    0.1689   -0.3908 C   0  0  1  0  0  0  0  0  0  0  0  0
   -1.4573   -1.1509   -0.9732 C   0  0  0  0  0  0  0  0  0  0  0  0
   -1.0115   -2.2934   -0.2727 N   0  0  0  0  0  0  0  0  0  0  0  0
   -1.9702   -1.3024   -2.1002 O   0  0  0  0  0  0  0  0  0  0  0  0
    3.0853   -2.6562    1.1389 H   0  0  0  0  0  0  0  0  0  0  0  0
    2.9896   -1.2532    2.2169 H   0  0  0  0  0  0  0  0  0  0  0  0
    0.5107   -0.1599    1.6839 H   0  0  0  0  0  0  0  0  0  0  0  0
    0.5784    0.5456   -1.2677 H   0  0  0  0  0  0  0  0  0  0  0  0
   -0.1989    2.1941    1.1902 H   0  0  0  0  0  0  0  0  0  0  0  0
    0.7653    2.6842   -0.2703 H   0  0  0  0  0  0  0  0  0  0  0  0
   -1.2414    3.1786   -1.3109 H   0  0  0  0  0  0  0  0  0  0  0  0
   -2.1583    2.6469    0.1696 H   0  0  0  0  0  0  0  0  0  0  0  0
   -1.8055    0.2863    0.6014 H   0  0  0  0  0  0  0  0  0  0  0  0
   -0.8896   -2.2963    0.7828 H   0  0  0  0  0  0  0  0  0  0  0  0
   -0.7857   -3.1871   -0.7952 H   0  0  0  0  0  0  0  0  0  0  0  0
  1  2  1  0
  2  3  2  0
  2  4  1  0
  4  5  1  0
  5  6  1  0
  6  7  1  0
  7  8  1  0
  8  9  1  0
  9 10  1  0
 10 11  1  0
 10 12  2  0
  9  5  1  0
  1 13  1  0
  1 14  1  0
  4 15  1  0
  5 16  1  6
  6 17  1  0
  6 18  1  0
  7 19  1  0
  7 20  1  0
  9 21  1  1
 11 22  1  0
 11 23  1  0
M  END
$$$$

     RDKit          3D

 23 23  0  0  0  0  0  0  0  0999 V2000
    3.7321    1.1599    0.0998 N   0  0  0  0  0  0  0  0  0  0  0  0
    2.4632    0.8816    0.6366 C   0  0  0  0  0  0  0  0  0  0  0  0
    2.1108    1.2249    1.8027 O   0  0  0  0  0  0  0  0  0  0  0  0
    1.5254    0.1887   -0.1449 N   0  0  0  0  0  0  0  0  0  0  0  0
    0.1925   -0.1660    0.2683 C   0  0  2  0  0  0  0  0  0  0  0  0
    0.0786   -1.6740    0.1767 C   0  0  0  0  0  0  0  0  0  0  0  0
   -1.3427   -1.8447   -0.2477 C   0  0  0  0  0  0  0  0  0  0  0  0
   -1.5675   -0.7990   -1.1290 O   0  0  0  0  0  0  0  0  0  0  0  0
   -0.8680    0.2921   -0.6950 C   0  0  1  0  0  0  0  0  0  0  0  0
   -1.7993    1.2473   -0.0596 C   0  0  0  0  0  0  0  0  0  0  0  0
   -3.1772    0.9531    0.0199 N   0  0  0  0  0  0  0  0  0  0  0  0
   -1.3772    2.3271    0.4149 O   0  0  0  0  0  0  0  0  0  0  0  0
    4.5528    1.2524    0.7313 H   0  0  0  0  0  0  0  0  0  0  0  0
    3.8482    1.2730   -0.9278 H   0  0  0  0  0  0  0  0  0  0  0  0
    1.8020   -0.1089   -1.1281 H   0  0  0  0  0  0  0  0  0  0  0  0
   -0.0235    0.1707    1.2896 H   0  0  0  0  0  0  0  0  0  0  0  0
    0.2985   -2.0838    1.1816 H   0  0  0  0  0  0  0  0  0  0  0  0
    0.7981   -2.0599   -0.6004 H   0  0  0  0  0  0  0  0  0  0  0  0
   -2.0165   -1.8508    0.6213 H   0  0  0  0  0  0  0  0  0  0  0  0
   -1.3982   -2.8048   -0.8335 H   0  0  0  0  0  0  0  0  0  0  0  0
   -0.3757    0.7532   -1.5830 H   0  0  0  0  0  0  0  0  0  0  0  0
   -3.9096    1.4665   -0.5388 H   0  0  0  0  0  0  0  0  0  0  0  0
   -3.5467    0.2013    0.6451 H   0  0  0  0  0  0  0  0  0  0  0  0
  1  2  1  0
  2  3  2  0
  2  4  1  0
  4  5  1  0
  5  6  1  0
  6  7  1  0
  7  8  1  0
  8  9  1  0
  9 10  1  0
 10 11  1  0
 10 12  2  0
  9  5  1  0
  1 13  1  0
  1 14  1  0
  4 15  1  0
  5 16  1  1
  6 17  1  0
  6 18  1  0
  7 19  1  0
  7 20  1  0
  9 21  1  6
 11 22  1  0
 11 23  1  0
M  END
$$$$

     RDKit          3D

 23 23  0  0  0  0  0  0  0  0999 V2000
    3.8986    0.7317   -0.6492 N   0  0  0  0  0  0  0  0  0  0  0  0
    2.5430    1.0375   -0.3477 C   0  0  0  0  0  0  0  0  0  0  0  0
    2.2642    2.2685   -0.1906 O   0  0  0  0  0  0  0  0  0  0  0  0
    1.5764    0.0247   -0.2328 N   0  0  0  0  0  0  0  0  0  0  0  0
    0.2149    0.3060    0.0680 C   0  0  2  0  0  0  0  0  0  0  0  0
   -0.2635   -0.3597    1.3287 C   0  0  0  0  0  0  0  0  0  0  0  0
   -1.0181   -1.5351    0.8059 C   0  0  0  0  0  0  0  0  0  0  0  0
   -0.9961   -1.4891   -0.5767 O   0  0  0  0  0  0  0  0  0  0  0  0
   -0.7689   -0.1752   -0.9509 C   0  0  1  0  0  0  0  0  0  0  0  0
   -2.0422    0.6031   -0.8764 C   0  0  0  0  0  0  0  0  0  0  0  0
   -3.2475   -0.0084   -0.4712 N   0  0  0  0  0  0  0  0  0  0  0  0
   -2.0126    1.8309   -1.1874 O   0  0  0  0  0  0  0  0  0  0  0  0
    4.6669    1.3293   -0.2730 H   0  0  0  0  0  0  0  0  0  0  0  0
    4.1459   -0.0956   -1.2515 H   0  0  0  0  0  0  0  0  0  0  0  0
    1.8628   -0.9659   -0.3718 H   0  0  0  0  0  0  0  0  0  0  0  0
    0.0566    1.4143    0.1905 H   0  0  0  0  0  0  0  0  0  0  0  0
   -0.9231    0.3253    1.9045 H   0  0  0  0  0  0  0  0  0  0  0  0
    0.5549   -0.6920    1.9930 H   0  0  0  0  0  0  0  0  0  0  0  0
   -2.0925   -1.4494    1.1139 H   0  0  0  0  0  0  0  0  0  0  0  0
   -0.6481   -2.4819    1.2290 H   0  0  0  0  0  0  0  0  0  0  0  0
   -0.3991   -0.1662   -1.9808 H   0  0  0  0  0  0  0  0  0  0  0  0
   -3.7960    0.4315    0.2866 H   0  0  0  0  0  0  0  0  0  0  0  0
   -3.5767   -0.8843   -0.9265 H   0  0  0  0  0  0  0  0  0  0  0  0
  1  2  1  0
  2  3  2  0
  2  4  1  0
  4  5  1  0
  5  6  1  0
  6  7  1  0
  7  8  1  0
  8  9  1  0
  9 10  1  0
 10 11  1  0
 10 12  2  0
  9  5  1  0
  1 13  1  0
  1 14  1  0
  4 15  1  0
  5 16  1  1
  6 17  1  0
  6 18  1  0
  7 19  1  0
  7 20  1  0
  9 21  1  6
 11 22  1  0
 11 23  1  0
M  END
$$$$

     RDKit          3D

 23 23  0  0  0  0  0  0  0  0999 V2000
   -3.2107   -0.4486   -1.7921 N   0  0  0  0  0  0  0  0  0  0  0  0
   -1.8179   -0.2656   -1.6696 C   0  0  0  0  0  0  0  0  0  0  0  0
   -1.0565   -0.0526   -2.6560 O   0  0  0  0  0  0  0  0  0  0  0  0
   -1.1799   -0.3127   -0.3928 N   0  0  0  0  0  0  0  0  0  0  0  0
    0.2203   -0.1380   -0.1839 C   0  0  2  0  0  0  0  0  0  0  0  0
    0.7452   -1.2992    0.6685 C   0  0  0  0  0  0  0  0  0  0  0  0
    0.0323   -0.9601    1.9643 C   0  0  0  0  0  0  0  0  0  0  0  0
   -0.1909    0.3905    1.9785 O   0  0  0  0  0  0  0  0  0  0  0  0
    0.3778    0.9649    0.8739 C   0  0  1  0  0  0  0  0  0  0  0  0
    1.8182    1.2230    1.0895 C   0  0  0  0  0  0  0  0  0  0  0  0
    2.6544    1.8130    0.1071 N   0  0  0  0  0  0  0  0  0  0  0  0
    2.3339    0.9121    2.1816 O   0  0  0  0  0  0  0  0  0  0  0  0
   -3.8011    0.3184   -2.1494 H   0  0  0  0  0  0  0  0  0  0  0  0
   -3.6387   -1.3452   -1.5258 H   0  0  0  0  0  0  0  0  0  0  0  0
   -1.7853   -0.4870    0.4366 H   0  0  0  0  0  0  0  0  0  0  0  0
    0.8117    0.0405   -1.0697 H   0  0  0  0  0  0  0  0  0  0  0  0
    0.4624   -2.2692    0.2629 H   0  0  0  0  0  0  0  0  0  0  0  0
    1.8154   -1.1546    0.8436 H   0  0  0  0  0  0  0  0  0  0  0  0
    0.5958   -1.3293    2.8482 H   0  0  0  0  0  0  0  0  0  0  0  0
   -0.9390   -1.5365    1.9836 H   0  0  0  0  0  0  0  0  0  0  0  0
   -0.1557    1.8614    0.5135 H   0  0  0  0  0  0  0  0  0  0  0  0
    2.4589    2.8009   -0.1701 H   0  0  0  0  0  0  0  0  0  0  0  0
    3.4496    1.2738   -0.3316 H   0  0  0  0  0  0  0  0  0  0  0  0
  1  2  1  0
  2  3  2  0
  2  4  1  0
  4  5  1  0
  5  6  1  0
  6  7  1  0
  7  8  1  0
  8  9  1  0
  9 10  1  0
 10 11  1  0
 10 12  2  0
  9  5  1  0
  1 13  1  0
  1 14  1  0
  4 15  1  0
  5 16  1  6
  6 17  1  0
  6 18  1  0
  7 19  1  0
  7 20  1  0
  9 21  1  6
 11 22  1  0
 11 23  1  0
M  END
$$$$
