
     RDKit          3D

 21 21  0  0  0  0  0  0  0  0999 V2000
    4.4981    0.3775   -0.3910 C   0  0  0  0  0  0  0  0  0  0  0  0
    3.3226   -0.2996    0.0301 O   0  0  0  0  0  0  0  0  0  0  0  0
    2.0648    0.1706   -0.3066 C   0  0  0  0  0  0  0  0  0  0  0  0
    1.9794    1.2022   -0.9883 O   0  0  0  0  0  0  0  0  0  0  0  0
    0.8799   -0.5429    0.1384 C   0  0  0  0  0  0  0  0  0  0  0  0
    0.9855   -1.5922    0.8320 O   0  0  0  0  0  0  0  0  0  0  0  0
   -0.4219   -0.0963   -0.1837 N   0  0  0  0  0  0  0  0  0  0  0  0
   -1.5815   -0.8336    0.2775 C   0  0  2  0  0  0  0  0  0  0  0  0
   -2.7782   -0.9567   -0.6081 C   0  0  0  0  0  0  0  0  0  0  0  0
   -2.8339   -0.0841    0.5879 C   0  0  2  0  0  0  0  0  0  0  0  0
   -2.8563    1.3620    0.4389 N   0  0  0  0  0  0  0  0  0  0  0  0
    4.4129    1.4490   -0.1078 H   0  0  0  0  0  0  0  0  0  0  0  0
    5.3481   -0.1151    0.1491 H   0  0  0  0  0  0  0  0  0  0  0  0
    4.6318    0.3112   -1.4712 H   0  0  0  0  0  0  0  0  0  0  0  0
   -0.5191    0.7796   -0.7630 H   0  0  0  0  0  0  0  0  0  0  0  0
   -1.3654   -1.7392    0.8787 H   0  0  0  0  0  0  0  0  0  0  0  0
   -3.3927   -1.8804   -0.5564 H   0  0  0  0  0  0  0  0  0  0  0  0
   -2.7404   -0.4683   -1.5967 H   0  0  0  0  0  0  0  0  0  0  0  0
   -3.3908   -0.4257    1.4844 H   0  0  0  0  0  0  0  0  0  0  0  0
   -2.4133    1.6752   -0.4374 H   0  0  0  0  0  0  0  0  0  0  0  0
   -3.8296    1.7068    0.4714 H   0  0  0  0  0  0  0  0  0  0  0  0
  1  2  1  0
  2  3  1  0
  3  4  2  0
  3  5  1  0
  5  6  2  0
  5  7  1  0
  7  8  1  0
  8  9  1  0
  9 10  1  0
 10 11  1  0
 10  8  1  0
  1 12  1  0
  1 13  1  0
  1 14  1  0
  7 15  1  0
  8 16  1  1
  9 17  1  0
  9 18  1  0
 10 19  1  1
 11 20  1  0
 11 21  1  0
M  END
$$$$

     RDKit          3D

 21 21  0  0  0  0  0  0  0  0999 V2000
    4.1256    0.5597   -1.6694 C   0  0  0  0  0  0  0  0  0  0  0  0
    3.0069   -0.2699   -1.4028 O   0  0  0  0  0  0  0  0  0  0  0  0
    1.8672    0.2509   -0.8193 C   0  0  0  0  0  0  0  0  0  0  0  0
    1.8134    1.4701   -0.5189 O   0  0  0  0  0  0  0  0  0  0  0  0
    0.6960   -0.5670   -0.5287 C   0  0  0  0  0  0  0  0  0  0  0  0
    0.7225   -1.8033   -0.8220 O   0  0  0  0  0  0  0  0  0  0  0  0
   -0.4678   -0.0598    0.0616 N   0  0  0  0  0  0  0  0  0  0  0  0
   -1.6478   -0.8775    0.3558 C   0  0  2  0  0  0  0  0  0  0  0  0
   -3.0059   -0.2676    0.2579 C   0  0  0  0  0  0  0  0  0  0  0  0
   -2.4220   -0.5666    1.6002 C   0  0  2  0  0  0  0  0  0  0  0  0
   -1.9211    0.5028    2.4105 N   0  0  0  0  0  0  0  0  0  0  0  0
    3.8468    1.5990   -1.8852 H   0  0  0  0  0  0  0  0  0  0  0  0
    4.8335    0.4958   -0.8224 H   0  0  0  0  0  0  0  0  0  0  0  0
    4.6330    0.1110   -2.5576 H   0  0  0  0  0  0  0  0  0  0  0  0
   -0.5024    0.9537    0.3073 H   0  0  0  0  0  0  0  0  0  0  0  0
   -1.6076   -1.9527    0.0936 H   0  0  0  0  0  0  0  0  0  0  0  0
   -3.8620   -0.8974   -0.0433 H   0  0  0  0  0  0  0  0  0  0  0  0
   -3.0904    0.7878   -0.0639 H   0  0  0  0  0  0  0  0  0  0  0  0
   -2.8451   -1.4185    2.2014 H   0  0  0  0  0  0  0  0  0  0  0  0
   -1.8414    1.4096    1.9383 H   0  0  0  0  0  0  0  0  0  0  0  0
   -2.3315    0.5398    3.3655 H   0  0  0  0  0  0  0  0  0  0  0  0
  1  2  1  0
  2  3  1  0
  3  4  2  0
  3  5  1  0
  5  6  2  0
  5  7  1  0
  7  8  1  0
  8  9  1  0
  9 10  1  0
 10 11  1  0
 10  8  1  0
  1 12  1  0
  1 13  1  0
  1 14  1  0
  7 15  1  0
  8 16  1  6
  9 17  1  0
  9 18  1  0
 10 19  1  1
 11 20  1  0
 11 21  1  0
M  END
$$$$

     RDKit          3D

 21 21  0  0  0  0  0  0  0  0999 V2000
    4.3656   -0.4824   -0.3713 C   0  0  0  0  0  0  0  0  0  0  0  0
    3.0876   -1.0268   -0.6549 O   0  0  0  0  0  0  0  0  0  0  0  0
    1.9850   -0.2715   -0.2644 C   0  0  0  0  0  0  0  0  0  0  0  0
    2.1297    0.8393    0.3117 O   0  0  0  0  0  0  0  0  0  0  0  0
    0.6398   -0.7420   -0.5098 C   0  0  0  0  0  0  0  0  0  0  0  0
    0.4967   -1.8494   -1.0842 O   0  0  0  0  0  0  0  0  0  0  0  0
   -0.4617    0.0501   -0.1001 N   0  0  0  0  0  0  0  0  0  0  0  0
   -1.8107   -0.4063   -0.3380 C   0  0  2  0  0  0  0  0  0  0  0  0
   -2.7291    0.7026   -0.8891 C   0  0  0  0  0  0  0  0  0  0  0  0
   -2.9445    0.1124    0.4716 C   0  0  2  0  0  0  0  0  0  0  0  0
   -2.6904    0.8850    1.6581 N   0  0  0  0  0  0  0  0  0  0  0  0
    4.7162    0.1864   -1.1861 H   0  0  0  0  0  0  0  0  0  0  0  0
    5.0730   -1.3605   -0.3541 H   0  0  0  0  0  0  0  0  0  0  0  0
    4.3691   -0.0129    0.6211 H   0  0  0  0  0  0  0  0  0  0  0  0
   -0.2800    0.9790    0.3818 H   0  0  0  0  0  0  0  0  0  0  0  0
   -1.9088   -1.3738   -0.8397 H   0  0  0  0  0  0  0  0  0  0  0  0
   -3.4361    0.4008   -1.7035 H   0  0  0  0  0  0  0  0  0  0  0  0
   -2.3431    1.7224   -0.9401 H   0  0  0  0  0  0  0  0  0  0  0  0
   -3.8075   -0.5932    0.5794 H   0  0  0  0  0  0  0  0  0  0  0  0
   -2.0859    0.4180    2.3534 H   0  0  0  0  0  0  0  0  0  0  0  0
   -2.3649    1.8227    1.3968 H   0  0  0  0  0  0  0  0  0  0  0  0
  1  2  1  0
  2  3  1  0
  3  4  2  0
  3  5  1  0
  5  6  2  0
  5  7  1  0
  7  8  1  0
  8  9  1  0
  9 10  1  0
 10 11  1  0
 10  8  1  0
  1 12  1  0
  1 13  1  0
  1 14  1  0
  7 15  1  0
  8 16  1  6
  9 17  1  0
  9 18  1  0
 10 19  1  6
 11 20  1  0
 11 21  1  0
M  END
$$$$

     RDKit          3D

 21 21  0  0  0  0  0  0  0  0999 V2000
    4.3735   -1.0917    0.8984 C   0  0  0  0  0  0  0  0  0  0  0  0
    2.9770   -1.3162    0.9838 O   0  0  0  0  0  0  0  0  0  0  0  0
    2.0465   -0.5009    0.3802 C   0  0  0  0  0  0  0  0  0  0  0  0
    2.4188    0.4923   -0.2815 O   0  0  0  0  0  0  0  0  0  0  0  0
    0.6219   -0.7593    0.4874 C   0  0  0  0  0  0  0  0  0  0  0  0
    0.1885   -1.7573    1.1494 O   0  0  0  0  0  0  0  0  0  0  0  0
   -0.3736    0.0497   -0.1152 N   0  0  0  0  0  0  0  0  0  0  0  0
   -1.7768   -0.1998   -0.0130 C   0  0  2  0  0  0  0  0  0  0  0  0
   -2.5259   -0.0601   -1.3307 C   0  0  0  0  0  0  0  0  0  0  0  0
   -2.8039    0.8347   -0.1705 C   0  0  2  0  0  0  0  0  0  0  0  0
   -2.5111    2.2171   -0.3590 N   0  0  0  0  0  0  0  0  0  0  0  0
    4.6352   -0.4618    0.0177 H   0  0  0  0  0  0  0  0  0  0  0  0
    4.9404   -2.0377    0.7881 H   0  0  0  0  0  0  0  0  0  0  0  0
    4.7113   -0.5901    1.8066 H   0  0  0  0  0  0  0  0  0  0  0  0
   -0.0529    0.8768   -0.6658 H   0  0  0  0  0  0  0  0  0  0  0  0
   -2.0342   -1.1049    0.5935 H   0  0  0  0  0  0  0  0  0  0  0  0
   -1.9813    0.3596   -2.2046 H   0  0  0  0  0  0  0  0  0  0  0  0
   -3.2179   -0.8699   -1.5982 H   0  0  0  0  0  0  0  0  0  0  0  0
   -3.7909    0.6366    0.3227 H   0  0  0  0  0  0  0  0  0  0  0  0
   -2.9561    2.7629    0.4126 H   0  0  0  0  0  0  0  0  0  0  0  0
   -2.8884    2.5198   -1.2847 H   0  0  0  0  0  0  0  0  0  0  0  0
  1  2  1  0
  2  3  1  0
  3  4  2  0
  3  5  1  0
  5  6  2  0
  5  7  1  0
  7  8  1  0
  8  9  1  0
  9 10  1  0
 10 11  1  0
 10  8  1  0
  1 12  1  0
  1 13  1  0
  1 14  1  0
  7 15  1  0
  8 16  1  1
  9 17  1  0
  9 18  1  0
 10 19  1  1
 11 20  1  0
 11 21  1  0
M  END
$$$$

     RDKit          3D

 21 21  0  0  0  0  0  0  0  0999 V2000
    4.3689   -0.6432   -1.0154 C   0  0  0  0  0  0  0  0  0  0  0  0
    3.0359   -0.5005   -1.4582 O   0  0  0  0  0  0  0  0  0  0  0  0
    2.0115   -0.2528   -0.5637 C   0  0  0  0  0  0  0  0  0  0  0  0
    2.3362   -0.1634    0.6562 O   0  0  0  0  0  0  0  0  0  0  0  0
    0.6229   -0.0994   -0.9819 C   0  0  0  0  0  0  0  0  0  0  0  0
    0.3358   -0.1934   -2.1938 O   0  0  0  0  0  0  0  0  0  0  0  0
   -0.3686    0.1531   -0.0024 N   0  0  0  0  0  0  0  0  0  0  0  0
   -1.7551    0.3154   -0.3384 C   0  0  2  0  0  0  0  0  0  0  0  0
   -2.5114    1.3837    0.3733 C   0  0  0  0  0  0  0  0  0  0  0  0
   -2.8347   -0.0889    0.5940 C   0  0  2  0  0  0  0  0  0  0  0  0
   -2.5649   -0.5644    1.9177 N   0  0  0  0  0  0  0  0  0  0  0  0
    4.3655   -0.7507    0.0912 H   0  0  0  0  0  0  0  0  0  0  0  0
    4.8496   -1.5550   -1.4401 H   0  0  0  0  0  0  0  0  0  0  0  0
    4.9429    0.2619   -1.2866 H   0  0  0  0  0  0  0  0  0  0  0  0
   -0.0652    0.2203    0.9902 H   0  0  0  0  0  0  0  0  0  0  0  0
   -1.9779    0.2270   -1.4208 H   0  0  0  0  0  0  0  0  0  0  0  0
   -3.3314    1.9405   -0.1108 H   0  0  0  0  0  0  0  0  0  0  0  0
   -2.0064    1.9320    1.2055 H   0  0  0  0  0  0  0  0  0  0  0  0
   -3.7697   -0.4949    0.1461 H   0  0  0  0  0  0  0  0  0  0  0  0
   -2.4561    0.1865    2.6257 H   0  0  0  0  0  0  0  0  0  0  0  0
   -3.2279   -1.3137    2.2120 H   0  0  0  0  0  0  0  0  0  0  0  0
  1  2  1  0
  2  3  1  0
  3  4  2  0
  3  5  1  0
  5  6  2  0
  5  7  1  0
  7  8  1  0
  8  9  1  0
  9 10  1  0
 10 11  1  0
 10  8  1  0
  1 12  1  0
  1 13  1  0
  1 14  1  0
  7 15  1  0
  8 16  1  6
  9 17  1  0
  9 18  1  0
 10 19  1  6
 11 20  1  0
 11 21  1  0
M  END
$$$$

     RDKit          3D

 21 21  0  0  0  0  0  0  0  0999 V2000
    4.3707   -0.6102   -0.9836 C   0  0  0  0  0  0  0  0  0  0  0  0
    3.1271   -1.0996   -0.4928 O   0  0  0  0  0  0  0  0  0  0  0  0
    1.9987   -0.3401   -0.5971 C   0  0  0  0  0  0  0  0  0  0  0  0
    2.0467    0.7997   -1.1279 O   0  0  0  0  0  0  0  0  0  0  0  0
    0.7087   -0.8310   -0.0957 C   0  0  0  0  0  0  0  0  0  0  0  0
    0.6399   -1.9658    0.4371 O   0  0  0  0  0  0  0  0  0  0  0  0
   -0.4811   -0.0737   -0.1856 N   0  0  0  0  0  0  0  0  0  0  0  0
   -1.7703   -0.5659    0.3163 C   0  0  2  0  0  0  0  0  0  0  0  0
   -3.0327   -0.0697   -0.2579 C   0  0  0  0  0  0  0  0  0  0  0  0
   -2.6145    0.4999    1.0537 C   0  0  2  0  0  0  0  0  0  0  0  0
   -2.1201    1.8626    1.0024 N   0  0  0  0  0  0  0  0  0  0  0  0
    4.5872   -1.0570   -1.9929 H   0  0  0  0  0  0  0  0  0  0  0  0
    5.1694   -0.9789   -0.2977 H   0  0  0  0  0  0  0  0  0  0  0  0
    4.3867    0.4781   -1.0831 H   0  0  0  0  0  0  0  0  0  0  0  0
   -0.4230    0.8680   -0.6280 H   0  0  0  0  0  0  0  0  0  0  0  0
   -1.7629   -1.5756    0.7756 H   0  0  0  0  0  0  0  0  0  0  0  0
   -3.0561    0.5463   -1.1714 H   0  0  0  0  0  0  0  0  0  0  0  0
   -3.9038   -0.7750   -0.2035 H   0  0  0  0  0  0  0  0  0  0  0  0
   -3.0745    0.1698    1.9930 H   0  0  0  0  0  0  0  0  0  0  0  0
   -2.4533    2.4145    1.8066 H   0  0  0  0  0  0  0  0  0  0  0  0
   -2.3428    2.3036    0.0691 H   0  0  0  0  0  0  0  0  0  0  0  0
  1  2  1  0
  2  3  1  0
  3  4  2  0
  3  5  1  0
  5  6  2  0
  5  7  1  0
  7  8  1  0
  8  9  1  0
  9 10  1  0
 10 11  1  0
 10  8  1  0
  1 12  1  0
  1 13  1  0
  1 14  1  0
  7 15  1  0
  8 16  1  1
  9 17  1  0
  9 18  1  0
 10 19  1  1
 11 20  1  0
 11 21  1  0
M  END
$$$$

     RDKit          3D

 21 21  0  0  0  0  0  0  0  0999 V2000
    4.3581    0.8920    0.8325 C   0  0  0  0  0  0  0  0  0  0  0  0
    3.2146    0.0866    1.1490 O   0  0  0  0  0  0  0  0  0  0  0  0
    2.0539    0.3041    0.4597 C   0  0  0  0  0  0  0  0  0  0  0  0
    2.0223    1.1957   -0.4237 O   0  0  0  0  0  0  0  0  0  0  0  0
    0.8212   -0.4404    0.6801 C   0  0  0  0  0  0  0  0  0  0  0  0
    0.8102   -1.3440    1.5577 O   0  0  0  0  0  0  0  0  0  0  0  0
   -0.3697   -0.1978   -0.0459 N   0  0  0  0  0  0  0  0  0  0  0  0
   -1.6001   -0.9320    0.1653 C   0  0  2  0  0  0  0  0  0  0  0  0
   -2.3698   -1.2803   -1.1101 C   0  0  0  0  0  0  0  0  0  0  0  0
   -2.9176   -0.2867   -0.1225 C   0  0  2  0  0  0  0  0  0  0  0  0
   -2.9724    1.1114   -0.4655 N   0  0  0  0  0  0  0  0  0  0  0  0
    4.1958    1.9496    1.0284 H   0  0  0  0  0  0  0  0  0  0  0  0
    4.5191    0.7597   -0.2650 H   0  0  0  0  0  0  0  0  0  0  0  0
    5.2415    0.4511    1.3234 H   0  0  0  0  0  0  0  0  0  0  0  0
   -0.3301    0.5563   -0.7657 H   0  0  0  0  0  0  0  0  0  0  0  0
   -1.6198   -1.7262    0.9323 H   0  0  0  0  0  0  0  0  0  0  0  0
   -2.0250   -0.8214   -2.0603 H   0  0  0  0  0  0  0  0  0  0  0  0
   -2.7975   -2.2775   -1.2152 H   0  0  0  0  0  0  0  0  0  0  0  0
   -3.8058   -0.6520    0.4320 H   0  0  0  0  0  0  0  0  0  0  0  0
   -2.4580    1.2904   -1.3757 H   0  0  0  0  0  0  0  0  0  0  0  0
   -3.9710    1.3612   -0.6381 H   0  0  0  0  0  0  0  0  0  0  0  0
  1  2  1  0
  2  3  1  0
  3  4  2  0
  3  5  1  0
  5  6  2  0
  5  7  1  0
  7  8  1  0
  8  9  1  0
  9 10  1  0
 10 11  1  0
 10  8  1  0
  1 12  1  0
  1 13  1  0
  1 14  1  0
  7 15  1  0
  8 16  1  1
  9 17  1  0
  9 18  1  0
 10 19  1  1
 11 20  1  0
 11 21  1  0
M  END
$$$$

     RDKit          3D

 21 21  0  0  0  0  0  0  0  0999 V2000
    4.5643   -0.3647    0.3281 C   0  0  0  0  0  0  0  0  0  0  0  0
    3.3280   -0.3835   -0.3187 O   0  0  0  0  0  0  0  0  0  0  0  0
    2.1075   -0.1311    0.2868 C   0  0  0  0  0  0  0  0  0  0  0  0
    2.1116    0.1357    1.5131 O   0  0  0  0  0  0  0  0  0  0  0  0
    0.8454   -0.1695   -0.4615 C   0  0  0  0  0  0  0  0  0  0  0  0
    0.8452   -0.4357   -1.6838 O   0  0  0  0  0  0  0  0  0  0  0  0
   -0.3853    0.0916    0.1790 N   0  0  0  0  0  0  0  0  0  0  0  0
   -1.6666    0.0780   -0.4644 C   0  0  2  0  0  0  0  0  0  0  0  0
   -2.6151    1.2257   -0.1682 C   0  0  0  0  0  0  0  0  0  0  0  0
   -2.9180   -0.2258    0.2461 C   0  0  2  0  0  0  0  0  0  0  0  0
   -2.9865   -0.4104    1.6615 N   0  0  0  0  0  0  0  0  0  0  0  0
    5.2190   -1.2140    0.0385 H   0  0  0  0  0  0  0  0  0  0  0  0
    5.0597    0.6058    0.0967 H   0  0  0  0  0  0  0  0  0  0  0  0
    4.3884   -0.3806    1.4400 H   0  0  0  0  0  0  0  0  0  0  0  0
   -0.3589    0.3115    1.2006 H   0  0  0  0  0  0  0  0  0  0  0  0
   -1.6206   -0.1628   -1.5494 H   0  0  0  0  0  0  0  0  0  0  0  0
   -2.2833    1.9248    0.6102 H   0  0  0  0  0  0  0  0  0  0  0  0
   -3.2684    1.6153   -0.9613 H   0  0  0  0  0  0  0  0  0  0  0  0
   -3.7093   -0.7492   -0.3236 H   0  0  0  0  0  0  0  0  0  0  0  0
   -3.8693    0.0013    2.0418 H   0  0  0  0  0  0  0  0  0  0  0  0
   -2.7879   -1.3622    1.9896 H   0  0  0  0  0  0  0  0  0  0  0  0
  1  2  1  0
  2  3  1  0
  3  4  2  0
  3  5  1  0
  5  6  2  0
  5  7  1  0
  7  8  1  0
  8  9  1  0
  9 10  1  0
 10 11  1  0
 10  8  1  0
  1 12  1  0
  1 13  1  0
  1 14  1  0
  7 15  1  0
  8 16  1  6
  9 17  1  0
  9 18  1  0
 10 19  1  6
 11 20  1  0
 11 21  1  0
M  END
$$$$
