
     RDKit          3D

 27 27  0  0  0  0  0  0  0  0999 V2000
    1.6924   -0.4805    1.5036 C   0  0  0  0  0  0  0  0  0  0  0  0
    1.5917   -0.1776    0.0178 C   0  0  2  0  0  0  0  0  0  0  0  0
    1.4145   -1.3402   -0.6843 O   0  0  0  0  0  0  0  0  0  0  0  0
    2.8952    0.4691   -0.4409 C   0  0  0  0  0  0  0  0  0  0  0  0
    3.9550   -0.3967   -0.1422 O   0  0  0  0  0  0  0  0  0  0  0  0
    0.4636    0.7787   -0.2640 C   0  0  0  0  0  0  0  0  0  0  0  0
   -0.7738    0.1001    0.1519 N   0  0  0  0  0  0  0  0  0  0  0  0
   -1.8508    1.1037    0.0886 C   0  0  0  0  0  0  0  0  0  0  0  0
   -3.0357    0.3603   -0.4846 C   0  0  2  0  0  0  0  0  0  0  0  0
   -4.0587    0.2272    0.4845 O   0  0  0  0  0  0  0  0  0  0  0  0
   -2.4559   -0.9801   -0.8332 C   0  0  0  0  0  0  0  0  0  0  0  0
   -1.1018   -0.7980   -0.8154 O   0  0  0  0  0  0  0  0  0  0  0  0
    2.6924   -0.1709    1.8733 H   0  0  0  0  0  0  0  0  0  0  0  0
    1.5982   -1.5618    1.6911 H   0  0  0  0  0  0  0  0  0  0  0  0
    0.8971    0.0323    2.0763 H   0  0  0  0  0  0  0  0  0  0  0  0
    1.7765   -2.1273   -0.2196 H   0  0  0  0  0  0  0  0  0  0  0  0
    2.8874    0.6161   -1.5546 H   0  0  0  0  0  0  0  0  0  0  0  0
    3.0779    1.4308    0.0740 H   0  0  0  0  0  0  0  0  0  0  0  0
    3.6214   -1.3160   -0.0836 H   0  0  0  0  0  0  0  0  0  0  0  0
    0.6435    1.7067    0.2980 H   0  0  0  0  0  0  0  0  0  0  0  0
    0.3968    0.9638   -1.3557 H   0  0  0  0  0  0  0  0  0  0  0  0
   -1.5431    1.9406   -0.5344 H   0  0  0  0  0  0  0  0  0  0  0  0
   -2.1234    1.4451    1.1208 H   0  0  0  0  0  0  0  0  0  0  0  0
   -3.4578    0.8785   -1.3901 H   0  0  0  0  0  0  0  0  0  0  0  0
   -3.6215    0.2939    1.3596 H   0  0  0  0  0  0  0  0  0  0  0  0
   -2.8045   -1.2641   -1.8584 H   0  0  0  0  0  0  0  0  0  0  0  0
   -2.7766   -1.7338   -0.0786 H   0  0  0  0  0  0  0  0  0  0  0  0
  1  2  1  0
  2  3  1  6
  2  4  1  0
  4  5  1  0
  2  6  1  0
  6  7  1  0
  7  8  1  0
  8  9  1  0
  9 10  1  0
  9 11  1  0
 11 12  1  0
 12  7  1  0
  1 13  1  0
  1 14  1  0
  1 15  1  0
  3 16  1  0
  4 17  1  0
  4 18  1  0
  5 19  1  0
  6 20  1  0
  6 21  1  0
  8 22  1  0
  8 23  1  0
  9 24  1  6
 10 25  1  0
 11 26  1  0
 11 27  1  0
M  END
$$$$

     RDKit          3D

 27 27  0  0  0  0  0  0  0  0999 V2000
   -1.5065    1.4980    0.2614 C   0  0  0  0  0  0  0  0  0  0  0  0
   -1.6452    0.1083   -0.3077 C   0  0  2  0  0  0  0  0  0  0  0  0
   -2.5232    0.2594   -1.4123 O   0  0  0  0  0  0  0  0  0  0  0  0
   -2.3868   -0.7620    0.6774 C   0  0  0  0  0  0  0  0  0  0  0  0
   -3.5650   -0.0797    1.0154 O   0  0  0  0  0  0  0  0  0  0  0  0
   -0.4025   -0.4982   -0.8327 C   0  0  0  0  0  0  0  0  0  0  0  0
    0.6495   -0.7744    0.0664 N   0  0  0  0  0  0  0  0  0  0  0  0
    1.3622    0.2982    0.6418 C   0  0  0  0  0  0  0  0  0  0  0  0
    2.8192    0.0534    0.2903 C   0  0  2  0  0  0  0  0  0  0  0  0
    3.3449    1.1667   -0.3341 O   0  0  0  0  0  0  0  0  0  0  0  0
    2.7016   -1.1155   -0.6554 C   0  0  0  0  0  0  0  0  0  0  0  0
    1.4704   -1.7019   -0.4131 O   0  0  0  0  0  0  0  0  0  0  0  0
   -1.0518    1.4899    1.2693 H   0  0  0  0  0  0  0  0  0  0  0  0
   -2.5339    1.9646    0.4051 H   0  0  0  0  0  0  0  0  0  0  0  0
   -0.9687    2.2029   -0.3931 H   0  0  0  0  0  0  0  0  0  0  0  0
   -3.0606   -0.5669   -1.5330 H   0  0  0  0  0  0  0  0  0  0  0  0
   -2.6401   -1.7348    0.1893 H   0  0  0  0  0  0  0  0  0  0  0  0
   -1.8196   -0.9239    1.6070 H   0  0  0  0  0  0  0  0  0  0  0  0
   -3.9425    0.3832    0.2014 H   0  0  0  0  0  0  0  0  0  0  0  0
   -0.6215   -1.4515   -1.4022 H   0  0  0  0  0  0  0  0  0  0  0  0
   -0.0063    0.1994   -1.6264 H   0  0  0  0  0  0  0  0  0  0  0  0
    1.0742    1.2649    0.2348 H   0  0  0  0  0  0  0  0  0  0  0  0
    1.2095    0.3529    1.7403 H   0  0  0  0  0  0  0  0  0  0  0  0
    3.4239   -0.1813    1.1851 H   0  0  0  0  0  0  0  0  0  0  0  0
    4.3123    1.1925   -0.3955 H   0  0  0  0  0  0  0  0  0  0  0  0
    3.5081   -1.8466   -0.4585 H   0  0  0  0  0  0  0  0  0  0  0  0
    2.7983   -0.7975   -1.7154 H   0  0  0  0  0  0  0  0  0  0  0  0
  1  2  1  0
  2  3  1  6
  2  4  1  0
  4  5  1  0
  2  6  1  0
  6  7  1  0
  7  8  1  0
  8  9  1  0
  9 10  1  0
  9 11  1  0
 11 12  1  0
 12  7  1  0
  1 13  1  0
  1 14  1  0
  1 15  1  0
  3 16  1  0
  4 17  1  0
  4 18  1  0
  5 19  1  0
  6 20  1  0
  6 21  1  0
  8 22  1  0
  8 23  1  0
  9 24  1  1
 10 25  1  0
 11 26  1  0
 11 27  1  0
M  END
$$$$

     RDKit          3D

 27 27  0  0  0  0  0  0  0  0999 V2000
   -2.3975    1.3152    0.1302 C   0  0  0  0  0  0  0  0  0  0  0  0
   -1.4664    0.1221   -0.1544 C   0  0  2  0  0  0  0  0  0  0  0  0
   -1.2798    0.1265   -1.5205 O   0  0  0  0  0  0  0  0  0  0  0  0
   -2.1790   -1.1352    0.3281 C   0  0  0  0  0  0  0  0  0  0  0  0
   -3.4246   -1.2167   -0.2655 O   0  0  0  0  0  0  0  0  0  0  0  0
   -0.1946    0.3689    0.6214 C   0  0  0  0  0  0  0  0  0  0  0  0
    0.8407   -0.5858    0.3921 N   0  0  0  0  0  0  0  0  0  0  0  0
    1.4348   -0.5550   -0.9076 C   0  0  0  0  0  0  0  0  0  0  0  0
    2.8801   -0.1221   -0.6235 C   0  0  2  0  0  0  0  0  0  0  0  0
    3.7329   -1.2086   -0.5827 O   0  0  0  0  0  0  0  0  0  0  0  0
    2.6756    0.4900    0.7639 C   0  0  0  0  0  0  0  0  0  0  0  0
    1.7982   -0.4344    1.3236 O   0  0  0  0  0  0  0  0  0  0  0  0
   -1.8674    2.1936   -0.2801 H   0  0  0  0  0  0  0  0  0  0  0  0
   -2.5273    1.4074    1.2253 H   0  0  0  0  0  0  0  0  0  0  0  0
   -3.3751    1.1819   -0.3659 H   0  0  0  0  0  0  0  0  0  0  0  0
   -2.1377    0.1756   -1.9899 H   0  0  0  0  0  0  0  0  0  0  0  0
   -1.5840   -2.0028   -0.0249 H   0  0  0  0  0  0  0  0  0  0  0  0
   -2.2311   -1.0930    1.4440 H   0  0  0  0  0  0  0  0  0  0  0  0
   -4.0932   -0.9509    0.4398 H   0  0  0  0  0  0  0  0  0  0  0  0
    0.1190    1.4222    0.4340 H   0  0  0  0  0  0  0  0  0  0  0  0
   -0.5194    0.3761    1.7034 H   0  0  0  0  0  0  0  0  0  0  0  0
    1.4941   -1.5454   -1.3838 H   0  0  0  0  0  0  0  0  0  0  0  0
    1.0302    0.2260   -1.5900 H   0  0  0  0  0  0  0  0  0  0  0  0
    3.2273    0.6410   -1.3375 H   0  0  0  0  0  0  0  0  0  0  0  0
    4.1900   -1.2430    0.2996 H   0  0  0  0  0  0  0  0  0  0  0  0
    2.2302    1.4874    0.6057 H   0  0  0  0  0  0  0  0  0  0  0  0
    3.6241    0.5591    1.3149 H   0  0  0  0  0  0  0  0  0  0  0  0
  1  2  1  0
  2  3  1  6
  2  4  1  0
  4  5  1  0
  2  6  1  0
  6  7  1  0
  7  8  1  0
  8  9  1  0
  9 10  1  0
  9 11  1  0
 11 12  1  0
 12  7  1  0
  1 13  1  0
  1 14  1  0
  1 15  1  0
  3 16  1  0
  4 17  1  0
  4 18  1  0
  5 19  1  0
  6 20  1  0
  6 21  1  0
  8 22  1  0
  8 23  1  0
  9 24  1  6
 10 25  1  0
 11 26  1  0
 11 27  1  0
M  END
$$$$

     RDKit          3D

 27 27  0  0  0  0  0  0  0  0999 V2000
   -2.0214   -1.5035    0.1796 C   0  0  0  0  0  0  0  0  0  0  0  0
   -1.6953   -0.0852    0.4767 C   0  0  2  0  0  0  0  0  0  0  0  0
   -1.8341    0.1776    1.8420 O   0  0  0  0  0  0  0  0  0  0  0  0
   -2.7697    0.7787   -0.2156 C   0  0  0  0  0  0  0  0  0  0  0  0
   -2.4937    2.1047    0.1202 O   0  0  0  0  0  0  0  0  0  0  0  0
   -0.4001    0.4257   -0.0513 C   0  0  0  0  0  0  0  0  0  0  0  0
    0.7808   -0.0607    0.6170 N   0  0  0  0  0  0  0  0  0  0  0  0
    1.8849    0.7427    0.1297 C   0  0  0  0  0  0  0  0  0  0  0  0
    3.0277   -0.2131    0.2609 C   0  0  2  0  0  0  0  0  0  0  0  0
    4.0644    0.0423   -0.6077 O   0  0  0  0  0  0  0  0  0  0  0  0
    2.2990   -1.4858   -0.1793 C   0  0  0  0  0  0  0  0  0  0  0  0
    1.0623   -1.3418    0.3825 O   0  0  0  0  0  0  0  0  0  0  0  0
   -3.0512   -1.6181   -0.2752 H   0  0  0  0  0  0  0  0  0  0  0  0
   -1.3286   -2.0127   -0.4870 H   0  0  0  0  0  0  0  0  0  0  0  0
   -2.1171   -2.0923    1.1408 H   0  0  0  0  0  0  0  0  0  0  0  0
   -2.2342    1.0503    2.0036 H   0  0  0  0  0  0  0  0  0  0  0  0
   -2.6139    0.6196   -1.2995 H   0  0  0  0  0  0  0  0  0  0  0  0
   -3.7822    0.4994    0.1071 H   0  0  0  0  0  0  0  0  0  0  0  0
   -2.2018    2.6544   -0.6351 H   0  0  0  0  0  0  0  0  0  0  0  0
   -0.3942    1.5285    0.0230 H   0  0  0  0  0  0  0  0  0  0  0  0
   -0.3626    0.2098   -1.1465 H   0  0  0  0  0  0  0  0  0  0  0  0
    2.0193    1.6660    0.7313 H   0  0  0  0  0  0  0  0  0  0  0  0
    1.6963    0.9543   -0.9396 H   0  0  0  0  0  0  0  0  0  0  0  0
    3.3303   -0.2773    1.3260 H   0  0  0  0  0  0  0  0  0  0  0  0
    4.0697    0.9772   -0.9474 H   0  0  0  0  0  0  0  0  0  0  0  0
    2.2035   -1.3672   -1.2975 H   0  0  0  0  0  0  0  0  0  0  0  0
    2.8618   -2.3737    0.0990 H   0  0  0  0  0  0  0  0  0  0  0  0
  1  2  1  0
  2  3  1  1
  2  4  1  0
  4  5  1  0
  2  6  1  0
  6  7  1  0
  7  8  1  0
  8  9  1  0
  9 10  1  0
  9 11  1  0
 11 12  1  0
 12  7  1  0
  1 13  1  0
  1 14  1  0
  1 15  1  0
  3 16  1  0
  4 17  1  0
  4 18  1  0
  5 19  1  0
  6 20  1  0
  6 21  1  0
  8 22  1  0
  8 23  1  0
  9 24  1  1
 10 25  1  0
 11 26  1  0
 11 27  1  0
M  END
$$$$

     RDKit          3D

 27 27  0  0  0  0  0  0  0  0999 V2000
   -2.1654   -1.2853   -0.1896 C   0  0  0  0  0  0  0  0  0  0  0  0
   -1.7842    0.0064    0.4534 C   0  0  2  0  0  0  0  0  0  0  0  0
   -2.6517    0.1416    1.5804 O   0  0  0  0  0  0  0  0  0  0  0  0
   -2.1546    1.1907   -0.4260 C   0  0  0  0  0  0  0  0  0  0  0  0
   -1.8785    2.3565    0.2953 O   0  0  0  0  0  0  0  0  0  0  0  0
   -0.3834    0.0874    0.9406 C   0  0  0  0  0  0  0  0  0  0  0  0
    0.6586    0.0131   -0.0188 N   0  0  0  0  0  0  0  0  0  0  0  0
    1.9421    0.3370    0.6230 C   0  0  0  0  0  0  0  0  0  0  0  0
    2.9524   -0.3326   -0.2507 C   0  0  2  0  0  0  0  0  0  0  0  0
    3.5384    0.5741   -1.1499 O   0  0  0  0  0  0  0  0  0  0  0  0
    2.0813   -1.3336   -0.9972 C   0  0  0  0  0  0  0  0  0  0  0  0
    0.8263   -1.2849   -0.3996 O   0  0  0  0  0  0  0  0  0  0  0  0
   -1.2842   -1.8663   -0.4679 H   0  0  0  0  0  0  0  0  0  0  0  0
   -2.7619   -1.9298    0.5009 H   0  0  0  0  0  0  0  0  0  0  0  0
   -2.7752   -1.1478   -1.1141 H   0  0  0  0  0  0  0  0  0  0  0  0
   -2.4367    1.0388    1.9571 H   0  0  0  0  0  0  0  0  0  0  0  0
   -1.6783    1.1667   -1.4048 H   0  0  0  0  0  0  0  0  0  0  0  0
   -3.2839    1.1373   -0.5354 H   0  0  0  0  0  0  0  0  0  0  0  0
   -1.4875    3.0577   -0.3002 H   0  0  0  0  0  0  0  0  0  0  0  0
   -0.2492    1.0373    1.5262 H   0  0  0  0  0  0  0  0  0  0  0  0
   -0.2634   -0.7231    1.7412 H   0  0  0  0  0  0  0  0  0  0  0  0
    1.9616   -0.0749    1.6374 H   0  0  0  0  0  0  0  0  0  0  0  0
    2.1230    1.4268    0.6361 H   0  0  0  0  0  0  0  0  0  0  0  0
    3.7467   -0.8143    0.3174 H   0  0  0  0  0  0  0  0  0  0  0  0
    2.9206    0.5898   -1.9295 H   0  0  0  0  0  0  0  0  0  0  0  0
    2.4853   -2.3556   -0.9690 H   0  0  0  0  0  0  0  0  0  0  0  0
    2.0016   -1.0130   -2.0562 H   0  0  0  0  0  0  0  0  0  0  0  0
  1  2  1  0
  2  3  1  1
  2  4  1  0
  4  5  1  0
  2  6  1  0
  6  7  1  0
  7  8  1  0
  8  9  1  0
  9 10  1  0
  9 11  1  0
 11 12  1  0
 12  7  1  0
  1 13  1  0
  1 14  1  0
  1 15  1  0
  3 16  1  0
  4 17  1  0
  4 18  1  0
  5 19  1  0
  6 20  1  0
  6 21  1  0
  8 22  1  0
  8 23  1  0
  9 24  1  1
 10 25  1  0
 11 26  1  0
 11 27  1  0
M  END
$$$$

     RDKit          3D

 27 27  0  0  0  0  0  0  0  0999 V2000
    2.0741   -0.0155   -2.1732 C   0  0  0  0  0  0  0  0  0  0  0  0
    1.4104    0.2298   -0.8261 C   0  0  2  0  0  0  0  0  0  0  0  0
    1.0276    1.5576   -0.7542 O   0  0  0  0  0  0  0  0  0  0  0  0
    2.4852   -0.0187    0.2251 C   0  0  0  0  0  0  0  0  0  0  0  0
    1.9868    0.2623    1.5067 O   0  0  0  0  0  0  0  0  0  0  0  0
    0.2725   -0.7394   -0.6569 C   0  0  0  0  0  0  0  0  0  0  0  0
   -0.4303   -0.6663    0.5706 N   0  0  0  0  0  0  0  0  0  0  0  0
   -1.2261    0.4682    0.8261 C   0  0  0  0  0  0  0  0  0  0  0  0
   -2.6385   -0.0343    0.5717 C   0  0  2  0  0  0  0  0  0  0  0  0
   -3.5950    0.5480    1.3567 O   0  0  0  0  0  0  0  0  0  0  0  0
   -2.4593   -1.4749    1.0088 C   0  0  0  0  0  0  0  0  0  0  0  0
   -1.1237   -1.7802    0.8203 O   0  0  0  0  0  0  0  0  0  0  0  0
    1.2927   -0.0782   -2.9857 H   0  0  0  0  0  0  0  0  0  0  0  0
    2.6094   -0.9743   -2.1755 H   0  0  0  0  0  0  0  0  0  0  0  0
    2.8103    0.7925   -2.3997 H   0  0  0  0  0  0  0  0  0  0  0  0
    1.4148    2.0285    0.0050 H   0  0  0  0  0  0  0  0  0  0  0  0
    2.8329   -1.0688    0.1735 H   0  0  0  0  0  0  0  0  0  0  0  0
    3.3721    0.6194    0.0473 H   0  0  0  0  0  0  0  0  0  0  0  0
    2.7106    0.3662    2.1637 H   0  0  0  0  0  0  0  0  0  0  0  0
   -0.4379   -0.6611   -1.5202 H   0  0  0  0  0  0  0  0  0  0  0  0
    0.7281   -1.7681   -0.7661 H   0  0  0  0  0  0  0  0  0  0  0  0
   -1.2040    0.7410    1.9104 H   0  0  0  0  0  0  0  0  0  0  0  0
   -1.0381    1.3587    0.2136 H   0  0  0  0  0  0  0  0  0  0  0  0
   -2.8262    0.0334   -0.5269 H   0  0  0  0  0  0  0  0  0  0  0  0
   -4.2460    1.1065    0.8634 H   0  0  0  0  0  0  0  0  0  0  0  0
   -2.6536   -1.5533    2.1049 H   0  0  0  0  0  0  0  0  0  0  0  0
   -3.1489   -2.1038    0.4167 H   0  0  0  0  0  0  0  0  0  0  0  0
  1  2  1  0
  2  3  1  6
  2  4  1  0
  4  5  1  0
  2  6  1  0
  6  7  1  0
  7  8  1  0
  8  9  1  0
  9 10  1  0
  9 11  1  0
 11 12  1  0
 12  7  1  0
  1 13  1  0
  1 14  1  0
  1 15  1  0
  3 16  1  0
  4 17  1  0
  4 18  1  0
  5 19  1  0
  6 20  1  0
  6 21  1  0
  8 22  1  0
  8 23  1  0
  9 24  1  6
 10 25  1  0
 11 26  1  0
 11 27  1  0
M  END
$$$$

     RDKit          3D

 27 27  0  0  0  0  0  0  0  0999 V2000
    1.5297    1.2902    0.4021 C   0  0  0  0  0  0  0  0  0  0  0  0
    1.5535   -0.2296    0.1874 C   0  0  2  0  0  0  0  0  0  0  0  0
    1.1986   -0.8307    1.3657 O   0  0  0  0  0  0  0  0  0  0  0  0
    2.9444   -0.6168   -0.2051 C   0  0  0  0  0  0  0  0  0  0  0  0
    3.3269   -0.0139   -1.3923 O   0  0  0  0  0  0  0  0  0  0  0  0
    0.5166   -0.5208   -0.8964 C   0  0  0  0  0  0  0  0  0  0  0  0
   -0.7003   -0.0058   -0.3887 N   0  0  0  0  0  0  0  0  0  0  0  0
   -1.7807    0.1240   -1.2868 C   0  0  0  0  0  0  0  0  0  0  0  0
   -2.9573    0.2129   -0.3262 C   0  0  2  0  0  0  0  0  0  0  0  0
   -3.0626    1.4800    0.1991 O   0  0  0  0  0  0  0  0  0  0  0  0
   -2.4287   -0.7187    0.7757 C   0  0  0  0  0  0  0  0  0  0  0  0
   -1.0851   -0.4545    0.7916 O   0  0  0  0  0  0  0  0  0  0  0  0
    0.5720    1.5372    0.9140 H   0  0  0  0  0  0  0  0  0  0  0  0
    2.3546    1.5908    1.0497 H   0  0  0  0  0  0  0  0  0  0  0  0
    1.5165    1.8318   -0.5606 H   0  0  0  0  0  0  0  0  0  0  0  0
    0.9025   -1.7518    1.3114 H   0  0  0  0  0  0  0  0  0  0  0  0
    3.6177   -0.2854    0.6036 H   0  0  0  0  0  0  0  0  0  0  0  0
    2.9976   -1.7410   -0.2659 H   0  0  0  0  0  0  0  0  0  0  0  0
    4.1447    0.5715   -1.2749 H   0  0  0  0  0  0  0  0  0  0  0  0
    0.7780   -0.0089   -1.8036 H   0  0  0  0  0  0  0  0  0  0  0  0
    0.4482   -1.6252   -0.9995 H   0  0  0  0  0  0  0  0  0  0  0  0
   -1.9307   -0.6392   -2.0399 H   0  0  0  0  0  0  0  0  0  0  0  0
   -1.6430    1.1176   -1.8285 H   0  0  0  0  0  0  0  0  0  0  0  0
   -3.8660   -0.2189   -0.7296 H   0  0  0  0  0  0  0  0  0  0  0  0
   -3.4393    2.0947   -0.4467 H   0  0  0  0  0  0  0  0  0  0  0  0
   -2.8576   -0.4088    1.7781 H   0  0  0  0  0  0  0  0  0  0  0  0
   -2.6502   -1.7805    0.5754 H   0  0  0  0  0  0  0  0  0  0  0  0
  1  2  1  0
  2  3  1  1
  2  4  1  0
  4  5  1  0
  2  6  1  0
  6  7  1  0
  7  8  1  0
  8  9  1  0
  9 10  1  0
  9 11  1  0
 11 12  1  0
 12  7  1  0
  1 13  1  0
  1 14  1  0
  1 15  1  0
  3 16  1  0
  4 17  1  0
  4 18  1  0
  5 19  1  0
  6 20  1  0
  6 21  1  0
  8 22  1  0
  8 23  1  0
  9 24  1  6
 10 25  1  0
 11 26  1  0
 11 27  1  0
M  END
$$$$

     RDKit          3D

 27 27  0  0  0  0  0  0  0  0999 V2000
    1.5443   -0.1672    1.4398 C   0  0  0  0  0  0  0  0  0  0  0  0
    1.5546   -0.7148    0.0285 C   0  0  2  0  0  0  0  0  0  0  0  0
    1.6502   -2.0837   -0.0139 O   0  0  0  0  0  0  0  0  0  0  0  0
    2.8268   -0.1622   -0.6264 C   0  0  0  0  0  0  0  0  0  0  0  0
    2.7145    1.2247   -0.5755 O   0  0  0  0  0  0  0  0  0  0  0  0
    0.3991   -0.1644   -0.7752 C   0  0  0  0  0  0  0  0  0  0  0  0
   -0.8789   -0.6394   -0.3420 N   0  0  0  0  0  0  0  0  0  0  0  0
   -1.8942   -0.0556   -1.1709 C   0  0  0  0  0  0  0  0  0  0  0  0
   -2.7948    0.6669   -0.1909 C   0  0  2  0  0  0  0  0  0  0  0  0
   -2.3427    1.9883   -0.0479 O   0  0  0  0  0  0  0  0  0  0  0  0
   -2.4928   -0.1365    1.0698 C   0  0  0  0  0  0  0  0  0  0  0  0
   -1.1337   -0.3588    0.9250 O   0  0  0  0  0  0  0  0  0  0  0  0
    2.6139   -0.2243    1.7937 H   0  0  0  0  0  0  0  0  0  0  0  0
    0.8578   -0.6945    2.1070 H   0  0  0  0  0  0  0  0  0  0  0  0
    1.3407    0.9316    1.3664 H   0  0  0  0  0  0  0  0  0  0  0  0
    1.6920   -2.5182    0.8713 H   0  0  0  0  0  0  0  0  0  0  0  0
    3.7135   -0.4970   -0.0230 H   0  0  0  0  0  0  0  0  0  0  0  0
    2.8610   -0.5400   -1.6550 H   0  0  0  0  0  0  0  0  0  0  0  0
    2.5086    1.6167   -1.4656 H   0  0  0  0  0  0  0  0  0  0  0  0
    0.4086    0.9442   -0.6300 H   0  0  0  0  0  0  0  0  0  0  0  0
    0.5471   -0.3312   -1.8563 H   0  0  0  0  0  0  0  0  0  0  0  0
   -1.4981    0.6722   -1.9134 H   0  0  0  0  0  0  0  0  0  0  0  0
   -2.4533   -0.8676   -1.7192 H   0  0  0  0  0  0  0  0  0  0  0  0
   -3.8602    0.6157   -0.4696 H   0  0  0  0  0  0  0  0  0  0  0  0
   -2.0788    2.1046    0.9069 H   0  0  0  0  0  0  0  0  0  0  0  0
   -3.0923   -1.0688    0.9969 H   0  0  0  0  0  0  0  0  0  0  0  0
   -2.7128    0.4593    1.9695 H   0  0  0  0  0  0  0  0  0  0  0  0
  1  2  1  0
  2  3  1  1
  2  4  1  0
  4  5  1  0
  2  6  1  0
  6  7  1  0
  7  8  1  0
  8  9  1  0
  9 10  1  0
  9 11  1  0
 11 12  1  0
 12  7  1  0
  1 13  1  0
  1 14  1  0
  1 15  1  0
  3 16  1  0
  4 17  1  0
  4 18  1  0
  5 19  1  0
  6 20  1  0
  6 21  1  0
  8 22  1  0
  8 23  1  0
  9 24  1  6
 10 25  1  0
 11 26  1  0
 11 27  1  0
M  END
$$$$
