
     RDKit          3D

 26 26  0  0  0  0  0  0  0  0999 V2000
   -1.2708    2.0278   -0.4091 C   0  0  0  0  0  0  0  0  0  0  0  0
   -0.8374    0.9155    0.5062 C   0  0  1  0  0  0  0  0  0  0  0  0
   -2.0021    0.1842    1.1180 C   0  0  0  0  0  0  0  0  0  0  0  0
   -2.2469   -1.4359    0.4335 S   0  0  0  0  0  4  0  0  0  0  0  0
   -2.0635   -2.5510    1.4440 O   0  0  0  0  0  0  0  0  0  0  0  0
   -1.3742   -1.7175   -1.0859 C   0  0  0  0  0  0  0  0  0  0  0  0
   -0.3069   -0.6762   -1.3463 C   0  0  0  0  0  0  0  0  0  0  0  0
    0.0996    0.0041   -0.1298 N   0  0  0  0  0  0  0  0  0  0  0  0
    1.3929   -0.2350    0.4059 C   0  0  0  0  0  0  0  0  0  0  0  0
    1.4819   -0.6688    1.6156 N   0  0  0  0  0  0  0  0  0  0  0  0
    2.5999   -0.0261   -0.3079 N   0  0  0  0  0  0  0  0  0  0  0  0
    3.8468    0.0402    0.3452 N   0  0  0  0  0  0  0  0  0  0  0  0
   -1.1860    3.0405    0.0821 H   0  0  0  0  0  0  0  0  0  0  0  0
   -2.3667    1.9269   -0.6491 H   0  0  0  0  0  0  0  0  0  0  0  0
   -0.6704    2.1007   -1.3321 H   0  0  0  0  0  0  0  0  0  0  0  0
   -0.2914    1.4070    1.3597 H   0  0  0  0  0  0  0  0  0  0  0  0
   -2.8972    0.7934    0.9724 H   0  0  0  0  0  0  0  0  0  0  0  0
   -1.8771    0.0612    2.2305 H   0  0  0  0  0  0  0  0  0  0  0  0
   -0.9128   -2.7366   -1.0446 H   0  0  0  0  0  0  0  0  0  0  0  0
   -2.1028   -1.7521   -1.9191 H   0  0  0  0  0  0  0  0  0  0  0  0
    0.5611   -1.2060   -1.7991 H   0  0  0  0  0  0  0  0  0  0  0  0
   -0.6662    0.0403   -2.0939 H   0  0  0  0  0  0  0  0  0  0  0  0
    2.3671   -0.8725    2.0950 H   0  0  0  0  0  0  0  0  0  0  0  0
    2.5372    0.0803   -1.3611 H   0  0  0  0  0  0  0  0  0  0  0  0
    4.4890    0.5719   -0.3006 H   0  0  0  0  0  0  0  0  0  0  0  0
    3.6968    0.6838    1.1704 H   0  0  0  0  0  0  0  0  0  0  0  0
  1  2  1  0
  2  3  1  0
  4  3  1  1
  4  5  2  0
  4  6  1  0
  6  7  1  0
  7  8  1  0
  8  9  1  0
  9 10  2  3
  9 11  1  0
 11 12  1  0
  8  2  1  0
  1 13  1  0
  1 14  1  0
  1 15  1  0
  2 16  1  1
  3 17  1  0
  3 18  1  0
  6 19  1  0
  6 20  1  0
  7 21  1  0
  7 22  1  0
 10 23  1  0
 11 24  1  0
 12 25  1  0
 12 26  1  0
M  END
$$$$

     RDKit          3D

 26 26  0  0  0  0  0  0  0  0999 V2000
   -0.5527    1.4933   -1.2246 C   0  0  0  0  0  0  0  0  0  0  0  0
   -0.7360    0.8956    0.1812 C   0  0  1  0  0  0  0  0  0  0  0  0
   -2.1726    0.7366    0.4081 C   0  0  0  0  0  0  0  0  0  0  0  0
   -2.7145   -0.8862    0.8911 S   0  0  0  0  0  4  0  0  0  0  0  0
   -2.9605   -1.0227    2.3642 O   0  0  0  0  0  0  0  0  0  0  0  0
   -1.5355   -2.0702    0.2633 C   0  0  0  0  0  0  0  0  0  0  0  0
   -0.1529   -1.5977    0.5081 C   0  0  0  0  0  0  0  0  0  0  0  0
    0.1171   -0.2221    0.3072 N   0  0  0  0  0  0  0  0  0  0  0  0
    1.5267    0.0918    0.2147 C   0  0  0  0  0  0  0  0  0  0  0  0
    2.2649    0.1902    1.2799 N   0  0  0  0  0  0  0  0  0  0  0  0
    2.1656    0.3047   -1.0167 N   0  0  0  0  0  0  0  0  0  0  0  0
    3.4282    0.8922   -1.1382 N   0  0  0  0  0  0  0  0  0  0  0  0
   -1.3825    2.2380   -1.3283 H   0  0  0  0  0  0  0  0  0  0  0  0
    0.3857    2.0663   -1.2906 H   0  0  0  0  0  0  0  0  0  0  0  0
   -0.6912    0.7444   -2.0076 H   0  0  0  0  0  0  0  0  0  0  0  0
   -0.3148    1.7047    0.8529 H   0  0  0  0  0  0  0  0  0  0  0  0
   -2.7965    1.0310   -0.4856 H   0  0  0  0  0  0  0  0  0  0  0  0
   -2.5091    1.4461    1.2070 H   0  0  0  0  0  0  0  0  0  0  0  0
   -1.6845   -3.0188    0.8495 H   0  0  0  0  0  0  0  0  0  0  0  0
   -1.7463   -2.3478   -0.7968 H   0  0  0  0  0  0  0  0  0  0  0  0
    0.1958   -1.9193    1.5300 H   0  0  0  0  0  0  0  0  0  0  0  0
    0.5160   -2.1897   -0.1878 H   0  0  0  0  0  0  0  0  0  0  0  0
    1.7947    0.0332    2.1924 H   0  0  0  0  0  0  0  0  0  0  0  0
    1.6844    0.0141   -1.8941 H   0  0  0  0  0  0  0  0  0  0  0  0
    4.0893    0.1361   -1.4438 H   0  0  0  0  0  0  0  0  0  0  0  0
    3.7814    1.2565   -0.2355 H   0  0  0  0  0  0  0  0  0  0  0  0
  1  2  1  0
  2  3  1  0
  4  3  1  1
  4  5  2  0
  4  6  1  0
  6  7  1  0
  7  8  1  0
  8  9  1  0
  9 10  2  3
  9 11  1  0
 11 12  1  0
  8  2  1  0
  1 13  1  0
  1 14  1  0
  1 15  1  0
  2 16  1  1
  3 17  1  0
  3 18  1  0
  6 19  1  0
  6 20  1  0
  7 21  1  0
  7 22  1  0
 10 23  1  0
 11 24  1  0
 12 25  1  0
 12 26  1  0
M  END
$$$$

     RDKit          3D

 26 26  0  0  0  0  0  0  0  0999 V2000
   -1.1077   -1.6394    1.4094 C   0  0  0  0  0  0  0  0  0  0  0  0
   -0.7115   -0.9510    0.0950 C   0  0  1  0  0  0  0  0  0  0  0  0
   -1.9257   -0.7326   -0.7338 C   0  0  0  0  0  0  0  0  0  0  0  0
   -2.0829    0.8757   -1.4440 S   0  0  0  0  0  4  0  0  0  0  0  0
   -2.1473    0.8785   -2.9598 O   0  0  0  0  0  0  0  0  0  0  0  0
   -0.9252    2.0519   -0.7852 C   0  0  0  0  0  0  0  0  0  0  0  0
   -0.5129    1.5370    0.5791 C   0  0  0  0  0  0  0  0  0  0  0  0
    0.0578    0.2215    0.3768 N   0  0  0  0  0  0  0  0  0  0  0  0
    1.4719    0.1031    0.4667 C   0  0  0  0  0  0  0  0  0  0  0  0
    2.1443    0.2652    1.5503 N   0  0  0  0  0  0  0  0  0  0  0  0
    2.1795   -0.2150   -0.7224 N   0  0  0  0  0  0  0  0  0  0  0  0
    3.4768   -0.6246   -0.6940 N   0  0  0  0  0  0  0  0  0  0  0  0
   -1.5696   -2.6019    1.1026 H   0  0  0  0  0  0  0  0  0  0  0  0
   -0.2318   -1.8351    2.0351 H   0  0  0  0  0  0  0  0  0  0  0  0
   -1.8853   -1.0502    1.9307 H   0  0  0  0  0  0  0  0  0  0  0  0
   -0.0764   -1.6970   -0.4300 H   0  0  0  0  0  0  0  0  0  0  0  0
   -2.8496   -0.9262   -0.1127 H   0  0  0  0  0  0  0  0  0  0  0  0
   -2.0138   -1.4878   -1.5707 H   0  0  0  0  0  0  0  0  0  0  0  0
   -0.0098    2.1563   -1.4203 H   0  0  0  0  0  0  0  0  0  0  0  0
   -1.3996    3.0645   -0.6770 H   0  0  0  0  0  0  0  0  0  0  0  0
   -1.4156    1.5292    1.2109 H   0  0  0  0  0  0  0  0  0  0  0  0
    0.1987    2.2303    1.0094 H   0  0  0  0  0  0  0  0  0  0  0  0
    1.7572    0.4954    2.4687 H   0  0  0  0  0  0  0  0  0  0  0  0
    1.7053   -0.1391   -1.6720 H   0  0  0  0  0  0  0  0  0  0  0  0
    3.6671   -1.5719   -0.3607 H   0  0  0  0  0  0  0  0  0  0  0  0
    4.2063    0.0631   -0.6521 H   0  0  0  0  0  0  0  0  0  0  0  0
  1  2  1  0
  2  3  1  0
  4  3  1  6
  4  5  2  0
  4  6  1  0
  6  7  1  0
  7  8  1  0
  8  9  1  0
  9 10  2  3
  9 11  1  0
 11 12  1  0
  8  2  1  0
  1 13  1  0
  1 14  1  0
  1 15  1  0
  2 16  1  6
  3 17  1  0
  3 18  1  0
  6 19  1  0
  6 20  1  0
  7 21  1  0
  7 22  1  0
 10 23  1  0
 11 24  1  0
 12 25  1  0
 12 26  1  0
M  END
$$$$

     RDKit          3D

 26 26  0  0  0  0  0  0  0  0999 V2000
   -0.8991    2.2502   -0.2084 C   0  0  0  0  0  0  0  0  0  0  0  0
   -0.3439    1.0144    0.5027 C   0  0  1  0  0  0  0  0  0  0  0  0
   -1.4014    0.4524    1.4287 C   0  0  0  0  0  0  0  0  0  0  0  0
   -2.5463   -0.6293    0.6256 S   0  0  0  0  0  4  0  0  0  0  0  0
   -3.1266   -1.6052    1.6445 O   0  0  0  0  0  0  0  0  0  0  0  0
   -1.6620   -1.5898   -0.6040 C   0  0  0  0  0  0  0  0  0  0  0  0
   -0.6822   -0.6767   -1.3324 C   0  0  0  0  0  0  0  0  0  0  0  0
    0.1635    0.0491   -0.4277 N   0  0  0  0  0  0  0  0  0  0  0  0
    1.5760   -0.2080   -0.4621 C   0  0  0  0  0  0  0  0  0  0  0  0
    2.3441    0.1715   -1.3989 N   0  0  0  0  0  0  0  0  0  0  0  0
    2.1075   -0.9348    0.6387 N   0  0  0  0  0  0  0  0  0  0  0  0
    3.4991   -0.8203    0.8899 N   0  0  0  0  0  0  0  0  0  0  0  0
   -2.0213    2.2575   -0.1757 H   0  0  0  0  0  0  0  0  0  0  0  0
   -0.5967    3.1875    0.3201 H   0  0  0  0  0  0  0  0  0  0  0  0
   -0.5296    2.3357   -1.2329 H   0  0  0  0  0  0  0  0  0  0  0  0
    0.4647    1.3871    1.1653 H   0  0  0  0  0  0  0  0  0  0  0  0
   -0.8773   -0.0961    2.2568 H   0  0  0  0  0  0  0  0  0  0  0  0
   -1.9404    1.2810    1.9101 H   0  0  0  0  0  0  0  0  0  0  0  0
   -1.0875   -2.4056   -0.1618 H   0  0  0  0  0  0  0  0  0  0  0  0
   -2.3784   -1.9736   -1.3527 H   0  0  0  0  0  0  0  0  0  0  0  0
   -1.2438    0.0206   -2.0148 H   0  0  0  0  0  0  0  0  0  0  0  0
   -0.0970   -1.3338   -1.9979 H   0  0  0  0  0  0  0  0  0  0  0  0
    2.0344    0.7039   -2.2329 H   0  0  0  0  0  0  0  0  0  0  0  0
    1.4854   -1.5282    1.2337 H   0  0  0  0  0  0  0  0  0  0  0  0
    3.8045    0.1658    0.7650 H   0  0  0  0  0  0  0  0  0  0  0  0
    3.9542   -1.4751    0.2207 H   0  0  0  0  0  0  0  0  0  0  0  0
  1  2  1  0
  2  3  1  0
  4  3  1  1
  4  5  2  0
  4  6  1  0
  6  7  1  0
  7  8  1  0
  8  9  1  0
  9 10  2  3
  9 11  1  0
 11 12  1  0
  8  2  1  0
  1 13  1  0
  1 14  1  0
  1 15  1  0
  2 16  1  1
  3 17  1  0
  3 18  1  0
  6 19  1  0
  6 20  1  0
  7 21  1  0
  7 22  1  0
 10 23  1  0
 11 24  1  0
 12 25  1  0
 12 26  1  0
M  END
$$$$

     RDKit          3D

 26 26  0  0  0  0  0  0  0  0999 V2000
   -0.2186   -1.6304    1.1902 C   0  0  0  0  0  0  0  0  0  0  0  0
   -0.5576   -0.9681   -0.1547 C   0  0  1  0  0  0  0  0  0  0  0  0
   -2.0068   -1.0777   -0.4094 C   0  0  0  0  0  0  0  0  0  0  0  0
   -2.9676    0.3683   -0.0575 S   0  0  0  0  0  4  0  0  0  0  0  0
   -3.9993    0.6511   -1.1415 O   0  0  0  0  0  0  0  0  0  0  0  0
   -1.9143    1.7306    0.2938 C   0  0  0  0  0  0  0  0  0  0  0  0
   -0.5090    1.5989   -0.1022 C   0  0  0  0  0  0  0  0  0  0  0  0
    0.0415    0.3075   -0.2326 N   0  0  0  0  0  0  0  0  0  0  0  0
    1.4613    0.3394   -0.4884 C   0  0  0  0  0  0  0  0  0  0  0  0
    1.7923    0.4989   -1.7198 N   0  0  0  0  0  0  0  0  0  0  0  0
    2.4068    0.2027    0.5577 N   0  0  0  0  0  0  0  0  0  0  0  0
    3.6445   -0.3425    0.2369 N   0  0  0  0  0  0  0  0  0  0  0  0
   -0.9577   -2.4410    1.3513 H   0  0  0  0  0  0  0  0  0  0  0  0
   -0.2744   -0.9264    2.0162 H   0  0  0  0  0  0  0  0  0  0  0  0
    0.7819   -2.1264    1.1387 H   0  0  0  0  0  0  0  0  0  0  0  0
   -0.0522   -1.6519   -0.9031 H   0  0  0  0  0  0  0  0  0  0  0  0
   -2.2449   -1.3957   -1.4565 H   0  0  0  0  0  0  0  0  0  0  0  0
   -2.4231   -1.9084    0.2309 H   0  0  0  0  0  0  0  0  0  0  0  0
   -2.3429    2.6479   -0.2071 H   0  0  0  0  0  0  0  0  0  0  0  0
   -2.0009    1.9695    1.3945 H   0  0  0  0  0  0  0  0  0  0  0  0
   -0.3181    2.1551   -1.0672 H   0  0  0  0  0  0  0  0  0  0  0  0
    0.1181    2.1658    0.6499 H   0  0  0  0  0  0  0  0  0  0  0  0
    2.7723    0.5422   -2.0607 H   0  0  0  0  0  0  0  0  0  0  0  0
    2.1213    0.5169    1.5015 H   0  0  0  0  0  0  0  0  0  0  0  0
    4.1135    0.1293   -0.5648 H   0  0  0  0  0  0  0  0  0  0  0  0
    3.5340   -1.3555    0.0039 H   0  0  0  0  0  0  0  0  0  0  0  0
  1  2  1  0
  2  3  1  0
  4  3  1  6
  4  5  2  0
  4  6  1  0
  6  7  1  0
  7  8  1  0
  8  9  1  0
  9 10  2  3
  9 11  1  0
 11 12  1  0
  8  2  1  0
  1 13  1  0
  1 14  1  0
  1 15  1  0
  2 16  1  6
  3 17  1  0
  3 18  1  0
  6 19  1  0
  6 20  1  0
  7 21  1  0
  7 22  1  0
 10 23  1  0
 11 24  1  0
 12 25  1  0
 12 26  1  0
M  END
$$$$

     RDKit          3D

 26 26  0  0  0  0  0  0  0  0999 V2000
   -0.5201   -0.8035    1.8738 C   0  0  0  0  0  0  0  0  0  0  0  0
   -0.4620   -1.0107    0.3841 C   0  0  1  0  0  0  0  0  0  0  0  0
   -1.8639   -1.3161   -0.1276 C   0  0  0  0  0  0  0  0  0  0  0  0
   -2.8816    0.1523   -0.1440 S   0  0  0  0  0  4  0  0  0  0  0  0
   -3.7113    0.1219   -1.4285 O   0  0  0  0  0  0  0  0  0  0  0  0
   -1.8005    1.5719   -0.1364 C   0  0  0  0  0  0  0  0  0  0  0  0
   -0.5118    1.2412   -0.8344 C   0  0  0  0  0  0  0  0  0  0  0  0
    0.1527    0.0839   -0.3192 N   0  0  0  0  0  0  0  0  0  0  0  0
    1.5589    0.0406   -0.5405 C   0  0  0  0  0  0  0  0  0  0  0  0
    1.9905   -0.3704   -1.6636 N   0  0  0  0  0  0  0  0  0  0  0  0
    2.5015    0.4387    0.4442 N   0  0  0  0  0  0  0  0  0  0  0  0
    3.8344    0.0477    0.2783 N   0  0  0  0  0  0  0  0  0  0  0  0
    0.4509   -0.4289    2.2519 H   0  0  0  0  0  0  0  0  0  0  0  0
   -1.3659   -0.1590    2.1839 H   0  0  0  0  0  0  0  0  0  0  0  0
   -0.6754   -1.7994    2.3403 H   0  0  0  0  0  0  0  0  0  0  0  0
    0.1099   -1.9728    0.2286 H   0  0  0  0  0  0  0  0  0  0  0  0
   -2.3005   -2.0510    0.5945 H   0  0  0  0  0  0  0  0  0  0  0  0
   -1.7459   -1.7581   -1.1339 H   0  0  0  0  0  0  0  0  0  0  0  0
   -1.6270    1.9808    0.8758 H   0  0  0  0  0  0  0  0  0  0  0  0
   -2.2913    2.3789   -0.7205 H   0  0  0  0  0  0  0  0  0  0  0  0
   -0.7159    1.0910   -1.9142 H   0  0  0  0  0  0  0  0  0  0  0  0
    0.1461    2.1319   -0.7625 H   0  0  0  0  0  0  0  0  0  0  0  0
    1.3156   -0.6659   -2.3963 H   0  0  0  0  0  0  0  0  0  0  0  0
    2.1849    0.9996    1.2483 H   0  0  0  0  0  0  0  0  0  0  0  0
    4.3187    0.8356   -0.2258 H   0  0  0  0  0  0  0  0  0  0  0  0
    3.9089   -0.7803   -0.3563 H   0  0  0  0  0  0  0  0  0  0  0  0
  1  2  1  0
  2  3  1  0
  4  3  1  6
  4  5  2  0
  4  6  1  0
  6  7  1  0
  7  8  1  0
  8  9  1  0
  9 10  2  3
  9 11  1  0
 11 12  1  0
  8  2  1  0
  1 13  1  0
  1 14  1  0
  1 15  1  0
  2 16  1  1
  3 17  1  0
  3 18  1  0
  6 19  1  0
  6 20  1  0
  7 21  1  0
  7 22  1  0
 10 23  1  0
 11 24  1  0
 12 25  1  0
 12 26  1  0
M  END
$$$$

     RDKit          3D

 26 26  0  0  0  0  0  0  0  0999 V2000
   -1.2595   -1.4121    1.1780 C   0  0  0  0  0  0  0  0  0  0  0  0
   -0.9756   -0.8978   -0.2361 C   0  0  1  0  0  0  0  0  0  0  0  0
   -2.2499   -0.3838   -0.8213 C   0  0  0  0  0  0  0  0  0  0  0  0
   -2.6614    1.2718   -0.2842 S   0  0  0  0  0  4  0  0  0  0  0  0
   -3.2787    2.0294   -1.4608 O   0  0  0  0  0  0  0  0  0  0  0  0
   -1.1609    2.0407    0.2950 C   0  0  0  0  0  0  0  0  0  0  0  0
    0.0782    1.4293   -0.2886 C   0  0  0  0  0  0  0  0  0  0  0  0
    0.1227    0.0098   -0.2694 N   0  0  0  0  0  0  0  0  0  0  0  0
    1.4298   -0.5930   -0.2855 C   0  0  0  0  0  0  0  0  0  0  0  0
    1.7071   -1.5535   -1.0966 N   0  0  0  0  0  0  0  0  0  0  0  0
    2.4591   -0.1532    0.5892 N   0  0  0  0  0  0  0  0  0  0  0  0
    3.7851   -0.6023    0.4787 N   0  0  0  0  0  0  0  0  0  0  0  0
   -2.2110   -1.9982    1.0938 H   0  0  0  0  0  0  0  0  0  0  0  0
   -1.4306   -0.6073    1.8918 H   0  0  0  0  0  0  0  0  0  0  0  0
   -0.4830   -2.1453    1.4983 H   0  0  0  0  0  0  0  0  0  0  0  0
   -0.7181   -1.8288   -0.8222 H   0  0  0  0  0  0  0  0  0  0  0  0
   -3.0707   -1.0586   -0.4762 H   0  0  0  0  0  0  0  0  0  0  0  0
   -2.2175   -0.4188   -1.9173 H   0  0  0  0  0  0  0  0  0  0  0  0
   -1.1416    2.0821    1.4020 H   0  0  0  0  0  0  0  0  0  0  0  0
   -1.1799    3.1116   -0.0434 H   0  0  0  0  0  0  0  0  0  0  0  0
    0.2803    1.7828   -1.3088 H   0  0  0  0  0  0  0  0  0  0  0  0
    0.9345    1.8149    0.3375 H   0  0  0  0  0  0  0  0  0  0  0  0
    2.6333   -1.9919   -1.1190 H   0  0  0  0  0  0  0  0  0  0  0  0
    2.1754    0.5355    1.3349 H   0  0  0  0  0  0  0  0  0  0  0  0
    4.0518   -0.6424   -0.5453 H   0  0  0  0  0  0  0  0  0  0  0  0
    4.3811    0.1790    0.8754 H   0  0  0  0  0  0  0  0  0  0  0  0
  1  2  1  0
  2  3  1  0
  4  3  1  6
  4  5  2  0
  4  6  1  0
  6  7  1  0
  7  8  1  0
  8  9  1  0
  9 10  2  3
  9 11  1  0
 11 12  1  0
  8  2  1  0
  1 13  1  0
  1 14  1  0
  1 15  1  0
  2 16  1  6
  3 17  1  0
  3 18  1  0
  6 19  1  0
  6 20  1  0
  7 21  1  0
  7 22  1  0
 10 23  1  0
 11 24  1  0
 12 25  1  0
 12 26  1  0
M  END
$$$$

     RDKit          3D

 26 26  0  0  0  0  0  0  0  0999 V2000
   -1.1419   -1.9986    0.4610 C   0  0  0  0  0  0  0  0  0  0  0  0
   -1.2165   -0.6001   -0.0455 C   0  0  1  0  0  0  0  0  0  0  0  0
   -1.7467    0.3028    1.0724 C   0  0  0  0  0  0  0  0  0  0  0  0
   -1.9174    1.9668    0.4511 S   0  0  0  0  0  4  0  0  0  0  0  0
   -3.1368    2.1670   -0.3957 O   0  0  0  0  0  0  0  0  0  0  0  0
   -0.3925    2.3530   -0.4226 C   0  0  0  0  0  0  0  0  0  0  0  0
    0.0032    1.1769   -1.2143 C   0  0  0  0  0  0  0  0  0  0  0  0
    0.0225   -0.0770   -0.5316 N   0  0  0  0  0  0  0  0  0  0  0  0
    1.2832   -0.7082   -0.3902 C   0  0  0  0  0  0  0  0  0  0  0  0
    1.5696   -1.8631   -0.8946 N   0  0  0  0  0  0  0  0  0  0  0  0
    2.2860   -0.0215    0.3529 N   0  0  0  0  0  0  0  0  0  0  0  0
    3.3466   -0.8144    0.8573 N   0  0  0  0  0  0  0  0  0  0  0  0
   -0.1374   -2.3074    0.8022 H   0  0  0  0  0  0  0  0  0  0  0  0
   -1.4424   -2.7635   -0.3082 H   0  0  0  0  0  0  0  0  0  0  0  0
   -1.8279   -2.1572    1.3178 H   0  0  0  0  0  0  0  0  0  0  0  0
   -1.9721   -0.5484   -0.8562 H   0  0  0  0  0  0  0  0  0  0  0  0
   -2.6656   -0.1161    1.4981 H   0  0  0  0  0  0  0  0  0  0  0  0
   -0.9816    0.2914    1.8726 H   0  0  0  0  0  0  0  0  0  0  0  0
    0.3718    2.5546    0.3473 H   0  0  0  0  0  0  0  0  0  0  0  0
   -0.4722    3.2298   -1.0560 H   0  0  0  0  0  0  0  0  0  0  0  0
   -0.1151    1.1488   -1.9878 H   0  0  0  0  0  0  0  0  0  0  0  0
   -0.4827    1.1329   -2.1660 H   0  0  0  0  0  0  0  0  0  0  0  0
    0.8380   -2.3660   -1.4378 H   0  0  0  0  0  0  0  0  0  0  0  0
    2.2484    1.0157    0.5220 H   0  0  0  0  0  0  0  0  0  0  0  0
    4.1858   -0.5511    0.3069 H   0  0  0  0  0  0  0  0  0  0  0  0
    3.4938   -0.4472    1.8449 H   0  0  0  0  0  0  0  0  0  0  0  0
  1  2  1  0
  2  3  1  0
  4  3  1  6
  4  5  2  0
  4  6  1  0
  6  7  1  0
  7  8  1  0
  8  9  1  0
  9 10  2  3
  9 11  1  0
 11 12  1  0
  8  2  1  0
  1 13  1  0
  1 14  1  0
  1 15  1  0
  2 16  1  6
  3 17  1  0
  3 18  1  0
  6 19  1  0
  6 20  1  0
  7 21  1  0
  7 22  1  0
 10 23  1  0
 11 24  1  0
 12 25  1  0
 12 26  1  0
M  END
$$$$
