
     RDKit          3D

 24 23  0  0  0  0  0  0  0  0999 V2000
   -2.5188   -1.3778    0.3544 C   0  0  0  0  0  0  0  0  0  0  0  0
   -2.2909    0.0137   -0.1771 C   0  0  2  0  0  0  0  0  0  0  0  0
   -1.9113   -0.0520   -1.5257 O   0  0  0  0  0  0  0  0  0  0  0  0
   -1.2242    0.7509    0.6019 C   0  0  2  0  0  0  0  0  0  0  0  0
   -1.1224    2.0800    0.0104 N   0  0  0  0  0  0  0  0  0  0  0  0
    0.0988    0.0408    0.3814 C   0  0  0  0  0  0  0  0  0  0  0  0
    0.2690   -1.0797    0.8531 O   0  0  0  0  0  0  0  0  0  0  0  0
    1.1258    0.6877   -0.3733 N   0  0  0  0  0  0  0  0  0  0  0  0
    2.6463   -0.0700   -0.6535 S   0  0  0  0  0  6  0  0  0  0  0  0
    3.3775   -0.7060    0.8117 C   0  0  0  0  0  0  0  0  0  0  0  0
    2.5531   -1.1457   -1.7256 O   0  0  0  0  0  0  0  0  0  0  0  0
    3.5822    0.9913   -1.2228 O   0  0  0  0  0  0  0  0  0  0  0  0
   -3.5795   -1.6500    0.1717 H   0  0  0  0  0  0  0  0  0  0  0  0
   -1.9117   -2.1159   -0.1856 H   0  0  0  0  0  0  0  0  0  0  0  0
   -2.3474   -1.4835    1.4390 H   0  0  0  0  0  0  0  0  0  0  0  0
   -3.2279    0.6309   -0.1655 H   0  0  0  0  0  0  0  0  0  0  0  0
   -1.0403   -0.5136   -1.6595 H   0  0  0  0  0  0  0  0  0  0  0  0
   -1.5062    0.7875    1.6522 H   0  0  0  0  0  0  0  0  0  0  0  0
   -2.1010    2.4534   -0.0357 H   0  0  0  0  0  0  0  0  0  0  0  0
   -0.5022    2.7010    0.5632 H   0  0  0  0  0  0  0  0  0  0  0  0
    0.9178    1.6405   -0.7519 H   0  0  0  0  0  0  0  0  0  0  0  0
    3.4408   -1.8148    0.7750 H   0  0  0  0  0  0  0  0  0  0  0  0
    4.4452   -0.3508    0.9449 H   0  0  0  0  0  0  0  0  0  0  0  0
    2.8271   -0.4176    1.7294 H   0  0  0  0  0  0  0  0  0  0  0  0
  1  2  1  0
  2  3  1  0
  2  4  1  0
  4  5  1  0
  4  6  1  0
  6  7  2  0
  6  8  1  0
  8  9  1  0
  9 10  1  0
  9 11  2  0
  9 12  2  0
  1 13  1  0
  1 14  1  0
  1 15  1  0
  2 16  1  6
  3 17  1  0
  4 18  1  1
  5 19  1  0
  5 20  1  0
  8 21  1  0
 10 22  1  0
 10 23  1  0
 10 24  1  0
M  END
$$$$

     RDKit          3D

 24 23  0  0  0  0  0  0  0  0999 V2000
   -3.4484    0.2371   -0.0111 C   0  0  0  0  0  0  0  0  0  0  0  0
   -2.1097   -0.3811   -0.3375 C   0  0  2  0  0  0  0  0  0  0  0  0
   -2.2050   -1.7782   -0.1389 O   0  0  0  0  0  0  0  0  0  0  0  0
   -1.1077    0.1394    0.6958 C   0  0  2  0  0  0  0  0  0  0  0  0
   -0.9877    1.5695    0.5136 N   0  0  0  0  0  0  0  0  0  0  0  0
    0.1856   -0.5543    0.4967 C   0  0  0  0  0  0  0  0  0  0  0  0
    0.2055   -1.8065    0.5975 O   0  0  0  0  0  0  0  0  0  0  0  0
    1.3839    0.1194    0.2023 N   0  0  0  0  0  0  0  0  0  0  0  0
    2.8872   -0.7498   -0.0242 S   0  0  0  0  0  6  0  0  0  0  0  0
    4.1750    0.4277   -0.3359 C   0  0  0  0  0  0  0  0  0  0  0  0
    2.7828   -1.6950   -1.1670 O   0  0  0  0  0  0  0  0  0  0  0  0
    3.2014   -1.5449    1.2193 O   0  0  0  0  0  0  0  0  0  0  0  0
   -4.2461   -0.3023   -0.5853 H   0  0  0  0  0  0  0  0  0  0  0  0
   -3.5896    0.1424    1.0886 H   0  0  0  0  0  0  0  0  0  0  0  0
   -3.3983    1.3124   -0.2924 H   0  0  0  0  0  0  0  0  0  0  0  0
   -1.7546   -0.1679   -1.3509 H   0  0  0  0  0  0  0  0  0  0  0  0
   -3.0755   -2.1354   -0.4102 H   0  0  0  0  0  0  0  0  0  0  0  0
   -1.4737   -0.1149    1.7194 H   0  0  0  0  0  0  0  0  0  0  0  0
   -1.8879    1.9775    0.9145 H   0  0  0  0  0  0  0  0  0  0  0  0
   -0.2357    2.0066    1.0657 H   0  0  0  0  0  0  0  0  0  0  0  0
    1.3669    1.1621    0.1190 H   0  0  0  0  0  0  0  0  0  0  0  0
    3.8053    1.3000   -0.9198 H   0  0  0  0  0  0  0  0  0  0  0  0
    5.0129   -0.0098   -0.9188 H   0  0  0  0  0  0  0  0  0  0  0  0
    4.5135    0.8461    0.6428 H   0  0  0  0  0  0  0  0  0  0  0  0
  1  2  1  0
  2  3  1  0
  2  4  1  0
  4  5  1  0
  4  6  1  0
  6  7  2  0
  6  8  1  0
  8  9  1  0
  9 10  1  0
  9 11  2  0
  9 12  2  0
  1 13  1  0
  1 14  1  0
  1 15  1  0
  2 16  1  6
  3 17  1  0
  4 18  1  1
  5 19  1  0
  5 20  1  0
  8 21  1  0
 10 22  1  0
 10 23  1  0
 10 24  1  0
M  END
$$$$

     RDKit          3D

 24 23  0  0  0  0  0  0  0  0999 V2000
    2.6586    1.1766    0.1074 C   0  0  0  0  0  0  0  0  0  0  0  0
    2.3358   -0.1083    0.8435 C   0  0  2  0  0  0  0  0  0  0  0  0
    3.4313   -0.9770    0.8190 O   0  0  0  0  0  0  0  0  0  0  0  0
    1.1205   -0.7514    0.2549 C   0  0  2  0  0  0  0  0  0  0  0  0
    1.2524   -1.1549   -1.1321 N   0  0  0  0  0  0  0  0  0  0  0  0
   -0.1348   -0.0257    0.5640 C   0  0  0  0  0  0  0  0  0  0  0  0
   -0.1177    0.9709    1.3821 O   0  0  0  0  0  0  0  0  0  0  0  0
   -1.3832   -0.4094   -0.0167 N   0  0  0  0  0  0  0  0  0  0  0  0
   -2.7825    0.4845    0.4274 S   0  0  0  0  0  6  0  0  0  0  0  0
   -4.2944   -0.2904   -0.0741 C   0  0  0  0  0  0  0  0  0  0  0  0
   -2.7062    1.8061   -0.2880 O   0  0  0  0  0  0  0  0  0  0  0  0
   -2.7475    0.7173    1.8993 O   0  0  0  0  0  0  0  0  0  0  0  0
    3.2079    0.9641   -0.8310 H   0  0  0  0  0  0  0  0  0  0  0  0
    3.2586    1.8648    0.6975 H   0  0  0  0  0  0  0  0  0  0  0  0
    1.7085    1.6953   -0.1236 H   0  0  0  0  0  0  0  0  0  0  0  0
    2.0876    0.1845    1.8940 H   0  0  0  0  0  0  0  0  0  0  0  0
    4.2328   -0.4339    0.6364 H   0  0  0  0  0  0  0  0  0  0  0  0
    1.0329   -1.7777    0.8025 H   0  0  0  0  0  0  0  0  0  0  0  0
    0.8789   -0.3528   -1.7310 H   0  0  0  0  0  0  0  0  0  0  0  0
    2.2887   -1.2355   -1.3545 H   0  0  0  0  0  0  0  0  0  0  0  0
   -1.3986   -1.2193   -0.6831 H   0  0  0  0  0  0  0  0  0  0  0  0
   -4.4944   -1.2415    0.4229 H   0  0  0  0  0  0  0  0  0  0  0  0
   -5.1103    0.4058    0.2643 H   0  0  0  0  0  0  0  0  0  0  0  0
   -4.3249   -0.2920   -1.1729 H   0  0  0  0  0  0  0  0  0  0  0  0
  1  2  1  0
  2  3  1  0
  2  4  1  0
  4  5  1  0
  4  6  1  0
  6  7  2  0
  6  8  1  0
  8  9  1  0
  9 10  1  0
  9 11  2  0
  9 12  2  0
  1 13  1  0
  1 14  1  0
  1 15  1  0
  2 16  1  1
  3 17  1  0
  4 18  1  1
  5 19  1  0
  5 20  1  0
  8 21  1  0
 10 22  1  0
 10 23  1  0
 10 24  1  0
M  END
$$$$

     RDKit          3D

 24 23  0  0  0  0  0  0  0  0999 V2000
   -2.4328   -1.3789    0.4934 C   0  0  0  0  0  0  0  0  0  0  0  0
   -1.8394   -0.1392    1.1423 C   0  0  2  0  0  0  0  0  0  0  0  0
   -2.9653    0.6147    1.5661 O   0  0  0  0  0  0  0  0  0  0  0  0
   -1.0671    0.7252    0.2075 C   0  0  2  0  0  0  0  0  0  0  0  0
   -1.8172    1.1123   -0.9551 N   0  0  0  0  0  0  0  0  0  0  0  0
    0.2501    0.2697   -0.1915 C   0  0  0  0  0  0  0  0  0  0  0  0
    0.5607    0.3006   -1.4225 O   0  0  0  0  0  0  0  0  0  0  0  0
    1.2751   -0.2273    0.6727 N   0  0  0  0  0  0  0  0  0  0  0  0
    2.8037   -0.7296    0.0566 S   0  0  0  0  0  6  0  0  0  0  0  0
    3.6891    0.6142   -0.6816 C   0  0  0  0  0  0  0  0  0  0  0  0
    2.5374   -1.8304   -0.9463 O   0  0  0  0  0  0  0  0  0  0  0  0
    3.6178   -1.2700    1.2027 O   0  0  0  0  0  0  0  0  0  0  0  0
   -2.0020   -2.3237    0.9358 H   0  0  0  0  0  0  0  0  0  0  0  0
   -2.1850   -1.3468   -0.5916 H   0  0  0  0  0  0  0  0  0  0  0  0
   -3.5382   -1.4546    0.6349 H   0  0  0  0  0  0  0  0  0  0  0  0
   -1.3306   -0.4251    2.0564 H   0  0  0  0  0  0  0  0  0  0  0  0
   -3.0079    1.4652    1.1056 H   0  0  0  0  0  0  0  0  0  0  0  0
   -0.9040    1.7000    0.7748 H   0  0  0  0  0  0  0  0  0  0  0  0
   -1.3996    0.7956   -1.8426 H   0  0  0  0  0  0  0  0  0  0  0  0
   -2.8322    1.0464   -0.8947 H   0  0  0  0  0  0  0  0  0  0  0  0
    1.0376   -0.2649    1.6758 H   0  0  0  0  0  0  0  0  0  0  0  0
    3.1283    1.5753   -0.4833 H   0  0  0  0  0  0  0  0  0  0  0  0
    3.7411    0.4415   -1.7727 H   0  0  0  0  0  0  0  0  0  0  0  0
    4.6807    0.7299   -0.2467 H   0  0  0  0  0  0  0  0  0  0  0  0
  1  2  1  0
  2  3  1  0
  2  4  1  0
  4  5  1  0
  4  6  1  0
  6  7  2  0
  6  8  1  0
  8  9  1  0
  9 10  1  0
  9 11  2  0
  9 12  2  0
  1 13  1  0
  1 14  1  0
  1 15  1  0
  2 16  1  1
  3 17  1  0
  4 18  1  1
  5 19  1  0
  5 20  1  0
  8 21  1  0
 10 22  1  0
 10 23  1  0
 10 24  1  0
M  END
$$$$

     RDKit          3D

 24 23  0  0  0  0  0  0  0  0999 V2000
   -2.1463    0.8009    1.0242 C   0  0  0  0  0  0  0  0  0  0  0  0
   -2.0297    0.4648   -0.4328 C   0  0  2  0  0  0  0  0  0  0  0  0
   -3.2690    0.0689   -0.9021 O   0  0  0  0  0  0  0  0  0  0  0  0
   -1.0515   -0.6886   -0.6345 C   0  0  2  0  0  0  0  0  0  0  0  0
   -1.5652   -1.8122    0.1180 N   0  0  0  0  0  0  0  0  0  0  0  0
    0.2923   -0.3441   -0.0939 C   0  0  0  0  0  0  0  0  0  0  0  0
    0.7891   -0.9995    0.8603 O   0  0  0  0  0  0  0  0  0  0  0  0
    1.0659    0.7262   -0.6227 N   0  0  0  0  0  0  0  0  0  0  0  0
    2.6060    1.0600    0.0562 S   0  0  0  0  0  6  0  0  0  0  0  0
    3.6655   -0.3811   -0.0102 C   0  0  0  0  0  0  0  0  0  0  0  0
    3.2555    2.2076   -0.6428 O   0  0  0  0  0  0  0  0  0  0  0  0
    2.4384    1.3843    1.5320 O   0  0  0  0  0  0  0  0  0  0  0  0
   -1.1360    0.8395    1.4903 H   0  0  0  0  0  0  0  0  0  0  0  0
   -2.5752    1.8226    1.1022 H   0  0  0  0  0  0  0  0  0  0  0  0
   -2.7869    0.0782    1.5396 H   0  0  0  0  0  0  0  0  0  0  0  0
   -1.7302    1.3482   -1.0484 H   0  0  0  0  0  0  0  0  0  0  0  0
   -3.8162   -0.2408   -0.1331 H   0  0  0  0  0  0  0  0  0  0  0  0
   -1.0012   -0.9254   -1.7101 H   0  0  0  0  0  0  0  0  0  0  0  0
   -2.5135   -2.0999   -0.1560 H   0  0  0  0  0  0  0  0  0  0  0  0
   -0.8502   -2.5686    0.0628 H   0  0  0  0  0  0  0  0  0  0  0  0
    0.6667    1.2929   -1.4263 H   0  0  0  0  0  0  0  0  0  0  0  0
    4.7011   -0.0593    0.2160 H   0  0  0  0  0  0  0  0  0  0  0  0
    3.6008   -0.8685   -0.9919 H   0  0  0  0  0  0  0  0  0  0  0  0
    3.3898   -1.1061    0.8032 H   0  0  0  0  0  0  0  0  0  0  0  0
  1  2  1  0
  2  3  1  0
  2  4  1  0
  4  5  1  0
  4  6  1  0
  6  7  2  0
  6  8  1  0
  8  9  1  0
  9 10  1  0
  9 11  2  0
  9 12  2  0
  1 13  1  0
  1 14  1  0
  1 15  1  0
  2 16  1  6
  3 17  1  0
  4 18  1  6
  5 19  1  0
  5 20  1  0
  8 21  1  0
 10 22  1  0
 10 23  1  0
 10 24  1  0
M  END
$$$$

     RDKit          3D

 24 23  0  0  0  0  0  0  0  0999 V2000
   -3.4952   -0.0283   -0.0892 C   0  0  0  0  0  0  0  0  0  0  0  0
   -2.1279    0.4239    0.3995 C   0  0  2  0  0  0  0  0  0  0  0  0
   -2.1145    1.8124    0.2817 O   0  0  0  0  0  0  0  0  0  0  0  0
   -1.0694   -0.2221   -0.4569 C   0  0  2  0  0  0  0  0  0  0  0  0
   -1.1117   -1.6364   -0.3160 N   0  0  0  0  0  0  0  0  0  0  0  0
    0.2431    0.3982   -0.1779 C   0  0  0  0  0  0  0  0  0  0  0  0
    0.2868    1.6711   -0.2573 O   0  0  0  0  0  0  0  0  0  0  0  0
    1.3939   -0.3353    0.1584 N   0  0  0  0  0  0  0  0  0  0  0  0
    2.8780    0.5280    0.4647 S   0  0  0  0  0  6  0  0  0  0  0  0
    4.1396   -0.2240   -0.5405 C   0  0  0  0  0  0  0  0  0  0  0  0
    3.1939    0.4920    1.9109 O   0  0  0  0  0  0  0  0  0  0  0  0
    2.7231    1.9517    0.0047 O   0  0  0  0  0  0  0  0  0  0  0  0
   -3.5184   -1.1216   -0.1631 H   0  0  0  0  0  0  0  0  0  0  0  0
   -3.7345    0.4898   -1.0535 H   0  0  0  0  0  0  0  0  0  0  0  0
   -4.2857    0.2816    0.6191 H   0  0  0  0  0  0  0  0  0  0  0  0
   -2.0225    0.1239    1.4409 H   0  0  0  0  0  0  0  0  0  0  0  0
   -2.6042    2.1292   -0.5136 H   0  0  0  0  0  0  0  0  0  0  0  0
   -1.3443   -0.0005   -1.5294 H   0  0  0  0  0  0  0  0  0  0  0  0
   -1.2862   -2.0251    0.6061 H   0  0  0  0  0  0  0  0  0  0  0  0
   -0.5824   -2.1797   -0.9908 H   0  0  0  0  0  0  0  0  0  0  0  0
    1.3676   -1.3681    0.2255 H   0  0  0  0  0  0  0  0  0  0  0  0
    5.0036    0.4457   -0.6690 H   0  0  0  0  0  0  0  0  0  0  0  0
    4.3850   -1.1972   -0.0876 H   0  0  0  0  0  0  0  0  0  0  0  0
    3.6818   -0.4091   -1.5310 H   0  0  0  0  0  0  0  0  0  0  0  0
  1  2  1  0
  2  3  1  0
  2  4  1  0
  4  5  1  0
  4  6  1  0
  6  7  2  0
  6  8  1  0
  8  9  1  0
  9 10  1  0
  9 11  2  0
  9 12  2  0
  1 13  1  0
  1 14  1  0
  1 15  1  0
  2 16  1  1
  3 17  1  0
  4 18  1  6
  5 19  1  0
  5 20  1  0
  8 21  1  0
 10 22  1  0
 10 23  1  0
 10 24  1  0
M  END
$$$$

     RDKit          3D

 24 23  0  0  0  0  0  0  0  0999 V2000
    2.0618   -1.3941    0.5980 C   0  0  0  0  0  0  0  0  0  0  0  0
    1.8677   -0.4774   -0.5843 C   0  0  2  0  0  0  0  0  0  0  0  0
    3.1258   -0.0927   -1.0562 O   0  0  0  0  0  0  0  0  0  0  0  0
    1.1547    0.8283   -0.1750 C   0  0  2  0  0  0  0  0  0  0  0  0
    2.0163    1.3833    0.8502 N   0  0  0  0  0  0  0  0  0  0  0  0
   -0.1970    0.5617    0.3047 C   0  0  0  0  0  0  0  0  0  0  0  0
   -0.3822    0.0969    1.4608 O   0  0  0  0  0  0  0  0  0  0  0  0
   -1.3432    0.8259   -0.5433 N   0  0  0  0  0  0  0  0  0  0  0  0
   -2.9497    0.5468   -0.0534 S   0  0  0  0  0  6  0  0  0  0  0  0
   -3.3000   -1.1991   -0.0319 C   0  0  0  0  0  0  0  0  0  0  0  0
   -3.8935    1.2507   -1.0001 O   0  0  0  0  0  0  0  0  0  0  0  0
   -3.2111    1.1207    1.3026 O   0  0  0  0  0  0  0  0  0  0  0  0
    3.0863   -1.8621    0.4986 H   0  0  0  0  0  0  0  0  0  0  0  0
    2.0527   -0.8613    1.5770 H   0  0  0  0  0  0  0  0  0  0  0  0
    1.3109   -2.1995    0.5648 H   0  0  0  0  0  0  0  0  0  0  0  0
    1.3166   -0.9533   -1.3774 H   0  0  0  0  0  0  0  0  0  0  0  0
    3.4724    0.6507   -0.4978 H   0  0  0  0  0  0  0  0  0  0  0  0
    1.1432    1.4740   -1.0638 H   0  0  0  0  0  0  0  0  0  0  0  0
    1.5180    1.4808    1.7633 H   0  0  0  0  0  0  0  0  0  0  0  0
    2.4537    2.2847    0.5476 H   0  0  0  0  0  0  0  0  0  0  0  0
   -1.1259    1.1958   -1.4889 H   0  0  0  0  0  0  0  0  0  0  0  0
   -2.6277   -1.7111   -0.7597 H   0  0  0  0  0  0  0  0  0  0  0  0
   -3.1967   -1.5896    0.9825 H   0  0  0  0  0  0  0  0  0  0  0  0
   -4.3528   -1.3600   -0.3541 H   0  0  0  0  0  0  0  0  0  0  0  0
  1  2  1  0
  2  3  1  0
  2  4  1  0
  4  5  1  0
  4  6  1  0
  6  7  2  0
  6  8  1  0
  8  9  1  0
  9 10  1  0
  9 11  2  0
  9 12  2  0
  1 13  1  0
  1 14  1  0
  1 15  1  0
  2 16  1  6
  3 17  1  0
  4 18  1  6
  5 19  1  0
  5 20  1  0
  8 21  1  0
 10 22  1  0
 10 23  1  0
 10 24  1  0
M  END
$$$$

     RDKit          3D

 24 23  0  0  0  0  0  0  0  0999 V2000
   -3.4575   -0.1507    0.0776 C   0  0  0  0  0  0  0  0  0  0  0  0
   -2.0727    0.4807   -0.0393 C   0  0  2  0  0  0  0  0  0  0  0  0
   -2.1956    1.5687   -0.8968 O   0  0  0  0  0  0  0  0  0  0  0  0
   -1.0791   -0.5479   -0.5882 C   0  0  2  0  0  0  0  0  0  0  0  0
   -1.0503   -1.6114    0.4002 N   0  0  0  0  0  0  0  0  0  0  0  0
    0.2668    0.0615   -0.6629 C   0  0  0  0  0  0  0  0  0  0  0  0
    0.6676    0.6422   -1.7457 O   0  0  0  0  0  0  0  0  0  0  0  0
    1.1382    0.0241    0.4467 N   0  0  0  0  0  0  0  0  0  0  0  0
    2.7232    0.7234    0.4204 S   0  0  0  0  0  6  0  0  0  0  0  0
    3.8653   -0.2996   -0.4623 C   0  0  0  0  0  0  0  0  0  0  0  0
    2.6798    2.1322   -0.0993 O   0  0  0  0  0  0  0  0  0  0  0  0
    3.2280    0.8039    1.8382 O   0  0  0  0  0  0  0  0  0  0  0  0
   -3.9881    0.0023   -0.8877 H   0  0  0  0  0  0  0  0  0  0  0  0
   -3.4153   -1.2111    0.3623 H   0  0  0  0  0  0  0  0  0  0  0  0
   -3.9952    0.4135    0.8663 H   0  0  0  0  0  0  0  0  0  0  0  0
   -1.7825    0.7992    0.9838 H   0  0  0  0  0  0  0  0  0  0  0  0
   -2.2022    2.3984   -0.3175 H   0  0  0  0  0  0  0  0  0  0  0  0
   -1.3976   -0.9398   -1.5675 H   0  0  0  0  0  0  0  0  0  0  0  0
   -0.9908   -1.2169    1.3643 H   0  0  0  0  0  0  0  0  0  0  0  0
   -0.2651   -2.2251    0.1693 H   0  0  0  0  0  0  0  0  0  0  0  0
    0.8104   -0.4384    1.3241 H   0  0  0  0  0  0  0  0  0  0  0  0
    3.9445    0.0925   -1.5021 H   0  0  0  0  0  0  0  0  0  0  0  0
    3.6578   -1.3607   -0.4267 H   0  0  0  0  0  0  0  0  0  0  0  0
    4.9102   -0.1409   -0.0412 H   0  0  0  0  0  0  0  0  0  0  0  0
  1  2  1  0
  2  3  1  0
  2  4  1  0
  4  5  1  0
  4  6  1  0
  6  7  2  0
  6  8  1  0
  8  9  1  0
  9 10  1  0
  9 11  2  0
  9 12  2  0
  1 13  1  0
  1 14  1  0
  1 15  1  0
  2 16  1  1
  3 17  1  0
  4 18  1  6
  5 19  1  0
  5 20  1  0
  8 21  1  0
 10 22  1  0
 10 23  1  0
 10 24  1  0
M  END
$$$$
