
     RDKit          3D

 25 25  0  0  0  0  0  0  0  0999 V2000
    4.7668   -0.1690   -0.1360 C   0  0  0  0  0  0  0  0  0  0  0  0
    3.4520   -0.7225   -0.0667 N   0  0  0  0  0  0  0  0  0  0  0  0
    2.4021    0.2466   -0.0459 C   0  0  0  0  0  0  0  0  0  0  0  0
    1.0977   -0.4601    0.0268 C   0  0  0  0  0  0  0  0  0  0  0  0
    1.0326   -1.6969    0.0598 O   0  0  0  0  0  0  0  0  0  0  0  0
   -0.1243    0.2859    0.0603 N   0  0  0  0  0  0  0  0  0  0  0  0
   -1.4180   -0.3740    0.1314 C   0  0  1  0  0  0  0  0  0  0  0  0
   -2.3862    0.3239    1.1040 C   0  0  0  0  0  0  0  0  0  0  0  0
   -2.5818    0.3512   -0.4125 C   0  0  2  0  0  0  0  0  0  0  0  0
   -3.8244   -0.3325   -0.8663 C   0  0  0  0  0  0  0  0  0  0  0  0
   -4.7141    0.6482   -1.3186 O   0  0  0  0  0  0  0  0  0  0  0  0
    5.3021   -0.3645    0.8237 H   0  0  0  0  0  0  0  0  0  0  0  0
    5.3665   -0.6697   -0.9452 H   0  0  0  0  0  0  0  0  0  0  0  0
    4.8016    0.9090   -0.3125 H   0  0  0  0  0  0  0  0  0  0  0  0
    3.3385   -1.5015    0.5882 H   0  0  0  0  0  0  0  0  0  0  0  0
    2.4651    0.8573   -0.9853 H   0  0  0  0  0  0  0  0  0  0  0  0
    2.4988    0.9583    0.8129 H   0  0  0  0  0  0  0  0  0  0  0  0
   -0.0221    1.3236    0.0306 H   0  0  0  0  0  0  0  0  0  0  0  0
   -1.3889   -1.4725    0.1572 H   0  0  0  0  0  0  0  0  0  0  0  0
   -2.0909    1.2876    1.5332 H   0  0  0  0  0  0  0  0  0  0  0  0
   -3.0054   -0.3728    1.6941 H   0  0  0  0  0  0  0  0  0  0  0  0
   -2.3548    1.3028   -0.9395 H   0  0  0  0  0  0  0  0  0  0  0  0
   -4.3555   -0.8532   -0.0331 H   0  0  0  0  0  0  0  0  0  0  0  0
   -3.6723   -1.0209   -1.7204 H   0  0  0  0  0  0  0  0  0  0  0  0
   -4.5851    1.5157   -0.8569 H   0  0  0  0  0  0  0  0  0  0  0  0
  1  2  1  0
  2  3  1  0
  3  4  1  0
  4  5  2  0
  4  6  1  0
  6  7  1  0
  7  8  1  0
  8  9  1  0
  9 10  1  0
 10 11  1  0
  9  7  1  0
  1 12  1  0
  1 13  1  0
  1 14  1  0
  2 15  1  0
  3 16  1  0
  3 17  1  0
  6 18  1  0
  7 19  1  1
  8 20  1  0
  8 21  1  0
  9 22  1  6
 10 23  1  0
 10 24  1  0
 11 25  1  0
M  END
$$$$

     RDKit          3D

 25 25  0  0  0  0  0  0  0  0999 V2000
    4.2941    0.3215    0.2490 C   0  0  0  0  0  0  0  0  0  0  0  0
    2.8590    0.1596    0.1160 N   0  0  0  0  0  0  0  0  0  0  0  0
    2.2307    1.4515    0.0845 C   0  0  0  0  0  0  0  0  0  0  0  0
    0.7505    1.3502   -0.0513 C   0  0  0  0  0  0  0  0  0  0  0  0
    0.0389    2.3855   -0.0954 O   0  0  0  0  0  0  0  0  0  0  0  0
    0.0644    0.1070   -0.1378 N   0  0  0  0  0  0  0  0  0  0  0  0
   -1.3645   -0.0010   -0.2691 C   0  0  1  0  0  0  0  0  0  0  0  0
   -1.8068   -1.1009   -1.2323 C   0  0  0  0  0  0  0  0  0  0  0  0
   -2.1208   -1.1738    0.1931 C   0  0  2  0  0  0  0  0  0  0  0  0
   -3.5021   -0.9218    0.7385 C   0  0  0  0  0  0  0  0  0  0  0  0
   -4.3548   -0.3358   -0.1738 O   0  0  0  0  0  0  0  0  0  0  0  0
    4.5973    1.3821    0.2779 H   0  0  0  0  0  0  0  0  0  0  0  0
    4.6359   -0.1309    1.2242 H   0  0  0  0  0  0  0  0  0  0  0  0
    4.8563   -0.1464   -0.5848 H   0  0  0  0  0  0  0  0  0  0  0  0
    2.7029   -0.2794   -0.8323 H   0  0  0  0  0  0  0  0  0  0  0  0
    2.5290    1.9984    1.0010 H   0  0  0  0  0  0  0  0  0  0  0  0
    2.6236    2.0409   -0.7725 H   0  0  0  0  0  0  0  0  0  0  0  0
    0.6242   -0.7730   -0.1044 H   0  0  0  0  0  0  0  0  0  0  0  0
   -1.8900    0.9692   -0.2974 H   0  0  0  0  0  0  0  0  0  0  0  0
   -2.5082   -0.7392   -2.0041 H   0  0  0  0  0  0  0  0  0  0  0  0
   -1.0371   -1.7856   -1.6378 H   0  0  0  0  0  0  0  0  0  0  0  0
   -1.5670   -1.9590    0.7865 H   0  0  0  0  0  0  0  0  0  0  0  0
   -3.4035   -0.2460    1.6052 H   0  0  0  0  0  0  0  0  0  0  0  0
   -3.9946   -1.8690    1.0834 H   0  0  0  0  0  0  0  0  0  0  0  0
   -5.2573   -0.7042   -0.1878 H   0  0  0  0  0  0  0  0  0  0  0  0
  1  2  1  0
  2  3  1  0
  3  4  1  0
  4  5  2  0
  4  6  1  0
  6  7  1  0
  7  8  1  0
  8  9  1  0
  9 10  1  0
 10 11  1  0
  9  7  1  0
  1 12  1  0
  1 13  1  0
  1 14  1  0
  2 15  1  0
  3 16  1  0
  3 17  1  0
  6 18  1  0
  7 19  1  6
  8 20  1  0
  8 21  1  0
  9 22  1  1
 10 23  1  0
 10 24  1  0
 11 25  1  0
M  END
$$$$

     RDKit          3D

 25 25  0  0  0  0  0  0  0  0999 V2000
   -4.5883   -0.1332    0.6032 C   0  0  0  0  0  0  0  0  0  0  0  0
   -3.2628   -0.7398    0.5009 N   0  0  0  0  0  0  0  0  0  0  0  0
   -2.3427    0.2227   -0.0674 C   0  0  0  0  0  0  0  0  0  0  0  0
   -0.9928   -0.3886   -0.1741 C   0  0  0  0  0  0  0  0  0  0  0  0
   -0.7996   -1.5818    0.2078 O   0  0  0  0  0  0  0  0  0  0  0  0
    0.1310    0.2947   -0.6913 N   0  0  0  0  0  0  0  0  0  0  0  0
    1.4512   -0.2821   -0.8033 C   0  0  1  0  0  0  0  0  0  0  0  0
    2.3900    0.0947   -1.8644 C   0  0  0  0  0  0  0  0  0  0  0  0
    2.6056    0.5662   -0.4316 C   0  0  2  0  0  0  0  0  0  0  0  0
    3.7628   -0.0435    0.2929 C   0  0  0  0  0  0  0  0  0  0  0  0
    3.3033   -0.5739    1.5065 O   0  0  0  0  0  0  0  0  0  0  0  0
   -4.8525    0.3485   -0.3594 H   0  0  0  0  0  0  0  0  0  0  0  0
   -5.3482   -0.8973    0.8093 H   0  0  0  0  0  0  0  0  0  0  0  0
   -4.5943    0.6070    1.4296 H   0  0  0  0  0  0  0  0  0  0  0  0
   -2.9238   -1.0324    1.4340 H   0  0  0  0  0  0  0  0  0  0  0  0
   -2.7274    0.5686   -1.0441 H   0  0  0  0  0  0  0  0  0  0  0  0
   -2.2740    1.1350    0.5801 H   0  0  0  0  0  0  0  0  0  0  0  0
   -0.0140    1.2851   -1.0120 H   0  0  0  0  0  0  0  0  0  0  0  0
    1.4985   -1.3302   -0.4382 H   0  0  0  0  0  0  0  0  0  0  0  0
    3.0616   -0.6782   -2.2770 H   0  0  0  0  0  0  0  0  0  0  0  0
    2.1863    0.9167   -2.5792 H   0  0  0  0  0  0  0  0  0  0  0  0
    2.4127    1.6283   -0.1964 H   0  0  0  0  0  0  0  0  0  0  0  0
    4.5438    0.7068    0.4867 H   0  0  0  0  0  0  0  0  0  0  0  0
    4.1725   -0.8846   -0.2977 H   0  0  0  0  0  0  0  0  0  0  0  0
    3.2013    0.1911    2.1252 H   0  0  0  0  0  0  0  0  0  0  0  0
  1  2  1  0
  2  3  1  0
  3  4  1  0
  4  5  2  0
  4  6  1  0
  6  7  1  0
  7  8  1  0
  8  9  1  0
  9 10  1  0
 10 11  1  0
  9  7  1  0
  1 12  1  0
  1 13  1  0
  1 14  1  0
  2 15  1  0
  3 16  1  0
  3 17  1  0
  6 18  1  0
  7 19  1  1
  8 20  1  0
  8 21  1  0
  9 22  1  6
 10 23  1  0
 10 24  1  0
 11 25  1  0
M  END
$$$$

     RDKit          3D

 25 25  0  0  0  0  0  0  0  0999 V2000
    3.9458    0.5747    0.3026 C   0  0  0  0  0  0  0  0  0  0  0  0
    3.3829   -0.7510    0.4940 N   0  0  0  0  0  0  0  0  0  0  0  0
    2.3021   -1.0381   -0.4118 C   0  0  0  0  0  0  0  0  0  0  0  0
    1.0962   -0.1937   -0.0727 C   0  0  0  0  0  0  0  0  0  0  0  0
    1.1797    0.5924    0.8879 O   0  0  0  0  0  0  0  0  0  0  0  0
   -0.0799   -0.3186   -0.8345 N   0  0  0  0  0  0  0  0  0  0  0  0
   -1.2380    0.4580   -0.5207 C   0  0  1  0  0  0  0  0  0  0  0  0
   -2.3874    0.6572   -1.3970 C   0  0  0  0  0  0  0  0  0  0  0  0
   -2.4858   -0.4130   -0.3768 C   0  0  2  0  0  0  0  0  0  0  0  0
   -3.2422   -0.2830    0.8973 C   0  0  0  0  0  0  0  0  0  0  0  0
   -3.7398    0.9884    1.1670 O   0  0  0  0  0  0  0  0  0  0  0  0
    4.2486    0.9749    1.2746 H   0  0  0  0  0  0  0  0  0  0  0  0
    4.8855    0.5177   -0.3076 H   0  0  0  0  0  0  0  0  0  0  0  0
    3.2734    1.2821   -0.1907 H   0  0  0  0  0  0  0  0  0  0  0  0
    3.0270   -0.7867    1.4865 H   0  0  0  0  0  0  0  0  0  0  0  0
    1.9582   -2.0773   -0.2363 H   0  0  0  0  0  0  0  0  0  0  0  0
    2.5719   -0.9315   -1.4572 H   0  0  0  0  0  0  0  0  0  0  0  0
   -0.1021   -0.9842   -1.6269 H   0  0  0  0  0  0  0  0  0  0  0  0
   -1.0950    1.2036    0.3200 H   0  0  0  0  0  0  0  0  0  0  0  0
   -3.0604    1.5221   -1.2578 H   0  0  0  0  0  0  0  0  0  0  0  0
   -2.3206    0.3365   -2.4508 H   0  0  0  0  0  0  0  0  0  0  0  0
   -2.4254   -1.4888   -0.7218 H   0  0  0  0  0  0  0  0  0  0  0  0
   -2.4727   -0.4545    1.7177 H   0  0  0  0  0  0  0  0  0  0  0  0
   -3.9809   -1.0937    1.0130 H   0  0  0  0  0  0  0  0  0  0  0  0
   -3.2412    1.7065    0.7612 H   0  0  0  0  0  0  0  0  0  0  0  0
  1  2  1  0
  2  3  1  0
  3  4  1  0
  4  5  2  0
  4  6  1  0
  6  7  1  0
  7  8  1  0
  8  9  1  0
  9 10  1  0
 10 11  1  0
  9  7  1  0
  1 12  1  0
  1 13  1  0
  1 14  1  0
  2 15  1  0
  3 16  1  0
  3 17  1  0
  6 18  1  0
  7 19  1  1
  8 20  1  0
  8 21  1  0
  9 22  1  6
 10 23  1  0
 10 24  1  0
 11 25  1  0
M  END
$$$$

     RDKit          3D

 25 25  0  0  0  0  0  0  0  0999 V2000
    3.0256    0.0647   -0.8939 C   0  0  0  0  0  0  0  0  0  0  0  0
    3.0346   -0.7285    0.3183 N   0  0  0  0  0  0  0  0  0  0  0  0
    2.6247   -0.0050    1.4831 C   0  0  0  0  0  0  0  0  0  0  0  0
    1.1930    0.3534    1.4696 C   0  0  0  0  0  0  0  0  0  0  0  0
    0.7239    1.0072    2.4378 O   0  0  0  0  0  0  0  0  0  0  0  0
    0.3098    0.0040    0.4281 N   0  0  0  0  0  0  0  0  0  0  0  0
   -1.0827    0.3723    0.4450 C   0  0  1  0  0  0  0  0  0  0  0  0
   -1.6160    0.8779   -0.8810 C   0  0  0  0  0  0  0  0  0  0  0  0
   -2.1325   -0.3897   -0.2356 C   0  0  2  0  0  0  0  0  0  0  0  0
   -3.5571   -0.2615    0.2618 C   0  0  0  0  0  0  0  0  0  0  0  0
   -4.4248   -1.0594   -0.5062 O   0  0  0  0  0  0  0  0  0  0  0  0
    2.7228   -0.6165   -1.7274 H   0  0  0  0  0  0  0  0  0  0  0  0
    4.0741    0.4209   -1.1302 H   0  0  0  0  0  0  0  0  0  0  0  0
    2.4284    0.9847   -0.8332 H   0  0  0  0  0  0  0  0  0  0  0  0
    3.9812   -1.1451    0.4261 H   0  0  0  0  0  0  0  0  0  0  0  0
    3.2710    0.8963    1.6985 H   0  0  0  0  0  0  0  0  0  0  0  0
    2.8207   -0.6922    2.3548 H   0  0  0  0  0  0  0  0  0  0  0  0
    0.6614   -0.5535   -0.4059 H   0  0  0  0  0  0  0  0  0  0  0  0
   -1.4167    0.9661    1.3206 H   0  0  0  0  0  0  0  0  0  0  0  0
   -0.9945    0.7193   -1.7884 H   0  0  0  0  0  0  0  0  0  0  0  0
   -2.2516    1.7597   -0.9381 H   0  0  0  0  0  0  0  0  0  0  0  0
   -1.9609   -1.3290   -0.7785 H   0  0  0  0  0  0  0  0  0  0  0  0
   -3.9453    0.7836    0.1738 H   0  0  0  0  0  0  0  0  0  0  0  0
   -3.6205   -0.5865    1.3206 H   0  0  0  0  0  0  0  0  0  0  0  0
   -3.8689   -1.8430   -0.7904 H   0  0  0  0  0  0  0  0  0  0  0  0
  1  2  1  0
  2  3  1  0
  3  4  1  0
  4  5  2  0
  4  6  1  0
  6  7  1  0
  7  8  1  0
  8  9  1  0
  9 10  1  0
 10 11  1  0
  9  7  1  0
  1 12  1  0
  1 13  1  0
  1 14  1  0
  2 15  1  0
  3 16  1  0
  3 17  1  0
  6 18  1  0
  7 19  1  1
  8 20  1  0
  8 21  1  0
  9 22  1  6
 10 23  1  0
 10 24  1  0
 11 25  1  0
M  END
$$$$

     RDKit          3D

 25 25  0  0  0  0  0  0  0  0999 V2000
    4.7377   -0.0209    0.6145 C   0  0  0  0  0  0  0  0  0  0  0  0
    3.5454    0.2406   -0.1376 N   0  0  0  0  0  0  0  0  0  0  0  0
    2.3704   -0.2605    0.5617 C   0  0  0  0  0  0  0  0  0  0  0  0
    1.1560    0.0087   -0.2100 C   0  0  0  0  0  0  0  0  0  0  0  0
    1.2370    0.5978   -1.3111 O   0  0  0  0  0  0  0  0  0  0  0  0
   -0.1083   -0.3954    0.2858 N   0  0  0  0  0  0  0  0  0  0  0  0
   -1.3512   -0.1643   -0.4198 C   0  0  1  0  0  0  0  0  0  0  0  0
   -2.4201   -1.2016   -0.3674 C   0  0  0  0  0  0  0  0  0  0  0  0
   -2.5671    0.0715    0.3706 C   0  0  2  0  0  0  0  0  0  0  0  0
   -3.6172    1.0455   -0.1548 C   0  0  0  0  0  0  0  0  0  0  0  0
   -4.6808    1.1098    0.7591 O   0  0  0  0  0  0  0  0  0  0  0  0
    4.4522   -0.3322    1.6353 H   0  0  0  0  0  0  0  0  0  0  0  0
    5.2941   -0.8437    0.0989 H   0  0  0  0  0  0  0  0  0  0  0  0
    5.3827    0.8795    0.7167 H   0  0  0  0  0  0  0  0  0  0  0  0
    3.4403    1.2156   -0.4626 H   0  0  0  0  0  0  0  0  0  0  0  0
    2.3350    0.2340    1.5714 H   0  0  0  0  0  0  0  0  0  0  0  0
    2.5494   -1.3418    0.7494 H   0  0  0  0  0  0  0  0  0  0  0  0
   -0.1450   -0.8845    1.2066 H   0  0  0  0  0  0  0  0  0  0  0  0
   -1.2121    0.3606   -1.3865 H   0  0  0  0  0  0  0  0  0  0  0  0
   -2.3053   -2.1149    0.2504 H   0  0  0  0  0  0  0  0  0  0  0  0
   -3.0267   -1.3401   -1.2681 H   0  0  0  0  0  0  0  0  0  0  0  0
   -2.5498    0.0548    1.4899 H   0  0  0  0  0  0  0  0  0  0  0  0
   -3.2181    2.0604   -0.2714 H   0  0  0  0  0  0  0  0  0  0  0  0
   -4.0158    0.7026   -1.1314 H   0  0  0  0  0  0  0  0  0  0  0  0
   -5.2826    0.3185    0.6818 H   0  0  0  0  0  0  0  0  0  0  0  0
  1  2  1  0
  2  3  1  0
  3  4  1  0
  4  5  2  0
  4  6  1  0
  6  7  1  0
  7  8  1  0
  8  9  1  0
  9 10  1  0
 10 11  1  0
  9  7  1  0
  1 12  1  0
  1 13  1  0
  1 14  1  0
  2 15  1  0
  3 16  1  0
  3 17  1  0
  6 18  1  0
  7 19  1  6
  8 20  1  0
  8 21  1  0
  9 22  1  1
 10 23  1  0
 10 24  1  0
 11 25  1  0
M  END
$$$$

     RDKit          3D

 25 25  0  0  0  0  0  0  0  0999 V2000
    4.6242   -1.1149   -0.0612 C   0  0  0  0  0  0  0  0  0  0  0  0
    3.1955   -1.3756   -0.0742 N   0  0  0  0  0  0  0  0  0  0  0  0
    2.4343   -0.1972    0.2215 C   0  0  0  0  0  0  0  0  0  0  0  0
    0.9781   -0.5466    0.1890 C   0  0  0  0  0  0  0  0  0  0  0  0
    0.6104   -1.7200   -0.0685 O   0  0  0  0  0  0  0  0  0  0  0  0
   -0.0351    0.4126    0.4427 N   0  0  0  0  0  0  0  0  0  0  0  0
   -1.4202    0.0255    0.3993 C   0  0  1  0  0  0  0  0  0  0  0  0
   -2.3991    0.6179    1.3530 C   0  0  0  0  0  0  0  0  0  0  0  0
   -2.4646    0.9463   -0.1123 C   0  0  2  0  0  0  0  0  0  0  0  0
   -3.6711    0.3772   -0.8213 C   0  0  0  0  0  0  0  0  0  0  0  0
   -4.4754    1.4806   -1.1867 O   0  0  0  0  0  0  0  0  0  0  0  0
    4.8948   -0.3046   -0.7652 H   0  0  0  0  0  0  0  0  0  0  0  0
    4.9368   -0.9281    0.9739 H   0  0  0  0  0  0  0  0  0  0  0  0
    5.1091   -2.0642   -0.4031 H   0  0  0  0  0  0  0  0  0  0  0  0
    2.9369   -2.1218    0.5850 H   0  0  0  0  0  0  0  0  0  0  0  0
    2.6936    0.2302    1.1971 H   0  0  0  0  0  0  0  0  0  0  0  0
    2.5626    0.5958   -0.5567 H   0  0  0  0  0  0  0  0  0  0  0  0
    0.2592    1.4013    0.6602 H   0  0  0  0  0  0  0  0  0  0  0  0
   -1.6075   -1.0435    0.1598 H   0  0  0  0  0  0  0  0  0  0  0  0
   -2.0913    1.4782    2.0042 H   0  0  0  0  0  0  0  0  0  0  0  0
   -3.1377   -0.0266    1.8293 H   0  0  0  0  0  0  0  0  0  0  0  0
   -2.1447    1.9533   -0.4631 H   0  0  0  0  0  0  0  0  0  0  0  0
   -4.2912   -0.2155   -0.1231 H   0  0  0  0  0  0  0  0  0  0  0  0
   -3.3947   -0.1905   -1.7310 H   0  0  0  0  0  0  0  0  0  0  0  0
   -4.1029    2.3303   -0.8960 H   0  0  0  0  0  0  0  0  0  0  0  0
  1  2  1  0
  2  3  1  0
  3  4  1  0
  4  5  2  0
  4  6  1  0
  6  7  1  0
  7  8  1  0
  8  9  1  0
  9 10  1  0
 10 11  1  0
  9  7  1  0
  1 12  1  0
  1 13  1  0
  1 14  1  0
  2 15  1  0
  3 16  1  0
  3 17  1  0
  6 18  1  0
  7 19  1  6
  8 20  1  0
  8 21  1  0
  9 22  1  1
 10 23  1  0
 10 24  1  0
 11 25  1  0
M  END
$$$$

     RDKit          3D

 25 25  0  0  0  0  0  0  0  0999 V2000
    3.9301    0.5218   -0.6406 C   0  0  0  0  0  0  0  0  0  0  0  0
    3.3027    1.1428    0.4751 N   0  0  0  0  0  0  0  0  0  0  0  0
    2.2689    0.4028    1.1069 C   0  0  0  0  0  0  0  0  0  0  0  0
    1.0954    0.3171    0.2133 C   0  0  0  0  0  0  0  0  0  0  0  0
    1.1327    0.8713   -0.9133 O   0  0  0  0  0  0  0  0  0  0  0  0
   -0.0871   -0.3885    0.6121 N   0  0  0  0  0  0  0  0  0  0  0  0
   -1.2324   -0.4610   -0.2741 C   0  0  1  0  0  0  0  0  0  0  0  0
   -1.9812   -1.7752   -0.3198 C   0  0  0  0  0  0  0  0  0  0  0  0
   -2.5577   -0.5943    0.3590 C   0  0  2  0  0  0  0  0  0  0  0  0
   -3.7223    0.0918   -0.2981 C   0  0  0  0  0  0  0  0  0  0  0  0
   -3.5327    1.4808   -0.3795 O   0  0  0  0  0  0  0  0  0  0  0  0
    4.7598   -0.1656   -0.3199 H   0  0  0  0  0  0  0  0  0  0  0  0
    4.3823    1.2367   -1.3570 H   0  0  0  0  0  0  0  0  0  0  0  0
    3.2068   -0.1104   -1.1849 H   0  0  0  0  0  0  0  0  0  0  0  0
    3.1870    2.1544    0.4238 H   0  0  0  0  0  0  0  0  0  0  0  0
    2.6352   -0.6599    1.2439 H   0  0  0  0  0  0  0  0  0  0  0  0
    1.9858    0.7788    2.1044 H   0  0  0  0  0  0  0  0  0  0  0  0
   -0.0775   -0.8411    1.5555 H   0  0  0  0  0  0  0  0  0  0  0  0
   -1.1125    0.0805   -1.2363 H   0  0  0  0  0  0  0  0  0  0  0  0
   -2.3397   -2.0848   -1.3123 H   0  0  0  0  0  0  0  0  0  0  0  0
   -1.5711   -2.6408    0.2571 H   0  0  0  0  0  0  0  0  0  0  0  0
   -2.5954   -0.6390    1.4833 H   0  0  0  0  0  0  0  0  0  0  0  0
   -3.8235   -0.3249   -1.3386 H   0  0  0  0  0  0  0  0  0  0  0  0
   -4.6728   -0.0661    0.2422 H   0  0  0  0  0  0  0  0  0  0  0  0
   -2.5807    1.6728   -0.2168 H   0  0  0  0  0  0  0  0  0  0  0  0
  1  2  1  0
  2  3  1  0
  3  4  1  0
  4  5  2  0
  4  6  1  0
  6  7  1  0
  7  8  1  0
  8  9  1  0
  9 10  1  0
 10 11  1  0
  9  7  1  0
  1 12  1  0
  1 13  1  0
  1 14  1  0
  2 15  1  0
  3 16  1  0
  3 17  1  0
  6 18  1  0
  7 19  1  6
  8 20  1  0
  8 21  1  0
  9 22  1  1
 10 23  1  0
 10 24  1  0
 11 25  1  0
M  END
$$$$
