
     RDKit          3D

 23 22  0  0  0  0  0  0  0  0999 V2000
   -1.7081   -0.0677   -1.7861 C   0  0  0  0  0  0  0  0  0  0  0  0
   -1.2614    0.1663   -0.3391 C   0  0  1  0  0  0  0  0  0  0  0  0
   -2.3439   -0.3438    0.5700 C   0  0  0  0  0  0  0  0  0  0  0  0
   -3.5532    0.3986    0.2707 N   0  0  0  0  0  0  0  0  0  0  0  0
   -0.0046   -0.4946   -0.1738 N   0  0  0  0  0  0  0  0  0  0  0  0
    1.2237    0.1480    0.1317 C   0  0  0  0  0  0  0  0  0  0  0  0
    1.1920    1.3948    0.2651 O   0  0  0  0  0  0  0  0  0  0  0  0
    2.5057   -0.5637    0.2961 C   0  0  0  0  0  0  0  0  0  0  0  0
    3.5661    0.4213    0.6080 C   0  0  0  0  0  0  0  0  0  0  0  0
    3.3182    1.6706    0.7005 O   0  0  0  0  0  0  0  0  0  0  0  0
    4.8905    0.0623    0.8198 O   0  0  0  0  0  0  0  0  0  0  0  0
   -1.5084    0.8378   -2.4136 H   0  0  0  0  0  0  0  0  0  0  0  0
   -2.7704   -0.3821   -1.8360 H   0  0  0  0  0  0  0  0  0  0  0  0
   -1.1122   -0.8903   -2.2573 H   0  0  0  0  0  0  0  0  0  0  0  0
   -1.2077    1.2621   -0.2064 H   0  0  0  0  0  0  0  0  0  0  0  0
   -2.5684   -1.4153    0.4179 H   0  0  0  0  0  0  0  0  0  0  0  0
   -2.0806   -0.1050    1.6325 H   0  0  0  0  0  0  0  0  0  0  0  0
   -3.3516    1.3525   -0.1066 H   0  0  0  0  0  0  0  0  0  0  0  0
   -4.1818   -0.0834   -0.3938 H   0  0  0  0  0  0  0  0  0  0  0  0
    0.0205   -1.5315   -0.2849 H   0  0  0  0  0  0  0  0  0  0  0  0
    2.8160   -1.1053   -0.6182 H   0  0  0  0  0  0  0  0  0  0  0  0
    2.4493   -1.3471    1.0984 H   0  0  0  0  0  0  0  0  0  0  0  0
    5.6701    0.6153    0.4622 H   0  0  0  0  0  0  0  0  0  0  0  0
  1  2  1  0
  2  3  1  0
  3  4  1  0
  2  5  1  0
  5  6  1  0
  6  7  2  0
  6  8  1  0
  8  9  1  0
  9 10  2  0
  9 11  1  0
  1 12  1  0
  1 13  1  0
  1 14  1  0
  2 15  1  6
  3 16  1  0
  3 17  1  0
  4 18  1  0
  4 19  1  0
  5 20  1  0
  8 21  1  0
  8 22  1  0
 11 23  1  0
M  END
$$$$

     RDKit          3D

 23 22  0  0  0  0  0  0  0  0999 V2000
   -1.9869   -1.0793   -0.9370 C   0  0  0  0  0  0  0  0  0  0  0  0
   -1.1672    0.0614   -0.3409 C   0  0  1  0  0  0  0  0  0  0  0  0
   -2.0707    0.9086    0.5391 C   0  0  0  0  0  0  0  0  0  0  0  0
   -3.1670    1.4571   -0.2605 N   0  0  0  0  0  0  0  0  0  0  0  0
   -0.0685   -0.5120    0.4013 N   0  0  0  0  0  0  0  0  0  0  0  0
    1.2599   -0.2265   -0.0478 C   0  0  0  0  0  0  0  0  0  0  0  0
    1.4572    0.4949   -1.0592 O   0  0  0  0  0  0  0  0  0  0  0  0
    2.3950   -0.7817    0.6825 C   0  0  0  0  0  0  0  0  0  0  0  0
    3.6450   -0.4492   -0.0257 C   0  0  0  0  0  0  0  0  0  0  0  0
    4.1976   -1.2955   -0.7831 O   0  0  0  0  0  0  0  0  0  0  0  0
    4.2267    0.8042    0.1335 O   0  0  0  0  0  0  0  0  0  0  0  0
   -1.6950   -2.0441   -0.5139 H   0  0  0  0  0  0  0  0  0  0  0  0
   -3.0681   -0.9306   -0.6734 H   0  0  0  0  0  0  0  0  0  0  0  0
   -1.8907   -1.0278   -2.0330 H   0  0  0  0  0  0  0  0  0  0  0  0
   -0.7739    0.7144   -1.1579 H   0  0  0  0  0  0  0  0  0  0  0  0
   -1.4921    1.7382    0.9957 H   0  0  0  0  0  0  0  0  0  0  0  0
   -2.4823    0.2669    1.3628 H   0  0  0  0  0  0  0  0  0  0  0  0
   -3.6180    2.2723    0.1832 H   0  0  0  0  0  0  0  0  0  0  0  0
   -2.8018    1.6727   -1.2302 H   0  0  0  0  0  0  0  0  0  0  0  0
   -0.2618   -1.1017    1.2154 H   0  0  0  0  0  0  0  0  0  0  0  0
    2.4773   -0.3584    1.7166 H   0  0  0  0  0  0  0  0  0  0  0  0
    2.2722   -1.8776    0.8052 H   0  0  0  0  0  0  0  0  0  0  0  0
    4.6131    1.2932   -0.6790 H   0  0  0  0  0  0  0  0  0  0  0  0
  1  2  1  0
  2  3  1  0
  3  4  1  0
  2  5  1  0
  5  6  1  0
  6  7  2  0
  6  8  1  0
  8  9  1  0
  9 10  2  0
  9 11  1  0
  1 12  1  0
  1 13  1  0
  1 14  1  0
  2 15  1  6
  3 16  1  0
  3 17  1  0
  4 18  1  0
  4 19  1  0
  5 20  1  0
  8 21  1  0
  8 22  1  0
 11 23  1  0
M  END
$$$$

     RDKit          3D

 23 22  0  0  0  0  0  0  0  0999 V2000
   -2.1837    1.5603   -0.2852 C   0  0  0  0  0  0  0  0  0  0  0  0
   -1.4346    0.2646   -0.0568 C   0  0  1  0  0  0  0  0  0  0  0  0
   -2.2644   -0.8292   -0.6526 C   0  0  0  0  0  0  0  0  0  0  0  0
   -1.6195   -2.0920   -0.4775 N   0  0  0  0  0  0  0  0  0  0  0  0
   -0.0839    0.3012   -0.4881 N   0  0  0  0  0  0  0  0  0  0  0  0
    1.0518    0.1097    0.3324 C   0  0  0  0  0  0  0  0  0  0  0  0
    0.8308   -0.1123    1.5487 O   0  0  0  0  0  0  0  0  0  0  0  0
    2.4484    0.1714   -0.2350 C   0  0  0  0  0  0  0  0  0  0  0  0
    3.4473   -0.0769    0.8341 C   0  0  0  0  0  0  0  0  0  0  0  0
    3.6540   -1.2478    1.2396 O   0  0  0  0  0  0  0  0  0  0  0  0
    4.1811    0.9449    1.4207 O   0  0  0  0  0  0  0  0  0  0  0  0
   -2.9331    1.6844    0.5221 H   0  0  0  0  0  0  0  0  0  0  0  0
   -2.7716    1.5273   -1.2313 H   0  0  0  0  0  0  0  0  0  0  0  0
   -1.5136    2.4362   -0.2542 H   0  0  0  0  0  0  0  0  0  0  0  0
   -1.4422    0.0873    1.0570 H   0  0  0  0  0  0  0  0  0  0  0  0
   -2.5716   -0.6788   -1.6823 H   0  0  0  0  0  0  0  0  0  0  0  0
   -3.2125   -0.8602   -0.0372 H   0  0  0  0  0  0  0  0  0  0  0  0
   -1.9020   -2.8278   -1.1594 H   0  0  0  0  0  0  0  0  0  0  0  0
   -1.5052   -2.4034    0.4895 H   0  0  0  0  0  0  0  0  0  0  0  0
    0.0906    0.4879   -1.5141 H   0  0  0  0  0  0  0  0  0  0  0  0
    2.5589   -0.5139   -1.1018 H   0  0  0  0  0  0  0  0  0  0  0  0
    2.5822    1.2069   -0.6238 H   0  0  0  0  0  0  0  0  0  0  0  0
    4.5928    0.8603    2.3553 H   0  0  0  0  0  0  0  0  0  0  0  0
  1  2  1  0
  2  3  1  0
  3  4  1  0
  2  5  1  0
  5  6  1  0
  6  7  2  0
  6  8  1  0
  8  9  1  0
  9 10  2  0
  9 11  1  0
  1 12  1  0
  1 13  1  0
  1 14  1  0
  2 15  1  1
  3 16  1  0
  3 17  1  0
  4 18  1  0
  4 19  1  0
  5 20  1  0
  8 21  1  0
  8 22  1  0
 11 23  1  0
M  END
$$$$

     RDKit          3D

 23 22  0  0  0  0  0  0  0  0999 V2000
   -2.0184   -1.9384    0.2612 C   0  0  0  0  0  0  0  0  0  0  0  0
   -1.4442   -0.5930   -0.1651 C   0  0  1  0  0  0  0  0  0  0  0  0
   -2.3827    0.4856    0.3143 C   0  0  0  0  0  0  0  0  0  0  0  0
   -1.9291    1.8007   -0.0391 N   0  0  0  0  0  0  0  0  0  0  0  0
   -0.1531   -0.3468    0.4628 N   0  0  0  0  0  0  0  0  0  0  0  0
    1.0174   -0.0826   -0.2971 C   0  0  0  0  0  0  0  0  0  0  0  0
    0.9217   -0.0637   -1.5523 O   0  0  0  0  0  0  0  0  0  0  0  0
    2.3091    0.1614    0.4085 C   0  0  0  0  0  0  0  0  0  0  0  0
    3.4009    0.4167   -0.5890 C   0  0  0  0  0  0  0  0  0  0  0  0
    3.1580    0.4047   -1.8209 O   0  0  0  0  0  0  0  0  0  0  0  0
    4.6879    0.6678   -0.1458 O   0  0  0  0  0  0  0  0  0  0  0  0
   -2.8990   -1.8036    0.9053 H   0  0  0  0  0  0  0  0  0  0  0  0
   -2.3373   -2.5214   -0.6271 H   0  0  0  0  0  0  0  0  0  0  0  0
   -1.2789   -2.5302    0.8179 H   0  0  0  0  0  0  0  0  0  0  0  0
   -1.3391   -0.5376   -1.2693 H   0  0  0  0  0  0  0  0  0  0  0  0
   -2.5461    0.3970    1.3982 H   0  0  0  0  0  0  0  0  0  0  0  0
   -3.3867    0.3500   -0.1732 H   0  0  0  0  0  0  0  0  0  0  0  0
   -2.6814    2.4969    0.0368 H   0  0  0  0  0  0  0  0  0  0  0  0
   -1.0862    2.0064    0.5466 H   0  0  0  0  0  0  0  0  0  0  0  0
   -0.0869   -0.3651    1.5025 H   0  0  0  0  0  0  0  0  0  0  0  0
    2.5740   -0.7160    1.0112 H   0  0  0  0  0  0  0  0  0  0  0  0
    2.1961    1.0217    1.0891 H   0  0  0  0  0  0  0  0  0  0  0  0
    5.3041    1.2897   -0.6677 H   0  0  0  0  0  0  0  0  0  0  0  0
  1  2  1  0
  2  3  1  0
  3  4  1  0
  2  5  1  0
  5  6  1  0
  6  7  2  0
  6  8  1  0
  8  9  1  0
  9 10  2  0
  9 11  1  0
  1 12  1  0
  1 13  1  0
  1 14  1  0
  2 15  1  6
  3 16  1  0
  3 17  1  0
  4 18  1  0
  4 19  1  0
  5 20  1  0
  8 21  1  0
  8 22  1  0
 11 23  1  0
M  END
$$$$

     RDKit          3D

 23 22  0  0  0  0  0  0  0  0999 V2000
   -2.2411    1.1314    0.9989 C   0  0  0  0  0  0  0  0  0  0  0  0
   -1.4329    0.0878    0.2857 C   0  0  1  0  0  0  0  0  0  0  0  0
   -2.2916   -0.4323   -0.8624 C   0  0  0  0  0  0  0  0  0  0  0  0
   -1.6100   -1.4509   -1.6258 N   0  0  0  0  0  0  0  0  0  0  0  0
   -0.1520    0.5482   -0.1482 N   0  0  0  0  0  0  0  0  0  0  0  0
    1.0525   -0.0262    0.2642 C   0  0  0  0  0  0  0  0  0  0  0  0
    1.0136   -1.0017    1.0602 O   0  0  0  0  0  0  0  0  0  0  0  0
    2.3956    0.4274   -0.1668 C   0  0  0  0  0  0  0  0  0  0  0  0
    3.4858   -0.3506    0.4142 C   0  0  0  0  0  0  0  0  0  0  0  0
    3.8070   -1.4972    0.0019 O   0  0  0  0  0  0  0  0  0  0  0  0
    4.2271    0.1633    1.4722 O   0  0  0  0  0  0  0  0  0  0  0  0
   -1.6220    1.7467    1.6874 H   0  0  0  0  0  0  0  0  0  0  0  0
   -2.9784    0.6019    1.6396 H   0  0  0  0  0  0  0  0  0  0  0  0
   -2.8500    1.7649    0.3078 H   0  0  0  0  0  0  0  0  0  0  0  0
   -1.3219   -0.7792    0.9834 H   0  0  0  0  0  0  0  0  0  0  0  0
   -3.1859   -0.9112   -0.3920 H   0  0  0  0  0  0  0  0  0  0  0  0
   -2.6516    0.4063   -1.4602 H   0  0  0  0  0  0  0  0  0  0  0  0
   -2.2329   -2.2302   -1.8808 H   0  0  0  0  0  0  0  0  0  0  0  0
   -0.9930   -1.1009   -2.3608 H   0  0  0  0  0  0  0  0  0  0  0  0
   -0.1198    1.3565   -0.8083 H   0  0  0  0  0  0  0  0  0  0  0  0
    2.4893    1.4965    0.1509 H   0  0  0  0  0  0  0  0  0  0  0  0
    2.4620    0.4376   -1.2743 H   0  0  0  0  0  0  0  0  0  0  0  0
    4.7502   -0.3881    2.1200 H   0  0  0  0  0  0  0  0  0  0  0  0
  1  2  1  0
  2  3  1  0
  3  4  1  0
  2  5  1  0
  5  6  1  0
  6  7  2  0
  6  8  1  0
  8  9  1  0
  9 10  2  0
  9 11  1  0
  1 12  1  0
  1 13  1  0
  1 14  1  0
  2 15  1  1
  3 16  1  0
  3 17  1  0
  4 18  1  0
  4 19  1  0
  5 20  1  0
  8 21  1  0
  8 22  1  0
 11 23  1  0
M  END
$$$$

     RDKit          3D

 23 22  0  0  0  0  0  0  0  0999 V2000
   -1.8158   -0.3412   -1.7313 C   0  0  0  0  0  0  0  0  0  0  0  0
   -1.1483    0.3753   -0.5648 C   0  0  1  0  0  0  0  0  0  0  0  0
   -2.1847    0.4471    0.5634 C   0  0  0  0  0  0  0  0  0  0  0  0
   -3.3656    1.1642    0.1447 N   0  0  0  0  0  0  0  0  0  0  0  0
   -0.0772   -0.4519   -0.0679 N   0  0  0  0  0  0  0  0  0  0  0  0
    1.2670   -0.0300    0.0663 C   0  0  0  0  0  0  0  0  0  0  0  0
    1.5970    1.1288   -0.2567 O   0  0  0  0  0  0  0  0  0  0  0  0
    2.2850   -0.9573    0.5873 C   0  0  0  0  0  0  0  0  0  0  0  0
    3.6219   -0.3797    0.7297 C   0  0  0  0  0  0  0  0  0  0  0  0
    4.3555   -0.6806    1.7274 O   0  0  0  0  0  0  0  0  0  0  0  0
    4.1707    0.5069   -0.1794 O   0  0  0  0  0  0  0  0  0  0  0  0
   -2.4462    0.3524   -2.2850 H   0  0  0  0  0  0  0  0  0  0  0  0
   -1.0340   -0.8052   -2.3814 H   0  0  0  0  0  0  0  0  0  0  0  0
   -2.3976   -1.1836   -1.2857 H   0  0  0  0  0  0  0  0  0  0  0  0
   -0.8245    1.3690   -0.8609 H   0  0  0  0  0  0  0  0  0  0  0  0
   -2.4386   -0.5871    0.8549 H   0  0  0  0  0  0  0  0  0  0  0  0
   -1.7419    0.9695    1.4411 H   0  0  0  0  0  0  0  0  0  0  0  0
   -3.7552    0.6465   -0.6788 H   0  0  0  0  0  0  0  0  0  0  0  0
   -3.1296    2.1484   -0.0454 H   0  0  0  0  0  0  0  0  0  0  0  0
   -0.3156   -1.4228    0.2049 H   0  0  0  0  0  0  0  0  0  0  0  0
    2.3464   -1.8295   -0.1193 H   0  0  0  0  0  0  0  0  0  0  0  0
    1.9280   -1.3466    1.5819 H   0  0  0  0  0  0  0  0  0  0  0  0
    5.1031    0.9073   -0.0730 H   0  0  0  0  0  0  0  0  0  0  0  0
  1  2  1  0
  2  3  1  0
  3  4  1  0
  2  5  1  0
  5  6  1  0
  6  7  2  0
  6  8  1  0
  8  9  1  0
  9 10  2  0
  9 11  1  0
  1 12  1  0
  1 13  1  0
  1 14  1  0
  2 15  1  6
  3 16  1  0
  3 17  1  0
  4 18  1  0
  4 19  1  0
  5 20  1  0
  8 21  1  0
  8 22  1  0
 11 23  1  0
M  END
$$$$

     RDKit          3D

 23 22  0  0  0  0  0  0  0  0999 V2000
   -2.0146   -0.5640    1.4407 C   0  0  0  0  0  0  0  0  0  0  0  0
   -1.3757   -0.6748    0.0569 C   0  0  1  0  0  0  0  0  0  0  0  0
   -2.3501   -0.2140   -1.0093 C   0  0  0  0  0  0  0  0  0  0  0  0
   -2.6833    1.1634   -0.7239 N   0  0  0  0  0  0  0  0  0  0  0  0
   -0.2161    0.2127    0.0737 N   0  0  0  0  0  0  0  0  0  0  0  0
    1.0957   -0.3065   -0.0966 C   0  0  0  0  0  0  0  0  0  0  0  0
    1.2908   -1.5550   -0.2676 O   0  0  0  0  0  0  0  0  0  0  0  0
    2.2445    0.6170   -0.0745 C   0  0  0  0  0  0  0  0  0  0  0  0
    3.5075   -0.1405   -0.2704 C   0  0  0  0  0  0  0  0  0  0  0  0
    3.4640   -1.4006   -0.4233 O   0  0  0  0  0  0  0  0  0  0  0  0
    4.7434    0.4636   -0.2951 O   0  0  0  0  0  0  0  0  0  0  0  0
   -1.8405    0.4486    1.8360 H   0  0  0  0  0  0  0  0  0  0  0  0
   -3.0760   -0.8669    1.4291 H   0  0  0  0  0  0  0  0  0  0  0  0
   -1.4380   -1.2613    2.0960 H   0  0  0  0  0  0  0  0  0  0  0  0
   -1.0360   -1.7073   -0.0986 H   0  0  0  0  0  0  0  0  0  0  0  0
   -3.2206   -0.8827   -1.0206 H   0  0  0  0  0  0  0  0  0  0  0  0
   -1.8478   -0.2572   -1.9804 H   0  0  0  0  0  0  0  0  0  0  0  0
   -2.1480    1.8463   -1.2722 H   0  0  0  0  0  0  0  0  0  0  0  0
   -2.7912    1.3739    0.2738 H   0  0  0  0  0  0  0  0  0  0  0  0
   -0.3193    1.2411    0.2100 H   0  0  0  0  0  0  0  0  0  0  0  0
    2.2910    1.0832    0.9422 H   0  0  0  0  0  0  0  0  0  0  0  0
    2.1560    1.4067   -0.8523 H   0  0  0  0  0  0  0  0  0  0  0  0
    5.5641   -0.0256    0.0263 H   0  0  0  0  0  0  0  0  0  0  0  0
  1  2  1  0
  2  3  1  0
  3  4  1  0
  2  5  1  0
  5  6  1  0
  6  7  2  0
  6  8  1  0
  8  9  1  0
  9 10  2  0
  9 11  1  0
  1 12  1  0
  1 13  1  0
  1 14  1  0
  2 15  1  6
  3 16  1  0
  3 17  1  0
  4 18  1  0
  4 19  1  0
  5 20  1  0
  8 21  1  0
  8 22  1  0
 11 23  1  0
M  END
$$$$

     RDKit          3D

 23 22  0  0  0  0  0  0  0  0999 V2000
   -2.2384   -1.4288    0.7646 C   0  0  0  0  0  0  0  0  0  0  0  0
   -1.4774   -0.4037   -0.0352 C   0  0  1  0  0  0  0  0  0  0  0  0
   -2.2688    0.8607   -0.1010 C   0  0  0  0  0  0  0  0  0  0  0  0
   -1.5446    1.8506   -0.8675 N   0  0  0  0  0  0  0  0  0  0  0  0
   -0.1911   -0.1177    0.5967 N   0  0  0  0  0  0  0  0  0  0  0  0
    1.0452   -0.3400   -0.0684 C   0  0  0  0  0  0  0  0  0  0  0  0
    0.9916   -0.7985   -1.2376 O   0  0  0  0  0  0  0  0  0  0  0  0
    2.3273   -0.0341    0.6155 C   0  0  0  0  0  0  0  0  0  0  0  0
    3.4821   -0.3326   -0.2369 C   0  0  0  0  0  0  0  0  0  0  0  0
    3.8117   -1.5465   -0.4128 O   0  0  0  0  0  0  0  0  0  0  0  0
    4.2323    0.6321   -0.8600 O   0  0  0  0  0  0  0  0  0  0  0  0
   -1.9025   -1.4034    1.8354 H   0  0  0  0  0  0  0  0  0  0  0  0
   -1.9676   -2.4587    0.4103 H   0  0  0  0  0  0  0  0  0  0  0  0
   -3.3313   -1.2352    0.6924 H   0  0  0  0  0  0  0  0  0  0  0  0
   -1.3426   -0.7968   -1.0584 H   0  0  0  0  0  0  0  0  0  0  0  0
   -3.2560    0.6807   -0.5707 H   0  0  0  0  0  0  0  0  0  0  0  0
   -2.4663    1.3039    0.8907 H   0  0  0  0  0  0  0  0  0  0  0  0
   -1.4021    1.5781   -1.8656 H   0  0  0  0  0  0  0  0  0  0  0  0
   -2.0639    2.7628   -0.7816 H   0  0  0  0  0  0  0  0  0  0  0  0
   -0.1521    0.2625    1.5657 H   0  0  0  0  0  0  0  0  0  0  0  0
    2.3377    1.0636    0.8302 H   0  0  0  0  0  0  0  0  0  0  0  0
    2.3853   -0.5374    1.5925 H   0  0  0  0  0  0  0  0  0  0  0  0
    4.9913    0.4382   -1.5052 H   0  0  0  0  0  0  0  0  0  0  0  0
  1  2  1  0
  2  3  1  0
  3  4  1  0
  2  5  1  0
  5  6  1  0
  6  7  2  0
  6  8  1  0
  8  9  1  0
  9 10  2  0
  9 11  1  0
  1 12  1  0
  1 13  1  0
  1 14  1  0
  2 15  1  6
  3 16  1  0
  3 17  1  0
  4 18  1  0
  4 19  1  0
  5 20  1  0
  8 21  1  0
  8 22  1  0
 11 23  1  0
M  END
$$$$
