
     RDKit          3D

 25 24  0  0  0  0  0  0  0  0999 V2000
   -4.9712   -0.7666    0.3162 C   0  0  0  0  0  0  0  0  0  0  0  0
   -3.8774    0.1279    0.6443 N   0  0  0  0  0  0  0  0  0  0  0  0
   -2.5205   -0.2894    0.5641 C   0  0  0  0  0  0  0  0  0  0  0  0
   -2.3148   -1.4661    0.1948 O   0  0  0  0  0  0  0  0  0  0  0  0
   -1.4471    0.5097    0.8631 O   0  0  0  0  0  0  0  0  0  0  0  0
   -0.0864    0.1537    0.7951 C   0  0  0  0  0  0  0  0  0  0  0  0
    0.2552   -0.1905   -0.6182 C   0  0  0  0  0  0  0  0  0  0  0  0
    1.6480   -0.5602   -0.7314 N   0  0  0  0  0  0  0  0  0  0  0  0
    2.5247    0.5421   -0.5137 C   0  0  0  0  0  0  0  0  0  0  0  0
    3.9524    0.0880   -0.6670 C   0  0  0  0  0  0  0  0  0  0  0  0
    4.9761    1.0477   -0.4894 N   0  0  0  0  0  0  0  0  0  0  0  0
    4.1936   -1.0920   -0.9412 O   0  0  0  0  0  0  0  0  0  0  0  0
   -5.0223   -0.9719   -0.7730 H   0  0  0  0  0  0  0  0  0  0  0  0
   -5.9414   -0.3996    0.7015 H   0  0  0  0  0  0  0  0  0  0  0  0
   -4.7640   -1.7708    0.7883 H   0  0  0  0  0  0  0  0  0  0  0  0
   -4.1032    1.0995    0.9461 H   0  0  0  0  0  0  0  0  0  0  0  0
    0.5701    0.9353    1.2312 H   0  0  0  0  0  0  0  0  0  0  0  0
    0.0734   -0.7868    1.4019 H   0  0  0  0  0  0  0  0  0  0  0  0
   -0.3896   -1.0270   -0.9425 H   0  0  0  0  0  0  0  0  0  0  0  0
    0.0032    0.6552   -1.2999 H   0  0  0  0  0  0  0  0  0  0  0  0
    1.8105   -1.3087    0.0056 H   0  0  0  0  0  0  0  0  0  0  0  0
    2.2643    1.3587   -1.1881 H   0  0  0  0  0  0  0  0  0  0  0  0
    2.4697    0.8805    0.5513 H   0  0  0  0  0  0  0  0  0  0  0  0
    5.1874    1.7358   -1.2327 H   0  0  0  0  0  0  0  0  0  0  0  0
    5.5092    1.0553    0.3934 H   0  0  0  0  0  0  0  0  0  0  0  0
  1  2  1  0
  2  3  1  0
  3  4  2  0
  3  5  1  0
  5  6  1  0
  6  7  1  0
  7  8  1  0
  8  9  1  0
  9 10  1  0
 10 11  1  0
 10 12  2  0
  1 13  1  0
  1 14  1  0
  1 15  1  0
  2 16  1  0
  6 17  1  0
  6 18  1  0
  7 19  1  0
  7 20  1  0
  8 21  1  0
  9 22  1  0
  9 23  1  0
 11 24  1  0
 11 25  1  0
M  END
$$$$

     RDKit          3D

 25 24  0  0  0  0  0  0  0  0999 V2000
    4.3634    1.6689   -0.3368 C   0  0  0  0  0  0  0  0  0  0  0  0
    3.7965    0.3301   -0.3688 N   0  0  0  0  0  0  0  0  0  0  0  0
    2.4685    0.0504    0.0623 C   0  0  0  0  0  0  0  0  0  0  0  0
    1.7743    0.9911    0.4768 O   0  0  0  0  0  0  0  0  0  0  0  0
    1.9141   -1.2012    0.0464 O   0  0  0  0  0  0  0  0  0  0  0  0
    0.6336   -1.5448    0.4532 C   0  0  0  0  0  0  0  0  0  0  0  0
   -0.4953   -0.8778   -0.2908 C   0  0  0  0  0  0  0  0  0  0  0  0
   -1.7217   -1.3745    0.2908 N   0  0  0  0  0  0  0  0  0  0  0  0
   -2.9210   -0.8676   -0.2735 C   0  0  0  0  0  0  0  0  0  0  0  0
   -3.1541    0.5668    0.0091 C   0  0  0  0  0  0  0  0  0  0  0  0
   -4.3151    1.2167   -0.4944 N   0  0  0  0  0  0  0  0  0  0  0  0
   -2.3716    1.2748    0.6856 O   0  0  0  0  0  0  0  0  0  0  0  0
    4.2905    1.9815    0.7459 H   0  0  0  0  0  0  0  0  0  0  0  0
    3.7688    2.3850   -0.8977 H   0  0  0  0  0  0  0  0  0  0  0  0
    5.4372    1.6396   -0.6266 H   0  0  0  0  0  0  0  0  0  0  0  0
    4.3556   -0.4646   -0.7113 H   0  0  0  0  0  0  0  0  0  0  0  0
    0.5340   -1.1954    1.5226 H   0  0  0  0  0  0  0  0  0  0  0  0
    0.4444   -2.6218    0.4846 H   0  0  0  0  0  0  0  0  0  0  0  0
   -0.4747   -1.1228   -1.3804 H   0  0  0  0  0  0  0  0  0  0  0  0
   -0.4791    0.2145   -0.1126 H   0  0  0  0  0  0  0  0  0  0  0  0
   -1.6977   -1.5223    1.3000 H   0  0  0  0  0  0  0  0  0  0  0  0
   -3.7784   -1.5009    0.0420 H   0  0  0  0  0  0  0  0  0  0  0  0
   -2.8486   -0.9628   -1.3871 H   0  0  0  0  0  0  0  0  0  0  0  0
   -4.2457    2.0853   -1.0659 H   0  0  0  0  0  0  0  0  0  0  0  0
   -5.2776    0.8516   -0.3143 H   0  0  0  0  0  0  0  0  0  0  0  0
  1  2  1  0
  2  3  1  0
  3  4  2  0
  3  5  1  0
  5  6  1  0
  6  7  1  0
  7  8  1  0
  8  9  1  0
  9 10  1  0
 10 11  1  0
 10 12  2  0
  1 13  1  0
  1 14  1  0
  1 15  1  0
  2 16  1  0
  6 17  1  0
  6 18  1  0
  7 19  1  0
  7 20  1  0
  8 21  1  0
  9 22  1  0
  9 23  1  0
 11 24  1  0
 11 25  1  0
M  END
$$$$

     RDKit          3D

 25 24  0  0  0  0  0  0  0  0999 V2000
    4.1262   -0.8788   -1.5096 C   0  0  0  0  0  0  0  0  0  0  0  0
    3.3517    0.1825   -0.9018 N   0  0  0  0  0  0  0  0  0  0  0  0
    2.3810   -0.0240    0.1302 C   0  0  0  0  0  0  0  0  0  0  0  0
    2.2044   -1.1987    0.5136 O   0  0  0  0  0  0  0  0  0  0  0  0
    1.6601    0.9939    0.6952 O   0  0  0  0  0  0  0  0  0  0  0  0
    0.7130    0.8323    1.7137 C   0  0  0  0  0  0  0  0  0  0  0  0
   -0.4488   -0.0325    1.4159 C   0  0  0  0  0  0  0  0  0  0  0  0
   -1.2601    0.4272    0.2999 N   0  0  0  0  0  0  0  0  0  0  0  0
   -2.4557   -0.4304    0.2849 C   0  0  0  0  0  0  0  0  0  0  0  0
   -3.4121   -0.0195   -0.7695 C   0  0  0  0  0  0  0  0  0  0  0  0
   -4.6539   -0.6661   -0.9795 N   0  0  0  0  0  0  0  0  0  0  0  0
   -3.1045    0.9458   -1.5043 O   0  0  0  0  0  0  0  0  0  0  0  0
    4.1545   -1.7848   -0.8736 H   0  0  0  0  0  0  0  0  0  0  0  0
    3.7776   -1.1459   -2.5338 H   0  0  0  0  0  0  0  0  0  0  0  0
    5.2027   -0.5500   -1.6395 H   0  0  0  0  0  0  0  0  0  0  0  0
    3.4946    1.1844   -1.2151 H   0  0  0  0  0  0  0  0  0  0  0  0
    0.3599    1.8510    2.0800 H   0  0  0  0  0  0  0  0  0  0  0  0
    1.1978    0.4200    2.6482 H   0  0  0  0  0  0  0  0  0  0  0  0
   -0.0936   -1.0887    1.1989 H   0  0  0  0  0  0  0  0  0  0  0  0
   -1.1035   -0.1050    2.2994 H   0  0  0  0  0  0  0  0  0  0  0  0
   -0.7015    0.1423   -0.5490 H   0  0  0  0  0  0  0  0  0  0  0  0
   -2.1658   -1.4853    0.0423 H   0  0  0  0  0  0  0  0  0  0  0  0
   -2.9796   -0.3953    1.2667 H   0  0  0  0  0  0  0  0  0  0  0  0
   -5.4651   -0.1535   -1.3905 H   0  0  0  0  0  0  0  0  0  0  0  0
   -4.7795   -1.6663   -0.7227 H   0  0  0  0  0  0  0  0  0  0  0  0
  1  2  1  0
  2  3  1  0
  3  4  2  0
  3  5  1  0
  5  6  1  0
  6  7  1  0
  7  8  1  0
  8  9  1  0
  9 10  1  0
 10 11  1  0
 10 12  2  0
  1 13  1  0
  1 14  1  0
  1 15  1  0
  2 16  1  0
  6 17  1  0
  6 18  1  0
  7 19  1  0
  7 20  1  0
  8 21  1  0
  9 22  1  0
  9 23  1  0
 11 24  1  0
 11 25  1  0
M  END
$$$$

     RDKit          3D

 25 24  0  0  0  0  0  0  0  0999 V2000
    5.1349    0.4668   -0.1375 C   0  0  0  0  0  0  0  0  0  0  0  0
    3.8815   -0.2931   -0.1249 N   0  0  0  0  0  0  0  0  0  0  0  0
    2.6374    0.3547    0.0478 C   0  0  0  0  0  0  0  0  0  0  0  0
    2.5612    1.5964    0.1944 O   0  0  0  0  0  0  0  0  0  0  0  0
    1.5075   -0.4162    0.0509 O   0  0  0  0  0  0  0  0  0  0  0  0
    0.1914    0.1267    0.2175 C   0  0  0  0  0  0  0  0  0  0  0  0
   -0.7355   -1.0886    0.1649 C   0  0  0  0  0  0  0  0  0  0  0  0
   -2.0819   -0.6433    0.3259 N   0  0  0  0  0  0  0  0  0  0  0  0
   -2.5696    0.1248   -0.7859 C   0  0  0  0  0  0  0  0  0  0  0  0
   -3.9636    0.5281   -0.5112 C   0  0  0  0  0  0  0  0  0  0  0  0
   -4.5711    0.1393    0.7037 N   0  0  0  0  0  0  0  0  0  0  0  0
   -4.5642    1.2062   -1.3707 O   0  0  0  0  0  0  0  0  0  0  0  0
    5.9822   -0.2628   -0.2991 H   0  0  0  0  0  0  0  0  0  0  0  0
    5.1737    1.1863   -0.9764 H   0  0  0  0  0  0  0  0  0  0  0  0
    5.3067    0.9308    0.8444 H   0  0  0  0  0  0  0  0  0  0  0  0
    3.9023   -1.3353   -0.2459 H   0  0  0  0  0  0  0  0  0  0  0  0
    0.0794    0.6185    1.1953 H   0  0  0  0  0  0  0  0  0  0  0  0
    0.0304    0.7879   -0.6388 H   0  0  0  0  0  0  0  0  0  0  0  0
   -0.5841   -1.5707   -0.8205 H   0  0  0  0  0  0  0  0  0  0  0  0
   -0.5003   -1.7954    0.9798 H   0  0  0  0  0  0  0  0  0  0  0  0
   -2.7356   -1.4051    0.6059 H   0  0  0  0  0  0  0  0  0  0  0  0
   -1.9819    1.0726   -0.9078 H   0  0  0  0  0  0  0  0  0  0  0  0
   -2.5291   -0.4207   -1.7544 H   0  0  0  0  0  0  0  0  0  0  0  0
   -4.9592   -0.7951    0.8927 H   0  0  0  0  0  0  0  0  0  0  0  0
   -4.6124    0.8872    1.4488 H   0  0  0  0  0  0  0  0  0  0  0  0
  1  2  1  0
  2  3  1  0
  3  4  2  0
  3  5  1  0
  5  6  1  0
  6  7  1  0
  7  8  1  0
  8  9  1  0
  9 10  1  0
 10 11  1  0
 10 12  2  0
  1 13  1  0
  1 14  1  0
  1 15  1  0
  2 16  1  0
  6 17  1  0
  6 18  1  0
  7 19  1  0
  7 20  1  0
  8 21  1  0
  9 22  1  0
  9 23  1  0
 11 24  1  0
 11 25  1  0
M  END
$$$$

     RDKit          3D

 25 24  0  0  0  0  0  0  0  0999 V2000
   -4.7650   -1.0391    0.0315 C   0  0  0  0  0  0  0  0  0  0  0  0
   -3.6438   -0.5245    0.8254 N   0  0  0  0  0  0  0  0  0  0  0  0
   -2.4941    0.0426    0.1796 C   0  0  0  0  0  0  0  0  0  0  0  0
   -2.5249    0.0600   -1.0653 O   0  0  0  0  0  0  0  0  0  0  0  0
   -1.4130    0.5435    0.8317 O   0  0  0  0  0  0  0  0  0  0  0  0
   -0.2560    1.1138    0.2521 C   0  0  0  0  0  0  0  0  0  0  0  0
    0.4253    0.1134   -0.5857 C   0  0  0  0  0  0  0  0  0  0  0  0
    1.6064    0.4980   -1.2499 N   0  0  0  0  0  0  0  0  0  0  0  0
    2.7683    0.7687   -0.5206 C   0  0  0  0  0  0  0  0  0  0  0  0
    3.3963   -0.4135    0.1534 C   0  0  0  0  0  0  0  0  0  0  0  0
    4.5794   -0.1936    0.9036 N   0  0  0  0  0  0  0  0  0  0  0  0
    2.8572   -1.5317    0.0291 O   0  0  0  0  0  0  0  0  0  0  0  0
   -4.3879   -1.2201   -1.0007 H   0  0  0  0  0  0  0  0  0  0  0  0
   -5.2125   -1.9171    0.4974 H   0  0  0  0  0  0  0  0  0  0  0  0
   -5.5354   -0.2367   -0.0009 H   0  0  0  0  0  0  0  0  0  0  0  0
   -3.6466   -0.5541    1.8642 H   0  0  0  0  0  0  0  0  0  0  0  0
    0.3530    1.4684    1.1255 H   0  0  0  0  0  0  0  0  0  0  0  0
   -0.6313    2.0074   -0.3280 H   0  0  0  0  0  0  0  0  0  0  0  0
    0.6221   -0.7963    0.0536 H   0  0  0  0  0  0  0  0  0  0  0  0
   -0.2820   -0.2587   -1.3537 H   0  0  0  0  0  0  0  0  0  0  0  0
    1.8360   -0.2504   -1.9674 H   0  0  0  0  0  0  0  0  0  0  0  0
    2.7308    1.5687    0.2164 H   0  0  0  0  0  0  0  0  0  0  0  0
    3.5580    1.0934   -1.2684 H   0  0  0  0  0  0  0  0  0  0  0  0
    4.9220    0.7538    1.1543 H   0  0  0  0  0  0  0  0  0  0  0  0
    5.1375   -1.0061    1.2226 H   0  0  0  0  0  0  0  0  0  0  0  0
  1  2  1  0
  2  3  1  0
  3  4  2  0
  3  5  1  0
  5  6  1  0
  6  7  1  0
  7  8  1  0
  8  9  1  0
  9 10  1  0
 10 11  1  0
 10 12  2  0
  1 13  1  0
  1 14  1  0
  1 15  1  0
  2 16  1  0
  6 17  1  0
  6 18  1  0
  7 19  1  0
  7 20  1  0
  8 21  1  0
  9 22  1  0
  9 23  1  0
 11 24  1  0
 11 25  1  0
M  END
$$$$

     RDKit          3D

 25 24  0  0  0  0  0  0  0  0999 V2000
   -4.3185    1.4999   -0.0739 C   0  0  0  0  0  0  0  0  0  0  0  0
   -3.1876    0.7534   -0.5937 N   0  0  0  0  0  0  0  0  0  0  0  0
   -2.3204    0.0940    0.3144 C   0  0  0  0  0  0  0  0  0  0  0  0
   -2.5634    0.1765    1.5689 O   0  0  0  0  0  0  0  0  0  0  0  0
   -1.2075   -0.6445   -0.1038 O   0  0  0  0  0  0  0  0  0  0  0  0
   -0.4298   -1.2555    0.9133 C   0  0  0  0  0  0  0  0  0  0  0  0
    0.7380   -2.0134    0.3762 C   0  0  0  0  0  0  0  0  0  0  0  0
    1.6468   -1.2053   -0.3609 N   0  0  0  0  0  0  0  0  0  0  0  0
    2.3839   -0.2679    0.4195 C   0  0  0  0  0  0  0  0  0  0  0  0
    3.3267    0.5508   -0.3394 C   0  0  0  0  0  0  0  0  0  0  0  0
    4.1188    1.5191    0.2895 N   0  0  0  0  0  0  0  0  0  0  0  0
    3.4337    0.3906   -1.5798 O   0  0  0  0  0  0  0  0  0  0  0  0
   -4.6887    2.2631   -0.7883 H   0  0  0  0  0  0  0  0  0  0  0  0
   -3.9623    1.9928    0.8668 H   0  0  0  0  0  0  0  0  0  0  0  0
   -5.1636    0.8126    0.1968 H   0  0  0  0  0  0  0  0  0  0  0  0
   -3.0025    0.6909   -1.6216 H   0  0  0  0  0  0  0  0  0  0  0  0
   -1.1434   -1.9375    1.4495 H   0  0  0  0  0  0  0  0  0  0  0  0
   -0.0801   -0.4519    1.5749 H   0  0  0  0  0  0  0  0  0  0  0  0
    0.4175   -2.9334   -0.1756 H   0  0  0  0  0  0  0  0  0  0  0  0
    1.3300   -2.4359    1.2440 H   0  0  0  0  0  0  0  0  0  0  0  0
    1.2623   -0.8285   -1.2535 H   0  0  0  0  0  0  0  0  0  0  0  0
    2.9291   -0.8638    1.2150 H   0  0  0  0  0  0  0  0  0  0  0  0
    1.6588    0.3427    1.0172 H   0  0  0  0  0  0  0  0  0  0  0  0
    4.5589    1.3111    1.1994 H   0  0  0  0  0  0  0  0  0  0  0  0
    4.2634    2.4400   -0.1536 H   0  0  0  0  0  0  0  0  0  0  0  0
  1  2  1  0
  2  3  1  0
  3  4  2  0
  3  5  1  0
  5  6  1  0
  6  7  1  0
  7  8  1  0
  8  9  1  0
  9 10  1  0
 10 11  1  0
 10 12  2  0
  1 13  1  0
  1 14  1  0
  1 15  1  0
  2 16  1  0
  6 17  1  0
  6 18  1  0
  7 19  1  0
  7 20  1  0
  8 21  1  0
  9 22  1  0
  9 23  1  0
 11 24  1  0
 11 25  1  0
M  END
$$$$

     RDKit          3D

 25 24  0  0  0  0  0  0  0  0999 V2000
    4.2103    1.3636    0.9994 C   0  0  0  0  0  0  0  0  0  0  0  0
    3.1401    1.1948    0.0643 N   0  0  0  0  0  0  0  0  0  0  0  0
    2.2968    0.0485    0.0415 C   0  0  0  0  0  0  0  0  0  0  0  0
    2.4818   -0.8742    0.8726 O   0  0  0  0  0  0  0  0  0  0  0  0
    1.2643   -0.1139   -0.8599 O   0  0  0  0  0  0  0  0  0  0  0  0
    0.4694   -1.2571   -0.8365 C   0  0  0  0  0  0  0  0  0  0  0  0
   -0.2864   -1.5188    0.4103 C   0  0  0  0  0  0  0  0  0  0  0  0
   -1.2105   -0.4905    0.7776 N   0  0  0  0  0  0  0  0  0  0  0  0
   -2.3265   -0.3745   -0.1171 C   0  0  0  0  0  0  0  0  0  0  0  0
   -3.2610    0.7001    0.2981 C   0  0  0  0  0  0  0  0  0  0  0  0
   -4.4338    0.9867   -0.4462 N   0  0  0  0  0  0  0  0  0  0  0  0
   -3.0199    1.3875    1.3406 O   0  0  0  0  0  0  0  0  0  0  0  0
    3.9244    0.9777    2.0010 H   0  0  0  0  0  0  0  0  0  0  0  0
    4.4013    2.4508    1.1112 H   0  0  0  0  0  0  0  0  0  0  0  0
    5.1242    0.8283    0.6562 H   0  0  0  0  0  0  0  0  0  0  0  0
    2.9576    1.9319   -0.6363 H   0  0  0  0  0  0  0  0  0  0  0  0
   -0.2453   -1.1763   -1.6996 H   0  0  0  0  0  0  0  0  0  0  0  0
    1.0832   -2.1603   -1.0652 H   0  0  0  0  0  0  0  0  0  0  0  0
    0.3833   -1.7852    1.2498 H   0  0  0  0  0  0  0  0  0  0  0  0
   -0.8913   -2.4562    0.2303 H   0  0  0  0  0  0  0  0  0  0  0  0
   -1.4338   -0.4238    1.7744 H   0  0  0  0  0  0  0  0  0  0  0  0
   -1.9416   -0.1258   -1.1348 H   0  0  0  0  0  0  0  0  0  0  0  0
   -2.9240   -1.3071   -0.1756 H   0  0  0  0  0  0  0  0  0  0  0  0
   -5.3748    0.6274   -0.1429 H   0  0  0  0  0  0  0  0  0  0  0  0
   -4.3878    1.5664   -1.3204 H   0  0  0  0  0  0  0  0  0  0  0  0
  1  2  1  0
  2  3  1  0
  3  4  2  0
  3  5  1  0
  5  6  1  0
  6  7  1  0
  7  8  1  0
  8  9  1  0
  9 10  1  0
 10 11  1  0
 10 12  2  0
  1 13  1  0
  1 14  1  0
  1 15  1  0
  2 16  1  0
  6 17  1  0
  6 18  1  0
  7 19  1  0
  7 20  1  0
  8 21  1  0
  9 22  1  0
  9 23  1  0
 11 24  1  0
 11 25  1  0
M  END
$$$$

     RDKit          3D

 25 24  0  0  0  0  0  0  0  0999 V2000
    3.9437    1.6945    0.5053 C   0  0  0  0  0  0  0  0  0  0  0  0
    2.6884    1.4357   -0.1473 N   0  0  0  0  0  0  0  0  0  0  0  0
    2.1792    0.1162   -0.2250 C   0  0  0  0  0  0  0  0  0  0  0  0
    2.7975   -0.8661    0.2678 O   0  0  0  0  0  0  0  0  0  0  0  0
    0.9908   -0.1438   -0.8404 O   0  0  0  0  0  0  0  0  0  0  0  0
    0.4561   -1.4640   -0.9368 C   0  0  0  0  0  0  0  0  0  0  0  0
   -0.8539   -1.3170   -1.6696 C   0  0  0  0  0  0  0  0  0  0  0  0
   -1.7402   -0.4702   -0.9481 N   0  0  0  0  0  0  0  0  0  0  0  0
   -2.2380   -1.0116    0.2813 C   0  0  0  0  0  0  0  0  0  0  0  0
   -3.1510   -0.0464    0.9176 C   0  0  0  0  0  0  0  0  0  0  0  0
   -3.3914    1.2198    0.2830 N   0  0  0  0  0  0  0  0  0  0  0  0
   -3.7193   -0.2988    1.9933 O   0  0  0  0  0  0  0  0  0  0  0  0
    3.7972    1.7329    1.6004 H   0  0  0  0  0  0  0  0  0  0  0  0
    4.6889    0.9105    0.2407 H   0  0  0  0  0  0  0  0  0  0  0  0
    4.3477    2.6923    0.1629 H   0  0  0  0  0  0  0  0  0  0  0  0
    2.1668    2.2607   -0.5624 H   0  0  0  0  0  0  0  0  0  0  0  0
    0.2822   -1.8824    0.0561 H   0  0  0  0  0  0  0  0  0  0  0  0
    1.1573   -2.1231   -1.5228 H   0  0  0  0  0  0  0  0  0  0  0  0
   -0.6550   -0.8316   -2.6722 H   0  0  0  0  0  0  0  0  0  0  0  0
   -1.2636   -2.3219   -1.8981 H   0  0  0  0  0  0  0  0  0  0  0  0
   -1.5061    0.5193   -0.9284 H   0  0  0  0  0  0  0  0  0  0  0  0
   -2.7130   -2.0114    0.1332 H   0  0  0  0  0  0  0  0  0  0  0  0
   -1.3591   -1.1660    0.9573 H   0  0  0  0  0  0  0  0  0  0  0  0
   -4.2387    1.4099   -0.2838 H   0  0  0  0  0  0  0  0  0  0  0  0
   -2.6663    1.9623    0.4123 H   0  0  0  0  0  0  0  0  0  0  0  0
  1  2  1  0
  2  3  1  0
  3  4  2  0
  3  5  1  0
  5  6  1  0
  6  7  1  0
  7  8  1  0
  8  9  1  0
  9 10  1  0
 10 11  1  0
 10 12  2  0
  1 13  1  0
  1 14  1  0
  1 15  1  0
  2 16  1  0
  6 17  1  0
  6 18  1  0
  7 19  1  0
  7 20  1  0
  8 21  1  0
  9 22  1  0
  9 23  1  0
 11 24  1  0
 11 25  1  0
M  END
$$$$
