
     RDKit          3D

 22 22  0  0  0  0  0  0  0  0999 V2000
    3.2332   -0.1578    1.6828 O   0  0  0  0  0  0  0  0  0  0  0  0
    3.2370   -0.4446    0.4481 C   0  0  0  0  0  0  0  0  0  0  0  0
    2.0148   -0.4253   -0.2826 N   0  0  0  0  0  0  0  0  0  0  0  0
    0.7760   -0.0847    0.3618 C   0  0  2  0  0  0  0  0  0  0  0  0
   -0.1749   -1.2412    0.2041 C   0  0  0  0  0  0  0  0  0  0  0  0
   -1.5170   -0.5694    0.1235 C   0  0  2  0  0  0  0  0  0  0  0  0
   -2.3907   -1.4580   -0.5112 O   0  0  0  0  0  0  0  0  0  0  0  0
   -1.2588    0.6133   -0.7498 C   0  0  1  0  0  0  0  0  0  0  0  0
   -2.1557    1.6577   -0.5446 O   0  0  0  0  0  0  0  0  0  0  0  0
    0.1094    1.0878   -0.3261 C   0  0  1  0  0  0  0  0  0  0  0  0
   -0.0251    2.1305    0.5862 O   0  0  0  0  0  0  0  0  0  0  0  0
    4.1814   -0.7037   -0.0410 H   0  0  0  0  0  0  0  0  0  0  0  0
    2.0422   -0.6666   -1.3057 H   0  0  0  0  0  0  0  0  0  0  0  0
    0.9658    0.1318    1.4233 H   0  0  0  0  0  0  0  0  0  0  0  0
   -0.1198   -1.9560    1.0494 H   0  0  0  0  0  0  0  0  0  0  0  0
    0.0610   -1.7220   -0.7701 H   0  0  0  0  0  0  0  0  0  0  0  0
   -1.9053   -0.3127    1.1267 H   0  0  0  0  0  0  0  0  0  0  0  0
   -3.0241   -1.8670    0.1150 H   0  0  0  0  0  0  0  0  0  0  0  0
   -1.2415    0.2935   -1.8145 H   0  0  0  0  0  0  0  0  0  0  0  0
   -2.7972    1.4764    0.1846 H   0  0  0  0  0  0  0  0  0  0  0  0
    0.6862    1.4411   -1.2091 H   0  0  0  0  0  0  0  0  0  0  0  0
   -0.6968    2.7768    0.2489 H   0  0  0  0  0  0  0  0  0  0  0  0
  1  2  2  0
  2  3  1  0
  3  4  1  0
  4  5  1  0
  5  6  1  0
  6  7  1  0
  6  8  1  0
  8  9  1  0
  8 10  1  0
 10 11  1  0
 10  4  1  0
  2 12  1  0
  3 13  1  0
  4 14  1  1
  5 15  1  0
  5 16  1  0
  6 17  1  1
  7 18  1  0
  8 19  1  6
  9 20  1  0
 10 21  1  6
 11 22  1  0
M  END
$$$$

     RDKit          3D

 22 22  0  0  0  0  0  0  0  0999 V2000
    2.9240    0.1926   -1.5219 O   0  0  0  0  0  0  0  0  0  0  0  0
    3.0866   -0.1265   -0.3052 C   0  0  0  0  0  0  0  0  0  0  0  0
    1.9384   -0.2489    0.5260 N   0  0  0  0  0  0  0  0  0  0  0  0
    0.6557   -0.0114   -0.0293 C   0  0  2  0  0  0  0  0  0  0  0  0
   -0.0882    1.1332    0.6725 C   0  0  0  0  0  0  0  0  0  0  0  0
   -1.4377    1.0155   -0.0512 C   0  0  2  0  0  0  0  0  0  0  0  0
   -2.4683    1.5422    0.6865 O   0  0  0  0  0  0  0  0  0  0  0  0
   -1.6082   -0.4690   -0.3300 C   0  0  1  0  0  0  0  0  0  0  0  0
   -1.5978   -0.6940   -1.7256 O   0  0  0  0  0  0  0  0  0  0  0  0
   -0.3342   -1.1316    0.1905 C   0  0  1  0  0  0  0  0  0  0  0  0
   -0.0252   -2.2824   -0.4853 O   0  0  0  0  0  0  0  0  0  0  0  0
    4.0984   -0.2896    0.0368 H   0  0  0  0  0  0  0  0  0  0  0  0
    2.0748   -0.5063    1.5058 H   0  0  0  0  0  0  0  0  0  0  0  0
    0.6861    0.2553   -1.0974 H   0  0  0  0  0  0  0  0  0  0  0  0
   -0.1938    0.8763    1.7419 H   0  0  0  0  0  0  0  0  0  0  0  0
    0.3765    2.1020    0.4907 H   0  0  0  0  0  0  0  0  0  0  0  0
   -1.2870    1.5692   -1.0238 H   0  0  0  0  0  0  0  0  0  0  0  0
   -2.1219    2.1626    1.3952 H   0  0  0  0  0  0  0  0  0  0  0  0
   -2.5091   -0.8913    0.1172 H   0  0  0  0  0  0  0  0  0  0  0  0
   -1.3971    0.1435   -2.1909 H   0  0  0  0  0  0  0  0  0  0  0  0
   -0.5050   -1.2869    1.2807 H   0  0  0  0  0  0  0  0  0  0  0  0
   -0.2671   -3.0544    0.1167 H   0  0  0  0  0  0  0  0  0  0  0  0
  1  2  2  0
  2  3  1  0
  3  4  1  0
  4  5  1  0
  5  6  1  0
  6  7  1  0
  6  8  1  0
  8  9  1  0
  8 10  1  0
 10 11  1  0
 10  4  1  0
  2 12  1  0
  3 13  1  0
  4 14  1  6
  5 15  1  0
  5 16  1  0
  6 17  1  6
  7 18  1  0
  8 19  1  1
  9 20  1  0
 10 21  1  1
 11 22  1  0
M  END
$$$$

     RDKit          3D

 22 22  0  0  0  0  0  0  0  0999 V2000
    3.1252    0.7469    1.2615 O   0  0  0  0  0  0  0  0  0  0  0  0
    3.1685    0.0332    0.2117 C   0  0  0  0  0  0  0  0  0  0  0  0
    1.9710   -0.3842   -0.4209 N   0  0  0  0  0  0  0  0  0  0  0  0
    0.6992    0.0076    0.1362 C   0  0  2  0  0  0  0  0  0  0  0  0
   -0.1634   -1.1755    0.5115 C   0  0  0  0  0  0  0  0  0  0  0  0
   -1.5876   -0.7813    0.2863 C   0  0  2  0  0  0  0  0  0  0  0  0
   -2.2594   -1.6299   -0.5823 O   0  0  0  0  0  0  0  0  0  0  0  0
   -1.5320    0.6221   -0.2636 C   0  0  1  0  0  0  0  0  0  0  0  0
   -1.7200    1.5263    0.8038 O   0  0  0  0  0  0  0  0  0  0  0  0
   -0.1458    0.8056   -0.8140 C   0  0  1  0  0  0  0  0  0  0  0  0
    0.2248    2.1551   -0.7159 O   0  0  0  0  0  0  0  0  0  0  0  0
    4.1154   -0.2622   -0.2085 H   0  0  0  0  0  0  0  0  0  0  0  0
    2.0148   -0.9699   -1.2823 H   0  0  0  0  0  0  0  0  0  0  0  0
    0.8468    0.6228    1.0441 H   0  0  0  0  0  0  0  0  0  0  0  0
    0.0479   -1.4324    1.5876 H   0  0  0  0  0  0  0  0  0  0  0  0
    0.0788   -2.0611   -0.0842 H   0  0  0  0  0  0  0  0  0  0  0  0
   -2.1242   -0.7905    1.2661 H   0  0  0  0  0  0  0  0  0  0  0  0
   -2.8724   -2.2125   -0.0854 H   0  0  0  0  0  0  0  0  0  0  0  0
   -2.3193    0.7779   -1.0144 H   0  0  0  0  0  0  0  0  0  0  0  0
   -1.2446    1.2171    1.6134 H   0  0  0  0  0  0  0  0  0  0  0  0
   -0.0379    0.4872   -1.8661 H   0  0  0  0  0  0  0  0  0  0  0  0
   -0.2857    2.6978   -1.3849 H   0  0  0  0  0  0  0  0  0  0  0  0
  1  2  2  0
  2  3  1  0
  3  4  1  0
  4  5  1  0
  5  6  1  0
  6  7  1  0
  6  8  1  0
  8  9  1  0
  8 10  1  0
 10 11  1  0
 10  4  1  0
  2 12  1  0
  3 13  1  0
  4 14  1  1
  5 15  1  0
  5 16  1  0
  6 17  1  1
  7 18  1  0
  8 19  1  6
  9 20  1  0
 10 21  1  6
 11 22  1  0
M  END
$$$$

     RDKit          3D

 22 22  0  0  0  0  0  0  0  0999 V2000
    2.1202    0.9011   -2.6121 O   0  0  0  0  0  0  0  0  0  0  0  0
    2.5970    1.0621   -1.4782 C   0  0  0  0  0  0  0  0  0  0  0  0
    1.7783    0.7833   -0.3493 N   0  0  0  0  0  0  0  0  0  0  0  0
    0.4224    0.3230   -0.4493 C   0  0  2  0  0  0  0  0  0  0  0  0
   -0.5827    1.1971    0.2095 C   0  0  0  0  0  0  0  0  0  0  0  0
   -1.4944    0.2804    1.0384 C   0  0  2  0  0  0  0  0  0  0  0  0
   -0.9739    0.1029    2.3035 O   0  0  0  0  0  0  0  0  0  0  0  0
   -1.3095   -1.0256    0.2813 C   0  0  1  0  0  0  0  0  0  0  0  0
   -1.8286   -0.8504   -0.9883 O   0  0  0  0  0  0  0  0  0  0  0  0
    0.2029   -1.0250    0.1783 C   0  0  1  0  0  0  0  0  0  0  0  0
    0.6912   -2.0726   -0.5774 O   0  0  0  0  0  0  0  0  0  0  0  0
    3.6183    1.4088   -1.3878 H   0  0  0  0  0  0  0  0  0  0  0  0
    2.2200    0.9327    0.5853 H   0  0  0  0  0  0  0  0  0  0  0  0
    0.1685    0.2375   -1.5267 H   0  0  0  0  0  0  0  0  0  0  0  0
   -0.1843    2.0250    0.7964 H   0  0  0  0  0  0  0  0  0  0  0  0
   -1.2793    1.6625   -0.5484 H   0  0  0  0  0  0  0  0  0  0  0  0
   -2.5403    0.6330    1.0247 H   0  0  0  0  0  0  0  0  0  0  0  0
   -0.8406    0.9322    2.8050 H   0  0  0  0  0  0  0  0  0  0  0  0
   -1.7040   -1.8933    0.8168 H   0  0  0  0  0  0  0  0  0  0  0  0
   -2.3131   -1.6481   -1.3196 H   0  0  0  0  0  0  0  0  0  0  0  0
    0.6048   -1.0778    1.2137 H   0  0  0  0  0  0  0  0  0  0  0  0
    0.6270   -2.8889   -0.0157 H   0  0  0  0  0  0  0  0  0  0  0  0
  1  2  2  0
  2  3  1  0
  3  4  1  0
  4  5  1  0
  5  6  1  0
  6  7  1  0
  6  8  1  0
  8  9  1  0
  8 10  1  0
 10 11  1  0
 10  4  1  0
  2 12  1  0
  3 13  1  0
  4 14  1  6
  5 15  1  0
  5 16  1  0
  6 17  1  1
  7 18  1  0
  8 19  1  1
  9 20  1  0
 10 21  1  1
 11 22  1  0
M  END
$$$$

     RDKit          3D

 22 22  0  0  0  0  0  0  0  0999 V2000
    2.2943   -1.0720    2.4213 O   0  0  0  0  0  0  0  0  0  0  0  0
    2.7877   -0.8709    1.2838 C   0  0  0  0  0  0  0  0  0  0  0  0
    1.9221   -0.5073    0.2368 N   0  0  0  0  0  0  0  0  0  0  0  0
    0.5089   -0.3420    0.3471 C   0  0  2  0  0  0  0  0  0  0  0  0
   -0.2811   -1.1417   -0.6554 C   0  0  0  0  0  0  0  0  0  0  0  0
   -1.5771   -0.3754   -0.8395 C   0  0  2  0  0  0  0  0  0  0  0  0
   -1.7360    0.0566   -2.1665 O   0  0  0  0  0  0  0  0  0  0  0  0
   -1.4524    0.8792    0.0015 C   0  0  1  0  0  0  0  0  0  0  0  0
   -1.8424    0.6569    1.3245 O   0  0  0  0  0  0  0  0  0  0  0  0
    0.0540    1.0753   -0.0123 C   0  0  1  0  0  0  0  0  0  0  0  0
    0.4884    2.0148    0.8761 O   0  0  0  0  0  0  0  0  0  0  0  0
    3.8578   -0.9950    1.1957 H   0  0  0  0  0  0  0  0  0  0  0  0
    2.3477   -0.3438   -0.7023 H   0  0  0  0  0  0  0  0  0  0  0  0
    0.1227   -0.5310    1.3728 H   0  0  0  0  0  0  0  0  0  0  0  0
    0.2253   -1.1530   -1.6340 H   0  0  0  0  0  0  0  0  0  0  0  0
   -0.4451   -2.1471   -0.2346 H   0  0  0  0  0  0  0  0  0  0  0  0
   -2.4569   -0.9882   -0.5210 H   0  0  0  0  0  0  0  0  0  0  0  0
   -1.7399   -0.7200   -2.8019 H   0  0  0  0  0  0  0  0  0  0  0  0
   -1.9652    1.7476   -0.4402 H   0  0  0  0  0  0  0  0  0  0  0  0
   -2.7649    0.9963    1.4160 H   0  0  0  0  0  0  0  0  0  0  0  0
    0.3556    1.2593   -1.0610 H   0  0  0  0  0  0  0  0  0  0  0  0
    1.2964    2.5013    0.5932 H   0  0  0  0  0  0  0  0  0  0  0  0
  1  2  2  0
  2  3  1  0
  3  4  1  0
  4  5  1  0
  5  6  1  0
  6  7  1  0
  6  8  1  0
  8  9  1  0
  8 10  1  0
 10 11  1  0
 10  4  1  0
  2 12  1  0
  3 13  1  0
  4 14  1  1
  5 15  1  0
  5 16  1  0
  6 17  1  1
  7 18  1  0
  8 19  1  6
  9 20  1  0
 10 21  1  6
 11 22  1  0
M  END
$$$$

     RDKit          3D

 22 22  0  0  0  0  0  0  0  0999 V2000
    2.8944   -1.0973    1.1721 O   0  0  0  0  0  0  0  0  0  0  0  0
    3.1151   -0.5127    0.0622 C   0  0  0  0  0  0  0  0  0  0  0  0
    2.0320   -0.0360   -0.7265 N   0  0  0  0  0  0  0  0  0  0  0  0
    0.6971   -0.2204   -0.2596 C   0  0  2  0  0  0  0  0  0  0  0  0
   -0.1608   -1.0181   -1.2525 C   0  0  0  0  0  0  0  0  0  0  0  0
   -1.5154   -0.8800   -0.5466 C   0  0  2  0  0  0  0  0  0  0  0  0
   -2.5690   -1.1635   -1.3768 O   0  0  0  0  0  0  0  0  0  0  0  0
   -1.5087    0.5444   -0.0388 C   0  0  1  0  0  0  0  0  0  0  0  0
   -1.7989    0.5758    1.3117 O   0  0  0  0  0  0  0  0  0  0  0  0
   -0.1083    1.0735   -0.2380 C   0  0  1  0  0  0  0  0  0  0  0  0
    0.2991    1.9299    0.7511 O   0  0  0  0  0  0  0  0  0  0  0  0
    4.1526   -0.4070   -0.2306 H   0  0  0  0  0  0  0  0  0  0  0  0
    2.2050    0.4410   -1.6315 H   0  0  0  0  0  0  0  0  0  0  0  0
    0.6081   -0.7301    0.6987 H   0  0  0  0  0  0  0  0  0  0  0  0
   -0.2078   -0.4490   -2.1851 H   0  0  0  0  0  0  0  0  0  0  0  0
    0.1593   -2.0503   -1.3446 H   0  0  0  0  0  0  0  0  0  0  0  0
   -1.4689   -1.5908    0.3227 H   0  0  0  0  0  0  0  0  0  0  0  0
   -3.3327   -1.4446   -0.8151 H   0  0  0  0  0  0  0  0  0  0  0  0
   -2.2252    1.1881   -0.5881 H   0  0  0  0  0  0  0  0  0  0  0  0
   -1.7458    1.5185    1.6046 H   0  0  0  0  0  0  0  0  0  0  0  0
   -0.0462    1.5174   -1.2571 H   0  0  0  0  0  0  0  0  0  0  0  0
    0.5251    2.8113    0.3184 H   0  0  0  0  0  0  0  0  0  0  0  0
  1  2  2  0
  2  3  1  0
  3  4  1  0
  4  5  1  0
  5  6  1  0
  6  7  1  0
  6  8  1  0
  8  9  1  0
  8 10  1  0
 10 11  1  0
 10  4  1  0
  2 12  1  0
  3 13  1  0
  4 14  1  1
  5 15  1  0
  5 16  1  0
  6 17  1  1
  7 18  1  0
  8 19  1  6
  9 20  1  0
 10 21  1  6
 11 22  1  0
M  END
$$$$

     RDKit          3D

 22 22  0  0  0  0  0  0  0  0999 V2000
    2.9250    1.1213    1.1797 O   0  0  0  0  0  0  0  0  0  0  0  0
    2.9344    1.0009   -0.0910 C   0  0  0  0  0  0  0  0  0  0  0  0
    1.7639    0.5062   -0.7434 N   0  0  0  0  0  0  0  0  0  0  0  0
    0.6122    0.1601    0.0561 C   0  0  2  0  0  0  0  0  0  0  0  0
    0.2582   -1.2886   -0.2116 C   0  0  0  0  0  0  0  0  0  0  0  0
   -1.2357   -1.3927   -0.0463 C   0  0  2  0  0  0  0  0  0  0  0  0
   -1.8043   -2.0114   -1.1767 O   0  0  0  0  0  0  0  0  0  0  0  0
   -1.7306    0.0123    0.1406 C   0  0  1  0  0  0  0  0  0  0  0  0
   -1.8492    0.2524    1.5114 O   0  0  0  0  0  0  0  0  0  0  0  0
   -0.6100    0.9050   -0.3679 C   0  0  1  0  0  0  0  0  0  0  0  0
   -0.7570    2.1371    0.2865 O   0  0  0  0  0  0  0  0  0  0  0  0
    3.8039    1.2640   -0.6763 H   0  0  0  0  0  0  0  0  0  0  0  0
    1.7164    0.3872   -1.7842 H   0  0  0  0  0  0  0  0  0  0  0  0
    0.8027    0.3339    1.1176 H   0  0  0  0  0  0  0  0  0  0  0  0
    0.7347   -1.9564    0.5083 H   0  0  0  0  0  0  0  0  0  0  0  0
    0.5421   -1.5377   -1.2531 H   0  0  0  0  0  0  0  0  0  0  0  0
   -1.5239   -1.9956    0.8527 H   0  0  0  0  0  0  0  0  0  0  0  0
   -1.1662   -2.7464   -1.4076 H   0  0  0  0  0  0  0  0  0  0  0  0
   -2.6841    0.2071   -0.3908 H   0  0  0  0  0  0  0  0  0  0  0  0
   -2.1030    1.2016    1.6834 H   0  0  0  0  0  0  0  0  0  0  0  0
   -0.6740    1.0705   -1.4589 H   0  0  0  0  0  0  0  0  0  0  0  0
    0.0443    2.3692    0.8188 H   0  0  0  0  0  0  0  0  0  0  0  0
  1  2  2  0
  2  3  1  0
  3  4  1  0
  4  5  1  0
  5  6  1  0
  6  7  1  0
  6  8  1  0
  8  9  1  0
  8 10  1  0
 10 11  1  0
 10  4  1  0
  2 12  1  0
  3 13  1  0
  4 14  1  1
  5 15  1  0
  5 16  1  0
  6 17  1  1
  7 18  1  0
  8 19  1  6
  9 20  1  0
 10 21  1  6
 11 22  1  0
M  END
$$$$

     RDKit          3D

 22 22  0  0  0  0  0  0  0  0999 V2000
    3.1302   -1.3956    1.1243 O   0  0  0  0  0  0  0  0  0  0  0  0
    3.0060   -0.8113    0.0191 C   0  0  0  0  0  0  0  0  0  0  0  0
    1.7162   -0.3481   -0.3525 N   0  0  0  0  0  0  0  0  0  0  0  0
    0.5540   -0.5421    0.5238 C   0  0  2  0  0  0  0  0  0  0  0  0
   -0.5622   -1.2280   -0.2306 C   0  0  0  0  0  0  0  0  0  0  0  0
   -1.6161   -0.1932   -0.4975 C   0  0  2  0  0  0  0  0  0  0  0  0
   -2.2370   -0.3416   -1.7230 O   0  0  0  0  0  0  0  0  0  0  0  0
   -0.8182    1.1005   -0.4044 C   0  0  1  0  0  0  0  0  0  0  0  0
   -1.6540    2.2035   -0.2712 O   0  0  0  0  0  0  0  0  0  0  0  0
   -0.0375    0.8231    0.8650 C   0  0  1  0  0  0  0  0  0  0  0  0
   -0.9543    0.6217    1.8806 O   0  0  0  0  0  0  0  0  0  0  0  0
    3.8558   -0.6507   -0.6588 H   0  0  0  0  0  0  0  0  0  0  0  0
    1.5955    0.1384   -1.2655 H   0  0  0  0  0  0  0  0  0  0  0  0
    0.8413   -1.0638    1.4357 H   0  0  0  0  0  0  0  0  0  0  0  0
   -0.9597   -2.0655    0.3960 H   0  0  0  0  0  0  0  0  0  0  0  0
   -0.1896   -1.6189   -1.2020 H   0  0  0  0  0  0  0  0  0  0  0  0
   -2.3584   -0.1531    0.3518 H   0  0  0  0  0  0  0  0  0  0  0  0
   -2.0729   -1.2571   -2.0713 H   0  0  0  0  0  0  0  0  0  0  0  0
   -0.1620    1.1742   -1.2803 H   0  0  0  0  0  0  0  0  0  0  0  0
   -1.1053    3.0103   -0.4684 H   0  0  0  0  0  0  0  0  0  0  0  0
    0.7179    1.5739    1.0840 H   0  0  0  0  0  0  0  0  0  0  0  0
   -0.6897    1.0233    2.7453 H   0  0  0  0  0  0  0  0  0  0  0  0
  1  2  2  0
  2  3  1  0
  3  4  1  0
  4  5  1  0
  5  6  1  0
  6  7  1  0
  6  8  1  0
  8  9  1  0
  8 10  1  0
 10 11  1  0
 10  4  1  0
  2 12  1  0
  3 13  1  0
  4 14  1  1
  5 15  1  0
  5 16  1  0
  6 17  1  1
  7 18  1  0
  8 19  1  6
  9 20  1  0
 10 21  1  1
 11 22  1  0
M  END
$$$$
