
     RDKit          3D

 23 23  0  0  0  0  0  0  0  0999 V2000
    2.4267    2.0288    0.3623 O   0  0  0  0  0  0  0  0  0  0  0  0
    3.0483    1.2081   -0.3535 C   0  0  0  0  0  0  0  0  0  0  0  0
    4.2580    1.5871   -0.9061 O   0  0  0  0  0  0  0  0  0  0  0  0
    2.4539   -0.1037   -0.5606 C   0  0  0  0  0  0  0  0  0  0  0  0
    3.0949   -0.9116   -1.2824 O   0  0  0  0  0  0  0  0  0  0  0  0
    1.2238   -0.4799    0.0053 N   0  0  0  0  0  0  0  0  0  0  0  0
    0.2217    0.1413    0.8608 C   0  0  0  0  0  0  0  0  0  0  0  0
   -0.7707   -0.9370    0.5744 C   0  0  0  0  0  0  0  0  0  0  0  0
   -1.8145   -0.6366   -0.4615 C   0  0  2  0  0  0  0  0  0  0  0  0
   -1.2591   -0.3589   -1.6753 F   0  0  0  0  0  0  0  0  0  0  0  0
   -2.6915    0.5323   -0.0663 C   0  0  0  0  0  0  0  0  0  0  0  0
   -3.6159    0.7373   -1.0681 O   0  0  0  0  0  0  0  0  0  0  0  0
    0.3992   -1.6695   -0.0139 C   0  0  0  0  0  0  0  0  0  0  0  0
    4.8801    2.2318   -0.4110 H   0  0  0  0  0  0  0  0  0  0  0  0
    0.5889    0.1945    1.8882 H   0  0  0  0  0  0  0  0  0  0  0  0
   -0.0885    1.1454    0.5042 H   0  0  0  0  0  0  0  0  0  0  0  0
   -1.1735   -1.4862    1.4473 H   0  0  0  0  0  0  0  0  0  0  0  0
   -2.4579   -1.5286   -0.5550 H   0  0  0  0  0  0  0  0  0  0  0  0
   -3.2462    0.2943    0.8676 H   0  0  0  0  0  0  0  0  0  0  0  0
   -2.0883    1.4333    0.1027 H   0  0  0  0  0  0  0  0  0  0  0  0
   -4.4462    1.1223   -0.6462 H   0  0  0  0  0  0  0  0  0  0  0  0
    0.2523   -2.0790   -1.0307 H   0  0  0  0  0  0  0  0  0  0  0  0
    0.8045   -2.4657    0.6527 H   0  0  0  0  0  0  0  0  0  0  0  0
  1  2  2  0
  2  3  1  0
  2  4  1  0
  4  5  2  0
  4  6  1  0
  6  7  1  0
  7  8  1  0
  8  9  1  0
  9 10  1  0
  9 11  1  0
 11 12  1  0
  8 13  1  0
 13  6  1  0
  3 14  1  0
  7 15  1  0
  7 16  1  0
  8 17  1  0
  9 18  1  6
 11 19  1  0
 11 20  1  0
 12 21  1  0
 13 22  1  0
 13 23  1  0
M  END
$$$$

     RDKit          3D

 23 23  0  0  0  0  0  0  0  0999 V2000
    2.7168    1.6572   -0.7138 O   0  0  0  0  0  0  0  0  0  0  0  0
    3.2735    1.0155    0.2097 C   0  0  0  0  0  0  0  0  0  0  0  0
    4.5667    1.3328    0.5319 O   0  0  0  0  0  0  0  0  0  0  0  0
    2.5341   -0.0307    0.8976 C   0  0  0  0  0  0  0  0  0  0  0  0
    3.1120   -0.6629    1.8221 O   0  0  0  0  0  0  0  0  0  0  0  0
    1.1971   -0.3334    0.5388 N   0  0  0  0  0  0  0  0  0  0  0  0
    0.2042   -1.2825    1.0027 C   0  0  0  0  0  0  0  0  0  0  0  0
   -0.8584   -0.2829    0.5459 C   0  0  0  0  0  0  0  0  0  0  0  0
   -2.0344   -0.9823   -0.0805 C   0  0  2  0  0  0  0  0  0  0  0  0
   -1.5934   -1.6918   -1.1670 F   0  0  0  0  0  0  0  0  0  0  0  0
   -3.0506    0.0618   -0.5151 C   0  0  0  0  0  0  0  0  0  0  0  0
   -2.3859    0.8834   -1.4413 O   0  0  0  0  0  0  0  0  0  0  0  0
    0.2264    0.1458   -0.4264 C   0  0  0  0  0  0  0  0  0  0  0  0
    4.9335    2.2932    0.4641 H   0  0  0  0  0  0  0  0  0  0  0  0
    0.2132   -2.2043    0.3758 H   0  0  0  0  0  0  0  0  0  0  0  0
    0.2265   -1.4633    2.0906 H   0  0  0  0  0  0  0  0  0  0  0  0
   -1.0733    0.4489    1.3284 H   0  0  0  0  0  0  0  0  0  0  0  0
   -2.4755   -1.6722    0.6820 H   0  0  0  0  0  0  0  0  0  0  0  0
   -3.9226   -0.4200   -0.9618 H   0  0  0  0  0  0  0  0  0  0  0  0
   -3.3684    0.6458    0.3789 H   0  0  0  0  0  0  0  0  0  0  0  0
   -2.8806    1.7196   -1.5517 H   0  0  0  0  0  0  0  0  0  0  0  0
    0.2473    1.2532   -0.5706 H   0  0  0  0  0  0  0  0  0  0  0  0
    0.1917   -0.4309   -1.3797 H   0  0  0  0  0  0  0  0  0  0  0  0
  1  2  2  0
  2  3  1  0
  2  4  1  0
  4  5  2  0
  4  6  1  0
  6  7  1  0
  7  8  1  0
  8  9  1  0
  9 10  1  0
  9 11  1  0
 11 12  1  0
  8 13  1  0
 13  6  1  0
  3 14  1  0
  7 15  1  0
  7 16  1  0
  8 17  1  0
  9 18  1  1
 11 19  1  0
 11 20  1  0
 12 21  1  0
 13 22  1  0
 13 23  1  0
M  END
$$$$

     RDKit          3D

 23 23  0  0  0  0  0  0  0  0999 V2000
    3.2896    0.8780   -0.5033 O   0  0  0  0  0  0  0  0  0  0  0  0
    3.3400    0.0294    0.4378 C   0  0  0  0  0  0  0  0  0  0  0  0
    4.4811   -0.0764    1.1887 O   0  0  0  0  0  0  0  0  0  0  0  0
    2.1609   -0.7946    0.6660 C   0  0  0  0  0  0  0  0  0  0  0  0
    2.2313   -1.6344    1.6089 O   0  0  0  0  0  0  0  0  0  0  0  0
    0.9943   -0.6588   -0.1314 N   0  0  0  0  0  0  0  0  0  0  0  0
    0.5550    0.1457   -1.2422 C   0  0  0  0  0  0  0  0  0  0  0  0
   -0.8607   -0.0940   -0.8324 C   0  0  0  0  0  0  0  0  0  0  0  0
   -1.4184    0.8550    0.2060 C   0  0  2  0  0  0  0  0  0  0  0  0
   -0.7005    0.8073    1.3773 F   0  0  0  0  0  0  0  0  0  0  0  0
   -2.8311    0.3991    0.5117 C   0  0  0  0  0  0  0  0  0  0  0  0
   -3.6193    0.4301   -0.6359 O   0  0  0  0  0  0  0  0  0  0  0  0
   -0.2944   -1.3189   -0.1408 C   0  0  0  0  0  0  0  0  0  0  0  0
    5.1383    0.6799    1.1728 H   0  0  0  0  0  0  0  0  0  0  0  0
    0.7698   -0.4069   -2.1946 H   0  0  0  0  0  0  0  0  0  0  0  0
    0.9053    1.1932   -1.2554 H   0  0  0  0  0  0  0  0  0  0  0  0
   -1.5913   -0.3061   -1.6192 H   0  0  0  0  0  0  0  0  0  0  0  0
   -1.4799    1.9031   -0.1907 H   0  0  0  0  0  0  0  0  0  0  0  0
   -2.7540   -0.6820    0.8055 H   0  0  0  0  0  0  0  0  0  0  0  0
   -3.2900    1.0192    1.2892 H   0  0  0  0  0  0  0  0  0  0  0  0
   -4.0147    1.3067   -0.8049 H   0  0  0  0  0  0  0  0  0  0  0  0
   -0.3430   -2.2107   -0.8003 H   0  0  0  0  0  0  0  0  0  0  0  0
   -0.6682   -1.4640    0.8803 H   0  0  0  0  0  0  0  0  0  0  0  0
  1  2  2  0
  2  3  1  0
  2  4  1  0
  4  5  2  0
  4  6  1  0
  6  7  1  0
  7  8  1  0
  8  9  1  0
  9 10  1  0
  9 11  1  0
 11 12  1  0
  8 13  1  0
 13  6  1  0
  3 14  1  0
  7 15  1  0
  7 16  1  0
  8 17  1  0
  9 18  1  6
 11 19  1  0
 11 20  1  0
 12 21  1  0
 13 22  1  0
 13 23  1  0
M  END
$$$$

     RDKit          3D

 23 23  0  0  0  0  0  0  0  0999 V2000
    2.2914    2.0575   -0.1706 O   0  0  0  0  0  0  0  0  0  0  0  0
    2.8000    1.1223    0.4960 C   0  0  0  0  0  0  0  0  0  0  0  0
    3.8901    1.4357    1.2900 O   0  0  0  0  0  0  0  0  0  0  0  0
    2.3101   -0.2365    0.4728 C   0  0  0  0  0  0  0  0  0  0  0  0
    2.8714   -1.1096    1.1649 O   0  0  0  0  0  0  0  0  0  0  0  0
    1.1994   -0.5997   -0.3241 N   0  0  0  0  0  0  0  0  0  0  0  0
    0.4127   -1.7770   -0.6365 C   0  0  0  0  0  0  0  0  0  0  0  0
   -0.7631   -0.8573   -0.8741 C   0  0  0  0  0  0  0  0  0  0  0  0
   -1.5049   -0.4109    0.3413 C   0  0  2  0  0  0  0  0  0  0  0  0
   -2.0433   -1.4488    1.0628 F   0  0  0  0  0  0  0  0  0  0  0  0
   -2.6151    0.5188   -0.1075 C   0  0  0  0  0  0  0  0  0  0  0  0
   -3.3738    0.9980    0.9398 O   0  0  0  0  0  0  0  0  0  0  0  0
    0.3171    0.1386   -1.2383 C   0  0  0  0  0  0  0  0  0  0  0  0
    4.4062    2.2927    1.1259 H   0  0  0  0  0  0  0  0  0  0  0  0
    0.2860   -2.3963    0.2709 H   0  0  0  0  0  0  0  0  0  0  0  0
    0.7235   -2.3373   -1.5367 H   0  0  0  0  0  0  0  0  0  0  0  0
   -1.4044   -1.1375   -1.7251 H   0  0  0  0  0  0  0  0  0  0  0  0
   -0.8559    0.1838    1.0178 H   0  0  0  0  0  0  0  0  0  0  0  0
   -3.2211   -0.0280   -0.8758 H   0  0  0  0  0  0  0  0  0  0  0  0
   -2.1557    1.3882   -0.6476 H   0  0  0  0  0  0  0  0  0  0  0  0
   -4.3315    0.9563    0.6559 H   0  0  0  0  0  0  0  0  0  0  0  0
    0.6436    0.1102   -2.2908 H   0  0  0  0  0  0  0  0  0  0  0  0
    0.1172    1.1367   -0.8267 H   0  0  0  0  0  0  0  0  0  0  0  0
  1  2  2  0
  2  3  1  0
  2  4  1  0
  4  5  2  0
  4  6  1  0
  6  7  1  0
  7  8  1  0
  8  9  1  0
  9 10  1  0
  9 11  1  0
 11 12  1  0
  8 13  1  0
 13  6  1  0
  3 14  1  0
  7 15  1  0
  7 16  1  0
  8 17  1  0
  9 18  1  1
 11 19  1  0
 11 20  1  0
 12 21  1  0
 13 22  1  0
 13 23  1  0
M  END
$$$$

     RDKit          3D

 23 23  0  0  0  0  0  0  0  0999 V2000
    3.0412    0.9793    1.1926 O   0  0  0  0  0  0  0  0  0  0  0  0
    3.1977    1.0598   -0.0606 C   0  0  0  0  0  0  0  0  0  0  0  0
    4.3738    1.6699   -0.4846 O   0  0  0  0  0  0  0  0  0  0  0  0
    2.2279    0.5560   -1.0075 C   0  0  0  0  0  0  0  0  0  0  0  0
    2.4524    0.6718   -2.2299 O   0  0  0  0  0  0  0  0  0  0  0  0
    1.0369   -0.0618   -0.5735 N   0  0  0  0  0  0  0  0  0  0  0  0
    0.4641   -0.3582    0.7113 C   0  0  0  0  0  0  0  0  0  0  0  0
   -0.5848   -1.2418    0.0712 C   0  0  0  0  0  0  0  0  0  0  0  0
   -1.9586   -0.9120    0.5390 C   0  0  2  0  0  0  0  0  0  0  0  0
   -2.8545   -1.7567   -0.0867 F   0  0  0  0  0  0  0  0  0  0  0  0
   -2.3920    0.4956    0.2632 C   0  0  0  0  0  0  0  0  0  0  0  0
   -3.7062    0.6181    0.7735 O   0  0  0  0  0  0  0  0  0  0  0  0
   -0.1250   -0.6651   -1.2240 C   0  0  0  0  0  0  0  0  0  0  0  0
    5.2209    1.6568    0.0783 H   0  0  0  0  0  0  0  0  0  0  0  0
    0.0797    0.5711    1.1800 H   0  0  0  0  0  0  0  0  0  0  0  0
    1.1364   -0.8744    1.4313 H   0  0  0  0  0  0  0  0  0  0  0  0
   -0.3677   -2.3136    0.2225 H   0  0  0  0  0  0  0  0  0  0  0  0
   -2.0212   -1.1184    1.6270 H   0  0  0  0  0  0  0  0  0  0  0  0
   -1.7976    1.2645    0.7652 H   0  0  0  0  0  0  0  0  0  0  0  0
   -2.4888    0.6898   -0.8247 H   0  0  0  0  0  0  0  0  0  0  0  0
   -4.3805    0.4857    0.0732 H   0  0  0  0  0  0  0  0  0  0  0  0
    0.2293   -1.4576   -1.9150 H   0  0  0  0  0  0  0  0  0  0  0  0
   -0.7834    0.0409   -1.7374 H   0  0  0  0  0  0  0  0  0  0  0  0
  1  2  2  0
  2  3  1  0
  2  4  1  0
  4  5  2  0
  4  6  1  0
  6  7  1  0
  7  8  1  0
  8  9  1  0
  9 10  1  0
  9 11  1  0
 11 12  1  0
  8 13  1  0
 13  6  1  0
  3 14  1  0
  7 15  1  0
  7 16  1  0
  8 17  1  0
  9 18  1  1
 11 19  1  0
 11 20  1  0
 12 21  1  0
 13 22  1  0
 13 23  1  0
M  END
$$$$

     RDKit          3D

 23 23  0  0  0  0  0  0  0  0999 V2000
   -2.9196    0.6775    2.1289 O   0  0  0  0  0  0  0  0  0  0  0  0
   -3.4528    0.0642    1.1727 C   0  0  0  0  0  0  0  0  0  0  0  0
   -4.7998   -0.2156    1.2063 O   0  0  0  0  0  0  0  0  0  0  0  0
   -2.6762   -0.3650    0.0141 C   0  0  0  0  0  0  0  0  0  0  0  0
   -3.2687   -0.9860   -0.9318 O   0  0  0  0  0  0  0  0  0  0  0  0
   -1.2918   -0.0911   -0.0466 N   0  0  0  0  0  0  0  0  0  0  0  0
   -0.2269   -0.3407   -0.9814 C   0  0  0  0  0  0  0  0  0  0  0  0
    0.7159   -0.3750    0.1701 C   0  0  0  0  0  0  0  0  0  0  0  0
    2.0314    0.2988    0.0206 C   0  0  2  0  0  0  0  0  0  0  0  0
    1.8185    1.6363   -0.2376 F   0  0  0  0  0  0  0  0  0  0  0  0
    2.9081   -0.2626   -1.0518 C   0  0  0  0  0  0  0  0  0  0  0  0
    4.0990    0.4914   -1.0484 O   0  0  0  0  0  0  0  0  0  0  0  0
   -0.3293    0.5591    0.7983 C   0  0  0  0  0  0  0  0  0  0  0  0
   -5.4552    0.2287    1.8366 H   0  0  0  0  0  0  0  0  0  0  0  0
   -0.3131   -1.2669   -1.5819 H   0  0  0  0  0  0  0  0  0  0  0  0
   -0.1251    0.5263   -1.6678 H   0  0  0  0  0  0  0  0  0  0  0  0
    0.7106   -1.3554    0.6754 H   0  0  0  0  0  0  0  0  0  0  0  0
    2.5757    0.2193    0.9808 H   0  0  0  0  0  0  0  0  0  0  0  0
    3.1875   -1.3061   -0.9098 H   0  0  0  0  0  0  0  0  0  0  0  0
    2.4745   -0.1070   -2.0755 H   0  0  0  0  0  0  0  0  0  0  0  0
    4.8874   -0.0658   -0.8482 H   0  0  0  0  0  0  0  0  0  0  0  0
   -0.3991    0.3572    1.8748 H   0  0  0  0  0  0  0  0  0  0  0  0
   -0.1509    1.6020    0.5021 H   0  0  0  0  0  0  0  0  0  0  0  0
  1  2  2  0
  2  3  1  0
  2  4  1  0
  4  5  2  0
  4  6  1  0
  6  7  1  0
  7  8  1  0
  8  9  1  0
  9 10  1  0
  9 11  1  0
 11 12  1  0
  8 13  1  0
 13  6  1  0
  3 14  1  0
  7 15  1  0
  7 16  1  0
  8 17  1  0
  9 18  1  1
 11 19  1  0
 11 20  1  0
 12 21  1  0
 13 22  1  0
 13 23  1  0
M  END
$$$$

     RDKit          3D

 23 23  0  0  0  0  0  0  0  0999 V2000
    3.4048    0.2345    1.3987 O   0  0  0  0  0  0  0  0  0  0  0  0
    3.5305   -0.0179    0.1919 C   0  0  0  0  0  0  0  0  0  0  0  0
    4.8133   -0.1407   -0.3246 O   0  0  0  0  0  0  0  0  0  0  0  0
    2.3925   -0.1870   -0.6871 C   0  0  0  0  0  0  0  0  0  0  0  0
    2.5315   -0.4416   -1.9036 O   0  0  0  0  0  0  0  0  0  0  0  0
    1.0843   -0.0623   -0.1623 N   0  0  0  0  0  0  0  0  0  0  0  0
   -0.2774   -0.1584   -0.7029 C   0  0  0  0  0  0  0  0  0  0  0  0
   -0.7504    0.5953    0.5003 C   0  0  0  0  0  0  0  0  0  0  0  0
   -1.9133   -0.0301    1.2367 C   0  0  2  0  0  0  0  0  0  0  0  0
   -1.6348   -1.2825    1.7053 F   0  0  0  0  0  0  0  0  0  0  0  0
   -3.1454   -0.0819    0.3472 C   0  0  0  0  0  0  0  0  0  0  0  0
   -2.9246   -0.8284   -0.7988 O   0  0  0  0  0  0  0  0  0  0  0  0
    0.5551    0.2175    1.1541 C   0  0  0  0  0  0  0  0  0  0  0  0
    5.5762    0.3879    0.0810 H   0  0  0  0  0  0  0  0  0  0  0  0
   -0.3766    0.3504   -1.6726 H   0  0  0  0  0  0  0  0  0  0  0  0
   -0.5881   -1.2301   -0.7422 H   0  0  0  0  0  0  0  0  0  0  0  0
   -0.9100    1.6746    0.3442 H   0  0  0  0  0  0  0  0  0  0  0  0
   -2.1703    0.6073    2.1053 H   0  0  0  0  0  0  0  0  0  0  0  0
   -3.9856   -0.5220    0.9039 H   0  0  0  0  0  0  0  0  0  0  0  0
   -3.4108    0.9590    0.0561 H   0  0  0  0  0  0  0  0  0  0  0  0
   -3.3144   -0.3694   -1.5652 H   0  0  0  0  0  0  0  0  0  0  0  0
    0.4786   -0.7320    1.7318 H   0  0  0  0  0  0  0  0  0  0  0  0
    1.0350    1.0576    1.6688 H   0  0  0  0  0  0  0  0  0  0  0  0
  1  2  2  0
  2  3  1  0
  2  4  1  0
  4  5  2  0
  4  6  1  0
  6  7  1  0
  7  8  1  0
  8  9  1  0
  9 10  1  0
  9 11  1  0
 11 12  1  0
  8 13  1  0
 13  6  1  0
  3 14  1  0
  7 15  1  0
  7 16  1  0
  8 17  1  0
  9 18  1  1
 11 19  1  0
 11 20  1  0
 12 21  1  0
 13 22  1  0
 13 23  1  0
M  END
$$$$

     RDKit          3D

 23 23  0  0  0  0  0  0  0  0999 V2000
    3.2008   -0.1557    1.6179 O   0  0  0  0  0  0  0  0  0  0  0  0
    3.5381   -0.1200    0.3992 C   0  0  0  0  0  0  0  0  0  0  0  0
    4.8799   -0.2064    0.1135 O   0  0  0  0  0  0  0  0  0  0  0  0
    2.5075    0.0087   -0.6252 C   0  0  0  0  0  0  0  0  0  0  0  0
    2.8664    0.0424   -1.8340 O   0  0  0  0  0  0  0  0  0  0  0  0
    1.1473    0.0929   -0.2679 N   0  0  0  0  0  0  0  0  0  0  0  0
   -0.0861    0.2225   -1.0044 C   0  0  0  0  0  0  0  0  0  0  0  0
   -0.8602    0.4656    0.2699 C   0  0  0  0  0  0  0  0  0  0  0  0
   -2.0136   -0.4958    0.4588 C   0  0  2  0  0  0  0  0  0  0  0  0
   -1.5786   -1.8029    0.5091 F   0  0  0  0  0  0  0  0  0  0  0  0
   -2.9181   -0.3566   -0.7576 C   0  0  0  0  0  0  0  0  0  0  0  0
   -3.3522    0.9613   -0.8000 O   0  0  0  0  0  0  0  0  0  0  0  0
    0.4163    0.0854    0.9745 C   0  0  0  0  0  0  0  0  0  0  0  0
    5.5264    0.1812    0.8133 H   0  0  0  0  0  0  0  0  0  0  0  0
   -0.3256   -0.7519   -1.5165 H   0  0  0  0  0  0  0  0  0  0  0  0
   -0.0922    1.1012   -1.6793 H   0  0  0  0  0  0  0  0  0  0  0  0
   -1.1589    1.5038    0.4597 H   0  0  0  0  0  0  0  0  0  0  0  0
   -2.6196   -0.2646    1.3364 H   0  0  0  0  0  0  0  0  0  0  0  0
   -3.7658   -1.0603   -0.6993 H   0  0  0  0  0  0  0  0  0  0  0  0
   -2.3498   -0.5548   -1.6690 H   0  0  0  0  0  0  0  0  0  0  0  0
   -4.1417    1.1005   -0.2135 H   0  0  0  0  0  0  0  0  0  0  0  0
    0.3982   -0.8767    1.5140 H   0  0  0  0  0  0  0  0  0  0  0  0
    0.7813    0.8801    1.6460 H   0  0  0  0  0  0  0  0  0  0  0  0
  1  2  2  0
  2  3  1  0
  2  4  1  0
  4  5  2  0
  4  6  1  0
  6  7  1  0
  7  8  1  0
  8  9  1  0
  9 10  1  0
  9 11  1  0
 11 12  1  0
  8 13  1  0
 13  6  1  0
  3 14  1  0
  7 15  1  0
  7 16  1  0
  8 17  1  0
  9 18  1  1
 11 19  1  0
 11 20  1  0
 12 21  1  0
 13 22  1  0
 13 23  1  0
M  END
$$$$
