
     RDKit          3D

 24 23  0  0  0  0  0  0  0  0999 V2000
   -2.6757   -0.6338   -0.7423 C   0  0  0  0  0  0  0  0  0  0  0  0
   -1.1866   -0.5498   -0.9669 C   0  0  1  0  0  0  0  0  0  0  0  0
   -0.8359    0.5265   -1.8696 N   0  0  0  0  0  0  0  0  0  0  0  0
   -0.5278   -0.3113    0.3714 C   0  0  1  0  0  0  0  0  0  0  0  0
   -0.8696   -1.4665    1.2762 C   0  0  0  0  0  0  0  0  0  0  0  0
    0.9097   -0.2047    0.2749 N   0  0  0  0  0  0  0  0  0  0  0  0
    1.6057    0.9627    0.6501 C   0  0  0  0  0  0  0  0  0  0  0  0
    0.9773    1.9464    1.0818 O   0  0  0  0  0  0  0  0  0  0  0  0
    3.0855    1.0526    0.5432 C   0  0  0  0  0  0  0  0  0  0  0  0
    3.5394    2.2859    0.9660 O   0  0  0  0  0  0  0  0  0  0  0  0
   -2.9462   -0.3520    0.2906 H   0  0  0  0  0  0  0  0  0  0  0  0
   -3.0570   -1.6612   -0.9121 H   0  0  0  0  0  0  0  0  0  0  0  0
   -3.2361    0.0562   -1.4131 H   0  0  0  0  0  0  0  0  0  0  0  0
   -0.8163   -1.4961   -1.4089 H   0  0  0  0  0  0  0  0  0  0  0  0
   -0.4886    1.3653   -1.3512 H   0  0  0  0  0  0  0  0  0  0  0  0
   -1.6623    0.7874   -2.4204 H   0  0  0  0  0  0  0  0  0  0  0  0
   -0.9278    0.6434    0.7699 H   0  0  0  0  0  0  0  0  0  0  0  0
    0.0038   -2.1100    1.5122 H   0  0  0  0  0  0  0  0  0  0  0  0
   -1.6424   -2.1357    0.8035 H   0  0  0  0  0  0  0  0  0  0  0  0
   -1.3253   -1.1054    2.2105 H   0  0  0  0  0  0  0  0  0  0  0  0
    1.4538   -1.0207   -0.0854 H   0  0  0  0  0  0  0  0  0  0  0  0
    3.5407    0.2931    1.2420 H   0  0  0  0  0  0  0  0  0  0  0  0
    3.4494    0.8143   -0.4742 H   0  0  0  0  0  0  0  0  0  0  0  0
    3.6323    2.3134    1.9448 H   0  0  0  0  0  0  0  0  0  0  0  0
  1  2  1  0
  2  3  1  0
  2  4  1  0
  4  5  1  0
  4  6  1  0
  6  7  1  0
  7  8  2  0
  7  9  1  0
  9 10  1  0
  1 11  1  0
  1 12  1  0
  1 13  1  0
  2 14  1  6
  3 15  1  0
  3 16  1  0
  4 17  1  1
  5 18  1  0
  5 19  1  0
  5 20  1  0
  6 21  1  0
  9 22  1  0
  9 23  1  0
 10 24  1  0
M  END
$$$$

     RDKit          3D

 24 23  0  0  0  0  0  0  0  0999 V2000
   -2.7361    0.7361    0.3442 C   0  0  0  0  0  0  0  0  0  0  0  0
   -1.3724    0.6946   -0.3102 C   0  0  1  0  0  0  0  0  0  0  0  0
   -0.7031    1.9774   -0.1505 N   0  0  0  0  0  0  0  0  0  0  0  0
   -0.5579   -0.4171    0.3569 C   0  0  1  0  0  0  0  0  0  0  0  0
   -1.3376   -1.7030    0.1225 C   0  0  0  0  0  0  0  0  0  0  0  0
    0.7628   -0.5064   -0.2076 N   0  0  0  0  0  0  0  0  0  0  0  0
    1.9467   -0.3200    0.5609 C   0  0  0  0  0  0  0  0  0  0  0  0
    1.8614   -0.0648    1.7900 O   0  0  0  0  0  0  0  0  0  0  0  0
    3.2530   -0.4381   -0.1401 C   0  0  0  0  0  0  0  0  0  0  0  0
    4.3234   -0.2396    0.6971 O   0  0  0  0  0  0  0  0  0  0  0  0
   -3.0410    1.8154    0.4734 H   0  0  0  0  0  0  0  0  0  0  0  0
   -2.7561    0.2205    1.3218 H   0  0  0  0  0  0  0  0  0  0  0  0
   -3.5101    0.2722   -0.2954 H   0  0  0  0  0  0  0  0  0  0  0  0
   -1.5154    0.4953   -1.3930 H   0  0  0  0  0  0  0  0  0  0  0  0
   -1.2300    2.6183    0.4806 H   0  0  0  0  0  0  0  0  0  0  0  0
   -0.5677    2.4713   -1.0601 H   0  0  0  0  0  0  0  0  0  0  0  0
   -0.5586   -0.1928    1.4311 H   0  0  0  0  0  0  0  0  0  0  0  0
   -0.9676   -2.5285    0.7505 H   0  0  0  0  0  0  0  0  0  0  0  0
   -2.4205   -1.5026    0.2814 H   0  0  0  0  0  0  0  0  0  0  0  0
   -1.2090   -1.9424   -0.9665 H   0  0  0  0  0  0  0  0  0  0  0  0
    0.8395   -0.7179   -1.2271 H   0  0  0  0  0  0  0  0  0  0  0  0
    3.2596    0.3030   -0.9442 H   0  0  0  0  0  0  0  0  0  0  0  0
    3.3053   -1.4468   -0.6282 H   0  0  0  0  0  0  0  0  0  0  0  0
    4.9315    0.4160    0.3160 H   0  0  0  0  0  0  0  0  0  0  0  0
  1  2  1  0
  2  3  1  0
  2  4  1  0
  4  5  1  0
  4  6  1  0
  6  7  1  0
  7  8  2  0
  7  9  1  0
  9 10  1  0
  1 11  1  0
  1 12  1  0
  1 13  1  0
  2 14  1  6
  3 15  1  0
  3 16  1  0
  4 17  1  1
  5 18  1  0
  5 19  1  0
  5 20  1  0
  6 21  1  0
  9 22  1  0
  9 23  1  0
 10 24  1  0
M  END
$$$$

     RDKit          3D

 24 23  0  0  0  0  0  0  0  0999 V2000
   -1.4277   -1.5246    0.4177 C   0  0  0  0  0  0  0  0  0  0  0  0
   -1.3603   -0.4997   -0.6963 C   0  0  1  0  0  0  0  0  0  0  0  0
   -2.6699   -0.2227   -1.2284 N   0  0  0  0  0  0  0  0  0  0  0  0
   -0.5891    0.7216   -0.3052 C   0  0  1  0  0  0  0  0  0  0  0  0
   -1.1031    1.4780    0.8473 C   0  0  0  0  0  0  0  0  0  0  0  0
    0.7768    0.2834   -0.0008 N   0  0  0  0  0  0  0  0  0  0  0  0
    1.8972    0.6634   -0.7562 C   0  0  0  0  0  0  0  0  0  0  0  0
    1.7345    1.4195   -1.7492 O   0  0  0  0  0  0  0  0  0  0  0  0
    3.2568    0.1906   -0.4034 C   0  0  0  0  0  0  0  0  0  0  0  0
    3.1811   -0.6168    0.7100 O   0  0  0  0  0  0  0  0  0  0  0  0
   -2.2561   -2.2203    0.1560 H   0  0  0  0  0  0  0  0  0  0  0  0
   -1.5056   -1.0875    1.4113 H   0  0  0  0  0  0  0  0  0  0  0  0
   -0.4935   -2.1427    0.3928 H   0  0  0  0  0  0  0  0  0  0  0  0
   -0.7873   -0.9888   -1.5229 H   0  0  0  0  0  0  0  0  0  0  0  0
   -3.2717    0.3413   -0.6286 H   0  0  0  0  0  0  0  0  0  0  0  0
   -3.1422   -1.1457   -1.3681 H   0  0  0  0  0  0  0  0  0  0  0  0
   -0.5028    1.3680   -1.2030 H   0  0  0  0  0  0  0  0  0  0  0  0
   -2.0398    1.1094    1.2949 H   0  0  0  0  0  0  0  0  0  0  0  0
   -1.3019    2.5566    0.5760 H   0  0  0  0  0  0  0  0  0  0  0  0
   -0.3637    1.5414    1.6849 H   0  0  0  0  0  0  0  0  0  0  0  0
    0.9367   -0.3505    0.8268 H   0  0  0  0  0  0  0  0  0  0  0  0
    3.8800    1.0693   -0.1700 H   0  0  0  0  0  0  0  0  0  0  0  0
    3.6698   -0.4127   -1.2382 H   0  0  0  0  0  0  0  0  0  0  0  0
    3.4819   -1.5307    0.5531 H   0  0  0  0  0  0  0  0  0  0  0  0
  1  2  1  0
  2  3  1  0
  2  4  1  0
  4  5  1  0
  4  6  1  0
  6  7  1  0
  7  8  2  0
  7  9  1  0
  9 10  1  0
  1 11  1  0
  1 12  1  0
  1 13  1  0
  2 14  1  6
  3 15  1  0
  3 16  1  0
  4 17  1  6
  5 18  1  0
  5 19  1  0
  5 20  1  0
  6 21  1  0
  9 22  1  0
  9 23  1  0
 10 24  1  0
M  END
$$$$

     RDKit          3D

 24 23  0  0  0  0  0  0  0  0999 V2000
   -1.4576   -1.0927   -1.1972 C   0  0  0  0  0  0  0  0  0  0  0  0
   -1.6422    0.0312   -0.2136 C   0  0  1  0  0  0  0  0  0  0  0  0
   -1.9350   -0.5671    1.0781 N   0  0  0  0  0  0  0  0  0  0  0  0
   -0.4025    0.9121   -0.1310 C   0  0  1  0  0  0  0  0  0  0  0  0
   -0.7160    1.9825    0.8743 C   0  0  0  0  0  0  0  0  0  0  0  0
    0.7324    0.1169    0.1847 N   0  0  0  0  0  0  0  0  0  0  0  0
    1.8370   -0.0400   -0.6920 C   0  0  0  0  0  0  0  0  0  0  0  0
    1.8651    0.5384   -1.8320 O   0  0  0  0  0  0  0  0  0  0  0  0
    3.0083   -0.8789   -0.3311 C   0  0  0  0  0  0  0  0  0  0  0  0
    2.8421   -1.4412    0.9257 O   0  0  0  0  0  0  0  0  0  0  0  0
   -2.4591   -1.5743   -1.3214 H   0  0  0  0  0  0  0  0  0  0  0  0
   -1.1399   -0.7043   -2.1854 H   0  0  0  0  0  0  0  0  0  0  0  0
   -0.7892   -1.8754   -0.7951 H   0  0  0  0  0  0  0  0  0  0  0  0
   -2.5146    0.6229   -0.5081 H   0  0  0  0  0  0  0  0  0  0  0  0
   -2.4269    0.1506    1.6905 H   0  0  0  0  0  0  0  0  0  0  0  0
   -2.6518   -1.3113    0.9095 H   0  0  0  0  0  0  0  0  0  0  0  0
   -0.2665    1.3545   -1.1245 H   0  0  0  0  0  0  0  0  0  0  0  0
   -0.8806    1.5979    1.8854 H   0  0  0  0  0  0  0  0  0  0  0  0
    0.0347    2.7826    0.9286 H   0  0  0  0  0  0  0  0  0  0  0  0
   -1.6709    2.4650    0.5540 H   0  0  0  0  0  0  0  0  0  0  0  0
    0.7657   -0.3776    1.0981 H   0  0  0  0  0  0  0  0  0  0  0  0
    3.9494   -0.2878   -0.3019 H   0  0  0  0  0  0  0  0  0  0  0  0
    3.1751   -1.6906   -1.0856 H   0  0  0  0  0  0  0  0  0  0  0  0
    2.7429   -0.7134    1.5900 H   0  0  0  0  0  0  0  0  0  0  0  0
  1  2  1  0
  2  3  1  0
  2  4  1  0
  4  5  1  0
  4  6  1  0
  6  7  1  0
  7  8  2  0
  7  9  1  0
  9 10  1  0
  1 11  1  0
  1 12  1  0
  1 13  1  0
  2 14  1  6
  3 15  1  0
  3 16  1  0
  4 17  1  6
  5 18  1  0
  5 19  1  0
  5 20  1  0
  6 21  1  0
  9 22  1  0
  9 23  1  0
 10 24  1  0
M  END
$$$$

     RDKit          3D

 24 23  0  0  0  0  0  0  0  0999 V2000
   -1.6635   -0.8281    1.5206 C   0  0  0  0  0  0  0  0  0  0  0  0
   -1.5498   -0.4333    0.0684 C   0  0  1  0  0  0  0  0  0  0  0  0
   -2.8327    0.1362   -0.3052 N   0  0  0  0  0  0  0  0  0  0  0  0
   -0.4277    0.5488   -0.1704 C   0  0  1  0  0  0  0  0  0  0  0  0
   -0.5870    1.8195    0.5901 C   0  0  0  0  0  0  0  0  0  0  0  0
    0.8696   -0.0103    0.0455 N   0  0  0  0  0  0  0  0  0  0  0  0
    1.8488   -0.1768   -0.9574 C   0  0  0  0  0  0  0  0  0  0  0  0
    1.6053    0.1744   -2.1218 O   0  0  0  0  0  0  0  0  0  0  0  0
    3.1805   -0.7672   -0.6606 C   0  0  0  0  0  0  0  0  0  0  0  0
    3.2968   -1.1097    0.6934 O   0  0  0  0  0  0  0  0  0  0  0  0
   -2.3885   -0.1643    2.0326 H   0  0  0  0  0  0  0  0  0  0  0  0
   -2.1106   -1.8475    1.5549 H   0  0  0  0  0  0  0  0  0  0  0  0
   -0.6926   -0.8870    2.0276 H   0  0  0  0  0  0  0  0  0  0  0  0
   -1.4305   -1.3529   -0.5357 H   0  0  0  0  0  0  0  0  0  0  0  0
   -2.8024    0.5178   -1.2571 H   0  0  0  0  0  0  0  0  0  0  0  0
   -3.1099    0.8776    0.3603 H   0  0  0  0  0  0  0  0  0  0  0  0
   -0.4874    0.8127   -1.2667 H   0  0  0  0  0  0  0  0  0  0  0  0
    0.3009    1.9935    1.2647 H   0  0  0  0  0  0  0  0  0  0  0  0
   -1.4778    1.8816    1.2157 H   0  0  0  0  0  0  0  0  0  0  0  0
   -0.6058    2.7271   -0.0817 H   0  0  0  0  0  0  0  0  0  0  0  0
    1.1113   -0.3189    1.0189 H   0  0  0  0  0  0  0  0  0  0  0  0
    3.2959   -1.6998   -1.2630 H   0  0  0  0  0  0  0  0  0  0  0  0
    4.0114   -0.0680   -0.9264 H   0  0  0  0  0  0  0  0  0  0  0  0
    2.6455   -1.8253    0.8875 H   0  0  0  0  0  0  0  0  0  0  0  0
  1  2  1  0
  2  3  1  0
  2  4  1  0
  4  5  1  0
  4  6  1  0
  6  7  1  0
  7  8  2  0
  7  9  1  0
  9 10  1  0
  1 11  1  0
  1 12  1  0
  1 13  1  0
  2 14  1  6
  3 15  1  0
  3 16  1  0
  4 17  1  6
  5 18  1  0
  5 19  1  0
  5 20  1  0
  6 21  1  0
  9 22  1  0
  9 23  1  0
 10 24  1  0
M  END
$$$$

     RDKit          3D

 24 23  0  0  0  0  0  0  0  0999 V2000
   -2.6853   -0.0384    0.8932 C   0  0  0  0  0  0  0  0  0  0  0  0
   -1.2356    0.3051    0.9975 C   0  0  1  0  0  0  0  0  0  0  0  0
   -0.5613   -0.6825    1.8058 N   0  0  0  0  0  0  0  0  0  0  0  0
   -0.5626    0.3063   -0.3689 C   0  0  1  0  0  0  0  0  0  0  0  0
   -1.1855    1.3045   -1.3069 C   0  0  0  0  0  0  0  0  0  0  0  0
    0.8609    0.4615   -0.2459 N   0  0  0  0  0  0  0  0  0  0  0  0
    1.7664   -0.5689   -0.6213 C   0  0  0  0  0  0  0  0  0  0  0  0
    1.2935   -1.6562   -1.0781 O   0  0  0  0  0  0  0  0  0  0  0  0
    3.2092   -0.3155   -0.4580 C   0  0  0  0  0  0  0  0  0  0  0  0
    3.9837   -1.3961   -0.8590 O   0  0  0  0  0  0  0  0  0  0  0  0
   -3.3589    0.8449    0.9715 H   0  0  0  0  0  0  0  0  0  0  0  0
   -2.9510   -0.7582    1.6948 H   0  0  0  0  0  0  0  0  0  0  0  0
   -2.9006   -0.5436   -0.0733 H   0  0  0  0  0  0  0  0  0  0  0  0
   -1.1169    1.2954    1.4496 H   0  0  0  0  0  0  0  0  0  0  0  0
   -0.7914   -0.6253    2.8165 H   0  0  0  0  0  0  0  0  0  0  0  0
   -0.6361   -1.6357    1.4200 H   0  0  0  0  0  0  0  0  0  0  0  0
   -0.7611   -0.7199   -0.7900 H   0  0  0  0  0  0  0  0  0  0  0  0
   -0.3656    1.7881   -1.8864 H   0  0  0  0  0  0  0  0  0  0  0  0
   -1.7117    2.1167   -0.7514 H   0  0  0  0  0  0  0  0  0  0  0  0
   -1.9129    0.8021   -1.9990 H   0  0  0  0  0  0  0  0  0  0  0  0
    1.2511    1.3736    0.1371 H   0  0  0  0  0  0  0  0  0  0  0  0
    3.4667   -0.0304    0.5811 H   0  0  0  0  0  0  0  0  0  0  0  0
    3.4882    0.5467   -1.1115 H   0  0  0  0  0  0  0  0  0  0  0  0
    3.4167   -2.1740   -1.0844 H   0  0  0  0  0  0  0  0  0  0  0  0
  1  2  1  0
  2  3  1  0
  2  4  1  0
  4  5  1  0
  4  6  1  0
  6  7  1  0
  7  8  2  0
  7  9  1  0
  9 10  1  0
  1 11  1  0
  1 12  1  0
  1 13  1  0
  2 14  1  1
  3 15  1  0
  3 16  1  0
  4 17  1  6
  5 18  1  0
  5 19  1  0
  5 20  1  0
  6 21  1  0
  9 22  1  0
  9 23  1  0
 10 24  1  0
M  END
$$$$

     RDKit          3D

 24 23  0  0  0  0  0  0  0  0999 V2000
   -1.8515   -0.5766   -1.2497 C   0  0  0  0  0  0  0  0  0  0  0  0
   -1.4316    0.5543   -0.3491 C   0  0  1  0  0  0  0  0  0  0  0  0
   -2.5692    1.2297    0.2259 N   0  0  0  0  0  0  0  0  0  0  0  0
   -0.4405    0.1246    0.7019 C   0  0  1  0  0  0  0  0  0  0  0  0
   -0.9934   -0.9533    1.6061 C   0  0  0  0  0  0  0  0  0  0  0  0
    0.7292   -0.4003    0.0447 N   0  0  0  0  0  0  0  0  0  0  0  0
    1.9775    0.2363    0.1975 C   0  0  0  0  0  0  0  0  0  0  0  0
    2.0139    1.2800    0.9337 O   0  0  0  0  0  0  0  0  0  0  0  0
    3.2051   -0.2768   -0.4653 C   0  0  0  0  0  0  0  0  0  0  0  0
    4.2733    0.5734   -0.1170 O   0  0  0  0  0  0  0  0  0  0  0  0
   -2.5191   -0.1118   -2.0321 H   0  0  0  0  0  0  0  0  0  0  0  0
   -2.4831   -1.3242   -0.7222 H   0  0  0  0  0  0  0  0  0  0  0  0
   -0.9791   -1.0247   -1.7318 H   0  0  0  0  0  0  0  0  0  0  0  0
   -0.9093    1.2993   -0.9923 H   0  0  0  0  0  0  0  0  0  0  0  0
   -2.3440    2.2545    0.3620 H   0  0  0  0  0  0  0  0  0  0  0  0
   -3.3409    1.1960   -0.4614 H   0  0  0  0  0  0  0  0  0  0  0  0
   -0.1684    1.0199    1.2774 H   0  0  0  0  0  0  0  0  0  0  0  0
   -1.4996   -1.7380    1.0157 H   0  0  0  0  0  0  0  0  0  0  0  0
   -0.1353   -1.4702    2.1133 H   0  0  0  0  0  0  0  0  0  0  0  0
   -1.6608   -0.4984    2.3649 H   0  0  0  0  0  0  0  0  0  0  0  0
    0.6731   -1.2702   -0.5626 H   0  0  0  0  0  0  0  0  0  0  0  0
    3.3684   -1.3102   -0.0956 H   0  0  0  0  0  0  0  0  0  0  0  0
    3.0647   -0.2791   -1.5642 H   0  0  0  0  0  0  0  0  0  0  0  0
    4.0208    1.4658   -0.5000 H   0  0  0  0  0  0  0  0  0  0  0  0
  1  2  1  0
  2  3  1  0
  2  4  1  0
  4  5  1  0
  4  6  1  0
  6  7  1  0
  7  8  2  0
  7  9  1  0
  9 10  1  0
  1 11  1  0
  1 12  1  0
  1 13  1  0
  2 14  1  6
  3 15  1  0
  3 16  1  0
  4 17  1  1
  5 18  1  0
  5 19  1  0
  5 20  1  0
  6 21  1  0
  9 22  1  0
  9 23  1  0
 10 24  1  0
M  END
$$$$

     RDKit          3D

 24 23  0  0  0  0  0  0  0  0999 V2000
   -1.2415   -1.7180    0.7644 C   0  0  0  0  0  0  0  0  0  0  0  0
   -1.7321   -0.4582    0.1021 C   0  0  1  0  0  0  0  0  0  0  0  0
   -2.3660    0.4156    1.0125 N   0  0  0  0  0  0  0  0  0  0  0  0
   -0.6090    0.1669   -0.6939 C   0  0  1  0  0  0  0  0  0  0  0  0
   -1.1649    1.4235   -1.3316 C   0  0  0  0  0  0  0  0  0  0  0  0
    0.5420    0.4575    0.1027 N   0  0  0  0  0  0  0  0  0  0  0  0
    1.7892   -0.1667   -0.2138 C   0  0  0  0  0  0  0  0  0  0  0  0
    1.8751   -0.9643   -1.1835 O   0  0  0  0  0  0  0  0  0  0  0  0
    3.0174    0.0940    0.5740 C   0  0  0  0  0  0  0  0  0  0  0  0
    4.0798   -0.6362    0.0550 O   0  0  0  0  0  0  0  0  0  0  0  0
   -1.9333   -1.9664    1.5983 H   0  0  0  0  0  0  0  0  0  0  0  0
   -1.2112   -2.5646    0.0500 H   0  0  0  0  0  0  0  0  0  0  0  0
   -0.2105   -1.6135    1.1690 H   0  0  0  0  0  0  0  0  0  0  0  0
   -2.4979   -0.7845   -0.6581 H   0  0  0  0  0  0  0  0  0  0  0  0
   -3.3542    0.6415    0.8261 H   0  0  0  0  0  0  0  0  0  0  0  0
   -1.7998    1.1871    1.3928 H   0  0  0  0  0  0  0  0  0  0  0  0
   -0.3539   -0.5507   -1.4997 H   0  0  0  0  0  0  0  0  0  0  0  0
   -1.8129    1.1459   -2.1843 H   0  0  0  0  0  0  0  0  0  0  0  0
   -1.7963    2.0088   -0.6280 H   0  0  0  0  0  0  0  0  0  0  0  0
   -0.3697    2.1063   -1.6878 H   0  0  0  0  0  0  0  0  0  0  0  0
    0.5503    1.1034    0.9171 H   0  0  0  0  0  0  0  0  0  0  0  0
    2.8359   -0.3223    1.6036 H   0  0  0  0  0  0  0  0  0  0  0  0
    3.2535    1.1803    0.6277 H   0  0  0  0  0  0  0  0  0  0  0  0
    4.5100   -0.1853   -0.7145 H   0  0  0  0  0  0  0  0  0  0  0  0
  1  2  1  0
  2  3  1  0
  2  4  1  0
  4  5  1  0
  4  6  1  0
  6  7  1  0
  7  8  2  0
  7  9  1  0
  9 10  1  0
  1 11  1  0
  1 12  1  0
  1 13  1  0
  2 14  1  6
  3 15  1  0
  3 16  1  0
  4 17  1  6
  5 18  1  0
  5 19  1  0
  5 20  1  0
  6 21  1  0
  9 22  1  0
  9 23  1  0
 10 24  1  0
M  END
$$$$
