
     RDKit          3D

 23 23  0  0  0  0  0  0  0  0999 V2000
   -3.3747    0.5987   -0.4138 C   0  0  0  0  0  0  0  0  0  0  0  0
   -2.2811    0.1390    0.9021 S   0  0  0  0  0  6  0  0  0  0  0  0
   -2.4254   -1.2899    1.2920 O   0  0  0  0  0  0  0  0  0  0  0  0
   -2.6220    0.9776    2.0999 O   0  0  0  0  0  0  0  0  0  0  0  0
   -0.6662    0.4459    0.3632 N   0  0  0  0  0  0  0  0  0  0  0  0
   -0.2693   -0.3092   -0.7897 C   0  0  0  0  0  0  0  0  0  0  0  0
    0.8501   -0.9143    0.0353 C   0  0  0  0  0  0  0  0  0  0  0  0
    2.2095   -0.4869   -0.3558 C   0  0  0  0  0  0  0  0  0  0  0  0
    3.0695   -1.3708   -0.7418 N   0  0  0  0  0  0  0  0  0  0  0  0
    2.6049    0.8722   -0.3214 N   0  0  0  0  0  0  0  0  0  0  0  0
    3.9168    1.2478   -0.2057 O   0  0  0  0  0  0  0  0  0  0  0  0
    0.2721   -0.2345    1.2407 C   0  0  0  0  0  0  0  0  0  0  0  0
   -3.3218   -0.0775   -1.2757 H   0  0  0  0  0  0  0  0  0  0  0  0
   -3.0356    1.6077   -0.7718 H   0  0  0  0  0  0  0  0  0  0  0  0
   -4.4122    0.6948   -0.0337 H   0  0  0  0  0  0  0  0  0  0  0  0
    0.1344    0.3761   -1.5820 H   0  0  0  0  0  0  0  0  0  0  0  0
   -1.0130   -1.0477   -1.1706 H   0  0  0  0  0  0  0  0  0  0  0  0
    0.7380   -2.0052    0.0966 H   0  0  0  0  0  0  0  0  0  0  0  0
    2.8636   -2.3774   -0.7956 H   0  0  0  0  0  0  0  0  0  0  0  0
    1.8344    1.5886   -0.3898 H   0  0  0  0  0  0  0  0  0  0  0  0
    4.1518    1.9427   -0.8665 H   0  0  0  0  0  0  0  0  0  0  0  0
    0.9625    0.5186    1.6884 H   0  0  0  0  0  0  0  0  0  0  0  0
   -0.1864   -0.8964    1.9956 H   0  0  0  0  0  0  0  0  0  0  0  0
  1  2  1  0
  2  3  2  0
  2  4  2  0
  2  5  1  0
  5  6  1  0
  6  7  1  0
  7  8  1  0
  8  9  2  3
  8 10  1  0
 10 11  1  0
  7 12  1  0
 12  5  1  0
  1 13  1  0
  1 14  1  0
  1 15  1  0
  6 16  1  0
  6 17  1  0
  7 18  1  0
  9 19  1  0
 10 20  1  0
 11 21  1  0
 12 22  1  0
 12 23  1  0
M  END
$$$$

     RDKit          3D

 23 23  0  0  0  0  0  0  0  0999 V2000
   -3.2664    0.2752    0.0339 C   0  0  0  0  0  0  0  0  0  0  0  0
   -2.2434   -0.4953    1.2255 S   0  0  0  0  0  6  0  0  0  0  0  0
   -2.6999   -1.9087    1.4250 O   0  0  0  0  0  0  0  0  0  0  0  0
   -2.4435    0.2330    2.5423 O   0  0  0  0  0  0  0  0  0  0  0  0
   -0.5711   -0.4255    0.8647 N   0  0  0  0  0  0  0  0  0  0  0  0
   -0.1666   -1.0787   -0.3592 C   0  0  0  0  0  0  0  0  0  0  0  0
    0.8869   -0.0090   -0.5015 C   0  0  0  0  0  0  0  0  0  0  0  0
    2.1690   -0.2173    0.1804 C   0  0  0  0  0  0  0  0  0  0  0  0
    2.3879   -1.2020    0.9557 N   0  0  0  0  0  0  0  0  0  0  0  0
    3.2204    0.7205   -0.0141 N   0  0  0  0  0  0  0  0  0  0  0  0
    4.2011    0.8339    0.9172 O   0  0  0  0  0  0  0  0  0  0  0  0
   -0.1137    0.8286    0.2932 C   0  0  0  0  0  0  0  0  0  0  0  0
   -3.7155   -0.4966   -0.6568 H   0  0  0  0  0  0  0  0  0  0  0  0
   -4.1675    0.7826    0.4891 H   0  0  0  0  0  0  0  0  0  0  0  0
   -2.7877    1.0213   -0.5967 H   0  0  0  0  0  0  0  0  0  0  0  0
    0.2855   -2.0683   -0.2996 H   0  0  0  0  0  0  0  0  0  0  0  0
   -0.9380   -1.0739   -1.1628 H   0  0  0  0  0  0  0  0  0  0  0  0
    0.9860    0.2971   -1.5592 H   0  0  0  0  0  0  0  0  0  0  0  0
    1.6482   -1.9017    1.1320 H   0  0  0  0  0  0  0  0  0  0  0  0
    3.2841    1.3405   -0.8491 H   0  0  0  0  0  0  0  0  0  0  0  0
    4.4714    1.7736    0.9690 H   0  0  0  0  0  0  0  0  0  0  0  0
    0.3574    1.4381    1.0869 H   0  0  0  0  0  0  0  0  0  0  0  0
   -0.7844    1.3326   -0.3981 H   0  0  0  0  0  0  0  0  0  0  0  0
  1  2  1  0
  2  3  2  0
  2  4  2  0
  2  5  1  0
  5  6  1  0
  6  7  1  0
  7  8  1  0
  8  9  2  3
  8 10  1  0
 10 11  1  0
  7 12  1  0
 12  5  1  0
  1 13  1  0
  1 14  1  0
  1 15  1  0
  6 16  1  0
  6 17  1  0
  7 18  1  0
  9 19  1  0
 10 20  1  0
 11 21  1  0
 12 22  1  0
 12 23  1  0
M  END
$$$$

     RDKit          3D

 23 23  0  0  0  0  0  0  0  0999 V2000
   -3.3583   -0.1476    1.1526 C   0  0  0  0  0  0  0  0  0  0  0  0
   -2.1181    1.0249    0.7483 S   0  0  0  0  0  6  0  0  0  0  0  0
   -2.7940    2.3024    0.3375 O   0  0  0  0  0  0  0  0  0  0  0  0
   -1.2971    1.3177    1.9712 O   0  0  0  0  0  0  0  0  0  0  0  0
   -1.1013    0.5321   -0.5341 N   0  0  0  0  0  0  0  0  0  0  0  0
   -0.3325   -0.6712   -0.3074 C   0  0  0  0  0  0  0  0  0  0  0  0
    0.7813   -0.0189   -1.1153 C   0  0  0  0  0  0  0  0  0  0  0  0
    2.1345   -0.2623   -0.6287 C   0  0  0  0  0  0  0  0  0  0  0  0
    2.8839    0.7165   -0.2732 N   0  0  0  0  0  0  0  0  0  0  0  0
    2.6862   -1.5780   -0.5243 N   0  0  0  0  0  0  0  0  0  0  0  0
    3.8104   -1.8327    0.1804 O   0  0  0  0  0  0  0  0  0  0  0  0
    0.1562    1.2546   -0.5864 C   0  0  0  0  0  0  0  0  0  0  0  0
   -3.8598    0.1899    2.0828 H   0  0  0  0  0  0  0  0  0  0  0  0
   -2.9521   -1.1573    1.3751 H   0  0  0  0  0  0  0  0  0  0  0  0
   -4.1335   -0.1777    0.3440 H   0  0  0  0  0  0  0  0  0  0  0  0
   -0.7867   -1.5201   -0.8929 H   0  0  0  0  0  0  0  0  0  0  0  0
   -0.0614   -0.8919    0.7234 H   0  0  0  0  0  0  0  0  0  0  0  0
    0.6346   -0.1276   -2.2094 H   0  0  0  0  0  0  0  0  0  0  0  0
    2.5092    1.6792   -0.3388 H   0  0  0  0  0  0  0  0  0  0  0  0
    2.1783   -2.3382   -1.0201 H   0  0  0  0  0  0  0  0  0  0  0  0
    4.3059   -0.9956    0.3615 H   0  0  0  0  0  0  0  0  0  0  0  0
    0.5517    1.5064    0.4313 H   0  0  0  0  0  0  0  0  0  0  0  0
    0.1626    2.1096   -1.2775 H   0  0  0  0  0  0  0  0  0  0  0  0
  1  2  1  0
  2  3  2  0
  2  4  2  0
  2  5  1  0
  5  6  1  0
  6  7  1  0
  7  8  1  0
  8  9  2  3
  8 10  1  0
 10 11  1  0
  7 12  1  0
 12  5  1  0
  1 13  1  0
  1 14  1  0
  1 15  1  0
  6 16  1  0
  6 17  1  0
  7 18  1  0
  9 19  1  0
 10 20  1  0
 11 21  1  0
 12 22  1  0
 12 23  1  0
M  END
$$$$

     RDKit          3D

 23 23  0  0  0  0  0  0  0  0999 V2000
    3.4780    0.0618    0.0025 C   0  0  0  0  0  0  0  0  0  0  0  0
    2.1972    0.0740   -1.2331 S   0  0  0  0  0  6  0  0  0  0  0  0
    1.8545   -1.3419   -1.6130 O   0  0  0  0  0  0  0  0  0  0  0  0
    2.6167    0.8852   -2.4061 O   0  0  0  0  0  0  0  0  0  0  0  0
    0.8077    0.8167   -0.4760 N   0  0  0  0  0  0  0  0  0  0  0  0
    0.3164    0.1009    0.6612 C   0  0  0  0  0  0  0  0  0  0  0  0
   -0.6530   -0.6294   -0.2107 C   0  0  0  0  0  0  0  0  0  0  0  0
   -2.0713   -0.6167    0.2659 C   0  0  0  0  0  0  0  0  0  0  0  0
   -2.7191   -1.7001    0.5425 N   0  0  0  0  0  0  0  0  0  0  0  0
   -2.7686    0.6119    0.4340 N   0  0  0  0  0  0  0  0  0  0  0  0
   -4.1404    0.6106    0.4452 O   0  0  0  0  0  0  0  0  0  0  0  0
   -0.3687    0.4619   -1.2053 C   0  0  0  0  0  0  0  0  0  0  0  0
    4.4693   -0.1223   -0.4337 H   0  0  0  0  0  0  0  0  0  0  0  0
    3.4962    1.0703    0.4581 H   0  0  0  0  0  0  0  0  0  0  0  0
    3.1926   -0.6724    0.7816 H   0  0  0  0  0  0  0  0  0  0  0  0
    1.0456   -0.5205    1.2178 H   0  0  0  0  0  0  0  0  0  0  0  0
   -0.2441    0.8066    1.3385 H   0  0  0  0  0  0  0  0  0  0  0  0
   -0.3183   -1.6375   -0.4997 H   0  0  0  0  0  0  0  0  0  0  0  0
   -2.2195   -2.6296    0.4247 H   0  0  0  0  0  0  0  0  0  0  0  0
   -2.2415    1.5066    0.5479 H   0  0  0  0  0  0  0  0  0  0  0  0
   -4.4060    1.4987    0.0965 H   0  0  0  0  0  0  0  0  0  0  0  0
   -1.1486    1.2572   -1.1564 H   0  0  0  0  0  0  0  0  0  0  0  0
   -0.1751    0.1080   -2.2442 H   0  0  0  0  0  0  0  0  0  0  0  0
  1  2  1  0
  2  3  2  0
  2  4  2  0
  2  5  1  0
  5  6  1  0
  6  7  1  0
  7  8  1  0
  8  9  2  3
  8 10  1  0
 10 11  1  0
  7 12  1  0
 12  5  1  0
  1 13  1  0
  1 14  1  0
  1 15  1  0
  6 16  1  0
  6 17  1  0
  7 18  1  0
  9 19  1  0
 10 20  1  0
 11 21  1  0
 12 22  1  0
 12 23  1  0
M  END
$$$$

     RDKit          3D

 23 23  0  0  0  0  0  0  0  0999 V2000
   -2.6250   -0.3836    1.0616 C   0  0  0  0  0  0  0  0  0  0  0  0
   -2.5549    0.7199   -0.3335 S   0  0  0  0  0  6  0  0  0  0  0  0
   -2.8424    2.1022    0.1921 O   0  0  0  0  0  0  0  0  0  0  0  0
   -3.5772    0.2764   -1.3105 O   0  0  0  0  0  0  0  0  0  0  0  0
   -1.0067    0.7269   -1.0753 N   0  0  0  0  0  0  0  0  0  0  0  0
    0.0737    1.1709   -0.2226 C   0  0  0  0  0  0  0  0  0  0  0  0
    0.5154   -0.2450    0.0529 C   0  0  0  0  0  0  0  0  0  0  0  0
    1.9297   -0.5436   -0.1860 C   0  0  0  0  0  0  0  0  0  0  0  0
    2.3493   -1.4294   -1.0256 N   0  0  0  0  0  0  0  0  0  0  0  0
    2.9160    0.1922    0.5579 N   0  0  0  0  0  0  0  0  0  0  0  0
    4.1895    0.1545    0.1182 O   0  0  0  0  0  0  0  0  0  0  0  0
   -0.3494   -0.5698   -1.1380 C   0  0  0  0  0  0  0  0  0  0  0  0
   -3.6757   -0.3726    1.4206 H   0  0  0  0  0  0  0  0  0  0  0  0
   -1.9813   -0.0515    1.8783 H   0  0  0  0  0  0  0  0  0  0  0  0
   -2.3170   -1.4214    0.7869 H   0  0  0  0  0  0  0  0  0  0  0  0
   -0.3535    1.6367    0.6918 H   0  0  0  0  0  0  0  0  0  0  0  0
    0.8182    1.7937   -0.7586 H   0  0  0  0  0  0  0  0  0  0  0  0
    0.1716   -0.6688    1.0156 H   0  0  0  0  0  0  0  0  0  0  0  0
    1.6443   -1.9673   -1.5687 H   0  0  0  0  0  0  0  0  0  0  0  0
    2.6494    0.7400    1.4152 H   0  0  0  0  0  0  0  0  0  0  0  0
    4.8312    0.2326    0.8687 H   0  0  0  0  0  0  0  0  0  0  0  0
    0.1776   -0.6551   -2.1044 H   0  0  0  0  0  0  0  0  0  0  0  0
   -0.9827   -1.4376   -0.9251 H   0  0  0  0  0  0  0  0  0  0  0  0
  1  2  1  0
  2  3  2  0
  2  4  2  0
  2  5  1  0
  5  6  1  0
  6  7  1  0
  7  8  1  0
  8  9  2  3
  8 10  1  0
 10 11  1  0
  7 12  1  0
 12  5  1  0
  1 13  1  0
  1 14  1  0
  1 15  1  0
  6 16  1  0
  6 17  1  0
  7 18  1  0
  9 19  1  0
 10 20  1  0
 11 21  1  0
 12 22  1  0
 12 23  1  0
M  END
$$$$

     RDKit          3D

 23 23  0  0  0  0  0  0  0  0999 V2000
    3.3920    0.5340   -0.4990 C   0  0  0  0  0  0  0  0  0  0  0  0
    2.1633    0.6519    0.8078 S   0  0  0  0  0  6  0  0  0  0  0  0
    2.9019    0.6616    2.1176 O   0  0  0  0  0  0  0  0  0  0  0  0
    1.4934    1.9710    0.6376 O   0  0  0  0  0  0  0  0  0  0  0  0
    1.1294   -0.6963    0.6563 N   0  0  0  0  0  0  0  0  0  0  0  0
    0.4183   -0.7299   -0.6132 C   0  0  0  0  0  0  0  0  0  0  0  0
   -0.7023    0.0218    0.0490 C   0  0  0  0  0  0  0  0  0  0  0  0
   -2.0535   -0.3457   -0.3507 C   0  0  0  0  0  0  0  0  0  0  0  0
   -2.2537   -1.2070   -1.2666 N   0  0  0  0  0  0  0  0  0  0  0  0
   -3.1825    0.2551    0.2667 N   0  0  0  0  0  0  0  0  0  0  0  0
   -4.4248    0.2403   -0.3041 O   0  0  0  0  0  0  0  0  0  0  0  0
   -0.1562   -0.5924    1.3160 C   0  0  0  0  0  0  0  0  0  0  0  0
    3.7571    1.5330   -0.7876 H   0  0  0  0  0  0  0  0  0  0  0  0
    4.2217   -0.0731   -0.0860 H   0  0  0  0  0  0  0  0  0  0  0  0
    2.9650   -0.0263   -1.3442 H   0  0  0  0  0  0  0  0  0  0  0  0
    0.9362   -0.1852   -1.4312 H   0  0  0  0  0  0  0  0  0  0  0  0
    0.1419   -1.7700   -0.8630 H   0  0  0  0  0  0  0  0  0  0  0  0
   -0.5892    1.1307    0.0430 H   0  0  0  0  0  0  0  0  0  0  0  0
   -1.6036   -1.7417   -1.8301 H   0  0  0  0  0  0  0  0  0  0  0  0
   -3.0162    0.7226    1.2041 H   0  0  0  0  0  0  0  0  0  0  0  0
   -4.8060    1.1674   -0.3415 H   0  0  0  0  0  0  0  0  0  0  0  0
   -0.1464    0.0853    2.2025 H   0  0  0  0  0  0  0  0  0  0  0  0
   -0.5857   -1.6072    1.5184 H   0  0  0  0  0  0  0  0  0  0  0  0
  1  2  1  0
  2  3  2  0
  2  4  2  0
  2  5  1  0
  5  6  1  0
  6  7  1  0
  7  8  1  0
  8  9  2  3
  8 10  1  0
 10 11  1  0
  7 12  1  0
 12  5  1  0
  1 13  1  0
  1 14  1  0
  1 15  1  0
  6 16  1  0
  6 17  1  0
  7 18  1  0
  9 19  1  0
 10 20  1  0
 11 21  1  0
 12 22  1  0
 12 23  1  0
M  END
$$$$

     RDKit          3D

 23 23  0  0  0  0  0  0  0  0999 V2000
    3.4269   -0.7869   -0.3920 C   0  0  0  0  0  0  0  0  0  0  0  0
    2.2901   -0.2524    0.8950 S   0  0  0  0  0  6  0  0  0  0  0  0
    1.8053   -1.4331    1.6631 O   0  0  0  0  0  0  0  0  0  0  0  0
    3.0624    0.6992    1.7652 O   0  0  0  0  0  0  0  0  0  0  0  0
    1.0409    0.6232    0.1242 N   0  0  0  0  0  0  0  0  0  0  0  0
    0.2490   -0.1036   -0.8357 C   0  0  0  0  0  0  0  0  0  0  0  0
   -0.8835    0.8627   -0.4615 C   0  0  0  0  0  0  0  0  0  0  0  0
   -2.2209    0.3187   -0.5096 C   0  0  0  0  0  0  0  0  0  0  0  0
   -3.0961    0.8321   -1.2892 N   0  0  0  0  0  0  0  0  0  0  0  0
   -2.5917   -0.7808    0.2935 N   0  0  0  0  0  0  0  0  0  0  0  0
   -3.9009   -0.9894    0.6389 O   0  0  0  0  0  0  0  0  0  0  0  0
   -0.1775    0.7877    0.8985 C   0  0  0  0  0  0  0  0  0  0  0  0
    3.9837    0.1242   -0.7452 H   0  0  0  0  0  0  0  0  0  0  0  0
    2.8806   -1.2773   -1.2141 H   0  0  0  0  0  0  0  0  0  0  0  0
    4.1964   -1.4614    0.0169 H   0  0  0  0  0  0  0  0  0  0  0  0
   -0.0691   -1.1247   -0.5249 H   0  0  0  0  0  0  0  0  0  0  0  0
    0.5521   -0.0034   -1.8801 H   0  0  0  0  0  0  0  0  0  0  0  0
   -0.7301    1.8721   -0.8840 H   0  0  0  0  0  0  0  0  0  0  0  0
   -2.9306    1.6380   -1.9188 H   0  0  0  0  0  0  0  0  0  0  0  0
   -1.8727   -1.4715    0.6495 H   0  0  0  0  0  0  0  0  0  0  0  0
   -4.3552   -0.1087    0.7950 H   0  0  0  0  0  0  0  0  0  0  0  0
   -0.4231   -0.1431    1.4377 H   0  0  0  0  0  0  0  0  0  0  0  0
   -0.2360    1.7190    1.4775 H   0  0  0  0  0  0  0  0  0  0  0  0
  1  2  1  0
  2  3  2  0
  2  4  2  0
  2  5  1  0
  5  6  1  0
  6  7  1  0
  7  8  1  0
  8  9  2  3
  8 10  1  0
 10 11  1  0
  7 12  1  0
 12  5  1  0
  1 13  1  0
  1 14  1  0
  1 15  1  0
  6 16  1  0
  6 17  1  0
  7 18  1  0
  9 19  1  0
 10 20  1  0
 11 21  1  0
 12 22  1  0
 12 23  1  0
M  END
$$$$

     RDKit          3D

 23 23  0  0  0  0  0  0  0  0999 V2000
   -3.5191    0.1668   -0.3179 C   0  0  0  0  0  0  0  0  0  0  0  0
   -2.1204    1.2161   -0.0454 S   0  0  0  0  0  6  0  0  0  0  0  0
   -2.5683    2.5242    0.4922 O   0  0  0  0  0  0  0  0  0  0  0  0
   -1.4994    1.4729   -1.4111 O   0  0  0  0  0  0  0  0  0  0  0  0
   -0.9535    0.4385    0.9162 N   0  0  0  0  0  0  0  0  0  0  0  0
   -0.4456   -0.7766    0.2571 C   0  0  0  0  0  0  0  0  0  0  0  0
    0.8909   -0.4835    0.8877 C   0  0  0  0  0  0  0  0  0  0  0  0
    2.0097   -0.8507    0.0319 C   0  0  0  0  0  0  0  0  0  0  0  0
    1.8738   -1.4226   -1.1046 N   0  0  0  0  0  0  0  0  0  0  0  0
    3.3654   -0.5880    0.4389 N   0  0  0  0  0  0  0  0  0  0  0  0
    4.2830   -0.4277   -0.5394 O   0  0  0  0  0  0  0  0  0  0  0  0
    0.4059    0.9513    0.8271 C   0  0  0  0  0  0  0  0  0  0  0  0
   -4.3570    0.6828   -0.7941 H   0  0  0  0  0  0  0  0  0  0  0  0
   -3.7988   -0.2632    0.6880 H   0  0  0  0  0  0  0  0  0  0  0  0
   -3.2718   -0.7183   -0.9440 H   0  0  0  0  0  0  0  0  0  0  0  0
   -0.5362   -0.6397   -0.8181 H   0  0  0  0  0  0  0  0  0  0  0  0
   -0.8662   -1.7069    0.6839 H   0  0  0  0  0  0  0  0  0  0  0  0
    0.9563   -0.7951    1.9527 H   0  0  0  0  0  0  0  0  0  0  0  0
    0.9893   -1.6978   -1.5651 H   0  0  0  0  0  0  0  0  0  0  0  0
    3.6079   -0.5276    1.4584 H   0  0  0  0  0  0  0  0  0  0  0  0
    4.1710    0.4713   -0.9490 H   0  0  0  0  0  0  0  0  0  0  0  0
    0.6498    1.4288   -0.1421 H   0  0  0  0  0  0  0  0  0  0  0  0
    0.7335    1.5453    1.6970 H   0  0  0  0  0  0  0  0  0  0  0  0
  1  2  1  0
  2  3  2  0
  2  4  2  0
  2  5  1  0
  5  6  1  0
  6  7  1  0
  7  8  1  0
  8  9  2  3
  8 10  1  0
 10 11  1  0
  7 12  1  0
 12  5  1  0
  1 13  1  0
  1 14  1  0
  1 15  1  0
  6 16  1  0
  6 17  1  0
  7 18  1  0
  9 19  1  0
 10 20  1  0
 11 21  1  0
 12 22  1  0
 12 23  1  0
M  END
$$$$
