
     RDKit          3D

 30 30  0  0  0  0  0  0  0  0999 V2000
    4.8783   -0.3657   -0.0628 N   0  0  0  0  0  0  0  0  0  0  0  0
    3.4675   -0.3684   -0.4211 C   0  0  0  0  0  0  0  0  0  0  0  0
    2.8149    0.9262   -0.0666 C   0  0  0  0  0  0  0  0  0  0  0  0
    1.4304    0.9037   -0.4353 N   0  0  0  0  0  0  0  0  0  0  0  0
    0.5394   -0.0232    0.1197 C   0  0  0  0  0  0  0  0  0  0  0  0
    0.9291   -0.8582    0.9596 O   0  0  0  0  0  0  0  0  0  0  0  0
   -0.8843   -0.0231   -0.2863 C   0  0  2  0  0  0  0  0  0  0  0  0
   -1.5808    1.2779    0.0072 C   0  0  0  0  0  0  0  0  0  0  0  0
   -2.9791    1.1748   -0.5944 C   0  0  0  0  0  0  0  0  0  0  0  0
   -3.6663    0.1019   -0.0811 O   0  0  0  0  0  0  0  0  0  0  0  0
   -3.0564   -1.1177   -0.3244 C   0  0  0  0  0  0  0  0  0  0  0  0
   -1.6736   -1.1300    0.3422 C   0  0  2  0  0  0  0  0  0  0  0  0
   -1.8671   -0.9337    1.7562 N   0  0  0  0  0  0  0  0  0  0  0  0
    5.1369    0.3812    0.5889 H   0  0  0  0  0  0  0  0  0  0  0  0
    5.1910   -1.3122    0.1683 H   0  0  0  0  0  0  0  0  0  0  0  0
    3.3200   -0.5811   -1.4981 H   0  0  0  0  0  0  0  0  0  0  0  0
    3.0228   -1.2042    0.1447 H   0  0  0  0  0  0  0  0  0  0  0  0
    3.3440    1.7362   -0.6190 H   0  0  0  0  0  0  0  0  0  0  0  0
    2.9165    1.1559    1.0240 H   0  0  0  0  0  0  0  0  0  0  0  0
    1.0823    1.5930   -1.1315 H   0  0  0  0  0  0  0  0  0  0  0  0
   -0.9345   -0.1760   -1.3976 H   0  0  0  0  0  0  0  0  0  0  0  0
   -1.0622    2.1507   -0.3993 H   0  0  0  0  0  0  0  0  0  0  0  0
   -1.6990    1.3306    1.1261 H   0  0  0  0  0  0  0  0  0  0  0  0
   -2.8578    1.0500   -1.6878 H   0  0  0  0  0  0  0  0  0  0  0  0
   -3.5217    2.0949   -0.3100 H   0  0  0  0  0  0  0  0  0  0  0  0
   -2.8395   -1.2272   -1.4245 H   0  0  0  0  0  0  0  0  0  0  0  0
   -3.6908   -1.9299    0.0264 H   0  0  0  0  0  0  0  0  0  0  0  0
   -1.2251   -2.1188    0.1171 H   0  0  0  0  0  0  0  0  0  0  0  0
   -1.6808   -1.8426    2.2697 H   0  0  0  0  0  0  0  0  0  0  0  0
   -2.8540   -0.6650    1.9704 H   0  0  0  0  0  0  0  0  0  0  0  0
  1  2  1  0
  2  3  1  0
  3  4  1  0
  4  5  1  0
  5  6  2  0
  5  7  1  0
  7  8  1  0
  8  9  1  0
  9 10  1  0
 10 11  1  0
 11 12  1  0
 12 13  1  0
 12  7  1  0
  1 14  1  0
  1 15  1  0
  2 16  1  0
  2 17  1  0
  3 18  1  0
  3 19  1  0
  4 20  1  0
  7 21  1  6
  8 22  1  0
  8 23  1  0
  9 24  1  0
  9 25  1  0
 11 26  1  0
 11 27  1  0
 12 28  1  1
 13 29  1  0
 13 30  1  0
M  END
$$$$

     RDKit          3D

 30 30  0  0  0  0  0  0  0  0999 V2000
    2.6400   -0.6944    1.3820 N   0  0  0  0  0  0  0  0  0  0  0  0
    3.2480    0.3817    0.6483 C   0  0  0  0  0  0  0  0  0  0  0  0
    2.8328    0.5075   -0.7685 C   0  0  0  0  0  0  0  0  0  0  0  0
    1.4391    0.7455   -1.0242 N   0  0  0  0  0  0  0  0  0  0  0  0
    0.3551   -0.0988   -0.6976 C   0  0  0  0  0  0  0  0  0  0  0  0
    0.6126   -1.1797   -0.1288 O   0  0  0  0  0  0  0  0  0  0  0  0
   -1.0592    0.2377   -0.9970 C   0  0  2  0  0  0  0  0  0  0  0  0
   -1.5193    1.4981   -0.3390 C   0  0  0  0  0  0  0  0  0  0  0  0
   -2.0173    1.2661    1.0761 C   0  0  0  0  0  0  0  0  0  0  0  0
   -1.3820    0.1255    1.5605 O   0  0  0  0  0  0  0  0  0  0  0  0
   -1.8534   -1.0280    0.9346 C   0  0  0  0  0  0  0  0  0  0  0  0
   -1.9697   -0.8827   -0.5516 C   0  0  2  0  0  0  0  0  0  0  0  0
   -1.6446   -2.0986   -1.2615 N   0  0  0  0  0  0  0  0  0  0  0  0
    3.3161   -1.3494    1.8249 H   0  0  0  0  0  0  0  0  0  0  0  0
    1.9719   -0.3471    2.1244 H   0  0  0  0  0  0  0  0  0  0  0  0
    3.1296    1.3161    1.2388 H   0  0  0  0  0  0  0  0  0  0  0  0
    4.3567    0.1520    0.6554 H   0  0  0  0  0  0  0  0  0  0  0  0
    3.1986   -0.4133   -1.2931 H   0  0  0  0  0  0  0  0  0  0  0  0
    3.4209    1.3434   -1.2539 H   0  0  0  0  0  0  0  0  0  0  0  0
    1.1700    1.6501   -1.5112 H   0  0  0  0  0  0  0  0  0  0  0  0
   -1.2294    0.3517   -2.1009 H   0  0  0  0  0  0  0  0  0  0  0  0
   -0.7757    2.3182   -0.3844 H   0  0  0  0  0  0  0  0  0  0  0  0
   -2.4090    1.8633   -0.9147 H   0  0  0  0  0  0  0  0  0  0  0  0
   -3.1086    1.0764    1.1037 H   0  0  0  0  0  0  0  0  0  0  0  0
   -1.8000    2.1022    1.7523 H   0  0  0  0  0  0  0  0  0  0  0  0
   -2.8632   -1.3074    1.3520 H   0  0  0  0  0  0  0  0  0  0  0  0
   -1.1836   -1.8563    1.2070 H   0  0  0  0  0  0  0  0  0  0  0  0
   -3.0102   -0.5652   -0.7951 H   0  0  0  0  0  0  0  0  0  0  0  0
   -1.6815   -2.9487   -0.6880 H   0  0  0  0  0  0  0  0  0  0  0  0
   -2.1844   -2.1662   -2.1503 H   0  0  0  0  0  0  0  0  0  0  0  0
  1  2  1  0
  2  3  1  0
  3  4  1  0
  4  5  1  0
  5  6  2  0
  5  7  1  0
  7  8  1  0
  8  9  1  0
  9 10  1  0
 10 11  1  0
 11 12  1  0
 12 13  1  0
 12  7  1  0
  1 14  1  0
  1 15  1  0
  2 16  1  0
  2 17  1  0
  3 18  1  0
  3 19  1  0
  4 20  1  0
  7 21  1  6
  8 22  1  0
  8 23  1  0
  9 24  1  0
  9 25  1  0
 11 26  1  0
 11 27  1  0
 12 28  1  1
 13 29  1  0
 13 30  1  0
M  END
$$$$

     RDKit          3D

 30 30  0  0  0  0  0  0  0  0999 V2000
    4.3203   -0.2714   -0.0238 N   0  0  0  0  0  0  0  0  0  0  0  0
    3.7806    0.9573    0.5293 C   0  0  0  0  0  0  0  0  0  0  0  0
    2.4784    0.7157    1.2606 C   0  0  0  0  0  0  0  0  0  0  0  0
    1.5281    0.1703    0.3450 N   0  0  0  0  0  0  0  0  0  0  0  0
    0.1931   -0.1807    0.6890 C   0  0  0  0  0  0  0  0  0  0  0  0
   -0.1447    0.0154    1.8945 O   0  0  0  0  0  0  0  0  0  0  0  0
   -0.7260   -0.7349   -0.3016 C   0  0  2  0  0  0  0  0  0  0  0  0
   -0.9895    0.1558   -1.4763 C   0  0  0  0  0  0  0  0  0  0  0  0
   -2.1488    1.0964   -1.2684 C   0  0  0  0  0  0  0  0  0  0  0  0
   -3.2922    0.4831   -0.8238 O   0  0  0  0  0  0  0  0  0  0  0  0
   -3.1554   -0.8779   -0.6791 C   0  0  0  0  0  0  0  0  0  0  0  0
   -2.0439   -1.1096    0.3428 C   0  0  2  0  0  0  0  0  0  0  0  0
   -2.3189   -0.3698    1.5368 N   0  0  0  0  0  0  0  0  0  0  0  0
    4.4442   -0.2204   -1.0660 H   0  0  0  0  0  0  0  0  0  0  0  0
    3.6884   -1.0882    0.1658 H   0  0  0  0  0  0  0  0  0  0  0  0
    3.6611    1.6652   -0.3157 H   0  0  0  0  0  0  0  0  0  0  0  0
    4.5386    1.4428    1.2075 H   0  0  0  0  0  0  0  0  0  0  0  0
    2.1232    1.7060    1.6188 H   0  0  0  0  0  0  0  0  0  0  0  0
    2.6631    0.0982    2.1459 H   0  0  0  0  0  0  0  0  0  0  0  0
    1.7934    0.0065   -0.6408 H   0  0  0  0  0  0  0  0  0  0  0  0
   -0.2920   -1.7071   -0.6801 H   0  0  0  0  0  0  0  0  0  0  0  0
   -1.1206   -0.4779   -2.3787 H   0  0  0  0  0  0  0  0  0  0  0  0
   -0.1024    0.8104   -1.7203 H   0  0  0  0  0  0  0  0  0  0  0  0
   -1.8301    1.8844   -0.5625 H   0  0  0  0  0  0  0  0  0  0  0  0
   -2.3548    1.5638   -2.2686 H   0  0  0  0  0  0  0  0  0  0  0  0
   -2.8879   -1.3270   -1.6566 H   0  0  0  0  0  0  0  0  0  0  0  0
   -4.0962   -1.3342   -0.3550 H   0  0  0  0  0  0  0  0  0  0  0  0
   -2.0865   -2.1902    0.5979 H   0  0  0  0  0  0  0  0  0  0  0  0
   -3.2684    0.0964    1.4944 H   0  0  0  0  0  0  0  0  0  0  0  0
   -2.3543   -0.9784    2.3890 H   0  0  0  0  0  0  0  0  0  0  0  0
  1  2  1  0
  2  3  1  0
  3  4  1  0
  4  5  1  0
  5  6  2  0
  5  7  1  0
  7  8  1  0
  8  9  1  0
  9 10  1  0
 10 11  1  0
 11 12  1  0
 12 13  1  0
 12  7  1  0
  1 14  1  0
  1 15  1  0
  2 16  1  0
  2 17  1  0
  3 18  1  0
  3 19  1  0
  4 20  1  0
  7 21  1  6
  8 22  1  0
  8 23  1  0
  9 24  1  0
  9 25  1  0
 11 26  1  0
 11 27  1  0
 12 28  1  1
 13 29  1  0
 13 30  1  0
M  END
$$$$

     RDKit          3D

 30 30  0  0  0  0  0  0  0  0999 V2000
    4.7545    0.4735   -0.3544 N   0  0  0  0  0  0  0  0  0  0  0  0
    3.4663   -0.2248   -0.2468 C   0  0  0  0  0  0  0  0  0  0  0  0
    2.4187    0.8629   -0.0368 C   0  0  0  0  0  0  0  0  0  0  0  0
    1.0999    0.3152    0.0854 N   0  0  0  0  0  0  0  0  0  0  0  0
    0.0127    1.2211    0.2868 C   0  0  0  0  0  0  0  0  0  0  0  0
    0.2735    2.4514    0.3460 O   0  0  0  0  0  0  0  0  0  0  0  0
   -1.3765    0.7978    0.4268 C   0  0  2  0  0  0  0  0  0  0  0  0
   -1.4515   -0.1267    1.6318 C   0  0  0  0  0  0  0  0  0  0  0  0
   -2.3515   -1.2966    1.3717 C   0  0  0  0  0  0  0  0  0  0  0  0
   -3.5236   -0.7674    0.7893 O   0  0  0  0  0  0  0  0  0  0  0  0
   -3.2225   -0.5859   -0.5617 C   0  0  0  0  0  0  0  0  0  0  0  0
   -1.9690    0.1819   -0.8022 C   0  0  2  0  0  0  0  0  0  0  0  0
   -1.0101   -0.7027   -1.4817 N   0  0  0  0  0  0  0  0  0  0  0  0
    4.6384    1.4322   -0.7379 H   0  0  0  0  0  0  0  0  0  0  0  0
    5.4680   -0.0952   -0.8335 H   0  0  0  0  0  0  0  0  0  0  0  0
    3.2393   -0.8198   -1.1371 H   0  0  0  0  0  0  0  0  0  0  0  0
    3.5575   -0.8635    0.6551 H   0  0  0  0  0  0  0  0  0  0  0  0
    2.7252    1.3772    0.9212 H   0  0  0  0  0  0  0  0  0  0  0  0
    2.5010    1.6245   -0.8339 H   0  0  0  0  0  0  0  0  0  0  0  0
    0.8674   -0.7001    0.0388 H   0  0  0  0  0  0  0  0  0  0  0  0
   -1.9941    1.6778    0.6888 H   0  0  0  0  0  0  0  0  0  0  0  0
   -1.8239    0.3945    2.5359 H   0  0  0  0  0  0  0  0  0  0  0  0
   -0.4449   -0.5177    1.8950 H   0  0  0  0  0  0  0  0  0  0  0  0
   -1.9332   -1.9918    0.6256 H   0  0  0  0  0  0  0  0  0  0  0  0
   -2.5925   -1.7889    2.3312 H   0  0  0  0  0  0  0  0  0  0  0  0
   -4.1010   -0.0717   -1.0041 H   0  0  0  0  0  0  0  0  0  0  0  0
   -3.2038   -1.6031   -1.0205 H   0  0  0  0  0  0  0  0  0  0  0  0
   -2.1903    0.9806   -1.5408 H   0  0  0  0  0  0  0  0  0  0  0  0
   -1.4887   -1.4743   -1.9826 H   0  0  0  0  0  0  0  0  0  0  0  0
   -0.3454   -0.1601   -2.0553 H   0  0  0  0  0  0  0  0  0  0  0  0
  1  2  1  0
  2  3  1  0
  3  4  1  0
  4  5  1  0
  5  6  2  0
  5  7  1  0
  7  8  1  0
  8  9  1  0
  9 10  1  0
 10 11  1  0
 11 12  1  0
 12 13  1  0
 12  7  1  0
  1 14  1  0
  1 15  1  0
  2 16  1  0
  2 17  1  0
  3 18  1  0
  3 19  1  0
  4 20  1  0
  7 21  1  1
  8 22  1  0
  8 23  1  0
  9 24  1  0
  9 25  1  0
 11 26  1  0
 11 27  1  0
 12 28  1  6
 13 29  1  0
 13 30  1  0
M  END
$$$$

     RDKit          3D

 30 30  0  0  0  0  0  0  0  0999 V2000
    4.8241   -0.4407    0.1947 N   0  0  0  0  0  0  0  0  0  0  0  0
    3.4075   -0.4520   -0.1722 C   0  0  0  0  0  0  0  0  0  0  0  0
    2.5874   -0.3510    1.0909 C   0  0  0  0  0  0  0  0  0  0  0  0
    1.1708   -0.3542    0.8509 N   0  0  0  0  0  0  0  0  0  0  0  0
    0.5206    0.6347    0.0672 C   0  0  0  0  0  0  0  0  0  0  0  0
    1.2661    1.5302   -0.4126 O   0  0  0  0  0  0  0  0  0  0  0  0
   -0.8883    0.6980   -0.2187 C   0  0  2  0  0  0  0  0  0  0  0  0
   -1.6968    0.8064    1.0839 C   0  0  0  0  0  0  0  0  0  0  0  0
   -3.0336    1.3919    0.7056 C   0  0  0  0  0  0  0  0  0  0  0  0
   -3.3141    1.1237   -0.6206 O   0  0  0  0  0  0  0  0  0  0  0  0
   -2.9939   -0.1763   -0.9899 C   0  0  0  0  0  0  0  0  0  0  0  0
   -1.4919   -0.4126   -1.0024 C   0  0  2  0  0  0  0  0  0  0  0  0
   -1.2809   -1.7186   -0.4725 N   0  0  0  0  0  0  0  0  0  0  0  0
    5.4158   -0.5930   -0.6574 H   0  0  0  0  0  0  0  0  0  0  0  0
    5.1071    0.4639    0.6109 H   0  0  0  0  0  0  0  0  0  0  0  0
    3.2096   -1.4314   -0.6634 H   0  0  0  0  0  0  0  0  0  0  0  0
    3.1791    0.3213   -0.9197 H   0  0  0  0  0  0  0  0  0  0  0  0
    2.8950    0.5880    1.6392 H   0  0  0  0  0  0  0  0  0  0  0  0
    2.8618   -1.1735    1.7783 H   0  0  0  0  0  0  0  0  0  0  0  0
    0.5717   -1.0989    1.2548 H   0  0  0  0  0  0  0  0  0  0  0  0
   -1.1147    1.6414   -0.7541 H   0  0  0  0  0  0  0  0  0  0  0  0
   -1.8148   -0.1599    1.5728 H   0  0  0  0  0  0  0  0  0  0  0  0
   -1.1081    1.4803    1.7370 H   0  0  0  0  0  0  0  0  0  0  0  0
   -3.8511    1.0948    1.3904 H   0  0  0  0  0  0  0  0  0  0  0  0
   -2.9252    2.5118    0.7819 H   0  0  0  0  0  0  0  0  0  0  0  0
   -3.4632   -0.3822   -1.9645 H   0  0  0  0  0  0  0  0  0  0  0  0
   -3.4931   -0.8413   -0.2300 H   0  0  0  0  0  0  0  0  0  0  0  0
   -1.1883   -0.4219   -2.0707 H   0  0  0  0  0  0  0  0  0  0  0  0
   -1.5996   -1.8746    0.4887 H   0  0  0  0  0  0  0  0  0  0  0  0
   -1.7592   -2.4042   -1.0846 H   0  0  0  0  0  0  0  0  0  0  0  0
  1  2  1  0
  2  3  1  0
  3  4  1  0
  4  5  1  0
  5  6  2  0
  5  7  1  0
  7  8  1  0
  8  9  1  0
  9 10  1  0
 10 11  1  0
 11 12  1  0
 12 13  1  0
 12  7  1  0
  1 14  1  0
  1 15  1  0
  2 16  1  0
  2 17  1  0
  3 18  1  0
  3 19  1  0
  4 20  1  0
  7 21  1  6
  8 22  1  0
  8 23  1  0
  9 24  1  0
  9 25  1  0
 11 26  1  0
 11 27  1  0
 12 28  1  6
 13 29  1  0
 13 30  1  0
M  END
$$$$

     RDKit          3D

 30 30  0  0  0  0  0  0  0  0999 V2000
    3.8594    0.1003   -1.0588 N   0  0  0  0  0  0  0  0  0  0  0  0
    3.4285   -0.1149    0.2716 C   0  0  0  0  0  0  0  0  0  0  0  0
    2.3523   -1.1594    0.4258 C   0  0  0  0  0  0  0  0  0  0  0  0
    1.1506   -0.8605   -0.2897 N   0  0  0  0  0  0  0  0  0  0  0  0
    0.3916    0.3087   -0.0366 C   0  0  0  0  0  0  0  0  0  0  0  0
    0.7779    1.1176    0.8443 O   0  0  0  0  0  0  0  0  0  0  0  0
   -0.8613    0.6245   -0.7799 C   0  0  2  0  0  0  0  0  0  0  0  0
   -1.4571    1.9310   -0.3024 C   0  0  0  0  0  0  0  0  0  0  0  0
   -2.5612    1.6699    0.7005 C   0  0  0  0  0  0  0  0  0  0  0  0
   -2.1691    0.6640    1.5995 O   0  0  0  0  0  0  0  0  0  0  0  0
   -2.0687   -0.5755    0.9648 C   0  0  0  0  0  0  0  0  0  0  0  0
   -1.9109   -0.4491   -0.5170 C   0  0  2  0  0  0  0  0  0  0  0  0
   -1.5521   -1.7186   -1.0722 N   0  0  0  0  0  0  0  0  0  0  0  0
    4.4804   -0.6358   -1.4511 H   0  0  0  0  0  0  0  0  0  0  0  0
    3.1769    0.4849   -1.7098 H   0  0  0  0  0  0  0  0  0  0  0  0
    4.3006   -0.4536    0.8757 H   0  0  0  0  0  0  0  0  0  0  0  0
    3.0924    0.8338    0.7157 H   0  0  0  0  0  0  0  0  0  0  0  0
    2.7246   -2.1724    0.1734 H   0  0  0  0  0  0  0  0  0  0  0  0
    2.1324   -1.2071    1.5335 H   0  0  0  0  0  0  0  0  0  0  0  0
    0.8189   -1.5208   -1.0215 H   0  0  0  0  0  0  0  0  0  0  0  0
   -0.6802    0.6933   -1.8539 H   0  0  0  0  0  0  0  0  0  0  0  0
   -0.6808    2.5450    0.2326 H   0  0  0  0  0  0  0  0  0  0  0  0
   -1.8770    2.5189   -1.1251 H   0  0  0  0  0  0  0  0  0  0  0  0
   -2.6523    2.5974    1.3261 H   0  0  0  0  0  0  0  0  0  0  0  0
   -3.5250    1.4212    0.2245 H   0  0  0  0  0  0  0  0  0  0  0  0
   -2.9463   -1.2231    1.2072 H   0  0  0  0  0  0  0  0  0  0  0  0
   -1.1679   -1.1045    1.3632 H   0  0  0  0  0  0  0  0  0  0  0  0
   -2.8513   -0.0834   -0.9774 H   0  0  0  0  0  0  0  0  0  0  0  0
   -2.0606   -2.4689   -0.5734 H   0  0  0  0  0  0  0  0  0  0  0  0
   -1.6647   -1.7628   -2.0997 H   0  0  0  0  0  0  0  0  0  0  0  0
  1  2  1  0
  2  3  1  0
  3  4  1  0
  4  5  1  0
  5  6  2  0
  5  7  1  0
  7  8  1  0
  8  9  1  0
  9 10  1  0
 10 11  1  0
 11 12  1  0
 12 13  1  0
 12  7  1  0
  1 14  1  0
  1 15  1  0
  2 16  1  0
  2 17  1  0
  3 18  1  0
  3 19  1  0
  4 20  1  0
  7 21  1  6
  8 22  1  0
  8 23  1  0
  9 24  1  0
  9 25  1  0
 11 26  1  0
 11 27  1  0
 12 28  1  6
 13 29  1  0
 13 30  1  0
M  END
$$$$

     RDKit          3D

 30 30  0  0  0  0  0  0  0  0999 V2000
    3.4319    1.2782   -0.1342 N   0  0  0  0  0  0  0  0  0  0  0  0
    3.6751   -0.1166   -0.2448 C   0  0  0  0  0  0  0  0  0  0  0  0
    2.6449   -0.9993    0.3745 C   0  0  0  0  0  0  0  0  0  0  0  0
    1.3302   -0.8922   -0.1448 N   0  0  0  0  0  0  0  0  0  0  0  0
    0.5018    0.2446   -0.1294 C   0  0  0  0  0  0  0  0  0  0  0  0
    0.9114    1.3021    0.3895 O   0  0  0  0  0  0  0  0  0  0  0  0
   -0.8803    0.2159   -0.7295 C   0  0  2  0  0  0  0  0  0  0  0  0
   -1.5369    1.5323   -0.5861 C   0  0  0  0  0  0  0  0  0  0  0  0
   -2.9210    1.5178   -0.0403 C   0  0  0  0  0  0  0  0  0  0  0  0
   -3.0477    0.5061    0.8948 O   0  0  0  0  0  0  0  0  0  0  0  0
   -3.0329   -0.7000    0.1927 C   0  0  0  0  0  0  0  0  0  0  0  0
   -1.6364   -0.9686   -0.2453 C   0  0  2  0  0  0  0  0  0  0  0  0
   -0.9310   -1.5639    0.9018 N   0  0  0  0  0  0  0  0  0  0  0  0
    4.0208    1.6985    0.6444 H   0  0  0  0  0  0  0  0  0  0  0  0
    3.6793    1.8181   -0.9916 H   0  0  0  0  0  0  0  0  0  0  0  0
    4.6999   -0.3168    0.1833 H   0  0  0  0  0  0  0  0  0  0  0  0
    3.7859   -0.4566   -1.3153 H   0  0  0  0  0  0  0  0  0  0  0  0
    2.9875   -2.0657    0.3662 H   0  0  0  0  0  0  0  0  0  0  0  0
    2.5890   -0.7286    1.4685 H   0  0  0  0  0  0  0  0  0  0  0  0
    0.9061   -1.7492   -0.5988 H   0  0  0  0  0  0  0  0  0  0  0  0
   -0.6894    0.0513   -1.8321 H   0  0  0  0  0  0  0  0  0  0  0  0
   -0.9174    2.1704    0.1091 H   0  0  0  0  0  0  0  0  0  0  0  0
   -1.5305    2.1222   -1.5502 H   0  0  0  0  0  0  0  0  0  0  0  0
   -3.1746    2.4777    0.4961 H   0  0  0  0  0  0  0  0  0  0  0  0
   -3.6977    1.3520   -0.8287 H   0  0  0  0  0  0  0  0  0  0  0  0
   -3.7310   -0.6468   -0.6892 H   0  0  0  0  0  0  0  0  0  0  0  0
   -3.4212   -1.4662    0.8948 H   0  0  0  0  0  0  0  0  0  0  0  0
   -1.6835   -1.7991   -1.0088 H   0  0  0  0  0  0  0  0  0  0  0  0
   -1.3333   -1.2210    1.7975 H   0  0  0  0  0  0  0  0  0  0  0  0
   -0.9988   -2.5967    0.8914 H   0  0  0  0  0  0  0  0  0  0  0  0
  1  2  1  0
  2  3  1  0
  3  4  1  0
  4  5  1  0
  5  6  2  0
  5  7  1  0
  7  8  1  0
  8  9  1  0
  9 10  1  0
 10 11  1  0
 11 12  1  0
 12 13  1  0
 12  7  1  0
  1 14  1  0
  1 15  1  0
  2 16  1  0
  2 17  1  0
  3 18  1  0
  3 19  1  0
  4 20  1  0
  7 21  1  6
  8 22  1  0
  8 23  1  0
  9 24  1  0
  9 25  1  0
 11 26  1  0
 11 27  1  0
 12 28  1  6
 13 29  1  0
 13 30  1  0
M  END
$$$$

     RDKit          3D

 30 30  0  0  0  0  0  0  0  0999 V2000
    3.5298    0.6954   -0.0338 N   0  0  0  0  0  0  0  0  0  0  0  0
    3.5481   -0.6959   -0.3618 C   0  0  0  0  0  0  0  0  0  0  0  0
    2.3705   -1.5003    0.0485 C   0  0  0  0  0  0  0  0  0  0  0  0
    1.1023   -1.1342   -0.4851 N   0  0  0  0  0  0  0  0  0  0  0  0
    0.4880    0.1075   -0.2429 C   0  0  0  0  0  0  0  0  0  0  0  0
    1.0434    0.9594    0.4771 O   0  0  0  0  0  0  0  0  0  0  0  0
   -0.8583    0.4090   -0.8628 C   0  0  2  0  0  0  0  0  0  0  0  0
   -1.3236    1.7698   -0.4796 C   0  0  0  0  0  0  0  0  0  0  0  0
   -2.3194    1.7981    0.6292 C   0  0  0  0  0  0  0  0  0  0  0  0
   -3.2600    0.8146    0.6039 O   0  0  0  0  0  0  0  0  0  0  0  0
   -3.2176   -0.0334   -0.4682 C   0  0  0  0  0  0  0  0  0  0  0  0
   -1.8463   -0.6821   -0.5515 C   0  0  2  0  0  0  0  0  0  0  0  0
   -1.5861   -1.3103    0.7272 N   0  0  0  0  0  0  0  0  0  0  0  0
    4.2941    1.0054    0.5938 H   0  0  0  0  0  0  0  0  0  0  0  0
    3.4171    1.3113   -0.8681 H   0  0  0  0  0  0  0  0  0  0  0  0
    4.4348   -1.1258    0.1995 H   0  0  0  0  0  0  0  0  0  0  0  0
    3.8213   -0.8737   -1.4392 H   0  0  0  0  0  0  0  0  0  0  0  0
    2.3710   -1.5385    1.1713 H   0  0  0  0  0  0  0  0  0  0  0  0
    2.5931   -2.5743   -0.2451 H   0  0  0  0  0  0  0  0  0  0  0  0
    0.5827   -1.8424   -1.1078 H   0  0  0  0  0  0  0  0  0  0  0  0
   -0.6729    0.3839   -1.9647 H   0  0  0  0  0  0  0  0  0  0  0  0
   -0.4359    2.3742   -0.1546 H   0  0  0  0  0  0  0  0  0  0  0  0
   -1.7491    2.3137   -1.3551 H   0  0  0  0  0  0  0  0  0  0  0  0
   -2.8615    2.7860    0.5644 H   0  0  0  0  0  0  0  0  0  0  0  0
   -1.8291    1.8011    1.6169 H   0  0  0  0  0  0  0  0  0  0  0  0
   -3.9371   -0.8734   -0.2564 H   0  0  0  0  0  0  0  0  0  0  0  0
   -3.5105    0.4028   -1.4272 H   0  0  0  0  0  0  0  0  0  0  0  0
   -1.8702   -1.4404   -1.3557 H   0  0  0  0  0  0  0  0  0  0  0  0
   -0.6871   -0.9718    1.1419 H   0  0  0  0  0  0  0  0  0  0  0  0
   -1.6314   -2.3356    0.6081 H   0  0  0  0  0  0  0  0  0  0  0  0
  1  2  1  0
  2  3  1  0
  3  4  1  0
  4  5  1  0
  5  6  2  0
  5  7  1  0
  7  8  1  0
  8  9  1  0
  9 10  1  0
 10 11  1  0
 11 12  1  0
 12 13  1  0
 12  7  1  0
  1 14  1  0
  1 15  1  0
  2 16  1  0
  2 17  1  0
  3 18  1  0
  3 19  1  0
  4 20  1  0
  7 21  1  6
  8 22  1  0
  8 23  1  0
  9 24  1  0
  9 25  1  0
 11 26  1  0
 11 27  1  0
 12 28  1  6
 13 29  1  0
 13 30  1  0
M  END
$$$$
