
     RDKit          3D

 30 30  0  0  0  0  0  0  0  0999 V2000
   -3.0779    0.9200    1.7160 C   0  0  0  0  0  0  0  0  0  0  0  0
   -2.4855    0.2053    0.5160 C   0  0  1  0  0  0  0  0  0  0  0  0
   -1.0103    0.4180    0.5263 C   0  0  0  0  0  0  0  0  0  0  0  0
   -0.2505   -0.4748   -0.3075 N   0  0  0  0  0  0  0  0  0  0  0  0
    1.1194   -0.1087   -0.5425 C   0  0  0  0  0  0  0  0  0  0  0  0
    1.8046   -0.8696   -1.2702 O   0  0  0  0  0  0  0  0  0  0  0  0
    1.7391    1.0407   -0.0130 N   0  0  0  0  0  0  0  0  0  0  0  0
    3.1047    1.4116   -0.2439 C   0  0  0  0  0  0  0  0  0  0  0  0
    4.0895    0.3708    0.2369 C   0  0  0  0  0  0  0  0  0  0  0  0
    3.9675    0.1449    1.6004 O   0  0  0  0  0  0  0  0  0  0  0  0
   -0.8306   -1.6597   -0.8668 C   0  0  0  0  0  0  0  0  0  0  0  0
   -2.3299   -1.6773   -0.8198 C   0  0  0  0  0  0  0  0  0  0  0  0
   -2.7708   -1.1986    0.5004 N   0  0  0  0  0  0  0  0  0  0  0  0
   -3.2993    1.9681    1.3724 H   0  0  0  0  0  0  0  0  0  0  0  0
   -2.3033    1.0181    2.5056 H   0  0  0  0  0  0  0  0  0  0  0  0
   -3.9552    0.4236    2.1308 H   0  0  0  0  0  0  0  0  0  0  0  0
   -2.8864    0.6437   -0.4239 H   0  0  0  0  0  0  0  0  0  0  0  0
   -0.5854    0.3375    1.5639 H   0  0  0  0  0  0  0  0  0  0  0  0
   -0.8503    1.4962    0.2237 H   0  0  0  0  0  0  0  0  0  0  0  0
    1.1381    1.6521    0.5908 H   0  0  0  0  0  0  0  0  0  0  0  0
    3.3224    2.3595    0.2851 H   0  0  0  0  0  0  0  0  0  0  0  0
    3.3325    1.5971   -1.3144 H   0  0  0  0  0  0  0  0  0  0  0  0
    3.9339   -0.5503   -0.3605 H   0  0  0  0  0  0  0  0  0  0  0  0
    5.1052    0.7477   -0.0340 H   0  0  0  0  0  0  0  0  0  0  0  0
    4.2057   -0.8190    1.7420 H   0  0  0  0  0  0  0  0  0  0  0  0
   -0.4759   -2.5926   -0.3407 H   0  0  0  0  0  0  0  0  0  0  0  0
   -0.5406   -1.8161   -1.9427 H   0  0  0  0  0  0  0  0  0  0  0  0
   -2.7177   -0.9604   -1.5772 H   0  0  0  0  0  0  0  0  0  0  0  0
   -2.6927   -2.6878   -1.0307 H   0  0  0  0  0  0  0  0  0  0  0  0
   -3.8005   -1.3399    0.6027 H   0  0  0  0  0  0  0  0  0  0  0  0
  1  2  1  0
  2  3  1  0
  3  4  1  0
  4  5  1  0
  5  6  2  0
  5  7  1  0
  7  8  1  0
  8  9  1  0
  9 10  1  0
  4 11  1  0
 11 12  1  0
 12 13  1  0
 13  2  1  0
  1 14  1  0
  1 15  1  0
  1 16  1  0
  2 17  1  6
  3 18  1  0
  3 19  1  0
  7 20  1  0
  8 21  1  0
  8 22  1  0
  9 23  1  0
  9 24  1  0
 10 25  1  0
 11 26  1  0
 11 27  1  0
 12 28  1  0
 12 29  1  0
 13 30  1  0
M  END
$$$$

     RDKit          3D

 30 30  0  0  0  0  0  0  0  0999 V2000
   -3.1722    1.6134   -0.0002 C   0  0  0  0  0  0  0  0  0  0  0  0
   -2.3512    0.3848   -0.2127 C   0  0  1  0  0  0  0  0  0  0  0  0
   -1.0165    0.4593    0.4975 C   0  0  0  0  0  0  0  0  0  0  0  0
   -0.3183   -0.7840    0.4189 N   0  0  0  0  0  0  0  0  0  0  0  0
    1.0834   -0.8665    0.1960 C   0  0  0  0  0  0  0  0  0  0  0  0
    1.6116   -2.0328    0.1372 O   0  0  0  0  0  0  0  0  0  0  0  0
    1.9356    0.2582    0.0348 N   0  0  0  0  0  0  0  0  0  0  0  0
    3.3390    0.0391   -0.1860 C   0  0  0  0  0  0  0  0  0  0  0  0
    4.1217    1.3004   -0.3390 C   0  0  0  0  0  0  0  0  0  0  0  0
    3.9608    2.0366    0.8542 O   0  0  0  0  0  0  0  0  0  0  0  0
   -1.0817   -2.0286    0.5806 C   0  0  0  0  0  0  0  0  0  0  0  0
   -2.2796   -1.9283   -0.3356 C   0  0  0  0  0  0  0  0  0  0  0  0
   -3.0691   -0.8046    0.1866 N   0  0  0  0  0  0  0  0  0  0  0  0
   -3.0894    2.3192   -0.8707 H   0  0  0  0  0  0  0  0  0  0  0  0
   -2.9215    2.1642    0.9335 H   0  0  0  0  0  0  0  0  0  0  0  0
   -4.2574    1.3110    0.0254 H   0  0  0  0  0  0  0  0  0  0  0  0
   -2.1119    0.3228   -1.3065 H   0  0  0  0  0  0  0  0  0  0  0  0
   -0.4823    1.3128    0.0526 H   0  0  0  0  0  0  0  0  0  0  0  0
   -1.1886    0.7464    1.5751 H   0  0  0  0  0  0  0  0  0  0  0  0
    1.5130    1.2033    0.0835 H   0  0  0  0  0  0  0  0  0  0  0  0
    3.5008   -0.6103   -1.0865 H   0  0  0  0  0  0  0  0  0  0  0  0
    3.7372   -0.4973    0.7071 H   0  0  0  0  0  0  0  0  0  0  0  0
    3.8089    1.9237   -1.1881 H   0  0  0  0  0  0  0  0  0  0  0  0
    5.2001    1.0226   -0.3911 H   0  0  0  0  0  0  0  0  0  0  0  0
    4.2269    1.5028    1.6323 H   0  0  0  0  0  0  0  0  0  0  0  0
   -1.4175   -2.1453    1.6358 H   0  0  0  0  0  0  0  0  0  0  0  0
   -0.4576   -2.9004    0.2908 H   0  0  0  0  0  0  0  0  0  0  0  0
   -1.9162   -1.6379   -1.3332 H   0  0  0  0  0  0  0  0  0  0  0  0
   -2.8653   -2.8638   -0.3407 H   0  0  0  0  0  0  0  0  0  0  0  0
   -4.0426   -0.8206   -0.1273 H   0  0  0  0  0  0  0  0  0  0  0  0
  1  2  1  0
  2  3  1  0
  3  4  1  0
  4  5  1  0
  5  6  2  0
  5  7  1  0
  7  8  1  0
  8  9  1  0
  9 10  1  0
  4 11  1  0
 11 12  1  0
 12 13  1  0
 13  2  1  0
  1 14  1  0
  1 15  1  0
  1 16  1  0
  2 17  1  6
  3 18  1  0
  3 19  1  0
  7 20  1  0
  8 21  1  0
  8 22  1  0
  9 23  1  0
  9 24  1  0
 10 25  1  0
 11 26  1  0
 11 27  1  0
 12 28  1  0
 12 29  1  0
 13 30  1  0
M  END
$$$$

     RDKit          3D

 30 30  0  0  0  0  0  0  0  0999 V2000
   -3.5011    1.8446    0.6305 C   0  0  0  0  0  0  0  0  0  0  0  0
   -2.5940    0.8950   -0.0867 C   0  0  1  0  0  0  0  0  0  0  0  0
   -1.1939    1.0190    0.4153 C   0  0  0  0  0  0  0  0  0  0  0  0
   -0.3492   -0.1096    0.0738 N   0  0  0  0  0  0  0  0  0  0  0  0
    1.0300   -0.0099    0.3429 C   0  0  0  0  0  0  0  0  0  0  0  0
    1.5464    1.0237    0.8675 O   0  0  0  0  0  0  0  0  0  0  0  0
    1.9378   -1.0657    0.0430 N   0  0  0  0  0  0  0  0  0  0  0  0
    3.3375   -1.0100    0.2967 C   0  0  0  0  0  0  0  0  0  0  0  0
    4.0359    0.1164   -0.4282 C   0  0  0  0  0  0  0  0  0  0  0  0
    5.3888    0.0504   -0.0900 O   0  0  0  0  0  0  0  0  0  0  0  0
   -0.8491   -1.3194   -0.5232 C   0  0  0  0  0  0  0  0  0  0  0  0
   -2.2880   -1.2511   -0.9333 C   0  0  0  0  0  0  0  0  0  0  0  0
   -3.0143   -0.5042    0.0779 N   0  0  0  0  0  0  0  0  0  0  0  0
   -4.1000    2.3941   -0.1311 H   0  0  0  0  0  0  0  0  0  0  0  0
   -4.2324    1.3315    1.2951 H   0  0  0  0  0  0  0  0  0  0  0  0
   -2.9193    2.6151    1.1887 H   0  0  0  0  0  0  0  0  0  0  0  0
   -2.5782    1.0874   -1.1890 H   0  0  0  0  0  0  0  0  0  0  0  0
   -0.7176    1.9341    0.0009 H   0  0  0  0  0  0  0  0  0  0  0  0
   -1.1934    1.0977    1.5229 H   0  0  0  0  0  0  0  0  0  0  0  0
    1.5221   -1.9178   -0.3878 H   0  0  0  0  0  0  0  0  0  0  0  0
    3.8106   -1.9532   -0.0375 H   0  0  0  0  0  0  0  0  0  0  0  0
    3.5922   -0.9144    1.3819 H   0  0  0  0  0  0  0  0  0  0  0  0
    3.9753   -0.0917   -1.5244 H   0  0  0  0  0  0  0  0  0  0  0  0
    3.6723    1.1105   -0.1579 H   0  0  0  0  0  0  0  0  0  0  0  0
    5.7497    0.9326    0.1662 H   0  0  0  0  0  0  0  0  0  0  0  0
   -0.2169   -1.6128   -1.4087 H   0  0  0  0  0  0  0  0  0  0  0  0
   -0.7331   -2.1477    0.2150 H   0  0  0  0  0  0  0  0  0  0  0  0
   -2.3715   -0.6717   -1.8781 H   0  0  0  0  0  0  0  0  0  0  0  0
   -2.6999   -2.2738   -1.0257 H   0  0  0  0  0  0  0  0  0  0  0  0
   -4.0467   -0.5993   -0.0527 H   0  0  0  0  0  0  0  0  0  0  0  0
  1  2  1  0
  2  3  1  0
  3  4  1  0
  4  5  1  0
  5  6  2  0
  5  7  1  0
  7  8  1  0
  8  9  1  0
  9 10  1  0
  4 11  1  0
 11 12  1  0
 12 13  1  0
 13  2  1  0
  1 14  1  0
  1 15  1  0
  1 16  1  0
  2 17  1  6
  3 18  1  0
  3 19  1  0
  7 20  1  0
  8 21  1  0
  8 22  1  0
  9 23  1  0
  9 24  1  0
 10 25  1  0
 11 26  1  0
 11 27  1  0
 12 28  1  0
 12 29  1  0
 13 30  1  0
M  END
$$$$

     RDKit          3D

 30 30  0  0  0  0  0  0  0  0999 V2000
   -2.7751   -1.5044   -0.9792 C   0  0  0  0  0  0  0  0  0  0  0  0
   -2.6906   -0.9111    0.3949 C   0  0  1  0  0  0  0  0  0  0  0  0
   -1.2679   -0.9523    0.9109 C   0  0  0  0  0  0  0  0  0  0  0  0
   -0.4326    0.0317    0.2588 N   0  0  0  0  0  0  0  0  0  0  0  0
    0.9671   -0.0040    0.4665 C   0  0  0  0  0  0  0  0  0  0  0  0
    1.4461   -0.8898    1.2121 O   0  0  0  0  0  0  0  0  0  0  0  0
    1.8717    0.9141   -0.1260 N   0  0  0  0  0  0  0  0  0  0  0  0
    3.2945    0.8816    0.0823 C   0  0  0  0  0  0  0  0  0  0  0  0
    3.9219   -0.4178   -0.3659 C   0  0  0  0  0  0  0  0  0  0  0  0
    5.2932   -0.3346   -0.1171 O   0  0  0  0  0  0  0  0  0  0  0  0
   -0.9660    1.0637   -0.6067 C   0  0  0  0  0  0  0  0  0  0  0  0
   -2.4348    1.2376   -0.5446 C   0  0  0  0  0  0  0  0  0  0  0  0
   -3.1156    0.4720    0.4486 N   0  0  0  0  0  0  0  0  0  0  0  0
   -3.4803   -0.9341   -1.6198 H   0  0  0  0  0  0  0  0  0  0  0  0
   -1.7564   -1.5808   -1.4223 H   0  0  0  0  0  0  0  0  0  0  0  0
   -3.1452   -2.5491   -0.8920 H   0  0  0  0  0  0  0  0  0  0  0  0
   -3.3403   -1.4657    1.1120 H   0  0  0  0  0  0  0  0  0  0  0  0
   -0.8653   -1.9803    0.8377 H   0  0  0  0  0  0  0  0  0  0  0  0
   -1.3407   -0.7246    2.0145 H   0  0  0  0  0  0  0  0  0  0  0  0
    1.4525    1.6425   -0.7425 H   0  0  0  0  0  0  0  0  0  0  0  0
    3.7559    1.7322   -0.4546 H   0  0  0  0  0  0  0  0  0  0  0  0
    3.5695    1.0302    1.1622 H   0  0  0  0  0  0  0  0  0  0  0  0
    3.8059   -0.4744   -1.4711 H   0  0  0  0  0  0  0  0  0  0  0  0
    3.5380   -1.2882    0.1621 H   0  0  0  0  0  0  0  0  0  0  0  0
    5.4762    0.1886    0.7084 H   0  0  0  0  0  0  0  0  0  0  0  0
   -0.5653    0.8741   -1.6307 H   0  0  0  0  0  0  0  0  0  0  0  0
   -0.4953    2.0399   -0.2870 H   0  0  0  0  0  0  0  0  0  0  0  0
   -2.8478    1.0046   -1.5699 H   0  0  0  0  0  0  0  0  0  0  0  0
   -2.7305    2.3161   -0.3847 H   0  0  0  0  0  0  0  0  0  0  0  0
   -4.1426    0.5824    0.2916 H   0  0  0  0  0  0  0  0  0  0  0  0
  1  2  1  0
  2  3  1  0
  3  4  1  0
  4  5  1  0
  5  6  2  0
  5  7  1  0
  7  8  1  0
  8  9  1  0
  9 10  1  0
  4 11  1  0
 11 12  1  0
 12 13  1  0
 13  2  1  0
  1 14  1  0
  1 15  1  0
  1 16  1  0
  2 17  1  1
  3 18  1  0
  3 19  1  0
  7 20  1  0
  8 21  1  0
  8 22  1  0
  9 23  1  0
  9 24  1  0
 10 25  1  0
 11 26  1  0
 11 27  1  0
 12 28  1  0
 12 29  1  0
 13 30  1  0
M  END
$$$$

     RDKit          3D

 30 30  0  0  0  0  0  0  0  0999 V2000
   -3.2915   -0.0053    1.0304 C   0  0  0  0  0  0  0  0  0  0  0  0
   -2.6610    0.8489   -0.0649 C   0  0  1  0  0  0  0  0  0  0  0  0
   -1.2418    1.1457    0.2749 C   0  0  0  0  0  0  0  0  0  0  0  0
   -0.2855    0.2840   -0.3804 N   0  0  0  0  0  0  0  0  0  0  0  0
    1.0885    0.6376   -0.3099 C   0  0  0  0  0  0  0  0  0  0  0  0
    1.4439    1.6642    0.3030 O   0  0  0  0  0  0  0  0  0  0  0  0
    2.0834   -0.1526   -0.9241 N   0  0  0  0  0  0  0  0  0  0  0  0
    3.4690    0.1828   -0.8636 C   0  0  0  0  0  0  0  0  0  0  0  0
    3.9773    0.2189    0.5469 C   0  0  0  0  0  0  0  0  0  0  0  0
    3.7898   -1.0470    1.1035 O   0  0  0  0  0  0  0  0  0  0  0  0
   -0.6493   -0.9096   -1.0985 C   0  0  0  0  0  0  0  0  0  0  0  0
   -2.1255   -1.1037   -1.2169 C   0  0  0  0  0  0  0  0  0  0  0  0
   -2.7421    0.2056   -1.3460 N   0  0  0  0  0  0  0  0  0  0  0  0
   -3.7497    0.6814    1.7879 H   0  0  0  0  0  0  0  0  0  0  0  0
   -4.0895   -0.6287    0.6058 H   0  0  0  0  0  0  0  0  0  0  0  0
   -2.5489   -0.6175    1.5632 H   0  0  0  0  0  0  0  0  0  0  0  0
   -3.2845    1.7852   -0.1362 H   0  0  0  0  0  0  0  0  0  0  0  0
   -0.9993    2.1892   -0.0452 H   0  0  0  0  0  0  0  0  0  0  0  0
   -1.0922    1.1060    1.3748 H   0  0  0  0  0  0  0  0  0  0  0  0
    1.7419   -1.0113   -1.4340 H   0  0  0  0  0  0  0  0  0  0  0  0
    3.6088    1.1863   -1.3556 H   0  0  0  0  0  0  0  0  0  0  0  0
    4.0725   -0.5333   -1.4684 H   0  0  0  0  0  0  0  0  0  0  0  0
    3.4881    1.0101    1.1426 H   0  0  0  0  0  0  0  0  0  0  0  0
    5.0843    0.4368    0.5042 H   0  0  0  0  0  0  0  0  0  0  0  0
    3.9086   -1.7204    0.3908 H   0  0  0  0  0  0  0  0  0  0  0  0
   -0.2034   -0.8524   -2.1332 H   0  0  0  0  0  0  0  0  0  0  0  0
   -0.1651   -1.8153   -0.6280 H   0  0  0  0  0  0  0  0  0  0  0  0
   -2.3989   -1.7513   -2.0596 H   0  0  0  0  0  0  0  0  0  0  0  0
   -2.5246   -1.5832   -0.2900 H   0  0  0  0  0  0  0  0  0  0  0  0
   -3.7034    0.1491   -1.7280 H   0  0  0  0  0  0  0  0  0  0  0  0
  1  2  1  0
  2  3  1  0
  3  4  1  0
  4  5  1  0
  5  6  2  0
  5  7  1  0
  7  8  1  0
  8  9  1  0
  9 10  1  0
  4 11  1  0
 11 12  1  0
 12 13  1  0
 13  2  1  0
  1 14  1  0
  1 15  1  0
  1 16  1  0
  2 17  1  6
  3 18  1  0
  3 19  1  0
  7 20  1  0
  8 21  1  0
  8 22  1  0
  9 23  1  0
  9 24  1  0
 10 25  1  0
 11 26  1  0
 11 27  1  0
 12 28  1  0
 12 29  1  0
 13 30  1  0
M  END
$$$$

     RDKit          3D

 30 30  0  0  0  0  0  0  0  0999 V2000
   -3.4019    1.6809   -1.0689 C   0  0  0  0  0  0  0  0  0  0  0  0
   -2.2796    0.6405   -0.9393 C   0  0  1  0  0  0  0  0  0  0  0  0
   -1.2558    1.1992   -0.0213 C   0  0  0  0  0  0  0  0  0  0  0  0
   -0.3681    0.1468    0.4931 N   0  0  0  0  0  0  0  0  0  0  0  0
    1.0407    0.2636    0.3911 C   0  0  0  0  0  0  0  0  0  0  0  0
    1.4908    1.3141   -0.1660 O   0  0  0  0  0  0  0  0  0  0  0  0
    1.9745   -0.6794    0.8519 N   0  0  0  0  0  0  0  0  0  0  0  0
    3.4086   -0.4899    0.7099 C   0  0  0  0  0  0  0  0  0  0  0  0
    3.8406   -0.3645   -0.7221 C   0  0  0  0  0  0  0  0  0  0  0  0
    5.2091   -0.1859   -0.8218 O   0  0  0  0  0  0  0  0  0  0  0  0
   -1.0391   -0.9662    1.0860 C   0  0  0  0  0  0  0  0  0  0  0  0
   -2.1161   -1.4999    0.1797 C   0  0  0  0  0  0  0  0  0  0  0  0
   -2.8719   -0.5738   -0.5268 N   0  0  0  0  0  0  0  0  0  0  0  0
   -4.4006    1.1991   -1.0240 H   0  0  0  0  0  0  0  0  0  0  0  0
   -3.3756    2.3810   -0.1832 H   0  0  0  0  0  0  0  0  0  0  0  0
   -3.3469    2.2223   -2.0245 H   0  0  0  0  0  0  0  0  0  0  0  0
   -1.8408    0.5234   -1.9482 H   0  0  0  0  0  0  0  0  0  0  0  0
   -0.6068    1.9062   -0.5748 H   0  0  0  0  0  0  0  0  0  0  0  0
   -1.6922    1.6966    0.8739 H   0  0  0  0  0  0  0  0  0  0  0  0
    1.6242   -1.5464    1.3134 H   0  0  0  0  0  0  0  0  0  0  0  0
    3.7309    0.4526    1.2246 H   0  0  0  0  0  0  0  0  0  0  0  0
    3.9390   -1.3569    1.1431 H   0  0  0  0  0  0  0  0  0  0  0  0
    3.5865   -1.2858   -1.3093 H   0  0  0  0  0  0  0  0  0  0  0  0
    3.3574    0.4680   -1.2628 H   0  0  0  0  0  0  0  0  0  0  0  0
    5.5485    0.2499   -0.0048 H   0  0  0  0  0  0  0  0  0  0  0  0
   -0.3541   -1.8114    1.2818 H   0  0  0  0  0  0  0  0  0  0  0  0
   -1.4835   -0.6488    2.0532 H   0  0  0  0  0  0  0  0  0  0  0  0
   -2.7877   -2.1290    0.8203 H   0  0  0  0  0  0  0  0  0  0  0  0
   -1.6381   -2.2233   -0.5249 H   0  0  0  0  0  0  0  0  0  0  0  0
   -3.8921   -0.5831   -0.4302 H   0  0  0  0  0  0  0  0  0  0  0  0
  1  2  1  0
  2  3  1  0
  3  4  1  0
  4  5  1  0
  5  6  2  0
  5  7  1  0
  7  8  1  0
  8  9  1  0
  9 10  1  0
  4 11  1  0
 11 12  1  0
 12 13  1  0
 13  2  1  0
  1 14  1  0
  1 15  1  0
  1 16  1  0
  2 17  1  6
  3 18  1  0
  3 19  1  0
  7 20  1  0
  8 21  1  0
  8 22  1  0
  9 23  1  0
  9 24  1  0
 10 25  1  0
 11 26  1  0
 11 27  1  0
 12 28  1  0
 12 29  1  0
 13 30  1  0
M  END
$$$$

     RDKit          3D

 30 30  0  0  0  0  0  0  0  0999 V2000
   -3.7371    1.3310   -0.9545 C   0  0  0  0  0  0  0  0  0  0  0  0
   -2.6784    0.3059   -0.6116 C   0  0  1  0  0  0  0  0  0  0  0  0
   -1.2925    0.8838   -0.6309 C   0  0  0  0  0  0  0  0  0  0  0  0
   -0.3778   -0.1308   -0.1507 N   0  0  0  0  0  0  0  0  0  0  0  0
    1.0241    0.0661   -0.3844 C   0  0  0  0  0  0  0  0  0  0  0  0
    1.4556    1.0854   -0.9866 O   0  0  0  0  0  0  0  0  0  0  0  0
    1.9955   -0.8775    0.0509 N   0  0  0  0  0  0  0  0  0  0  0  0
    3.4170   -0.7026   -0.1722 C   0  0  0  0  0  0  0  0  0  0  0  0
    3.9528    0.5456    0.4649 C   0  0  0  0  0  0  0  0  0  0  0  0
    5.3329    0.5829    0.1675 O   0  0  0  0  0  0  0  0  0  0  0  0
   -0.7838   -1.3216    0.5449 C   0  0  0  0  0  0  0  0  0  0  0  0
   -2.2269   -1.3990    0.8953 C   0  0  0  0  0  0  0  0  0  0  0  0
   -2.9118   -0.1262    0.7761 N   0  0  0  0  0  0  0  0  0  0  0  0
   -3.4527    1.8627   -1.8673 H   0  0  0  0  0  0  0  0  0  0  0  0
   -4.6981    0.7689   -1.0582 H   0  0  0  0  0  0  0  0  0  0  0  0
   -3.8587    2.0445   -0.1159 H   0  0  0  0  0  0  0  0  0  0  0  0
   -2.7764   -0.5562   -1.2733 H   0  0  0  0  0  0  0  0  0  0  0  0
   -1.2728    1.7214    0.1186 H   0  0  0  0  0  0  0  0  0  0  0  0
   -1.0008    1.2579   -1.6364 H   0  0  0  0  0  0  0  0  0  0  0  0
    1.6265   -1.7301    0.5550 H   0  0  0  0  0  0  0  0  0  0  0  0
    3.5750   -0.5957   -1.2832 H   0  0  0  0  0  0  0  0  0  0  0  0
    3.9419   -1.5853    0.2052 H   0  0  0  0  0  0  0  0  0  0  0  0
    3.7941    0.4872    1.5640 H   0  0  0  0  0  0  0  0  0  0  0  0
    3.5149    1.4589    0.0490 H   0  0  0  0  0  0  0  0  0  0  0  0
    5.6337    1.5132    0.3566 H   0  0  0  0  0  0  0  0  0  0  0  0
   -0.4961   -2.1938   -0.0807 H   0  0  0  0  0  0  0  0  0  0  0  0
   -0.1537   -1.3678    1.4798 H   0  0  0  0  0  0  0  0  0  0  0  0
   -2.7463   -2.0877    0.1661 H   0  0  0  0  0  0  0  0  0  0  0  0
   -2.4022   -1.7801    1.9400 H   0  0  0  0  0  0  0  0  0  0  0  0
   -2.3978    0.5393    1.4260 H   0  0  0  0  0  0  0  0  0  0  0  0
  1  2  1  0
  2  3  1  0
  3  4  1  0
  4  5  1  0
  5  6  2  0
  5  7  1  0
  7  8  1  0
  8  9  1  0
  9 10  1  0
  4 11  1  0
 11 12  1  0
 12 13  1  0
 13  2  1  0
  1 14  1  0
  1 15  1  0
  1 16  1  0
  2 17  1  6
  3 18  1  0
  3 19  1  0
  7 20  1  0
  8 21  1  0
  8 22  1  0
  9 23  1  0
  9 24  1  0
 10 25  1  0
 11 26  1  0
 11 27  1  0
 12 28  1  0
 12 29  1  0
 13 30  1  0
M  END
$$$$

     RDKit          3D

 30 30  0  0  0  0  0  0  0  0999 V2000
   -2.8901   -0.3026    1.2882 C   0  0  0  0  0  0  0  0  0  0  0  0
   -2.5953    0.6276    0.1207 C   0  0  1  0  0  0  0  0  0  0  0  0
   -1.1330    0.9369    0.0846 C   0  0  0  0  0  0  0  0  0  0  0  0
   -0.3530    0.0114   -0.6797 N   0  0  0  0  0  0  0  0  0  0  0  0
    1.0369   -0.1144   -0.5098 C   0  0  0  0  0  0  0  0  0  0  0  0
    1.7396   -0.9395   -1.1890 O   0  0  0  0  0  0  0  0  0  0  0  0
    1.7864    0.6616    0.4299 N   0  0  0  0  0  0  0  0  0  0  0  0
    3.2185    0.5269    0.6008 C   0  0  0  0  0  0  0  0  0  0  0  0
    3.6504   -0.8458    1.0197 C   0  0  0  0  0  0  0  0  0  0  0  0
    5.0592   -0.7994    1.1391 O   0  0  0  0  0  0  0  0  0  0  0  0
   -1.0394   -0.8014   -1.6440 C   0  0  0  0  0  0  0  0  0  0  0  0
   -2.1820    0.0880   -2.1580 C   0  0  0  0  0  0  0  0  0  0  0  0
   -3.1478    0.1542   -1.1054 N   0  0  0  0  0  0  0  0  0  0  0  0
   -1.9484   -0.5650    1.8043 H   0  0  0  0  0  0  0  0  0  0  0  0
   -3.4086   -1.2213    0.9031 H   0  0  0  0  0  0  0  0  0  0  0  0
   -3.5564    0.1587    2.0396 H   0  0  0  0  0  0  0  0  0  0  0  0
   -3.1213    1.5992    0.3621 H   0  0  0  0  0  0  0  0  0  0  0  0
   -0.7772    0.9896    1.1342 H   0  0  0  0  0  0  0  0  0  0  0  0
   -1.0015    1.9715   -0.3284 H   0  0  0  0  0  0  0  0  0  0  0  0
    1.2239    1.3553    1.0062 H   0  0  0  0  0  0  0  0  0  0  0  0
    3.6611    0.7232   -0.4198 H   0  0  0  0  0  0  0  0  0  0  0  0
    3.5640    1.3027    1.2836 H   0  0  0  0  0  0  0  0  0  0  0  0
    3.4627   -1.6024    0.2317 H   0  0  0  0  0  0  0  0  0  0  0  0
    3.1893   -1.1120    1.9781 H   0  0  0  0  0  0  0  0  0  0  0  0
    5.4518   -0.1360    0.5232 H   0  0  0  0  0  0  0  0  0  0  0  0
   -1.4863   -1.7156   -1.1985 H   0  0  0  0  0  0  0  0  0  0  0  0
   -0.3825   -1.0847   -2.4873 H   0  0  0  0  0  0  0  0  0  0  0  0
   -2.5761   -0.2665   -3.1033 H   0  0  0  0  0  0  0  0  0  0  0  0
   -1.7853    1.1350   -2.3054 H   0  0  0  0  0  0  0  0  0  0  0  0
   -3.6595   -0.7354   -1.0027 H   0  0  0  0  0  0  0  0  0  0  0  0
  1  2  1  0
  2  3  1  0
  3  4  1  0
  4  5  1  0
  5  6  2  0
  5  7  1  0
  7  8  1  0
  8  9  1  0
  9 10  1  0
  4 11  1  0
 11 12  1  0
 12 13  1  0
 13  2  1  0
  1 14  1  0
  1 15  1  0
  1 16  1  0
  2 17  1  1
  3 18  1  0
  3 19  1  0
  7 20  1  0
  8 21  1  0
  8 22  1  0
  9 23  1  0
  9 24  1  0
 10 25  1  0
 11 26  1  0
 11 27  1  0
 12 28  1  0
 12 29  1  0
 13 30  1  0
M  END
$$$$
