
     RDKit          3D

 26 26  0  0  0  0  0  0  0  0999 V2000
    0.4598   -2.0781   -0.5071 C   0  0  0  0  0  0  0  0  0  0  0  0
    0.0659   -0.7062   -0.2748 N   0  0  0  0  0  0  0  0  0  0  0  0
    1.0608    0.2469   -0.0095 C   0  0  0  0  0  0  0  0  0  0  0  0
    0.7377    1.4356    0.1933 O   0  0  0  0  0  0  0  0  0  0  0  0
    2.4761   -0.1495    0.0298 C   0  0  0  0  0  0  0  0  0  0  0  0
    3.3618    0.9577    0.3159 N   0  0  0  0  0  0  0  0  0  0  0  0
    4.6382    0.5738    0.3463 O   0  0  0  0  0  0  0  0  0  0  0  0
   -1.3229   -0.3886   -0.3273 C   0  0  1  0  0  0  0  0  0  0  0  0
   -1.8395    0.1805    0.9985 C   0  0  0  0  0  0  0  0  0  0  0  0
   -3.2285    0.6184    0.5137 C   0  0  0  0  0  0  0  0  0  0  0  0
   -2.8452    1.3072   -0.7270 N   0  0  0  0  0  0  0  0  0  0  0  0
   -1.6682    0.6987   -1.2491 C   0  0  0  0  0  0  0  0  0  0  0  0
   -1.1089    1.0925   -2.3047 O   0  0  0  0  0  0  0  0  0  0  0  0
    0.7808   -2.1912   -1.5700 H   0  0  0  0  0  0  0  0  0  0  0  0
    1.2468   -2.4292    0.1873 H   0  0  0  0  0  0  0  0  0  0  0  0
   -0.3955   -2.7858   -0.3762 H   0  0  0  0  0  0  0  0  0  0  0  0
    2.7824   -0.5473   -0.9756 H   0  0  0  0  0  0  0  0  0  0  0  0
    2.5981   -0.9019    0.8316 H   0  0  0  0  0  0  0  0  0  0  0  0
    3.0886    1.5144    1.1326 H   0  0  0  0  0  0  0  0  0  0  0  0
    5.2022    1.2002   -0.1701 H   0  0  0  0  0  0  0  0  0  0  0  0
   -1.9665   -1.2570   -0.5474 H   0  0  0  0  0  0  0  0  0  0  0  0
   -1.9055   -0.5785    1.7782 H   0  0  0  0  0  0  0  0  0  0  0  0
   -1.3004    1.0968    1.2891 H   0  0  0  0  0  0  0  0  0  0  0  0
   -3.7215    1.2735    1.2221 H   0  0  0  0  0  0  0  0  0  0  0  0
   -3.7904   -0.2893    0.2350 H   0  0  0  0  0  0  0  0  0  0  0  0
   -3.4059    2.1064   -1.0931 H   0  0  0  0  0  0  0  0  0  0  0  0
  1  2  1  0
  2  3  1  0
  3  4  2  0
  3  5  1  0
  5  6  1  0
  6  7  1  0
  2  8  1  0
  8  9  1  0
  9 10  1  0
 10 11  1  0
 11 12  1  0
 12 13  2  0
 12  8  1  0
  1 14  1  0
  1 15  1  0
  1 16  1  0
  5 17  1  0
  5 18  1  0
  6 19  1  0
  7 20  1  0
  8 21  1  6
  9 22  1  0
  9 23  1  0
 10 24  1  0
 10 25  1  0
 11 26  1  0
M  END
$$$$

     RDKit          3D

 26 26  0  0  0  0  0  0  0  0999 V2000
    1.1951   -1.3662    0.8986 C   0  0  0  0  0  0  0  0  0  0  0  0
    0.3260   -0.5007    0.1624 N   0  0  0  0  0  0  0  0  0  0  0  0
    0.7767    0.5092   -0.6935 C   0  0  0  0  0  0  0  0  0  0  0  0
   -0.1099    1.2180   -1.3492 O   0  0  0  0  0  0  0  0  0  0  0  0
    2.1491    0.9288   -0.9973 C   0  0  0  0  0  0  0  0  0  0  0  0
    3.1633    0.2374   -0.2915 N   0  0  0  0  0  0  0  0  0  0  0  0
    4.4171    0.6206   -0.6768 O   0  0  0  0  0  0  0  0  0  0  0  0
   -1.1047   -0.6977    0.3381 C   0  0  1  0  0  0  0  0  0  0  0  0
   -1.8201    0.5128    0.8794 C   0  0  0  0  0  0  0  0  0  0  0  0
   -3.2332    0.2961    0.3767 C   0  0  0  0  0  0  0  0  0  0  0  0
   -3.0075   -0.1652   -0.9650 N   0  0  0  0  0  0  0  0  0  0  0  0
   -1.8041   -0.9351   -0.9474 C   0  0  0  0  0  0  0  0  0  0  0  0
   -1.4701   -1.6690   -1.9114 O   0  0  0  0  0  0  0  0  0  0  0  0
    0.6523   -2.3300    1.1889 H   0  0  0  0  0  0  0  0  0  0  0  0
    1.4452   -0.8522    1.8717 H   0  0  0  0  0  0  0  0  0  0  0  0
    2.0830   -1.7259    0.3903 H   0  0  0  0  0  0  0  0  0  0  0  0
    2.2795    2.0230   -0.8325 H   0  0  0  0  0  0  0  0  0  0  0  0
    2.3497    0.7919   -2.1044 H   0  0  0  0  0  0  0  0  0  0  0  0
    3.0849    0.3534    0.7595 H   0  0  0  0  0  0  0  0  0  0  0  0
    4.4181    1.6186   -0.5670 H   0  0  0  0  0  0  0  0  0  0  0  0
   -1.2774   -1.5459    1.0326 H   0  0  0  0  0  0  0  0  0  0  0  0
   -1.9097    0.4673    2.0031 H   0  0  0  0  0  0  0  0  0  0  0  0
   -1.4168    1.4588    0.5333 H   0  0  0  0  0  0  0  0  0  0  0  0
   -3.7346   -0.4964    1.0053 H   0  0  0  0  0  0  0  0  0  0  0  0
   -3.8345    1.2129    0.4362 H   0  0  0  0  0  0  0  0  0  0  0  0
   -3.6173    0.0356   -1.7771 H   0  0  0  0  0  0  0  0  0  0  0  0
  1  2  1  0
  2  3  1  0
  3  4  2  0
  3  5  1  0
  5  6  1  0
  6  7  1  0
  2  8  1  0
  8  9  1  0
  9 10  1  0
 10 11  1  0
 11 12  1  0
 12 13  2  0
 12  8  1  0
  1 14  1  0
  1 15  1  0
  1 16  1  0
  5 17  1  0
  5 18  1  0
  6 19  1  0
  7 20  1  0
  8 21  1  1
  9 22  1  0
  9 23  1  0
 10 24  1  0
 10 25  1  0
 11 26  1  0
M  END
$$$$

     RDKit          3D

 26 26  0  0  0  0  0  0  0  0999 V2000
   -0.0348   -2.8137   -0.5404 C   0  0  0  0  0  0  0  0  0  0  0  0
    0.0115   -1.3825   -0.2710 N   0  0  0  0  0  0  0  0  0  0  0  0
    1.2462   -0.7696   -0.0162 C   0  0  0  0  0  0  0  0  0  0  0  0
    2.2888   -1.5277   -0.0095 O   0  0  0  0  0  0  0  0  0  0  0  0
    1.4884    0.6631    0.2445 C   0  0  0  0  0  0  0  0  0  0  0  0
    2.9124    0.9056    0.4468 N   0  0  0  0  0  0  0  0  0  0  0  0
    3.1707    2.1899    0.6852 O   0  0  0  0  0  0  0  0  0  0  0  0
   -1.2325   -0.6595   -0.2594 C   0  0  1  0  0  0  0  0  0  0  0  0
   -1.6012   -0.1436    1.1364 C   0  0  0  0  0  0  0  0  0  0  0  0
   -1.9108    1.3171    0.9686 C   0  0  0  0  0  0  0  0  0  0  0  0
   -1.5757    1.6439   -0.3910 N   0  0  0  0  0  0  0  0  0  0  0  0
   -1.2766    0.5053   -1.1511 C   0  0  0  0  0  0  0  0  0  0  0  0
   -1.0683    0.4440   -2.4174 O   0  0  0  0  0  0  0  0  0  0  0  0
    0.0155   -3.4063    0.4016 H   0  0  0  0  0  0  0  0  0  0  0  0
   -1.0027   -3.0907   -1.0438 H   0  0  0  0  0  0  0  0  0  0  0  0
    0.7604   -3.0962   -1.2631 H   0  0  0  0  0  0  0  0  0  0  0  0
    0.9295    0.9898    1.1270 H   0  0  0  0  0  0  0  0  0  0  0  0
    1.1775    1.3006   -0.6301 H   0  0  0  0  0  0  0  0  0  0  0  0
    3.4666    0.4918   -0.3362 H   0  0  0  0  0  0  0  0  0  0  0  0
    3.4534    2.7107   -0.0868 H   0  0  0  0  0  0  0  0  0  0  0  0
   -2.0892   -1.3534   -0.5462 H   0  0  0  0  0  0  0  0  0  0  0  0
   -2.5480   -0.6439    1.4771 H   0  0  0  0  0  0  0  0  0  0  0  0
   -0.8173   -0.3599    1.8649 H   0  0  0  0  0  0  0  0  0  0  0  0
   -2.9752    1.5493    1.1802 H   0  0  0  0  0  0  0  0  0  0  0  0
   -1.2288    1.9122    1.6263 H   0  0  0  0  0  0  0  0  0  0  0  0
   -1.5599    2.6237   -0.7605 H   0  0  0  0  0  0  0  0  0  0  0  0
  1  2  1  0
  2  3  1  0
  3  4  2  0
  3  5  1  0
  5  6  1  0
  6  7  1  0
  2  8  1  0
  8  9  1  0
  9 10  1  0
 10 11  1  0
 11 12  1  0
 12 13  2  0
 12  8  1  0
  1 14  1  0
  1 15  1  0
  1 16  1  0
  5 17  1  0
  5 18  1  0
  6 19  1  0
  7 20  1  0
  8 21  1  6
  9 22  1  0
  9 23  1  0
 10 24  1  0
 10 25  1  0
 11 26  1  0
M  END
$$$$

     RDKit          3D

 26 26  0  0  0  0  0  0  0  0999 V2000
    0.5018   -1.0679    1.6157 C   0  0  0  0  0  0  0  0  0  0  0  0
    0.0470   -0.4122    0.4104 N   0  0  0  0  0  0  0  0  0  0  0  0
    0.9776    0.1706   -0.4612 C   0  0  0  0  0  0  0  0  0  0  0  0
    0.4886    0.7254   -1.5172 O   0  0  0  0  0  0  0  0  0  0  0  0
    2.4251    0.2507   -0.3648 C   0  0  0  0  0  0  0  0  0  0  0  0
    3.0512   -0.3241    0.7722 N   0  0  0  0  0  0  0  0  0  0  0  0
    4.4140   -0.1549    0.6433 O   0  0  0  0  0  0  0  0  0  0  0  0
   -1.3624   -0.3798    0.1478 C   0  0  1  0  0  0  0  0  0  0  0  0
   -1.9341    1.0112    0.1213 C   0  0  0  0  0  0  0  0  0  0  0  0
   -2.6753    1.1020   -1.1771 C   0  0  0  0  0  0  0  0  0  0  0  0
   -2.8826   -0.2695   -1.5761 N   0  0  0  0  0  0  0  0  0  0  0  0
   -1.7572   -0.9962   -1.1359 C   0  0  0  0  0  0  0  0  0  0  0  0
   -1.2150   -1.9493   -1.7044 O   0  0  0  0  0  0  0  0  0  0  0  0
   -0.3067   -1.7318    2.0430 H   0  0  0  0  0  0  0  0  0  0  0  0
    0.7161   -0.3368    2.4325 H   0  0  0  0  0  0  0  0  0  0  0  0
    1.3371   -1.7703    1.4272 H   0  0  0  0  0  0  0  0  0  0  0  0
    2.6844    1.3505   -0.4549 H   0  0  0  0  0  0  0  0  0  0  0  0
    2.9102   -0.1776   -1.2954 H   0  0  0  0  0  0  0  0  0  0  0  0
    2.8246    0.3171    1.5968 H   0  0  0  0  0  0  0  0  0  0  0  0
    4.8394    0.0685    1.4863 H   0  0  0  0  0  0  0  0  0  0  0  0
   -1.9169   -0.9157    0.9838 H   0  0  0  0  0  0  0  0  0  0  0  0
   -1.0791    1.7350    0.1720 H   0  0  0  0  0  0  0  0  0  0  0  0
   -2.6474    1.1935    0.9645 H   0  0  0  0  0  0  0  0  0  0  0  0
   -2.0616    1.5703   -1.9754 H   0  0  0  0  0  0  0  0  0  0  0  0
   -3.6438    1.6382   -1.0475 H   0  0  0  0  0  0  0  0  0  0  0  0
   -3.7348   -0.6469   -2.1070 H   0  0  0  0  0  0  0  0  0  0  0  0
  1  2  1  0
  2  3  1  0
  3  4  2  0
  3  5  1  0
  5  6  1  0
  6  7  1  0
  2  8  1  0
  8  9  1  0
  9 10  1  0
 10 11  1  0
 11 12  1  0
 12 13  2  0
 12  8  1  0
  1 14  1  0
  1 15  1  0
  1 16  1  0
  5 17  1  0
  5 18  1  0
  6 19  1  0
  7 20  1  0
  8 21  1  1
  9 22  1  0
  9 23  1  0
 10 24  1  0
 10 25  1  0
 11 26  1  0
M  END
$$$$

     RDKit          3D

 26 26  0  0  0  0  0  0  0  0999 V2000
    0.2391    1.1454   -1.9237 C   0  0  0  0  0  0  0  0  0  0  0  0
   -0.1347    0.4917   -0.6805 N   0  0  0  0  0  0  0  0  0  0  0  0
    0.8914   -0.0856    0.0971 C   0  0  0  0  0  0  0  0  0  0  0  0
    0.5697   -0.6495    1.1696 O   0  0  0  0  0  0  0  0  0  0  0  0
    2.2750   -0.0013   -0.3787 C   0  0  0  0  0  0  0  0  0  0  0  0
    3.2318   -0.6244    0.4962 N   0  0  0  0  0  0  0  0  0  0  0  0
    4.4589   -0.4531   -0.0963 O   0  0  0  0  0  0  0  0  0  0  0  0
   -1.5291    0.4471   -0.2724 C   0  0  1  0  0  0  0  0  0  0  0  0
   -2.0361   -0.9578   -0.1025 C   0  0  0  0  0  0  0  0  0  0  0  0
   -2.5468   -1.0494    1.3266 C   0  0  0  0  0  0  0  0  0  0  0  0
   -1.9249    0.0628    2.0066 N   0  0  0  0  0  0  0  0  0  0  0  0
   -1.6855    1.0894    1.0338 C   0  0  0  0  0  0  0  0  0  0  0  0
   -1.6169    2.3369    1.2420 O   0  0  0  0  0  0  0  0  0  0  0  0
    0.9545    0.4998   -2.4931 H   0  0  0  0  0  0  0  0  0  0  0  0
   -0.6362    1.2899   -2.5658 H   0  0  0  0  0  0  0  0  0  0  0  0
    0.7252    2.1181   -1.6375 H   0  0  0  0  0  0  0  0  0  0  0  0
    2.3234   -0.5560   -1.3514 H   0  0  0  0  0  0  0  0  0  0  0  0
    2.5335    1.0614   -0.6208 H   0  0  0  0  0  0  0  0  0  0  0  0
    3.2344   -0.2235    1.4575 H   0  0  0  0  0  0  0  0  0  0  0  0
    4.5468   -1.1886   -0.7695 H   0  0  0  0  0  0  0  0  0  0  0  0
   -2.1373    0.9516   -1.0202 H   0  0  0  0  0  0  0  0  0  0  0  0
   -1.2879   -1.7334   -0.2729 H   0  0  0  0  0  0  0  0  0  0  0  0
   -2.8979   -1.1731   -0.7799 H   0  0  0  0  0  0  0  0  0  0  0  0
   -2.2293   -2.0197    1.7621 H   0  0  0  0  0  0  0  0  0  0  0  0
   -3.6551   -0.9494    1.3509 H   0  0  0  0  0  0  0  0  0  0  0  0
   -1.6662    0.1704    3.0225 H   0  0  0  0  0  0  0  0  0  0  0  0
  1  2  1  0
  2  3  1  0
  3  4  2  0
  3  5  1  0
  5  6  1  0
  6  7  1  0
  2  8  1  0
  8  9  1  0
  9 10  1  0
 10 11  1  0
 11 12  1  0
 12 13  2  0
 12  8  1  0
  1 14  1  0
  1 15  1  0
  1 16  1  0
  5 17  1  0
  5 18  1  0
  6 19  1  0
  7 20  1  0
  8 21  1  6
  9 22  1  0
  9 23  1  0
 10 24  1  0
 10 25  1  0
 11 26  1  0
M  END
$$$$

     RDKit          3D

 26 26  0  0  0  0  0  0  0  0999 V2000
    0.5659   -2.0607    0.5576 C   0  0  0  0  0  0  0  0  0  0  0  0
    0.1015   -0.7649    0.1167 N   0  0  0  0  0  0  0  0  0  0  0  0
    1.0331    0.2607   -0.1418 C   0  0  0  0  0  0  0  0  0  0  0  0
    0.6459    1.3860   -0.5336 O   0  0  0  0  0  0  0  0  0  0  0  0
    2.5017    0.0513    0.0383 C   0  0  0  0  0  0  0  0  0  0  0  0
    3.2165    1.2483   -0.2920 N   0  0  0  0  0  0  0  0  0  0  0  0
    4.5363    1.0706   -0.1336 O   0  0  0  0  0  0  0  0  0  0  0  0
   -1.2932   -0.5406   -0.0430 C   0  0  1  0  0  0  0  0  0  0  0  0
   -1.8171    0.5810    0.8730 C   0  0  0  0  0  0  0  0  0  0  0  0
   -3.2382    0.6908    0.2942 C   0  0  0  0  0  0  0  0  0  0  0  0
   -2.9140    0.7065   -1.1376 N   0  0  0  0  0  0  0  0  0  0  0  0
   -1.6957    0.0094   -1.3595 C   0  0  0  0  0  0  0  0  0  0  0  0
   -1.1370   -0.0761   -2.4792 O   0  0  0  0  0  0  0  0  0  0  0  0
    1.5190   -1.9892    1.1388 H   0  0  0  0  0  0  0  0  0  0  0  0
   -0.1505   -2.5779    1.2215 H   0  0  0  0  0  0  0  0  0  0  0  0
    0.7864   -2.7520   -0.2828 H   0  0  0  0  0  0  0  0  0  0  0  0
    2.8513   -0.8114   -0.5660 H   0  0  0  0  0  0  0  0  0  0  0  0
    2.7263   -0.1953    1.1059 H   0  0  0  0  0  0  0  0  0  0  0  0
    2.9785    1.5684   -1.2416 H   0  0  0  0  0  0  0  0  0  0  0  0
    4.8506    1.3129    0.7851 H   0  0  0  0  0  0  0  0  0  0  0  0
   -1.8984   -1.4638    0.1846 H   0  0  0  0  0  0  0  0  0  0  0  0
   -1.8181    0.2948    1.9180 H   0  0  0  0  0  0  0  0  0  0  0  0
   -1.3299    1.5174    0.6187 H   0  0  0  0  0  0  0  0  0  0  0  0
   -3.7466   -0.2493    0.5863 H   0  0  0  0  0  0  0  0  0  0  0  0
   -3.7408    1.6029    0.6086 H   0  0  0  0  0  0  0  0  0  0  0  0
   -3.5336    1.1801   -1.8366 H   0  0  0  0  0  0  0  0  0  0  0  0
  1  2  1  0
  2  3  1  0
  3  4  2  0
  3  5  1  0
  5  6  1  0
  6  7  1  0
  2  8  1  0
  8  9  1  0
  9 10  1  0
 10 11  1  0
 11 12  1  0
 12 13  2  0
 12  8  1  0
  1 14  1  0
  1 15  1  0
  1 16  1  0
  5 17  1  0
  5 18  1  0
  6 19  1  0
  7 20  1  0
  8 21  1  1
  9 22  1  0
  9 23  1  0
 10 24  1  0
 10 25  1  0
 11 26  1  0
M  END
$$$$

     RDKit          3D

 26 26  0  0  0  0  0  0  0  0999 V2000
   -0.2673   -2.2697   -0.4082 C   0  0  0  0  0  0  0  0  0  0  0  0
    0.1875   -0.9772    0.0166 N   0  0  0  0  0  0  0  0  0  0  0  0
    1.5164   -0.7954    0.4449 C   0  0  0  0  0  0  0  0  0  0  0  0
    2.2761   -1.8168    0.4353 O   0  0  0  0  0  0  0  0  0  0  0  0
    2.0500    0.5163    0.8971 C   0  0  0  0  0  0  0  0  0  0  0  0
    3.4270    0.3505    1.2609 N   0  0  0  0  0  0  0  0  0  0  0  0
    4.0042    1.4799    1.6847 O   0  0  0  0  0  0  0  0  0  0  0  0
   -0.7028    0.1300    0.0074 C   0  0  1  0  0  0  0  0  0  0  0  0
   -1.2784    0.4349   -1.3566 C   0  0  0  0  0  0  0  0  0  0  0  0
   -2.5529    1.2037   -1.0782 C   0  0  0  0  0  0  0  0  0  0  0  0
   -2.8721    0.8628    0.3056 N   0  0  0  0  0  0  0  0  0  0  0  0
   -1.9416   -0.0970    0.7954 C   0  0  0  0  0  0  0  0  0  0  0  0
   -2.1888   -0.9167    1.6937 O   0  0  0  0  0  0  0  0  0  0  0  0
   -1.2896   -2.2184   -0.8566 H   0  0  0  0  0  0  0  0  0  0  0  0
    0.3771   -2.7449   -1.1658 H   0  0  0  0  0  0  0  0  0  0  0  0
   -0.2727   -2.9771    0.4715 H   0  0  0  0  0  0  0  0  0  0  0  0
    1.4663    0.8705    1.7599 H   0  0  0  0  0  0  0  0  0  0  0  0
    1.9819    1.2617    0.0791 H   0  0  0  0  0  0  0  0  0  0  0  0
    3.5846   -0.4260    1.9266 H   0  0  0  0  0  0  0  0  0  0  0  0
    4.2204    2.0360    0.8997 H   0  0  0  0  0  0  0  0  0  0  0  0
   -0.1979    1.0326    0.3586 H   0  0  0  0  0  0  0  0  0  0  0  0
   -0.5882    1.0757   -1.9408 H   0  0  0  0  0  0  0  0  0  0  0  0
   -1.4639   -0.4819   -1.9465 H   0  0  0  0  0  0  0  0  0  0  0  0
   -2.3932    2.3074   -1.1689 H   0  0  0  0  0  0  0  0  0  0  0  0
   -3.3970    0.8646   -1.7225 H   0  0  0  0  0  0  0  0  0  0  0  0
   -3.6854    1.2943    0.8207 H   0  0  0  0  0  0  0  0  0  0  0  0
  1  2  1  0
  2  3  1  0
  3  4  2  0
  3  5  1  0
  5  6  1  0
  6  7  1  0
  2  8  1  0
  8  9  1  0
  9 10  1  0
 10 11  1  0
 11 12  1  0
 12 13  2  0
 12  8  1  0
  1 14  1  0
  1 15  1  0
  1 16  1  0
  5 17  1  0
  5 18  1  0
  6 19  1  0
  7 20  1  0
  8 21  1  1
  9 22  1  0
  9 23  1  0
 10 24  1  0
 10 25  1  0
 11 26  1  0
M  END
$$$$

     RDKit          3D

 26 26  0  0  0  0  0  0  0  0999 V2000
   -0.1377   -1.4487   -0.3480 C   0  0  0  0  0  0  0  0  0  0  0  0
    0.1857   -0.0584   -0.0263 N   0  0  0  0  0  0  0  0  0  0  0  0
    1.5205    0.3619   -0.0757 C   0  0  0  0  0  0  0  0  0  0  0  0
    1.8119    1.5792    0.1143 O   0  0  0  0  0  0  0  0  0  0  0  0
    2.6166   -0.6147   -0.3544 C   0  0  0  0  0  0  0  0  0  0  0  0
    3.8759    0.0742   -0.4190 N   0  0  0  0  0  0  0  0  0  0  0  0
    4.6446   -0.1950    0.7244 O   0  0  0  0  0  0  0  0  0  0  0  0
   -0.9214    0.7658    0.3884 C   0  0  1  0  0  0  0  0  0  0  0  0
   -1.9304    1.0336   -0.7468 C   0  0  0  0  0  0  0  0  0  0  0  0
   -3.2758    0.9408   -0.0447 C   0  0  0  0  0  0  0  0  0  0  0  0
   -3.0207   -0.1684    0.8625 N   0  0  0  0  0  0  0  0  0  0  0  0
   -1.7376    0.1081    1.4398 C   0  0  0  0  0  0  0  0  0  0  0  0
   -1.3841   -0.1681    2.6202 O   0  0  0  0  0  0  0  0  0  0  0  0
   -0.3489   -1.5725   -1.4147 H   0  0  0  0  0  0  0  0  0  0  0  0
   -1.0039   -1.8186    0.1952 H   0  0  0  0  0  0  0  0  0  0  0  0
    0.7257   -2.1257   -0.0953 H   0  0  0  0  0  0  0  0  0  0  0  0
    2.5617   -1.4672    0.3276 H   0  0  0  0  0  0  0  0  0  0  0  0
    2.4091   -1.0031   -1.3917 H   0  0  0  0  0  0  0  0  0  0  0  0
    4.3790   -0.3584   -1.2616 H   0  0  0  0  0  0  0  0  0  0  0  0
    4.4032    0.4972    1.4055 H   0  0  0  0  0  0  0  0  0  0  0  0
   -0.5447    1.7412    0.7147 H   0  0  0  0  0  0  0  0  0  0  0  0
   -1.8832    0.2409   -1.4963 H   0  0  0  0  0  0  0  0  0  0  0  0
   -1.7774    2.0617   -1.1345 H   0  0  0  0  0  0  0  0  0  0  0  0
   -4.0720    0.7209   -0.7515 H   0  0  0  0  0  0  0  0  0  0  0  0
   -3.4783    1.8706    0.5019 H   0  0  0  0  0  0  0  0  0  0  0  0
   -3.6179   -0.9970    1.0694 H   0  0  0  0  0  0  0  0  0  0  0  0
  1  2  1  0
  2  3  1  0
  3  4  2  0
  3  5  1  0
  5  6  1  0
  6  7  1  0
  2  8  1  0
  8  9  1  0
  9 10  1  0
 10 11  1  0
 11 12  1  0
 12 13  2  0
 12  8  1  0
  1 14  1  0
  1 15  1  0
  1 16  1  0
  5 17  1  0
  5 18  1  0
  6 19  1  0
  7 20  1  0
  8 21  1  1
  9 22  1  0
  9 23  1  0
 10 24  1  0
 10 25  1  0
 11 26  1  0
M  END
$$$$
