
     RDKit          3D

 33 33  0  0  0  0  0  0  0  0999 V2000
   -1.9459   -0.6706   -1.8398 C   0  0  0  0  0  0  0  0  0  0  0  0
   -1.8233   -0.2706   -0.3984 C   0  0  0  0  0  0  0  0  0  0  0  0
   -1.8903   -1.4236    0.5565 C   0  0  0  0  0  0  0  0  0  0  0  0
   -2.9429    0.6991    0.0155 C   0  0  0  0  0  0  0  0  0  0  0  0
   -2.4208    1.3389    1.1905 N   0  0  0  0  0  0  0  0  0  0  0  0
   -1.0106    1.1086    1.2662 C   0  0  0  0  0  0  0  0  0  0  0  0
   -0.6399    0.6384   -0.1468 C   0  0  1  0  0  0  0  0  0  0  0  0
    0.6246   -0.0193   -0.1768 N   0  0  0  0  0  0  0  0  0  0  0  0
    1.6517    0.9915   -0.0805 C   0  0  0  0  0  0  0  0  0  0  0  0
    3.0406    0.3978   -0.0960 C   0  0  2  0  0  0  0  0  0  0  0  0
    3.3037   -0.3160   -1.2409 O   0  0  0  0  0  0  0  0  0  0  0  0
    3.2256   -0.4140    1.1674 C   0  0  0  0  0  0  0  0  0  0  0  0
    2.3529   -1.4971    1.1207 O   0  0  0  0  0  0  0  0  0  0  0  0
   -3.0460   -0.7843   -2.0542 H   0  0  0  0  0  0  0  0  0  0  0  0
   -1.5181    0.1234   -2.4506 H   0  0  0  0  0  0  0  0  0  0  0  0
   -1.4727   -1.6540   -1.9686 H   0  0  0  0  0  0  0  0  0  0  0  0
   -2.4548   -2.2537    0.0870 H   0  0  0  0  0  0  0  0  0  0  0  0
   -0.9037   -1.7634    0.9125 H   0  0  0  0  0  0  0  0  0  0  0  0
   -2.4647   -1.1635    1.4944 H   0  0  0  0  0  0  0  0  0  0  0  0
   -3.8986    0.1944    0.1334 H   0  0  0  0  0  0  0  0  0  0  0  0
   -2.9427    1.4789   -0.7954 H   0  0  0  0  0  0  0  0  0  0  0  0
   -2.9380    0.9567    2.0158 H   0  0  0  0  0  0  0  0  0  0  0  0
   -0.8721    0.1841    1.9006 H   0  0  0  0  0  0  0  0  0  0  0  0
   -0.4095    1.9520    1.5985 H   0  0  0  0  0  0  0  0  0  0  0  0
   -0.6588    1.4759   -0.8356 H   0  0  0  0  0  0  0  0  0  0  0  0
    0.7142   -0.5477   -1.0617 H   0  0  0  0  0  0  0  0  0  0  0  0
    1.4946    1.6067    0.8256 H   0  0  0  0  0  0  0  0  0  0  0  0
    1.6148    1.7032   -0.9472 H   0  0  0  0  0  0  0  0  0  0  0  0
    3.8079    1.2113   -0.0494 H   0  0  0  0  0  0  0  0  0  0  0  0
    4.2648   -0.5546   -1.2393 H   0  0  0  0  0  0  0  0  0  0  0  0
    2.9891    0.2775    2.0175 H   0  0  0  0  0  0  0  0  0  0  0  0
    4.2796   -0.7228    1.3061 H   0  0  0  0  0  0  0  0  0  0  0  0
    2.8893   -2.2829    0.8574 H   0  0  0  0  0  0  0  0  0  0  0  0
  1  2  1  0
  2  3  1  0
  2  4  1  0
  4  5  1  0
  5  6  1  0
  6  7  1  0
  7  8  1  0
  8  9  1  0
  9 10  1  0
 10 11  1  0
 10 12  1  0
 12 13  1  0
  7  2  1  0
  1 14  1  0
  1 15  1  0
  1 16  1  0
  3 17  1  0
  3 18  1  0
  3 19  1  0
  4 20  1  0
  4 21  1  0
  5 22  1  0
  6 23  1  0
  6 24  1  0
  7 25  1  6
  8 26  1  0
  9 27  1  0
  9 28  1  0
 10 29  1  1
 11 30  1  0
 12 31  1  0
 12 32  1  0
 13 33  1  0
M  END
$$$$

     RDKit          3D

 33 33  0  0  0  0  0  0  0  0999 V2000
   -1.5966   -1.7490    0.3810 C   0  0  0  0  0  0  0  0  0  0  0  0
   -1.8283   -0.4431   -0.3594 C   0  0  0  0  0  0  0  0  0  0  0  0
   -2.1149   -0.5978   -1.8003 C   0  0  0  0  0  0  0  0  0  0  0  0
   -2.8275    0.3500    0.4376 C   0  0  0  0  0  0  0  0  0  0  0  0
   -2.1182    0.7390    1.6462 N   0  0  0  0  0  0  0  0  0  0  0  0
   -0.6890    0.5023    1.3982 C   0  0  0  0  0  0  0  0  0  0  0  0
   -0.5832    0.4529   -0.0850 C   0  0  1  0  0  0  0  0  0  0  0  0
    0.5252   -0.1786   -0.6666 N   0  0  0  0  0  0  0  0  0  0  0  0
    1.6862    0.5525   -0.9874 C   0  0  0  0  0  0  0  0  0  0  0  0
    2.4711    1.0244    0.2092 C   0  0  2  0  0  0  0  0  0  0  0  0
    3.5965    1.7161   -0.2583 O   0  0  0  0  0  0  0  0  0  0  0  0
    2.9417   -0.2095    0.9897 C   0  0  0  0  0  0  0  0  0  0  0  0
    3.6743   -0.9802    0.0789 O   0  0  0  0  0  0  0  0  0  0  0  0
   -2.0121   -1.6862    1.4236 H   0  0  0  0  0  0  0  0  0  0  0  0
   -0.5103   -1.9068    0.4536 H   0  0  0  0  0  0  0  0  0  0  0  0
   -2.1217   -2.5578   -0.1705 H   0  0  0  0  0  0  0  0  0  0  0  0
   -3.1881   -0.7167   -2.0024 H   0  0  0  0  0  0  0  0  0  0  0  0
   -1.6307   -1.5526   -2.1381 H   0  0  0  0  0  0  0  0  0  0  0  0
   -1.6298    0.2348   -2.3538 H   0  0  0  0  0  0  0  0  0  0  0  0
   -3.7321   -0.2300    0.6791 H   0  0  0  0  0  0  0  0  0  0  0  0
   -3.0914    1.2922   -0.1289 H   0  0  0  0  0  0  0  0  0  0  0  0
   -2.2460    1.7470    1.8632 H   0  0  0  0  0  0  0  0  0  0  0  0
   -0.1455    1.2927    1.9113 H   0  0  0  0  0  0  0  0  0  0  0  0
   -0.3885   -0.4637    1.8736 H   0  0  0  0  0  0  0  0  0  0  0  0
   -0.7769    1.4601   -0.4960 H   0  0  0  0  0  0  0  0  0  0  0  0
    0.1881   -0.7065   -1.5313 H   0  0  0  0  0  0  0  0  0  0  0  0
    1.5045    1.4072   -1.6931 H   0  0  0  0  0  0  0  0  0  0  0  0
    2.3708   -0.1177   -1.5957 H   0  0  0  0  0  0  0  0  0  0  0  0
    1.9217    1.6480    0.9065 H   0  0  0  0  0  0  0  0  0  0  0  0
    3.3160    2.1846   -1.0840 H   0  0  0  0  0  0  0  0  0  0  0  0
    3.6313    0.1478    1.7640 H   0  0  0  0  0  0  0  0  0  0  0  0
    2.0863   -0.7729    1.3572 H   0  0  0  0  0  0  0  0  0  0  0  0
    3.3173   -1.8824   -0.0219 H   0  0  0  0  0  0  0  0  0  0  0  0
  1  2  1  0
  2  3  1  0
  2  4  1  0
  4  5  1  0
  5  6  1  0
  6  7  1  0
  7  8  1  0
  8  9  1  0
  9 10  1  0
 10 11  1  0
 10 12  1  0
 12 13  1  0
  7  2  1  0
  1 14  1  0
  1 15  1  0
  1 16  1  0
  3 17  1  0
  3 18  1  0
  3 19  1  0
  4 20  1  0
  4 21  1  0
  5 22  1  0
  6 23  1  0
  6 24  1  0
  7 25  1  6
  8 26  1  0
  9 27  1  0
  9 28  1  0
 10 29  1  1
 11 30  1  0
 12 31  1  0
 12 32  1  0
 13 33  1  0
M  END
$$$$

     RDKit          3D

 33 33  0  0  0  0  0  0  0  0999 V2000
   -1.7464    1.2674    1.2831 C   0  0  0  0  0  0  0  0  0  0  0  0
   -1.8457   -0.0199    0.5507 C   0  0  0  0  0  0  0  0  0  0  0  0
   -2.1647   -1.1309    1.5620 C   0  0  0  0  0  0  0  0  0  0  0  0
   -3.0260    0.0996   -0.4334 C   0  0  0  0  0  0  0  0  0  0  0  0
   -2.4858   -0.2344   -1.7355 N   0  0  0  0  0  0  0  0  0  0  0  0
   -1.0414   -0.0037   -1.6641 C   0  0  0  0  0  0  0  0  0  0  0  0
   -0.6863   -0.4417   -0.2505 C   0  0  1  0  0  0  0  0  0  0  0  0
    0.6187   -0.2271    0.1496 N   0  0  0  0  0  0  0  0  0  0  0  0
    1.5596    0.2499   -0.7916 C   0  0  0  0  0  0  0  0  0  0  0  0
    2.9976   -0.2033   -0.5192 C   0  0  2  0  0  0  0  0  0  0  0  0
    2.9540   -1.6045   -0.5606 O   0  0  0  0  0  0  0  0  0  0  0  0
    3.5778    0.1875    0.7672 C   0  0  0  0  0  0  0  0  0  0  0  0
    3.7101    1.5276    0.9927 O   0  0  0  0  0  0  0  0  0  0  0  0
   -1.9298    2.1107    0.5764 H   0  0  0  0  0  0  0  0  0  0  0  0
   -0.8203    1.3862    1.8720 H   0  0  0  0  0  0  0  0  0  0  0  0
   -2.6018    1.2886    2.0208 H   0  0  0  0  0  0  0  0  0  0  0  0
   -2.8370   -1.8717    1.1222 H   0  0  0  0  0  0  0  0  0  0  0  0
   -2.5282   -0.6891    2.4970 H   0  0  0  0  0  0  0  0  0  0  0  0
   -1.1865   -1.6414    1.7806 H   0  0  0  0  0  0  0  0  0  0  0  0
   -3.3896    1.1375   -0.5037 H   0  0  0  0  0  0  0  0  0  0  0  0
   -3.8439   -0.5893   -0.1412 H   0  0  0  0  0  0  0  0  0  0  0  0
   -2.8751    0.3113   -2.5188 H   0  0  0  0  0  0  0  0  0  0  0  0
   -0.6310   -0.7263   -2.4314 H   0  0  0  0  0  0  0  0  0  0  0  0
   -0.8237    1.0300   -1.9020 H   0  0  0  0  0  0  0  0  0  0  0  0
   -0.8216   -1.6035   -0.3454 H   0  0  0  0  0  0  0  0  0  0  0  0
    0.8617   -0.5036    1.0687 H   0  0  0  0  0  0  0  0  0  0  0  0
    1.2837   -0.0927   -1.8079 H   0  0  0  0  0  0  0  0  0  0  0  0
    1.5232    1.3836   -0.8494 H   0  0  0  0  0  0  0  0  0  0  0  0
    3.6011    0.1575   -1.3403 H   0  0  0  0  0  0  0  0  0  0  0  0
    2.6138   -1.8738   -1.4310 H   0  0  0  0  0  0  0  0  0  0  0  0
    4.5439   -0.3374    0.8659 H   0  0  0  0  0  0  0  0  0  0  0  0
    2.9299   -0.2344    1.6324 H   0  0  0  0  0  0  0  0  0  0  0  0
    4.5098    1.8911    0.4848 H   0  0  0  0  0  0  0  0  0  0  0  0
  1  2  1  0
  2  3  1  0
  2  4  1  0
  4  5  1  0
  5  6  1  0
  6  7  1  0
  7  8  1  0
  8  9  1  0
  9 10  1  0
 10 11  1  0
 10 12  1  0
 12 13  1  0
  7  2  1  0
  1 14  1  0
  1 15  1  0
  1 16  1  0
  3 17  1  0
  3 18  1  0
  3 19  1  0
  4 20  1  0
  4 21  1  0
  5 22  1  0
  6 23  1  0
  6 24  1  0
  7 25  1  6
  8 26  1  0
  9 27  1  0
  9 28  1  0
 10 29  1  6
 11 30  1  0
 12 31  1  0
 12 32  1  0
 13 33  1  0
M  END
$$$$

     RDKit          3D

 33 33  0  0  0  0  0  0  0  0999 V2000
   -1.6819   -1.5426   -0.5380 C   0  0  0  0  0  0  0  0  0  0  0  0
   -1.6687   -0.0766   -0.2626 C   0  0  0  0  0  0  0  0  0  0  0  0
   -2.1576    0.6333   -1.5506 C   0  0  0  0  0  0  0  0  0  0  0  0
   -2.7034    0.3079    0.7818 C   0  0  0  0  0  0  0  0  0  0  0  0
   -2.3669    1.6657    1.0741 N   0  0  0  0  0  0  0  0  0  0  0  0
   -0.9455    1.7977    0.9524 C   0  0  0  0  0  0  0  0  0  0  0  0
   -0.4391    0.5633    0.1892 C   0  0  1  0  0  0  0  0  0  0  0  0
    0.4857   -0.0885    1.0084 N   0  0  0  0  0  0  0  0  0  0  0  0
    1.2615   -1.1670    0.5887 C   0  0  0  0  0  0  0  0  0  0  0  0
    2.3313   -0.8386   -0.4293 C   0  0  2  0  0  0  0  0  0  0  0  0
    2.9858   -2.0346   -0.7221 O   0  0  0  0  0  0  0  0  0  0  0  0
    3.3819    0.0977    0.1652 C   0  0  0  0  0  0  0  0  0  0  0  0
    4.3690    0.2593   -0.8084 O   0  0  0  0  0  0  0  0  0  0  0  0
   -1.6195   -2.1581    0.3702 H   0  0  0  0  0  0  0  0  0  0  0  0
   -0.9701   -1.7758   -1.3295 H   0  0  0  0  0  0  0  0  0  0  0  0
   -2.7227   -1.7605   -0.9443 H   0  0  0  0  0  0  0  0  0  0  0  0
   -1.6552    0.2095   -2.4287 H   0  0  0  0  0  0  0  0  0  0  0  0
   -1.9157    1.7016   -1.4218 H   0  0  0  0  0  0  0  0  0  0  0  0
   -3.2639    0.5343   -1.5846 H   0  0  0  0  0  0  0  0  0  0  0  0
   -2.5875   -0.2774    1.7225 H   0  0  0  0  0  0  0  0  0  0  0  0
   -3.7038    0.1872    0.3157 H   0  0  0  0  0  0  0  0  0  0  0  0
   -2.9207    2.3466    0.5367 H   0  0  0  0  0  0  0  0  0  0  0  0
   -0.6394    2.7446    0.4401 H   0  0  0  0  0  0  0  0  0  0  0  0
   -0.5090    1.8374    1.9751 H   0  0  0  0  0  0  0  0  0  0  0  0
    0.0469    1.0071   -0.7423 H   0  0  0  0  0  0  0  0  0  0  0  0
    0.7881    0.3905    1.8825 H   0  0  0  0  0  0  0  0  0  0  0  0
    0.6952   -2.0533    0.2861 H   0  0  0  0  0  0  0  0  0  0  0  0
    1.8586   -1.5088    1.5035 H   0  0  0  0  0  0  0  0  0  0  0  0
    1.9822   -0.3966   -1.3546 H   0  0  0  0  0  0  0  0  0  0  0  0
    3.1853   -2.5116    0.1269 H   0  0  0  0  0  0  0  0  0  0  0  0
    3.8724   -0.3605    1.0510 H   0  0  0  0  0  0  0  0  0  0  0  0
    2.9534    1.1124    0.3880 H   0  0  0  0  0  0  0  0  0  0  0  0
    4.2735    1.1543   -1.2414 H   0  0  0  0  0  0  0  0  0  0  0  0
  1  2  1  0
  2  3  1  0
  2  4  1  0
  4  5  1  0
  5  6  1  0
  6  7  1  0
  7  8  1  0
  8  9  1  0
  9 10  1  0
 10 11  1  0
 10 12  1  0
 12 13  1  0
  7  2  1  0
  1 14  1  0
  1 15  1  0
  1 16  1  0
  3 17  1  0
  3 18  1  0
  3 19  1  0
  4 20  1  0
  4 21  1  0
  5 22  1  0
  6 23  1  0
  6 24  1  0
  7 25  1  6
  8 26  1  0
  9 27  1  0
  9 28  1  0
 10 29  1  6
 11 30  1  0
 12 31  1  0
 12 32  1  0
 13 33  1  0
M  END
$$$$

     RDKit          3D

 33 33  0  0  0  0  0  0  0  0999 V2000
   -1.5564    1.0264    1.4741 C   0  0  0  0  0  0  0  0  0  0  0  0
   -1.6816    0.1521    0.2908 C   0  0  0  0  0  0  0  0  0  0  0  0
   -2.9672   -0.6714    0.3726 C   0  0  0  0  0  0  0  0  0  0  0  0
   -1.6959    0.9814   -1.0030 C   0  0  0  0  0  0  0  0  0  0  0  0
   -1.7316   -0.0859   -1.9838 N   0  0  0  0  0  0  0  0  0  0  0  0
   -1.0385   -1.2159   -1.4556 C   0  0  0  0  0  0  0  0  0  0  0  0
   -0.5828   -0.7944   -0.0253 C   0  0  1  0  0  0  0  0  0  0  0  0
    0.7245   -0.2840   -0.2070 N   0  0  0  0  0  0  0  0  0  0  0  0
    1.3704    0.3432    0.8956 C   0  0  0  0  0  0  0  0  0  0  0  0
    2.7955    0.6796    0.4639 C   0  0  2  0  0  0  0  0  0  0  0  0
    2.7781    1.5280   -0.6128 O   0  0  0  0  0  0  0  0  0  0  0  0
    3.5752   -0.5730    0.1515 C   0  0  0  0  0  0  0  0  0  0  0  0
    3.0483   -1.2805   -0.9258 O   0  0  0  0  0  0  0  0  0  0  0  0
   -2.6272    1.1514    1.8758 H   0  0  0  0  0  0  0  0  0  0  0  0
   -1.0036    0.6541    2.3314 H   0  0  0  0  0  0  0  0  0  0  0  0
   -1.3115    2.0773    1.1704 H   0  0  0  0  0  0  0  0  0  0  0  0
   -3.4142   -0.4914    1.3890 H   0  0  0  0  0  0  0  0  0  0  0  0
   -2.7849   -1.7486    0.3213 H   0  0  0  0  0  0  0  0  0  0  0  0
   -3.6696   -0.3507   -0.3950 H   0  0  0  0  0  0  0  0  0  0  0  0
   -2.5547    1.6633   -1.0451 H   0  0  0  0  0  0  0  0  0  0  0  0
   -0.7128    1.4665   -1.0598 H   0  0  0  0  0  0  0  0  0  0  0  0
   -2.7352   -0.2752   -2.1955 H   0  0  0  0  0  0  0  0  0  0  0  0
   -0.1591   -1.4769   -2.0664 H   0  0  0  0  0  0  0  0  0  0  0  0
   -1.7164   -2.0744   -1.3416 H   0  0  0  0  0  0  0  0  0  0  0  0
   -0.6043   -1.7134    0.6227 H   0  0  0  0  0  0  0  0  0  0  0  0
    0.8938    0.2312   -1.0761 H   0  0  0  0  0  0  0  0  0  0  0  0
    0.8647    1.3233    1.0929 H   0  0  0  0  0  0  0  0  0  0  0  0
    1.3458   -0.2223    1.8348 H   0  0  0  0  0  0  0  0  0  0  0  0
    3.2993    1.1797    1.3103 H   0  0  0  0  0  0  0  0  0  0  0  0
    2.8418    2.5001   -0.3825 H   0  0  0  0  0  0  0  0  0  0  0  0
    4.6006   -0.2738   -0.1330 H   0  0  0  0  0  0  0  0  0  0  0  0
    3.6198   -1.2280    1.0509 H   0  0  0  0  0  0  0  0  0  0  0  0
    2.7897   -2.1982   -0.7400 H   0  0  0  0  0  0  0  0  0  0  0  0
  1  2  1  0
  2  3  1  0
  2  4  1  0
  4  5  1  0
  5  6  1  0
  6  7  1  0
  7  8  1  0
  8  9  1  0
  9 10  1  0
 10 11  1  0
 10 12  1  0
 12 13  1  0
  7  2  1  0
  1 14  1  0
  1 15  1  0
  1 16  1  0
  3 17  1  0
  3 18  1  0
  3 19  1  0
  4 20  1  0
  4 21  1  0
  5 22  1  0
  6 23  1  0
  6 24  1  0
  7 25  1  1
  8 26  1  0
  9 27  1  0
  9 28  1  0
 10 29  1  1
 11 30  1  0
 12 31  1  0
 12 32  1  0
 13 33  1  0
M  END
$$$$

     RDKit          3D

 33 33  0  0  0  0  0  0  0  0999 V2000
   -2.1145    1.5335    0.5947 C   0  0  0  0  0  0  0  0  0  0  0  0
   -1.8982    0.0634    0.7823 C   0  0  0  0  0  0  0  0  0  0  0  0
   -1.8696   -0.3553    2.2263 C   0  0  0  0  0  0  0  0  0  0  0  0
   -2.9955   -0.6514    0.0056 C   0  0  0  0  0  0  0  0  0  0  0  0
   -2.6366   -0.2324   -1.3582 N   0  0  0  0  0  0  0  0  0  0  0  0
   -1.1848   -0.2793   -1.4069 C   0  0  0  0  0  0  0  0  0  0  0  0
   -0.7047   -0.4645    0.0087 C   0  0  1  0  0  0  0  0  0  0  0  0
    0.5061    0.2581    0.2914 N   0  0  0  0  0  0  0  0  0  0  0  0
    1.5572   -0.3569   -0.4917 C   0  0  0  0  0  0  0  0  0  0  0  0
    2.9012    0.3151   -0.3062 C   0  0  2  0  0  0  0  0  0  0  0  0
    3.8767   -0.3184   -1.0906 O   0  0  0  0  0  0  0  0  0  0  0  0
    3.3312    0.1662    1.1250 C   0  0  0  0  0  0  0  0  0  0  0  0
    4.5919    0.7891    1.2173 O   0  0  0  0  0  0  0  0  0  0  0  0
   -2.7356    1.7739   -0.2967 H   0  0  0  0  0  0  0  0  0  0  0  0
   -1.1340    2.0478    0.4085 H   0  0  0  0  0  0  0  0  0  0  0  0
   -2.6101    1.9836    1.4913 H   0  0  0  0  0  0  0  0  0  0  0  0
   -1.3944   -1.3309    2.3036 H   0  0  0  0  0  0  0  0  0  0  0  0
   -2.9044   -0.4015    2.6023 H   0  0  0  0  0  0  0  0  0  0  0  0
   -1.3255    0.4405    2.7826 H   0  0  0  0  0  0  0  0  0  0  0  0
   -3.9907   -0.3156    0.2696 H   0  0  0  0  0  0  0  0  0  0  0  0
   -2.8169   -1.7341    0.0819 H   0  0  0  0  0  0  0  0  0  0  0  0
   -3.0941   -0.8134   -2.0727 H   0  0  0  0  0  0  0  0  0  0  0  0
   -0.8087   -1.0983   -2.0522 H   0  0  0  0  0  0  0  0  0  0  0  0
   -0.7778    0.6773   -1.8067 H   0  0  0  0  0  0  0  0  0  0  0  0
   -0.5741   -1.5197    0.2466 H   0  0  0  0  0  0  0  0  0  0  0  0
    0.7451    0.2171    1.3048 H   0  0  0  0  0  0  0  0  0  0  0  0
    1.6375   -1.4561   -0.2676 H   0  0  0  0  0  0  0  0  0  0  0  0
    1.3264   -0.3030   -1.5741 H   0  0  0  0  0  0  0  0  0  0  0  0
    2.8094    1.3908   -0.5463 H   0  0  0  0  0  0  0  0  0  0  0  0
    3.5254   -1.2306   -1.2947 H   0  0  0  0  0  0  0  0  0  0  0  0
    2.6392    0.6164    1.8619 H   0  0  0  0  0  0  0  0  0  0  0  0
    3.4714   -0.9200    1.3269 H   0  0  0  0  0  0  0  0  0  0  0  0
    4.6516    1.5087    0.5399 H   0  0  0  0  0  0  0  0  0  0  0  0
  1  2  1  0
  2  3  1  0
  2  4  1  0
  4  5  1  0
  5  6  1  0
  6  7  1  0
  7  8  1  0
  8  9  1  0
  9 10  1  0
 10 11  1  0
 10 12  1  0
 12 13  1  0
  7  2  1  0
  1 14  1  0
  1 15  1  0
  1 16  1  0
  3 17  1  0
  3 18  1  0
  3 19  1  0
  4 20  1  0
  4 21  1  0
  5 22  1  0
  6 23  1  0
  6 24  1  0
  7 25  1  1
  8 26  1  0
  9 27  1  0
  9 28  1  0
 10 29  1  6
 11 30  1  0
 12 31  1  0
 12 32  1  0
 13 33  1  0
M  END
$$$$

     RDKit          3D

 33 33  0  0  0  0  0  0  0  0999 V2000
   -1.1289    1.4257    0.2087 C   0  0  0  0  0  0  0  0  0  0  0  0
   -1.5590   -0.0086    0.3132 C   0  0  0  0  0  0  0  0  0  0  0  0
   -1.2671   -0.6155    1.6489 C   0  0  0  0  0  0  0  0  0  0  0  0
   -3.0458   -0.0474   -0.0127 C   0  0  0  0  0  0  0  0  0  0  0  0
   -3.0090    0.0121   -1.4679 N   0  0  0  0  0  0  0  0  0  0  0  0
   -1.9708   -0.8890   -1.8805 C   0  0  0  0  0  0  0  0  0  0  0  0
   -0.9511   -0.8851   -0.7611 C   0  0  1  0  0  0  0  0  0  0  0  0
    0.3104   -0.3838   -1.1536 N   0  0  0  0  0  0  0  0  0  0  0  0
    1.3265   -0.3587   -0.1551 C   0  0  0  0  0  0  0  0  0  0  0  0
    2.6348    0.2131   -0.6824 C   0  0  2  0  0  0  0  0  0  0  0  0
    3.1107   -0.5501   -1.7436 O   0  0  0  0  0  0  0  0  0  0  0  0
    3.6521    0.2840    0.4332 C   0  0  0  0  0  0  0  0  0  0  0  0
    3.0952    1.0622    1.4540 O   0  0  0  0  0  0  0  0  0  0  0  0
   -0.7430    1.7952    1.1859 H   0  0  0  0  0  0  0  0  0  0  0  0
   -2.0032    2.0973   -0.0320 H   0  0  0  0  0  0  0  0  0  0  0  0
   -0.4204    1.5995   -0.6213 H   0  0  0  0  0  0  0  0  0  0  0  0
   -2.2140   -0.9432    2.1679 H   0  0  0  0  0  0  0  0  0  0  0  0
   -0.8153    0.1824    2.2913 H   0  0  0  0  0  0  0  0  0  0  0  0
   -0.5463   -1.4255    1.5475 H   0  0  0  0  0  0  0  0  0  0  0  0
   -3.5445    0.8619    0.3422 H   0  0  0  0  0  0  0  0  0  0  0  0
   -3.5617   -0.9260    0.3727 H   0  0  0  0  0  0  0  0  0  0  0  0
   -2.7043    0.9867   -1.7347 H   0  0  0  0  0  0  0  0  0  0  0  0
   -2.4161   -1.8777   -2.0240 H   0  0  0  0  0  0  0  0  0  0  0  0
   -1.5237   -0.5889   -2.8537 H   0  0  0  0  0  0  0  0  0  0  0  0
   -0.8649   -1.9430   -0.4155 H   0  0  0  0  0  0  0  0  0  0  0  0
    0.3716    0.2708   -1.9241 H   0  0  0  0  0  0  0  0  0  0  0  0
    0.9882    0.2211    0.7181 H   0  0  0  0  0  0  0  0  0  0  0  0
    1.5498   -1.4091    0.1478 H   0  0  0  0  0  0  0  0  0  0  0  0
    2.4300    1.2267   -1.0798 H   0  0  0  0  0  0  0  0  0  0  0  0
    3.1133   -1.5054   -1.4459 H   0  0  0  0  0  0  0  0  0  0  0  0
    4.5713    0.8191    0.0916 H   0  0  0  0  0  0  0  0  0  0  0  0
    3.9024   -0.7228    0.8152 H   0  0  0  0  0  0  0  0  0  0  0  0
    3.2328    2.0219    1.2952 H   0  0  0  0  0  0  0  0  0  0  0  0
  1  2  1  0
  2  3  1  0
  2  4  1  0
  4  5  1  0
  5  6  1  0
  6  7  1  0
  7  8  1  0
  8  9  1  0
  9 10  1  0
 10 11  1  0
 10 12  1  0
 12 13  1  0
  7  2  1  0
  1 14  1  0
  1 15  1  0
  1 16  1  0
  3 17  1  0
  3 18  1  0
  3 19  1  0
  4 20  1  0
  4 21  1  0
  5 22  1  0
  6 23  1  0
  6 24  1  0
  7 25  1  1
  8 26  1  0
  9 27  1  0
  9 28  1  0
 10 29  1  6
 11 30  1  0
 12 31  1  0
 12 32  1  0
 13 33  1  0
M  END
$$$$

     RDKit          3D

 33 33  0  0  0  0  0  0  0  0999 V2000
   -2.4142   -1.0132    1.4080 C   0  0  0  0  0  0  0  0  0  0  0  0
   -1.9662   -0.0061    0.3495 C   0  0  0  0  0  0  0  0  0  0  0  0
   -2.2408    1.3518    0.8888 C   0  0  0  0  0  0  0  0  0  0  0  0
   -2.8068   -0.1857   -0.9133 C   0  0  0  0  0  0  0  0  0  0  0  0
   -1.8982   -0.7496   -1.9011 N   0  0  0  0  0  0  0  0  0  0  0  0
   -0.7918   -1.3317   -1.1443 C   0  0  0  0  0  0  0  0  0  0  0  0
   -0.5641   -0.3039   -0.0334 C   0  0  1  0  0  0  0  0  0  0  0  0
    0.2101    0.8095   -0.5029 N   0  0  0  0  0  0  0  0  0  0  0  0
    1.5761    0.4548   -0.6705 C   0  0  0  0  0  0  0  0  0  0  0  0
    2.3424    0.1933    0.5900 C   0  0  2  0  0  0  0  0  0  0  0  0
    2.3844    1.3123    1.4287 O   0  0  0  0  0  0  0  0  0  0  0  0
    3.7633   -0.2027    0.2721 C   0  0  0  0  0  0  0  0  0  0  0  0
    4.4923    0.7770   -0.3656 O   0  0  0  0  0  0  0  0  0  0  0  0
   -1.7925   -0.8262    2.3026 H   0  0  0  0  0  0  0  0  0  0  0  0
   -2.2187   -2.0188    0.9845 H   0  0  0  0  0  0  0  0  0  0  0  0
   -3.4783   -0.8141    1.5873 H   0  0  0  0  0  0  0  0  0  0  0  0
   -1.9151    2.1934    0.2508 H   0  0  0  0  0  0  0  0  0  0  0  0
   -3.3701    1.4216    0.9800 H   0  0  0  0  0  0  0  0  0  0  0  0
   -1.8891    1.4967    1.9526 H   0  0  0  0  0  0  0  0  0  0  0  0
   -3.6384   -0.8817   -0.6746 H   0  0  0  0  0  0  0  0  0  0  0  0
   -3.2143    0.7819   -1.2589 H   0  0  0  0  0  0  0  0  0  0  0  0
   -1.5044    0.0075   -2.5049 H   0  0  0  0  0  0  0  0  0  0  0  0
    0.0702   -1.4588   -1.7971 H   0  0  0  0  0  0  0  0  0  0  0  0
   -1.1068   -2.2958   -0.6968 H   0  0  0  0  0  0  0  0  0  0  0  0
   -0.0490   -0.7793    0.8026 H   0  0  0  0  0  0  0  0  0  0  0  0
   -0.1341    1.2360   -1.3782 H   0  0  0  0  0  0  0  0  0  0  0  0
    1.7589   -0.3924   -1.3705 H   0  0  0  0  0  0  0  0  0  0  0  0
    2.0794    1.3362   -1.1674 H   0  0  0  0  0  0  0  0  0  0  0  0
    1.9061   -0.6182    1.2101 H   0  0  0  0  0  0  0  0  0  0  0  0
    3.3032    1.6772    1.4575 H   0  0  0  0  0  0  0  0  0  0  0  0
    4.3102   -0.4746    1.2034 H   0  0  0  0  0  0  0  0  0  0  0  0
    3.7698   -1.1153   -0.3600 H   0  0  0  0  0  0  0  0  0  0  0  0
    5.0264    0.4192   -1.1445 H   0  0  0  0  0  0  0  0  0  0  0  0
  1  2  1  0
  2  3  1  0
  2  4  1  0
  4  5  1  0
  5  6  1  0
  6  7  1  0
  7  8  1  0
  8  9  1  0
  9 10  1  0
 10 11  1  0
 10 12  1  0
 12 13  1  0
  7  2  1  0
  1 14  1  0
  1 15  1  0
  1 16  1  0
  3 17  1  0
  3 18  1  0
  3 19  1  0
  4 20  1  0
  4 21  1  0
  5 22  1  0
  6 23  1  0
  6 24  1  0
  7 25  1  1
  8 26  1  0
  9 27  1  0
  9 28  1  0
 10 29  1  1
 11 30  1  0
 12 31  1  0
 12 32  1  0
 13 33  1  0
M  END
$$$$
