
     RDKit          3D

 23 24  0  0  0  0  0  0  0  0999 V2000
   -2.1608    1.6144   -0.6098 N   0  0  0  0  0  0  0  0  0  0  0  0
   -1.7132    0.4732   -0.1871 C   0  0  0  0  0  0  0  0  0  0  0  0
   -2.4698   -0.6518    0.2383 N   0  0  0  0  0  0  0  0  0  0  0  0
   -1.5889   -1.4623    1.0351 C   0  0  0  0  0  0  0  0  0  0  0  0
   -1.9404   -2.5469    1.5752 O   0  0  0  0  0  0  0  0  0  0  0  0
   -0.3230   -0.8138    1.0752 N   0  0  0  0  0  0  0  0  0  0  0  0
   -0.2886    0.0745   -0.0487 C   0  0  2  0  0  0  0  0  0  0  0  0
    0.5367    1.2982    0.1665 C   0  0  0  0  0  0  0  0  0  0  0  0
    1.9892    1.1363   -0.0856 C   0  0  0  0  0  0  0  0  0  0  0  0
    2.3902   -0.1496   -0.5594 N   0  0  0  0  0  0  0  0  0  0  0  0
    1.5167   -1.0816   -1.1515 C   0  0  0  0  0  0  0  0  0  0  0  0
    1.9519   -2.1878   -1.5303 O   0  0  0  0  0  0  0  0  0  0  0  0
    0.0853   -0.6852   -1.2963 C   0  0  0  0  0  0  0  0  0  0  0  0
   -3.1526    1.8500   -0.6905 H   0  0  0  0  0  0  0  0  0  0  0  0
   -3.4699   -0.8195   -0.0035 H   0  0  0  0  0  0  0  0  0  0  0  0
    0.3782   -1.0132    1.8192 H   0  0  0  0  0  0  0  0  0  0  0  0
    0.3810    1.6555    1.2065 H   0  0  0  0  0  0  0  0  0  0  0  0
    0.1168    2.1036   -0.4889 H   0  0  0  0  0  0  0  0  0  0  0  0
    2.3411    1.8995   -0.8372 H   0  0  0  0  0  0  0  0  0  0  0  0
    2.5886    1.3666    0.8418 H   0  0  0  0  0  0  0  0  0  0  0  0
    3.4027   -0.4114   -0.4572 H   0  0  0  0  0  0  0  0  0  0  0  0
   -0.0201   -0.0589   -2.2022 H   0  0  0  0  0  0  0  0  0  0  0  0
   -0.5510   -1.5898   -1.3394 H   0  0  0  0  0  0  0  0  0  0  0  0
  1  2  2  3
  2  3  1  0
  3  4  1  0
  4  5  2  0
  4  6  1  0
  7  6  1  1
  7  8  1  0
  8  9  1  0
  9 10  1  0
 10 11  1  0
 11 12  2  0
 11 13  1  0
  7  2  1  0
 13  7  1  0
  1 14  1  0
  3 15  1  0
  6 16  1  0
  8 17  1  0
  8 18  1  0
  9 19  1  0
  9 20  1  0
 10 21  1  0
 13 22  1  0
 13 23  1  0
M  END
$$$$

     RDKit          3D

 23 24  0  0  0  0  0  0  0  0999 V2000
    0.9892    2.0720   -1.1095 N   0  0  0  0  0  0  0  0  0  0  0  0
    1.2637    1.0480   -0.3801 C   0  0  0  0  0  0  0  0  0  0  0  0
    2.5507    0.7387    0.1215 N   0  0  0  0  0  0  0  0  0  0  0  0
    2.4662   -0.5233    0.7597 C   0  0  0  0  0  0  0  0  0  0  0  0
    3.3978   -1.1467    1.3319 O   0  0  0  0  0  0  0  0  0  0  0  0
    1.1352   -1.0049    0.6605 N   0  0  0  0  0  0  0  0  0  0  0  0
    0.3012    0.0347    0.0536 C   0  0  2  0  0  0  0  0  0  0  0  0
   -0.4064   -0.6303   -1.1151 C   0  0  0  0  0  0  0  0  0  0  0  0
   -1.5880   -1.3913   -0.5476 C   0  0  0  0  0  0  0  0  0  0  0  0
   -2.5680   -0.3608   -0.1737 N   0  0  0  0  0  0  0  0  0  0  0  0
   -2.0098    0.7799    0.4696 C   0  0  0  0  0  0  0  0  0  0  0  0
   -2.6606    1.8475    0.5222 O   0  0  0  0  0  0  0  0  0  0  0  0
   -0.6476    0.6173    1.0531 C   0  0  0  0  0  0  0  0  0  0  0  0
    1.7102    2.7670   -1.3928 H   0  0  0  0  0  0  0  0  0  0  0  0
    3.4391    1.3025    0.0608 H   0  0  0  0  0  0  0  0  0  0  0  0
    0.8146   -1.9467    0.9720 H   0  0  0  0  0  0  0  0  0  0  0  0
   -0.7114    0.1212   -1.8536 H   0  0  0  0  0  0  0  0  0  0  0  0
    0.3042   -1.3317   -1.5953 H   0  0  0  0  0  0  0  0  0  0  0  0
   -1.2489   -1.8870    0.3965 H   0  0  0  0  0  0  0  0  0  0  0  0
   -1.9997   -2.1229   -1.2381 H   0  0  0  0  0  0  0  0  0  0  0  0
   -3.5826   -0.4597   -0.3644 H   0  0  0  0  0  0  0  0  0  0  0  0
   -0.6895   -0.0987    1.9252 H   0  0  0  0  0  0  0  0  0  0  0  0
   -0.2596    1.5750    1.4437 H   0  0  0  0  0  0  0  0  0  0  0  0
  1  2  2  3
  2  3  1  0
  3  4  1  0
  4  5  2  0
  4  6  1  0
  7  6  1  1
  7  8  1  0
  8  9  1  0
  9 10  1  0
 10 11  1  0
 11 12  2  0
 11 13  1  0
  7  2  1  0
 13  7  1  0
  1 14  1  0
  3 15  1  0
  6 16  1  0
  8 17  1  0
  8 18  1  0
  9 19  1  0
  9 20  1  0
 10 21  1  0
 13 22  1  0
 13 23  1  0
M  END
$$$$

     RDKit          3D

 23 24  0  0  0  0  0  0  0  0999 V2000
    1.8827   -1.9027   -0.0526 N   0  0  0  0  0  0  0  0  0  0  0  0
    1.6241   -0.6401   -0.0583 C   0  0  0  0  0  0  0  0  0  0  0  0
    2.5029    0.4460   -0.3322 N   0  0  0  0  0  0  0  0  0  0  0  0
    1.9291    1.6433    0.2291 C   0  0  0  0  0  0  0  0  0  0  0  0
    2.4118    2.8030    0.1915 O   0  0  0  0  0  0  0  0  0  0  0  0
    0.7056    1.2407    0.8329 N   0  0  0  0  0  0  0  0  0  0  0  0
    0.3141   -0.0179    0.2277 C   0  0  2  0  0  0  0  0  0  0  0  0
   -0.5497   -0.8383    1.1252 C   0  0  0  0  0  0  0  0  0  0  0  0
   -1.8916   -1.1949    0.5221 C   0  0  0  0  0  0  0  0  0  0  0  0
   -2.5167    0.0681    0.1002 N   0  0  0  0  0  0  0  0  0  0  0  0
   -1.7033    0.9029   -0.7159 C   0  0  0  0  0  0  0  0  0  0  0  0
   -2.0860    2.0386   -1.0957 O   0  0  0  0  0  0  0  0  0  0  0  0
   -0.3769    0.3448   -1.0874 C   0  0  0  0  0  0  0  0  0  0  0  0
    2.8433   -2.2551   -0.2680 H   0  0  0  0  0  0  0  0  0  0  0  0
    3.4092    0.3831   -0.8518 H   0  0  0  0  0  0  0  0  0  0  0  0
    0.1943    1.7664    1.5758 H   0  0  0  0  0  0  0  0  0  0  0  0
   -0.0401   -1.8148    1.3453 H   0  0  0  0  0  0  0  0  0  0  0  0
   -0.7276   -0.3012    2.0957 H   0  0  0  0  0  0  0  0  0  0  0  0
   -2.5054   -1.6561    1.2966 H   0  0  0  0  0  0  0  0  0  0  0  0
   -1.7068   -1.8483   -0.3631 H   0  0  0  0  0  0  0  0  0  0  0  0
   -3.4670    0.3441    0.3642 H   0  0  0  0  0  0  0  0  0  0  0  0
    0.2552    1.0656   -1.6201 H   0  0  0  0  0  0  0  0  0  0  0  0
   -0.5013   -0.5772   -1.6998 H   0  0  0  0  0  0  0  0  0  0  0  0
  1  2  2  3
  2  3  1  0
  3  4  1  0
  4  5  2  0
  4  6  1  0
  7  6  1  1
  7  8  1  0
  8  9  1  0
  9 10  1  0
 10 11  1  0
 11 12  2  0
 11 13  1  0
  7  2  1  0
 13  7  1  0
  1 14  1  0
  3 15  1  0
  6 16  1  0
  8 17  1  0
  8 18  1  0
  9 19  1  0
  9 20  1  0
 10 21  1  0
 13 22  1  0
 13 23  1  0
M  END
$$$$

     RDKit          3D

 23 24  0  0  0  0  0  0  0  0999 V2000
   -1.4682   -2.1543    0.1102 N   0  0  0  0  0  0  0  0  0  0  0  0
   -1.4161   -0.8993   -0.1599 C   0  0  0  0  0  0  0  0  0  0  0  0
   -2.4013   -0.1667   -0.8765 N   0  0  0  0  0  0  0  0  0  0  0  0
   -2.2059    1.2024   -0.4937 C   0  0  0  0  0  0  0  0  0  0  0  0
   -2.8533    2.2131   -0.8805 O   0  0  0  0  0  0  0  0  0  0  0  0
   -1.1275    1.2808    0.4304 N   0  0  0  0  0  0  0  0  0  0  0  0
   -0.3439    0.0628    0.2012 C   0  0  2  0  0  0  0  0  0  0  0  0
    0.5225    0.3134   -0.9872 C   0  0  0  0  0  0  0  0  0  0  0  0
    1.8815   -0.2908   -0.9034 C   0  0  0  0  0  0  0  0  0  0  0  0
    2.5436    0.1802    0.3018 N   0  0  0  0  0  0  0  0  0  0  0  0
    1.7752    0.1293    1.5055 C   0  0  0  0  0  0  0  0  0  0  0  0
    2.3650    0.4915    2.5583 O   0  0  0  0  0  0  0  0  0  0  0  0
    0.3902   -0.3281    1.4389 C   0  0  0  0  0  0  0  0  0  0  0  0
   -2.2639   -2.7322   -0.1902 H   0  0  0  0  0  0  0  0  0  0  0  0
   -3.1282   -0.5266   -1.5483 H   0  0  0  0  0  0  0  0  0  0  0  0
   -0.9612    2.0510    1.1086 H   0  0  0  0  0  0  0  0  0  0  0  0
    0.0369   -0.0884   -1.9196 H   0  0  0  0  0  0  0  0  0  0  0  0
    0.6555    1.4105   -1.1899 H   0  0  0  0  0  0  0  0  0  0  0  0
    2.4594    0.0378   -1.7907 H   0  0  0  0  0  0  0  0  0  0  0  0
    1.8253   -1.3946   -0.8968 H   0  0  0  0  0  0  0  0  0  0  0  0
    3.5203    0.5279    0.2576 H   0  0  0  0  0  0  0  0  0  0  0  0
   -0.1558    0.1209    2.3072 H   0  0  0  0  0  0  0  0  0  0  0  0
    0.3498   -1.4407    1.6171 H   0  0  0  0  0  0  0  0  0  0  0  0
  1  2  2  3
  2  3  1  0
  3  4  1  0
  4  5  2  0
  4  6  1  0
  7  6  1  1
  7  8  1  0
  8  9  1  0
  9 10  1  0
 10 11  1  0
 11 12  2  0
 11 13  1  0
  7  2  1  0
 13  7  1  0
  1 14  1  0
  3 15  1  0
  6 16  1  0
  8 17  1  0
  8 18  1  0
  9 19  1  0
  9 20  1  0
 10 21  1  0
 13 22  1  0
 13 23  1  0
M  END
$$$$

     RDKit          3D

 23 24  0  0  0  0  0  0  0  0999 V2000
   -1.6888   -1.9102   -0.7162 N   0  0  0  0  0  0  0  0  0  0  0  0
   -1.5699   -0.7384   -0.2187 C   0  0  0  0  0  0  0  0  0  0  0  0
   -2.6022    0.0606    0.3120 N   0  0  0  0  0  0  0  0  0  0  0  0
   -2.0799    1.3941    0.3396 C   0  0  0  0  0  0  0  0  0  0  0  0
   -2.6756    2.4415    0.7454 O   0  0  0  0  0  0  0  0  0  0  0  0
   -0.7557    1.3757   -0.1692 N   0  0  0  0  0  0  0  0  0  0  0  0
   -0.2977    0.0052   -0.1085 C   0  0  2  0  0  0  0  0  0  0  0  0
    0.6242   -0.3299   -1.2262 C   0  0  0  0  0  0  0  0  0  0  0  0
    2.0587   -0.1915   -0.9966 C   0  0  0  0  0  0  0  0  0  0  0  0
    2.4653    0.2146    0.3214 N   0  0  0  0  0  0  0  0  0  0  0  0
    1.5926    0.2752    1.4335 C   0  0  0  0  0  0  0  0  0  0  0  0
    1.9013    0.7938    2.5259 O   0  0  0  0  0  0  0  0  0  0  0  0
    0.2540   -0.3154    1.2593 C   0  0  0  0  0  0  0  0  0  0  0  0
   -2.5685   -2.4431   -0.8004 H   0  0  0  0  0  0  0  0  0  0  0  0
   -3.5669   -0.2082    0.6347 H   0  0  0  0  0  0  0  0  0  0  0  0
   -0.2355    2.1996   -0.5133 H   0  0  0  0  0  0  0  0  0  0  0  0
    0.3015    0.2777   -2.1172 H   0  0  0  0  0  0  0  0  0  0  0  0
    0.4002   -1.3934   -1.5368 H   0  0  0  0  0  0  0  0  0  0  0  0
    2.6328   -1.1369   -1.2255 H   0  0  0  0  0  0  0  0  0  0  0  0
    2.4970    0.5683   -1.6993 H   0  0  0  0  0  0  0  0  0  0  0  0
    3.4946    0.4762    0.4174 H   0  0  0  0  0  0  0  0  0  0  0  0
    0.2973   -1.4283    1.3303 H   0  0  0  0  0  0  0  0  0  0  0  0
   -0.4791    0.0129    2.0085 H   0  0  0  0  0  0  0  0  0  0  0  0
  1  2  2  3
  2  3  1  0
  3  4  1  0
  4  5  2  0
  4  6  1  0
  7  6  1  1
  7  8  1  0
  8  9  1  0
  9 10  1  0
 10 11  1  0
 11 12  2  0
 11 13  1  0
  7  2  1  0
 13  7  1  0
  1 14  1  0
  3 15  1  0
  6 16  1  0
  8 17  1  0
  8 18  1  0
  9 19  1  0
  9 20  1  0
 10 21  1  0
 13 22  1  0
 13 23  1  0
M  END
$$$$

     RDKit          3D

 23 24  0  0  0  0  0  0  0  0999 V2000
   -2.0035   -1.6992    0.2984 N   0  0  0  0  0  0  0  0  0  0  0  0
   -1.7022   -0.4495    0.4455 C   0  0  0  0  0  0  0  0  0  0  0  0
   -2.5876    0.5554    0.8776 N   0  0  0  0  0  0  0  0  0  0  0  0
   -1.9289    1.8140    0.6930 C   0  0  0  0  0  0  0  0  0  0  0  0
   -2.4356    2.9260    0.9769 O   0  0  0  0  0  0  0  0  0  0  0  0
   -0.6231    1.5773    0.1405 N   0  0  0  0  0  0  0  0  0  0  0  0
   -0.3668    0.1318    0.1811 C   0  0  2  0  0  0  0  0  0  0  0  0
    0.2261   -0.2810   -1.1208 C   0  0  0  0  0  0  0  0  0  0  0  0
    1.4987   -1.0701   -0.9980 C   0  0  0  0  0  0  0  0  0  0  0  0
    2.4529   -0.2857   -0.2336 N   0  0  0  0  0  0  0  0  0  0  0  0
    1.9130    0.3158    0.9609 C   0  0  0  0  0  0  0  0  0  0  0  0
    2.5307    1.1679    1.6106 O   0  0  0  0  0  0  0  0  0  0  0  0
    0.5515   -0.1810    1.3370 C   0  0  0  0  0  0  0  0  0  0  0  0
   -1.3002   -2.4042   -0.0276 H   0  0  0  0  0  0  0  0  0  0  0  0
   -3.5318    0.4100    1.2555 H   0  0  0  0  0  0  0  0  0  0  0  0
   -0.0042    2.3368   -0.2142 H   0  0  0  0  0  0  0  0  0  0  0  0
    0.4464    0.5931   -1.7795 H   0  0  0  0  0  0  0  0  0  0  0  0
   -0.5239   -0.9224   -1.6664 H   0  0  0  0  0  0  0  0  0  0  0  0
    1.3028   -2.0232   -0.4260 H   0  0  0  0  0  0  0  0  0  0  0  0
    1.8546   -1.2874   -2.0201 H   0  0  0  0  0  0  0  0  0  0  0  0
    3.4401   -0.1468   -0.4898 H   0  0  0  0  0  0  0  0  0  0  0  0
    0.5963   -1.2919    1.4225 H   0  0  0  0  0  0  0  0  0  0  0  0
    0.1947    0.2142    2.2822 H   0  0  0  0  0  0  0  0  0  0  0  0
  1  2  2  3
  2  3  1  0
  3  4  1  0
  4  5  2  0
  4  6  1  0
  7  6  1  6
  7  8  1  0
  8  9  1  0
  9 10  1  0
 10 11  1  0
 11 12  2  0
 11 13  1  0
  7  2  1  0
 13  7  1  0
  1 14  1  0
  3 15  1  0
  6 16  1  0
  8 17  1  0
  8 18  1  0
  9 19  1  0
  9 20  1  0
 10 21  1  0
 13 22  1  0
 13 23  1  0
M  END
$$$$

     RDKit          3D

 23 24  0  0  0  0  0  0  0  0999 V2000
    1.5005   -1.7931   -1.0744 N   0  0  0  0  0  0  0  0  0  0  0  0
    1.4277   -0.6009   -0.6204 C   0  0  0  0  0  0  0  0  0  0  0  0
    2.3662    0.4530   -0.8295 N   0  0  0  0  0  0  0  0  0  0  0  0
    2.2779    1.3436    0.3052 C   0  0  0  0  0  0  0  0  0  0  0  0
    2.9536    2.4078    0.4992 O   0  0  0  0  0  0  0  0  0  0  0  0
    1.2877    0.7797    1.1430 N   0  0  0  0  0  0  0  0  0  0  0  0
    0.3805    0.0549    0.2473 C   0  0  2  0  0  0  0  0  0  0  0  0
   -0.4547   -0.9293    0.9668 C   0  0  0  0  0  0  0  0  0  0  0  0
   -1.6534   -1.3244    0.1779 C   0  0  0  0  0  0  0  0  0  0  0  0
   -2.4905   -0.1752   -0.0581 N   0  0  0  0  0  0  0  0  0  0  0  0
   -1.8365    1.0356   -0.3748 C   0  0  0  0  0  0  0  0  0  0  0  0
   -2.4826    2.0842   -0.5422 O   0  0  0  0  0  0  0  0  0  0  0  0
   -0.3538    1.1022   -0.5200 C   0  0  0  0  0  0  0  0  0  0  0  0
    0.8322   -2.5650   -0.9326 H   0  0  0  0  0  0  0  0  0  0  0  0
    3.0075    0.5634   -1.6578 H   0  0  0  0  0  0  0  0  0  0  0  0
    1.1834    0.8383    2.1591 H   0  0  0  0  0  0  0  0  0  0  0  0
   -0.7758   -0.4808    1.9282 H   0  0  0  0  0  0  0  0  0  0  0  0
    0.1344   -1.8452    1.1741 H   0  0  0  0  0  0  0  0  0  0  0  0
   -2.2539   -2.1044    0.7077 H   0  0  0  0  0  0  0  0  0  0  0  0
   -1.3846   -1.7232   -0.8160 H   0  0  0  0  0  0  0  0  0  0  0  0
   -3.5009   -0.2307   -0.0001 H   0  0  0  0  0  0  0  0  0  0  0  0
   -0.1509    0.9923   -1.6198 H   0  0  0  0  0  0  0  0  0  0  0  0
   -0.0143    2.1172   -0.2628 H   0  0  0  0  0  0  0  0  0  0  0  0
  1  2  2  3
  2  3  1  0
  3  4  1  0
  4  5  2  0
  4  6  1  0
  7  6  1  1
  7  8  1  0
  8  9  1  0
  9 10  1  0
 10 11  1  0
 11 12  2  0
 11 13  1  0
  7  2  1  0
 13  7  1  0
  1 14  1  0
  3 15  1  0
  6 16  1  0
  8 17  1  0
  8 18  1  0
  9 19  1  0
  9 20  1  0
 10 21  1  0
 13 22  1  0
 13 23  1  0
M  END
$$$$

     RDKit          3D

 23 24  0  0  0  0  0  0  0  0999 V2000
   -1.9610   -0.0051    1.9986 N   0  0  0  0  0  0  0  0  0  0  0  0
   -1.6009    0.3740    0.8196 C   0  0  0  0  0  0  0  0  0  0  0  0
   -2.2918    1.2658   -0.0505 N   0  0  0  0  0  0  0  0  0  0  0  0
   -1.8787    0.9828   -1.3967 C   0  0  0  0  0  0  0  0  0  0  0  0
   -2.2878    1.5805   -2.4273 O   0  0  0  0  0  0  0  0  0  0  0  0
   -0.9424   -0.0819   -1.2976 N   0  0  0  0  0  0  0  0  0  0  0  0
   -0.3897    0.0031    0.0384 C   0  0  2  0  0  0  0  0  0  0  0  0
    0.1924   -1.2763    0.5257 C   0  0  0  0  0  0  0  0  0  0  0  0
    1.4834   -1.6538   -0.1115 C   0  0  0  0  0  0  0  0  0  0  0  0
    2.3330   -0.5135   -0.3551 N   0  0  0  0  0  0  0  0  0  0  0  0
    1.9723    0.7911    0.0382 C   0  0  0  0  0  0  0  0  0  0  0  0
    2.8447    1.6296    0.3451 O   0  0  0  0  0  0  0  0  0  0  0  0
    0.5519    1.1693    0.0876 C   0  0  0  0  0  0  0  0  0  0  0  0
   -1.3961   -0.6645    2.5751 H   0  0  0  0  0  0  0  0  0  0  0  0
   -2.9823    1.9953    0.2787 H   0  0  0  0  0  0  0  0  0  0  0  0
   -0.7463   -0.7501   -2.0742 H   0  0  0  0  0  0  0  0  0  0  0  0
   -0.5464   -2.0754    0.4053 H   0  0  0  0  0  0  0  0  0  0  0  0
    0.3715   -1.1720    1.6221 H   0  0  0  0  0  0  0  0  0  0  0  0
    1.3195   -2.2605   -1.0358 H   0  0  0  0  0  0  0  0  0  0  0  0
    2.0358   -2.3134    0.6143 H   0  0  0  0  0  0  0  0  0  0  0  0
    3.2511   -0.6803   -0.8450 H   0  0  0  0  0  0  0  0  0  0  0  0
    0.3314    1.8658   -0.7621 H   0  0  0  0  0  0  0  0  0  0  0  0
    0.3361    1.7894    1.0071 H   0  0  0  0  0  0  0  0  0  0  0  0
  1  2  2  3
  2  3  1  0
  3  4  1  0
  4  5  2  0
  4  6  1  0
  7  6  1  6
  7  8  1  0
  8  9  1  0
  9 10  1  0
 10 11  1  0
 11 12  2  0
 11 13  1  0
  7  2  1  0
 13  7  1  0
  1 14  1  0
  3 15  1  0
  6 16  1  0
  8 17  1  0
  8 18  1  0
  9 19  1  0
  9 20  1  0
 10 21  1  0
 13 22  1  0
 13 23  1  0
M  END
$$$$
