
     RDKit          3D

 25 25  0  0  0  0  0  0  0  0999 V2000
   -3.3779    0.3666    0.2182 C   0  0  0  0  0  0  0  0  0  0  0  0
   -2.2091   -0.3801   -0.2450 N   0  0  0  0  0  0  0  0  0  0  0  0
   -2.4151   -1.6155   -0.9889 C   0  0  0  0  0  0  0  0  0  0  0  0
   -0.9004    0.1102   -0.0214 C   0  0  0  0  0  0  0  0  0  0  0  0
    0.1668   -0.7671    0.0475 N   0  0  0  0  0  0  0  0  0  0  0  0
    1.3889   -0.3328    0.2274 C   0  0  0  0  0  0  0  0  0  0  0  0
    2.5861   -1.1813    0.3637 C   0  0  0  0  0  0  0  0  0  0  0  0
    3.5754   -0.8650   -0.6822 N   0  0  0  0  0  0  0  0  0  0  0  0
    4.7220   -0.4080   -0.0319 O   0  0  0  0  0  0  0  0  0  0  0  0
    1.6190    1.0301    0.3550 N   0  0  0  0  0  0  0  0  0  0  0  0
    0.6237    1.9165    0.3009 C   0  0  0  0  0  0  0  0  0  0  0  0
    0.8070    3.2114    0.4146 N   0  0  0  0  0  0  0  0  0  0  0  0
   -0.6051    1.4118    0.1115 N   0  0  0  0  0  0  0  0  0  0  0  0
   -4.0563    0.5268   -0.6398 H   0  0  0  0  0  0  0  0  0  0  0  0
   -3.8865   -0.2233    1.0368 H   0  0  0  0  0  0  0  0  0  0  0  0
   -3.0894    1.3251    0.6562 H   0  0  0  0  0  0  0  0  0  0  0  0
   -2.9520   -1.2797   -1.9169 H   0  0  0  0  0  0  0  0  0  0  0  0
   -3.0094   -2.2625   -0.3320 H   0  0  0  0  0  0  0  0  0  0  0  0
   -1.4706   -2.0993   -1.2684 H   0  0  0  0  0  0  0  0  0  0  0  0
    2.2765   -2.2570    0.2497 H   0  0  0  0  0  0  0  0  0  0  0  0
    3.0309   -1.0292    1.3490 H   0  0  0  0  0  0  0  0  0  0  0  0
    3.8715   -1.7777   -1.1845 H   0  0  0  0  0  0  0  0  0  0  0  0
    4.6792    0.6103   -0.0000 H   0  0  0  0  0  0  0  0  0  0  0  0
    0.0202    3.8886    0.3721 H   0  0  0  0  0  0  0  0  0  0  0  0
   -1.3954    2.0810    0.0668 H   0  0  0  0  0  0  0  0  0  0  0  0
  1  2  1  0
  2  3  1  0
  2  4  1  0
  4  5  2  0
  5  6  1  0
  6  7  1  0
  7  8  1  0
  8  9  1  0
  6 10  2  0
 10 11  1  0
 11 12  2  3
 11 13  1  0
 13  4  1  0
  1 14  1  0
  1 15  1  0
  1 16  1  0
  3 17  1  0
  3 18  1  0
  3 19  1  0
  7 20  1  0
  7 21  1  0
  8 22  1  0
  9 23  1  0
 12 24  1  0
 13 25  1  0
M  END
$$$$

     RDKit          3D

 25 25  0  0  0  0  0  0  0  0999 V2000
   -3.3349   -0.1344    0.6639 C   0  0  0  0  0  0  0  0  0  0  0  0
   -2.1944   -0.2588   -0.1881 N   0  0  0  0  0  0  0  0  0  0  0  0
   -2.3717   -0.6396   -1.5745 C   0  0  0  0  0  0  0  0  0  0  0  0
   -0.8535   -0.0163    0.2859 C   0  0  0  0  0  0  0  0  0  0  0  0
    0.1990   -0.1415   -0.5408 N   0  0  0  0  0  0  0  0  0  0  0  0
    1.4673    0.0744   -0.1438 C   0  0  0  0  0  0  0  0  0  0  0  0
    2.5491   -0.0952   -1.1486 C   0  0  0  0  0  0  0  0  0  0  0  0
    3.8472    0.1655   -0.5972 N   0  0  0  0  0  0  0  0  0  0  0  0
    4.7504   -0.0211   -1.6064 O   0  0  0  0  0  0  0  0  0  0  0  0
    1.6762    0.4272    1.1261 N   0  0  0  0  0  0  0  0  0  0  0  0
    0.6472    0.5619    1.9810 C   0  0  0  0  0  0  0  0  0  0  0  0
    0.8206    0.9033    3.2195 N   0  0  0  0  0  0  0  0  0  0  0  0
   -0.6187    0.3392    1.5576 N   0  0  0  0  0  0  0  0  0  0  0  0
   -3.5873   -1.0739    1.1895 H   0  0  0  0  0  0  0  0  0  0  0  0
   -4.2134    0.1182    0.0240 H   0  0  0  0  0  0  0  0  0  0  0  0
   -3.2194    0.7338    1.3551 H   0  0  0  0  0  0  0  0  0  0  0  0
   -1.4334   -0.5896   -2.1433 H   0  0  0  0  0  0  0  0  0  0  0  0
   -3.1267    0.0691   -1.9986 H   0  0  0  0  0  0  0  0  0  0  0  0
   -2.7802   -1.6886   -1.5748 H   0  0  0  0  0  0  0  0  0  0  0  0
    2.2967    0.5592   -2.0141 H   0  0  0  0  0  0  0  0  0  0  0  0
    2.5444   -1.1419   -1.5252 H   0  0  0  0  0  0  0  0  0  0  0  0
    3.8534    1.1536   -0.2625 H   0  0  0  0  0  0  0  0  0  0  0  0
    4.4707   -0.7607   -2.2029 H   0  0  0  0  0  0  0  0  0  0  0  0
    0.0187    1.0041    3.8697 H   0  0  0  0  0  0  0  0  0  0  0  0
   -1.4075    0.4519    2.2485 H   0  0  0  0  0  0  0  0  0  0  0  0
  1  2  1  0
  2  3  1  0
  2  4  1  0
  4  5  2  0
  5  6  1  0
  6  7  1  0
  7  8  1  0
  8  9  1  0
  6 10  2  0
 10 11  1  0
 11 12  2  3
 11 13  1  0
 13  4  1  0
  1 14  1  0
  1 15  1  0
  1 16  1  0
  3 17  1  0
  3 18  1  0
  3 19  1  0
  7 20  1  0
  7 21  1  0
  8 22  1  0
  9 23  1  0
 12 24  1  0
 13 25  1  0
M  END
$$$$

     RDKit          3D

 25 25  0  0  0  0  0  0  0  0999 V2000
   -2.4538    1.6578    0.6388 C   0  0  0  0  0  0  0  0  0  0  0  0
   -2.0667    0.5584   -0.2365 N   0  0  0  0  0  0  0  0  0  0  0  0
   -3.0074    0.2218   -1.3143 C   0  0  0  0  0  0  0  0  0  0  0  0
   -0.8610   -0.1601   -0.1306 C   0  0  0  0  0  0  0  0  0  0  0  0
    0.3264    0.3844    0.1696 N   0  0  0  0  0  0  0  0  0  0  0  0
    1.4743   -0.3082    0.2902 C   0  0  0  0  0  0  0  0  0  0  0  0
    2.7824    0.3178    0.6211 C   0  0  0  0  0  0  0  0  0  0  0  0
    3.2312    1.1415   -0.4440 N   0  0  0  0  0  0  0  0  0  0  0  0
    4.4102    1.7347   -0.2474 O   0  0  0  0  0  0  0  0  0  0  0  0
    1.3969   -1.6612    0.0875 N   0  0  0  0  0  0  0  0  0  0  0  0
    0.2349   -2.2498   -0.2114 C   0  0  0  0  0  0  0  0  0  0  0  0
    0.1171   -3.5410   -0.3904 N   0  0  0  0  0  0  0  0  0  0  0  0
   -0.8789   -1.5030   -0.3198 N   0  0  0  0  0  0  0  0  0  0  0  0
   -1.6406    1.9915    1.2869 H   0  0  0  0  0  0  0  0  0  0  0  0
   -2.8899    2.4483   -0.0012 H   0  0  0  0  0  0  0  0  0  0  0  0
   -3.3297    1.2706    1.2427 H   0  0  0  0  0  0  0  0  0  0  0  0
   -3.3359   -0.8023   -1.1608 H   0  0  0  0  0  0  0  0  0  0  0  0
   -2.5003    0.3839   -2.3057 H   0  0  0  0  0  0  0  0  0  0  0  0
   -3.8834    0.8760   -1.3342 H   0  0  0  0  0  0  0  0  0  0  0  0
    3.5134   -0.5036    0.7606 H   0  0  0  0  0  0  0  0  0  0  0  0
    2.7491    0.9162    1.5482 H   0  0  0  0  0  0  0  0  0  0  0  0
    2.5167    1.7335   -0.8936 H   0  0  0  0  0  0  0  0  0  0  0  0
    4.9916    1.2368    0.3771 H   0  0  0  0  0  0  0  0  0  0  0  0
    0.8928   -4.2069   -0.3197 H   0  0  0  0  0  0  0  0  0  0  0  0
   -1.7895   -1.9372   -0.5534 H   0  0  0  0  0  0  0  0  0  0  0  0
  1  2  1  0
  2  3  1  0
  2  4  1  0
  4  5  2  0
  5  6  1  0
  6  7  1  0
  7  8  1  0
  8  9  1  0
  6 10  2  0
 10 11  1  0
 11 12  2  3
 11 13  1  0
 13  4  1  0
  1 14  1  0
  1 15  1  0
  1 16  1  0
  3 17  1  0
  3 18  1  0
  3 19  1  0
  7 20  1  0
  7 21  1  0
  8 22  1  0
  9 23  1  0
 12 24  1  0
 13 25  1  0
M  END
$$$$

     RDKit          3D

 25 25  0  0  0  0  0  0  0  0999 V2000
   -2.0659    0.2387    2.1241 C   0  0  0  0  0  0  0  0  0  0  0  0
   -1.8815    0.4845    0.6896 N   0  0  0  0  0  0  0  0  0  0  0  0
   -2.8236    1.3577    0.0471 C   0  0  0  0  0  0  0  0  0  0  0  0
   -0.7924   -0.1637    0.0559 C   0  0  0  0  0  0  0  0  0  0  0  0
    0.4810    0.3117    0.0938 N   0  0  0  0  0  0  0  0  0  0  0  0
    1.4844   -0.3321   -0.5139 C   0  0  0  0  0  0  0  0  0  0  0  0
    2.8652    0.1815   -0.4751 C   0  0  0  0  0  0  0  0  0  0  0  0
    2.9214    1.5194    0.1191 N   0  0  0  0  0  0  0  0  0  0  0  0
    4.2274    1.8818    0.0984 O   0  0  0  0  0  0  0  0  0  0  0  0
    1.2258   -1.4666   -1.1723 N   0  0  0  0  0  0  0  0  0  0  0  0
   -0.0473   -1.9736   -1.2310 C   0  0  0  0  0  0  0  0  0  0  0  0
   -0.1789   -3.0478   -1.8655 N   0  0  0  0  0  0  0  0  0  0  0  0
   -1.0193   -1.3057   -0.6146 N   0  0  0  0  0  0  0  0  0  0  0  0
   -1.3821   -0.5331    2.4878 H   0  0  0  0  0  0  0  0  0  0  0  0
   -3.0814   -0.0923    2.3771 H   0  0  0  0  0  0  0  0  0  0  0  0
   -1.8717    1.1816    2.6927 H   0  0  0  0  0  0  0  0  0  0  0  0
   -3.8549    0.9801    0.2701 H   0  0  0  0  0  0  0  0  0  0  0  0
   -2.7500    1.3702   -1.0579 H   0  0  0  0  0  0  0  0  0  0  0  0
   -2.6705    2.4078    0.4229 H   0  0  0  0  0  0  0  0  0  0  0  0
    3.5116   -0.4398    0.2028 H   0  0  0  0  0  0  0  0  0  0  0  0
    3.3215    0.2267   -1.4823 H   0  0  0  0  0  0  0  0  0  0  0  0
    2.5016    1.5091    1.0699 H   0  0  0  0  0  0  0  0  0  0  0  0
    4.8308    1.0736    0.1428 H   0  0  0  0  0  0  0  0  0  0  0  0
   -0.9553   -3.6491   -2.0849 H   0  0  0  0  0  0  0  0  0  0  0  0
   -1.9963   -1.7205   -0.6791 H   0  0  0  0  0  0  0  0  0  0  0  0
  1  2  1  0
  2  3  1  0
  2  4  1  0
  4  5  2  0
  5  6  1  0
  6  7  1  0
  7  8  1  0
  8  9  1  0
  6 10  2  0
 10 11  1  0
 11 12  2  3
 11 13  1  0
 13  4  1  0
  1 14  1  0
  1 15  1  0
  1 16  1  0
  3 17  1  0
  3 18  1  0
  3 19  1  0
  7 20  1  0
  7 21  1  0
  8 22  1  0
  9 23  1  0
 12 24  1  0
 13 25  1  0
M  END
$$$$

     RDKit          3D

 25 25  0  0  0  0  0  0  0  0999 V2000
   -1.7168   -2.2037   -0.1596 C   0  0  0  0  0  0  0  0  0  0  0  0
   -1.9009   -0.7832   -0.2469 N   0  0  0  0  0  0  0  0  0  0  0  0
   -3.2526   -0.2923   -0.4601 C   0  0  0  0  0  0  0  0  0  0  0  0
   -0.8360    0.1567   -0.1361 C   0  0  0  0  0  0  0  0  0  0  0  0
    0.4387   -0.2226    0.0609 N   0  0  0  0  0  0  0  0  0  0  0  0
    1.4328    0.6826    0.1632 C   0  0  0  0  0  0  0  0  0  0  0  0
    2.8402    0.3010    0.3791 C   0  0  0  0  0  0  0  0  0  0  0  0
    2.9919   -1.1379    0.4616 N   0  0  0  0  0  0  0  0  0  0  0  0
    4.2831   -1.4726    0.6590 O   0  0  0  0  0  0  0  0  0  0  0  0
    1.1439    1.9918    0.0663 N   0  0  0  0  0  0  0  0  0  0  0  0
   -0.1097    2.4165   -0.1296 C   0  0  0  0  0  0  0  0  0  0  0  0
   -0.4088    3.6891   -0.2264 N   0  0  0  0  0  0  0  0  0  0  0  0
   -1.0723    1.4772   -0.2260 N   0  0  0  0  0  0  0  0  0  0  0  0
   -0.8692   -2.5087    0.4801 H   0  0  0  0  0  0  0  0  0  0  0  0
   -2.6266   -2.6572    0.3034 H   0  0  0  0  0  0  0  0  0  0  0  0
   -1.6262   -2.6761   -1.1727 H   0  0  0  0  0  0  0  0  0  0  0  0
   -3.9596   -1.1028   -0.6756 H   0  0  0  0  0  0  0  0  0  0  0  0
   -3.2700    0.4600   -1.2890 H   0  0  0  0  0  0  0  0  0  0  0  0
   -3.5628    0.2247    0.4923 H   0  0  0  0  0  0  0  0  0  0  0  0
    3.1658    0.7172    1.3704 H   0  0  0  0  0  0  0  0  0  0  0  0
    3.5038    0.7201   -0.3757 H   0  0  0  0  0  0  0  0  0  0  0  0
    2.7391   -1.5132   -0.4982 H   0  0  0  0  0  0  0  0  0  0  0  0
    4.3382   -2.4402    0.8530 H   0  0  0  0  0  0  0  0  0  0  0  0
    0.3824    4.3573   -0.1427 H   0  0  0  0  0  0  0  0  0  0  0  0
   -2.0487    1.8163   -0.3789 H   0  0  0  0  0  0  0  0  0  0  0  0
  1  2  1  0
  2  3  1  0
  2  4  1  0
  4  5  2  0
  5  6  1  0
  6  7  1  0
  7  8  1  0
  8  9  1  0
  6 10  2  0
 10 11  1  0
 11 12  2  3
 11 13  1  0
 13  4  1  0
  1 14  1  0
  1 15  1  0
  1 16  1  0
  3 17  1  0
  3 18  1  0
  3 19  1  0
  7 20  1  0
  7 21  1  0
  8 22  1  0
  9 23  1  0
 12 24  1  0
 13 25  1  0
M  END
$$$$

     RDKit          3D

 25 25  0  0  0  0  0  0  0  0999 V2000
   -3.4473    0.1740    0.2336 C   0  0  0  0  0  0  0  0  0  0  0  0
   -2.1606    0.7813    0.1128 N   0  0  0  0  0  0  0  0  0  0  0  0
   -2.0554    2.2122   -0.0966 C   0  0  0  0  0  0  0  0  0  0  0  0
   -0.9772   -0.0052    0.1960 C   0  0  0  0  0  0  0  0  0  0  0  0
    0.2453    0.5724    0.0812 N   0  0  0  0  0  0  0  0  0  0  0  0
    1.3818   -0.1428    0.1553 C   0  0  0  0  0  0  0  0  0  0  0  0
    2.7245    0.5162    0.0256 C   0  0  0  0  0  0  0  0  0  0  0  0
    3.7935   -0.4227    0.1340 N   0  0  0  0  0  0  0  0  0  0  0  0
    4.9563    0.2572    0.0060 O   0  0  0  0  0  0  0  0  0  0  0  0
    1.2632   -1.4687    0.3499 N   0  0  0  0  0  0  0  0  0  0  0  0
    0.0571   -2.0655    0.4670 C   0  0  0  0  0  0  0  0  0  0  0  0
   -0.0642   -3.3464    0.6552 N   0  0  0  0  0  0  0  0  0  0  0  0
   -1.0700   -1.3382    0.3909 N   0  0  0  0  0  0  0  0  0  0  0  0
   -3.6084   -0.1802    1.2737 H   0  0  0  0  0  0  0  0  0  0  0  0
   -3.4870   -0.6976   -0.4672 H   0  0  0  0  0  0  0  0  0  0  0  0
   -4.2504    0.8904   -0.0512 H   0  0  0  0  0  0  0  0  0  0  0  0
   -2.6196    2.4369   -1.0305 H   0  0  0  0  0  0  0  0  0  0  0  0
   -2.4587    2.7885    0.7662 H   0  0  0  0  0  0  0  0  0  0  0  0
   -0.9957    2.5329   -0.2133 H   0  0  0  0  0  0  0  0  0  0  0  0
    2.7063    1.0755   -0.9273 H   0  0  0  0  0  0  0  0  0  0  0  0
    2.7674    1.2556    0.8592 H   0  0  0  0  0  0  0  0  0  0  0  0
    3.7564   -1.0867   -0.6793 H   0  0  0  0  0  0  0  0  0  0  0  0
    4.7952    1.0607   -0.5699 H   0  0  0  0  0  0  0  0  0  0  0  0
    0.7544   -3.9825    0.7260 H   0  0  0  0  0  0  0  0  0  0  0  0
   -2.0072   -1.8173    0.4842 H   0  0  0  0  0  0  0  0  0  0  0  0
  1  2  1  0
  2  3  1  0
  2  4  1  0
  4  5  2  0
  5  6  1  0
  6  7  1  0
  7  8  1  0
  8  9  1  0
  6 10  2  0
 10 11  1  0
 11 12  2  3
 11 13  1  0
 13  4  1  0
  1 14  1  0
  1 15  1  0
  1 16  1  0
  3 17  1  0
  3 18  1  0
  3 19  1  0
  7 20  1  0
  7 21  1  0
  8 22  1  0
  9 23  1  0
 12 24  1  0
 13 25  1  0
M  END
$$$$

     RDKit          3D

 25 25  0  0  0  0  0  0  0  0999 V2000
    2.7320   -1.3288   -1.0384 C   0  0  0  0  0  0  0  0  0  0  0  0
    2.1460   -0.0622   -0.7050 N   0  0  0  0  0  0  0  0  0  0  0  0
    2.6567    1.2082   -1.1525 C   0  0  0  0  0  0  0  0  0  0  0  0
    0.9727   -0.0058    0.1314 C   0  0  0  0  0  0  0  0  0  0  0  0
   -0.1913   -0.1193   -0.4993 N   0  0  0  0  0  0  0  0  0  0  0  0
   -1.3448   -0.0775    0.1841 C   0  0  0  0  0  0  0  0  0  0  0  0
   -2.6084   -0.2166   -0.5884 C   0  0  0  0  0  0  0  0  0  0  0  0
   -3.7424    0.3764    0.1153 N   0  0  0  0  0  0  0  0  0  0  0  0
   -4.8216    0.1702   -0.7057 O   0  0  0  0  0  0  0  0  0  0  0  0
   -1.2945    0.0820    1.5192 N   0  0  0  0  0  0  0  0  0  0  0  0
   -0.0863    0.1967    2.1468 C   0  0  0  0  0  0  0  0  0  0  0  0
   -0.0124    0.3454    3.4296 N   0  0  0  0  0  0  0  0  0  0  0  0
    1.0647    0.1541    1.4596 N   0  0  0  0  0  0  0  0  0  0  0  0
    2.3571   -2.1192   -0.3651 H   0  0  0  0  0  0  0  0  0  0  0  0
    3.8429   -1.3046   -0.9746 H   0  0  0  0  0  0  0  0  0  0  0  0
    2.4521   -1.6475   -2.0829 H   0  0  0  0  0  0  0  0  0  0  0  0
    1.8314    1.9765   -1.2005 H   0  0  0  0  0  0  0  0  0  0  0  0
    3.1041    1.1858   -2.1548 H   0  0  0  0  0  0  0  0  0  0  0  0
    3.4050    1.6319   -0.4592 H   0  0  0  0  0  0  0  0  0  0  0  0
   -2.7788   -1.3072   -0.7211 H   0  0  0  0  0  0  0  0  0  0  0  0
   -2.4568    0.2246   -1.5902 H   0  0  0  0  0  0  0  0  0  0  0  0
   -3.8796   -0.1815    0.9887 H   0  0  0  0  0  0  0  0  0  0  0  0
   -4.5169    0.1959   -1.6694 H   0  0  0  0  0  0  0  0  0  0  0  0
   -0.8451    0.3840    4.0292 H   0  0  0  0  0  0  0  0  0  0  0  0
    2.0142    0.2384    1.9031 H   0  0  0  0  0  0  0  0  0  0  0  0
  1  2  1  0
  2  3  1  0
  2  4  1  0
  4  5  2  0
  5  6  1  0
  6  7  1  0
  7  8  1  0
  8  9  1  0
  6 10  2  0
 10 11  1  0
 11 12  2  3
 11 13  1  0
 13  4  1  0
  1 14  1  0
  1 15  1  0
  1 16  1  0
  3 17  1  0
  3 18  1  0
  3 19  1  0
  7 20  1  0
  7 21  1  0
  8 22  1  0
  9 23  1  0
 12 24  1  0
 13 25  1  0
M  END
$$$$

     RDKit          3D

 25 25  0  0  0  0  0  0  0  0999 V2000
   -3.4279   -0.1944   -0.0740 C   0  0  0  0  0  0  0  0  0  0  0  0
   -2.1259   -0.7179    0.1591 N   0  0  0  0  0  0  0  0  0  0  0  0
   -1.9842   -2.1392    0.4157 C   0  0  0  0  0  0  0  0  0  0  0  0
   -0.9512    0.0912    0.1523 C   0  0  0  0  0  0  0  0  0  0  0  0
    0.2579   -0.4311    0.3742 N   0  0  0  0  0  0  0  0  0  0  0  0
    1.3865    0.3181    0.3726 C   0  0  0  0  0  0  0  0  0  0  0  0
    2.7087   -0.3107    0.6250 C   0  0  0  0  0  0  0  0  0  0  0  0
    3.3032   -0.7481   -0.6232 N   0  0  0  0  0  0  0  0  0  0  0  0
    4.5018   -1.3214   -0.4242 O   0  0  0  0  0  0  0  0  0  0  0  0
    1.3074    1.6447    0.1398 N   0  0  0  0  0  0  0  0  0  0  0  0
    0.0839    2.1932   -0.0881 C   0  0  0  0  0  0  0  0  0  0  0  0
   -0.0553    3.4675   -0.3187 N   0  0  0  0  0  0  0  0  0  0  0  0
   -1.0137    1.4153   -0.0782 N   0  0  0  0  0  0  0  0  0  0  0  0
   -3.8848    0.0678    0.9122 H   0  0  0  0  0  0  0  0  0  0  0  0
   -4.0677   -0.9912   -0.5025 H   0  0  0  0  0  0  0  0  0  0  0  0
   -3.4721    0.6515   -0.7853 H   0  0  0  0  0  0  0  0  0  0  0  0
   -1.5012   -2.2906    1.4244 H   0  0  0  0  0  0  0  0  0  0  0  0
   -1.2385   -2.5168   -0.3132 H   0  0  0  0  0  0  0  0  0  0  0  0
   -2.9425   -2.6607    0.3891 H   0  0  0  0  0  0  0  0  0  0  0  0
    2.5170   -1.2418    1.2215 H   0  0  0  0  0  0  0  0  0  0  0  0
    3.3435    0.3443    1.2167 H   0  0  0  0  0  0  0  0  0  0  0  0
    3.3407    0.0170   -1.3326 H   0  0  0  0  0  0  0  0  0  0  0  0
    5.0891   -0.6363   -0.0049 H   0  0  0  0  0  0  0  0  0  0  0  0
    0.7567    4.1115   -0.3376 H   0  0  0  0  0  0  0  0  0  0  0  0
   -1.9315    1.8779   -0.2577 H   0  0  0  0  0  0  0  0  0  0  0  0
  1  2  1  0
  2  3  1  0
  2  4  1  0
  4  5  2  0
  5  6  1  0
  6  7  1  0
  7  8  1  0
  8  9  1  0
  6 10  2  0
 10 11  1  0
 11 12  2  3
 11 13  1  0
 13  4  1  0
  1 14  1  0
  1 15  1  0
  1 16  1  0
  3 17  1  0
  3 18  1  0
  3 19  1  0
  7 20  1  0
  7 21  1  0
  8 22  1  0
  9 23  1  0
 12 24  1  0
 13 25  1  0
M  END
$$$$
