
     RDKit          3D

 29 29  0  0  0  0  0  0  0  0999 V2000
   -1.9191   -1.8070    0.1427 C   0  0  0  0  0  0  0  0  0  0  0  0
   -2.0481   -0.3843   -0.2587 C   0  0  0  0  0  0  0  0  0  0  0  0
   -1.2017    0.6140    0.4486 C   0  0  2  0  0  0  0  0  0  0  0  0
   -1.5451    1.9362   -0.1513 C   0  0  0  0  0  0  0  0  0  0  0  0
   -2.8638    2.4098   -0.3086 N   0  0  0  0  0  0  0  0  0  0  0  0
   -0.5602    2.6541   -0.5318 O   0  0  0  0  0  0  0  0  0  0  0  0
    0.1832    0.4629    0.4479 N   0  0  0  0  0  0  0  0  0  0  0  0
    0.8680   -0.6085    1.0618 C   0  0  0  0  0  0  0  0  0  0  0  0
    1.8684   -0.5518   -0.1056 C   0  0  0  0  0  0  0  0  0  0  0  0
    2.1316   -1.7741   -0.6646 O   0  0  0  0  0  0  0  0  0  0  0  0
    3.1209    0.2357    0.2043 C   0  0  0  0  0  0  0  0  0  0  0  0
    3.7965    0.4180   -1.0084 O   0  0  0  0  0  0  0  0  0  0  0  0
    0.8623    0.3287   -0.8184 C   0  0  0  0  0  0  0  0  0  0  0  0
   -1.1304   -2.3604   -0.3900 H   0  0  0  0  0  0  0  0  0  0  0  0
   -2.8768   -2.3124   -0.2158 H   0  0  0  0  0  0  0  0  0  0  0  0
   -1.9514   -1.9356    1.2298 H   0  0  0  0  0  0  0  0  0  0  0  0
   -3.1208   -0.0912   -0.0284 H   0  0  0  0  0  0  0  0  0  0  0  0
   -1.9785   -0.2658   -1.3659 H   0  0  0  0  0  0  0  0  0  0  0  0
   -1.5653    0.6163    1.5234 H   0  0  0  0  0  0  0  0  0  0  0  0
   -3.4866    2.0153   -1.0511 H   0  0  0  0  0  0  0  0  0  0  0  0
   -3.2037    3.1627    0.3319 H   0  0  0  0  0  0  0  0  0  0  0  0
    1.3858   -0.3211    2.0336 H   0  0  0  0  0  0  0  0  0  0  0  0
    0.3936   -1.5753    1.2195 H   0  0  0  0  0  0  0  0  0  0  0  0
    2.3775   -2.4146    0.0557 H   0  0  0  0  0  0  0  0  0  0  0  0
    3.7981   -0.2937    0.9261 H   0  0  0  0  0  0  0  0  0  0  0  0
    2.9179    1.2567    0.5846 H   0  0  0  0  0  0  0  0  0  0  0  0
    4.1693   -0.4461   -1.3326 H   0  0  0  0  0  0  0  0  0  0  0  0
    1.2210    1.3046   -1.1760 H   0  0  0  0  0  0  0  0  0  0  0  0
    0.3573   -0.2731   -1.5976 H   0  0  0  0  0  0  0  0  0  0  0  0
  1  2  1  0
  2  3  1  0
  3  4  1  0
  4  5  1  0
  4  6  2  0
  3  7  1  0
  7  8  1  0
  8  9  1  0
  9 10  1  0
  9 11  1  0
 11 12  1  0
  9 13  1  0
 13  7  1  0
  1 14  1  0
  1 15  1  0
  1 16  1  0
  2 17  1  0
  2 18  1  0
  3 19  1  1
  5 20  1  0
  5 21  1  0
  8 22  1  0
  8 23  1  0
 10 24  1  0
 11 25  1  0
 11 26  1  0
 12 27  1  0
 13 28  1  0
 13 29  1  0
M  END
$$$$

     RDKit          3D

 29 29  0  0  0  0  0  0  0  0999 V2000
   -2.7791   -1.5543    1.1735 C   0  0  0  0  0  0  0  0  0  0  0  0
   -1.3690   -1.2084    0.7172 C   0  0  0  0  0  0  0  0  0  0  0  0
   -1.3883    0.1970    0.2253 C   0  0  2  0  0  0  0  0  0  0  0  0
   -2.3221    0.3751   -0.9026 C   0  0  0  0  0  0  0  0  0  0  0  0
   -1.9016    1.0754   -2.0565 N   0  0  0  0  0  0  0  0  0  0  0  0
   -3.5085   -0.0757   -0.8924 O   0  0  0  0  0  0  0  0  0  0  0  0
   -0.1280    0.7649   -0.1041 N   0  0  0  0  0  0  0  0  0  0  0  0
    0.8187    0.9018    0.9985 C   0  0  0  0  0  0  0  0  0  0  0  0
    1.8854    0.7621   -0.0650 C   0  0  0  0  0  0  0  0  0  0  0  0
    2.0218    1.9019   -0.8236 O   0  0  0  0  0  0  0  0  0  0  0  0
    3.1550    0.1037    0.3785 C   0  0  0  0  0  0  0  0  0  0  0  0
    3.9174   -0.2795   -0.7196 O   0  0  0  0  0  0  0  0  0  0  0  0
    0.8572   -0.1660   -0.6776 C   0  0  0  0  0  0  0  0  0  0  0  0
   -2.7598   -2.2174    2.0650 H   0  0  0  0  0  0  0  0  0  0  0  0
   -3.3045   -0.6093    1.4152 H   0  0  0  0  0  0  0  0  0  0  0  0
   -3.3512   -2.0501    0.3509 H   0  0  0  0  0  0  0  0  0  0  0  0
   -0.7306   -1.3325    1.5978 H   0  0  0  0  0  0  0  0  0  0  0  0
   -1.1027   -1.9276   -0.0950 H   0  0  0  0  0  0  0  0  0  0  0  0
   -1.8441    0.8048    1.0716 H   0  0  0  0  0  0  0  0  0  0  0  0
   -2.4514    1.9278   -2.3616 H   0  0  0  0  0  0  0  0  0  0  0  0
   -1.0848    0.8334   -2.6544 H   0  0  0  0  0  0  0  0  0  0  0  0
    0.7834    1.8946    1.4916 H   0  0  0  0  0  0  0  0  0  0  0  0
    0.7538    0.0415    1.6833 H   0  0  0  0  0  0  0  0  0  0  0  0
    2.7501    1.8831   -1.4641 H   0  0  0  0  0  0  0  0  0  0  0  0
    2.9117   -0.7374    1.0528 H   0  0  0  0  0  0  0  0  0  0  0  0
    3.7441    0.8664    0.9309 H   0  0  0  0  0  0  0  0  0  0  0  0
    4.7145   -0.8022   -0.3848 H   0  0  0  0  0  0  0  0  0  0  0  0
    0.8720   -0.2112   -1.7760 H   0  0  0  0  0  0  0  0  0  0  0  0
    0.8405   -1.1619   -0.1746 H   0  0  0  0  0  0  0  0  0  0  0  0
  1  2  1  0
  2  3  1  0
  3  4  1  0
  4  5  1  0
  4  6  2  0
  3  7  1  0
  7  8  1  0
  8  9  1  0
  9 10  1  0
  9 11  1  0
 11 12  1  0
  9 13  1  0
 13  7  1  0
  1 14  1  0
  1 15  1  0
  1 16  1  0
  2 17  1  0
  2 18  1  0
  3 19  1  1
  5 20  1  0
  5 21  1  0
  8 22  1  0
  8 23  1  0
 10 24  1  0
 11 25  1  0
 11 26  1  0
 12 27  1  0
 13 28  1  0
 13 29  1  0
M  END
$$$$

     RDKit          3D

 29 29  0  0  0  0  0  0  0  0999 V2000
   -3.1507    1.1410    0.8960 C   0  0  0  0  0  0  0  0  0  0  0  0
   -1.6467    0.9860    0.8068 C   0  0  0  0  0  0  0  0  0  0  0  0
   -1.3646    0.1036   -0.3795 C   0  0  2  0  0  0  0  0  0  0  0  0
   -1.9946   -1.2349   -0.2387 C   0  0  0  0  0  0  0  0  0  0  0  0
   -1.2966   -2.4606   -0.4192 N   0  0  0  0  0  0  0  0  0  0  0  0
   -3.2274   -1.3436    0.0600 O   0  0  0  0  0  0  0  0  0  0  0  0
    0.0014   -0.0232   -0.7200 N   0  0  0  0  0  0  0  0  0  0  0  0
    0.8967   -0.6281    0.2486 C   0  0  0  0  0  0  0  0  0  0  0  0
    1.9969    0.1541   -0.4884 C   0  0  0  0  0  0  0  0  0  0  0  0
    2.3277   -0.3613   -1.7147 O   0  0  0  0  0  0  0  0  0  0  0  0
    3.1339    0.5824    0.3641 C   0  0  0  0  0  0  0  0  0  0  0  0
    3.9422   -0.5303    0.5940 O   0  0  0  0  0  0  0  0  0  0  0  0
    0.8391    1.1583   -0.6035 C   0  0  0  0  0  0  0  0  0  0  0  0
   -3.5852    0.3835    1.5924 H   0  0  0  0  0  0  0  0  0  0  0  0
   -3.6021    0.9607   -0.0911 H   0  0  0  0  0  0  0  0  0  0  0  0
   -3.4366    2.1752    1.2122 H   0  0  0  0  0  0  0  0  0  0  0  0
   -1.2119    0.6371    1.7444 H   0  0  0  0  0  0  0  0  0  0  0  0
   -1.2695    2.0143    0.5277 H   0  0  0  0  0  0  0  0  0  0  0  0
   -1.8774    0.5841   -1.2521 H   0  0  0  0  0  0  0  0  0  0  0  0
   -0.9693   -3.0449    0.3892 H   0  0  0  0  0  0  0  0  0  0  0  0
   -1.0865   -2.8204   -1.3748 H   0  0  0  0  0  0  0  0  0  0  0  0
    1.0086   -1.7061    0.2142 H   0  0  0  0  0  0  0  0  0  0  0  0
    0.8075   -0.1748    1.2678 H   0  0  0  0  0  0  0  0  0  0  0  0
    3.1322   -0.9006   -1.6537 H   0  0  0  0  0  0  0  0  0  0  0  0
    3.7501    1.2968   -0.2262 H   0  0  0  0  0  0  0  0  0  0  0  0
    2.8024    0.9721    1.3314 H   0  0  0  0  0  0  0  0  0  0  0  0
    3.4782   -1.3693    0.3670 H   0  0  0  0  0  0  0  0  0  0  0  0
    0.8777    1.8132   -1.4696 H   0  0  0  0  0  0  0  0  0  0  0  0
    0.7247    1.6356    0.3930 H   0  0  0  0  0  0  0  0  0  0  0  0
  1  2  1  0
  2  3  1  0
  3  4  1  0
  4  5  1  0
  4  6  2  0
  3  7  1  0
  7  8  1  0
  8  9  1  0
  9 10  1  0
  9 11  1  0
 11 12  1  0
  9 13  1  0
 13  7  1  0
  1 14  1  0
  1 15  1  0
  1 16  1  0
  2 17  1  0
  2 18  1  0
  3 19  1  6
  5 20  1  0
  5 21  1  0
  8 22  1  0
  8 23  1  0
 10 24  1  0
 11 25  1  0
 11 26  1  0
 12 27  1  0
 13 28  1  0
 13 29  1  0
M  END
$$$$

     RDKit          3D

 29 29  0  0  0  0  0  0  0  0999 V2000
   -1.4555    1.8706   -0.9716 C   0  0  0  0  0  0  0  0  0  0  0  0
   -1.9362    0.7782   -0.0736 C   0  0  0  0  0  0  0  0  0  0  0  0
   -1.3231   -0.5540   -0.2441 C   0  0  2  0  0  0  0  0  0  0  0  0
   -1.9438   -1.5209    0.7421 C   0  0  0  0  0  0  0  0  0  0  0  0
   -3.3383   -1.6109    0.9041 N   0  0  0  0  0  0  0  0  0  0  0  0
   -1.2384   -2.2805    1.4541 O   0  0  0  0  0  0  0  0  0  0  0  0
    0.0496   -0.7278   -0.1700 N   0  0  0  0  0  0  0  0  0  0  0  0
    0.9824   -0.1652   -1.0598 C   0  0  0  0  0  0  0  0  0  0  0  0
    1.8563    0.2215    0.1268 C   0  0  0  0  0  0  0  0  0  0  0  0
    1.9853    1.6046    0.2660 O   0  0  0  0  0  0  0  0  0  0  0  0
    3.1713   -0.5201    0.1237 C   0  0  0  0  0  0  0  0  0  0  0  0
    3.8895   -0.3388    1.2776 O   0  0  0  0  0  0  0  0  0  0  0  0
    0.7838   -0.3729    0.9960 C   0  0  0  0  0  0  0  0  0  0  0  0
   -2.1998    2.7310   -0.9395 H   0  0  0  0  0  0  0  0  0  0  0  0
   -1.4314    1.5771   -2.0230 H   0  0  0  0  0  0  0  0  0  0  0  0
   -0.5122    2.3520   -0.6510 H   0  0  0  0  0  0  0  0  0  0  0  0
   -1.9619    1.1325    0.9868 H   0  0  0  0  0  0  0  0  0  0  0  0
   -3.0376    0.6548   -0.3177 H   0  0  0  0  0  0  0  0  0  0  0  0
   -1.6837   -0.9526   -1.2401 H   0  0  0  0  0  0  0  0  0  0  0  0
   -3.8242   -0.9097    1.4982 H   0  0  0  0  0  0  0  0  0  0  0  0
   -3.8784   -2.3658    0.4397 H   0  0  0  0  0  0  0  0  0  0  0  0
    0.7242    0.6470   -1.7316 H   0  0  0  0  0  0  0  0  0  0  0  0
    1.4814   -0.9717   -1.6699 H   0  0  0  0  0  0  0  0  0  0  0  0
    2.1234    1.9506   -0.6663 H   0  0  0  0  0  0  0  0  0  0  0  0
    2.9833   -1.5854   -0.1178 H   0  0  0  0  0  0  0  0  0  0  0  0
    3.7730   -0.1221   -0.7303 H   0  0  0  0  0  0  0  0  0  0  0  0
    4.4883    0.4654    1.2370 H   0  0  0  0  0  0  0  0  0  0  0  0
    0.3032    0.2986    1.7205 H   0  0  0  0  0  0  0  0  0  0  0  0
    1.1695   -1.2857    1.5088 H   0  0  0  0  0  0  0  0  0  0  0  0
  1  2  1  0
  2  3  1  0
  3  4  1  0
  4  5  1  0
  4  6  2  0
  3  7  1  0
  7  8  1  0
  8  9  1  0
  9 10  1  0
  9 11  1  0
 11 12  1  0
  9 13  1  0
 13  7  1  0
  1 14  1  0
  1 15  1  0
  1 16  1  0
  2 17  1  0
  2 18  1  0
  3 19  1  6
  5 20  1  0
  5 21  1  0
  8 22  1  0
  8 23  1  0
 10 24  1  0
 11 25  1  0
 11 26  1  0
 12 27  1  0
 13 28  1  0
 13 29  1  0
M  END
$$$$

     RDKit          3D

 29 29  0  0  0  0  0  0  0  0999 V2000
    2.3790   -1.8534   -0.3472 C   0  0  0  0  0  0  0  0  0  0  0  0
    2.4510   -0.4612    0.1662 C   0  0  0  0  0  0  0  0  0  0  0  0
    1.3576    0.4624   -0.2040 C   0  0  2  0  0  0  0  0  0  0  0  0
    1.6854    1.7925    0.4420 C   0  0  0  0  0  0  0  0  0  0  0  0
    0.7743    2.4749    1.2870 N   0  0  0  0  0  0  0  0  0  0  0  0
    2.8000    2.3416    0.2419 O   0  0  0  0  0  0  0  0  0  0  0  0
    0.0390    0.0971    0.1813 N   0  0  0  0  0  0  0  0  0  0  0  0
   -0.5441   -1.0960   -0.3460 C   0  0  0  0  0  0  0  0  0  0  0  0
   -1.8502   -0.3585   -0.5693 C   0  0  0  0  0  0  0  0  0  0  0  0
   -2.4044   -0.6350   -1.8066 O   0  0  0  0  0  0  0  0  0  0  0  0
   -2.8234   -0.4594    0.5855 C   0  0  0  0  0  0  0  0  0  0  0  0
   -3.8420    0.4629    0.3485 O   0  0  0  0  0  0  0  0  0  0  0  0
   -0.9971    0.8609   -0.4686 C   0  0  0  0  0  0  0  0  0  0  0  0
    1.5764   -2.4785    0.0180 H   0  0  0  0  0  0  0  0  0  0  0  0
    3.3308   -2.4207   -0.1674 H   0  0  0  0  0  0  0  0  0  0  0  0
    2.2847   -1.8080   -1.4725 H   0  0  0  0  0  0  0  0  0  0  0  0
    3.4365   -0.0097   -0.1620 H   0  0  0  0  0  0  0  0  0  0  0  0
    2.5769   -0.5285    1.2884 H   0  0  0  0  0  0  0  0  0  0  0  0
    1.4054    0.6804   -1.3070 H   0  0  0  0  0  0  0  0  0  0  0  0
    0.4447    1.9645    2.1347 H   0  0  0  0  0  0  0  0  0  0  0  0
    0.4172    3.4288    1.1276 H   0  0  0  0  0  0  0  0  0  0  0  0
   -0.6638   -1.8525    0.4872 H   0  0  0  0  0  0  0  0  0  0  0  0
   -0.1563   -1.4806   -1.2895 H   0  0  0  0  0  0  0  0  0  0  0  0
   -2.4252   -1.6178   -1.9106 H   0  0  0  0  0  0  0  0  0  0  0  0
   -3.2600   -1.4802    0.6549 H   0  0  0  0  0  0  0  0  0  0  0  0
   -2.3513   -0.2037    1.5401 H   0  0  0  0  0  0  0  0  0  0  0  0
   -3.4577    1.2353   -0.1347 H   0  0  0  0  0  0  0  0  0  0  0  0
   -0.7449    1.3220   -1.4399 H   0  0  0  0  0  0  0  0  0  0  0  0
   -1.4387    1.6204    0.2101 H   0  0  0  0  0  0  0  0  0  0  0  0
  1  2  1  0
  2  3  1  0
  3  4  1  0
  4  5  1  0
  4  6  2  0
  3  7  1  0
  7  8  1  0
  8  9  1  0
  9 10  1  0
  9 11  1  0
 11 12  1  0
  9 13  1  0
 13  7  1  0
  1 14  1  0
  1 15  1  0
  1 16  1  0
  2 17  1  0
  2 18  1  0
  3 19  1  6
  5 20  1  0
  5 21  1  0
  8 22  1  0
  8 23  1  0
 10 24  1  0
 11 25  1  0
 11 26  1  0
 12 27  1  0
 13 28  1  0
 13 29  1  0
M  END
$$$$

     RDKit          3D

 29 29  0  0  0  0  0  0  0  0999 V2000
   -1.9919   -1.9370   -0.7057 C   0  0  0  0  0  0  0  0  0  0  0  0
   -2.1998   -0.4580   -0.8144 C   0  0  0  0  0  0  0  0  0  0  0  0
   -1.3036    0.3805    0.0370 C   0  0  2  0  0  0  0  0  0  0  0  0
   -1.6500    1.8308   -0.1896 C   0  0  0  0  0  0  0  0  0  0  0  0
   -2.9846    2.2986   -0.0242 N   0  0  0  0  0  0  0  0  0  0  0  0
   -0.7827    2.6813   -0.5310 O   0  0  0  0  0  0  0  0  0  0  0  0
    0.0744    0.2440   -0.2007 N   0  0  0  0  0  0  0  0  0  0  0  0
    0.7325   -1.0182    0.0407 C   0  0  0  0  0  0  0  0  0  0  0  0
    2.0141   -0.1556    0.0695 C   0  0  0  0  0  0  0  0  0  0  0  0
    2.3841    0.3239   -1.1602 O   0  0  0  0  0  0  0  0  0  0  0  0
    3.0821   -0.6753    0.9585 C   0  0  0  0  0  0  0  0  0  0  0  0
    3.9936    0.3314    1.2156 O   0  0  0  0  0  0  0  0  0  0  0  0
    1.0200    0.8119    0.7311 C   0  0  0  0  0  0  0  0  0  0  0  0
   -1.4594   -2.2474    0.2052 H   0  0  0  0  0  0  0  0  0  0  0  0
   -2.9863   -2.4775   -0.7915 H   0  0  0  0  0  0  0  0  0  0  0  0
   -1.4159   -2.2732   -1.6043 H   0  0  0  0  0  0  0  0  0  0  0  0
   -3.2869   -0.2639   -0.6000 H   0  0  0  0  0  0  0  0  0  0  0  0
   -2.1090   -0.1744   -1.8975 H   0  0  0  0  0  0  0  0  0  0  0  0
   -1.5295    0.1584    1.1124 H   0  0  0  0  0  0  0  0  0  0  0  0
   -3.2020    3.0874    0.6216 H   0  0  0  0  0  0  0  0  0  0  0  0
   -3.7940    1.8810   -0.5333 H   0  0  0  0  0  0  0  0  0  0  0  0
    0.5613   -1.3747    1.0790 H   0  0  0  0  0  0  0  0  0  0  0  0
    0.7435   -1.7528   -0.7570 H   0  0  0  0  0  0  0  0  0  0  0  0
    3.3511    0.1756   -1.3224 H   0  0  0  0  0  0  0  0  0  0  0  0
    2.6435   -1.0144    1.9094 H   0  0  0  0  0  0  0  0  0  0  0  0
    3.6231   -1.4776    0.4178 H   0  0  0  0  0  0  0  0  0  0  0  0
    4.3648    0.7442    0.4061 H   0  0  0  0  0  0  0  0  0  0  0  0
    1.2667    1.8700    0.5855 H   0  0  0  0  0  0  0  0  0  0  0  0
    0.8409    0.4811    1.7516 H   0  0  0  0  0  0  0  0  0  0  0  0
  1  2  1  0
  2  3  1  0
  3  4  1  0
  4  5  1  0
  4  6  2  0
  3  7  1  0
  7  8  1  0
  8  9  1  0
  9 10  1  0
  9 11  1  0
 11 12  1  0
  9 13  1  0
 13  7  1  0
  1 14  1  0
  1 15  1  0
  1 16  1  0
  2 17  1  0
  2 18  1  0
  3 19  1  1
  5 20  1  0
  5 21  1  0
  8 22  1  0
  8 23  1  0
 10 24  1  0
 11 25  1  0
 11 26  1  0
 12 27  1  0
 13 28  1  0
 13 29  1  0
M  END
$$$$

     RDKit          3D

 29 29  0  0  0  0  0  0  0  0999 V2000
   -3.1661   -1.1129   -0.7416 C   0  0  0  0  0  0  0  0  0  0  0  0
   -1.6694   -0.8967   -0.8207 C   0  0  0  0  0  0  0  0  0  0  0  0
   -1.1690   -0.0566    0.3255 C   0  0  2  0  0  0  0  0  0  0  0  0
   -1.8077    1.2951    0.3440 C   0  0  0  0  0  0  0  0  0  0  0  0
   -0.9312    2.4359    0.4601 N   0  0  0  0  0  0  0  0  0  0  0  0
   -3.0423    1.4480    0.2636 O   0  0  0  0  0  0  0  0  0  0  0  0
    0.2323    0.0215    0.4335 N   0  0  0  0  0  0  0  0  0  0  0  0
    0.9546    0.6373   -0.6723 C   0  0  0  0  0  0  0  0  0  0  0  0
    2.1467   -0.1637   -0.1243 C   0  0  0  0  0  0  0  0  0  0  0  0
    3.0824   -0.5514   -1.0193 O   0  0  0  0  0  0  0  0  0  0  0  0
    2.5784    0.4129    1.1853 C   0  0  0  0  0  0  0  0  0  0  0  0
    3.3610   -0.4765    1.9426 O   0  0  0  0  0  0  0  0  0  0  0  0
    1.0064   -1.1668    0.1337 C   0  0  0  0  0  0  0  0  0  0  0  0
   -3.6253   -0.5995   -1.6199 H   0  0  0  0  0  0  0  0  0  0  0  0
   -3.4372   -2.2003   -0.8902 H   0  0  0  0  0  0  0  0  0  0  0  0
   -3.6072   -0.8114    0.2175 H   0  0  0  0  0  0  0  0  0  0  0  0
   -1.3751   -0.3881   -1.7587 H   0  0  0  0  0  0  0  0  0  0  0  0
   -1.2135   -1.9010   -0.7023 H   0  0  0  0  0  0  0  0  0  0  0  0
   -1.5431   -0.5632    1.2642 H   0  0  0  0  0  0  0  0  0  0  0  0
   -0.3277    2.6053    1.2755 H   0  0  0  0  0  0  0  0  0  0  0  0
   -0.9146    3.1120   -0.3187 H   0  0  0  0  0  0  0  0  0  0  0  0
    0.6926    0.2284   -1.6722 H   0  0  0  0  0  0  0  0  0  0  0  0
    1.0758    1.7250   -0.5975 H   0  0  0  0  0  0  0  0  0  0  0  0
    3.0437   -0.0950   -1.8770 H   0  0  0  0  0  0  0  0  0  0  0  0
    1.6412    0.5536    1.7979 H   0  0  0  0  0  0  0  0  0  0  0  0
    3.0565    1.3889    1.1400 H   0  0  0  0  0  0  0  0  0  0  0  0
    2.9718   -1.3854    1.9353 H   0  0  0  0  0  0  0  0  0  0  0  0
    0.7944   -1.6383   -0.8630 H   0  0  0  0  0  0  0  0  0  0  0  0
    1.1917   -1.8570    0.9589 H   0  0  0  0  0  0  0  0  0  0  0  0
  1  2  1  0
  2  3  1  0
  3  4  1  0
  4  5  1  0
  4  6  2  0
  3  7  1  0
  7  8  1  0
  8  9  1  0
  9 10  1  0
  9 11  1  0
 11 12  1  0
  9 13  1  0
 13  7  1  0
  1 14  1  0
  1 15  1  0
  1 16  1  0
  2 17  1  0
  2 18  1  0
  3 19  1  1
  5 20  1  0
  5 21  1  0
  8 22  1  0
  8 23  1  0
 10 24  1  0
 11 25  1  0
 11 26  1  0
 12 27  1  0
 13 28  1  0
 13 29  1  0
M  END
$$$$

     RDKit          3D

 29 29  0  0  0  0  0  0  0  0999 V2000
   -1.9680    2.1009   -0.3280 C   0  0  0  0  0  0  0  0  0  0  0  0
   -2.2136    0.7470    0.2227 C   0  0  0  0  0  0  0  0  0  0  0  0
   -1.2043   -0.3032   -0.2695 C   0  0  2  0  0  0  0  0  0  0  0  0
   -1.6532   -1.5363    0.4053 C   0  0  0  0  0  0  0  0  0  0  0  0
   -2.8912   -2.1099    0.0425 N   0  0  0  0  0  0  0  0  0  0  0  0
   -0.9578   -2.0631    1.2752 O   0  0  0  0  0  0  0  0  0  0  0  0
    0.1175    0.0186    0.0820 N   0  0  0  0  0  0  0  0  0  0  0  0
    1.0082   -0.9867    0.5834 C   0  0  0  0  0  0  0  0  0  0  0  0
    2.2064   -0.2996   -0.0890 C   0  0  0  0  0  0  0  0  0  0  0  0
    3.0806   -1.1486   -0.7218 O   0  0  0  0  0  0  0  0  0  0  0  0
    2.8989    0.6683    0.8206 C   0  0  0  0  0  0  0  0  0  0  0  0
    3.7944    1.4442    0.0890 O   0  0  0  0  0  0  0  0  0  0  0  0
    1.0946    0.2765   -0.9541 C   0  0  0  0  0  0  0  0  0  0  0  0
   -1.7547    2.7985    0.5387 H   0  0  0  0  0  0  0  0  0  0  0  0
   -1.1511    2.1851   -1.0584 H   0  0  0  0  0  0  0  0  0  0  0  0
   -2.8990    2.5483   -0.7843 H   0  0  0  0  0  0  0  0  0  0  0  0
   -2.2328    0.6701    1.3196 H   0  0  0  0  0  0  0  0  0  0  0  0
   -3.1995    0.3814   -0.1387 H   0  0  0  0  0  0  0  0  0  0  0  0
   -1.2854   -0.3735   -1.3753 H   0  0  0  0  0  0  0  0  0  0  0  0
   -3.5530   -2.5661    0.6968 H   0  0  0  0  0  0  0  0  0  0  0  0
   -3.1673   -2.0732   -0.9689 H   0  0  0  0  0  0  0  0  0  0  0  0
    1.1267   -1.0918    1.6626 H   0  0  0  0  0  0  0  0  0  0  0  0
    0.9430   -1.9945    0.0867 H   0  0  0  0  0  0  0  0  0  0  0  0
    2.7063   -2.0355   -0.9452 H   0  0  0  0  0  0  0  0  0  0  0  0
    2.1275    1.3445    1.2914 H   0  0  0  0  0  0  0  0  0  0  0  0
    3.3958    0.1554    1.6598 H   0  0  0  0  0  0  0  0  0  0  0  0
    3.3421    2.2796   -0.1403 H   0  0  0  0  0  0  0  0  0  0  0  0
    0.9824   -0.3761   -1.8466 H   0  0  0  0  0  0  0  0  0  0  0  0
    1.3064    1.3395   -1.1562 H   0  0  0  0  0  0  0  0  0  0  0  0
  1  2  1  0
  2  3  1  0
  3  4  1  0
  4  5  1  0
  4  6  2  0
  3  7  1  0
  7  8  1  0
  8  9  1  0
  9 10  1  0
  9 11  1  0
 11 12  1  0
  9 13  1  0
 13  7  1  0
  1 14  1  0
  1 15  1  0
  1 16  1  0
  2 17  1  0
  2 18  1  0
  3 19  1  6
  5 20  1  0
  5 21  1  0
  8 22  1  0
  8 23  1  0
 10 24  1  0
 11 25  1  0
 11 26  1  0
 12 27  1  0
 13 28  1  0
 13 29  1  0
M  END
$$$$
