
     RDKit          3D

 24 24  0  0  0  0  0  0  0  0999 V2000
    3.9137   -1.0495    0.9085 O   0  0  0  0  0  0  0  0  0  0  0  0
    3.7147   -0.3823   -0.1355 C   0  0  0  0  0  0  0  0  0  0  0  0
    4.8028   -0.0123   -0.9013 O   0  0  0  0  0  0  0  0  0  0  0  0
    2.3599   -0.0193   -0.5091 C   0  0  0  0  0  0  0  0  0  0  0  0
    2.1913    0.6494   -1.5603 O   0  0  0  0  0  0  0  0  0  0  0  0
    1.2202   -0.3835    0.2555 N   0  0  0  0  0  0  0  0  0  0  0  0
   -0.0782    0.0093   -0.1749 C   0  0  2  0  0  0  0  0  0  0  0  0
   -0.7781    0.8995    0.8606 C   0  0  0  0  0  0  0  0  0  0  0  0
   -1.9385    1.5208    0.0904 C   0  0  0  0  0  0  0  0  0  0  0  0
   -2.8478    0.5001   -0.3201 N   0  0  0  0  0  0  0  0  0  0  0  0
   -2.4407   -0.8350   -0.0513 C   0  0  0  0  0  0  0  0  0  0  0  0
   -1.0213   -1.1463   -0.4097 C   0  0  2  0  0  0  0  0  0  0  0  0
   -0.5307   -2.2186    0.3276 F   0  0  0  0  0  0  0  0  0  0  0  0
    5.7394    0.1143   -0.5028 H   0  0  0  0  0  0  0  0  0  0  0  0
    1.3554   -0.9281    1.1120 H   0  0  0  0  0  0  0  0  0  0  0  0
   -0.0253    0.5844   -1.1097 H   0  0  0  0  0  0  0  0  0  0  0  0
   -0.0751    1.6365    1.2449 H   0  0  0  0  0  0  0  0  0  0  0  0
   -1.1888    0.2389    1.6425 H   0  0  0  0  0  0  0  0  0  0  0  0
   -2.3906    2.3266    0.6668 H   0  0  0  0  0  0  0  0  0  0  0  0
   -1.4785    1.9499   -0.8429 H   0  0  0  0  0  0  0  0  0  0  0  0
   -3.7890    0.6531    0.0723 H   0  0  0  0  0  0  0  0  0  0  0  0
   -2.6030   -1.1267    1.0140 H   0  0  0  0  0  0  0  0  0  0  0  0
   -3.1133   -1.5168   -0.6392 H   0  0  0  0  0  0  0  0  0  0  0  0
   -0.9983   -1.4645   -1.4743 H   0  0  0  0  0  0  0  0  0  0  0  0
  1  2  2  0
  2  3  1  0
  2  4  1  0
  4  5  2  0
  4  6  1  0
  6  7  1  0
  7  8  1  0
  8  9  1  0
  9 10  1  0
 10 11  1  0
 11 12  1  0
 12 13  1  0
 12  7  1  0
  3 14  1  0
  6 15  1  0
  7 16  1  6
  8 17  1  0
  8 18  1  0
  9 19  1  0
  9 20  1  0
 10 21  1  0
 11 22  1  0
 11 23  1  0
 12 24  1  6
M  END
$$$$

     RDKit          3D

 24 24  0  0  0  0  0  0  0  0999 V2000
    3.8164    1.3543    0.6477 O   0  0  0  0  0  0  0  0  0  0  0  0
    3.7207    0.3963   -0.1488 C   0  0  0  0  0  0  0  0  0  0  0  0
    4.8700   -0.1427   -0.6872 O   0  0  0  0  0  0  0  0  0  0  0  0
    2.4055   -0.1170   -0.4809 C   0  0  0  0  0  0  0  0  0  0  0  0
    2.2482   -1.0883   -1.2839 O   0  0  0  0  0  0  0  0  0  0  0  0
    1.2337    0.4390    0.0734 N   0  0  0  0  0  0  0  0  0  0  0  0
   -0.1017    0.0098   -0.1866 C   0  0  2  0  0  0  0  0  0  0  0  0
   -0.9875    1.0531   -0.7721 C   0  0  0  0  0  0  0  0  0  0  0  0
   -2.2705    0.3373   -1.1833 C   0  0  0  0  0  0  0  0  0  0  0  0
   -2.9536   -0.1408   -0.0035 N   0  0  0  0  0  0  0  0  0  0  0  0
   -2.1518   -0.9981    0.8170 C   0  0  0  0  0  0  0  0  0  0  0  0
   -0.7702   -0.5089    1.0724 C   0  0  2  0  0  0  0  0  0  0  0  0
   -0.6736    0.4284    2.0687 F   0  0  0  0  0  0  0  0  0  0  0  0
    5.7807   -0.0871   -0.2215 H   0  0  0  0  0  0  0  0  0  0  0  0
    1.3626    1.2434    0.7386 H   0  0  0  0  0  0  0  0  0  0  0  0
   -0.0480   -0.8433   -0.9061 H   0  0  0  0  0  0  0  0  0  0  0  0
   -1.2890    1.7549    0.0475 H   0  0  0  0  0  0  0  0  0  0  0  0
   -0.5518    1.5975   -1.6286 H   0  0  0  0  0  0  0  0  0  0  0  0
   -1.9518   -0.5001   -1.8451 H   0  0  0  0  0  0  0  0  0  0  0  0
   -2.9427    1.0194   -1.7087 H   0  0  0  0  0  0  0  0  0  0  0  0
   -3.7837   -0.6900   -0.3202 H   0  0  0  0  0  0  0  0  0  0  0  0
   -2.1342   -2.0617    0.4558 H   0  0  0  0  0  0  0  0  0  0  0  0
   -2.6706   -1.0607    1.8188 H   0  0  0  0  0  0  0  0  0  0  0  0
   -0.1571   -1.3949    1.4082 H   0  0  0  0  0  0  0  0  0  0  0  0
  1  2  2  0
  2  3  1  0
  2  4  1  0
  4  5  2  0
  4  6  1  0
  6  7  1  0
  7  8  1  0
  8  9  1  0
  9 10  1  0
 10 11  1  0
 11 12  1  0
 12 13  1  0
 12  7  1  0
  3 14  1  0
  6 15  1  0
  7 16  1  6
  8 17  1  0
  8 18  1  0
  9 19  1  0
  9 20  1  0
 10 21  1  0
 11 22  1  0
 11 23  1  0
 12 24  1  1
M  END
$$$$

     RDKit          3D

 24 24  0  0  0  0  0  0  0  0999 V2000
    3.8726   -1.2160    0.7032 O   0  0  0  0  0  0  0  0  0  0  0  0
    3.6936   -0.0619    0.2435 C   0  0  0  0  0  0  0  0  0  0  0  0
    4.8088    0.7285    0.0449 O   0  0  0  0  0  0  0  0  0  0  0  0
    2.3369    0.4001   -0.0611 C   0  0  0  0  0  0  0  0  0  0  0  0
    2.1801    1.5551   -0.5190 O   0  0  0  0  0  0  0  0  0  0  0  0
    1.1922   -0.3983    0.1377 N   0  0  0  0  0  0  0  0  0  0  0  0
   -0.1329    0.0265   -0.1496 C   0  0  2  0  0  0  0  0  0  0  0  0
   -0.9645    0.0692    1.1193 C   0  0  0  0  0  0  0  0  0  0  0  0
   -2.4597    0.0659    0.7767 C   0  0  0  0  0  0  0  0  0  0  0  0
   -2.6254    0.7817   -0.4541 N   0  0  0  0  0  0  0  0  0  0  0  0
   -2.1078   -0.0086   -1.5573 C   0  0  0  0  0  0  0  0  0  0  0  0
   -0.8846   -0.8217   -1.1253 C   0  0  2  0  0  0  0  0  0  0  0  0
   -1.2603   -2.0316   -0.5760 F   0  0  0  0  0  0  0  0  0  0  0  0
    5.6166    0.7020    0.6871 H   0  0  0  0  0  0  0  0  0  0  0  0
    1.3431   -1.3570    0.5197 H   0  0  0  0  0  0  0  0  0  0  0  0
   -0.1423    1.0784   -0.5536 H   0  0  0  0  0  0  0  0  0  0  0  0
   -0.7422   -0.8682    1.7050 H   0  0  0  0  0  0  0  0  0  0  0  0
   -0.7799    0.9704    1.7206 H   0  0  0  0  0  0  0  0  0  0  0  0
   -3.0234    0.5688    1.5948 H   0  0  0  0  0  0  0  0  0  0  0  0
   -2.8557   -0.9605    0.7101 H   0  0  0  0  0  0  0  0  0  0  0  0
   -2.1511    1.7059   -0.3665 H   0  0  0  0  0  0  0  0  0  0  0  0
   -1.7022    0.7401   -2.2978 H   0  0  0  0  0  0  0  0  0  0  0  0
   -2.8717   -0.6274   -2.0357 H   0  0  0  0  0  0  0  0  0  0  0  0
   -0.3401   -1.0414   -2.0557 H   0  0  0  0  0  0  0  0  0  0  0  0
  1  2  2  0
  2  3  1  0
  2  4  1  0
  4  5  2  0
  4  6  1  0
  6  7  1  0
  7  8  1  0
  8  9  1  0
  9 10  1  0
 10 11  1  0
 11 12  1  0
 12 13  1  0
 12  7  1  0
  3 14  1  0
  6 15  1  0
  7 16  1  6
  8 17  1  0
  8 18  1  0
  9 19  1  0
  9 20  1  0
 10 21  1  0
 11 22  1  0
 11 23  1  0
 12 24  1  6
M  END
$$$$

     RDKit          3D

 24 24  0  0  0  0  0  0  0  0999 V2000
    3.8029    0.9141   -0.2938 O   0  0  0  0  0  0  0  0  0  0  0  0
    3.6359   -0.3187   -0.1161 C   0  0  0  0  0  0  0  0  0  0  0  0
    4.7518   -1.1244   -0.1120 O   0  0  0  0  0  0  0  0  0  0  0  0
    2.2833   -0.8300    0.0750 C   0  0  0  0  0  0  0  0  0  0  0  0
    2.0513   -2.0379    0.2553 O   0  0  0  0  0  0  0  0  0  0  0  0
    1.1422    0.0089    0.0688 N   0  0  0  0  0  0  0  0  0  0  0  0
   -0.1594   -0.4668    0.2504 C   0  0  2  0  0  0  0  0  0  0  0  0
   -0.8933   -0.2941   -1.0885 C   0  0  0  0  0  0  0  0  0  0  0  0
   -2.3865   -0.2576   -0.8722 C   0  0  0  0  0  0  0  0  0  0  0  0
   -2.8047    0.8795   -0.0873 N   0  0  0  0  0  0  0  0  0  0  0  0
   -1.7303    1.3526    0.7848 C   0  0  0  0  0  0  0  0  0  0  0  0
   -1.0175    0.1109    1.2930 C   0  0  2  0  0  0  0  0  0  0  0  0
   -0.4274    0.3060    2.5153 F   0  0  0  0  0  0  0  0  0  0  0  0
    5.7041   -0.8185   -0.1121 H   0  0  0  0  0  0  0  0  0  0  0  0
    1.2708    1.0390   -0.0786 H   0  0  0  0  0  0  0  0  0  0  0  0
   -0.1176   -1.5872    0.3944 H   0  0  0  0  0  0  0  0  0  0  0  0
   -0.6617   -1.0888   -1.7933 H   0  0  0  0  0  0  0  0  0  0  0  0
   -0.6091    0.6743   -1.5605 H   0  0  0  0  0  0  0  0  0  0  0  0
   -2.8516   -0.1661   -1.8727 H   0  0  0  0  0  0  0  0  0  0  0  0
   -2.6938   -1.2266   -0.4499 H   0  0  0  0  0  0  0  0  0  0  0  0
   -3.2141    1.6417   -0.6553 H   0  0  0  0  0  0  0  0  0  0  0  0
   -1.0791    1.9792    0.1541 H   0  0  0  0  0  0  0  0  0  0  0  0
   -2.1653    1.9342    1.6190 H   0  0  0  0  0  0  0  0  0  0  0  0
   -1.8308   -0.6237    1.4948 H   0  0  0  0  0  0  0  0  0  0  0  0
  1  2  2  0
  2  3  1  0
  2  4  1  0
  4  5  2  0
  4  6  1  0
  6  7  1  0
  7  8  1  0
  8  9  1  0
  9 10  1  0
 10 11  1  0
 11 12  1  0
 12 13  1  0
 12  7  1  0
  3 14  1  0
  6 15  1  0
  7 16  1  1
  8 17  1  0
  8 18  1  0
  9 19  1  0
  9 20  1  0
 10 21  1  0
 11 22  1  0
 11 23  1  0
 12 24  1  1
M  END
$$$$

     RDKit          3D

 24 24  0  0  0  0  0  0  0  0999 V2000
    3.7862   -1.3136    0.7360 O   0  0  0  0  0  0  0  0  0  0  0  0
    3.6652   -0.4993   -0.2098 C   0  0  0  0  0  0  0  0  0  0  0  0
    4.7924   -0.0958   -0.8875 O   0  0  0  0  0  0  0  0  0  0  0  0
    2.3239   -0.0284   -0.5329 C   0  0  0  0  0  0  0  0  0  0  0  0
    2.1190    0.7980   -1.4785 O   0  0  0  0  0  0  0  0  0  0  0  0
    1.1664   -0.4529    0.1751 N   0  0  0  0  0  0  0  0  0  0  0  0
   -0.1619    0.0260   -0.1599 C   0  0  2  0  0  0  0  0  0  0  0  0
   -0.7266    0.7721    1.0450 C   0  0  0  0  0  0  0  0  0  0  0  0
   -2.2027    0.9899    0.8614 C   0  0  0  0  0  0  0  0  0  0  0  0
   -2.5695    0.8888   -0.5361 N   0  0  0  0  0  0  0  0  0  0  0  0
   -2.3680   -0.4257   -1.0763 C   0  0  0  0  0  0  0  0  0  0  0  0
   -1.0904   -1.0784   -0.5679 C   0  0  2  0  0  0  0  0  0  0  0  0
   -1.3928   -1.9396    0.4642 F   0  0  0  0  0  0  0  0  0  0  0  0
    5.7293   -0.0876   -0.4645 H   0  0  0  0  0  0  0  0  0  0  0  0
    1.3063   -1.1320    0.9570 H   0  0  0  0  0  0  0  0  0  0  0  0
   -0.0869    0.7313   -1.0107 H   0  0  0  0  0  0  0  0  0  0  0  0
   -0.5327    0.2355    1.9890 H   0  0  0  0  0  0  0  0  0  0  0  0
   -0.2246    1.7604    1.1016 H   0  0  0  0  0  0  0  0  0  0  0  0
   -2.4672    2.0053    1.1980 H   0  0  0  0  0  0  0  0  0  0  0  0
   -2.7961    0.2754    1.4714 H   0  0  0  0  0  0  0  0  0  0  0  0
   -2.1345    1.6508   -1.0626 H   0  0  0  0  0  0  0  0  0  0  0  0
   -3.2241   -1.0819   -0.7858 H   0  0  0  0  0  0  0  0  0  0  0  0
   -2.3099   -0.3135   -2.1896 H   0  0  0  0  0  0  0  0  0  0  0  0
   -0.6007   -1.6850   -1.3571 H   0  0  0  0  0  0  0  0  0  0  0  0
  1  2  2  0
  2  3  1  0
  2  4  1  0
  4  5  2  0
  4  6  1  0
  6  7  1  0
  7  8  1  0
  8  9  1  0
  9 10  1  0
 10 11  1  0
 11 12  1  0
 12 13  1  0
 12  7  1  0
  3 14  1  0
  6 15  1  0
  7 16  1  6
  8 17  1  0
  8 18  1  0
  9 19  1  0
  9 20  1  0
 10 21  1  0
 11 22  1  0
 11 23  1  0
 12 24  1  6
M  END
$$$$

     RDKit          3D

 24 24  0  0  0  0  0  0  0  0999 V2000
    3.7236   -1.7039    0.9684 O   0  0  0  0  0  0  0  0  0  0  0  0
    3.6550   -0.5621    0.4782 C   0  0  0  0  0  0  0  0  0  0  0  0
    4.8269    0.1479    0.2803 O   0  0  0  0  0  0  0  0  0  0  0  0
    2.3923    0.0298    0.1162 C   0  0  0  0  0  0  0  0  0  0  0  0
    2.3387    1.2002   -0.3847 O   0  0  0  0  0  0  0  0  0  0  0  0
    1.1371   -0.6121    0.2778 N   0  0  0  0  0  0  0  0  0  0  0  0
   -0.1249   -0.0769   -0.0601 C   0  0  2  0  0  0  0  0  0  0  0  0
   -1.0885    0.0827    1.0783 C   0  0  0  0  0  0  0  0  0  0  0  0
   -2.1832    1.0050    0.5819 C   0  0  0  0  0  0  0  0  0  0  0  0
   -2.8072    0.5646   -0.6153 N   0  0  0  0  0  0  0  0  0  0  0  0
   -1.9634    0.0427   -1.6232 C   0  0  0  0  0  0  0  0  0  0  0  0
   -0.8584   -0.8445   -1.1424 C   0  0  2  0  0  0  0  0  0  0  0  0
   -1.3427   -2.0318   -0.6417 F   0  0  0  0  0  0  0  0  0  0  0  0
    5.6484    0.0162    0.8524 H   0  0  0  0  0  0  0  0  0  0  0  0
    1.1605   -1.5858    0.6926 H   0  0  0  0  0  0  0  0  0  0  0  0
    0.0397    0.9562   -0.4835 H   0  0  0  0  0  0  0  0  0  0  0  0
   -0.6602    0.5377    1.9744 H   0  0  0  0  0  0  0  0  0  0  0  0
   -1.5836   -0.9026    1.2921 H   0  0  0  0  0  0  0  0  0  0  0  0
   -2.9910    1.1227    1.3601 H   0  0  0  0  0  0  0  0  0  0  0  0
   -1.7179    2.0072    0.4674 H   0  0  0  0  0  0  0  0  0  0  0  0
   -3.3524    1.3631   -1.0134 H   0  0  0  0  0  0  0  0  0  0  0  0
   -1.4971    0.8283   -2.2816 H   0  0  0  0  0  0  0  0  0  0  0  0
   -2.6020   -0.5845   -2.3127 H   0  0  0  0  0  0  0  0  0  0  0  0
   -0.1498   -1.0002   -1.9848 H   0  0  0  0  0  0  0  0  0  0  0  0
  1  2  2  0
  2  3  1  0
  2  4  1  0
  4  5  2  0
  4  6  1  0
  6  7  1  0
  7  8  1  0
  8  9  1  0
  9 10  1  0
 10 11  1  0
 11 12  1  0
 12 13  1  0
 12  7  1  0
  3 14  1  0
  6 15  1  0
  7 16  1  6
  8 17  1  0
  8 18  1  0
  9 19  1  0
  9 20  1  0
 10 21  1  0
 11 22  1  0
 11 23  1  0
 12 24  1  6
M  END
$$$$

     RDKit          3D

 24 24  0  0  0  0  0  0  0  0999 V2000
    3.7126   -1.2808    0.3974 O   0  0  0  0  0  0  0  0  0  0  0  0
    3.6459   -0.1802   -0.2013 C   0  0  0  0  0  0  0  0  0  0  0  0
    4.8178    0.4246   -0.6174 O   0  0  0  0  0  0  0  0  0  0  0  0
    2.3249    0.3945   -0.4212 C   0  0  0  0  0  0  0  0  0  0  0  0
    2.2644    1.4939   -1.0198 O   0  0  0  0  0  0  0  0  0  0  0  0
    1.1437   -0.2321    0.0077 N   0  0  0  0  0  0  0  0  0  0  0  0
   -0.1938    0.3407   -0.2100 C   0  0  2  0  0  0  0  0  0  0  0  0
   -0.7611    0.6804    1.1135 C   0  0  0  0  0  0  0  0  0  0  0  0
   -2.1096    0.0882    1.3984 C   0  0  0  0  0  0  0  0  0  0  0  0
   -2.9272    0.2966    0.2041 N   0  0  0  0  0  0  0  0  0  0  0  0
   -2.4359   -0.6671   -0.7629 C   0  0  0  0  0  0  0  0  0  0  0  0
   -0.9990   -0.5287   -1.0869 C   0  0  2  0  0  0  0  0  0  0  0  0
   -0.4329   -1.8120   -1.0559 F   0  0  0  0  0  0  0  0  0  0  0  0
    5.7269    0.2161   -0.1782 H   0  0  0  0  0  0  0  0  0  0  0  0
    1.2435   -1.1554    0.5069 H   0  0  0  0  0  0  0  0  0  0  0  0
   -0.0165    1.3146   -0.7568 H   0  0  0  0  0  0  0  0  0  0  0  0
   -0.0916    0.3589    1.9661 H   0  0  0  0  0  0  0  0  0  0  0  0
   -0.8653    1.7944    1.2746 H   0  0  0  0  0  0  0  0  0  0  0  0
   -2.5764    0.6690    2.2126 H   0  0  0  0  0  0  0  0  0  0  0  0
   -1.9937   -0.9882    1.6264 H   0  0  0  0  0  0  0  0  0  0  0  0
   -2.7754    1.2461   -0.1705 H   0  0  0  0  0  0  0  0  0  0  0  0
   -2.6922   -1.7011   -0.3856 H   0  0  0  0  0  0  0  0  0  0  0  0
   -3.0912   -0.5462   -1.6682 H   0  0  0  0  0  0  0  0  0  0  0  0
   -0.9179   -0.2261   -2.1730 H   0  0  0  0  0  0  0  0  0  0  0  0
  1  2  2  0
  2  3  1  0
  2  4  1  0
  4  5  2  0
  4  6  1  0
  6  7  1  0
  7  8  1  0
  8  9  1  0
  9 10  1  0
 10 11  1  0
 11 12  1  0
 12 13  1  0
 12  7  1  0
  3 14  1  0
  6 15  1  0
  7 16  1  6
  8 17  1  0
  8 18  1  0
  9 19  1  0
  9 20  1  0
 10 21  1  0
 11 22  1  0
 11 23  1  0
 12 24  1  6
M  END
$$$$

     RDKit          3D

 24 24  0  0  0  0  0  0  0  0999 V2000
    3.7402    0.7105   -1.4190 O   0  0  0  0  0  0  0  0  0  0  0  0
    3.7056    0.2687   -0.2363 C   0  0  0  0  0  0  0  0  0  0  0  0
    4.8573    0.0658    0.4880 O   0  0  0  0  0  0  0  0  0  0  0  0
    2.4060   -0.0308    0.3678 C   0  0  0  0  0  0  0  0  0  0  0  0
    2.3401   -0.4713    1.5422 O   0  0  0  0  0  0  0  0  0  0  0  0
    1.1891    0.1617   -0.3385 N   0  0  0  0  0  0  0  0  0  0  0  0
   -0.1168   -0.1299    0.2432 C   0  0  2  0  0  0  0  0  0  0  0  0
   -0.7430   -1.2124   -0.5572 C   0  0  0  0  0  0  0  0  0  0  0  0
   -2.2206   -1.3175   -0.4484 C   0  0  0  0  0  0  0  0  0  0  0  0
   -2.8143   -0.2450    0.2955 N   0  0  0  0  0  0  0  0  0  0  0  0
   -2.3111    1.0367   -0.1309 C   0  0  0  0  0  0  0  0  0  0  0  0
   -0.8851    1.1496    0.2872 C   0  0  2  0  0  0  0  0  0  0  0  0
   -0.2873    2.1323   -0.5104 F   0  0  0  0  0  0  0  0  0  0  0  0
    5.7205    0.5523    0.2395 H   0  0  0  0  0  0  0  0  0  0  0  0
    1.2773    0.5334   -1.3245 H   0  0  0  0  0  0  0  0  0  0  0  0
    0.0789   -0.5023    1.2744 H   0  0  0  0  0  0  0  0  0  0  0  0
   -0.3869   -1.1241   -1.6128 H   0  0  0  0  0  0  0  0  0  0  0  0
   -0.3108   -2.1922   -0.1977 H   0  0  0  0  0  0  0  0  0  0  0  0
   -2.5557   -2.2754    0.0365 H   0  0  0  0  0  0  0  0  0  0  0  0
   -2.6528   -1.3758   -1.4905 H   0  0  0  0  0  0  0  0  0  0  0  0
   -3.8342   -0.3210    0.3241 H   0  0  0  0  0  0  0  0  0  0  0  0
   -2.9190    1.8248    0.3859 H   0  0  0  0  0  0  0  0  0  0  0  0
   -2.4152    1.1901   -1.2272 H   0  0  0  0  0  0  0  0  0  0  0  0
   -0.8625    1.5719    1.3299 H   0  0  0  0  0  0  0  0  0  0  0  0
  1  2  2  0
  2  3  1  0
  2  4  1  0
  4  5  2  0
  4  6  1  0
  6  7  1  0
  7  8  1  0
  8  9  1  0
  9 10  1  0
 10 11  1  0
 11 12  1  0
 12 13  1  0
 12  7  1  0
  3 14  1  0
  6 15  1  0
  7 16  1  1
  8 17  1  0
  8 18  1  0
  9 19  1  0
  9 20  1  0
 10 21  1  0
 11 22  1  0
 11 23  1  0
 12 24  1  1
M  END
$$$$
