
     RDKit          3D

 24 24  0  0  0  0  0  0  0  0999 V2000
   -3.3408   -1.5408   -1.0741 C   0  0  0  0  0  0  0  0  0  0  0  0
   -2.3633   -0.6754   -1.5009 O   0  0  0  0  0  0  0  0  0  0  0  0
   -1.6000   -0.1296   -0.5060 C   0  0  2  0  0  0  0  0  0  0  0  0
   -1.7897    1.3394   -0.5118 C   0  0  0  0  0  0  0  0  0  0  0  0
   -2.5576    1.8673   -1.3511 O   0  0  0  0  0  0  0  0  0  0  0  0
   -1.1501    2.1860    0.3810 O   0  0  0  0  0  0  0  0  0  0  0  0
   -0.1517   -0.4291   -0.6465 C   0  0  0  0  0  0  0  0  0  0  0  0
    0.3202   -1.1151   -1.5894 O   0  0  0  0  0  0  0  0  0  0  0  0
    0.7672    0.0705    0.3160 N   0  0  0  0  0  0  0  0  0  0  0  0
    2.1907   -0.2000    0.2144 C   0  0  0  0  0  0  0  0  0  0  0  0
    3.0727    1.0191    0.3906 C   0  0  0  0  0  0  0  0  0  0  0  0
    3.7663    0.2921    1.3808 O   0  0  0  0  0  0  0  0  0  0  0  0
    2.7737   -0.6751    1.5290 C   0  0  0  0  0  0  0  0  0  0  0  0
   -4.0819   -1.0742   -0.3858 H   0  0  0  0  0  0  0  0  0  0  0  0
   -2.9598   -2.4587   -0.5866 H   0  0  0  0  0  0  0  0  0  0  0  0
   -3.9440   -1.8176   -1.9884 H   0  0  0  0  0  0  0  0  0  0  0  0
   -1.8944   -0.4774    0.5137 H   0  0  0  0  0  0  0  0  0  0  0  0
   -1.6151    3.0213    0.7613 H   0  0  0  0  0  0  0  0  0  0  0  0
    0.4424    0.6484    1.1268 H   0  0  0  0  0  0  0  0  0  0  0  0
    2.4772   -0.8104   -0.6537 H   0  0  0  0  0  0  0  0  0  0  0  0
    2.5841    1.9233    0.7573 H   0  0  0  0  0  0  0  0  0  0  0  0
    3.7714    1.1954   -0.4702 H   0  0  0  0  0  0  0  0  0  0  0  0
    2.1183   -0.4396    2.3902 H   0  0  0  0  0  0  0  0  0  0  0  0
    3.1641   -1.7196    1.5037 H   0  0  0  0  0  0  0  0  0  0  0  0
  1  2  1  0
  2  3  1  0
  3  4  1  0
  4  5  2  0
  4  6  1  0
  3  7  1  0
  7  8  2  0
  7  9  1  0
  9 10  1  0
 10 11  1  0
 11 12  1  0
 12 13  1  0
 13 10  1  0
  1 14  1  0
  1 15  1  0
  1 16  1  0
  3 17  1  1
  6 18  1  0
  9 19  1  0
 10 20  1  0
 11 21  1  0
 11 22  1  0
 13 23  1  0
 13 24  1  0
M  END
$$$$

     RDKit          3D

 24 24  0  0  0  0  0  0  0  0999 V2000
    2.1520    1.8330    1.1363 C   0  0  0  0  0  0  0  0  0  0  0  0
    1.7892    0.9995    0.0830 O   0  0  0  0  0  0  0  0  0  0  0  0
    1.7106   -0.3217    0.4386 C   0  0  2  0  0  0  0  0  0  0  0  0
    2.6837   -1.1793   -0.2732 C   0  0  0  0  0  0  0  0  0  0  0  0
    3.4664   -0.6583   -1.1053 O   0  0  0  0  0  0  0  0  0  0  0  0
    2.7784   -2.5453   -0.0675 O   0  0  0  0  0  0  0  0  0  0  0  0
    0.3242   -0.8513    0.3267 C   0  0  0  0  0  0  0  0  0  0  0  0
    0.0424   -2.0227    0.6021 O   0  0  0  0  0  0  0  0  0  0  0  0
   -0.7225   -0.0073   -0.1064 N   0  0  0  0  0  0  0  0  0  0  0  0
   -2.0770   -0.3720   -0.2586 C   0  0  0  0  0  0  0  0  0  0  0  0
   -3.0927    0.5153    0.4649 C   0  0  0  0  0  0  0  0  0  0  0  0
   -3.9887    0.1478   -0.5432 O   0  0  0  0  0  0  0  0  0  0  0  0
   -2.8711    0.0990   -1.4027 C   0  0  0  0  0  0  0  0  0  0  0  0
    1.4652    1.8143    1.9824 H   0  0  0  0  0  0  0  0  0  0  0  0
    2.3045    2.8730    0.8116 H   0  0  0  0  0  0  0  0  0  0  0  0
    3.1484    1.4472    1.5007 H   0  0  0  0  0  0  0  0  0  0  0  0
    1.9705   -0.3880    1.5328 H   0  0  0  0  0  0  0  0  0  0  0  0
    3.5852   -3.0980   -0.3674 H   0  0  0  0  0  0  0  0  0  0  0  0
   -0.4638    0.9897   -0.3373 H   0  0  0  0  0  0  0  0  0  0  0  0
   -2.2762   -1.4161   -0.0034 H   0  0  0  0  0  0  0  0  0  0  0  0
   -2.8160    1.5632    0.3709 H   0  0  0  0  0  0  0  0  0  0  0  0
   -3.3512    0.1395    1.4718 H   0  0  0  0  0  0  0  0  0  0  0  0
   -2.7097    1.0937   -1.8050 H   0  0  0  0  0  0  0  0  0  0  0  0
   -3.0517   -0.6552   -2.2052 H   0  0  0  0  0  0  0  0  0  0  0  0
  1  2  1  0
  2  3  1  0
  3  4  1  0
  4  5  2  0
  4  6  1  0
  3  7  1  0
  7  8  2  0
  7  9  1  0
  9 10  1  0
 10 11  1  0
 11 12  1  0
 12 13  1  0
 13 10  1  0
  1 14  1  0
  1 15  1  0
  1 16  1  0
  3 17  1  1
  6 18  1  0
  9 19  1  0
 10 20  1  0
 11 21  1  0
 11 22  1  0
 13 23  1  0
 13 24  1  0
M  END
$$$$

     RDKit          3D

 24 24  0  0  0  0  0  0  0  0999 V2000
    3.5276   -1.4561   -0.1703 C   0  0  0  0  0  0  0  0  0  0  0  0
    2.6431   -0.7273    0.6265 O   0  0  0  0  0  0  0  0  0  0  0  0
    1.6952   -0.0611   -0.1467 C   0  0  2  0  0  0  0  0  0  0  0  0
    1.9114    1.4012    0.0739 C   0  0  0  0  0  0  0  0  0  0  0  0
    2.7960    1.8539    0.8248 O   0  0  0  0  0  0  0  0  0  0  0  0
    1.0728    2.2945   -0.6019 O   0  0  0  0  0  0  0  0  0  0  0  0
    0.3291   -0.4386    0.3192 C   0  0  0  0  0  0  0  0  0  0  0  0
    0.1848   -1.2370    1.2646 O   0  0  0  0  0  0  0  0  0  0  0  0
   -0.8183    0.1027   -0.3037 N   0  0  0  0  0  0  0  0  0  0  0  0
   -2.1252   -0.2862    0.1748 C   0  0  0  0  0  0  0  0  0  0  0  0
   -3.0129   -0.7266   -0.9695 C   0  0  0  0  0  0  0  0  0  0  0  0
   -4.0363    0.0859   -0.5000 O   0  0  0  0  0  0  0  0  0  0  0  0
   -3.1300    0.8179    0.2969 C   0  0  0  0  0  0  0  0  0  0  0  0
    4.2593   -1.9679    0.4615 H   0  0  0  0  0  0  0  0  0  0  0  0
    2.9819   -2.1805   -0.7960 H   0  0  0  0  0  0  0  0  0  0  0  0
    4.0508   -0.7699   -0.8871 H   0  0  0  0  0  0  0  0  0  0  0  0
    1.8244   -0.2361   -1.2340 H   0  0  0  0  0  0  0  0  0  0  0  0
    0.9834    3.2622   -0.2860 H   0  0  0  0  0  0  0  0  0  0  0  0
   -0.7275    0.7607   -1.0824 H   0  0  0  0  0  0  0  0  0  0  0  0
   -2.0946   -1.0047    1.0238 H   0  0  0  0  0  0  0  0  0  0  0  0
   -2.6552   -0.3821   -1.9444 H   0  0  0  0  0  0  0  0  0  0  0  0
   -3.2172   -1.8185   -0.9251 H   0  0  0  0  0  0  0  0  0  0  0  0
   -3.5931    0.9316    1.3113 H   0  0  0  0  0  0  0  0  0  0  0  0
   -2.8494    1.7819   -0.1595 H   0  0  0  0  0  0  0  0  0  0  0  0
  1  2  1  0
  2  3  1  0
  3  4  1  0
  4  5  2  0
  4  6  1  0
  3  7  1  0
  7  8  2  0
  7  9  1  0
  9 10  1  0
 10 11  1  0
 11 12  1  0
 12 13  1  0
 13 10  1  0
  1 14  1  0
  1 15  1  0
  1 16  1  0
  3 17  1  6
  6 18  1  0
  9 19  1  0
 10 20  1  0
 11 21  1  0
 11 22  1  0
 13 23  1  0
 13 24  1  0
M  END
$$$$

     RDKit          3D

 24 24  0  0  0  0  0  0  0  0999 V2000
    3.5315    0.3481   -0.9582 C   0  0  0  0  0  0  0  0  0  0  0  0
    2.6207   -0.6111   -0.5323 O   0  0  0  0  0  0  0  0  0  0  0  0
    1.6266   -0.1027    0.2666 C   0  0  2  0  0  0  0  0  0  0  0  0
    1.6173   -0.6998    1.6270 C   0  0  0  0  0  0  0  0  0  0  0  0
    0.7674   -0.3395    2.4792 O   0  0  0  0  0  0  0  0  0  0  0  0
    2.5325   -1.6691    2.0159 O   0  0  0  0  0  0  0  0  0  0  0  0
    0.3372   -0.2760   -0.4405 C   0  0  0  0  0  0  0  0  0  0  0  0
    0.2635   -0.8158   -1.5849 O   0  0  0  0  0  0  0  0  0  0  0  0
   -0.8880    0.1573    0.1337 N   0  0  0  0  0  0  0  0  0  0  0  0
   -2.1527   -0.0093   -0.5524 C   0  0  0  0  0  0  0  0  0  0  0  0
   -3.0418    1.2158   -0.4319 C   0  0  0  0  0  0  0  0  0  0  0  0
   -3.2716    0.8155    0.9056 O   0  0  0  0  0  0  0  0  0  0  0  0
   -3.2011   -0.5081    0.4136 C   0  0  0  0  0  0  0  0  0  0  0  0
    4.0548    0.8538   -0.1358 H   0  0  0  0  0  0  0  0  0  0  0  0
    4.2088   -0.1107   -1.6887 H   0  0  0  0  0  0  0  0  0  0  0  0
    2.9539    1.1292   -1.5002 H   0  0  0  0  0  0  0  0  0  0  0  0
    1.8082    0.9901    0.3752 H   0  0  0  0  0  0  0  0  0  0  0  0
    2.7120   -1.7881    2.9975 H   0  0  0  0  0  0  0  0  0  0  0  0
   -0.8426    0.6031    1.0741 H   0  0  0  0  0  0  0  0  0  0  0  0
   -2.1111   -0.4834   -1.5281 H   0  0  0  0  0  0  0  0  0  0  0  0
   -2.5163    2.1789   -0.5247 H   0  0  0  0  0  0  0  0  0  0  0  0
   -3.9776    1.0957   -0.9951 H   0  0  0  0  0  0  0  0  0  0  0  0
   -2.8656   -1.2464    1.1552 H   0  0  0  0  0  0  0  0  0  0  0  0
   -4.1659   -0.7274   -0.0896 H   0  0  0  0  0  0  0  0  0  0  0  0
  1  2  1  0
  2  3  1  0
  3  4  1  0
  4  5  2  0
  4  6  1  0
  3  7  1  0
  7  8  2  0
  7  9  1  0
  9 10  1  0
 10 11  1  0
 11 12  1  0
 12 13  1  0
 13 10  1  0
  1 14  1  0
  1 15  1  0
  1 16  1  0
  3 17  1  1
  6 18  1  0
  9 19  1  0
 10 20  1  0
 11 21  1  0
 11 22  1  0
 13 23  1  0
 13 24  1  0
M  END
$$$$

     RDKit          3D

 24 24  0  0  0  0  0  0  0  0999 V2000
    2.6768   -1.1423    1.0893 C   0  0  0  0  0  0  0  0  0  0  0  0
    2.0536   -0.0606    0.4809 O   0  0  0  0  0  0  0  0  0  0  0  0
    1.5507   -0.3552   -0.7714 C   0  0  2  0  0  0  0  0  0  0  0  0
    2.2388    0.4053   -1.8267 C   0  0  0  0  0  0  0  0  0  0  0  0
    1.9050    0.2556   -3.0140 O   0  0  0  0  0  0  0  0  0  0  0  0
    3.2454    1.2746   -1.4864 O   0  0  0  0  0  0  0  0  0  0  0  0
    0.0765   -0.2416   -0.8459 C   0  0  0  0  0  0  0  0  0  0  0  0
   -0.4619   -0.4940   -1.9551 O   0  0  0  0  0  0  0  0  0  0  0  0
   -0.7552    0.1260    0.2297 N   0  0  0  0  0  0  0  0  0  0  0  0
   -2.1877    0.2014    0.0289 C   0  0  0  0  0  0  0  0  0  0  0  0
   -3.0194   -0.5022    1.0744 C   0  0  0  0  0  0  0  0  0  0  0  0
   -3.9780    0.5234    0.9035 O   0  0  0  0  0  0  0  0  0  0  0  0
   -2.8806    1.3741    0.6338 C   0  0  0  0  0  0  0  0  0  0  0  0
    3.0359   -0.7790    2.0834 H   0  0  0  0  0  0  0  0  0  0  0  0
    1.9616   -1.9617    1.3172 H   0  0  0  0  0  0  0  0  0  0  0  0
    3.5782   -1.4898    0.5467 H   0  0  0  0  0  0  0  0  0  0  0  0
    1.7988   -1.4423   -0.9576 H   0  0  0  0  0  0  0  0  0  0  0  0
    3.6110    1.9905   -2.1214 H   0  0  0  0  0  0  0  0  0  0  0  0
   -0.2979    0.3317    1.1400 H   0  0  0  0  0  0  0  0  0  0  0  0
   -2.5409   -0.0381   -0.9711 H   0  0  0  0  0  0  0  0  0  0  0  0
   -2.6101   -0.4198    2.0998 H   0  0  0  0  0  0  0  0  0  0  0  0
   -3.3664   -1.5035    0.7654 H   0  0  0  0  0  0  0  0  0  0  0  0
   -3.1447    2.2089   -0.0361 H   0  0  0  0  0  0  0  0  0  0  0  0
   -2.4894    1.7387    1.5927 H   0  0  0  0  0  0  0  0  0  0  0  0
  1  2  1  0
  2  3  1  0
  3  4  1  0
  4  5  2  0
  4  6  1  0
  3  7  1  0
  7  8  2  0
  7  9  1  0
  9 10  1  0
 10 11  1  0
 11 12  1  0
 12 13  1  0
 13 10  1  0
  1 14  1  0
  1 15  1  0
  1 16  1  0
  3 17  1  6
  6 18  1  0
  9 19  1  0
 10 20  1  0
 11 21  1  0
 11 22  1  0
 13 23  1  0
 13 24  1  0
M  END
$$$$

     RDKit          3D

 24 24  0  0  0  0  0  0  0  0999 V2000
    2.6214   -1.1718    1.1107 C   0  0  0  0  0  0  0  0  0  0  0  0
    1.9602   -0.0288    0.6764 O   0  0  0  0  0  0  0  0  0  0  0  0
    1.6388   -0.0842   -0.6725 C   0  0  2  0  0  0  0  0  0  0  0  0
    2.3714    0.9642   -1.3778 C   0  0  0  0  0  0  0  0  0  0  0  0
    2.2050    1.0688   -2.6219 O   0  0  0  0  0  0  0  0  0  0  0  0
    3.2476    1.8724   -0.8045 O   0  0  0  0  0  0  0  0  0  0  0  0
    0.1821   -0.0730   -0.9119 C   0  0  0  0  0  0  0  0  0  0  0  0
   -0.1892   -0.1214   -2.1175 O   0  0  0  0  0  0  0  0  0  0  0  0
   -0.8065   -0.0139    0.0786 N   0  0  0  0  0  0  0  0  0  0  0  0
   -2.2092   -0.0019   -0.1232 C   0  0  0  0  0  0  0  0  0  0  0  0
   -2.9969    1.0817    0.5687 C   0  0  0  0  0  0  0  0  0  0  0  0
   -4.0692    0.1738    0.5969 O   0  0  0  0  0  0  0  0  0  0  0  0
   -3.0915   -0.8379    0.7137 C   0  0  0  0  0  0  0  0  0  0  0  0
    2.8312   -1.0263    2.1952 H   0  0  0  0  0  0  0  0  0  0  0  0
    1.8660   -2.0061    1.0494 H   0  0  0  0  0  0  0  0  0  0  0  0
    3.5406   -1.3872    0.5570 H   0  0  0  0  0  0  0  0  0  0  0  0
    2.0149   -1.0694   -1.0494 H   0  0  0  0  0  0  0  0  0  0  0  0
    3.9800    2.2541   -1.3747 H   0  0  0  0  0  0  0  0  0  0  0  0
   -0.4849    0.0264    1.0881 H   0  0  0  0  0  0  0  0  0  0  0  0
   -2.4992   -0.0452   -1.1895 H   0  0  0  0  0  0  0  0  0  0  0  0
   -3.1769    1.9838   -0.0341 H   0  0  0  0  0  0  0  0  0  0  0  0
   -2.6450    1.2359    1.6042 H   0  0  0  0  0  0  0  0  0  0  0  0
   -3.4281   -1.8154    0.2736 H   0  0  0  0  0  0  0  0  0  0  0  0
   -2.8625   -0.9784    1.7646 H   0  0  0  0  0  0  0  0  0  0  0  0
  1  2  1  0
  2  3  1  0
  3  4  1  0
  4  5  2  0
  4  6  1  0
  3  7  1  0
  7  8  2  0
  7  9  1  0
  9 10  1  0
 10 11  1  0
 11 12  1  0
 12 13  1  0
 13 10  1  0
  1 14  1  0
  1 15  1  0
  1 16  1  0
  3 17  1  6
  6 18  1  0
  9 19  1  0
 10 20  1  0
 11 21  1  0
 11 22  1  0
 13 23  1  0
 13 24  1  0
M  END
$$$$

     RDKit          3D

 24 24  0  0  0  0  0  0  0  0999 V2000
    3.1837    1.0006   -1.7531 C   0  0  0  0  0  0  0  0  0  0  0  0
    2.6049   -0.1274   -1.1973 O   0  0  0  0  0  0  0  0  0  0  0  0
    1.6827    0.1910   -0.2069 C   0  0  2  0  0  0  0  0  0  0  0  0
    2.0796   -0.4618    1.0659 C   0  0  0  0  0  0  0  0  0  0  0  0
    3.1163   -1.1711    1.1103 O   0  0  0  0  0  0  0  0  0  0  0  0
    1.3488   -0.3265    2.2367 O   0  0  0  0  0  0  0  0  0  0  0  0
    0.3147   -0.2677   -0.6180 C   0  0  0  0  0  0  0  0  0  0  0  0
    0.1046   -0.8446   -1.7033 O   0  0  0  0  0  0  0  0  0  0  0  0
   -0.7636   -0.0397    0.2480 N   0  0  0  0  0  0  0  0  0  0  0  0
   -2.1264   -0.4213   -0.0093 C   0  0  0  0  0  0  0  0  0  0  0  0
   -2.8073   -1.0690    1.1799 C   0  0  0  0  0  0  0  0  0  0  0  0
   -3.9928   -0.4300    0.7524 O   0  0  0  0  0  0  0  0  0  0  0  0
   -3.1721    0.6138    0.3112 C   0  0  0  0  0  0  0  0  0  0  0  0
    2.4404    1.6600   -2.2151 H   0  0  0  0  0  0  0  0  0  0  0  0
    3.8742    0.6446   -2.5554 H   0  0  0  0  0  0  0  0  0  0  0  0
    3.7876    1.5677   -1.0346 H   0  0  0  0  0  0  0  0  0  0  0  0
    1.6425    1.3012   -0.1097 H   0  0  0  0  0  0  0  0  0  0  0  0
    1.4473   -1.0063    3.0036 H   0  0  0  0  0  0  0  0  0  0  0  0
   -0.5775    0.4488    1.1639 H   0  0  0  0  0  0  0  0  0  0  0  0
   -2.3327   -0.9255   -0.9489 H   0  0  0  0  0  0  0  0  0  0  0  0
   -2.4951   -0.5938    2.1353 H   0  0  0  0  0  0  0  0  0  0  0  0
   -2.8416   -2.1575    1.1625 H   0  0  0  0  0  0  0  0  0  0  0  0
   -2.9404    1.2703    1.1659 H   0  0  0  0  0  0  0  0  0  0  0  0
   -3.5780    1.1441   -0.5838 H   0  0  0  0  0  0  0  0  0  0  0  0
  1  2  1  0
  2  3  1  0
  3  4  1  0
  4  5  2  0
  4  6  1  0
  3  7  1  0
  7  8  2  0
  7  9  1  0
  9 10  1  0
 10 11  1  0
 11 12  1  0
 12 13  1  0
 13 10  1  0
  1 14  1  0
  1 15  1  0
  1 16  1  0
  3 17  1  1
  6 18  1  0
  9 19  1  0
 10 20  1  0
 11 21  1  0
 11 22  1  0
 13 23  1  0
 13 24  1  0
M  END
$$$$

     RDKit          3D

 24 24  0  0  0  0  0  0  0  0999 V2000
    3.4749   -1.4689   -0.0935 C   0  0  0  0  0  0  0  0  0  0  0  0
    2.6728   -0.7807    0.8186 O   0  0  0  0  0  0  0  0  0  0  0  0
    1.7174   -0.0362    0.1209 C   0  0  2  0  0  0  0  0  0  0  0  0
    1.8933    1.3839    0.4288 C   0  0  0  0  0  0  0  0  0  0  0  0
    2.8033    1.7376    1.2157 O   0  0  0  0  0  0  0  0  0  0  0  0
    1.0950    2.3820   -0.1107 O   0  0  0  0  0  0  0  0  0  0  0  0
    0.3641   -0.5395    0.4611 C   0  0  0  0  0  0  0  0  0  0  0  0
    0.2730   -1.4938    1.2688 O   0  0  0  0  0  0  0  0  0  0  0  0
   -0.8122    0.0060   -0.0814 N   0  0  0  0  0  0  0  0  0  0  0  0
   -2.1445   -0.4399    0.2112 C   0  0  0  0  0  0  0  0  0  0  0  0
   -3.1247   -0.4890   -0.9041 C   0  0  0  0  0  0  0  0  0  0  0  0
   -3.9034    0.5352   -0.3653 O   0  0  0  0  0  0  0  0  0  0  0  0
   -3.0030    0.7176    0.6703 C   0  0  0  0  0  0  0  0  0  0  0  0
    3.9716   -0.7296   -0.7470 H   0  0  0  0  0  0  0  0  0  0  0  0
    4.1851   -2.0734    0.5089 H   0  0  0  0  0  0  0  0  0  0  0  0
    2.8231   -2.1014   -0.7446 H   0  0  0  0  0  0  0  0  0  0  0  0
    1.8438   -0.1853   -0.9896 H   0  0  0  0  0  0  0  0  0  0  0  0
    1.3204    3.3747    0.0378 H   0  0  0  0  0  0  0  0  0  0  0  0
   -0.7177    0.8004   -0.7524 H   0  0  0  0  0  0  0  0  0  0  0  0
   -2.2179   -1.2834    0.9255 H   0  0  0  0  0  0  0  0  0  0  0  0
   -2.7866   -0.2137   -1.9046 H   0  0  0  0  0  0  0  0  0  0  0  0
   -3.7208   -1.4373   -0.8692 H   0  0  0  0  0  0  0  0  0  0  0  0
   -2.5166    1.7221    0.5593 H   0  0  0  0  0  0  0  0  0  0  0  0
   -3.4903    0.6125    1.6395 H   0  0  0  0  0  0  0  0  0  0  0  0
  1  2  1  0
  2  3  1  0
  3  4  1  0
  4  5  2  0
  4  6  1  0
  3  7  1  0
  7  8  2  0
  7  9  1  0
  9 10  1  0
 10 11  1  0
 11 12  1  0
 12 13  1  0
 13 10  1  0
  1 14  1  0
  1 15  1  0
  1 16  1  0
  3 17  1  6
  6 18  1  0
  9 19  1  0
 10 20  1  0
 11 21  1  0
 11 22  1  0
 13 23  1  0
 13 24  1  0
M  END
$$$$
