
     RDKit          3D

 25 24  0  0  0  0  0  0  0  0999 V2000
   -3.3400    1.0379    2.2956 O   0  0  0  0  0  0  0  0  0  0  0  0
   -2.9394    0.7592    1.1296 C   0  0  0  0  0  0  0  0  0  0  0  0
   -3.5896    1.3650    0.0781 O   0  0  0  0  0  0  0  0  0  0  0  0
   -1.8105   -0.1870    0.9303 C   0  0  0  0  0  0  0  0  0  0  0  0
   -1.5764   -0.3071   -0.5594 C   0  0  2  0  0  0  0  0  0  0  0  0
   -2.7604   -0.7919   -1.1155 O   0  0  0  0  0  0  0  0  0  0  0  0
   -0.4752   -1.2906   -0.8818 C   0  0  0  0  0  0  0  0  0  0  0  0
    0.8004   -0.8943   -0.3563 N   0  0  0  0  0  0  0  0  0  0  0  0
    1.4673    0.3096   -0.6935 C   0  0  0  0  0  0  0  0  0  0  0  0
    0.8895    1.0721   -1.5100 O   0  0  0  0  0  0  0  0  0  0  0  0
    2.7839    0.6969   -0.1379 C   0  0  0  0  0  0  0  0  0  0  0  0
    3.2952   -0.3003    0.7825 N   0  0  0  0  0  0  0  0  0  0  0  0
    4.4825    0.0366    1.2911 O   0  0  0  0  0  0  0  0  0  0  0  0
   -4.5660    1.6336    0.0972 H   0  0  0  0  0  0  0  0  0  0  0  0
   -0.9290    0.2091    1.4703 H   0  0  0  0  0  0  0  0  0  0  0  0
   -2.1343   -1.1806    1.3055 H   0  0  0  0  0  0  0  0  0  0  0  0
   -1.3878    0.6850   -1.0041 H   0  0  0  0  0  0  0  0  0  0  0  0
   -2.9356   -0.3877   -2.0030 H   0  0  0  0  0  0  0  0  0  0  0  0
   -0.7700   -2.2668   -0.4466 H   0  0  0  0  0  0  0  0  0  0  0  0
   -0.4750   -1.4270   -1.9819 H   0  0  0  0  0  0  0  0  0  0  0  0
    1.3050   -1.5168    0.3300 H   0  0  0  0  0  0  0  0  0  0  0  0
    3.5575    0.8331   -0.9254 H   0  0  0  0  0  0  0  0  0  0  0  0
    2.6635    1.6580    0.3791 H   0  0  0  0  0  0  0  0  0  0  0  0
    3.3658   -1.1955    0.2213 H   0  0  0  0  0  0  0  0  0  0  0  0
    5.0787   -0.7750    1.3050 H   0  0  0  0  0  0  0  0  0  0  0  0
  1  2  2  0
  2  3  1  0
  2  4  1  0
  4  5  1  0
  5  6  1  0
  5  7  1  0
  7  8  1  0
  8  9  1  0
  9 10  2  0
  9 11  1  0
 11 12  1  0
 12 13  1  0
  3 14  1  0
  4 15  1  0
  4 16  1  0
  5 17  1  6
  6 18  1  0
  7 19  1  0
  7 20  1  0
  8 21  1  0
 11 22  1  0
 11 23  1  0
 12 24  1  0
 13 25  1  0
M  END
$$$$

     RDKit          3D

 25 24  0  0  0  0  0  0  0  0999 V2000
   -2.1410   -0.0123   -1.9896 O   0  0  0  0  0  0  0  0  0  0  0  0
   -3.0196   -0.5101   -1.2598 C   0  0  0  0  0  0  0  0  0  0  0  0
   -4.3731   -0.6430   -1.6525 O   0  0  0  0  0  0  0  0  0  0  0  0
   -2.6440   -1.0100    0.1146 C   0  0  0  0  0  0  0  0  0  0  0  0
   -1.1909   -0.7354    0.3903 C   0  0  2  0  0  0  0  0  0  0  0  0
   -0.8973   -1.2786    1.6741 O   0  0  0  0  0  0  0  0  0  0  0  0
   -0.8922    0.7661    0.5099 C   0  0  0  0  0  0  0  0  0  0  0  0
    0.4968    0.9543    0.8120 N   0  0  0  0  0  0  0  0  0  0  0  0
    1.5587    0.5832   -0.0674 C   0  0  0  0  0  0  0  0  0  0  0  0
    1.2610    0.1048   -1.1914 O   0  0  0  0  0  0  0  0  0  0  0  0
    2.9749    0.7593    0.3372 C   0  0  0  0  0  0  0  0  0  0  0  0
    3.9293    0.4059   -0.7209 N   0  0  0  0  0  0  0  0  0  0  0  0
    4.5516   -0.8194   -0.4054 O   0  0  0  0  0  0  0  0  0  0  0  0
   -4.7459    0.0787   -2.2955 H   0  0  0  0  0  0  0  0  0  0  0  0
   -2.8123   -2.1215    0.0693 H   0  0  0  0  0  0  0  0  0  0  0  0
   -3.2993   -0.5147    0.8413 H   0  0  0  0  0  0  0  0  0  0  0  0
   -0.5337   -1.2077   -0.3418 H   0  0  0  0  0  0  0  0  0  0  0  0
   -1.2495   -0.6711    2.3541 H   0  0  0  0  0  0  0  0  0  0  0  0
   -1.4741    1.1269    1.4080 H   0  0  0  0  0  0  0  0  0  0  0  0
   -1.2941    1.2912   -0.3441 H   0  0  0  0  0  0  0  0  0  0  0  0
    0.8262    1.3981    1.7313 H   0  0  0  0  0  0  0  0  0  0  0  0
    3.0964    1.8911    0.4510 H   0  0  0  0  0  0  0  0  0  0  0  0
    3.2239    0.3354    1.3095 H   0  0  0  0  0  0  0  0  0  0  0  0
    4.7940    1.1292   -0.5546 H   0  0  0  0  0  0  0  0  0  0  0  0
    3.8542   -1.3005    0.1250 H   0  0  0  0  0  0  0  0  0  0  0  0
  1  2  2  0
  2  3  1  0
  2  4  1  0
  4  5  1  0
  5  6  1  0
  5  7  1  0
  7  8  1  0
  8  9  1  0
  9 10  2  0
  9 11  1  0
 11 12  1  0
 12 13  1  0
  3 14  1  0
  4 15  1  0
  4 16  1  0
  5 17  1  6
  6 18  1  0
  7 19  1  0
  7 20  1  0
  8 21  1  0
 11 22  1  0
 11 23  1  0
 12 24  1  0
 13 25  1  0
M  END
$$$$

     RDKit          3D

 25 24  0  0  0  0  0  0  0  0999 V2000
   -3.3450    1.4029    0.7040 O   0  0  0  0  0  0  0  0  0  0  0  0
   -3.6600    0.2261    0.4101 C   0  0  0  0  0  0  0  0  0  0  0  0
   -4.9403   -0.2155    0.7974 O   0  0  0  0  0  0  0  0  0  0  0  0
   -2.7484   -0.6581   -0.3023 C   0  0  0  0  0  0  0  0  0  0  0  0
   -1.3822   -0.0719   -0.5616 C   0  0  2  0  0  0  0  0  0  0  0  0
   -0.6749   -1.0557   -1.2757 O   0  0  0  0  0  0  0  0  0  0  0  0
   -0.6955    0.1479    0.7527 C   0  0  0  0  0  0  0  0  0  0  0  0
    0.6562    0.6033    0.7004 N   0  0  0  0  0  0  0  0  0  0  0  0
    1.7708   -0.0727    0.1516 C   0  0  0  0  0  0  0  0  0  0  0  0
    1.6171   -1.2086   -0.3524 O   0  0  0  0  0  0  0  0  0  0  0  0
    3.1331    0.5454    0.1617 C   0  0  0  0  0  0  0  0  0  0  0  0
    4.1098   -0.3012   -0.4403 N   0  0  0  0  0  0  0  0  0  0  0  0
    5.3392    0.1877   -0.4616 O   0  0  0  0  0  0  0  0  0  0  0  0
   -5.6484    0.4521    1.0763 H   0  0  0  0  0  0  0  0  0  0  0  0
   -3.1722   -1.0584   -1.2518 H   0  0  0  0  0  0  0  0  0  0  0  0
   -2.5588   -1.5823    0.3149 H   0  0  0  0  0  0  0  0  0  0  0  0
   -1.4499    0.8595   -1.1633 H   0  0  0  0  0  0  0  0  0  0  0  0
   -1.0943   -1.9443   -1.1690 H   0  0  0  0  0  0  0  0  0  0  0  0
   -0.7839   -0.8055    1.3690 H   0  0  0  0  0  0  0  0  0  0  0  0
   -1.2661    0.8937    1.3606 H   0  0  0  0  0  0  0  0  0  0  0  0
    0.9105    1.5690    1.1129 H   0  0  0  0  0  0  0  0  0  0  0  0
    3.1363    1.5156   -0.3434 H   0  0  0  0  0  0  0  0  0  0  0  0
    3.4197    0.7238    1.2225 H   0  0  0  0  0  0  0  0  0  0  0  0
    4.0052   -1.3074   -0.3187 H   0  0  0  0  0  0  0  0  0  0  0  0
    5.3218    1.1547   -0.6649 H   0  0  0  0  0  0  0  0  0  0  0  0
  1  2  2  0
  2  3  1  0
  2  4  1  0
  4  5  1  0
  5  6  1  0
  5  7  1  0
  7  8  1  0
  8  9  1  0
  9 10  2  0
  9 11  1  0
 11 12  1  0
 12 13  1  0
  3 14  1  0
  4 15  1  0
  4 16  1  0
  5 17  1  6
  6 18  1  0
  7 19  1  0
  7 20  1  0
  8 21  1  0
 11 22  1  0
 11 23  1  0
 12 24  1  0
 13 25  1  0
M  END
$$$$

     RDKit          3D

 25 24  0  0  0  0  0  0  0  0999 V2000
    2.7973   -1.3099    1.2785 O   0  0  0  0  0  0  0  0  0  0  0  0
    3.3834   -0.3917    0.6683 C   0  0  0  0  0  0  0  0  0  0  0  0
    4.7064   -0.1245    0.9561 O   0  0  0  0  0  0  0  0  0  0  0  0
    2.7248    0.4361   -0.3612 C   0  0  0  0  0  0  0  0  0  0  0  0
    1.2860    0.1110   -0.6033 C   0  0  2  0  0  0  0  0  0  0  0  0
    0.8503    0.9909   -1.6123 O   0  0  0  0  0  0  0  0  0  0  0  0
    0.4766    0.4536    0.6446 C   0  0  0  0  0  0  0  0  0  0  0  0
   -0.9328    0.2865    0.4060 N   0  0  0  0  0  0  0  0  0  0  0  0
   -1.4554   -0.9682    0.0473 C   0  0  0  0  0  0  0  0  0  0  0  0
   -0.6987   -1.9897   -0.0739 O   0  0  0  0  0  0  0  0  0  0  0  0
   -2.9133   -1.1050   -0.1940 C   0  0  0  0  0  0  0  0  0  0  0  0
   -3.5409    0.1708   -0.0002 N   0  0  0  0  0  0  0  0  0  0  0  0
   -4.8727    0.0319   -0.2163 O   0  0  0  0  0  0  0  0  0  0  0  0
    5.1540   -0.3875    1.8291 H   0  0  0  0  0  0  0  0  0  0  0  0
    3.3279    0.4321   -1.3028 H   0  0  0  0  0  0  0  0  0  0  0  0
    2.8016    1.4998    0.0047 H   0  0  0  0  0  0  0  0  0  0  0  0
    1.1504   -0.9151   -0.9439 H   0  0  0  0  0  0  0  0  0  0  0  0
    0.6448    1.8716   -1.1854 H   0  0  0  0  0  0  0  0  0  0  0  0
    0.6614    1.5222    0.8993 H   0  0  0  0  0  0  0  0  0  0  0  0
    0.8215   -0.1432    1.5236 H   0  0  0  0  0  0  0  0  0  0  0  0
   -1.5672    1.1100    0.5031 H   0  0  0  0  0  0  0  0  0  0  0  0
   -3.3306   -1.8770    0.4773 H   0  0  0  0  0  0  0  0  0  0  0  0
   -3.0189   -1.4641   -1.2518 H   0  0  0  0  0  0  0  0  0  0  0  0
   -3.1687    0.8564   -0.7188 H   0  0  0  0  0  0  0  0  0  0  0  0
   -5.2872    0.9031   -0.3899 H   0  0  0  0  0  0  0  0  0  0  0  0
  1  2  2  0
  2  3  1  0
  2  4  1  0
  4  5  1  0
  5  6  1  0
  5  7  1  0
  7  8  1  0
  8  9  1  0
  9 10  2  0
  9 11  1  0
 11 12  1  0
 12 13  1  0
  3 14  1  0
  4 15  1  0
  4 16  1  0
  5 17  1  6
  6 18  1  0
  7 19  1  0
  7 20  1  0
  8 21  1  0
 11 22  1  0
 11 23  1  0
 12 24  1  0
 13 25  1  0
M  END
$$$$

     RDKit          3D

 25 24  0  0  0  0  0  0  0  0999 V2000
    4.0332   -0.6326   -0.2724 O   0  0  0  0  0  0  0  0  0  0  0  0
    3.2766   -0.3841    0.6884 C   0  0  0  0  0  0  0  0  0  0  0  0
    3.7614   -0.5214    1.9637 O   0  0  0  0  0  0  0  0  0  0  0  0
    1.8305    0.0558    0.4575 C   0  0  0  0  0  0  0  0  0  0  0  0
    1.5931    0.1410   -1.0352 C   0  0  2  0  0  0  0  0  0  0  0  0
    2.6290    1.0775   -1.4491 O   0  0  0  0  0  0  0  0  0  0  0  0
    0.3786    0.8336   -1.4817 C   0  0  0  0  0  0  0  0  0  0  0  0
   -0.9466    0.3565   -1.3344 N   0  0  0  0  0  0  0  0  0  0  0  0
   -1.6373    0.0292   -0.1495 C   0  0  0  0  0  0  0  0  0  0  0  0
   -1.0053    0.1276    0.9448 O   0  0  0  0  0  0  0  0  0  0  0  0
   -3.0708   -0.4277   -0.1100 C   0  0  0  0  0  0  0  0  0  0  0  0
   -3.3403   -0.7131    1.2930 N   0  0  0  0  0  0  0  0  0  0  0  0
   -4.4713   -0.0907    1.8204 O   0  0  0  0  0  0  0  0  0  0  0  0
    4.6696   -0.2457    2.2790 H   0  0  0  0  0  0  0  0  0  0  0  0
    1.6362    0.9157    1.0301 H   0  0  0  0  0  0  0  0  0  0  0  0
    1.2952   -0.8966    0.7843 H   0  0  0  0  0  0  0  0  0  0  0  0
    1.8474   -0.7853   -1.5421 H   0  0  0  0  0  0  0  0  0  0  0  0
    2.6043    1.8451   -0.8500 H   0  0  0  0  0  0  0  0  0  0  0  0
    0.4666    1.8905   -1.0417 H   0  0  0  0  0  0  0  0  0  0  0  0
    0.5488    1.0821   -2.5733 H   0  0  0  0  0  0  0  0  0  0  0  0
   -1.5235    0.2266   -2.2279 H   0  0  0  0  0  0  0  0  0  0  0  0
   -3.7189    0.3125   -0.5474 H   0  0  0  0  0  0  0  0  0  0  0  0
   -3.2242   -1.3649   -0.6478 H   0  0  0  0  0  0  0  0  0  0  0  0
   -3.5567   -1.7904    1.3661 H   0  0  0  0  0  0  0  0  0  0  0  0
   -4.0758    0.4428    2.6353 H   0  0  0  0  0  0  0  0  0  0  0  0
  1  2  2  0
  2  3  1  0
  2  4  1  0
  4  5  1  0
  5  6  1  0
  5  7  1  0
  7  8  1  0
  8  9  1  0
  9 10  2  0
  9 11  1  0
 11 12  1  0
 12 13  1  0
  3 14  1  0
  4 15  1  0
  4 16  1  0
  5 17  1  6
  6 18  1  0
  7 19  1  0
  7 20  1  0
  8 21  1  0
 11 22  1  0
 11 23  1  0
 12 24  1  0
 13 25  1  0
M  END
$$$$

     RDKit          3D

 25 24  0  0  0  0  0  0  0  0999 V2000
   -3.2941    2.1259   -0.4582 O   0  0  0  0  0  0  0  0  0  0  0  0
   -3.4916    0.9105   -0.2135 C   0  0  0  0  0  0  0  0  0  0  0  0
   -4.4669    0.5497    0.7044 O   0  0  0  0  0  0  0  0  0  0  0  0
   -2.7225   -0.1782   -0.8666 C   0  0  0  0  0  0  0  0  0  0  0  0
   -1.3908   -0.4174   -0.1763 C   0  0  2  0  0  0  0  0  0  0  0  0
   -1.6105   -0.7713    1.1473 O   0  0  0  0  0  0  0  0  0  0  0  0
   -0.5605    0.8201   -0.3236 C   0  0  0  0  0  0  0  0  0  0  0  0
    0.7419    0.7161    0.2550 N   0  0  0  0  0  0  0  0  0  0  0  0
    1.7211   -0.2325   -0.1269 C   0  0  0  0  0  0  0  0  0  0  0  0
    1.4258   -1.0389   -1.0375 O   0  0  0  0  0  0  0  0  0  0  0  0
    3.0708   -0.2963    0.5147 C   0  0  0  0  0  0  0  0  0  0  0  0
    3.8593   -1.3612   -0.0754 N   0  0  0  0  0  0  0  0  0  0  0  0
    5.0704   -1.4111    0.5060 O   0  0  0  0  0  0  0  0  0  0  0  0
   -4.8419    1.3079    1.2855 H   0  0  0  0  0  0  0  0  0  0  0  0
   -3.3228   -1.1179   -0.9267 H   0  0  0  0  0  0  0  0  0  0  0  0
   -2.5760    0.1401   -1.9263 H   0  0  0  0  0  0  0  0  0  0  0  0
   -0.8778   -1.2355   -0.7386 H   0  0  0  0  0  0  0  0  0  0  0  0
   -1.2850   -0.0501    1.7441 H   0  0  0  0  0  0  0  0  0  0  0  0
   -1.1088    1.6383    0.1822 H   0  0  0  0  0  0  0  0  0  0  0  0
   -0.5496    1.0857   -1.3992 H   0  0  0  0  0  0  0  0  0  0  0  0
    1.0308    1.3742    1.0222 H   0  0  0  0  0  0  0  0  0  0  0  0
    2.9996   -0.4859    1.5940 H   0  0  0  0  0  0  0  0  0  0  0  0
    3.5290    0.6944    0.3686 H   0  0  0  0  0  0  0  0  0  0  0  0
    3.3739   -2.2633   -0.0737 H   0  0  0  0  0  0  0  0  0  0  0  0
    5.2763   -0.5034    0.8615 H   0  0  0  0  0  0  0  0  0  0  0  0
  1  2  2  0
  2  3  1  0
  2  4  1  0
  4  5  1  0
  5  6  1  0
  5  7  1  0
  7  8  1  0
  8  9  1  0
  9 10  2  0
  9 11  1  0
 11 12  1  0
 12 13  1  0
  3 14  1  0
  4 15  1  0
  4 16  1  0
  5 17  1  6
  6 18  1  0
  7 19  1  0
  7 20  1  0
  8 21  1  0
 11 22  1  0
 11 23  1  0
 12 24  1  0
 13 25  1  0
M  END
$$$$

     RDKit          3D

 25 24  0  0  0  0  0  0  0  0999 V2000
   -3.3837   -0.4768   -1.5949 O   0  0  0  0  0  0  0  0  0  0  0  0
   -2.9114    0.5712   -1.0904 C   0  0  0  0  0  0  0  0  0  0  0  0
   -3.3978    1.7852   -1.5407 O   0  0  0  0  0  0  0  0  0  0  0  0
   -1.8684    0.5047   -0.0481 C   0  0  0  0  0  0  0  0  0  0  0  0
   -1.4921   -0.9239    0.2855 C   0  0  2  0  0  0  0  0  0  0  0  0
   -2.6506   -1.5494    0.7418 O   0  0  0  0  0  0  0  0  0  0  0  0
   -0.4320   -0.8844    1.3778 C   0  0  0  0  0  0  0  0  0  0  0  0
    0.7721   -0.2519    0.9537 N   0  0  0  0  0  0  0  0  0  0  0  0
    1.5767   -0.7022   -0.1352 C   0  0  0  0  0  0  0  0  0  0  0  0
    1.1850   -1.7258   -0.7521 O   0  0  0  0  0  0  0  0  0  0  0  0
    2.8217   -0.0409   -0.5669 C   0  0  0  0  0  0  0  0  0  0  0  0
    3.1720    1.1052    0.1977 N   0  0  0  0  0  0  0  0  0  0  0  0
    4.3243    1.6118   -0.2993 O   0  0  0  0  0  0  0  0  0  0  0  0
   -4.3375    1.9051   -1.9177 H   0  0  0  0  0  0  0  0  0  0  0  0
   -0.9701    1.0450   -0.4130 H   0  0  0  0  0  0  0  0  0  0  0  0
   -2.2621    1.0387    0.8408 H   0  0  0  0  0  0  0  0  0  0  0  0
   -1.1494   -1.4455   -0.6083 H   0  0  0  0  0  0  0  0  0  0  0  0
   -2.9320   -2.3052    0.1718 H   0  0  0  0  0  0  0  0  0  0  0  0
   -0.8364   -0.3318    2.2503 H   0  0  0  0  0  0  0  0  0  0  0  0
   -0.2925   -1.9363    1.7202 H   0  0  0  0  0  0  0  0  0  0  0  0
    1.1477    0.6166    1.4409 H   0  0  0  0  0  0  0  0  0  0  0  0
    3.6759   -0.7485   -0.5697 H   0  0  0  0  0  0  0  0  0  0  0  0
    2.6876    0.2731   -1.6277 H   0  0  0  0  0  0  0  0  0  0  0  0
    2.4480    1.8234    0.2831 H   0  0  0  0  0  0  0  0  0  0  0  0
    5.1047    1.0426   -0.0953 H   0  0  0  0  0  0  0  0  0  0  0  0
  1  2  2  0
  2  3  1  0
  2  4  1  0
  4  5  1  0
  5  6  1  0
  5  7  1  0
  7  8  1  0
  8  9  1  0
  9 10  2  0
  9 11  1  0
 11 12  1  0
 12 13  1  0
  3 14  1  0
  4 15  1  0
  4 16  1  0
  5 17  1  6
  6 18  1  0
  7 19  1  0
  7 20  1  0
  8 21  1  0
 11 22  1  0
 11 23  1  0
 12 24  1  0
 13 25  1  0
M  END
$$$$

     RDKit          3D

 25 24  0  0  0  0  0  0  0  0999 V2000
   -3.8204    1.4873   -1.1416 O   0  0  0  0  0  0  0  0  0  0  0  0
   -2.7568    1.3758   -0.4405 C   0  0  0  0  0  0  0  0  0  0  0  0
   -1.7655    2.3145   -0.6935 O   0  0  0  0  0  0  0  0  0  0  0  0
   -2.6154    0.3106    0.5664 C   0  0  0  0  0  0  0  0  0  0  0  0
   -2.1947   -1.0152   -0.0168 C   0  0  2  0  0  0  0  0  0  0  0  0
   -2.0984   -1.9212    1.0137 O   0  0  0  0  0  0  0  0  0  0  0  0
   -0.8842   -0.9436   -0.7419 C   0  0  0  0  0  0  0  0  0  0  0  0
    0.2064   -0.5258    0.1030 N   0  0  0  0  0  0  0  0  0  0  0  0
    1.5399   -0.3848   -0.3717 C   0  0  0  0  0  0  0  0  0  0  0  0
    1.7278   -0.6510   -1.6038 O   0  0  0  0  0  0  0  0  0  0  0  0
    2.6681    0.0485    0.4982 C   0  0  0  0  0  0  0  0  0  0  0  0
    3.8736    0.0985   -0.2754 N   0  0  0  0  0  0  0  0  0  0  0  0
    4.9237    0.4829    0.4634 O   0  0  0  0  0  0  0  0  0  0  0  0
   -1.9919    3.2837   -0.9431 H   0  0  0  0  0  0  0  0  0  0  0  0
   -1.9820    0.6371    1.3982 H   0  0  0  0  0  0  0  0  0  0  0  0
   -3.6386    0.1353    1.0082 H   0  0  0  0  0  0  0  0  0  0  0  0
   -2.9732   -1.3221   -0.7344 H   0  0  0  0  0  0  0  0  0  0  0  0
   -1.2758   -1.7726    1.5351 H   0  0  0  0  0  0  0  0  0  0  0  0
   -0.9289   -0.2820   -1.6217 H   0  0  0  0  0  0  0  0  0  0  0  0
   -0.6428   -1.9610   -1.1089 H   0  0  0  0  0  0  0  0  0  0  0  0
    0.0665   -0.3025    1.1188 H   0  0  0  0  0  0  0  0  0  0  0  0
    2.4620    1.0767    0.8606 H   0  0  0  0  0  0  0  0  0  0  0  0
    2.7512   -0.6842    1.3201 H   0  0  0  0  0  0  0  0  0  0  0  0
    4.0913   -0.8346   -0.6866 H   0  0  0  0  0  0  0  0  0  0  0  0
    5.2580    1.3495    0.1085 H   0  0  0  0  0  0  0  0  0  0  0  0
  1  2  2  0
  2  3  1  0
  2  4  1  0
  4  5  1  0
  5  6  1  0
  5  7  1  0
  7  8  1  0
  8  9  1  0
  9 10  2  0
  9 11  1  0
 11 12  1  0
 12 13  1  0
  3 14  1  0
  4 15  1  0
  4 16  1  0
  5 17  1  6
  6 18  1  0
  7 19  1  0
  7 20  1  0
  8 21  1  0
 11 22  1  0
 11 23  1  0
 12 24  1  0
 13 25  1  0
M  END
$$$$
