
     RDKit          3D

 25 26  0  0  0  0  0  0  0  0999 V2000
   -3.4177    1.0711   -0.2576 C   0  0  0  0  0  0  0  0  0  0  0  0
   -2.5605   -0.1011   -0.0468 N   0  0  0  0  0  0  0  0  0  0  0  0
   -2.9876   -1.3341    0.1984 N   0  0  0  0  0  0  0  0  0  0  0  0
   -1.9336   -2.1208    0.3314 N   0  0  0  0  0  0  0  0  0  0  0  0
   -0.8548   -1.3709    0.1678 N   0  0  0  0  0  0  0  0  0  0  0  0
   -1.2200   -0.1043   -0.0699 C   0  0  0  0  0  0  0  0  0  0  0  0
   -0.5017    0.9127   -0.2786 N   0  0  0  0  0  0  0  0  0  0  0  0
    0.9173    0.9922   -0.3190 C   0  0  2  0  0  0  0  0  0  0  0  0
    1.5564    0.0408   -1.2527 C   0  0  0  0  0  0  0  0  0  0  0  0
    2.3853   -0.9282   -0.8772 C   0  0  0  0  0  0  0  0  0  0  0  0
    2.6704   -1.0395    0.5797 C   0  0  0  0  0  0  0  0  0  0  0  0
    2.8033    0.3019    1.0915 N   0  0  0  0  0  0  0  0  0  0  0  0
    1.4670    0.8916    1.0794 C   0  0  0  0  0  0  0  0  0  0  0  0
   -2.8426    1.9757   -0.0499 H   0  0  0  0  0  0  0  0  0  0  0  0
   -3.6867    1.0473   -1.3342 H   0  0  0  0  0  0  0  0  0  0  0  0
   -4.3451    0.9587    0.3220 H   0  0  0  0  0  0  0  0  0  0  0  0
   -4.0041   -1.5760    0.2631 H   0  0  0  0  0  0  0  0  0  0  0  0
    1.1814    2.0284   -0.6810 H   0  0  0  0  0  0  0  0  0  0  0  0
    1.3390    0.1357   -2.3034 H   0  0  0  0  0  0  0  0  0  0  0  0
    2.8400   -1.6157   -1.6053 H   0  0  0  0  0  0  0  0  0  0  0  0
    3.5937   -1.6451    0.7467 H   0  0  0  0  0  0  0  0  0  0  0  0
    1.7929   -1.5003    1.0698 H   0  0  0  0  0  0  0  0  0  0  0  0
    3.4538    0.8981    0.5334 H   0  0  0  0  0  0  0  0  0  0  0  0
    1.5337    1.8704    1.5624 H   0  0  0  0  0  0  0  0  0  0  0  0
    0.8200    0.2113    1.6568 H   0  0  0  0  0  0  0  0  0  0  0  0
  1  2  1  0
  2  3  1  0
  3  4  1  0
  4  5  2  0
  5  6  1  0
  6  7  2  3
  7  8  1  0
  8  9  1  0
  9 10  2  0
 10 11  1  0
 11 12  1  0
 12 13  1  0
  6  2  1  0
 13  8  1  0
  1 14  1  0
  1 15  1  0
  1 16  1  0
  3 17  1  0
  8 18  1  6
  9 19  1  0
 10 20  1  0
 11 21  1  0
 11 22  1  0
 12 23  1  0
 13 24  1  0
 13 25  1  0
M  END
$$$$

     RDKit          3D

 25 26  0  0  0  0  0  0  0  0999 V2000
    2.1329    0.4065   -1.0911 C   0  0  0  0  0  0  0  0  0  0  0  0
    2.5177   -0.1399    0.1905 N   0  0  0  0  0  0  0  0  0  0  0  0
    3.7690   -0.2972    0.6202 N   0  0  0  0  0  0  0  0  0  0  0  0
    3.7934   -0.8213    1.8311 N   0  0  0  0  0  0  0  0  0  0  0  0
    2.5454   -1.0083    2.1962 N   0  0  0  0  0  0  0  0  0  0  0  0
    1.7272   -0.5872    1.1808 C   0  0  0  0  0  0  0  0  0  0  0  0
    0.4671   -0.6471    1.2506 N   0  0  0  0  0  0  0  0  0  0  0  0
   -0.5363   -0.2730    0.3316 C   0  0  2  0  0  0  0  0  0  0  0  0
   -1.0163    1.1432    0.5410 C   0  0  0  0  0  0  0  0  0  0  0  0
   -2.1912    1.4292   -0.0032 C   0  0  0  0  0  0  0  0  0  0  0  0
   -2.9784    0.4462   -0.7580 C   0  0  0  0  0  0  0  0  0  0  0  0
   -2.8050   -0.9080   -0.3558 N   0  0  0  0  0  0  0  0  0  0  0  0
   -1.7701   -1.1238    0.6151 C   0  0  0  0  0  0  0  0  0  0  0  0
    1.8022   -0.3763   -1.7980 H   0  0  0  0  0  0  0  0  0  0  0  0
    3.0464    0.8928   -1.5529 H   0  0  0  0  0  0  0  0  0  0  0  0
    1.3990    1.2272   -1.0341 H   0  0  0  0  0  0  0  0  0  0  0  0
    4.6113   -0.0227    0.0312 H   0  0  0  0  0  0  0  0  0  0  0  0
   -0.3249   -0.3927   -0.7308 H   0  0  0  0  0  0  0  0  0  0  0  0
   -0.4498    1.8783    1.0933 H   0  0  0  0  0  0  0  0  0  0  0  0
   -2.5795    2.4487    0.1243 H   0  0  0  0  0  0  0  0  0  0  0  0
   -2.7815    0.6037   -1.8580 H   0  0  0  0  0  0  0  0  0  0  0  0
   -4.0661    0.7037   -0.6403 H   0  0  0  0  0  0  0  0  0  0  0  0
   -2.7284   -1.5575   -1.1700 H   0  0  0  0  0  0  0  0  0  0  0  0
   -1.4352   -2.1742    0.6178 H   0  0  0  0  0  0  0  0  0  0  0  0
   -2.1489   -0.8503    1.6003 H   0  0  0  0  0  0  0  0  0  0  0  0
  1  2  1  0
  2  3  1  0
  3  4  1  0
  4  5  2  0
  5  6  1  0
  6  7  2  3
  7  8  1  0
  8  9  1  0
  9 10  2  0
 10 11  1  0
 11 12  1  0
 12 13  1  0
  6  2  1  0
 13  8  1  0
  1 14  1  0
  1 15  1  0
  1 16  1  0
  3 17  1  0
  8 18  1  6
  9 19  1  0
 10 20  1  0
 11 21  1  0
 11 22  1  0
 12 23  1  0
 13 24  1  0
 13 25  1  0
M  END
$$$$

     RDKit          3D

 25 26  0  0  0  0  0  0  0  0999 V2000
    3.6416    0.5546    0.1924 C   0  0  0  0  0  0  0  0  0  0  0  0
    2.5533    0.5285   -0.7847 N   0  0  0  0  0  0  0  0  0  0  0  0
    2.7122    0.9102   -2.0311 N   0  0  0  0  0  0  0  0  0  0  0  0
    1.5546    0.7680   -2.6496 N   0  0  0  0  0  0  0  0  0  0  0  0
    0.6698    0.2880   -1.7574 N   0  0  0  0  0  0  0  0  0  0  0  0
    1.2899    0.1342   -0.5807 C   0  0  0  0  0  0  0  0  0  0  0  0
    0.8279   -0.2878    0.5153 N   0  0  0  0  0  0  0  0  0  0  0  0
   -0.5057   -0.7187    0.7844 C   0  0  2  0  0  0  0  0  0  0  0  0
   -1.2607   -1.1063   -0.4231 C   0  0  0  0  0  0  0  0  0  0  0  0
   -2.5350   -0.8008   -0.6223 C   0  0  0  0  0  0  0  0  0  0  0  0
   -3.3281   -0.0192    0.3870 C   0  0  0  0  0  0  0  0  0  0  0  0
   -2.6715   -0.2497    1.6701 N   0  0  0  0  0  0  0  0  0  0  0  0
   -1.3244    0.2772    1.5550 C   0  0  0  0  0  0  0  0  0  0  0  0
    4.0470   -0.4683    0.2898 H   0  0  0  0  0  0  0  0  0  0  0  0
    4.3814    1.3090   -0.0778 H   0  0  0  0  0  0  0  0  0  0  0  0
    3.1586    0.8467    1.1590 H   0  0  0  0  0  0  0  0  0  0  0  0
    3.5942    1.2668   -2.4725 H   0  0  0  0  0  0  0  0  0  0  0  0
   -0.4262   -1.6348    1.4413 H   0  0  0  0  0  0  0  0  0  0  0  0
   -0.7669   -1.6784   -1.2151 H   0  0  0  0  0  0  0  0  0  0  0  0
   -3.0650   -1.1014   -1.5246 H   0  0  0  0  0  0  0  0  0  0  0  0
   -4.3842   -0.3000    0.3899 H   0  0  0  0  0  0  0  0  0  0  0  0
   -3.1826    1.0555    0.1492 H   0  0  0  0  0  0  0  0  0  0  0  0
   -2.6996   -1.2461    1.9567 H   0  0  0  0  0  0  0  0  0  0  0  0
   -1.3964    1.2390    0.9897 H   0  0  0  0  0  0  0  0  0  0  0  0
   -0.8841    0.4340    2.5763 H   0  0  0  0  0  0  0  0  0  0  0  0
  1  2  1  0
  2  3  1  0
  3  4  1  0
  4  5  2  0
  5  6  1  0
  6  7  2  3
  7  8  1  0
  8  9  1  0
  9 10  2  0
 10 11  1  0
 11 12  1  0
 12 13  1  0
  6  2  1  0
 13  8  1  0
  1 14  1  0
  1 15  1  0
  1 16  1  0
  3 17  1  0
  8 18  1  1
  9 19  1  0
 10 20  1  0
 11 21  1  0
 11 22  1  0
 12 23  1  0
 13 24  1  0
 13 25  1  0
M  END
$$$$

     RDKit          3D

 25 26  0  0  0  0  0  0  0  0999 V2000
    3.6496   -0.5447    0.3559 C   0  0  0  0  0  0  0  0  0  0  0  0
    2.5882    0.1520   -0.3757 N   0  0  0  0  0  0  0  0  0  0  0  0
    2.7214    1.0585   -1.3140 N   0  0  0  0  0  0  0  0  0  0  0  0
    1.5440    1.4658   -1.7467 N   0  0  0  0  0  0  0  0  0  0  0  0
    0.6240    0.8049   -1.0701 N   0  0  0  0  0  0  0  0  0  0  0  0
    1.2679   -0.0096   -0.2201 C   0  0  0  0  0  0  0  0  0  0  0  0
    0.6788   -0.8103    0.6044 N   0  0  0  0  0  0  0  0  0  0  0  0
   -0.7647   -0.8981    0.6824 C   0  0  2  0  0  0  0  0  0  0  0  0
   -1.3252   -0.8066   -0.6799 C   0  0  0  0  0  0  0  0  0  0  0  0
   -2.3925   -0.0989   -0.9359 C   0  0  0  0  0  0  0  0  0  0  0  0
   -3.1086    0.6545    0.1118 C   0  0  0  0  0  0  0  0  0  0  0  0
   -2.7839    0.1025    1.4000 N   0  0  0  0  0  0  0  0  0  0  0  0
   -1.3196    0.2122    1.5173 C   0  0  0  0  0  0  0  0  0  0  0  0
    4.5013    0.1088    0.5652 H   0  0  0  0  0  0  0  0  0  0  0  0
    3.9241   -1.4276   -0.2666 H   0  0  0  0  0  0  0  0  0  0  0  0
    3.1969   -0.9252    1.2914 H   0  0  0  0  0  0  0  0  0  0  0  0
    3.6600    1.4068   -1.6665 H   0  0  0  0  0  0  0  0  0  0  0  0
   -1.0569   -1.8612    1.1693 H   0  0  0  0  0  0  0  0  0  0  0  0
   -0.7863   -1.3713   -1.4588 H   0  0  0  0  0  0  0  0  0  0  0  0
   -2.7796   -0.0582   -1.9738 H   0  0  0  0  0  0  0  0  0  0  0  0
   -2.7207    1.6996    0.1007 H   0  0  0  0  0  0  0  0  0  0  0  0
   -4.2175    0.6656   -0.0685 H   0  0  0  0  0  0  0  0  0  0  0  0
   -3.0803   -0.8854    1.5179 H   0  0  0  0  0  0  0  0  0  0  0  0
   -1.0255    1.2035    1.1175 H   0  0  0  0  0  0  0  0  0  0  0  0
   -0.9950    0.1623    2.5739 H   0  0  0  0  0  0  0  0  0  0  0  0
  1  2  1  0
  2  3  1  0
  3  4  1  0
  4  5  2  0
  5  6  1  0
  6  7  2  3
  7  8  1  0
  8  9  1  0
  9 10  2  0
 10 11  1  0
 11 12  1  0
 12 13  1  0
  6  2  1  0
 13  8  1  0
  1 14  1  0
  1 15  1  0
  1 16  1  0
  3 17  1  0
  8 18  1  1
  9 19  1  0
 10 20  1  0
 11 21  1  0
 11 22  1  0
 12 23  1  0
 13 24  1  0
 13 25  1  0
M  END
$$$$

     RDKit          3D

 25 26  0  0  0  0  0  0  0  0999 V2000
    2.6423   -0.4990    0.3238 C   0  0  0  0  0  0  0  0  0  0  0  0
    2.3495    0.8065   -0.1776 N   0  0  0  0  0  0  0  0  0  0  0  0
    3.3033    1.7484   -0.3013 N   0  0  0  0  0  0  0  0  0  0  0  0
    2.7472    2.8277   -0.7796 N   0  0  0  0  0  0  0  0  0  0  0  0
    1.4746    2.6120   -0.9665 N   0  0  0  0  0  0  0  0  0  0  0  0
    1.1791    1.3150   -0.5886 C   0  0  0  0  0  0  0  0  0  0  0  0
    0.0177    0.8315   -0.6667 N   0  0  0  0  0  0  0  0  0  0  0  0
   -0.4289   -0.4545   -0.3299 C   0  0  2  0  0  0  0  0  0  0  0  0
   -1.5477   -0.8494   -1.2660 C   0  0  0  0  0  0  0  0  0  0  0  0
   -2.7783   -0.8733   -0.8548 C   0  0  0  0  0  0  0  0  0  0  0  0
   -3.1839   -0.5292    0.5171 C   0  0  0  0  0  0  0  0  0  0  0  0
   -2.1748    0.1117    1.2827 N   0  0  0  0  0  0  0  0  0  0  0  0
   -0.9021   -0.5710    1.1103 C   0  0  0  0  0  0  0  0  0  0  0  0
    1.9681   -0.8416    1.1141 H   0  0  0  0  0  0  0  0  0  0  0  0
    2.7132   -1.2216   -0.5213 H   0  0  0  0  0  0  0  0  0  0  0  0
    3.6724   -0.4894    0.8030 H   0  0  0  0  0  0  0  0  0  0  0  0
    4.3109    1.6164   -0.0519 H   0  0  0  0  0  0  0  0  0  0  0  0
    0.3845   -1.2070   -0.5345 H   0  0  0  0  0  0  0  0  0  0  0  0
   -1.2605   -1.1137   -2.3081 H   0  0  0  0  0  0  0  0  0  0  0  0
   -3.5682   -1.1696   -1.5790 H   0  0  0  0  0  0  0  0  0  0  0  0
   -3.4675   -1.4689    1.0688 H   0  0  0  0  0  0  0  0  0  0  0  0
   -4.0942    0.1088    0.4545 H   0  0  0  0  0  0  0  0  0  0  0  0
   -2.0926    1.1390    1.1235 H   0  0  0  0  0  0  0  0  0  0  0  0
   -1.0822   -1.6475    1.3029 H   0  0  0  0  0  0  0  0  0  0  0  0
   -0.1820   -0.1813    1.8249 H   0  0  0  0  0  0  0  0  0  0  0  0
  1  2  1  0
  2  3  1  0
  3  4  1  0
  4  5  2  0
  5  6  1  0
  6  7  2  3
  7  8  1  0
  8  9  1  0
  9 10  2  0
 10 11  1  0
 11 12  1  0
 12 13  1  0
  6  2  1  0
 13  8  1  0
  1 14  1  0
  1 15  1  0
  1 16  1  0
  3 17  1  0
  8 18  1  1
  9 19  1  0
 10 20  1  0
 11 21  1  0
 11 22  1  0
 12 23  1  0
 13 24  1  0
 13 25  1  0
M  END
$$$$

     RDKit          3D

 25 26  0  0  0  0  0  0  0  0999 V2000
    3.2568    1.0288   -0.2087 C   0  0  0  0  0  0  0  0  0  0  0  0
    2.8355   -0.2987    0.2635 N   0  0  0  0  0  0  0  0  0  0  0  0
    3.6808   -1.2261    0.6770 N   0  0  0  0  0  0  0  0  0  0  0  0
    2.9375   -2.2679    1.0174 N   0  0  0  0  0  0  0  0  0  0  0  0
    1.6571   -1.9988    0.8215 N   0  0  0  0  0  0  0  0  0  0  0  0
    1.5736   -0.7592    0.3456 C   0  0  0  0  0  0  0  0  0  0  0  0
    0.5566   -0.0523    0.0031 N   0  0  0  0  0  0  0  0  0  0  0  0
   -0.8089   -0.5090    0.0762 C   0  0  2  0  0  0  0  0  0  0  0  0
   -1.4638   -0.1511   -1.2121 C   0  0  0  0  0  0  0  0  0  0  0  0
   -2.6405    0.4596   -1.2646 C   0  0  0  0  0  0  0  0  0  0  0  0
   -3.4212    0.8470   -0.0584 C   0  0  0  0  0  0  0  0  0  0  0  0
   -2.9356    0.1589    1.0941 N   0  0  0  0  0  0  0  0  0  0  0  0
   -1.4905    0.2410    1.1819 C   0  0  0  0  0  0  0  0  0  0  0  0
    4.0769    0.9221   -0.9501 H   0  0  0  0  0  0  0  0  0  0  0  0
    2.3697    1.5536   -0.6115 H   0  0  0  0  0  0  0  0  0  0  0  0
    3.5947    1.6134    0.6815 H   0  0  0  0  0  0  0  0  0  0  0  0
    4.7336   -1.1623    0.7300 H   0  0  0  0  0  0  0  0  0  0  0  0
   -0.8948   -1.6026    0.1839 H   0  0  0  0  0  0  0  0  0  0  0  0
   -0.9656   -0.3954   -2.1740 H   0  0  0  0  0  0  0  0  0  0  0  0
   -3.0367    0.6794   -2.2785 H   0  0  0  0  0  0  0  0  0  0  0  0
   -4.4878    0.5644   -0.2386 H   0  0  0  0  0  0  0  0  0  0  0  0
   -3.4100    1.9521    0.0672 H   0  0  0  0  0  0  0  0  0  0  0  0
   -3.3155   -0.7807    1.2364 H   0  0  0  0  0  0  0  0  0  0  0  0
   -1.2233    1.3150    1.1077 H   0  0  0  0  0  0  0  0  0  0  0  0
   -1.1788   -0.1310    2.1726 H   0  0  0  0  0  0  0  0  0  0  0  0
  1  2  1  0
  2  3  1  0
  3  4  1  0
  4  5  2  0
  5  6  1  0
  6  7  2  3
  7  8  1  0
  8  9  1  0
  9 10  2  0
 10 11  1  0
 11 12  1  0
 12 13  1  0
  6  2  1  0
 13  8  1  0
  1 14  1  0
  1 15  1  0
  1 16  1  0
  3 17  1  0
  8 18  1  1
  9 19  1  0
 10 20  1  0
 11 21  1  0
 11 22  1  0
 12 23  1  0
 13 24  1  0
 13 25  1  0
M  END
$$$$

     RDKit          3D

 25 26  0  0  0  0  0  0  0  0999 V2000
   -3.4671    0.9769   -0.4852 C   0  0  0  0  0  0  0  0  0  0  0  0
   -2.8038   -0.2950   -0.2486 N   0  0  0  0  0  0  0  0  0  0  0  0
   -3.3412   -1.5038   -0.2661 N   0  0  0  0  0  0  0  0  0  0  0  0
   -2.4038   -2.3971   -0.0020 N   0  0  0  0  0  0  0  0  0  0  0  0
   -1.2547   -1.7703    0.1878 N   0  0  0  0  0  0  0  0  0  0  0  0
   -1.4961   -0.4378    0.0340 C   0  0  0  0  0  0  0  0  0  0  0  0
   -0.6418    0.5198    0.1368 N   0  0  0  0  0  0  0  0  0  0  0  0
    0.7423    0.2105    0.4482 C   0  0  2  0  0  0  0  0  0  0  0  0
    1.5215    1.4403    0.6999 C   0  0  0  0  0  0  0  0  0  0  0  0
    2.8405    1.3519    0.7027 C   0  0  0  0  0  0  0  0  0  0  0  0
    3.3813   -0.0338    0.4407 C   0  0  0  0  0  0  0  0  0  0  0  0
    2.7529   -0.6175   -0.6990 N   0  0  0  0  0  0  0  0  0  0  0  0
    1.3328   -0.4395   -0.7838 C   0  0  0  0  0  0  0  0  0  0  0  0
   -3.0472    1.7564    0.2132 H   0  0  0  0  0  0  0  0  0  0  0  0
   -4.5449    0.9052   -0.2382 H   0  0  0  0  0  0  0  0  0  0  0  0
   -3.2778    1.2991   -1.5218 H   0  0  0  0  0  0  0  0  0  0  0  0
   -4.3657   -1.6883   -0.4644 H   0  0  0  0  0  0  0  0  0  0  0  0
    0.8060   -0.5094    1.3006 H   0  0  0  0  0  0  0  0  0  0  0  0
    1.0501    2.3831    0.8766 H   0  0  0  0  0  0  0  0  0  0  0  0
    3.5039    2.1952    0.8772 H   0  0  0  0  0  0  0  0  0  0  0  0
    3.2684   -0.6863    1.3240 H   0  0  0  0  0  0  0  0  0  0  0  0
    4.4814    0.0513    0.2088 H   0  0  0  0  0  0  0  0  0  0  0  0
    3.0494   -1.5752   -0.9107 H   0  0  0  0  0  0  0  0  0  0  0  0
    1.1169    0.2558   -1.6459 H   0  0  0  0  0  0  0  0  0  0  0  0
    0.7969   -1.3915   -0.9616 H   0  0  0  0  0  0  0  0  0  0  0  0
  1  2  1  0
  2  3  1  0
  3  4  1  0
  4  5  2  0
  5  6  1  0
  6  7  2  3
  7  8  1  0
  8  9  1  0
  9 10  2  0
 10 11  1  0
 11 12  1  0
 12 13  1  0
  6  2  1  0
 13  8  1  0
  1 14  1  0
  1 15  1  0
  1 16  1  0
  3 17  1  0
  8 18  1  1
  9 19  1  0
 10 20  1  0
 11 21  1  0
 11 22  1  0
 12 23  1  0
 13 24  1  0
 13 25  1  0
M  END
$$$$

     RDKit          3D

 25 26  0  0  0  0  0  0  0  0999 V2000
    2.1138    1.0788    0.9406 C   0  0  0  0  0  0  0  0  0  0  0  0
    2.5598    0.1351   -0.0715 N   0  0  0  0  0  0  0  0  0  0  0  0
    3.8399   -0.1214   -0.3005 N   0  0  0  0  0  0  0  0  0  0  0  0
    3.9096   -1.0043   -1.2610 N   0  0  0  0  0  0  0  0  0  0  0  0
    2.7136   -1.3196   -1.6528 N   0  0  0  0  0  0  0  0  0  0  0  0
    1.8083   -0.5954   -0.8989 C   0  0  0  0  0  0  0  0  0  0  0  0
    0.5614   -0.6796   -1.0479 N   0  0  0  0  0  0  0  0  0  0  0  0
   -0.4974   -0.0375   -0.4004 C   0  0  2  0  0  0  0  0  0  0  0  0
   -0.9854   -0.7999    0.8143 C   0  0  0  0  0  0  0  0  0  0  0  0
   -2.2680   -0.8340    1.1279 C   0  0  0  0  0  0  0  0  0  0  0  0
   -3.3047   -0.1493    0.3402 C   0  0  0  0  0  0  0  0  0  0  0  0
   -2.7189    0.8098   -0.5700 N   0  0  0  0  0  0  0  0  0  0  0  0
   -1.7126    0.0890   -1.3447 C   0  0  0  0  0  0  0  0  0  0  0  0
    2.9913    1.2900    1.6088 H   0  0  0  0  0  0  0  0  0  0  0  0
    1.7354    2.0207    0.5002 H   0  0  0  0  0  0  0  0  0  0  0  0
    1.3554    0.6200    1.5850 H   0  0  0  0  0  0  0  0  0  0  0  0
    4.6293    0.3374    0.2297 H   0  0  0  0  0  0  0  0  0  0  0  0
   -0.2763    0.9788   -0.0544 H   0  0  0  0  0  0  0  0  0  0  0  0
   -0.2332   -1.3033    1.3953 H   0  0  0  0  0  0  0  0  0  0  0  0
   -2.5754   -1.3982    2.0158 H   0  0  0  0  0  0  0  0  0  0  0  0
   -3.9792    0.4349    1.0175 H   0  0  0  0  0  0  0  0  0  0  0  0
   -3.9482   -0.8730   -0.2097 H   0  0  0  0  0  0  0  0  0  0  0  0
   -2.2552    1.5487    0.0089 H   0  0  0  0  0  0  0  0  0  0  0  0
   -1.3846    0.6844   -2.2027 H   0  0  0  0  0  0  0  0  0  0  0  0
   -2.0788   -0.9122   -1.5697 H   0  0  0  0  0  0  0  0  0  0  0  0
  1  2  1  0
  2  3  1  0
  3  4  1  0
  4  5  2  0
  5  6  1  0
  6  7  2  3
  7  8  1  0
  8  9  1  0
  9 10  2  0
 10 11  1  0
 11 12  1  0
 12 13  1  0
  6  2  1  0
 13  8  1  0
  1 14  1  0
  1 15  1  0
  1 16  1  0
  3 17  1  0
  8 18  1  1
  9 19  1  0
 10 20  1  0
 11 21  1  0
 11 22  1  0
 12 23  1  0
 13 24  1  0
 13 25  1  0
M  END
$$$$
