
     RDKit          3D

 29 29  0  0  0  0  0  0  0  0999 V2000
   -2.7247   -0.2634   -1.8569 C   0  0  0  0  0  0  0  0  0  0  0  0
   -2.2272    0.3389   -0.6841 O   0  0  0  0  0  0  0  0  0  0  0  0
   -2.0708   -0.6707    0.2467 C   0  0  2  0  0  0  0  0  0  0  0  0
   -2.7658   -0.3677    1.5514 C   0  0  0  0  0  0  0  0  0  0  0  0
   -4.1892   -0.1861    1.3749 N   0  0  0  0  0  0  0  0  0  0  0  0
   -0.5993   -0.7641    0.5569 C   0  0  0  0  0  0  0  0  0  0  0  0
   -0.1665   -1.6119    1.3846 O   0  0  0  0  0  0  0  0  0  0  0  0
    0.3520    0.0912   -0.0645 N   0  0  0  0  0  0  0  0  0  0  0  0
    1.7410   -0.0214    0.2502 C   0  0  2  0  0  0  0  0  0  0  0  0
    2.4443    1.3492    0.3929 C   0  0  0  0  0  0  0  0  0  0  0  0
    2.7376    0.4429   -0.7532 C   0  0  1  0  0  0  0  0  0  0  0  0
    4.1336   -0.1290   -0.7817 C   0  0  0  0  0  0  0  0  0  0  0  0
    4.8222    0.0815    0.4094 O   0  0  0  0  0  0  0  0  0  0  0  0
   -1.9589   -1.0083   -2.1628 H   0  0  0  0  0  0  0  0  0  0  0  0
   -2.9255    0.4939   -2.6462 H   0  0  0  0  0  0  0  0  0  0  0  0
   -3.6517   -0.8186   -1.6440 H   0  0  0  0  0  0  0  0  0  0  0  0
   -2.3602   -1.6594   -0.1361 H   0  0  0  0  0  0  0  0  0  0  0  0
   -2.2837    0.5003    2.0518 H   0  0  0  0  0  0  0  0  0  0  0  0
   -2.6283   -1.2472    2.2158 H   0  0  0  0  0  0  0  0  0  0  0  0
   -4.4017    0.1892    0.4230 H   0  0  0  0  0  0  0  0  0  0  0  0
   -4.4807    0.5569    2.0685 H   0  0  0  0  0  0  0  0  0  0  0  0
    0.0242    0.8141   -0.7640 H   0  0  0  0  0  0  0  0  0  0  0  0
    2.0134   -0.7879    0.9797 H   0  0  0  0  0  0  0  0  0  0  0  0
    1.8649    2.2526    0.2071 H   0  0  0  0  0  0  0  0  0  0  0  0
    3.1331    1.4161    1.2536 H   0  0  0  0  0  0  0  0  0  0  0  0
    2.3050    0.7449   -1.7378 H   0  0  0  0  0  0  0  0  0  0  0  0
    4.1413   -1.2062   -1.0451 H   0  0  0  0  0  0  0  0  0  0  0  0
    4.6804    0.4211   -1.5938 H   0  0  0  0  0  0  0  0  0  0  0  0
    5.0411    1.0491    0.5036 H   0  0  0  0  0  0  0  0  0  0  0  0
  1  2  1  0
  2  3  1  0
  3  4  1  0
  4  5  1  0
  3  6  1  0
  6  7  2  0
  6  8  1  0
  8  9  1  0
  9 10  1  0
 10 11  1  0
 11 12  1  0
 12 13  1  0
 11  9  1  0
  1 14  1  0
  1 15  1  0
  1 16  1  0
  3 17  1  6
  4 18  1  0
  4 19  1  0
  5 20  1  0
  5 21  1  0
  8 22  1  0
  9 23  1  1
 10 24  1  0
 10 25  1  0
 11 26  1  6
 12 27  1  0
 12 28  1  0
 13 29  1  0
M  END
$$$$

     RDKit          3D

 29 29  0  0  0  0  0  0  0  0999 V2000
   -4.0569    0.1615    0.9753 C   0  0  0  0  0  0  0  0  0  0  0  0
   -2.8721   -0.5573    1.1283 O   0  0  0  0  0  0  0  0  0  0  0  0
   -1.9767   -0.3121    0.1149 C   0  0  2  0  0  0  0  0  0  0  0  0
   -1.7011   -1.6421   -0.5785 C   0  0  0  0  0  0  0  0  0  0  0  0
   -2.9083   -2.2165   -1.1290 N   0  0  0  0  0  0  0  0  0  0  0  0
   -0.6941    0.1649    0.6858 C   0  0  0  0  0  0  0  0  0  0  0  0
   -0.5582    0.2905    1.9495 O   0  0  0  0  0  0  0  0  0  0  0  0
    0.4111    0.4940   -0.1387 N   0  0  0  0  0  0  0  0  0  0  0  0
    1.6509    0.9574    0.4502 C   0  0  2  0  0  0  0  0  0  0  0  0
    2.3052    2.0671   -0.3248 C   0  0  0  0  0  0  0  0  0  0  0  0
    2.9379    0.7463   -0.2562 C   0  0  1  0  0  0  0  0  0  0  0  0
    4.1239    0.4812    0.6652 C   0  0  0  0  0  0  0  0  0  0  0  0
    3.7900   -0.6871    1.3812 O   0  0  0  0  0  0  0  0  0  0  0  0
   -3.7796    1.2478    0.9777 H   0  0  0  0  0  0  0  0  0  0  0  0
   -4.7119    0.0037    1.8400 H   0  0  0  0  0  0  0  0  0  0  0  0
   -4.5403   -0.0805    0.0188 H   0  0  0  0  0  0  0  0  0  0  0  0
   -2.3522    0.4006   -0.6277 H   0  0  0  0  0  0  0  0  0  0  0  0
   -0.9266   -1.4431   -1.3476 H   0  0  0  0  0  0  0  0  0  0  0  0
   -1.2736   -2.3145    0.1996 H   0  0  0  0  0  0  0  0  0  0  0  0
   -2.7288   -3.2112   -1.3544 H   0  0  0  0  0  0  0  0  0  0  0  0
   -3.2635   -1.6534   -1.9063 H   0  0  0  0  0  0  0  0  0  0  0  0
    0.2784    0.3841   -1.1704 H   0  0  0  0  0  0  0  0  0  0  0  0
    1.6306    1.0193    1.5573 H   0  0  0  0  0  0  0  0  0  0  0  0
    2.7165    2.8873    0.3268 H   0  0  0  0  0  0  0  0  0  0  0  0
    1.8709    2.3958   -1.2763 H   0  0  0  0  0  0  0  0  0  0  0  0
    2.8844    0.1063   -1.1790 H   0  0  0  0  0  0  0  0  0  0  0  0
    5.0666    0.3706    0.1159 H   0  0  0  0  0  0  0  0  0  0  0  0
    4.1415    1.2929    1.4266 H   0  0  0  0  0  0  0  0  0  0  0  0
    4.5362   -1.3535    1.3486 H   0  0  0  0  0  0  0  0  0  0  0  0
  1  2  1  0
  2  3  1  0
  3  4  1  0
  4  5  1  0
  3  6  1  0
  6  7  2  0
  6  8  1  0
  8  9  1  0
  9 10  1  0
 10 11  1  0
 11 12  1  0
 12 13  1  0
 11  9  1  0
  1 14  1  0
  1 15  1  0
  1 16  1  0
  3 17  1  6
  4 18  1  0
  4 19  1  0
  5 20  1  0
  5 21  1  0
  8 22  1  0
  9 23  1  1
 10 24  1  0
 10 25  1  0
 11 26  1  6
 12 27  1  0
 12 28  1  0
 13 29  1  0
M  END
$$$$

     RDKit          3D

 29 29  0  0  0  0  0  0  0  0999 V2000
    3.3671   -0.4136    0.8330 C   0  0  0  0  0  0  0  0  0  0  0  0
    2.3556    0.5160    0.6507 O   0  0  0  0  0  0  0  0  0  0  0  0
    1.9999    0.6592   -0.6882 C   0  0  2  0  0  0  0  0  0  0  0  0
    2.2738    2.0831   -1.1433 C   0  0  0  0  0  0  0  0  0  0  0  0
    1.8999    2.2015   -2.5197 N   0  0  0  0  0  0  0  0  0  0  0  0
    0.5599    0.3422   -0.8985 C   0  0  0  0  0  0  0  0  0  0  0  0
    0.0112    0.4011   -2.0226 O   0  0  0  0  0  0  0  0  0  0  0  0
   -0.2302   -0.0413    0.2027 N   0  0  0  0  0  0  0  0  0  0  0  0
   -1.6236   -0.3717    0.1360 C   0  0  2  0  0  0  0  0  0  0  0  0
   -2.4274    0.2218    1.3089 C   0  0  0  0  0  0  0  0  0  0  0  0
   -2.2857   -1.2653    1.0936 C   0  0  1  0  0  0  0  0  0  0  0  0
   -3.5718   -1.9349    0.6522 C   0  0  0  0  0  0  0  0  0  0  0  0
   -3.3537   -2.7351   -0.4842 O   0  0  0  0  0  0  0  0  0  0  0  0
    3.0756   -1.4224    0.4735 H   0  0  0  0  0  0  0  0  0  0  0  0
    3.5568   -0.4722    1.9258 H   0  0  0  0  0  0  0  0  0  0  0  0
    4.2776   -0.0800    0.2922 H   0  0  0  0  0  0  0  0  0  0  0  0
    2.6427   -0.0321   -1.2711 H   0  0  0  0  0  0  0  0  0  0  0  0
    1.6479    2.7846   -0.5392 H   0  0  0  0  0  0  0  0  0  0  0  0
    3.3341    2.3318   -1.0016 H   0  0  0  0  0  0  0  0  0  0  0  0
    1.9024    1.3111   -3.0515 H   0  0  0  0  0  0  0  0  0  0  0  0
    0.9978    2.7147   -2.6117 H   0  0  0  0  0  0  0  0  0  0  0  0
    0.2341   -0.0902    1.1481 H   0  0  0  0  0  0  0  0  0  0  0  0
   -2.0648   -0.3065   -0.8692 H   0  0  0  0  0  0  0  0  0  0  0  0
   -1.8867    0.6091    2.1717 H   0  0  0  0  0  0  0  0  0  0  0  0
   -3.3827    0.7183    1.0501 H   0  0  0  0  0  0  0  0  0  0  0  0
   -1.6920   -1.8680    1.8057 H   0  0  0  0  0  0  0  0  0  0  0  0
   -4.0378   -2.5310    1.4627 H   0  0  0  0  0  0  0  0  0  0  0  0
   -4.3460   -1.1867    0.3414 H   0  0  0  0  0  0  0  0  0  0  0  0
   -3.2339   -2.1437   -1.2703 H   0  0  0  0  0  0  0  0  0  0  0  0
  1  2  1  0
  2  3  1  0
  3  4  1  0
  4  5  1  0
  3  6  1  0
  6  7  2  0
  6  8  1  0
  8  9  1  0
  9 10  1  0
 10 11  1  0
 11 12  1  0
 12 13  1  0
 11  9  1  0
  1 14  1  0
  1 15  1  0
  1 16  1  0
  3 17  1  6
  4 18  1  0
  4 19  1  0
  5 20  1  0
  5 21  1  0
  8 22  1  0
  9 23  1  6
 10 24  1  0
 10 25  1  0
 11 26  1  1
 12 27  1  0
 12 28  1  0
 13 29  1  0
M  END
$$$$

     RDKit          3D

 29 29  0  0  0  0  0  0  0  0999 V2000
   -2.6762   -2.4966   -0.1451 C   0  0  0  0  0  0  0  0  0  0  0  0
   -2.3220   -1.2739   -0.7037 O   0  0  0  0  0  0  0  0  0  0  0  0
   -2.1655   -0.2739    0.2143 C   0  0  2  0  0  0  0  0  0  0  0  0
   -3.1843    0.8428    0.0592 C   0  0  0  0  0  0  0  0  0  0  0  0
   -2.9276    1.8447    1.0775 N   0  0  0  0  0  0  0  0  0  0  0  0
   -0.8186    0.3261    0.2356 C   0  0  0  0  0  0  0  0  0  0  0  0
   -0.6097    1.2539    1.0604 O   0  0  0  0  0  0  0  0  0  0  0  0
    0.2526   -0.0579   -0.5953 N   0  0  0  0  0  0  0  0  0  0  0  0
    1.5634    0.5503   -0.5507 C   0  0  2  0  0  0  0  0  0  0  0  0
    2.3465    0.7857   -1.7809 C   0  0  0  0  0  0  0  0  0  0  0  0
    2.7967   -0.2251   -0.7373 C   0  0  1  0  0  0  0  0  0  0  0  0
    4.0416    0.1881    0.0309 C   0  0  0  0  0  0  0  0  0  0  0  0
    5.0900   -0.6641   -0.2822 O   0  0  0  0  0  0  0  0  0  0  0  0
   -3.6356   -2.4587    0.4110 H   0  0  0  0  0  0  0  0  0  0  0  0
   -2.5947   -3.3304   -0.8505 H   0  0  0  0  0  0  0  0  0  0  0  0
   -1.8977   -2.6979    0.6490 H   0  0  0  0  0  0  0  0  0  0  0  0
   -2.3737   -0.7211    1.2303 H   0  0  0  0  0  0  0  0  0  0  0  0
   -3.0570    1.3459   -0.9183 H   0  0  0  0  0  0  0  0  0  0  0  0
   -4.2236    0.4896    0.2177 H   0  0  0  0  0  0  0  0  0  0  0  0
   -3.4971    1.6207    1.9221 H   0  0  0  0  0  0  0  0  0  0  0  0
   -3.1126    2.8048    0.7771 H   0  0  0  0  0  0  0  0  0  0  0  0
    0.0798   -0.8273   -1.2795 H   0  0  0  0  0  0  0  0  0  0  0  0
    1.6282    1.3650    0.2239 H   0  0  0  0  0  0  0  0  0  0  0  0
    2.9073    1.7398   -1.8753 H   0  0  0  0  0  0  0  0  0  0  0  0
    2.1015    0.3303   -2.7478 H   0  0  0  0  0  0  0  0  0  0  0  0
    2.7954   -1.3023   -0.9973 H   0  0  0  0  0  0  0  0  0  0  0  0
    3.8601    0.1958    1.1250 H   0  0  0  0  0  0  0  0  0  0  0  0
    4.3627    1.2158   -0.2492 H   0  0  0  0  0  0  0  0  0  0  0  0
    5.2700   -0.5700   -1.2432 H   0  0  0  0  0  0  0  0  0  0  0  0
  1  2  1  0
  2  3  1  0
  3  4  1  0
  4  5  1  0
  3  6  1  0
  6  7  2  0
  6  8  1  0
  8  9  1  0
  9 10  1  0
 10 11  1  0
 11 12  1  0
 12 13  1  0
 11  9  1  0
  1 14  1  0
  1 15  1  0
  1 16  1  0
  3 17  1  1
  4 18  1  0
  4 19  1  0
  5 20  1  0
  5 21  1  0
  8 22  1  0
  9 23  1  1
 10 24  1  0
 10 25  1  0
 11 26  1  6
 12 27  1  0
 12 28  1  0
 13 29  1  0
M  END
$$$$

     RDKit          3D

 29 29  0  0  0  0  0  0  0  0999 V2000
   -2.5838   -1.3912   -2.0914 C   0  0  0  0  0  0  0  0  0  0  0  0
   -2.2450   -0.3664   -1.2171 O   0  0  0  0  0  0  0  0  0  0  0  0
   -2.0580   -0.8748    0.0433 C   0  0  2  0  0  0  0  0  0  0  0  0
   -3.0522   -0.3105    1.0436 C   0  0  0  0  0  0  0  0  0  0  0  0
   -2.9161    1.1506    1.1278 N   0  0  0  0  0  0  0  0  0  0  0  0
   -0.6910   -0.5842    0.5739 C   0  0  0  0  0  0  0  0  0  0  0  0
   -0.4218   -1.0099    1.7251 O   0  0  0  0  0  0  0  0  0  0  0  0
    0.2837    0.1380   -0.1638 N   0  0  0  0  0  0  0  0  0  0  0  0
    1.5933    0.4071    0.3649 C   0  0  2  0  0  0  0  0  0  0  0  0
    2.0836    1.8338    0.0513 C   0  0  0  0  0  0  0  0  0  0  0  0
    2.7723    0.5999   -0.4941 C   0  0  1  0  0  0  0  0  0  0  0  0
    4.1358    0.3432    0.1259 C   0  0  0  0  0  0  0  0  0  0  0  0
    4.2549   -0.9652    0.5764 O   0  0  0  0  0  0  0  0  0  0  0  0
   -3.5219   -1.8463   -1.7130 H   0  0  0  0  0  0  0  0  0  0  0  0
   -2.7305   -0.9233   -3.0959 H   0  0  0  0  0  0  0  0  0  0  0  0
   -1.7940   -2.1684   -2.1635 H   0  0  0  0  0  0  0  0  0  0  0  0
   -2.2285   -1.9686    0.0218 H   0  0  0  0  0  0  0  0  0  0  0  0
   -2.7939   -0.6856    2.0538 H   0  0  0  0  0  0  0  0  0  0  0  0
   -4.0621   -0.6170    0.7627 H   0  0  0  0  0  0  0  0  0  0  0  0
   -2.7973    1.5643    0.1806 H   0  0  0  0  0  0  0  0  0  0  0  0
   -3.8296    1.4748    1.5587 H   0  0  0  0  0  0  0  0  0  0  0  0
   -0.0208    0.4618   -1.1244 H   0  0  0  0  0  0  0  0  0  0  0  0
    1.7732    0.0140    1.3702 H   0  0  0  0  0  0  0  0  0  0  0  0
    2.5049    2.3526    0.9308 H   0  0  0  0  0  0  0  0  0  0  0  0
    1.5416    2.4086   -0.7155 H   0  0  0  0  0  0  0  0  0  0  0  0
    2.7586    0.4216   -1.5863 H   0  0  0  0  0  0  0  0  0  0  0  0
    4.9477    0.5827   -0.5934 H   0  0  0  0  0  0  0  0  0  0  0  0
    4.3109    0.9963    1.0173 H   0  0  0  0  0  0  0  0  0  0  0  0
    4.7862   -1.0378    1.4108 H   0  0  0  0  0  0  0  0  0  0  0  0
  1  2  1  0
  2  3  1  0
  3  4  1  0
  4  5  1  0
  3  6  1  0
  6  7  2  0
  6  8  1  0
  8  9  1  0
  9 10  1  0
 10 11  1  0
 11 12  1  0
 12 13  1  0
 11  9  1  0
  1 14  1  0
  1 15  1  0
  1 16  1  0
  3 17  1  6
  4 18  1  0
  4 19  1  0
  5 20  1  0
  5 21  1  0
  8 22  1  0
  9 23  1  1
 10 24  1  0
 10 25  1  0
 11 26  1  6
 12 27  1  0
 12 28  1  0
 13 29  1  0
M  END
$$$$

     RDKit          3D

 29 29  0  0  0  0  0  0  0  0999 V2000
   -2.7336    1.3790   -0.9534 C   0  0  0  0  0  0  0  0  0  0  0  0
   -2.2858    0.4708   -0.0049 O   0  0  0  0  0  0  0  0  0  0  0  0
   -1.9331   -0.7557   -0.5590 C   0  0  2  0  0  0  0  0  0  0  0  0
   -2.6212   -1.9078    0.1220 C   0  0  0  0  0  0  0  0  0  0  0  0
   -4.0459   -1.8085    0.0303 N   0  0  0  0  0  0  0  0  0  0  0  0
   -0.4687   -0.9236   -0.3309 C   0  0  0  0  0  0  0  0  0  0  0  0
    0.1159   -1.9496   -0.7323 O   0  0  0  0  0  0  0  0  0  0  0  0
    0.3217    0.0543    0.3409 N   0  0  0  0  0  0  0  0  0  0  0  0
    1.7318   -0.1150    0.5566 C   0  0  2  0  0  0  0  0  0  0  0  0
    2.3383    0.4110    1.8669 C   0  0  0  0  0  0  0  0  0  0  0  0
    2.6752    1.0268    0.5285 C   0  0  1  0  0  0  0  0  0  0  0  0
    4.1060    0.8217    0.1115 C   0  0  0  0  0  0  0  0  0  0  0  0
    4.7404    2.0612    0.1845 O   0  0  0  0  0  0  0  0  0  0  0  0
   -2.9849    2.3121   -0.4081 H   0  0  0  0  0  0  0  0  0  0  0  0
   -3.6575    1.0045   -1.3974 H   0  0  0  0  0  0  0  0  0  0  0  0
   -1.9543    1.6434   -1.6954 H   0  0  0  0  0  0  0  0  0  0  0  0
   -2.0822   -0.7618   -1.6592 H   0  0  0  0  0  0  0  0  0  0  0  0
   -2.2469   -1.9623    1.1677 H   0  0  0  0  0  0  0  0  0  0  0  0
   -2.3165   -2.8316   -0.4246 H   0  0  0  0  0  0  0  0  0  0  0  0
   -4.5069   -2.7447   -0.0025 H   0  0  0  0  0  0  0  0  0  0  0  0
   -4.4021   -1.1615   -0.6808 H   0  0  0  0  0  0  0  0  0  0  0  0
   -0.1943    0.9089    0.6690 H   0  0  0  0  0  0  0  0  0  0  0  0
    2.1404   -1.0690    0.1544 H   0  0  0  0  0  0  0  0  0  0  0  0
    3.0467   -0.2469    2.3655 H   0  0  0  0  0  0  0  0  0  0  0  0
    1.5944    0.9598    2.4861 H   0  0  0  0  0  0  0  0  0  0  0  0
    2.2681    2.0219    0.2627 H   0  0  0  0  0  0  0  0  0  0  0  0
    4.6626    0.1511    0.8078 H   0  0  0  0  0  0  0  0  0  0  0  0
    4.2068    0.4668   -0.9339 H   0  0  0  0  0  0  0  0  0  0  0  0
    4.4858    2.5449   -0.6518 H   0  0  0  0  0  0  0  0  0  0  0  0
  1  2  1  0
  2  3  1  0
  3  4  1  0
  4  5  1  0
  3  6  1  0
  6  7  2  0
  6  8  1  0
  8  9  1  0
  9 10  1  0
 10 11  1  0
 11 12  1  0
 12 13  1  0
 11  9  1  0
  1 14  1  0
  1 15  1  0
  1 16  1  0
  3 17  1  6
  4 18  1  0
  4 19  1  0
  5 20  1  0
  5 21  1  0
  8 22  1  0
  9 23  1  6
 10 24  1  0
 10 25  1  0
 11 26  1  1
 12 27  1  0
 12 28  1  0
 13 29  1  0
M  END
$$$$

     RDKit          3D

 29 29  0  0  0  0  0  0  0  0999 V2000
   -3.6963    1.5062   -1.4752 C   0  0  0  0  0  0  0  0  0  0  0  0
   -2.8592    1.4929   -0.4251 O   0  0  0  0  0  0  0  0  0  0  0  0
   -2.2282    0.3450   -0.0640 C   0  0  2  0  0  0  0  0  0  0  0  0
   -2.4410   -0.0911    1.3432 C   0  0  0  0  0  0  0  0  0  0  0  0
   -1.7584   -1.3230    1.6493 N   0  0  0  0  0  0  0  0  0  0  0  0
   -0.7831    0.5928   -0.2597 C   0  0  0  0  0  0  0  0  0  0  0  0
   -0.4178    1.7538   -0.5891 O   0  0  0  0  0  0  0  0  0  0  0  0
    0.2545   -0.3622   -0.1135 N   0  0  0  0  0  0  0  0  0  0  0  0
    1.6581   -0.0141   -0.3268 C   0  0  2  0  0  0  0  0  0  0  0  0
    2.4409   -1.0692   -1.0555 C   0  0  0  0  0  0  0  0  0  0  0  0
    2.7220   -0.7524    0.4190 C   0  0  1  0  0  0  0  0  0  0  0  0
    4.0251   -0.0453    0.7134 C   0  0  0  0  0  0  0  0  0  0  0  0
    4.6156    0.3244   -0.4939 O   0  0  0  0  0  0  0  0  0  0  0  0
   -4.1001    2.5355   -1.5947 H   0  0  0  0  0  0  0  0  0  0  0  0
   -4.5690    0.8380   -1.4370 H   0  0  0  0  0  0  0  0  0  0  0  0
   -3.1634    1.2837   -2.4282 H   0  0  0  0  0  0  0  0  0  0  0  0
   -2.5180   -0.4823   -0.7424 H   0  0  0  0  0  0  0  0  0  0  0  0
   -3.4842   -0.2169    1.6524 H   0  0  0  0  0  0  0  0  0  0  0  0
   -2.0095    0.6721    2.0568 H   0  0  0  0  0  0  0  0  0  0  0  0
   -1.9506   -1.6368    2.6229 H   0  0  0  0  0  0  0  0  0  0  0  0
   -2.1530   -2.0608    0.9917 H   0  0  0  0  0  0  0  0  0  0  0  0
   -0.0311   -1.3273    0.1443 H   0  0  0  0  0  0  0  0  0  0  0  0
    1.9045    1.0193   -0.6084 H   0  0  0  0  0  0  0  0  0  0  0  0
    3.2146   -0.7795   -1.7979 H   0  0  0  0  0  0  0  0  0  0  0  0
    1.9798   -2.0500   -1.2895 H   0  0  0  0  0  0  0  0  0  0  0  0
    2.4278   -1.5681    1.1183 H   0  0  0  0  0  0  0  0  0  0  0  0
    3.7640    0.8620    1.3061 H   0  0  0  0  0  0  0  0  0  0  0  0
    4.6608   -0.7444    1.2946 H   0  0  0  0  0  0  0  0  0  0  0  0
    4.4950    1.2978   -0.6112 H   0  0  0  0  0  0  0  0  0  0  0  0
  1  2  1  0
  2  3  1  0
  3  4  1  0
  4  5  1  0
  3  6  1  0
  6  7  2  0
  6  8  1  0
  8  9  1  0
  9 10  1  0
 10 11  1  0
 11 12  1  0
 12 13  1  0
 11  9  1  0
  1 14  1  0
  1 15  1  0
  1 16  1  0
  3 17  1  6
  4 18  1  0
  4 19  1  0
  5 20  1  0
  5 21  1  0
  8 22  1  0
  9 23  1  6
 10 24  1  0
 10 25  1  0
 11 26  1  1
 12 27  1  0
 12 28  1  0
 13 29  1  0
M  END
$$$$

     RDKit          3D

 29 29  0  0  0  0  0  0  0  0999 V2000
   -2.3777    2.0678   -1.2413 C   0  0  0  0  0  0  0  0  0  0  0  0
   -2.1002    1.3246   -0.1048 O   0  0  0  0  0  0  0  0  0  0  0  0
   -2.1918   -0.0276   -0.2815 C   0  0  2  0  0  0  0  0  0  0  0  0
   -3.1898   -0.6695    0.6620 C   0  0  0  0  0  0  0  0  0  0  0  0
   -3.2828   -2.0823    0.4744 N   0  0  0  0  0  0  0  0  0  0  0  0
   -0.8649   -0.6403   -0.0071 C   0  0  0  0  0  0  0  0  0  0  0  0
   -0.6787   -1.8951   -0.1008 O   0  0  0  0  0  0  0  0  0  0  0  0
    0.2686    0.1322    0.3739 N   0  0  0  0  0  0  0  0  0  0  0  0
    1.5670   -0.4713    0.6419 C   0  0  2  0  0  0  0  0  0  0  0  0
    2.3848    0.1893    1.7648 C   0  0  0  0  0  0  0  0  0  0  0  0
    2.7503    0.3819    0.3382 C   0  0  1  0  0  0  0  0  0  0  0  0
    3.9577   -0.3665   -0.1917 C   0  0  0  0  0  0  0  0  0  0  0  0
    4.9585    0.5553   -0.4214 O   0  0  0  0  0  0  0  0  0  0  0  0
   -3.3790    1.9169   -1.6419 H   0  0  0  0  0  0  0  0  0  0  0  0
   -2.2096    3.1456   -0.9511 H   0  0  0  0  0  0  0  0  0  0  0  0
   -1.5599    1.8492   -1.9694 H   0  0  0  0  0  0  0  0  0  0  0  0
   -2.4787   -0.2931   -1.3279 H   0  0  0  0  0  0  0  0  0  0  0  0
   -4.1924   -0.1949    0.5245 H   0  0  0  0  0  0  0  0  0  0  0  0
   -2.8965   -0.4600    1.7036 H   0  0  0  0  0  0  0  0  0  0  0  0
   -4.2184   -2.4772    0.7293 H   0  0  0  0  0  0  0  0  0  0  0  0
   -2.9555   -2.4101   -0.4591 H   0  0  0  0  0  0  0  0  0  0  0  0
    0.1419    1.1650    0.4579 H   0  0  0  0  0  0  0  0  0  0  0  0
    1.6323   -1.5598    0.5359 H   0  0  0  0  0  0  0  0  0  0  0  0
    1.9014    1.0511    2.2892 H   0  0  0  0  0  0  0  0  0  0  0  0
    2.9804   -0.4471    2.4248 H   0  0  0  0  0  0  0  0  0  0  0  0
    2.5792    1.4014   -0.0849 H   0  0  0  0  0  0  0  0  0  0  0  0
    4.3193   -1.1172    0.5524 H   0  0  0  0  0  0  0  0  0  0  0  0
    3.7034   -0.8934   -1.1369 H   0  0  0  0  0  0  0  0  0  0  0  0
    5.4309    0.8250    0.3927 H   0  0  0  0  0  0  0  0  0  0  0  0
  1  2  1  0
  2  3  1  0
  3  4  1  0
  4  5  1  0
  3  6  1  0
  6  7  2  0
  6  8  1  0
  8  9  1  0
  9 10  1  0
 10 11  1  0
 11 12  1  0
 12 13  1  0
 11  9  1  0
  1 14  1  0
  1 15  1  0
  1 16  1  0
  3 17  1  6
  4 18  1  0
  4 19  1  0
  5 20  1  0
  5 21  1  0
  8 22  1  0
  9 23  1  1
 10 24  1  0
 10 25  1  0
 11 26  1  6
 12 27  1  0
 12 28  1  0
 13 29  1  0
M  END
$$$$
