
     RDKit          3D

 24 25  0  0  0  0  0  0  0  0999 V2000
   -2.6267    1.1594   -0.7818 C   0  0  0  0  0  0  0  0  0  0  0  0
   -2.0511    0.1759    0.1017 N   0  0  0  0  0  0  0  0  0  0  0  0
   -2.7995   -0.4981    0.9915 N   0  0  0  0  0  0  0  0  0  0  0  0
   -2.0157   -1.3491    1.6850 C   0  0  0  0  0  0  0  0  0  0  0  0
   -0.7719   -1.1712    1.1897 N   0  0  0  0  0  0  0  0  0  0  0  0
   -0.7811   -0.2435    0.2235 C   0  0  0  0  0  0  0  0  0  0  0  0
    0.1664    0.2168   -0.4929 N   0  0  0  0  0  0  0  0  0  0  0  0
    1.5356   -0.1560   -0.4444 C   0  0  0  0  0  0  0  0  0  0  0  0
    2.4399    0.9230    0.0261 C   0  0  0  0  0  0  0  0  0  0  0  0
    1.9360    2.1970    0.3845 N   0  0  0  0  0  0  0  0  0  0  0  0
    3.6759    0.7285    0.1168 O   0  0  0  0  0  0  0  0  0  0  0  0
    2.0052   -1.1422   -1.4455 C   0  0  0  0  0  0  0  0  0  0  0  0
    1.9594   -1.5227   -0.0011 C   0  0  0  0  0  0  0  0  0  0  0  0
   -2.8398    2.1179   -0.2527 H   0  0  0  0  0  0  0  0  0  0  0  0
   -1.9375    1.3818   -1.6412 H   0  0  0  0  0  0  0  0  0  0  0  0
   -3.5720    0.7552   -1.2308 H   0  0  0  0  0  0  0  0  0  0  0  0
   -3.8390   -0.3890    1.1364 H   0  0  0  0  0  0  0  0  0  0  0  0
   -2.3492   -2.0221    2.4706 H   0  0  0  0  0  0  0  0  0  0  0  0
    1.0977    2.3490    0.9895 H   0  0  0  0  0  0  0  0  0  0  0  0
    2.4068    3.0699    0.0405 H   0  0  0  0  0  0  0  0  0  0  0  0
    1.2332   -1.5919   -2.1014 H   0  0  0  0  0  0  0  0  0  0  0  0
    3.0245   -1.0868   -1.8788 H   0  0  0  0  0  0  0  0  0  0  0  0
    2.9207   -1.6532    0.5523 H   0  0  0  0  0  0  0  0  0  0  0  0
    1.1821   -2.2487    0.3626 H   0  0  0  0  0  0  0  0  0  0  0  0
  1  2  1  0
  2  3  1  0
  3  4  1  0
  4  5  2  0
  5  6  1  0
  6  7  2  3
  7  8  1  0
  8  9  1  0
  9 10  1  0
  9 11  2  0
  8 12  1  0
 12 13  1  0
  6  2  1  0
 13  8  1  0
  1 14  1  0
  1 15  1  0
  1 16  1  0
  3 17  1  0
  4 18  1  0
 10 19  1  0
 10 20  1  0
 12 21  1  0
 12 22  1  0
 13 23  1  0
 13 24  1  0
M  END
$$$$

     RDKit          3D

 24 25  0  0  0  0  0  0  0  0999 V2000
    2.6772    1.7711   -0.1473 C   0  0  0  0  0  0  0  0  0  0  0  0
    2.3222    0.3652   -0.0959 N   0  0  0  0  0  0  0  0  0  0  0  0
    3.2167   -0.5960   -0.0143 N   0  0  0  0  0  0  0  0  0  0  0  0
    2.6028   -1.7834    0.0146 C   0  0  0  0  0  0  0  0  0  0  0  0
    1.2904   -1.5103   -0.0530 N   0  0  0  0  0  0  0  0  0  0  0  0
    1.0840   -0.1985   -0.1218 C   0  0  0  0  0  0  0  0  0  0  0  0
    0.0370    0.5073   -0.1952 N   0  0  0  0  0  0  0  0  0  0  0  0
   -1.3296    0.1086   -0.2341 C   0  0  0  0  0  0  0  0  0  0  0  0
   -2.2484    0.8635   -1.1247 C   0  0  0  0  0  0  0  0  0  0  0  0
   -3.5959    0.4773   -1.2663 N   0  0  0  0  0  0  0  0  0  0  0  0
   -1.8202    1.8492   -1.7516 O   0  0  0  0  0  0  0  0  0  0  0  0
   -1.9964   -0.2709    1.1301 C   0  0  0  0  0  0  0  0  0  0  0  0
   -1.6878   -1.3002    0.0526 C   0  0  0  0  0  0  0  0  0  0  0  0
    3.0061    2.1120    0.8584 H   0  0  0  0  0  0  0  0  0  0  0  0
    1.8152    2.3405   -0.5325 H   0  0  0  0  0  0  0  0  0  0  0  0
    3.4954    1.9347   -0.9017 H   0  0  0  0  0  0  0  0  0  0  0  0
    4.2655   -0.5228    0.0273 H   0  0  0  0  0  0  0  0  0  0  0  0
    3.0567   -2.7750    0.0807 H   0  0  0  0  0  0  0  0  0  0  0  0
   -4.2342    0.6416   -0.4551 H   0  0  0  0  0  0  0  0  0  0  0  0
   -4.0216    0.0380   -2.1121 H   0  0  0  0  0  0  0  0  0  0  0  0
   -3.0962   -0.0735    1.2078 H   0  0  0  0  0  0  0  0  0  0  0  0
   -1.3678   -0.2130    2.0202 H   0  0  0  0  0  0  0  0  0  0  0  0
   -2.5175   -1.7254   -0.5506 H   0  0  0  0  0  0  0  0  0  0  0  0
   -0.9535   -2.0398    0.3979 H   0  0  0  0  0  0  0  0  0  0  0  0
  1  2  1  0
  2  3  1  0
  3  4  1  0
  4  5  2  0
  5  6  1  0
  6  7  2  3
  7  8  1  0
  8  9  1  0
  9 10  1  0
  9 11  2  0
  8 12  1  0
 12 13  1  0
  6  2  1  0
 13  8  1  0
  1 14  1  0
  1 15  1  0
  1 16  1  0
  3 17  1  0
  4 18  1  0
 10 19  1  0
 10 20  1  0
 12 21  1  0
 12 22  1  0
 13 23  1  0
 13 24  1  0
M  END
$$$$

     RDKit          3D

 24 25  0  0  0  0  0  0  0  0999 V2000
   -2.9471   -1.0465    1.0201 C   0  0  0  0  0  0  0  0  0  0  0  0
   -2.2508    0.0068    0.3265 N   0  0  0  0  0  0  0  0  0  0  0  0
   -2.8463    1.0727   -0.1929 N   0  0  0  0  0  0  0  0  0  0  0  0
   -1.9258    1.8705   -0.7737 C   0  0  0  0  0  0  0  0  0  0  0  0
   -0.7355    1.2301   -0.5785 N   0  0  0  0  0  0  0  0  0  0  0  0
   -0.9341    0.0966    0.0908 C   0  0  0  0  0  0  0  0  0  0  0  0
   -0.0806   -0.7842    0.4698 N   0  0  0  0  0  0  0  0  0  0  0  0
    1.3303   -0.5375    0.1322 C   0  0  0  0  0  0  0  0  0  0  0  0
    2.0298    0.4562    0.9495 C   0  0  0  0  0  0  0  0  0  0  0  0
    3.2322    1.0843    0.5543 N   0  0  0  0  0  0  0  0  0  0  0  0
    1.5444    0.7725    2.0594 O   0  0  0  0  0  0  0  0  0  0  0  0
    1.5608   -0.5700   -1.3678 C   0  0  0  0  0  0  0  0  0  0  0  0
    2.1398   -1.6131   -0.4761 C   0  0  0  0  0  0  0  0  0  0  0  0
   -2.2844   -1.7912    1.4665 H   0  0  0  0  0  0  0  0  0  0  0  0
   -3.6269   -1.5303    0.2697 H   0  0  0  0  0  0  0  0  0  0  0  0
   -3.5380   -0.5693    1.8267 H   0  0  0  0  0  0  0  0  0  0  0  0
   -3.8597    1.2637   -0.1586 H   0  0  0  0  0  0  0  0  0  0  0  0
   -2.1103    2.8005   -1.2735 H   0  0  0  0  0  0  0  0  0  0  0  0
    3.7228    0.7620   -0.3134 H   0  0  0  0  0  0  0  0  0  0  0  0
    3.6649    1.8536    1.0749 H   0  0  0  0  0  0  0  0  0  0  0  0
    2.1684    0.2706   -1.7503 H   0  0  0  0  0  0  0  0  0  0  0  0
    0.7740   -0.9016   -2.0402 H   0  0  0  0  0  0  0  0  0  0  0  0
    3.2269   -1.5599   -0.3329 H   0  0  0  0  0  0  0  0  0  0  0  0
    1.7450   -2.6365   -0.5294 H   0  0  0  0  0  0  0  0  0  0  0  0
  1  2  1  0
  2  3  1  0
  3  4  1  0
  4  5  2  0
  5  6  1  0
  6  7  2  3
  7  8  1  0
  8  9  1  0
  9 10  1  0
  9 11  2  0
  8 12  1  0
 12 13  1  0
  6  2  1  0
 13  8  1  0
  1 14  1  0
  1 15  1  0
  1 16  1  0
  3 17  1  0
  4 18  1  0
 10 19  1  0
 10 20  1  0
 12 21  1  0
 12 22  1  0
 13 23  1  0
 13 24  1  0
M  END
$$$$

     RDKit          3D

 24 25  0  0  0  0  0  0  0  0999 V2000
   -2.4331    1.7498   -0.7791 C   0  0  0  0  0  0  0  0  0  0  0  0
   -2.3035    0.4625   -0.1171 N   0  0  0  0  0  0  0  0  0  0  0  0
   -3.2580   -0.3378    0.3029 N   0  0  0  0  0  0  0  0  0  0  0  0
   -2.7340   -1.4350    0.8670 C   0  0  0  0  0  0  0  0  0  0  0  0
   -1.4041   -1.2896    0.7832 N   0  0  0  0  0  0  0  0  0  0  0  0
   -1.1149   -0.1287    0.1807 C   0  0  0  0  0  0  0  0  0  0  0  0
   -0.0028    0.4019   -0.1026 N   0  0  0  0  0  0  0  0  0  0  0  0
    1.3155   -0.0781    0.1353 C   0  0  0  0  0  0  0  0  0  0  0  0
    2.3722    0.7702   -0.5302 C   0  0  0  0  0  0  0  0  0  0  0  0
    3.7260    0.6604   -0.1110 N   0  0  0  0  0  0  0  0  0  0  0  0
    2.0963    1.5768   -1.4505 O   0  0  0  0  0  0  0  0  0  0  0  0
    1.7111   -0.6546    1.4416 C   0  0  0  0  0  0  0  0  0  0  0  0
    1.5270   -1.5235    0.2497 C   0  0  0  0  0  0  0  0  0  0  0  0
   -1.5185    2.3770   -0.5711 H   0  0  0  0  0  0  0  0  0  0  0  0
   -3.2835    2.3217   -0.3801 H   0  0  0  0  0  0  0  0  0  0  0  0
   -2.4553    1.5731   -1.8551 H   0  0  0  0  0  0  0  0  0  0  0  0
   -4.2773   -0.1271    0.1995 H   0  0  0  0  0  0  0  0  0  0  0  0
   -3.2898   -2.2795    1.3067 H   0  0  0  0  0  0  0  0  0  0  0  0
    4.2468    1.5274    0.1332 H   0  0  0  0  0  0  0  0  0  0  0  0
    4.2159   -0.2444   -0.0390 H   0  0  0  0  0  0  0  0  0  0  0  0
    0.9787   -0.6215    2.2491 H   0  0  0  0  0  0  0  0  0  0  0  0
    2.7799   -0.5287    1.7594 H   0  0  0  0  0  0  0  0  0  0  0  0
    2.4241   -1.9386   -0.2593 H   0  0  0  0  0  0  0  0  0  0  0  0
    0.6815   -2.2338    0.2192 H   0  0  0  0  0  0  0  0  0  0  0  0
  1  2  1  0
  2  3  1  0
  3  4  1  0
  4  5  2  0
  5  6  1  0
  6  7  2  3
  7  8  1  0
  8  9  1  0
  9 10  1  0
  9 11  2  0
  8 12  1  0
 12 13  1  0
  6  2  1  0
 13  8  1  0
  1 14  1  0
  1 15  1  0
  1 16  1  0
  3 17  1  0
  4 18  1  0
 10 19  1  0
 10 20  1  0
 12 21  1  0
 12 22  1  0
 13 23  1  0
 13 24  1  0
M  END
$$$$

     RDKit          3D

 24 25  0  0  0  0  0  0  0  0999 V2000
    2.6492   -1.1890   -1.0358 C   0  0  0  0  0  0  0  0  0  0  0  0
    2.0756    0.0686   -0.5560 N   0  0  0  0  0  0  0  0  0  0  0  0
    2.7643    1.1784   -0.4376 N   0  0  0  0  0  0  0  0  0  0  0  0
    1.9514    2.1132    0.0926 C   0  0  0  0  0  0  0  0  0  0  0  0
    0.7710    1.5808    0.3055 N   0  0  0  0  0  0  0  0  0  0  0  0
    0.8195    0.3047   -0.0917 C   0  0  0  0  0  0  0  0  0  0  0  0
   -0.0645   -0.5810   -0.1205 N   0  0  0  0  0  0  0  0  0  0  0  0
   -1.4019   -0.5882    0.2887 C   0  0  0  0  0  0  0  0  0  0  0  0
   -2.0679    0.7004    0.6931 C   0  0  0  0  0  0  0  0  0  0  0  0
   -1.9040    1.8307   -0.1496 N   0  0  0  0  0  0  0  0  0  0  0  0
   -2.7438    0.8083    1.7266 O   0  0  0  0  0  0  0  0  0  0  0  0
   -2.4492   -1.3912   -0.5237 C   0  0  0  0  0  0  0  0  0  0  0  0
   -1.9627   -1.9100    0.7669 C   0  0  0  0  0  0  0  0  0  0  0  0
    2.1546   -1.6447   -1.8761 H   0  0  0  0  0  0  0  0  0  0  0  0
    3.7365   -1.0171   -1.2872 H   0  0  0  0  0  0  0  0  0  0  0  0
    2.7316   -1.8785   -0.1393 H   0  0  0  0  0  0  0  0  0  0  0  0
    3.7760    1.3197   -0.7250 H   0  0  0  0  0  0  0  0  0  0  0  0
    2.2334    3.1679    0.3090 H   0  0  0  0  0  0  0  0  0  0  0  0
   -1.5104    2.7521    0.0992 H   0  0  0  0  0  0  0  0  0  0  0  0
   -2.2470    1.7231   -1.1450 H   0  0  0  0  0  0  0  0  0  0  0  0
   -3.4950   -0.9746   -0.6208 H   0  0  0  0  0  0  0  0  0  0  0  0
   -2.0543   -1.6751   -1.5154 H   0  0  0  0  0  0  0  0  0  0  0  0
   -2.5733   -1.9622    1.6717 H   0  0  0  0  0  0  0  0  0  0  0  0
   -1.1894   -2.7362    0.6850 H   0  0  0  0  0  0  0  0  0  0  0  0
  1  2  1  0
  2  3  1  0
  3  4  1  0
  4  5  2  0
  5  6  1  0
  6  7  2  3
  7  8  1  0
  8  9  1  0
  9 10  1  0
  9 11  2  0
  8 12  1  0
 12 13  1  0
  6  2  1  0
 13  8  1  0
  1 14  1  0
  1 15  1  0
  1 16  1  0
  3 17  1  0
  4 18  1  0
 10 19  1  0
 10 20  1  0
 12 21  1  0
 12 22  1  0
 13 23  1  0
 13 24  1  0
M  END
$$$$

     RDKit          3D

 24 25  0  0  0  0  0  0  0  0999 V2000
    2.5373    1.0356    1.6037 C   0  0  0  0  0  0  0  0  0  0  0  0
    2.2095    0.3850    0.3492 N   0  0  0  0  0  0  0  0  0  0  0  0
    3.1219    0.0839   -0.5483 N   0  0  0  0  0  0  0  0  0  0  0  0
    2.4960   -0.5341   -1.6042 C   0  0  0  0  0  0  0  0  0  0  0  0
    1.2207   -0.5709   -1.2772 N   0  0  0  0  0  0  0  0  0  0  0  0
    0.9840   -0.0138   -0.0776 C   0  0  0  0  0  0  0  0  0  0  0  0
   -0.0983    0.1073    0.5308 N   0  0  0  0  0  0  0  0  0  0  0  0
   -1.4293   -0.2272    0.2542 C   0  0  0  0  0  0  0  0  0  0  0  0
   -2.2722    0.9053   -0.1944 C   0  0  0  0  0  0  0  0  0  0  0  0
   -2.7883    1.0807   -1.5209 N   0  0  0  0  0  0  0  0  0  0  0  0
   -2.5303    1.7584    0.7289 O   0  0  0  0  0  0  0  0  0  0  0  0
   -2.1464   -1.1916    1.1678 C   0  0  0  0  0  0  0  0  0  0  0  0
   -1.7894   -1.6022   -0.2071 C   0  0  0  0  0  0  0  0  0  0  0  0
    1.6409    1.6010    1.9855 H   0  0  0  0  0  0  0  0  0  0  0  0
    2.9686    0.3803    2.3763 H   0  0  0  0  0  0  0  0  0  0  0  0
    3.3490    1.8221    1.4136 H   0  0  0  0  0  0  0  0  0  0  0  0
    4.1352    0.2570   -0.5582 H   0  0  0  0  0  0  0  0  0  0  0  0
    2.9108   -0.8835   -2.5256 H   0  0  0  0  0  0  0  0  0  0  0  0
   -2.3871    0.6879   -2.3798 H   0  0  0  0  0  0  0  0  0  0  0  0
   -3.6919    1.6504   -1.6121 H   0  0  0  0  0  0  0  0  0  0  0  0
   -3.2454   -1.0409    1.3235 H   0  0  0  0  0  0  0  0  0  0  0  0
   -1.6546   -1.6098    2.0393 H   0  0  0  0  0  0  0  0  0  0  0  0
   -0.9772   -2.3431   -0.2873 H   0  0  0  0  0  0  0  0  0  0  0  0
   -2.5636   -1.7380   -0.9800 H   0  0  0  0  0  0  0  0  0  0  0  0
  1  2  1  0
  2  3  1  0
  3  4  1  0
  4  5  2  0
  5  6  1  0
  6  7  2  3
  7  8  1  0
  8  9  1  0
  9 10  1  0
  9 11  2  0
  8 12  1  0
 12 13  1  0
  6  2  1  0
 13  8  1  0
  1 14  1  0
  1 15  1  0
  1 16  1  0
  3 17  1  0
  4 18  1  0
 10 19  1  0
 10 20  1  0
 12 21  1  0
 12 22  1  0
 13 23  1  0
 13 24  1  0
M  END
$$$$

     RDKit          3D

 24 25  0  0  0  0  0  0  0  0999 V2000
    2.2915    1.8970   -0.3279 C   0  0  0  0  0  0  0  0  0  0  0  0
    2.0862    0.4899   -0.0571 N   0  0  0  0  0  0  0  0  0  0  0  0
    3.0454   -0.4148    0.0786 N   0  0  0  0  0  0  0  0  0  0  0  0
    2.4720   -1.6129    0.3231 C   0  0  0  0  0  0  0  0  0  0  0  0
    1.1532   -1.3850    0.3268 N   0  0  0  0  0  0  0  0  0  0  0  0
    0.8868   -0.0923    0.0940 C   0  0  0  0  0  0  0  0  0  0  0  0
   -0.2841    0.4300    0.0373 N   0  0  0  0  0  0  0  0  0  0  0  0
   -1.5139   -0.2974    0.2167 C   0  0  0  0  0  0  0  0  0  0  0  0
   -2.7025    0.6009    0.2879 C   0  0  0  0  0  0  0  0  0  0  0  0
   -2.6547    2.0066    0.1931 N   0  0  0  0  0  0  0  0  0  0  0  0
   -3.8220    0.0534    0.4438 O   0  0  0  0  0  0  0  0  0  0  0  0
   -1.6255   -1.6360   -0.4044 C   0  0  0  0  0  0  0  0  0  0  0  0
   -1.5912   -1.4939    1.0941 C   0  0  0  0  0  0  0  0  0  0  0  0
    2.2478    2.5185    0.5959 H   0  0  0  0  0  0  0  0  0  0  0  0
    1.5610    2.2678   -1.0898 H   0  0  0  0  0  0  0  0  0  0  0  0
    3.3033    2.0545   -0.7554 H   0  0  0  0  0  0  0  0  0  0  0  0
    4.0832   -0.2791    0.0168 H   0  0  0  0  0  0  0  0  0  0  0  0
    2.9564   -2.5797    0.4872 H   0  0  0  0  0  0  0  0  0  0  0  0
   -2.2570    2.5528    0.9744 H   0  0  0  0  0  0  0  0  0  0  0  0
   -3.0085    2.5002   -0.6398 H   0  0  0  0  0  0  0  0  0  0  0  0
   -2.5783   -1.9937   -0.8467 H   0  0  0  0  0  0  0  0  0  0  0  0
   -0.7437   -2.0230   -0.9532 H   0  0  0  0  0  0  0  0  0  0  0  0
   -2.5668   -1.7057    1.6218 H   0  0  0  0  0  0  0  0  0  0  0  0
   -0.7386   -1.8582    1.6816 H   0  0  0  0  0  0  0  0  0  0  0  0
  1  2  1  0
  2  3  1  0
  3  4  1  0
  4  5  2  0
  5  6  1  0
  6  7  2  3
  7  8  1  0
  8  9  1  0
  9 10  1  0
  9 11  2  0
  8 12  1  0
 12 13  1  0
  6  2  1  0
 13  8  1  0
  1 14  1  0
  1 15  1  0
  1 16  1  0
  3 17  1  0
  4 18  1  0
 10 19  1  0
 10 20  1  0
 12 21  1  0
 12 22  1  0
 13 23  1  0
 13 24  1  0
M  END
$$$$

     RDKit          3D

 24 25  0  0  0  0  0  0  0  0999 V2000
   -2.7827   -0.3923   -1.1648 C   0  0  0  0  0  0  0  0  0  0  0  0
   -2.0984    0.0882    0.0209 N   0  0  0  0  0  0  0  0  0  0  0  0
   -2.7260    0.6394    1.0429 N   0  0  0  0  0  0  0  0  0  0  0  0
   -1.7825    0.9583    1.9470 C   0  0  0  0  0  0  0  0  0  0  0  0
   -0.5894    0.5886    1.4467 N   0  0  0  0  0  0  0  0  0  0  0  0
   -0.7674    0.0376    0.2321 C   0  0  0  0  0  0  0  0  0  0  0  0
    0.1352   -0.4473   -0.5829 N   0  0  0  0  0  0  0  0  0  0  0  0
    1.5030   -0.3954   -0.1449 C   0  0  0  0  0  0  0  0  0  0  0  0
    2.3069    0.7095   -0.6945 C   0  0  0  0  0  0  0  0  0  0  0  0
    1.8420    1.6911   -1.5939 N   0  0  0  0  0  0  0  0  0  0  0  0
    3.5115    0.7881   -0.3334 O   0  0  0  0  0  0  0  0  0  0  0  0
    1.7993   -0.9945    1.1730 C   0  0  0  0  0  0  0  0  0  0  0  0
    2.2873   -1.7135   -0.0609 C   0  0  0  0  0  0  0  0  0  0  0  0
   -3.0352    0.4251   -1.8531 H   0  0  0  0  0  0  0  0  0  0  0  0
   -3.6528   -0.9734   -0.8158 H   0  0  0  0  0  0  0  0  0  0  0  0
   -2.1175   -1.1059   -1.7146 H   0  0  0  0  0  0  0  0  0  0  0  0
   -3.7670    0.8085    1.1532 H   0  0  0  0  0  0  0  0  0  0  0  0
   -2.0209    1.4298    2.8926 H   0  0  0  0  0  0  0  0  0  0  0  0
    2.2086    2.6624   -1.5387 H   0  0  0  0  0  0  0  0  0  0  0  0
    1.1283    1.5131   -2.3434 H   0  0  0  0  0  0  0  0  0  0  0  0
    0.9817   -1.5161    1.6937 H   0  0  0  0  0  0  0  0  0  0  0  0
    2.5243   -0.5196    1.8517 H   0  0  0  0  0  0  0  0  0  0  0  0
    1.7382   -2.5925   -0.4216 H   0  0  0  0  0  0  0  0  0  0  0  0
    3.3737   -1.6894   -0.1913 H   0  0  0  0  0  0  0  0  0  0  0  0
  1  2  1  0
  2  3  1  0
  3  4  1  0
  4  5  2  0
  5  6  1  0
  6  7  2  3
  7  8  1  0
  8  9  1  0
  9 10  1  0
  9 11  2  0
  8 12  1  0
 12 13  1  0
  6  2  1  0
 13  8  1  0
  1 14  1  0
  1 15  1  0
  1 16  1  0
  3 17  1  0
  4 18  1  0
 10 19  1  0
 10 20  1  0
 12 21  1  0
 12 22  1  0
 13 23  1  0
 13 24  1  0
M  END
$$$$
