
     RDKit          3D

 30 30  0  0  0  0  0  0  0  0999 V2000
    4.3978   -0.2068   -0.3980 C   0  0  0  0  0  0  0  0  0  0  0  0
    3.0228   -0.6420   -0.5709 N   0  0  0  0  0  0  0  0  0  0  0  0
    1.9851   -0.0204    0.1891 C   0  0  0  0  0  0  0  0  0  0  0  0
    2.3153    0.8795    0.9763 O   0  0  0  0  0  0  0  0  0  0  0  0
    0.6187   -0.3948    0.0717 N   0  0  0  0  0  0  0  0  0  0  0  0
   -0.4405    0.2102    0.8200 C   0  0  2  0  0  0  0  0  0  0  0  0
   -1.1305   -0.8352    1.6937 C   0  0  0  0  0  0  0  0  0  0  0  0
   -1.8325   -1.8500    0.8225 C   0  0  0  0  0  0  0  0  0  0  0  0
   -2.7866   -1.2664   -0.0759 N   0  0  0  0  0  0  0  0  0  0  0  0
   -2.2344   -0.2029   -0.8850 C   0  0  0  0  0  0  0  0  0  0  0  0
   -1.5118    0.8192   -0.0486 C   0  0  2  0  0  0  0  0  0  0  0  0
   -0.9837    1.8965   -0.9526 C   0  0  0  0  0  0  0  0  0  0  0  0
   -0.4119    2.9499   -0.2373 O   0  0  0  0  0  0  0  0  0  0  0  0
    4.7675   -0.3654    0.6261 H   0  0  0  0  0  0  0  0  0  0  0  0
    5.0160   -0.7966   -1.1026 H   0  0  0  0  0  0  0  0  0  0  0  0
    4.4818    0.8540   -0.7199 H   0  0  0  0  0  0  0  0  0  0  0  0
    2.7480   -1.4022   -1.2367 H   0  0  0  0  0  0  0  0  0  0  0  0
    0.3926   -1.1561   -0.6034 H   0  0  0  0  0  0  0  0  0  0  0  0
   -0.0907    1.0058    1.5061 H   0  0  0  0  0  0  0  0  0  0  0  0
   -1.8868   -0.3036    2.2797 H   0  0  0  0  0  0  0  0  0  0  0  0
   -0.3910   -1.3866    2.3015 H   0  0  0  0  0  0  0  0  0  0  0  0
   -1.1320   -2.4698    0.2328 H   0  0  0  0  0  0  0  0  0  0  0  0
   -2.3830   -2.5488    1.4850 H   0  0  0  0  0  0  0  0  0  0  0  0
   -3.6909   -1.0341    0.3472 H   0  0  0  0  0  0  0  0  0  0  0  0
   -1.5949   -0.5769   -1.7094 H   0  0  0  0  0  0  0  0  0  0  0  0
   -3.0883    0.3154   -1.3719 H   0  0  0  0  0  0  0  0  0  0  0  0
   -2.2541    1.2853    0.6316 H   0  0  0  0  0  0  0  0  0  0  0  0
   -0.2840    1.4984   -1.7196 H   0  0  0  0  0  0  0  0  0  0  0  0
   -1.8485    2.3102   -1.5113 H   0  0  0  0  0  0  0  0  0  0  0  0
    0.2304    3.4342   -0.8401 H   0  0  0  0  0  0  0  0  0  0  0  0
  1  2  1  0
  2  3  1  0
  3  4  2  0
  3  5  1  0
  5  6  1  0
  6  7  1  0
  7  8  1  0
  8  9  1  0
  9 10  1  0
 10 11  1  0
 11 12  1  0
 12 13  1  0
 11  6  1  0
  1 14  1  0
  1 15  1  0
  1 16  1  0
  2 17  1  0
  5 18  1  0
  6 19  1  1
  7 20  1  0
  7 21  1  0
  8 22  1  0
  8 23  1  0
  9 24  1  0
 10 25  1  0
 10 26  1  0
 11 27  1  1
 12 28  1  0
 12 29  1  0
 13 30  1  0
M  END
$$$$

     RDKit          3D

 30 30  0  0  0  0  0  0  0  0999 V2000
    4.7014   -0.7416    0.5002 C   0  0  0  0  0  0  0  0  0  0  0  0
    3.3856   -0.4717    1.0853 N   0  0  0  0  0  0  0  0  0  0  0  0
    2.2564   -0.2780    0.2606 C   0  0  0  0  0  0  0  0  0  0  0  0
    2.4473   -0.3507   -0.9962 O   0  0  0  0  0  0  0  0  0  0  0  0
    0.9522   -0.0129    0.7547 N   0  0  0  0  0  0  0  0  0  0  0  0
   -0.1147    0.1661   -0.1670 C   0  0  2  0  0  0  0  0  0  0  0  0
   -0.7379    1.5430   -0.0667 C   0  0  0  0  0  0  0  0  0  0  0  0
   -1.7789    1.6482   -1.1401 C   0  0  0  0  0  0  0  0  0  0  0  0
   -1.8374    0.4906   -2.0021 N   0  0  0  0  0  0  0  0  0  0  0  0
   -2.0453   -0.7399   -1.3022 C   0  0  0  0  0  0  0  0  0  0  0  0
   -1.2250   -0.8433   -0.0327 C   0  0  2  0  0  0  0  0  0  0  0  0
   -2.1169   -0.6065    1.1431 C   0  0  0  0  0  0  0  0  0  0  0  0
   -3.0979   -1.6026    1.1565 O   0  0  0  0  0  0  0  0  0  0  0  0
    4.6386   -0.5192   -0.6024 H   0  0  0  0  0  0  0  0  0  0  0  0
    4.9514   -1.7942    0.6506 H   0  0  0  0  0  0  0  0  0  0  0  0
    5.4492   -0.0704    0.9497 H   0  0  0  0  0  0  0  0  0  0  0  0
    3.2754   -0.4211    2.1148 H   0  0  0  0  0  0  0  0  0  0  0  0
    0.8466    0.0372    1.7974 H   0  0  0  0  0  0  0  0  0  0  0  0
    0.2736    0.0618   -1.1994 H   0  0  0  0  0  0  0  0  0  0  0  0
    0.0919    2.2680   -0.1944 H   0  0  0  0  0  0  0  0  0  0  0  0
   -1.1173    1.6725    0.9505 H   0  0  0  0  0  0  0  0  0  0  0  0
   -1.4664    2.5069   -1.8054 H   0  0  0  0  0  0  0  0  0  0  0  0
   -2.7818    1.9293   -0.7698 H   0  0  0  0  0  0  0  0  0  0  0  0
   -1.0679    0.4945   -2.6762 H   0  0  0  0  0  0  0  0  0  0  0  0
   -3.1256   -0.8730   -1.0959 H   0  0  0  0  0  0  0  0  0  0  0  0
   -1.7356   -1.5726   -1.9668 H   0  0  0  0  0  0  0  0  0  0  0  0
   -0.7968   -1.8606    0.0655 H   0  0  0  0  0  0  0  0  0  0  0  0
   -1.5781   -0.5816    2.1017 H   0  0  0  0  0  0  0  0  0  0  0  0
   -2.6687    0.3555    1.0374 H   0  0  0  0  0  0  0  0  0  0  0  0
   -3.9773   -1.2658    1.4493 H   0  0  0  0  0  0  0  0  0  0  0  0
  1  2  1  0
  2  3  1  0
  3  4  2  0
  3  5  1  0
  5  6  1  0
  6  7  1  0
  7  8  1  0
  8  9  1  0
  9 10  1  0
 10 11  1  0
 11 12  1  0
 12 13  1  0
 11  6  1  0
  1 14  1  0
  1 15  1  0
  1 16  1  0
  2 17  1  0
  5 18  1  0
  6 19  1  6
  7 20  1  0
  7 21  1  0
  8 22  1  0
  8 23  1  0
  9 24  1  0
 10 25  1  0
 10 26  1  0
 11 27  1  1
 12 28  1  0
 12 29  1  0
 13 30  1  0
M  END
$$$$

     RDKit          3D

 30 30  0  0  0  0  0  0  0  0999 V2000
    4.4971   -0.8250   -0.4571 C   0  0  0  0  0  0  0  0  0  0  0  0
    3.2259   -0.7989    0.2384 N   0  0  0  0  0  0  0  0  0  0  0  0
    2.0657   -0.1887   -0.3427 C   0  0  0  0  0  0  0  0  0  0  0  0
    2.2395    0.3163   -1.4922 O   0  0  0  0  0  0  0  0  0  0  0  0
    0.8098   -0.1517    0.3212 N   0  0  0  0  0  0  0  0  0  0  0  0
   -0.3130    0.4710   -0.3079 C   0  0  2  0  0  0  0  0  0  0  0  0
   -0.6912    1.6841    0.5327 C   0  0  0  0  0  0  0  0  0  0  0  0
   -1.8209    2.4233   -0.1541 C   0  0  0  0  0  0  0  0  0  0  0  0
   -2.9521    1.5689   -0.3682 N   0  0  0  0  0  0  0  0  0  0  0  0
   -2.7436    0.2506    0.1507 C   0  0  0  0  0  0  0  0  0  0  0  0
   -1.5152   -0.4224   -0.4251 C   0  0  2  0  0  0  0  0  0  0  0  0
   -1.3498   -1.7295    0.2962 C   0  0  0  0  0  0  0  0  0  0  0  0
   -0.2937   -2.4861   -0.1559 O   0  0  0  0  0  0  0  0  0  0  0  0
    4.4076   -0.4086   -1.4750 H   0  0  0  0  0  0  0  0  0  0  0  0
    5.2767   -0.2511    0.1166 H   0  0  0  0  0  0  0  0  0  0  0  0
    4.8644   -1.8685   -0.5075 H   0  0  0  0  0  0  0  0  0  0  0  0
    3.1690   -1.2311    1.1680 H   0  0  0  0  0  0  0  0  0  0  0  0
    0.7542   -0.5859    1.2542 H   0  0  0  0  0  0  0  0  0  0  0  0
   -0.0156    0.8629   -1.2953 H   0  0  0  0  0  0  0  0  0  0  0  0
   -0.9264    1.4071    1.5617 H   0  0  0  0  0  0  0  0  0  0  0  0
    0.1821    2.3622    0.5277 H   0  0  0  0  0  0  0  0  0  0  0  0
   -2.0781    3.3026    0.4513 H   0  0  0  0  0  0  0  0  0  0  0  0
   -1.4384    2.7575   -1.1440 H   0  0  0  0  0  0  0  0  0  0  0  0
   -3.3120    1.5473   -1.3300 H   0  0  0  0  0  0  0  0  0  0  0  0
   -2.6008    0.2821    1.2565 H   0  0  0  0  0  0  0  0  0  0  0  0
   -3.6067   -0.3950   -0.1086 H   0  0  0  0  0  0  0  0  0  0  0  0
   -1.7112   -0.6286   -1.5046 H   0  0  0  0  0  0  0  0  0  0  0  0
   -1.2963   -1.5150    1.3808 H   0  0  0  0  0  0  0  0  0  0  0  0
   -2.2909   -2.3056    0.1446 H   0  0  0  0  0  0  0  0  0  0  0  0
   -0.5363   -3.4441   -0.0242 H   0  0  0  0  0  0  0  0  0  0  0  0
  1  2  1  0
  2  3  1  0
  3  4  2  0
  3  5  1  0
  5  6  1  0
  6  7  1  0
  7  8  1  0
  8  9  1  0
  9 10  1  0
 10 11  1  0
 11 12  1  0
 12 13  1  0
 11  6  1  0
  1 14  1  0
  1 15  1  0
  1 16  1  0
  2 17  1  0
  5 18  1  0
  6 19  1  6
  7 20  1  0
  7 21  1  0
  8 22  1  0
  8 23  1  0
  9 24  1  0
 10 25  1  0
 10 26  1  0
 11 27  1  6
 12 28  1  0
 12 29  1  0
 13 30  1  0
M  END
$$$$

     RDKit          3D

 30 30  0  0  0  0  0  0  0  0999 V2000
    4.4595   -0.8114    0.1311 C   0  0  0  0  0  0  0  0  0  0  0  0
    3.1208   -0.8746    0.7334 N   0  0  0  0  0  0  0  0  0  0  0  0
    2.0920   -0.1188    0.1369 C   0  0  0  0  0  0  0  0  0  0  0  0
    2.3331    0.5833   -0.8811 O   0  0  0  0  0  0  0  0  0  0  0  0
    0.7711   -0.1046    0.6304 N   0  0  0  0  0  0  0  0  0  0  0  0
   -0.3019    0.6433    0.0616 C   0  0  2  0  0  0  0  0  0  0  0  0
   -0.8642    1.6957    0.9749 C   0  0  0  0  0  0  0  0  0  0  0  0
   -2.0759    2.2966    0.3128 C   0  0  0  0  0  0  0  0  0  0  0  0
   -3.1348    1.3478    0.1052 N   0  0  0  0  0  0  0  0  0  0  0  0
   -2.7138   -0.0198    0.1618 C   0  0  0  0  0  0  0  0  0  0  0  0
   -1.3659   -0.2612   -0.4743 C   0  0  2  0  0  0  0  0  0  0  0  0
   -1.0229   -1.7351   -0.2165 C   0  0  0  0  0  0  0  0  0  0  0  0
    0.1931   -2.0694   -0.8407 O   0  0  0  0  0  0  0  0  0  0  0  0
    4.5584    0.1081   -0.4703 H   0  0  0  0  0  0  0  0  0  0  0  0
    5.2312   -0.8235    0.9320 H   0  0  0  0  0  0  0  0  0  0  0  0
    4.5975   -1.6835   -0.5279 H   0  0  0  0  0  0  0  0  0  0  0  0
    2.9321   -1.4590    1.5762 H   0  0  0  0  0  0  0  0  0  0  0  0
    0.5699   -0.6853    1.4735 H   0  0  0  0  0  0  0  0  0  0  0  0
    0.1230    1.1959   -0.8275 H   0  0  0  0  0  0  0  0  0  0  0  0
   -0.1081    2.5183    1.0579 H   0  0  0  0  0  0  0  0  0  0  0  0
   -1.1475    1.2810    1.9469 H   0  0  0  0  0  0  0  0  0  0  0  0
   -2.4639    3.0953    0.9820 H   0  0  0  0  0  0  0  0  0  0  0  0
   -1.7666    2.7959   -0.6295 H   0  0  0  0  0  0  0  0  0  0  0  0
   -3.7525    1.5740   -0.6902 H   0  0  0  0  0  0  0  0  0  0  0  0
   -3.4664   -0.6311   -0.3666 H   0  0  0  0  0  0  0  0  0  0  0  0
   -2.7120   -0.3556    1.2157 H   0  0  0  0  0  0  0  0  0  0  0  0
   -1.4996   -0.1816   -1.5734 H   0  0  0  0  0  0  0  0  0  0  0  0
   -1.8007   -2.3946   -0.6484 H   0  0  0  0  0  0  0  0  0  0  0  0
   -0.9039   -1.9496    0.8523 H   0  0  0  0  0  0  0  0  0  0  0  0
    0.1186   -2.9767   -1.2725 H   0  0  0  0  0  0  0  0  0  0  0  0
  1  2  1  0
  2  3  1  0
  3  4  2  0
  3  5  1  0
  5  6  1  0
  6  7  1  0
  7  8  1  0
  8  9  1  0
  9 10  1  0
 10 11  1  0
 11 12  1  0
 12 13  1  0
 11  6  1  0
  1 14  1  0
  1 15  1  0
  1 16  1  0
  2 17  1  0
  5 18  1  0
  6 19  1  6
  7 20  1  0
  7 21  1  0
  8 22  1  0
  8 23  1  0
  9 24  1  0
 10 25  1  0
 10 26  1  0
 11 27  1  6
 12 28  1  0
 12 29  1  0
 13 30  1  0
M  END
$$$$

     RDKit          3D

 30 30  0  0  0  0  0  0  0  0999 V2000
    4.4993    0.6076   -0.5522 C   0  0  0  0  0  0  0  0  0  0  0  0
    3.1576    0.1700   -0.8954 N   0  0  0  0  0  0  0  0  0  0  0  0
    2.0857    0.1618    0.0340 C   0  0  0  0  0  0  0  0  0  0  0  0
    2.3269    0.5569    1.2109 O   0  0  0  0  0  0  0  0  0  0  0  0
    0.7746   -0.2534   -0.2574 N   0  0  0  0  0  0  0  0  0  0  0  0
   -0.3137   -0.2557    0.7073 C   0  0  2  0  0  0  0  0  0  0  0  0
   -0.6878   -1.6865    0.9571 C   0  0  0  0  0  0  0  0  0  0  0  0
   -1.8297   -2.1776    0.1382 C   0  0  0  0  0  0  0  0  0  0  0  0
   -2.2015   -1.3134   -0.9484 N   0  0  0  0  0  0  0  0  0  0  0  0
   -2.4819    0.0337   -0.5345 C   0  0  0  0  0  0  0  0  0  0  0  0
   -1.4390    0.6320    0.3452 C   0  0  2  0  0  0  0  0  0  0  0  0
   -0.9082    1.9018   -0.2915 C   0  0  0  0  0  0  0  0  0  0  0  0
   -1.9976    2.7241   -0.6244 O   0  0  0  0  0  0  0  0  0  0  0  0
    4.4759    1.0509    0.4808 H   0  0  0  0  0  0  0  0  0  0  0  0
    4.8782    1.3821   -1.2246 H   0  0  0  0  0  0  0  0  0  0  0  0
    5.1945   -0.2726   -0.4601 H   0  0  0  0  0  0  0  0  0  0  0  0
    2.9846   -0.1488   -1.8639 H   0  0  0  0  0  0  0  0  0  0  0  0
    0.5612   -0.5821   -1.2253 H   0  0  0  0  0  0  0  0  0  0  0  0
    0.1235    0.1301    1.6760 H   0  0  0  0  0  0  0  0  0  0  0  0
    0.2051   -2.3471    0.7649 H   0  0  0  0  0  0  0  0  0  0  0  0
   -0.9348   -1.8674    2.0380 H   0  0  0  0  0  0  0  0  0  0  0  0
   -2.7334   -2.3578    0.7706 H   0  0  0  0  0  0  0  0  0  0  0  0
   -1.5927   -3.1763   -0.3136 H   0  0  0  0  0  0  0  0  0  0  0  0
   -3.0968   -1.6989   -1.3506 H   0  0  0  0  0  0  0  0  0  0  0  0
   -2.5988    0.6388   -1.4758 H   0  0  0  0  0  0  0  0  0  0  0  0
   -3.4924    0.0413   -0.0658 H   0  0  0  0  0  0  0  0  0  0  0  0
   -1.9444    0.9577    1.2933 H   0  0  0  0  0  0  0  0  0  0  0  0
   -0.4497    1.6160   -1.2756 H   0  0  0  0  0  0  0  0  0  0  0  0
   -0.1527    2.4085    0.3075 H   0  0  0  0  0  0  0  0  0  0  0  0
   -2.4120    3.1245    0.1887 H   0  0  0  0  0  0  0  0  0  0  0  0
  1  2  1  0
  2  3  1  0
  3  4  2  0
  3  5  1  0
  5  6  1  0
  6  7  1  0
  7  8  1  0
  8  9  1  0
  9 10  1  0
 10 11  1  0
 11 12  1  0
 12 13  1  0
 11  6  1  0
  1 14  1  0
  1 15  1  0
  1 16  1  0
  2 17  1  0
  5 18  1  0
  6 19  1  1
  7 20  1  0
  7 21  1  0
  8 22  1  0
  8 23  1  0
  9 24  1  0
 10 25  1  0
 10 26  1  0
 11 27  1  1
 12 28  1  0
 12 29  1  0
 13 30  1  0
M  END
$$$$

     RDKit          3D

 30 30  0  0  0  0  0  0  0  0999 V2000
    4.4913   -0.6228   -0.8408 C   0  0  0  0  0  0  0  0  0  0  0  0
    3.2967   -0.7052   -0.0257 N   0  0  0  0  0  0  0  0  0  0  0  0
    2.0849   -0.1035   -0.4493 C   0  0  0  0  0  0  0  0  0  0  0  0
    2.0385    0.5198   -1.5606 O   0  0  0  0  0  0  0  0  0  0  0  0
    0.8789   -0.1496    0.3059 N   0  0  0  0  0  0  0  0  0  0  0  0
   -0.3170    0.4760   -0.1700 C   0  0  2  0  0  0  0  0  0  0  0  0
   -0.7680    1.6119    0.7581 C   0  0  0  0  0  0  0  0  0  0  0  0
   -1.8997    2.3139    0.0189 C   0  0  0  0  0  0  0  0  0  0  0  0
   -3.0017    1.4193   -0.2246 N   0  0  0  0  0  0  0  0  0  0  0  0
   -2.7455    0.0717    0.2273 C   0  0  0  0  0  0  0  0  0  0  0  0
   -1.4601   -0.4935   -0.3493 C   0  0  2  0  0  0  0  0  0  0  0  0
   -1.1842   -1.8012    0.3857 C   0  0  0  0  0  0  0  0  0  0  0  0
   -0.0066   -2.3514   -0.1516 O   0  0  0  0  0  0  0  0  0  0  0  0
    5.3803   -0.5558   -0.1821 H   0  0  0  0  0  0  0  0  0  0  0  0
    4.3966    0.3036   -1.4480 H   0  0  0  0  0  0  0  0  0  0  0  0
    4.5388   -1.4750   -1.5254 H   0  0  0  0  0  0  0  0  0  0  0  0
    3.2796   -1.2068    0.8991 H   0  0  0  0  0  0  0  0  0  0  0  0
    0.8662   -0.6469    1.2204 H   0  0  0  0  0  0  0  0  0  0  0  0
   -0.1454    0.9651   -1.1578 H   0  0  0  0  0  0  0  0  0  0  0  0
    0.0770    2.2928    0.8650 H   0  0  0  0  0  0  0  0  0  0  0  0
   -1.0734    1.2358    1.7392 H   0  0  0  0  0  0  0  0  0  0  0  0
   -1.4818    2.5884   -0.9801 H   0  0  0  0  0  0  0  0  0  0  0  0
   -2.1743    3.2428    0.5210 H   0  0  0  0  0  0  0  0  0  0  0  0
   -3.8952    1.7214    0.1798 H   0  0  0  0  0  0  0  0  0  0  0  0
   -3.5693   -0.5712   -0.1405 H   0  0  0  0  0  0  0  0  0  0  0  0
   -2.7132   -0.0277    1.3219 H   0  0  0  0  0  0  0  0  0  0  0  0
   -1.6469   -0.7440   -1.4145 H   0  0  0  0  0  0  0  0  0  0  0  0
   -1.9820   -2.5377    0.1685 H   0  0  0  0  0  0  0  0  0  0  0  0
   -1.0848   -1.6468    1.4652 H   0  0  0  0  0  0  0  0  0  0  0  0
   -0.1800   -3.1236   -0.7310 H   0  0  0  0  0  0  0  0  0  0  0  0
  1  2  1  0
  2  3  1  0
  3  4  2  0
  3  5  1  0
  5  6  1  0
  6  7  1  0
  7  8  1  0
  8  9  1  0
  9 10  1  0
 10 11  1  0
 11 12  1  0
 12 13  1  0
 11  6  1  0
  1 14  1  0
  1 15  1  0
  1 16  1  0
  2 17  1  0
  5 18  1  0
  6 19  1  6
  7 20  1  0
  7 21  1  0
  8 22  1  0
  8 23  1  0
  9 24  1  0
 10 25  1  0
 10 26  1  0
 11 27  1  6
 12 28  1  0
 12 29  1  0
 13 30  1  0
M  END
$$$$

     RDKit          3D

 30 30  0  0  0  0  0  0  0  0999 V2000
    4.6881    0.8231    0.7396 C   0  0  0  0  0  0  0  0  0  0  0  0
    3.5291    0.7409   -0.1292 N   0  0  0  0  0  0  0  0  0  0  0  0
    2.2611    0.2640    0.2900 C   0  0  0  0  0  0  0  0  0  0  0  0
    2.1603   -0.1031    1.4882 O   0  0  0  0  0  0  0  0  0  0  0  0
    1.1286    0.1746   -0.5272 N   0  0  0  0  0  0  0  0  0  0  0  0
   -0.1237   -0.3237   -0.0165 C   0  0  2  0  0  0  0  0  0  0  0  0
   -0.5572   -1.5979   -0.7079 C   0  0  0  0  0  0  0  0  0  0  0  0
   -1.9277   -1.9720   -0.1851 C   0  0  0  0  0  0  0  0  0  0  0  0
   -2.2070   -1.2398    1.0214 N   0  0  0  0  0  0  0  0  0  0  0  0
   -2.3550    0.1812    0.7903 C   0  0  0  0  0  0  0  0  0  0  0  0
   -1.2135    0.7246   -0.0420 C   0  0  2  0  0  0  0  0  0  0  0  0
   -1.6742    1.0462   -1.4410 C   0  0  0  0  0  0  0  0  0  0  0  0
   -2.6773    2.0244   -1.3113 O   0  0  0  0  0  0  0  0  0  0  0  0
    4.5928    1.6684    1.4792 H   0  0  0  0  0  0  0  0  0  0  0  0
    5.6110    0.8731    0.1640 H   0  0  0  0  0  0  0  0  0  0  0  0
    4.7107   -0.1149    1.3679 H   0  0  0  0  0  0  0  0  0  0  0  0
    3.6538    1.0549   -1.1154 H   0  0  0  0  0  0  0  0  0  0  0  0
    1.2101    0.4785   -1.5214 H   0  0  0  0  0  0  0  0  0  0  0  0
    0.0231   -0.5840    1.0518 H   0  0  0  0  0  0  0  0  0  0  0  0
   -0.5651   -1.4757   -1.8151 H   0  0  0  0  0  0  0  0  0  0  0  0
    0.1431   -2.3975   -0.3882 H   0  0  0  0  0  0  0  0  0  0  0  0
   -1.9566   -3.0580    0.0872 H   0  0  0  0  0  0  0  0  0  0  0  0
   -2.7145   -1.8462   -0.9576 H   0  0  0  0  0  0  0  0  0  0  0  0
   -3.0025   -1.5948    1.5575 H   0  0  0  0  0  0  0  0  0  0  0  0
   -3.3461    0.4626    0.4068 H   0  0  0  0  0  0  0  0  0  0  0  0
   -2.2617    0.6680    1.8049 H   0  0  0  0  0  0  0  0  0  0  0  0
   -0.8010    1.6424    0.3908 H   0  0  0  0  0  0  0  0  0  0  0  0
   -2.0051    0.1858   -2.0180 H   0  0  0  0  0  0  0  0  0  0  0  0
   -0.8577    1.5355   -2.0105 H   0  0  0  0  0  0  0  0  0  0  0  0
   -3.4661    1.7593   -1.8515 H   0  0  0  0  0  0  0  0  0  0  0  0
  1  2  1  0
  2  3  1  0
  3  4  2  0
  3  5  1  0
  5  6  1  0
  6  7  1  0
  7  8  1  0
  8  9  1  0
  9 10  1  0
 10 11  1  0
 11 12  1  0
 12 13  1  0
 11  6  1  0
  1 14  1  0
  1 15  1  0
  1 16  1  0
  2 17  1  0
  5 18  1  0
  6 19  1  1
  7 20  1  0
  7 21  1  0
  8 22  1  0
  8 23  1  0
  9 24  1  0
 10 25  1  0
 10 26  1  0
 11 27  1  1
 12 28  1  0
 12 29  1  0
 13 30  1  0
M  END
$$$$

     RDKit          3D

 30 30  0  0  0  0  0  0  0  0999 V2000
    4.3938   -0.0688   -0.7242 C   0  0  0  0  0  0  0  0  0  0  0  0
    3.0522   -0.5537   -0.4558 N   0  0  0  0  0  0  0  0  0  0  0  0
    1.9991    0.2837   -0.0168 C   0  0  0  0  0  0  0  0  0  0  0  0
    2.2540    1.5031    0.1435 O   0  0  0  0  0  0  0  0  0  0  0  0
    0.6958   -0.2189    0.2381 N   0  0  0  0  0  0  0  0  0  0  0  0
   -0.3640    0.6548    0.6856 C   0  0  2  0  0  0  0  0  0  0  0  0
   -0.9488    0.2005    2.0052 C   0  0  0  0  0  0  0  0  0  0  0  0
   -1.5716   -1.1636    1.8551 C   0  0  0  0  0  0  0  0  0  0  0  0
   -2.5281   -1.2376    0.7928 N   0  0  0  0  0  0  0  0  0  0  0  0
   -2.0570   -0.7349   -0.4632 C   0  0  0  0  0  0  0  0  0  0  0  0
   -1.5096    0.6550   -0.3203 C   0  0  2  0  0  0  0  0  0  0  0  0
   -1.0195    1.1759   -1.6532 C   0  0  0  0  0  0  0  0  0  0  0  0
   -2.0927    1.1605   -2.5431 O   0  0  0  0  0  0  0  0  0  0  0  0
    4.4022    0.2653   -1.7826 H   0  0  0  0  0  0  0  0  0  0  0  0
    4.6319    0.7418   -0.0090 H   0  0  0  0  0  0  0  0  0  0  0  0
    5.1018   -0.9260   -0.6616 H   0  0  0  0  0  0  0  0  0  0  0  0
    2.8333   -1.5654   -0.5868 H   0  0  0  0  0  0  0  0  0  0  0  0
    0.5012   -1.2346    0.0998 H   0  0  0  0  0  0  0  0  0  0  0  0
   -0.0176    1.6848    0.7862 H   0  0  0  0  0  0  0  0  0  0  0  0
   -0.1841    0.1665    2.7848 H   0  0  0  0  0  0  0  0  0  0  0  0
   -1.7330    0.9482    2.2782 H   0  0  0  0  0  0  0  0  0  0  0  0
   -0.7261   -1.8879    1.7287 H   0  0  0  0  0  0  0  0  0  0  0  0
   -2.1219   -1.4003    2.8065 H   0  0  0  0  0  0  0  0  0  0  0  0
   -2.7716   -2.2454    0.6576 H   0  0  0  0  0  0  0  0  0  0  0  0
   -1.3392   -1.4137   -0.9647 H   0  0  0  0  0  0  0  0  0  0  0  0
   -2.9461   -0.6677   -1.1451 H   0  0  0  0  0  0  0  0  0  0  0  0
   -2.2868    1.3090    0.0987 H   0  0  0  0  0  0  0  0  0  0  0  0
   -0.6992    2.2403   -1.4879 H   0  0  0  0  0  0  0  0  0  0  0  0
   -0.1411    0.6209   -2.0169 H   0  0  0  0  0  0  0  0  0  0  0  0
   -2.8073    1.7083   -2.1295 H   0  0  0  0  0  0  0  0  0  0  0  0
  1  2  1  0
  2  3  1  0
  3  4  2  0
  3  5  1  0
  5  6  1  0
  6  7  1  0
  7  8  1  0
  8  9  1  0
  9 10  1  0
 10 11  1  0
 11 12  1  0
 12 13  1  0
 11  6  1  0
  1 14  1  0
  1 15  1  0
  1 16  1  0
  2 17  1  0
  5 18  1  0
  6 19  1  1
  7 20  1  0
  7 21  1  0
  8 22  1  0
  8 23  1  0
  9 24  1  0
 10 25  1  0
 10 26  1  0
 11 27  1  1
 12 28  1  0
 12 29  1  0
 13 30  1  0
M  END
$$$$
