
     RDKit          3D

 29 29  0  0  0  0  0  0  0  0999 V2000
   -3.4121    0.4116   -0.3444 C   0  0  0  0  0  0  0  0  0  0  0  0
   -2.0544    1.1041   -0.3246 C   0  0  1  0  0  0  0  0  0  0  0  0
   -1.8558    1.7601    0.8779 O   0  0  0  0  0  0  0  0  0  0  0  0
   -1.0250    0.0317   -0.5755 C   0  0  1  0  0  0  0  0  0  0  0  0
    0.3768    0.5237   -0.7107 C   0  0  0  0  0  0  0  0  0  0  0  0
    1.2935   -0.5324   -0.3616 N   0  0  0  0  0  0  0  0  0  0  0  0
    2.0416   -0.3017    0.8182 C   0  0  0  0  0  0  0  0  0  0  0  0
    3.0730    0.7279    0.6819 C   0  0  0  0  0  0  0  0  0  0  0  0
    3.3873    1.4665   -0.4785 N   0  0  0  0  0  0  0  0  0  0  0  0
    3.7714    0.9898    1.7191 O   0  0  0  0  0  0  0  0  0  0  0  0
    0.8402   -1.8428   -0.6196 C   0  0  0  0  0  0  0  0  0  0  0  0
   -0.5777   -2.1005   -0.1642 C   0  0  0  0  0  0  0  0  0  0  0  0
   -1.0655   -0.9197    0.4482 O   0  0  0  0  0  0  0  0  0  0  0  0
   -3.9594    0.5131    0.6002 H   0  0  0  0  0  0  0  0  0  0  0  0
   -4.0104    0.7725   -1.2165 H   0  0  0  0  0  0  0  0  0  0  0  0
   -3.3116   -0.7019   -0.5149 H   0  0  0  0  0  0  0  0  0  0  0  0
   -2.0199    1.8294   -1.1628 H   0  0  0  0  0  0  0  0  0  0  0  0
   -2.7645    2.0647    1.1866 H   0  0  0  0  0  0  0  0  0  0  0  0
   -1.3036   -0.4384   -1.5527 H   0  0  0  0  0  0  0  0  0  0  0  0
    0.5409    0.8328   -1.7627 H   0  0  0  0  0  0  0  0  0  0  0  0
    0.5644    1.4014   -0.0618 H   0  0  0  0  0  0  0  0  0  0  0  0
    1.3244   -0.0287    1.6742 H   0  0  0  0  0  0  0  0  0  0  0  0
    2.5531   -1.2335    1.1272 H   0  0  0  0  0  0  0  0  0  0  0  0
    4.2841    2.0175   -0.5625 H   0  0  0  0  0  0  0  0  0  0  0  0
    2.7708    1.5022   -1.2996 H   0  0  0  0  0  0  0  0  0  0  0  0
    0.9502   -2.0603   -1.7207 H   0  0  0  0  0  0  0  0  0  0  0  0
    1.4853   -2.5772   -0.1009 H   0  0  0  0  0  0  0  0  0  0  0  0
   -1.1990   -2.2227   -1.0757 H   0  0  0  0  0  0  0  0  0  0  0  0
   -0.6982   -2.9892    0.4520 H   0  0  0  0  0  0  0  0  0  0  0  0
  1  2  1  0
  2  3  1  0
  2  4  1  0
  4  5  1  0
  5  6  1  0
  6  7  1  0
  7  8  1  0
  8  9  1  0
  8 10  2  0
  6 11  1  0
 11 12  1  0
 12 13  1  0
 13  4  1  0
  1 14  1  0
  1 15  1  0
  1 16  1  0
  2 17  1  6
  3 18  1  0
  4 19  1  6
  5 20  1  0
  5 21  1  0
  7 22  1  0
  7 23  1  0
  9 24  1  0
  9 25  1  0
 11 26  1  0
 11 27  1  0
 12 28  1  0
 12 29  1  0
M  END
$$$$

     RDKit          3D

 29 29  0  0  0  0  0  0  0  0999 V2000
    3.2737    0.7942   -0.6783 C   0  0  0  0  0  0  0  0  0  0  0  0
    2.1731    1.2994    0.1960 C   0  0  1  0  0  0  0  0  0  0  0  0
    1.5748    2.4013   -0.3990 O   0  0  0  0  0  0  0  0  0  0  0  0
    1.1107    0.2707    0.4878 C   0  0  1  0  0  0  0  0  0  0  0  0
    0.4221   -0.0898   -0.8047 C   0  0  0  0  0  0  0  0  0  0  0  0
   -0.8140   -0.7742   -0.4791 N   0  0  0  0  0  0  0  0  0  0  0  0
   -1.8784    0.1632   -0.5023 C   0  0  0  0  0  0  0  0  0  0  0  0
   -3.2052   -0.3613   -0.1946 C   0  0  0  0  0  0  0  0  0  0  0  0
   -4.3031    0.5466   -0.2068 N   0  0  0  0  0  0  0  0  0  0  0  0
   -3.4750   -1.5580    0.0848 O   0  0  0  0  0  0  0  0  0  0  0  0
   -0.6797   -1.5591    0.6907 C   0  0  0  0  0  0  0  0  0  0  0  0
    0.7802   -1.9587    0.8193 C   0  0  0  0  0  0  0  0  0  0  0  0
    1.5939   -0.8688    1.0810 O   0  0  0  0  0  0  0  0  0  0  0  0
    3.9868    0.2309   -0.0182 H   0  0  0  0  0  0  0  0  0  0  0  0
    2.9274    0.1813   -1.5264 H   0  0  0  0  0  0  0  0  0  0  0  0
    3.8186    1.6725   -1.1018 H   0  0  0  0  0  0  0  0  0  0  0  0
    2.6448    1.6690    1.1429 H   0  0  0  0  0  0  0  0  0  0  0  0
    1.7573    2.4541   -1.3788 H   0  0  0  0  0  0  0  0  0  0  0  0
    0.3948    0.7459    1.2013 H   0  0  0  0  0  0  0  0  0  0  0  0
    1.0668   -0.7445   -1.4023 H   0  0  0  0  0  0  0  0  0  0  0  0
    0.1765    0.8576   -1.3676 H   0  0  0  0  0  0  0  0  0  0  0  0
   -1.6597    0.9799    0.2341 H   0  0  0  0  0  0  0  0  0  0  0  0
   -1.9066    0.6376   -1.5051 H   0  0  0  0  0  0  0  0  0  0  0  0
   -4.8048    0.7779    0.6806 H   0  0  0  0  0  0  0  0  0  0  0  0
   -4.6550    1.0145   -1.0708 H   0  0  0  0  0  0  0  0  0  0  0  0
   -1.2450   -2.5207    0.5381 H   0  0  0  0  0  0  0  0  0  0  0  0
   -1.0772   -1.1110    1.6137 H   0  0  0  0  0  0  0  0  0  0  0  0
    0.9148   -2.7807    1.5488 H   0  0  0  0  0  0  0  0  0  0  0  0
    1.0874   -2.3698   -0.1673 H   0  0  0  0  0  0  0  0  0  0  0  0
  1  2  1  0
  2  3  1  0
  2  4  1  0
  4  5  1  0
  5  6  1  0
  6  7  1  0
  7  8  1  0
  8  9  1  0
  8 10  2  0
  6 11  1  0
 11 12  1  0
 12 13  1  0
 13  4  1  0
  1 14  1  0
  1 15  1  0
  1 16  1  0
  2 17  1  1
  3 18  1  0
  4 19  1  1
  5 20  1  0
  5 21  1  0
  7 22  1  0
  7 23  1  0
  9 24  1  0
  9 25  1  0
 11 26  1  0
 11 27  1  0
 12 28  1  0
 12 29  1  0
M  END
$$$$

     RDKit          3D

 29 29  0  0  0  0  0  0  0  0999 V2000
   -2.7203    1.2818    0.6745 C   0  0  0  0  0  0  0  0  0  0  0  0
   -2.3029    0.0919   -0.1220 C   0  0  1  0  0  0  0  0  0  0  0  0
   -3.0664    0.0252   -1.3088 O   0  0  0  0  0  0  0  0  0  0  0  0
   -0.8578    0.0477   -0.4965 C   0  0  1  0  0  0  0  0  0  0  0  0
    0.1072    0.2523    0.6193 C   0  0  0  0  0  0  0  0  0  0  0  0
    1.2854   -0.5683    0.5346 N   0  0  0  0  0  0  0  0  0  0  0  0
    2.1482   -0.2764   -0.5630 C   0  0  0  0  0  0  0  0  0  0  0  0
    2.8399    1.0082   -0.5159 C   0  0  0  0  0  0  0  0  0  0  0  0
    2.7402    1.9897    0.4998 N   0  0  0  0  0  0  0  0  0  0  0  0
    3.6111    1.2744   -1.4866 O   0  0  0  0  0  0  0  0  0  0  0  0
    0.9621   -1.9830    0.4551 C   0  0  0  0  0  0  0  0  0  0  0  0
   -0.3702   -2.1582   -0.2220 C   0  0  0  0  0  0  0  0  0  0  0  0
   -0.5731   -1.1381   -1.1626 O   0  0  0  0  0  0  0  0  0  0  0  0
   -2.1337    2.2051    0.4730 H   0  0  0  0  0  0  0  0  0  0  0  0
   -2.6756    1.0958    1.7824 H   0  0  0  0  0  0  0  0  0  0  0  0
   -3.7985    1.5112    0.4376 H   0  0  0  0  0  0  0  0  0  0  0  0
   -2.6332   -0.8080    0.4559 H   0  0  0  0  0  0  0  0  0  0  0  0
   -3.0293    0.8806   -1.7997 H   0  0  0  0  0  0  0  0  0  0  0  0
   -0.7047    0.9103   -1.2158 H   0  0  0  0  0  0  0  0  0  0  0  0
    0.4651    1.3184    0.6724 H   0  0  0  0  0  0  0  0  0  0  0  0
   -0.3823    0.0178    1.5981 H   0  0  0  0  0  0  0  0  0  0  0  0
    2.9410   -1.0832   -0.5624 H   0  0  0  0  0  0  0  0  0  0  0  0
    1.6460   -0.3758   -1.5610 H   0  0  0  0  0  0  0  0  0  0  0  0
    2.2978    2.8989    0.2660 H   0  0  0  0  0  0  0  0  0  0  0  0
    3.0980    1.8026    1.4370 H   0  0  0  0  0  0  0  0  0  0  0  0
    0.9146   -2.4003    1.4910 H   0  0  0  0  0  0  0  0  0  0  0  0
    1.7170   -2.5359   -0.1433 H   0  0  0  0  0  0  0  0  0  0  0  0
   -1.1308   -2.1651    0.5823 H   0  0  0  0  0  0  0  0  0  0  0  0
   -0.3946   -3.1194   -0.8197 H   0  0  0  0  0  0  0  0  0  0  0  0
  1  2  1  0
  2  3  1  0
  2  4  1  0
  4  5  1  0
  5  6  1  0
  6  7  1  0
  7  8  1  0
  8  9  1  0
  8 10  2  0
  6 11  1  0
 11 12  1  0
 12 13  1  0
 13  4  1  0
  1 14  1  0
  1 15  1  0
  1 16  1  0
  2 17  1  1
  3 18  1  0
  4 19  1  6
  5 20  1  0
  5 21  1  0
  7 22  1  0
  7 23  1  0
  9 24  1  0
  9 25  1  0
 11 26  1  0
 11 27  1  0
 12 28  1  0
 12 29  1  0
M  END
$$$$

     RDKit          3D

 29 29  0  0  0  0  0  0  0  0999 V2000
   -3.4318    0.1887    0.8783 C   0  0  0  0  0  0  0  0  0  0  0  0
   -2.5258    0.8238   -0.1243 C   0  0  1  0  0  0  0  0  0  0  0  0
   -2.3509    2.1674    0.1267 O   0  0  0  0  0  0  0  0  0  0  0  0
   -1.2017    0.1204   -0.2145 C   0  0  1  0  0  0  0  0  0  0  0  0
   -0.3598    0.2917    0.9929 C   0  0  0  0  0  0  0  0  0  0  0  0
    0.9524   -0.3013    0.8421 N   0  0  0  0  0  0  0  0  0  0  0  0
    1.8415    0.5643    0.0920 C   0  0  0  0  0  0  0  0  0  0  0  0
    3.2335    0.0636    0.2846 C   0  0  0  0  0  0  0  0  0  0  0  0
    4.3575    0.6770   -0.3471 N   0  0  0  0  0  0  0  0  0  0  0  0
    3.4791   -0.9255    1.0160 O   0  0  0  0  0  0  0  0  0  0  0  0
    0.8878   -1.6061    0.2374 C   0  0  0  0  0  0  0  0  0  0  0  0
   -0.1260   -1.7345   -0.8474 C   0  0  0  0  0  0  0  0  0  0  0  0
   -1.3533   -1.2421   -0.4420 O   0  0  0  0  0  0  0  0  0  0  0  0
   -4.2795    0.8757    1.0733 H   0  0  0  0  0  0  0  0  0  0  0  0
   -3.8569   -0.7748    0.4845 H   0  0  0  0  0  0  0  0  0  0  0  0
   -2.9328   -0.0116    1.8586 H   0  0  0  0  0  0  0  0  0  0  0  0
   -3.0163    0.6804   -1.1323 H   0  0  0  0  0  0  0  0  0  0  0  0
   -3.1935    2.6770   -0.0249 H   0  0  0  0  0  0  0  0  0  0  0  0
   -0.6321    0.5394   -1.0857 H   0  0  0  0  0  0  0  0  0  0  0  0
   -0.2230    1.3746    1.1869 H   0  0  0  0  0  0  0  0  0  0  0  0
   -0.8842   -0.1266    1.8907 H   0  0  0  0  0  0  0  0  0  0  0  0
    1.7649    1.5947    0.4371 H   0  0  0  0  0  0  0  0  0  0  0  0
    1.5562    0.4755   -1.0062 H   0  0  0  0  0  0  0  0  0  0  0  0
    5.0757    0.0787   -0.8035 H   0  0  0  0  0  0  0  0  0  0  0  0
    4.4828    1.6988   -0.3613 H   0  0  0  0  0  0  0  0  0  0  0  0
    1.8942   -1.7899   -0.2519 H   0  0  0  0  0  0  0  0  0  0  0  0
    0.7882   -2.4128    1.0058 H   0  0  0  0  0  0  0  0  0  0  0  0
    0.2491   -1.1679   -1.7452 H   0  0  0  0  0  0  0  0  0  0  0  0
   -0.1955   -2.7986   -1.1673 H   0  0  0  0  0  0  0  0  0  0  0  0
  1  2  1  0
  2  3  1  0
  2  4  1  0
  4  5  1  0
  5  6  1  0
  6  7  1  0
  7  8  1  0
  8  9  1  0
  8 10  2  0
  6 11  1  0
 11 12  1  0
 12 13  1  0
 13  4  1  0
  1 14  1  0
  1 15  1  0
  1 16  1  0
  2 17  1  6
  3 18  1  0
  4 19  1  6
  5 20  1  0
  5 21  1  0
  7 22  1  0
  7 23  1  0
  9 24  1  0
  9 25  1  0
 11 26  1  0
 11 27  1  0
 12 28  1  0
 12 29  1  0
M  END
$$$$

     RDKit          3D

 29 29  0  0  0  0  0  0  0  0999 V2000
   -2.9151    1.0307   -0.0872 C   0  0  0  0  0  0  0  0  0  0  0  0
   -2.4261   -0.2724    0.4691 C   0  0  1  0  0  0  0  0  0  0  0  0
   -3.4841   -1.1012    0.7899 O   0  0  0  0  0  0  0  0  0  0  0  0
   -1.4626   -0.9851   -0.4772 C   0  0  1  0  0  0  0  0  0  0  0  0
   -0.4123   -0.0548   -0.9914 C   0  0  0  0  0  0  0  0  0  0  0  0
    0.5792    0.2730    0.0075 N   0  0  0  0  0  0  0  0  0  0  0  0
    1.6754    1.0004   -0.5688 C   0  0  0  0  0  0  0  0  0  0  0  0
    2.6678    1.3495    0.4722 C   0  0  0  0  0  0  0  0  0  0  0  0
    3.8203    2.0771    0.0318 N   0  0  0  0  0  0  0  0  0  0  0  0
    2.5070    1.0258    1.6716 O   0  0  0  0  0  0  0  0  0  0  0  0
    1.0068   -0.8622    0.7694 C   0  0  0  0  0  0  0  0  0  0  0  0
    0.3419   -2.1444    0.4120 C   0  0  0  0  0  0  0  0  0  0  0  0
   -0.9649   -2.1088    0.0982 O   0  0  0  0  0  0  0  0  0  0  0  0
   -2.1818    1.8617    0.0944 H   0  0  0  0  0  0  0  0  0  0  0  0
   -3.9167    1.2806    0.3353 H   0  0  0  0  0  0  0  0  0  0  0  0
   -3.0638    0.9094   -1.1832 H   0  0  0  0  0  0  0  0  0  0  0  0
   -1.8855   -0.0520    1.4166 H   0  0  0  0  0  0  0  0  0  0  0  0
   -3.2188   -2.0380    0.8648 H   0  0  0  0  0  0  0  0  0  0  0  0
   -2.0825   -1.2970   -1.3629 H   0  0  0  0  0  0  0  0  0  0  0  0
   -0.9224    0.8609   -1.3530 H   0  0  0  0  0  0  0  0  0  0  0  0
    0.0763   -0.5267   -1.8675 H   0  0  0  0  0  0  0  0  0  0  0  0
    2.1357    0.3214   -1.3400 H   0  0  0  0  0  0  0  0  0  0  0  0
    1.2852    1.9210   -1.0570 H   0  0  0  0  0  0  0  0  0  0  0  0
    3.9499    3.0543    0.3139 H   0  0  0  0  0  0  0  0  0  0  0  0
    4.5181    1.6138   -0.5694 H   0  0  0  0  0  0  0  0  0  0  0  0
    0.8998   -0.6498    1.8518 H   0  0  0  0  0  0  0  0  0  0  0  0
    2.0946   -0.9895    0.5848 H   0  0  0  0  0  0  0  0  0  0  0  0
    0.9021   -2.6577   -0.4170 H   0  0  0  0  0  0  0  0  0  0  0  0
    0.4767   -2.8400    1.2927 H   0  0  0  0  0  0  0  0  0  0  0  0
  1  2  1  0
  2  3  1  0
  2  4  1  0
  4  5  1  0
  5  6  1  0
  6  7  1  0
  7  8  1  0
  8  9  1  0
  8 10  2  0
  6 11  1  0
 11 12  1  0
 12 13  1  0
 13  4  1  0
  1 14  1  0
  1 15  1  0
  1 16  1  0
  2 17  1  1
  3 18  1  0
  4 19  1  6
  5 20  1  0
  5 21  1  0
  7 22  1  0
  7 23  1  0
  9 24  1  0
  9 25  1  0
 11 26  1  0
 11 27  1  0
 12 28  1  0
 12 29  1  0
M  END
$$$$

     RDKit          3D

 29 29  0  0  0  0  0  0  0  0999 V2000
   -2.7866    1.7024   -0.0941 C   0  0  0  0  0  0  0  0  0  0  0  0
   -2.6382    0.3018    0.3611 C   0  0  1  0  0  0  0  0  0  0  0  0
   -3.7486   -0.4245   -0.1002 O   0  0  0  0  0  0  0  0  0  0  0  0
   -1.4115   -0.3974   -0.0763 C   0  0  1  0  0  0  0  0  0  0  0  0
   -0.1116    0.2978    0.2618 C   0  0  0  0  0  0  0  0  0  0  0  0
    0.9975   -0.4135   -0.2483 N   0  0  0  0  0  0  0  0  0  0  0  0
    2.1845    0.2650   -0.5343 C   0  0  0  0  0  0  0  0  0  0  0  0
    2.8769    0.7608    0.6864 C   0  0  0  0  0  0  0  0  0  0  0  0
    4.1015    1.4761    0.6533 N   0  0  0  0  0  0  0  0  0  0  0  0
    2.3627    0.5423    1.8024 O   0  0  0  0  0  0  0  0  0  0  0  0
    0.9799   -1.8110   -0.1670 C   0  0  0  0  0  0  0  0  0  0  0  0
   -0.4031   -2.4061   -0.3332 C   0  0  0  0  0  0  0  0  0  0  0  0
   -1.3271   -1.6935    0.4239 O   0  0  0  0  0  0  0  0  0  0  0  0
   -2.7522    1.7534   -1.1905 H   0  0  0  0  0  0  0  0  0  0  0  0
   -3.7764    2.0920    0.2587 H   0  0  0  0  0  0  0  0  0  0  0  0
   -2.0403    2.4094    0.3109 H   0  0  0  0  0  0  0  0  0  0  0  0
   -2.7121    0.2379    1.4791 H   0  0  0  0  0  0  0  0  0  0  0  0
   -4.1696    0.0395   -0.8832 H   0  0  0  0  0  0  0  0  0  0  0  0
   -1.3992   -0.5058   -1.2003 H   0  0  0  0  0  0  0  0  0  0  0  0
   -0.1545    1.3012   -0.2114 H   0  0  0  0  0  0  0  0  0  0  0  0
    0.0251    0.3673    1.3749 H   0  0  0  0  0  0  0  0  0  0  0  0
    1.9169    1.1945   -1.1332 H   0  0  0  0  0  0  0  0  0  0  0  0
    2.8649   -0.2935   -1.1807 H   0  0  0  0  0  0  0  0  0  0  0  0
    4.2185    2.3971    1.1462 H   0  0  0  0  0  0  0  0  0  0  0  0
    4.9314    1.1018    0.1307 H   0  0  0  0  0  0  0  0  0  0  0  0
    1.6320   -2.2697   -0.9322 H   0  0  0  0  0  0  0  0  0  0  0  0
    1.3764   -2.1752    0.8243 H   0  0  0  0  0  0  0  0  0  0  0  0
   -0.6375   -2.3755   -1.4265 H   0  0  0  0  0  0  0  0  0  0  0  0
   -0.4000   -3.4745   -0.0022 H   0  0  0  0  0  0  0  0  0  0  0  0
  1  2  1  0
  2  3  1  0
  2  4  1  0
  4  5  1  0
  5  6  1  0
  6  7  1  0
  7  8  1  0
  8  9  1  0
  8 10  2  0
  6 11  1  0
 11 12  1  0
 12 13  1  0
 13  4  1  0
  1 14  1  0
  1 15  1  0
  1 16  1  0
  2 17  1  1
  3 18  1  0
  4 19  1  6
  5 20  1  0
  5 21  1  0
  7 22  1  0
  7 23  1  0
  9 24  1  0
  9 25  1  0
 11 26  1  0
 11 27  1  0
 12 28  1  0
 12 29  1  0
M  END
$$$$

     RDKit          3D

 29 29  0  0  0  0  0  0  0  0999 V2000
   -3.3337   -0.5777    0.1569 C   0  0  0  0  0  0  0  0  0  0  0  0
   -2.4782    0.4956   -0.4052 C   0  0  1  0  0  0  0  0  0  0  0  0
   -2.4640    1.5895    0.4380 O   0  0  0  0  0  0  0  0  0  0  0  0
   -1.0760    0.0868   -0.7688 C   0  0  1  0  0  0  0  0  0  0  0  0
   -0.2909   -0.1555    0.4927 C   0  0  0  0  0  0  0  0  0  0  0  0
    0.9813   -0.6862    0.2545 N   0  0  0  0  0  0  0  0  0  0  0  0
    2.0499   -0.2572    1.0568 C   0  0  0  0  0  0  0  0  0  0  0  0
    2.3706    1.1554    0.7600 C   0  0  0  0  0  0  0  0  0  0  0  0
    3.4005    1.8682    1.4063 N   0  0  0  0  0  0  0  0  0  0  0  0
    1.6985    1.7583   -0.1098 O   0  0  0  0  0  0  0  0  0  0  0  0
    1.2305   -1.4914   -0.8604 C   0  0  0  0  0  0  0  0  0  0  0  0
    0.3557   -1.0691   -2.0154 C   0  0  0  0  0  0  0  0  0  0  0  0
   -0.9938   -1.0119   -1.5975 O   0  0  0  0  0  0  0  0  0  0  0  0
   -4.1061   -0.0771    0.7989 H   0  0  0  0  0  0  0  0  0  0  0  0
   -2.8113   -1.2734    0.8385 H   0  0  0  0  0  0  0  0  0  0  0  0
   -3.9007   -1.1418   -0.6150 H   0  0  0  0  0  0  0  0  0  0  0  0
   -2.9746    0.8622   -1.3524 H   0  0  0  0  0  0  0  0  0  0  0  0
   -2.8845    1.3651    1.3033 H   0  0  0  0  0  0  0  0  0  0  0  0
   -0.6022    0.9577   -1.3244 H   0  0  0  0  0  0  0  0  0  0  0  0
   -0.9042   -0.7472    1.2071 H   0  0  0  0  0  0  0  0  0  0  0  0
   -0.1748    0.8587    0.9728 H   0  0  0  0  0  0  0  0  0  0  0  0
    1.7068   -0.3014    2.1330 H   0  0  0  0  0  0  0  0  0  0  0  0
    2.9576   -0.8864    1.0182 H   0  0  0  0  0  0  0  0  0  0  0  0
    3.2452    2.6245    2.1031 H   0  0  0  0  0  0  0  0  0  0  0  0
    4.3864    1.6271    1.1773 H   0  0  0  0  0  0  0  0  0  0  0  0
    1.1713   -2.5797   -0.7055 H   0  0  0  0  0  0  0  0  0  0  0  0
    2.2947   -1.2943   -1.1908 H   0  0  0  0  0  0  0  0  0  0  0  0
    0.6487   -0.0125   -2.2549 H   0  0  0  0  0  0  0  0  0  0  0  0
    0.4972   -1.6862   -2.9174 H   0  0  0  0  0  0  0  0  0  0  0  0
  1  2  1  0
  2  3  1  0
  2  4  1  0
  4  5  1  0
  5  6  1  0
  6  7  1  0
  7  8  1  0
  8  9  1  0
  8 10  2  0
  6 11  1  0
 11 12  1  0
 12 13  1  0
 13  4  1  0
  1 14  1  0
  1 15  1  0
  1 16  1  0
  2 17  1  6
  3 18  1  0
  4 19  1  6
  5 20  1  0
  5 21  1  0
  7 22  1  0
  7 23  1  0
  9 24  1  0
  9 25  1  0
 11 26  1  0
 11 27  1  0
 12 28  1  0
 12 29  1  0
M  END
$$$$

     RDKit          3D

 29 29  0  0  0  0  0  0  0  0999 V2000
   -3.2184    0.2542    0.2648 C   0  0  0  0  0  0  0  0  0  0  0  0
   -2.5863    0.1797   -1.0881 C   0  0  1  0  0  0  0  0  0  0  0  0
   -2.5682    1.4588   -1.6310 O   0  0  0  0  0  0  0  0  0  0  0  0
   -1.1651   -0.3366   -1.0154 C   0  0  1  0  0  0  0  0  0  0  0  0
   -0.3843    0.5919   -0.0999 C   0  0  0  0  0  0  0  0  0  0  0  0
    1.0351    0.2942   -0.1668 N   0  0  0  0  0  0  0  0  0  0  0  0
    1.7015    1.0784    0.8284 C   0  0  0  0  0  0  0  0  0  0  0  0
    3.1756    0.7908    0.7830 C   0  0  0  0  0  0  0  0  0  0  0  0
    3.7310   -0.1358   -0.1433 N   0  0  0  0  0  0  0  0  0  0  0  0
    3.9730    1.3647    1.5690 O   0  0  0  0  0  0  0  0  0  0  0  0
    1.2028   -1.1277    0.0259 C   0  0  0  0  0  0  0  0  0  0  0  0
   -0.0894   -1.8129    0.4092 C   0  0  0  0  0  0  0  0  0  0  0  0
   -1.1096   -1.6046   -0.4848 O   0  0  0  0  0  0  0  0  0  0  0  0
   -4.2705    0.6206    0.1119 H   0  0  0  0  0  0  0  0  0  0  0  0
   -3.2241   -0.7766    0.7198 H   0  0  0  0  0  0  0  0  0  0  0  0
   -2.6509    0.9755    0.8938 H   0  0  0  0  0  0  0  0  0  0  0  0
   -3.1519   -0.4776   -1.7666 H   0  0  0  0  0  0  0  0  0  0  0  0
   -2.5400    2.1013   -0.8942 H   0  0  0  0  0  0  0  0  0  0  0  0
   -0.6808   -0.2649   -2.0101 H   0  0  0  0  0  0  0  0  0  0  0  0
   -0.6857    0.4327    0.9598 H   0  0  0  0  0  0  0  0  0  0  0  0
   -0.5287    1.6277   -0.4234 H   0  0  0  0  0  0  0  0  0  0  0  0
    1.5893    2.1463    0.5519 H   0  0  0  0  0  0  0  0  0  0  0  0
    1.2902    0.9437    1.8471 H   0  0  0  0  0  0  0  0  0  0  0  0
    4.3134   -0.9262    0.1858 H   0  0  0  0  0  0  0  0  0  0  0  0
    3.5272    0.0158   -1.1559 H   0  0  0  0  0  0  0  0  0  0  0  0
    1.5872   -1.5727   -0.9216 H   0  0  0  0  0  0  0  0  0  0  0  0
    1.9390   -1.3758    0.8192 H   0  0  0  0  0  0  0  0  0  0  0  0
    0.1367   -2.9138    0.4094 H   0  0  0  0  0  0  0  0  0  0  0  0
   -0.3484   -1.5508    1.4606 H   0  0  0  0  0  0  0  0  0  0  0  0
  1  2  1  0
  2  3  1  0
  2  4  1  0
  4  5  1  0
  5  6  1  0
  6  7  1  0
  7  8  1  0
  8  9  1  0
  8 10  2  0
  6 11  1  0
 11 12  1  0
 12 13  1  0
 13  4  1  0
  1 14  1  0
  1 15  1  0
  1 16  1  0
  2 17  1  6
  3 18  1  0
  4 19  1  6
  5 20  1  0
  5 21  1  0
  7 22  1  0
  7 23  1  0
  9 24  1  0
  9 25  1  0
 11 26  1  0
 11 27  1  0
 12 28  1  0
 12 29  1  0
M  END
$$$$
