
     RDKit          3D

 26 26  0  0  0  0  0  0  0  0999 V2000
    2.3326    0.1010   -1.4197 N   0  0  0  0  0  0  0  0  0  0  0  0
    2.2894   -0.4589   -0.2503 C   0  0  0  0  0  0  0  0  0  0  0  0
    3.4557   -0.4108    0.5422 N   0  0  0  0  0  0  0  0  0  0  0  0
    4.5503    0.3331    0.2092 O   0  0  0  0  0  0  0  0  0  0  0  0
    1.0762   -1.0819    0.1562 N   0  0  0  0  0  0  0  0  0  0  0  0
   -0.1454   -0.6180   -0.4293 C   0  0  2  0  0  0  0  0  0  0  0  0
   -0.3428    0.8704   -0.1133 C   0  0  0  0  0  0  0  0  0  0  0  0
   -1.7831    1.0050   -0.6192 C   0  0  2  0  0  0  0  0  0  0  0  0
   -2.3168    2.2334   -0.3530 O   0  0  0  0  0  0  0  0  0  0  0  0
   -2.4360   -0.1205    0.1588 C   0  0  2  0  0  0  0  0  0  0  0  0
   -2.5906    0.3126    1.4646 O   0  0  0  0  0  0  0  0  0  0  0  0
   -1.3841   -1.2215    0.0956 C   0  0  2  0  0  0  0  0  0  0  0  0
   -1.2540   -1.8605    1.3140 O   0  0  0  0  0  0  0  0  0  0  0  0
    3.1763    0.5738   -1.7873 H   0  0  0  0  0  0  0  0  0  0  0  0
    3.4719   -0.9718    1.4185 H   0  0  0  0  0  0  0  0  0  0  0  0
    4.1804    1.1999   -0.1207 H   0  0  0  0  0  0  0  0  0  0  0  0
    1.1496   -1.8462    0.8629 H   0  0  0  0  0  0  0  0  0  0  0  0
   -0.0740   -0.7016   -1.5260 H   0  0  0  0  0  0  0  0  0  0  0  0
    0.3519    1.5041   -0.6571 H   0  0  0  0  0  0  0  0  0  0  0  0
   -0.3419    1.0271    0.9906 H   0  0  0  0  0  0  0  0  0  0  0  0
   -1.7568    0.7389   -1.6952 H   0  0  0  0  0  0  0  0  0  0  0  0
   -1.5775    2.9089   -0.4505 H   0  0  0  0  0  0  0  0  0  0  0  0
   -3.3859   -0.4305   -0.3201 H   0  0  0  0  0  0  0  0  0  0  0  0
   -2.7912    1.2993    1.5144 H   0  0  0  0  0  0  0  0  0  0  0  0
   -1.7701   -1.9689   -0.6472 H   0  0  0  0  0  0  0  0  0  0  0  0
   -2.0842   -2.4163    1.4268 H   0  0  0  0  0  0  0  0  0  0  0  0
  1  2  2  3
  2  3  1  0
  3  4  1  0
  2  5  1  0
  5  6  1  0
  6  7  1  0
  7  8  1  0
  8  9  1  0
  8 10  1  0
 10 11  1  0
 10 12  1  0
 12 13  1  0
 12  6  1  0
  1 14  1  0
  3 15  1  0
  4 16  1  0
  5 17  1  0
  6 18  1  6
  7 19  1  0
  7 20  1  0
  8 21  1  6
  9 22  1  0
 10 23  1  6
 11 24  1  0
 12 25  1  6
 13 26  1  0
M  END
$$$$

     RDKit          3D

 26 26  0  0  0  0  0  0  0  0999 V2000
    2.6515    0.6481    1.0140 N   0  0  0  0  0  0  0  0  0  0  0  0
    2.4339   -0.2845    0.1578 C   0  0  0  0  0  0  0  0  0  0  0  0
    3.3875   -1.3387    0.1075 N   0  0  0  0  0  0  0  0  0  0  0  0
    4.3823   -1.4939    1.0101 O   0  0  0  0  0  0  0  0  0  0  0  0
    1.2933   -0.2335   -0.6768 N   0  0  0  0  0  0  0  0  0  0  0  0
    0.1397    0.5062   -0.2556 C   0  0  2  0  0  0  0  0  0  0  0  0
   -0.4471    0.0056    1.0365 C   0  0  0  0  0  0  0  0  0  0  0  0
   -1.9574    0.2513    0.9336 C   0  0  2  0  0  0  0  0  0  0  0  0
   -2.5821   -0.9894    0.8830 O   0  0  0  0  0  0  0  0  0  0  0  0
   -2.1430    0.9799   -0.3851 C   0  0  2  0  0  0  0  0  0  0  0  0
   -3.3869    0.7461   -0.9413 O   0  0  0  0  0  0  0  0  0  0  0  0
   -1.0255    0.3564   -1.2122 C   0  0  2  0  0  0  0  0  0  0  0  0
   -1.3542   -0.9698   -1.4284 O   0  0  0  0  0  0  0  0  0  0  0  0
    1.9944    1.4397    1.0968 H   0  0  0  0  0  0  0  0  0  0  0  0
    3.3285   -2.0372   -0.6616 H   0  0  0  0  0  0  0  0  0  0  0  0
    5.0519   -0.7657    0.8097 H   0  0  0  0  0  0  0  0  0  0  0  0
    1.3372   -0.7436   -1.5788 H   0  0  0  0  0  0  0  0  0  0  0  0
    0.3366    1.5918   -0.1363 H   0  0  0  0  0  0  0  0  0  0  0  0
   -0.2337   -1.0686    1.1957 H   0  0  0  0  0  0  0  0  0  0  0  0
   -0.0759    0.5543    1.9262 H   0  0  0  0  0  0  0  0  0  0  0  0
   -2.3299    0.8762    1.7467 H   0  0  0  0  0  0  0  0  0  0  0  0
   -3.5087   -0.9001    0.5154 H   0  0  0  0  0  0  0  0  0  0  0  0
   -1.9281    2.0604   -0.2642 H   0  0  0  0  0  0  0  0  0  0  0  0
   -3.6413    1.4805   -1.5389 H   0  0  0  0  0  0  0  0  0  0  0  0
   -0.8331    0.9233   -2.1412 H   0  0  0  0  0  0  0  0  0  0  0  0
   -0.8900   -1.5946   -0.8371 H   0  0  0  0  0  0  0  0  0  0  0  0
  1  2  2  3
  2  3  1  0
  3  4  1  0
  2  5  1  0
  5  6  1  0
  6  7  1  0
  7  8  1  0
  8  9  1  0
  8 10  1  0
 10 11  1  0
 10 12  1  0
 12 13  1  0
 12  6  1  0
  1 14  1  0
  3 15  1  0
  4 16  1  0
  5 17  1  0
  6 18  1  1
  7 19  1  0
  7 20  1  0
  8 21  1  1
  9 22  1  0
 10 23  1  1
 11 24  1  0
 12 25  1  6
 13 26  1  0
M  END
$$$$

     RDKit          3D

 26 26  0  0  0  0  0  0  0  0999 V2000
    2.0619   -1.6057   -0.3467 N   0  0  0  0  0  0  0  0  0  0  0  0
    2.3390   -0.3743   -0.0826 C   0  0  0  0  0  0  0  0  0  0  0  0
    3.7041    0.0439    0.1262 N   0  0  0  0  0  0  0  0  0  0  0  0
    4.7151   -0.8255   -0.0740 O   0  0  0  0  0  0  0  0  0  0  0  0
    1.2536    0.5405   -0.0075 N   0  0  0  0  0  0  0  0  0  0  0  0
   -0.0252    0.1537   -0.5085 C   0  0  2  0  0  0  0  0  0  0  0  0
   -1.0091    1.3035   -0.3115 C   0  0  0  0  0  0  0  0  0  0  0  0
   -2.3059    0.5827   -0.6915 C   0  0  2  0  0  0  0  0  0  0  0  0
   -3.4192    1.3210   -0.3755 O   0  0  0  0  0  0  0  0  0  0  0  0
   -2.1775   -0.6892    0.1039 C   0  0  2  0  0  0  0  0  0  0  0  0
   -2.8004   -0.5367    1.3440 O   0  0  0  0  0  0  0  0  0  0  0  0
   -0.6860   -0.9478    0.2663 C   0  0  2  0  0  0  0  0  0  0  0  0
   -0.3243   -0.9494    1.6154 O   0  0  0  0  0  0  0  0  0  0  0  0
    2.7598   -2.3657   -0.4282 H   0  0  0  0  0  0  0  0  0  0  0  0
    3.8642    1.0261    0.4315 H   0  0  0  0  0  0  0  0  0  0  0  0
    5.5501   -0.3729    0.2043 H   0  0  0  0  0  0  0  0  0  0  0  0
    1.4160    1.4827    0.4155 H   0  0  0  0  0  0  0  0  0  0  0  0
   -0.0417   -0.1204   -1.5768 H   0  0  0  0  0  0  0  0  0  0  0  0
   -0.7997    2.1580   -0.9509 H   0  0  0  0  0  0  0  0  0  0  0  0
   -1.0456    1.5230    0.7670 H   0  0  0  0  0  0  0  0  0  0  0  0
   -2.2112    0.3627   -1.7806 H   0  0  0  0  0  0  0  0  0  0  0  0
   -3.6055    1.9202   -1.1642 H   0  0  0  0  0  0  0  0  0  0  0  0
   -2.6608   -1.4934   -0.4984 H   0  0  0  0  0  0  0  0  0  0  0  0
   -3.0337    0.4206    1.5262 H   0  0  0  0  0  0  0  0  0  0  0  0
   -0.4542   -1.9229   -0.1967 H   0  0  0  0  0  0  0  0  0  0  0  0
   -1.0637   -0.6347    2.1934 H   0  0  0  0  0  0  0  0  0  0  0  0
  1  2  2  3
  2  3  1  0
  3  4  1  0
  2  5  1  0
  5  6  1  0
  6  7  1  0
  7  8  1  0
  8  9  1  0
  8 10  1  0
 10 11  1  0
 10 12  1  0
 12 13  1  0
 12  6  1  0
  1 14  1  0
  3 15  1  0
  4 16  1  0
  5 17  1  0
  6 18  1  6
  7 19  1  0
  7 20  1  0
  8 21  1  6
  9 22  1  0
 10 23  1  6
 11 24  1  0
 12 25  1  6
 13 26  1  0
M  END
$$$$

     RDKit          3D

 26 26  0  0  0  0  0  0  0  0999 V2000
    1.8809   -1.2001   -1.1830 N   0  0  0  0  0  0  0  0  0  0  0  0
    2.1545   -0.7162   -0.0189 C   0  0  0  0  0  0  0  0  0  0  0  0
    3.4152   -0.9924    0.5936 N   0  0  0  0  0  0  0  0  0  0  0  0
    4.4814   -1.3552   -0.1593 O   0  0  0  0  0  0  0  0  0  0  0  0
    1.1666    0.0911    0.6216 N   0  0  0  0  0  0  0  0  0  0  0  0
    0.0679    0.5769   -0.1618 C   0  0  2  0  0  0  0  0  0  0  0  0
   -0.8389    1.4094    0.7575 C   0  0  0  0  0  0  0  0  0  0  0  0
   -2.1151    1.4074   -0.0955 C   0  0  2  0  0  0  0  0  0  0  0  0
   -3.1891    1.9355    0.5887 O   0  0  0  0  0  0  0  0  0  0  0  0
   -2.2611   -0.0737   -0.3611 C   0  0  2  0  0  0  0  0  0  0  0  0
   -2.7223   -0.6525    0.8238 O   0  0  0  0  0  0  0  0  0  0  0  0
   -0.8403   -0.4899   -0.6778 C   0  0  2  0  0  0  0  0  0  0  0  0
   -0.5380   -1.7214   -0.0740 O   0  0  0  0  0  0  0  0  0  0  0  0
    2.5845   -1.7936   -1.6743 H   0  0  0  0  0  0  0  0  0  0  0  0
    3.5025   -0.9110    1.6255 H   0  0  0  0  0  0  0  0  0  0  0  0
    5.0727   -0.5496   -0.2930 H   0  0  0  0  0  0  0  0  0  0  0  0
    1.2729    0.3032    1.6376 H   0  0  0  0  0  0  0  0  0  0  0  0
    0.3636    1.2294   -0.9893 H   0  0  0  0  0  0  0  0  0  0  0  0
   -1.0744    0.8641    1.6746 H   0  0  0  0  0  0  0  0  0  0  0  0
   -0.4463    2.4104    0.9146 H   0  0  0  0  0  0  0  0  0  0  0  0
   -1.8550    1.9825   -1.0126 H   0  0  0  0  0  0  0  0  0  0  0  0
   -3.0345    2.8994    0.6908 H   0  0  0  0  0  0  0  0  0  0  0  0
   -2.9468   -0.2656   -1.2085 H   0  0  0  0  0  0  0  0  0  0  0  0
   -2.1359   -1.3863    1.1109 H   0  0  0  0  0  0  0  0  0  0  0  0
   -0.7490   -0.6373   -1.7813 H   0  0  0  0  0  0  0  0  0  0  0  0
   -1.2161   -2.3644   -0.4255 H   0  0  0  0  0  0  0  0  0  0  0  0
  1  2  2  3
  2  3  1  0
  3  4  1  0
  2  5  1  0
  5  6  1  0
  6  7  1  0
  7  8  1  0
  8  9  1  0
  8 10  1  0
 10 11  1  0
 10 12  1  0
 12 13  1  0
 12  6  1  0
  1 14  1  0
  3 15  1  0
  4 16  1  0
  5 17  1  0
  6 18  1  6
  7 19  1  0
  7 20  1  0
  8 21  1  6
  9 22  1  0
 10 23  1  6
 11 24  1  0
 12 25  1  6
 13 26  1  0
M  END
$$$$

     RDKit          3D

 26 26  0  0  0  0  0  0  0  0999 V2000
    1.7724   -1.2728   -0.3141 N   0  0  0  0  0  0  0  0  0  0  0  0
    2.2183   -0.2515    0.3501 C   0  0  0  0  0  0  0  0  0  0  0  0
    3.5741    0.0922    0.2847 N   0  0  0  0  0  0  0  0  0  0  0  0
    4.4928   -0.6143   -0.4407 O   0  0  0  0  0  0  0  0  0  0  0  0
    1.2387    0.4459    1.1112 N   0  0  0  0  0  0  0  0  0  0  0  0
   -0.1363    0.4437    0.8821 C   0  0  2  0  0  0  0  0  0  0  0  0
   -0.8724   -0.8446    0.9270 C   0  0  0  0  0  0  0  0  0  0  0  0
   -2.2342   -0.4567    0.3477 C   0  0  2  0  0  0  0  0  0  0  0  0
   -2.7016   -1.4500   -0.5287 O   0  0  0  0  0  0  0  0  0  0  0  0
   -2.0655    0.8612   -0.3258 C   0  0  2  0  0  0  0  0  0  0  0  0
   -2.7376    1.0051   -1.5084 O   0  0  0  0  0  0  0  0  0  0  0  0
   -0.5439    0.9805   -0.4976 C   0  0  2  0  0  0  0  0  0  0  0  0
   -0.0976    0.2045   -1.5267 O   0  0  0  0  0  0  0  0  0  0  0  0
    2.4118   -1.8391   -0.8948 H   0  0  0  0  0  0  0  0  0  0  0  0
    3.9104    0.9278    0.8126 H   0  0  0  0  0  0  0  0  0  0  0  0
    5.0110   -1.1337    0.2267 H   0  0  0  0  0  0  0  0  0  0  0  0
    1.6345    1.0115    1.9236 H   0  0  0  0  0  0  0  0  0  0  0  0
   -0.6489    1.1334    1.5966 H   0  0  0  0  0  0  0  0  0  0  0  0
   -0.4949   -1.6443    0.3009 H   0  0  0  0  0  0  0  0  0  0  0  0
   -0.9850   -1.1552    1.9889 H   0  0  0  0  0  0  0  0  0  0  0  0
   -2.9601   -0.3871    1.1616 H   0  0  0  0  0  0  0  0  0  0  0  0
   -3.3998   -1.0130   -1.0844 H   0  0  0  0  0  0  0  0  0  0  0  0
   -2.3191    1.6640    0.4268 H   0  0  0  0  0  0  0  0  0  0  0  0
   -3.2162    1.8870   -1.4802 H   0  0  0  0  0  0  0  0  0  0  0  0
   -0.2292    2.0210   -0.6042 H   0  0  0  0  0  0  0  0  0  0  0  0
   -0.6216   -0.6154   -1.6900 H   0  0  0  0  0  0  0  0  0  0  0  0
  1  2  2  3
  2  3  1  0
  3  4  1  0
  2  5  1  0
  5  6  1  0
  6  7  1  0
  7  8  1  0
  8  9  1  0
  8 10  1  0
 10 11  1  0
 10 12  1  0
 12 13  1  0
 12  6  1  0
  1 14  1  0
  3 15  1  0
  4 16  1  0
  5 17  1  0
  6 18  1  1
  7 19  1  0
  7 20  1  0
  8 21  1  1
  9 22  1  0
 10 23  1  1
 11 24  1  0
 12 25  1  6
 13 26  1  0
M  END
$$$$

     RDKit          3D

 26 26  0  0  0  0  0  0  0  0999 V2000
    1.3225   -0.8428   -0.7976 N   0  0  0  0  0  0  0  0  0  0  0  0
    1.8530   -0.5463    0.3400 C   0  0  0  0  0  0  0  0  0  0  0  0
    3.2686   -0.5319    0.5320 N   0  0  0  0  0  0  0  0  0  0  0  0
    4.0765   -0.5598   -0.5495 O   0  0  0  0  0  0  0  0  0  0  0  0
    0.9941   -0.2250    1.4320 N   0  0  0  0  0  0  0  0  0  0  0  0
   -0.4038    0.0231    1.2482 C   0  0  2  0  0  0  0  0  0  0  0  0
   -1.1655   -1.1204    0.6615 C   0  0  0  0  0  0  0  0  0  0  0  0
   -2.1024   -0.5694   -0.3794 C   0  0  2  0  0  0  0  0  0  0  0  0
   -1.8485   -1.1411   -1.6248 O   0  0  0  0  0  0  0  0  0  0  0  0
   -1.9318    0.9217   -0.3993 C   0  0  2  0  0  0  0  0  0  0  0  0
   -1.7881    1.3241   -1.7359 O   0  0  0  0  0  0  0  0  0  0  0  0
   -0.7009    1.2419    0.4157 C   0  0  2  0  0  0  0  0  0  0  0  0
    0.3383    1.6165   -0.4094 O   0  0  0  0  0  0  0  0  0  0  0  0
    1.9665   -1.0750   -1.5845 H   0  0  0  0  0  0  0  0  0  0  0  0
    3.6846   -0.5002    1.4937 H   0  0  0  0  0  0  0  0  0  0  0  0
    4.4913    0.3194   -0.7256 H   0  0  0  0  0  0  0  0  0  0  0  0
    1.4599   -0.1824    2.3874 H   0  0  0  0  0  0  0  0  0  0  0  0
   -0.8483    0.2179    2.2685 H   0  0  0  0  0  0  0  0  0  0  0  0
   -1.8094   -1.6409    1.4301 H   0  0  0  0  0  0  0  0  0  0  0  0
   -0.5461   -1.9102    0.2178 H   0  0  0  0  0  0  0  0  0  0  0  0
   -3.1797   -0.7999   -0.1504 H   0  0  0  0  0  0  0  0  0  0  0  0
   -2.4352   -1.9288   -1.7542 H   0  0  0  0  0  0  0  0  0  0  0  0
   -2.8419    1.4251   -0.0141 H   0  0  0  0  0  0  0  0  0  0  0  0
   -1.8965    2.3047   -1.7793 H   0  0  0  0  0  0  0  0  0  0  0  0
   -0.9799    2.1188    1.0640 H   0  0  0  0  0  0  0  0  0  0  0  0
    1.0226    2.0609    0.1530 H   0  0  0  0  0  0  0  0  0  0  0  0
  1  2  2  3
  2  3  1  0
  3  4  1  0
  2  5  1  0
  5  6  1  0
  6  7  1  0
  7  8  1  0
  8  9  1  0
  8 10  1  0
 10 11  1  0
 10 12  1  0
 12 13  1  0
 12  6  1  0
  1 14  1  0
  3 15  1  0
  4 16  1  0
  5 17  1  0
  6 18  1  1
  7 19  1  0
  7 20  1  0
  8 21  1  1
  9 22  1  0
 10 23  1  1
 11 24  1  0
 12 25  1  1
 13 26  1  0
M  END
$$$$

     RDKit          3D

 26 26  0  0  0  0  0  0  0  0999 V2000
    2.3565   -0.7578   -1.0231 N   0  0  0  0  0  0  0  0  0  0  0  0
    2.3238    0.2323   -0.2054 C   0  0  0  0  0  0  0  0  0  0  0  0
    3.5158    0.7768    0.3453 N   0  0  0  0  0  0  0  0  0  0  0  0
    4.7286    0.1806    0.1096 O   0  0  0  0  0  0  0  0  0  0  0  0
    1.0570    0.7654    0.1304 N   0  0  0  0  0  0  0  0  0  0  0  0
   -0.1159    0.5149   -0.6398 C   0  0  2  0  0  0  0  0  0  0  0  0
   -1.3125    1.2192   -0.0305 C   0  0  0  0  0  0  0  0  0  0  0  0
   -2.4487    0.5644   -0.8060 C   0  0  2  0  0  0  0  0  0  0  0  0
   -3.6784    0.8534   -0.2503 O   0  0  0  0  0  0  0  0  0  0  0  0
   -2.0799   -0.9062   -0.6603 C   0  0  2  0  0  0  0  0  0  0  0  0
   -2.6450   -1.3338    0.5426 O   0  0  0  0  0  0  0  0  0  0  0  0
   -0.5647   -0.9286   -0.6113 C   0  0  2  0  0  0  0  0  0  0  0  0
   -0.1187   -1.6013    0.5072 O   0  0  0  0  0  0  0  0  0  0  0  0
    3.2719   -1.1621   -1.2817 H   0  0  0  0  0  0  0  0  0  0  0  0
    3.4420    1.6360    0.9294 H   0  0  0  0  0  0  0  0  0  0  0  0
    4.7636   -0.6421    0.6570 H   0  0  0  0  0  0  0  0  0  0  0  0
    0.9898    1.3661    0.9799 H   0  0  0  0  0  0  0  0  0  0  0  0
   -0.0372    0.8873   -1.6859 H   0  0  0  0  0  0  0  0  0  0  0  0
   -1.4255    0.9327    1.0204 H   0  0  0  0  0  0  0  0  0  0  0  0
   -1.2958    2.3124   -0.2005 H   0  0  0  0  0  0  0  0  0  0  0  0
   -2.3540    0.8233   -1.8602 H   0  0  0  0  0  0  0  0  0  0  0  0
   -3.6148    1.8048    0.0834 H   0  0  0  0  0  0  0  0  0  0  0  0
   -2.4764   -1.4869   -1.5165 H   0  0  0  0  0  0  0  0  0  0  0  0
   -2.0829   -2.0180    1.0013 H   0  0  0  0  0  0  0  0  0  0  0  0
   -0.2151   -1.4629   -1.5346 H   0  0  0  0  0  0  0  0  0  0  0  0
    0.0165   -2.5699    0.2581 H   0  0  0  0  0  0  0  0  0  0  0  0
  1  2  2  3
  2  3  1  0
  3  4  1  0
  2  5  1  0
  5  6  1  0
  6  7  1  0
  7  8  1  0
  8  9  1  0
  8 10  1  0
 10 11  1  0
 10 12  1  0
 12 13  1  0
 12  6  1  0
  1 14  1  0
  3 15  1  0
  4 16  1  0
  5 17  1  0
  6 18  1  6
  7 19  1  0
  7 20  1  0
  8 21  1  6
  9 22  1  0
 10 23  1  6
 11 24  1  0
 12 25  1  6
 13 26  1  0
M  END
$$$$

     RDKit          3D

 26 26  0  0  0  0  0  0  0  0999 V2000
    1.4432   -0.6215    2.1412 N   0  0  0  0  0  0  0  0  0  0  0  0
    1.7720   -0.6593    0.8819 C   0  0  0  0  0  0  0  0  0  0  0  0
    3.1312   -0.4221    0.4873 N   0  0  0  0  0  0  0  0  0  0  0  0
    4.1157   -0.2600    1.3805 O   0  0  0  0  0  0  0  0  0  0  0  0
    0.8100   -0.9325   -0.1274 N   0  0  0  0  0  0  0  0  0  0  0  0
   -0.6055   -0.9851    0.1791 C   0  0  2  0  0  0  0  0  0  0  0  0
   -1.3513   -1.2886   -1.1058 C   0  0  0  0  0  0  0  0  0  0  0  0
   -1.4781    0.1094   -1.6771 C   0  0  2  0  0  0  0  0  0  0  0  0
   -0.2194    0.5632   -1.9765 O   0  0  0  0  0  0  0  0  0  0  0  0
   -2.0832    0.8140   -0.4773 C   0  0  2  0  0  0  0  0  0  0  0  0
   -2.0945    2.1916   -0.6428 O   0  0  0  0  0  0  0  0  0  0  0  0
   -1.1454    0.3680    0.6131 C   0  0  2  0  0  0  0  0  0  0  0  0
   -0.1487    1.2769    0.8715 O   0  0  0  0  0  0  0  0  0  0  0  0
    2.1648   -0.4215    2.8372 H   0  0  0  0  0  0  0  0  0  0  0  0
    3.3820   -0.3705   -0.5375 H   0  0  0  0  0  0  0  0  0  0  0  0
    4.8430    0.3147    1.0053 H   0  0  0  0  0  0  0  0  0  0  0  0
    1.1644   -1.0936   -1.0940 H   0  0  0  0  0  0  0  0  0  0  0  0
   -0.7988   -1.7543    0.9557 H   0  0  0  0  0  0  0  0  0  0  0  0
   -2.3539   -1.7084   -0.8584 H   0  0  0  0  0  0  0  0  0  0  0  0
   -0.7648   -1.9477   -1.7717 H   0  0  0  0  0  0  0  0  0  0  0  0
   -2.1487    0.1401   -2.5562 H   0  0  0  0  0  0  0  0  0  0  0  0
    0.1065    1.3090   -1.4519 H   0  0  0  0  0  0  0  0  0  0  0  0
   -3.0821    0.3855   -0.3179 H   0  0  0  0  0  0  0  0  0  0  0  0
   -2.4687    2.5831    0.1643 H   0  0  0  0  0  0  0  0  0  0  0  0
   -1.7475    0.2028    1.5510 H   0  0  0  0  0  0  0  0  0  0  0  0
   -0.4422    2.2067    0.7207 H   0  0  0  0  0  0  0  0  0  0  0  0
  1  2  2  3
  2  3  1  0
  3  4  1  0
  2  5  1  0
  5  6  1  0
  6  7  1  0
  7  8  1  0
  8  9  1  0
  8 10  1  0
 10 11  1  0
 10 12  1  0
 12 13  1  0
 12  6  1  0
  1 14  1  0
  3 15  1  0
  4 16  1  0
  5 17  1  0
  6 18  1  1
  7 19  1  0
  7 20  1  0
  8 21  1  6
  9 22  1  0
 10 23  1  1
 11 24  1  0
 12 25  1  1
 13 26  1  0
M  END
$$$$
