
     RDKit          3D

 28 27  0  0  0  0  0  0  0  0999 V2000
   -2.0896   -1.5944    0.8872 C   0  0  0  0  0  0  0  0  0  0  0  0
   -1.8814   -0.4785   -0.1054 C   0  0  2  0  0  0  0  0  0  0  0  0
   -0.6281    0.1881    0.0406 N   0  0  0  0  0  0  0  0  0  0  0  0
    0.4007    0.2006   -0.9371 C   0  0  0  0  0  0  0  0  0  0  0  0
    0.2270   -0.4051   -2.0110 O   0  0  0  0  0  0  0  0  0  0  0  0
    1.6510    0.9362   -0.6467 C   0  0  2  0  0  0  0  0  0  0  0  0
    2.6002    0.8633   -1.7275 N   0  0  0  0  0  0  0  0  0  0  0  0
    2.2617    0.5622    0.6778 C   0  0  1  0  0  0  0  0  0  0  0  0
    2.8564   -0.8185    0.6805 C   0  0  0  0  0  0  0  0  0  0  0  0
    3.3091    1.4711    0.9114 O   0  0  0  0  0  0  0  0  0  0  0  0
   -3.0083    0.4761   -0.1299 C   0  0  0  0  0  0  0  0  0  0  0  0
   -4.3528    0.0718   -0.2652 N   0  0  0  0  0  0  0  0  0  0  0  0
   -2.7433    1.7151   -0.0237 O   0  0  0  0  0  0  0  0  0  0  0  0
   -3.1797   -1.7949    1.0342 H   0  0  0  0  0  0  0  0  0  0  0  0
   -1.6280   -2.5397    0.5964 H   0  0  0  0  0  0  0  0  0  0  0  0
   -1.6920   -1.3353    1.8976 H   0  0  0  0  0  0  0  0  0  0  0  0
   -1.8710   -0.9696   -1.1227 H   0  0  0  0  0  0  0  0  0  0  0  0
   -0.4686    0.7091    0.9543 H   0  0  0  0  0  0  0  0  0  0  0  0
    1.3602    2.0194   -0.5564 H   0  0  0  0  0  0  0  0  0  0  0  0
    2.4235    1.6339   -2.4141 H   0  0  0  0  0  0  0  0  0  0  0  0
    2.6324   -0.0646   -2.1976 H   0  0  0  0  0  0  0  0  0  0  0  0
    1.5071    0.6464    1.4561 H   0  0  0  0  0  0  0  0  0  0  0  0
    2.0934   -1.5961    0.8447 H   0  0  0  0  0  0  0  0  0  0  0  0
    3.4520   -1.0321   -0.2292 H   0  0  0  0  0  0  0  0  0  0  0  0
    3.5619   -0.8758    1.5347 H   0  0  0  0  0  0  0  0  0  0  0  0
    2.9457    2.1731    1.4840 H   0  0  0  0  0  0  0  0  0  0  0  0
   -4.6087   -0.8918   -0.5708 H   0  0  0  0  0  0  0  0  0  0  0  0
   -5.1310    0.7297   -0.0620 H   0  0  0  0  0  0  0  0  0  0  0  0
  1  2  1  0
  2  3  1  0
  3  4  1  0
  4  5  2  0
  4  6  1  0
  6  7  1  0
  6  8  1  0
  8  9  1  0
  8 10  1  0
  2 11  1  0
 11 12  1  0
 11 13  2  0
  1 14  1  0
  1 15  1  0
  1 16  1  0
  2 17  1  6
  3 18  1  0
  6 19  1  1
  7 20  1  0
  7 21  1  0
  8 22  1  1
  9 23  1  0
  9 24  1  0
  9 25  1  0
 10 26  1  0
 12 27  1  0
 12 28  1  0
M  END
$$$$

     RDKit          3D

 28 27  0  0  0  0  0  0  0  0999 V2000
   -2.3350   -1.0013    0.5593 C   0  0  0  0  0  0  0  0  0  0  0  0
   -1.9114    0.4123    0.1378 C   0  0  2  0  0  0  0  0  0  0  0  0
   -0.4680    0.4328    0.2013 N   0  0  0  0  0  0  0  0  0  0  0  0
    0.3721    0.5141   -0.9163 C   0  0  0  0  0  0  0  0  0  0  0  0
   -0.2114    0.5740   -2.0532 O   0  0  0  0  0  0  0  0  0  0  0  0
    1.8431    0.5373   -0.9019 C   0  0  2  0  0  0  0  0  0  0  0  0
    2.3871    0.6905   -2.2515 N   0  0  0  0  0  0  0  0  0  0  0  0
    2.4646   -0.7429   -0.3698 C   0  0  1  0  0  0  0  0  0  0  0  0
    2.2680   -0.9415    1.1005 C   0  0  0  0  0  0  0  0  0  0  0  0
    2.1388   -1.8414   -1.1462 O   0  0  0  0  0  0  0  0  0  0  0  0
   -2.5467    1.4340    0.9534 C   0  0  0  0  0  0  0  0  0  0  0  0
   -3.9545    1.5439    0.9978 N   0  0  0  0  0  0  0  0  0  0  0  0
   -1.8632    2.2321    1.6285 O   0  0  0  0  0  0  0  0  0  0  0  0
   -2.0983   -1.1985    1.6153 H   0  0  0  0  0  0  0  0  0  0  0  0
   -1.7921   -1.7012   -0.1249 H   0  0  0  0  0  0  0  0  0  0  0  0
   -3.4184   -1.1114    0.3339 H   0  0  0  0  0  0  0  0  0  0  0  0
   -2.1780    0.4736   -0.9550 H   0  0  0  0  0  0  0  0  0  0  0  0
   -0.0398    0.3853    1.1481 H   0  0  0  0  0  0  0  0  0  0  0  0
    2.2545    1.3695   -0.2987 H   0  0  0  0  0  0  0  0  0  0  0  0
    3.2585    1.2328   -2.2293 H   0  0  0  0  0  0  0  0  0  0  0  0
    2.5160   -0.2209   -2.7220 H   0  0  0  0  0  0  0  0  0  0  0  0
    3.5758   -0.5937   -0.5311 H   0  0  0  0  0  0  0  0  0  0  0  0
    3.1782   -1.4927    1.4839 H   0  0  0  0  0  0  0  0  0  0  0  0
    2.2836    0.0460    1.5968 H   0  0  0  0  0  0  0  0  0  0  0  0
    1.3532   -1.5445    1.3309 H   0  0  0  0  0  0  0  0  0  0  0  0
    1.9260   -2.6425   -0.6051 H   0  0  0  0  0  0  0  0  0  0  0  0
   -4.5649    0.8342    0.5210 H   0  0  0  0  0  0  0  0  0  0  0  0
   -4.4377    2.3201    1.4966 H   0  0  0  0  0  0  0  0  0  0  0  0
  1  2  1  0
  2  3  1  0
  3  4  1  0
  4  5  2  0
  4  6  1  0
  6  7  1  0
  6  8  1  0
  8  9  1  0
  8 10  1  0
  2 11  1  0
 11 12  1  0
 11 13  2  0
  1 14  1  0
  1 15  1  0
  1 16  1  0
  2 17  1  6
  3 18  1  0
  6 19  1  1
  7 20  1  0
  7 21  1  0
  8 22  1  1
  9 23  1  0
  9 24  1  0
  9 25  1  0
 10 26  1  0
 12 27  1  0
 12 28  1  0
M  END
$$$$

     RDKit          3D

 28 27  0  0  0  0  0  0  0  0999 V2000
    2.7694   -1.5919    0.4377 C   0  0  0  0  0  0  0  0  0  0  0  0
    1.9340   -0.3657    0.1600 C   0  0  2  0  0  0  0  0  0  0  0  0
    0.5705   -0.6669   -0.1476 N   0  0  0  0  0  0  0  0  0  0  0  0
   -0.5341   -0.1387    0.6156 C   0  0  0  0  0  0  0  0  0  0  0  0
   -0.2406    0.6127    1.5819 O   0  0  0  0  0  0  0  0  0  0  0  0
   -1.9334   -0.4184    0.3383 C   0  0  2  0  0  0  0  0  0  0  0  0
   -2.0607   -1.2985   -0.8074 N   0  0  0  0  0  0  0  0  0  0  0  0
   -2.7863    0.7963    0.1065 C   0  0  1  0  0  0  0  0  0  0  0  0
   -2.9038    1.6630    1.3374 C   0  0  0  0  0  0  0  0  0  0  0  0
   -2.4288    1.5078   -1.0186 O   0  0  0  0  0  0  0  0  0  0  0  0
    2.5491    0.3269   -0.9946 C   0  0  0  0  0  0  0  0  0  0  0  0
    3.9049    0.7563   -0.9907 N   0  0  0  0  0  0  0  0  0  0  0  0
    1.8455    0.5398   -2.0089 O   0  0  0  0  0  0  0  0  0  0  0  0
    3.1183   -2.0365   -0.5224 H   0  0  0  0  0  0  0  0  0  0  0  0
    2.2725   -2.3392    1.0554 H   0  0  0  0  0  0  0  0  0  0  0  0
    3.6762   -1.2453    0.9767 H   0  0  0  0  0  0  0  0  0  0  0  0
    2.0422    0.3088    1.0385 H   0  0  0  0  0  0  0  0  0  0  0  0
    0.2689   -1.2826   -0.9354 H   0  0  0  0  0  0  0  0  0  0  0  0
   -2.3749   -0.9657    1.2026 H   0  0  0  0  0  0  0  0  0  0  0  0
   -1.5341   -2.1785   -0.6149 H   0  0  0  0  0  0  0  0  0  0  0  0
   -1.5983   -0.8185   -1.6092 H   0  0  0  0  0  0  0  0  0  0  0  0
   -3.8306    0.4097   -0.0849 H   0  0  0  0  0  0  0  0  0  0  0  0
   -3.7367    2.3816    1.1757 H   0  0  0  0  0  0  0  0  0  0  0  0
   -3.1356    0.9973    2.1941 H   0  0  0  0  0  0  0  0  0  0  0  0
   -1.9664    2.1892    1.5819 H   0  0  0  0  0  0  0  0  0  0  0  0
   -2.7516    1.0815   -1.8533 H   0  0  0  0  0  0  0  0  0  0  0  0
    4.2022    1.7410   -0.8963 H   0  0  0  0  0  0  0  0  0  0  0  0
    4.6620    0.0344   -1.0896 H   0  0  0  0  0  0  0  0  0  0  0  0
  1  2  1  0
  2  3  1  0
  3  4  1  0
  4  5  2  0
  4  6  1  0
  6  7  1  0
  6  8  1  0
  8  9  1  0
  8 10  1  0
  2 11  1  0
 11 12  1  0
 11 13  2  0
  1 14  1  0
  1 15  1  0
  1 16  1  0
  2 17  1  1
  3 18  1  0
  6 19  1  1
  7 20  1  0
  7 21  1  0
  8 22  1  6
  9 23  1  0
  9 24  1  0
  9 25  1  0
 10 26  1  0
 12 27  1  0
 12 28  1  0
M  END
$$$$

     RDKit          3D

 28 27  0  0  0  0  0  0  0  0999 V2000
    2.1224   -1.2342   -1.0389 C   0  0  0  0  0  0  0  0  0  0  0  0
    1.8549   -0.3891    0.2123 C   0  0  2  0  0  0  0  0  0  0  0  0
    0.5988    0.3004    0.0457 N   0  0  0  0  0  0  0  0  0  0  0  0
   -0.5220    0.0251    0.8777 C   0  0  0  0  0  0  0  0  0  0  0  0
   -0.3667   -0.8502    1.7684 O   0  0  0  0  0  0  0  0  0  0  0  0
   -1.7604    0.7732    0.6380 C   0  0  2  0  0  0  0  0  0  0  0  0
   -2.8314    0.4267    1.5254 N   0  0  0  0  0  0  0  0  0  0  0  0
   -2.1752    0.5547   -0.8070 C   0  0  1  0  0  0  0  0  0  0  0  0
   -2.5228   -0.9087   -0.9782 C   0  0  0  0  0  0  0  0  0  0  0  0
   -3.2791    1.3307   -1.1495 O   0  0  0  0  0  0  0  0  0  0  0  0
    2.9993    0.5105    0.3803 C   0  0  0  0  0  0  0  0  0  0  0  0
    4.2828   -0.0339    0.5524 N   0  0  0  0  0  0  0  0  0  0  0  0
    2.8422    1.7396    0.3716 O   0  0  0  0  0  0  0  0  0  0  0  0
    1.5585   -2.1904   -1.0048 H   0  0  0  0  0  0  0  0  0  0  0  0
    1.8643   -0.6083   -1.8992 H   0  0  0  0  0  0  0  0  0  0  0  0
    3.2246   -1.4536   -1.1247 H   0  0  0  0  0  0  0  0  0  0  0  0
    1.7415   -1.1083    1.0580 H   0  0  0  0  0  0  0  0  0  0  0  0
    0.5639    1.0180   -0.7282 H   0  0  0  0  0  0  0  0  0  0  0  0
   -1.5473    1.8629    0.7802 H   0  0  0  0  0  0  0  0  0  0  0  0
   -3.5200    1.2084    1.6357 H   0  0  0  0  0  0  0  0  0  0  0  0
   -2.4886    0.1682    2.4770 H   0  0  0  0  0  0  0  0  0  0  0  0
   -1.3402    0.8751   -1.4458 H   0  0  0  0  0  0  0  0  0  0  0  0
   -2.0158   -1.2336   -1.9245 H   0  0  0  0  0  0  0  0  0  0  0  0
   -2.1056   -1.4950   -0.1412 H   0  0  0  0  0  0  0  0  0  0  0  0
   -3.6244   -1.0489   -1.0510 H   0  0  0  0  0  0  0  0  0  0  0  0
   -3.1372    2.2469   -0.8049 H   0  0  0  0  0  0  0  0  0  0  0  0
    5.1345    0.5684    0.5261 H   0  0  0  0  0  0  0  0  0  0  0  0
    4.4488   -1.0547    0.7132 H   0  0  0  0  0  0  0  0  0  0  0  0
  1  2  1  0
  2  3  1  0
  3  4  1  0
  4  5  2  0
  4  6  1  0
  6  7  1  0
  6  8  1  0
  8  9  1  0
  8 10  1  0
  2 11  1  0
 11 12  1  0
 11 13  2  0
  1 14  1  0
  1 15  1  0
  1 16  1  0
  2 17  1  1
  3 18  1  0
  6 19  1  6
  7 20  1  0
  7 21  1  0
  8 22  1  6
  9 23  1  0
  9 24  1  0
  9 25  1  0
 10 26  1  0
 12 27  1  0
 12 28  1  0
M  END
$$$$

     RDKit          3D

 28 27  0  0  0  0  0  0  0  0999 V2000
    2.4645   -1.5072   -0.5108 C   0  0  0  0  0  0  0  0  0  0  0  0
    2.1962   -0.4925    0.5500 C   0  0  2  0  0  0  0  0  0  0  0  0
    1.0092    0.3434    0.3100 N   0  0  0  0  0  0  0  0  0  0  0  0
   -0.2517   -0.2404    0.1056 C   0  0  0  0  0  0  0  0  0  0  0  0
   -0.2900   -1.5221    0.1456 O   0  0  0  0  0  0  0  0  0  0  0  0
   -1.4809    0.4691   -0.1487 C   0  0  2  0  0  0  0  0  0  0  0  0
   -1.5324    1.8572   -0.0075 N   0  0  0  0  0  0  0  0  0  0  0  0
   -2.6030   -0.2033    0.6524 C   0  0  1  0  0  0  0  0  0  0  0  0
   -3.9029    0.1063   -0.1350 C   0  0  0  0  0  0  0  0  0  0  0  0
   -2.4209   -1.6009    0.5704 O   0  0  0  0  0  0  0  0  0  0  0  0
    3.3026    0.4545    0.6784 C   0  0  0  0  0  0  0  0  0  0  0  0
    3.8371    1.0117   -0.5647 N   0  0  0  0  0  0  0  0  0  0  0  0
    3.7509    0.7669    1.7929 O   0  0  0  0  0  0  0  0  0  0  0  0
    2.4791   -2.5245    0.0292 H   0  0  0  0  0  0  0  0  0  0  0  0
    3.4707   -1.5020   -0.9760 H   0  0  0  0  0  0  0  0  0  0  0  0
    1.7137   -1.5877   -1.3141 H   0  0  0  0  0  0  0  0  0  0  0  0
    1.9722   -1.0486    1.5186 H   0  0  0  0  0  0  0  0  0  0  0  0
    1.0571    1.4037    0.3246 H   0  0  0  0  0  0  0  0  0  0  0  0
   -1.7124    0.2138   -1.2672 H   0  0  0  0  0  0  0  0  0  0  0  0
   -2.1141    2.2514    0.7458 H   0  0  0  0  0  0  0  0  0  0  0  0
   -0.6600    2.3823   -0.2458 H   0  0  0  0  0  0  0  0  0  0  0  0
   -2.6596    0.0935    1.6717 H   0  0  0  0  0  0  0  0  0  0  0  0
   -4.6608   -0.5714    0.2202 H   0  0  0  0  0  0  0  0  0  0  0  0
   -4.1584    1.1544    0.0894 H   0  0  0  0  0  0  0  0  0  0  0  0
   -3.6609   -0.0493   -1.2227 H   0  0  0  0  0  0  0  0  0  0  0  0
   -3.1615   -2.1252    0.9200 H   0  0  0  0  0  0  0  0  0  0  0  0
    3.2044    1.1815   -1.3716 H   0  0  0  0  0  0  0  0  0  0  0  0
    4.8118    1.2851   -0.6643 H   0  0  0  0  0  0  0  0  0  0  0  0
  1  2  1  0
  2  3  1  0
  3  4  1  0
  4  5  2  0
  4  6  1  0
  6  7  1  0
  6  8  1  0
  8  9  1  0
  8 10  1  0
  2 11  1  0
 11 12  1  0
 11 13  2  0
  1 14  1  0
  1 15  1  0
  1 16  1  0
  2 17  1  1
  3 18  1  0
  6 19  1  6
  7 20  1  0
  7 21  1  0
  8 22  1  1
  9 23  1  0
  9 24  1  0
  9 25  1  0
 10 26  1  0
 12 27  1  0
 12 28  1  0
M  END
$$$$

     RDKit          3D

 28 27  0  0  0  0  0  0  0  0999 V2000
    3.0036   -0.5044   -1.3002 C   0  0  0  0  0  0  0  0  0  0  0  0
    2.1182   -0.5215   -0.0586 C   0  0  2  0  0  0  0  0  0  0  0  0
    0.8205    0.0210   -0.4468 N   0  0  0  0  0  0  0  0  0  0  0  0
   -0.3840   -0.6846   -0.2969 C   0  0  0  0  0  0  0  0  0  0  0  0
   -0.3620   -1.8298    0.1891 O   0  0  0  0  0  0  0  0  0  0  0  0
   -1.6560   -0.0500   -0.7208 C   0  0  2  0  0  0  0  0  0  0  0  0
   -1.4278    1.2277   -1.2321 N   0  0  0  0  0  0  0  0  0  0  0  0
   -2.6210   -0.0177    0.4481 C   0  0  1  0  0  0  0  0  0  0  0  0
   -3.9588    0.5302    0.0507 C   0  0  0  0  0  0  0  0  0  0  0  0
   -2.8347   -1.3200    0.9464 O   0  0  0  0  0  0  0  0  0  0  0  0
    2.7010    0.3963    0.9578 C   0  0  0  0  0  0  0  0  0  0  0  0
    3.9756    0.0783    1.4947 N   0  0  0  0  0  0  0  0  0  0  0  0
    2.1063    1.4336    1.3519 O   0  0  0  0  0  0  0  0  0  0  0  0
    3.0262   -1.5521   -1.6773 H   0  0  0  0  0  0  0  0  0  0  0  0
    4.0151   -0.1622   -0.9964 H   0  0  0  0  0  0  0  0  0  0  0  0
    2.5946    0.1452   -2.0857 H   0  0  0  0  0  0  0  0  0  0  0  0
    2.0179   -1.5267    0.3537 H   0  0  0  0  0  0  0  0  0  0  0  0
    0.8341    0.9809   -0.8502 H   0  0  0  0  0  0  0  0  0  0  0  0
   -2.0715   -0.7027   -1.5295 H   0  0  0  0  0  0  0  0  0  0  0  0
   -0.9660    1.9249   -0.6767 H   0  0  0  0  0  0  0  0  0  0  0  0
   -1.9039    1.5110   -2.0920 H   0  0  0  0  0  0  0  0  0  0  0  0
   -2.1524    0.5569    1.2557 H   0  0  0  0  0  0  0  0  0  0  0  0
   -3.8781    1.3301   -0.7330 H   0  0  0  0  0  0  0  0  0  0  0  0
   -4.6299   -0.2526   -0.3698 H   0  0  0  0  0  0  0  0  0  0  0  0
   -4.5011    0.9968    0.8942 H   0  0  0  0  0  0  0  0  0  0  0  0
   -2.7954   -1.9612    0.1784 H   0  0  0  0  0  0  0  0  0  0  0  0
    4.7957    0.6475    1.2030 H   0  0  0  0  0  0  0  0  0  0  0  0
    4.1338   -0.6949    2.1655 H   0  0  0  0  0  0  0  0  0  0  0  0
  1  2  1  0
  2  3  1  0
  3  4  1  0
  4  5  2  0
  4  6  1  0
  6  7  1  0
  6  8  1  0
  8  9  1  0
  8 10  1  0
  2 11  1  0
 11 12  1  0
 11 13  2  0
  1 14  1  0
  1 15  1  0
  1 16  1  0
  2 17  1  1
  3 18  1  0
  6 19  1  6
  7 20  1  0
  7 21  1  0
  8 22  1  1
  9 23  1  0
  9 24  1  0
  9 25  1  0
 10 26  1  0
 12 27  1  0
 12 28  1  0
M  END
$$$$

     RDKit          3D

 28 27  0  0  0  0  0  0  0  0999 V2000
    2.1408   -0.0425   -1.4592 C   0  0  0  0  0  0  0  0  0  0  0  0
    1.8548   -0.0646    0.0210 C   0  0  2  0  0  0  0  0  0  0  0  0
    0.4644    0.3085    0.2000 N   0  0  0  0  0  0  0  0  0  0  0  0
   -0.4311   -0.5756    0.8314 C   0  0  0  0  0  0  0  0  0  0  0  0
    0.0576   -1.6876    1.2226 O   0  0  0  0  0  0  0  0  0  0  0  0
   -1.8518   -0.2343    1.0302 C   0  0  2  0  0  0  0  0  0  0  0  0
   -2.4204   -1.2959    1.8830 N   0  0  0  0  0  0  0  0  0  0  0  0
   -2.6557   -0.2750   -0.2496 C   0  0  1  0  0  0  0  0  0  0  0  0
   -2.2502    0.8490   -1.1594 C   0  0  0  0  0  0  0  0  0  0  0  0
   -2.5540   -1.4929   -0.8922 O   0  0  0  0  0  0  0  0  0  0  0  0
    2.7141    0.9496    0.6877 C   0  0  0  0  0  0  0  0  0  0  0  0
    4.1274    0.8477    0.6791 N   0  0  0  0  0  0  0  0  0  0  0  0
    2.2044    1.9339    1.2825 O   0  0  0  0  0  0  0  0  0  0  0  0
    1.3864    0.5579   -2.0196 H   0  0  0  0  0  0  0  0  0  0  0  0
    2.2281   -1.0653   -1.8468 H   0  0  0  0  0  0  0  0  0  0  0  0
    3.1302    0.4708   -1.6345 H   0  0  0  0  0  0  0  0  0  0  0  0
    2.0376   -1.0871    0.4445 H   0  0  0  0  0  0  0  0  0  0  0  0
    0.1940    1.2417   -0.1531 H   0  0  0  0  0  0  0  0  0  0  0  0
   -1.9688    0.7114    1.5745 H   0  0  0  0  0  0  0  0  0  0  0  0
   -3.4144   -1.0196    2.0292 H   0  0  0  0  0  0  0  0  0  0  0  0
   -2.2912   -2.1699    1.3563 H   0  0  0  0  0  0  0  0  0  0  0  0
   -3.7524   -0.1318   -0.0127 H   0  0  0  0  0  0  0  0  0  0  0  0
   -3.1320    1.0197   -1.8492 H   0  0  0  0  0  0  0  0  0  0  0  0
   -2.0816    1.7704   -0.5540 H   0  0  0  0  0  0  0  0  0  0  0  0
   -1.3931    0.5913   -1.7874 H   0  0  0  0  0  0  0  0  0  0  0  0
   -1.6111   -1.7255   -0.9802 H   0  0  0  0  0  0  0  0  0  0  0  0
    4.5702    0.0309    1.1602 H   0  0  0  0  0  0  0  0  0  0  0  0
    4.6975    1.5848    0.1958 H   0  0  0  0  0  0  0  0  0  0  0  0
  1  2  1  0
  2  3  1  0
  3  4  1  0
  4  5  2  0
  4  6  1  0
  6  7  1  0
  6  8  1  0
  8  9  1  0
  8 10  1  0
  2 11  1  0
 11 12  1  0
 11 13  2  0
  1 14  1  0
  1 15  1  0
  1 16  1  0
  2 17  1  1
  3 18  1  0
  6 19  1  1
  7 20  1  0
  7 21  1  0
  8 22  1  1
  9 23  1  0
  9 24  1  0
  9 25  1  0
 10 26  1  0
 12 27  1  0
 12 28  1  0
M  END
$$$$

     RDKit          3D

 28 27  0  0  0  0  0  0  0  0999 V2000
    2.8012   -1.4963    0.6200 C   0  0  0  0  0  0  0  0  0  0  0  0
    2.1231   -0.1565    0.3371 C   0  0  2  0  0  0  0  0  0  0  0  0
    0.7594   -0.4315   -0.0308 N   0  0  0  0  0  0  0  0  0  0  0  0
   -0.3663   -0.0025    0.6878 C   0  0  0  0  0  0  0  0  0  0  0  0
   -0.2269    0.6696    1.7290 O   0  0  0  0  0  0  0  0  0  0  0  0
   -1.7204   -0.3559    0.1972 C   0  0  2  0  0  0  0  0  0  0  0  0
   -1.6488   -1.1202   -0.9969 N   0  0  0  0  0  0  0  0  0  0  0  0
   -2.5380    0.8929   -0.1103 C   0  0  1  0  0  0  0  0  0  0  0  0
   -3.8657    0.4284   -0.6661 C   0  0  0  0  0  0  0  0  0  0  0  0
   -2.6699    1.7102    0.9886 O   0  0  0  0  0  0  0  0  0  0  0  0
    2.8081    0.5740   -0.7393 C   0  0  0  0  0  0  0  0  0  0  0  0
    4.1859    0.9737   -0.6270 N   0  0  0  0  0  0  0  0  0  0  0  0
    2.1802    0.8615   -1.7903 O   0  0  0  0  0  0  0  0  0  0  0  0
    2.7681   -2.0698   -0.3266 H   0  0  0  0  0  0  0  0  0  0  0  0
    3.8438   -1.2588    0.9398 H   0  0  0  0  0  0  0  0  0  0  0  0
    2.2179   -2.0195    1.3892 H   0  0  0  0  0  0  0  0  0  0  0  0
    2.2068    0.4378    1.2600 H   0  0  0  0  0  0  0  0  0  0  0  0
    0.6097   -0.9953   -0.9029 H   0  0  0  0  0  0  0  0  0  0  0  0
   -2.2474   -0.9682    0.9713 H   0  0  0  0  0  0  0  0  0  0  0  0
   -1.2318   -0.6916   -1.8078 H   0  0  0  0  0  0  0  0  0  0  0  0
   -1.6741   -2.1270   -0.9157 H   0  0  0  0  0  0  0  0  0  0  0  0
   -1.9891    1.4481   -0.8988 H   0  0  0  0  0  0  0  0  0  0  0  0
   -3.6954   -0.0917   -1.6175 H   0  0  0  0  0  0  0  0  0  0  0  0
   -4.2950   -0.2954    0.0499 H   0  0  0  0  0  0  0  0  0  0  0  0
   -4.5614    1.2850   -0.8027 H   0  0  0  0  0  0  0  0  0  0  0  0
   -3.0759    2.5548    0.6877 H   0  0  0  0  0  0  0  0  0  0  0  0
    4.3693    1.8957   -0.1752 H   0  0  0  0  0  0  0  0  0  0  0  0
    4.9324    0.3485   -0.9894 H   0  0  0  0  0  0  0  0  0  0  0  0
  1  2  1  0
  2  3  1  0
  3  4  1  0
  4  5  2  0
  4  6  1  0
  6  7  1  0
  6  8  1  0
  8  9  1  0
  8 10  1  0
  2 11  1  0
 11 12  1  0
 11 13  2  0
  1 14  1  0
  1 15  1  0
  1 16  1  0
  2 17  1  1
  3 18  1  0
  6 19  1  1
  7 20  1  0
  7 21  1  0
  8 22  1  6
  9 23  1  0
  9 24  1  0
  9 25  1  0
 10 26  1  0
 12 27  1  0
 12 28  1  0
M  END
$$$$
