
     RDKit          3D

 28 28  0  0  0  0  0  0  0  0999 V2000
    4.2029    0.2374    0.4615 C   0  0  0  0  0  0  0  0  0  0  0  0
    2.8566   -0.2951    0.7901 C   0  0  0  0  0  0  0  0  0  0  0  0
    2.4654   -1.0090    1.8554 N   0  0  0  0  0  0  0  0  0  0  0  0
    1.1791   -1.2874    1.7702 N   0  0  0  0  0  0  0  0  0  0  0  0
    0.7073   -0.7373    0.6081 C   0  0  0  0  0  0  0  0  0  0  0  0
   -0.4998   -0.8306    0.2385 N   0  0  0  0  0  0  0  0  0  0  0  0
   -1.1199   -0.3069   -0.9430 C   0  0  0  0  0  0  0  0  0  0  0  0
   -2.6331   -0.4373   -0.7286 C   0  0  1  0  0  0  0  0  0  0  0  0
   -2.9304   -1.7845   -0.5472 O   0  0  0  0  0  0  0  0  0  0  0  0
   -3.0522    0.3134    0.4965 C   0  0  0  0  0  0  0  0  0  0  0  0
   -2.7856    1.7181    0.4058 N   0  0  0  0  0  0  0  0  0  0  0  0
    1.7558   -0.1353    0.0269 N   0  0  0  0  0  0  0  0  0  0  0  0
    1.7307    0.5796   -1.2228 C   0  0  0  0  0  0  0  0  0  0  0  0
    4.1235    1.3380    0.4005 H   0  0  0  0  0  0  0  0  0  0  0  0
    4.9713   -0.1225    1.1439 H   0  0  0  0  0  0  0  0  0  0  0  0
    4.4275   -0.1024   -0.5882 H   0  0  0  0  0  0  0  0  0  0  0  0
    0.6087   -1.8220    2.4454 H   0  0  0  0  0  0  0  0  0  0  0  0
   -0.8622    0.7542   -1.1241 H   0  0  0  0  0  0  0  0  0  0  0  0
   -0.9021   -0.9726   -1.8136 H   0  0  0  0  0  0  0  0  0  0  0  0
   -3.1599   -0.0688   -1.6393 H   0  0  0  0  0  0  0  0  0  0  0  0
   -3.6531   -1.8628    0.1082 H   0  0  0  0  0  0  0  0  0  0  0  0
   -2.4792   -0.0884    1.3597 H   0  0  0  0  0  0  0  0  0  0  0  0
   -4.1251    0.1602    0.6608 H   0  0  0  0  0  0  0  0  0  0  0  0
   -3.3959    2.2826    1.0366 H   0  0  0  0  0  0  0  0  0  0  0  0
   -2.8152    2.0960   -0.5649 H   0  0  0  0  0  0  0  0  0  0  0  0
    2.8004    0.7179   -1.5635 H   0  0  0  0  0  0  0  0  0  0  0  0
    1.3592    1.6066   -1.0232 H   0  0  0  0  0  0  0  0  0  0  0  0
    1.2254    0.0590   -2.0493 H   0  0  0  0  0  0  0  0  0  0  0  0
  1  2  1  0
  2  3  2  0
  3  4  1  0
  4  5  1  0
  5  6  2  3
  6  7  1  0
  7  8  1  0
  8  9  1  0
  8 10  1  0
 10 11  1  0
  5 12  1  0
 12 13  1  0
 12  2  1  0
  1 14  1  0
  1 15  1  0
  1 16  1  0
  4 17  1  0
  7 18  1  0
  7 19  1  0
  8 20  1  6
  9 21  1  0
 10 22  1  0
 10 23  1  0
 11 24  1  0
 11 25  1  0
 13 26  1  0
 13 27  1  0
 13 28  1  0
M  END
$$$$

     RDKit          3D

 28 28  0  0  0  0  0  0  0  0999 V2000
   -4.1423    1.0152   -0.1007 C   0  0  0  0  0  0  0  0  0  0  0  0
   -2.8113    0.4619   -0.4981 C   0  0  0  0  0  0  0  0  0  0  0  0
   -2.2670    0.4004   -1.7235 N   0  0  0  0  0  0  0  0  0  0  0  0
   -1.0617   -0.1725   -1.6191 N   0  0  0  0  0  0  0  0  0  0  0  0
   -0.8285   -0.4806   -0.3261 C   0  0  0  0  0  0  0  0  0  0  0  0
    0.2098   -1.0421    0.2022 N   0  0  0  0  0  0  0  0  0  0  0  0
    1.3595   -1.4580   -0.5400 C   0  0  0  0  0  0  0  0  0  0  0  0
    2.4352   -0.4004   -0.6025 C   0  0  1  0  0  0  0  0  0  0  0  0
    1.9555    0.7563   -1.2106 O   0  0  0  0  0  0  0  0  0  0  0  0
    2.9173   -0.0489    0.8100 C   0  0  0  0  0  0  0  0  0  0  0  0
    3.9687    0.9346    0.7150 N   0  0  0  0  0  0  0  0  0  0  0  0
   -1.9104   -0.0855    0.3488 N   0  0  0  0  0  0  0  0  0  0  0  0
   -2.0848   -0.2292    1.7950 C   0  0  0  0  0  0  0  0  0  0  0  0
   -4.0148    2.0909    0.1371 H   0  0  0  0  0  0  0  0  0  0  0  0
   -4.5260    0.4518    0.7770 H   0  0  0  0  0  0  0  0  0  0  0  0
   -4.8424    0.8691   -0.9396 H   0  0  0  0  0  0  0  0  0  0  0  0
   -0.3800   -0.3714   -2.3677 H   0  0  0  0  0  0  0  0  0  0  0  0
    1.1202   -1.7935   -1.5500 H   0  0  0  0  0  0  0  0  0  0  0  0
    1.8127   -2.3232    0.0209 H   0  0  0  0  0  0  0  0  0  0  0  0
    3.3042   -0.8314   -1.1347 H   0  0  0  0  0  0  0  0  0  0  0  0
    2.5214    0.9577   -2.0088 H   0  0  0  0  0  0  0  0  0  0  0  0
    2.0784    0.4112    1.3765 H   0  0  0  0  0  0  0  0  0  0  0  0
    3.2528   -0.9847    1.2997 H   0  0  0  0  0  0  0  0  0  0  0  0
    3.5396    1.8814    0.7322 H   0  0  0  0  0  0  0  0  0  0  0  0
    4.6314    0.7747   -0.0522 H   0  0  0  0  0  0  0  0  0  0  0  0
   -3.0106    0.2492    2.1280 H   0  0  0  0  0  0  0  0  0  0  0  0
   -1.1737    0.2485    2.2476 H   0  0  0  0  0  0  0  0  0  0  0  0
   -2.0532   -1.2816    2.0834 H   0  0  0  0  0  0  0  0  0  0  0  0
  1  2  1  0
  2  3  2  0
  3  4  1  0
  4  5  1  0
  5  6  2  3
  6  7  1  0
  7  8  1  0
  8  9  1  0
  8 10  1  0
 10 11  1  0
  5 12  1  0
 12 13  1  0
 12  2  1  0
  1 14  1  0
  1 15  1  0
  1 16  1  0
  4 17  1  0
  7 18  1  0
  7 19  1  0
  8 20  1  6
  9 21  1  0
 10 22  1  0
 10 23  1  0
 11 24  1  0
 11 25  1  0
 13 26  1  0
 13 27  1  0
 13 28  1  0
M  END
$$$$

     RDKit          3D

 28 28  0  0  0  0  0  0  0  0999 V2000
   -4.1736    0.1737   -0.6536 C   0  0  0  0  0  0  0  0  0  0  0  0
   -2.8174   -0.2774   -0.2246 C   0  0  0  0  0  0  0  0  0  0  0  0
   -2.4008   -1.5512   -0.1398 N   0  0  0  0  0  0  0  0  0  0  0  0
   -1.1401   -1.5561    0.2762 N   0  0  0  0  0  0  0  0  0  0  0  0
   -0.7230   -0.2930    0.4662 C   0  0  0  0  0  0  0  0  0  0  0  0
    0.4617    0.0088    0.8698 N   0  0  0  0  0  0  0  0  0  0  0  0
    1.4541   -0.9700    1.1569 C   0  0  0  0  0  0  0  0  0  0  0  0
    2.8663   -0.4655    1.0355 C   0  0  1  0  0  0  0  0  0  0  0  0
    3.8036   -1.4493    1.3236 O   0  0  0  0  0  0  0  0  0  0  0  0
    3.1890    0.1132   -0.2975 C   0  0  0  0  0  0  0  0  0  0  0  0
    2.2831    1.1552   -0.7181 N   0  0  0  0  0  0  0  0  0  0  0  0
   -1.7711    0.4871    0.1525 N   0  0  0  0  0  0  0  0  0  0  0  0
   -1.7613    1.9194    0.2150 C   0  0  0  0  0  0  0  0  0  0  0  0
   -4.6471   -0.6000   -1.2787 H   0  0  0  0  0  0  0  0  0  0  0  0
   -4.8428    0.3466    0.2199 H   0  0  0  0  0  0  0  0  0  0  0  0
   -4.0988    1.1065   -1.2651 H   0  0  0  0  0  0  0  0  0  0  0  0
   -0.6040   -2.4489    0.4162 H   0  0  0  0  0  0  0  0  0  0  0  0
    1.2982   -1.4684    2.1347 H   0  0  0  0  0  0  0  0  0  0  0  0
    1.3508   -1.7927    0.3908 H   0  0  0  0  0  0  0  0  0  0  0  0
    2.9893    0.3431    1.7956 H   0  0  0  0  0  0  0  0  0  0  0  0
    3.6597   -2.2565    0.7625 H   0  0  0  0  0  0  0  0  0  0  0  0
    3.2707   -0.6723   -1.0932 H   0  0  0  0  0  0  0  0  0  0  0  0
    4.1987    0.5704   -0.2360 H   0  0  0  0  0  0  0  0  0  0  0  0
    2.1358    1.8310    0.0363 H   0  0  0  0  0  0  0  0  0  0  0  0
    1.4465    0.7633   -1.1612 H   0  0  0  0  0  0  0  0  0  0  0  0
   -1.0643    2.3313    0.9721 H   0  0  0  0  0  0  0  0  0  0  0  0
   -2.7860    2.2812    0.5189 H   0  0  0  0  0  0  0  0  0  0  0  0
   -1.5775    2.3705   -0.7961 H   0  0  0  0  0  0  0  0  0  0  0  0
  1  2  1  0
  2  3  2  0
  3  4  1  0
  4  5  1  0
  5  6  2  3
  6  7  1  0
  7  8  1  0
  8  9  1  0
  8 10  1  0
 10 11  1  0
  5 12  1  0
 12 13  1  0
 12  2  1  0
  1 14  1  0
  1 15  1  0
  1 16  1  0
  4 17  1  0
  7 18  1  0
  7 19  1  0
  8 20  1  1
  9 21  1  0
 10 22  1  0
 10 23  1  0
 11 24  1  0
 11 25  1  0
 13 26  1  0
 13 27  1  0
 13 28  1  0
M  END
$$$$

     RDKit          3D

 28 28  0  0  0  0  0  0  0  0999 V2000
   -4.4648    0.9087   -0.6113 C   0  0  0  0  0  0  0  0  0  0  0  0
   -2.9707    0.8150   -0.6789 C   0  0  0  0  0  0  0  0  0  0  0  0
   -2.1464    1.4240   -1.5559 N   0  0  0  0  0  0  0  0  0  0  0  0
   -0.9003    1.0772   -1.2711 N   0  0  0  0  0  0  0  0  0  0  0  0
   -0.8825    0.2399   -0.2092 C   0  0  0  0  0  0  0  0  0  0  0  0
    0.1274   -0.3176    0.3728 N   0  0  0  0  0  0  0  0  0  0  0  0
    1.4410   -0.0213   -0.1680 C   0  0  0  0  0  0  0  0  0  0  0  0
    2.5139   -0.8800    0.4626 C   0  0  1  0  0  0  0  0  0  0  0  0
    2.1709   -2.2132    0.1830 O   0  0  0  0  0  0  0  0  0  0  0  0
    3.8274   -0.6024   -0.2077 C   0  0  0  0  0  0  0  0  0  0  0  0
    4.2590    0.7495    0.0266 N   0  0  0  0  0  0  0  0  0  0  0  0
   -2.1779    0.0957    0.1360 N   0  0  0  0  0  0  0  0  0  0  0  0
   -2.6761   -0.7126    1.2255 C   0  0  0  0  0  0  0  0  0  0  0  0
   -4.7458    1.9750   -0.6282 H   0  0  0  0  0  0  0  0  0  0  0  0
   -4.8855    0.3941   -1.5158 H   0  0  0  0  0  0  0  0  0  0  0  0
   -4.8069    0.3744    0.2752 H   0  0  0  0  0  0  0  0  0  0  0  0
   -0.0076    1.3711   -1.7560 H   0  0  0  0  0  0  0  0  0  0  0  0
    1.4482   -0.0620   -1.2607 H   0  0  0  0  0  0  0  0  0  0  0  0
    1.6519    1.0436    0.1208 H   0  0  0  0  0  0  0  0  0  0  0  0
    2.5390   -0.7473    1.5425 H   0  0  0  0  0  0  0  0  0  0  0  0
    2.7061   -2.5586   -0.5678 H   0  0  0  0  0  0  0  0  0  0  0  0
    3.6825   -0.7117   -1.3104 H   0  0  0  0  0  0  0  0  0  0  0  0
    4.6265   -1.2844    0.1404 H   0  0  0  0  0  0  0  0  0  0  0  0
    4.4657    0.9043    1.0247 H   0  0  0  0  0  0  0  0  0  0  0  0
    3.6724    1.4636   -0.4231 H   0  0  0  0  0  0  0  0  0  0  0  0
   -1.8812   -1.3274    1.6707 H   0  0  0  0  0  0  0  0  0  0  0  0
   -3.5345   -1.3489    0.9415 H   0  0  0  0  0  0  0  0  0  0  0  0
   -3.0518   -0.0487    2.0442 H   0  0  0  0  0  0  0  0  0  0  0  0
  1  2  1  0
  2  3  2  0
  3  4  1  0
  4  5  1  0
  5  6  2  3
  6  7  1  0
  7  8  1  0
  8  9  1  0
  8 10  1  0
 10 11  1  0
  5 12  1  0
 12 13  1  0
 12  2  1  0
  1 14  1  0
  1 15  1  0
  1 16  1  0
  4 17  1  0
  7 18  1  0
  7 19  1  0
  8 20  1  1
  9 21  1  0
 10 22  1  0
 10 23  1  0
 11 24  1  0
 11 25  1  0
 13 26  1  0
 13 27  1  0
 13 28  1  0
M  END
$$$$

     RDKit          3D

 28 28  0  0  0  0  0  0  0  0999 V2000
    4.2685   -0.4565    0.4678 C   0  0  0  0  0  0  0  0  0  0  0  0
    2.8411   -0.8063    0.4982 C   0  0  0  0  0  0  0  0  0  0  0  0
    2.3499   -1.9398    1.0088 N   0  0  0  0  0  0  0  0  0  0  0  0
    1.0351   -1.9449    0.8803 N   0  0  0  0  0  0  0  0  0  0  0  0
    0.6512   -0.8043    0.2789 C   0  0  0  0  0  0  0  0  0  0  0  0
   -0.5809   -0.5416    0.0264 N   0  0  0  0  0  0  0  0  0  0  0  0
   -1.1169    0.6139   -0.5974 C   0  0  0  0  0  0  0  0  0  0  0  0
   -2.5414    0.2583   -1.0499 C   0  0  1  0  0  0  0  0  0  0  0  0
   -2.4224   -0.8086   -1.9395 O   0  0  0  0  0  0  0  0  0  0  0  0
   -3.3862   -0.1358    0.1430 C   0  0  0  0  0  0  0  0  0  0  0  0
   -3.4684    1.0107    1.0210 N   0  0  0  0  0  0  0  0  0  0  0  0
    1.7745   -0.1036    0.0450 N   0  0  0  0  0  0  0  0  0  0  0  0
    1.8503    1.1868   -0.5846 C   0  0  0  0  0  0  0  0  0  0  0  0
    4.8992   -1.3212    0.2054 H   0  0  0  0  0  0  0  0  0  0  0  0
    4.4999    0.4034   -0.1802 H   0  0  0  0  0  0  0  0  0  0  0  0
    4.5460   -0.1381    1.5138 H   0  0  0  0  0  0  0  0  0  0  0  0
    0.4499   -2.7519    1.2204 H   0  0  0  0  0  0  0  0  0  0  0  0
   -1.1994    1.4963    0.0678 H   0  0  0  0  0  0  0  0  0  0  0  0
   -0.6014    0.9415   -1.5177 H   0  0  0  0  0  0  0  0  0  0  0  0
   -2.9811    1.1083   -1.5908 H   0  0  0  0  0  0  0  0  0  0  0  0
   -1.7543   -1.4357   -1.6123 H   0  0  0  0  0  0  0  0  0  0  0  0
   -4.3953   -0.4188   -0.1876 H   0  0  0  0  0  0  0  0  0  0  0  0
   -2.8678   -0.9662    0.6628 H   0  0  0  0  0  0  0  0  0  0  0  0
   -4.4264    1.0601    1.4011 H   0  0  0  0  0  0  0  0  0  0  0  0
   -3.2187    1.8803    0.5205 H   0  0  0  0  0  0  0  0  0  0  0  0
    1.1421    1.9275   -0.1990 H   0  0  0  0  0  0  0  0  0  0  0  0
    1.7849    1.0537   -1.7024 H   0  0  0  0  0  0  0  0  0  0  0  0
    2.8680    1.6324   -0.4239 H   0  0  0  0  0  0  0  0  0  0  0  0
  1  2  1  0
  2  3  2  0
  3  4  1  0
  4  5  1  0
  5  6  2  3
  6  7  1  0
  7  8  1  0
  8  9  1  0
  8 10  1  0
 10 11  1  0
  5 12  1  0
 12 13  1  0
 12  2  1  0
  1 14  1  0
  1 15  1  0
  1 16  1  0
  4 17  1  0
  7 18  1  0
  7 19  1  0
  8 20  1  6
  9 21  1  0
 10 22  1  0
 10 23  1  0
 11 24  1  0
 11 25  1  0
 13 26  1  0
 13 27  1  0
 13 28  1  0
M  END
$$$$

     RDKit          3D

 28 28  0  0  0  0  0  0  0  0999 V2000
   -4.4497    0.6190    0.4447 C   0  0  0  0  0  0  0  0  0  0  0  0
   -3.0015    0.6757    0.0814 C   0  0  0  0  0  0  0  0  0  0  0  0
   -2.3219    1.8326   -0.0107 N   0  0  0  0  0  0  0  0  0  0  0  0
   -1.0874    1.5191   -0.3455 N   0  0  0  0  0  0  0  0  0  0  0  0
   -0.9813    0.1927   -0.4644 C   0  0  0  0  0  0  0  0  0  0  0  0
    0.0379   -0.5172   -0.7720 N   0  0  0  0  0  0  0  0  0  0  0  0
    1.3276    0.0272   -1.0613 C   0  0  0  0  0  0  0  0  0  0  0  0
    2.2902   -0.1661    0.1136 C   0  0  1  0  0  0  0  0  0  0  0  0
    2.3917   -1.5290    0.3283 O   0  0  0  0  0  0  0  0  0  0  0  0
    3.6099    0.4452   -0.3260 C   0  0  0  0  0  0  0  0  0  0  0  0
    4.6495    0.2611    0.6495 N   0  0  0  0  0  0  0  0  0  0  0  0
   -2.1892   -0.3333   -0.1946 N   0  0  0  0  0  0  0  0  0  0  0  0
   -2.5516   -1.7391   -0.2001 C   0  0  0  0  0  0  0  0  0  0  0  0
   -5.0095    1.1349   -0.3563 H   0  0  0  0  0  0  0  0  0  0  0  0
   -4.7647   -0.4314    0.6011 H   0  0  0  0  0  0  0  0  0  0  0  0
   -4.5508    1.2134    1.3827 H   0  0  0  0  0  0  0  0  0  0  0  0
   -0.3064    2.2179   -0.4951 H   0  0  0  0  0  0  0  0  0  0  0  0
    1.3275    1.0984   -1.3026 H   0  0  0  0  0  0  0  0  0  0  0  0
    1.7781   -0.5704   -1.9050 H   0  0  0  0  0  0  0  0  0  0  0  0
    1.9405    0.3264    1.0242 H   0  0  0  0  0  0  0  0  0  0  0  0
    3.2151   -1.9373    0.0089 H   0  0  0  0  0  0  0  0  0  0  0  0
    3.8811    0.0686   -1.3343 H   0  0  0  0  0  0  0  0  0  0  0  0
    3.4394    1.5348   -0.4425 H   0  0  0  0  0  0  0  0  0  0  0  0
    4.6869    1.0769    1.2740 H   0  0  0  0  0  0  0  0  0  0  0  0
    4.5754   -0.6513    1.1683 H   0  0  0  0  0  0  0  0  0  0  0  0
   -1.6603   -2.3842   -0.2608 H   0  0  0  0  0  0  0  0  0  0  0  0
   -3.1800   -1.9773   -1.0991 H   0  0  0  0  0  0  0  0  0  0  0  0
   -3.0966   -2.0075    0.7260 H   0  0  0  0  0  0  0  0  0  0  0  0
  1  2  1  0
  2  3  2  0
  3  4  1  0
  4  5  1  0
  5  6  2  3
  6  7  1  0
  7  8  1  0
  8  9  1  0
  8 10  1  0
 10 11  1  0
  5 12  1  0
 12 13  1  0
 12  2  1  0
  1 14  1  0
  1 15  1  0
  1 16  1  0
  4 17  1  0
  7 18  1  0
  7 19  1  0
  8 20  1  1
  9 21  1  0
 10 22  1  0
 10 23  1  0
 11 24  1  0
 11 25  1  0
 13 26  1  0
 13 27  1  0
 13 28  1  0
M  END
$$$$

     RDKit          3D

 28 28  0  0  0  0  0  0  0  0999 V2000
    4.3960    0.6850    0.2485 C   0  0  0  0  0  0  0  0  0  0  0  0
    2.9284    0.6417    0.0032 C   0  0  0  0  0  0  0  0  0  0  0  0
    2.1395    1.7223   -0.0668 N   0  0  0  0  0  0  0  0  0  0  0  0
    0.8729    1.3635   -0.2965 N   0  0  0  0  0  0  0  0  0  0  0  0
    0.8889    0.0208   -0.3691 C   0  0  0  0  0  0  0  0  0  0  0  0
   -0.1501   -0.7017   -0.5816 N   0  0  0  0  0  0  0  0  0  0  0  0
   -1.4752   -0.2061   -0.7731 C   0  0  0  0  0  0  0  0  0  0  0  0
   -2.4296   -0.7654    0.2621 C   0  0  1  0  0  0  0  0  0  0  0  0
   -1.9862   -0.3899    1.5286 O   0  0  0  0  0  0  0  0  0  0  0  0
   -3.7988   -0.1742    0.0499 C   0  0  0  0  0  0  0  0  0  0  0  0
   -3.7103    1.2646    0.1448 N   0  0  0  0  0  0  0  0  0  0  0  0
    2.1302   -0.4160   -0.1882 N   0  0  0  0  0  0  0  0  0  0  0  0
    2.5549   -1.7842   -0.1946 C   0  0  0  0  0  0  0  0  0  0  0  0
    4.7840   -0.3310    0.4957 H   0  0  0  0  0  0  0  0  0  0  0  0
    4.8793    0.9845   -0.6938 H   0  0  0  0  0  0  0  0  0  0  0  0
    4.5897    1.3698    1.0942 H   0  0  0  0  0  0  0  0  0  0  0  0
    0.0966    2.0297   -0.3876 H   0  0  0  0  0  0  0  0  0  0  0  0
   -1.5614    0.8979   -0.7478 H   0  0  0  0  0  0  0  0  0  0  0  0
   -1.8701   -0.5101   -1.7819 H   0  0  0  0  0  0  0  0  0  0  0  0
   -2.4468   -1.8719    0.1775 H   0  0  0  0  0  0  0  0  0  0  0  0
   -1.8045    0.5788    1.5316 H   0  0  0  0  0  0  0  0  0  0  0  0
   -4.2216   -0.5218   -0.9173 H   0  0  0  0  0  0  0  0  0  0  0  0
   -4.4644   -0.5901    0.8397 H   0  0  0  0  0  0  0  0  0  0  0  0
   -4.2239    1.6908   -0.6413 H   0  0  0  0  0  0  0  0  0  0  0  0
   -4.0739    1.6121    1.0456 H   0  0  0  0  0  0  0  0  0  0  0  0
    2.0656   -2.3724    0.6337 H   0  0  0  0  0  0  0  0  0  0  0  0
    3.6366   -1.9147   -0.0959 H   0  0  0  0  0  0  0  0  0  0  0  0
    2.2544   -2.3118   -1.1435 H   0  0  0  0  0  0  0  0  0  0  0  0
  1  2  1  0
  2  3  2  0
  3  4  1  0
  4  5  1  0
  5  6  2  3
  6  7  1  0
  7  8  1  0
  8  9  1  0
  8 10  1  0
 10 11  1  0
  5 12  1  0
 12 13  1  0
 12  2  1  0
  1 14  1  0
  1 15  1  0
  1 16  1  0
  4 17  1  0
  7 18  1  0
  7 19  1  0
  8 20  1  1
  9 21  1  0
 10 22  1  0
 10 23  1  0
 11 24  1  0
 11 25  1  0
 13 26  1  0
 13 27  1  0
 13 28  1  0
M  END
$$$$

     RDKit          3D

 28 28  0  0  0  0  0  0  0  0999 V2000
   -4.1807   -0.1464   -1.4195 C   0  0  0  0  0  0  0  0  0  0  0  0
   -2.7834    0.1260   -1.0023 C   0  0  0  0  0  0  0  0  0  0  0  0
   -1.8469    0.7947   -1.6777 N   0  0  0  0  0  0  0  0  0  0  0  0
   -0.7094    0.8365   -0.9846 N   0  0  0  0  0  0  0  0  0  0  0  0
   -0.9645    0.1714    0.1482 C   0  0  0  0  0  0  0  0  0  0  0  0
   -0.1190   -0.0165    1.0935 N   0  0  0  0  0  0  0  0  0  0  0  0
    1.2317    0.4837    1.0315 C   0  0  0  0  0  0  0  0  0  0  0  0
    2.1755   -0.5777    0.4754 C   0  0  1  0  0  0  0  0  0  0  0  0
    1.7463   -0.9107   -0.7974 O   0  0  0  0  0  0  0  0  0  0  0  0
    3.5597    0.0494    0.4517 C   0  0  0  0  0  0  0  0  0  0  0  0
    4.5248   -0.8645   -0.1137 N   0  0  0  0  0  0  0  0  0  0  0  0
   -2.2295   -0.2671    0.1475 N   0  0  0  0  0  0  0  0  0  0  0  0
   -2.8933   -1.0278    1.1893 C   0  0  0  0  0  0  0  0  0  0  0  0
   -4.2433   -0.2162   -2.5427 H   0  0  0  0  0  0  0  0  0  0  0  0
   -4.7742    0.7508   -1.1436 H   0  0  0  0  0  0  0  0  0  0  0  0
   -4.5085   -1.0689   -0.9399 H   0  0  0  0  0  0  0  0  0  0  0  0
    0.1690    1.3065   -1.3093 H   0  0  0  0  0  0  0  0  0  0  0  0
    1.3007    1.4060    0.4349 H   0  0  0  0  0  0  0  0  0  0  0  0
    1.5388    0.7686    2.0709 H   0  0  0  0  0  0  0  0  0  0  0  0
    2.2203   -1.4468    1.1552 H   0  0  0  0  0  0  0  0  0  0  0  0
    2.5526   -0.9965   -1.3637 H   0  0  0  0  0  0  0  0  0  0  0  0
    3.8291    0.2724    1.5025 H   0  0  0  0  0  0  0  0  0  0  0  0
    3.5235    1.0080   -0.0899 H   0  0  0  0  0  0  0  0  0  0  0  0
    4.5770   -0.7737   -1.1343 H   0  0  0  0  0  0  0  0  0  0  0  0
    5.4482   -0.7203    0.3719 H   0  0  0  0  0  0  0  0  0  0  0  0
   -3.5774   -1.7683    0.7382 H   0  0  0  0  0  0  0  0  0  0  0  0
   -2.1104   -1.5375    1.8206 H   0  0  0  0  0  0  0  0  0  0  0  0
   -3.4568   -0.3704    1.8874 H   0  0  0  0  0  0  0  0  0  0  0  0
  1  2  1  0
  2  3  2  0
  3  4  1  0
  4  5  1  0
  5  6  2  3
  6  7  1  0
  7  8  1  0
  8  9  1  0
  8 10  1  0
 10 11  1  0
  5 12  1  0
 12 13  1  0
 12  2  1  0
  1 14  1  0
  1 15  1  0
  1 16  1  0
  4 17  1  0
  7 18  1  0
  7 19  1  0
  8 20  1  1
  9 21  1  0
 10 22  1  0
 10 23  1  0
 11 24  1  0
 11 25  1  0
 13 26  1  0
 13 27  1  0
 13 28  1  0
M  END
$$$$
