
     RDKit          3D

 31 31  0  0  0  0  0  0  0  0999 V2000
   -1.3564    2.0645   -0.2611 C   0  0  0  0  0  0  0  0  0  0  0  0
   -0.9050    0.6522   -0.6614 C   0  0  2  0  0  0  0  0  0  0  0  0
   -2.2129   -0.0877   -0.9720 C   0  0  0  0  0  0  0  0  0  0  0  0
   -2.5559   -0.6082    0.4276 C   0  0  1  0  0  0  0  0  0  0  0  0
   -3.4135   -1.7657    0.3568 N   0  0  0  0  0  0  0  0  0  0  0  0
   -1.1860   -1.0719    0.8777 C   0  0  0  0  0  0  0  0  0  0  0  0
   -0.3343   -0.0562    0.3719 N   0  0  0  0  0  0  0  0  0  0  0  0
    1.0222   -0.4170    0.3723 C   0  0  0  0  0  0  0  0  0  0  0  0
    2.0007    0.5829   -0.1409 C   0  0  1  0  0  0  0  0  0  0  0  0
    1.9215    1.7881    0.6642 N   0  0  0  0  0  0  0  0  0  0  0  0
    3.3560    0.0319    0.0184 C   0  0  0  0  0  0  0  0  0  0  0  0
    3.7231   -1.1524   -0.6571 N   0  0  0  0  0  0  0  0  0  0  0  0
    4.1826    0.6048    0.7466 O   0  0  0  0  0  0  0  0  0  0  0  0
   -2.1536    2.3911   -0.9793 H   0  0  0  0  0  0  0  0  0  0  0  0
   -0.5373    2.7835   -0.3022 H   0  0  0  0  0  0  0  0  0  0  0  0
   -1.8459    1.9697    0.7234 H   0  0  0  0  0  0  0  0  0  0  0  0
   -0.3770    0.7592   -1.6066 H   0  0  0  0  0  0  0  0  0  0  0  0
   -2.0319   -0.9446   -1.6413 H   0  0  0  0  0  0  0  0  0  0  0  0
   -2.9831    0.5775   -1.3650 H   0  0  0  0  0  0  0  0  0  0  0  0
   -2.9589    0.2023    1.0552 H   0  0  0  0  0  0  0  0  0  0  0  0
   -3.2717   -2.3050    1.2501 H   0  0  0  0  0  0  0  0  0  0  0  0
   -3.0498   -2.3770   -0.4179 H   0  0  0  0  0  0  0  0  0  0  0  0
   -0.9746   -2.0209    0.3386 H   0  0  0  0  0  0  0  0  0  0  0  0
   -1.1319   -1.2030    1.9759 H   0  0  0  0  0  0  0  0  0  0  0  0
    1.1352   -1.3517   -0.2197 H   0  0  0  0  0  0  0  0  0  0  0  0
    1.3225   -0.6834    1.4090 H   0  0  0  0  0  0  0  0  0  0  0  0
    1.8812    0.8184   -1.2188 H   0  0  0  0  0  0  0  0  0  0  0  0
    2.4697    1.5751    1.5468 H   0  0  0  0  0  0  0  0  0  0  0  0
    2.5095    2.5099    0.1628 H   0  0  0  0  0  0  0  0  0  0  0  0
    4.5986   -1.6931   -0.4176 H   0  0  0  0  0  0  0  0  0  0  0  0
    3.1570   -1.5732   -1.4363 H   0  0  0  0  0  0  0  0  0  0  0  0
  1  2  1  0
  2  3  1  0
  3  4  1  0
  4  5  1  0
  4  6  1  0
  6  7  1  0
  7  8  1  0
  8  9  1  0
  9 10  1  0
  9 11  1  0
 11 12  1  0
 11 13  2  0
  7  2  1  0
  1 14  1  0
  1 15  1  0
  1 16  1  0
  2 17  1  6
  3 18  1  0
  3 19  1  0
  4 20  1  1
  5 21  1  0
  5 22  1  0
  6 23  1  0
  6 24  1  0
  8 25  1  0
  8 26  1  0
  9 27  1  6
 10 28  1  0
 10 29  1  0
 12 30  1  0
 12 31  1  0
M  END
$$$$

     RDKit          3D

 31 31  0  0  0  0  0  0  0  0999 V2000
   -1.3857   -2.2329    0.1172 C   0  0  0  0  0  0  0  0  0  0  0  0
   -1.4740   -0.8570    0.7232 C   0  0  2  0  0  0  0  0  0  0  0  0
   -2.7340   -0.2073    0.2044 C   0  0  0  0  0  0  0  0  0  0  0  0
   -2.2823    0.7419   -0.8719 C   0  0  1  0  0  0  0  0  0  0  0  0
   -2.3143    2.0784   -0.3101 N   0  0  0  0  0  0  0  0  0  0  0  0
   -0.7896    0.3481   -1.0410 C   0  0  0  0  0  0  0  0  0  0  0  0
   -0.4143    0.0234    0.2547 N   0  0  0  0  0  0  0  0  0  0  0  0
    0.8539   -0.3487    0.6534 C   0  0  0  0  0  0  0  0  0  0  0  0
    1.9229    0.6831    0.6807 C   0  0  1  0  0  0  0  0  0  0  0  0
    3.1237   -0.0882    1.1906 N   0  0  0  0  0  0  0  0  0  0  0  0
    2.3916    1.1568   -0.6366 C   0  0  0  0  0  0  0  0  0  0  0  0
    3.4171    0.4549   -1.3753 N   0  0  0  0  0  0  0  0  0  0  0  0
    1.9499    2.1763   -1.2055 O   0  0  0  0  0  0  0  0  0  0  0  0
   -2.0542   -2.3174   -0.7748 H   0  0  0  0  0  0  0  0  0  0  0  0
   -1.6803   -2.9642    0.8954 H   0  0  0  0  0  0  0  0  0  0  0  0
   -0.3725   -2.5101   -0.2240 H   0  0  0  0  0  0  0  0  0  0  0  0
   -1.4914   -0.8683    1.8140 H   0  0  0  0  0  0  0  0  0  0  0  0
   -3.3297    0.2703    1.0010 H   0  0  0  0  0  0  0  0  0  0  0  0
   -3.4168   -0.9556   -0.2738 H   0  0  0  0  0  0  0  0  0  0  0  0
   -2.8241    0.6448   -1.8124 H   0  0  0  0  0  0  0  0  0  0  0  0
   -3.1459    2.1417    0.3427 H   0  0  0  0  0  0  0  0  0  0  0  0
   -1.4452    2.2650    0.2291 H   0  0  0  0  0  0  0  0  0  0  0  0
   -0.8207   -0.5792   -1.6700 H   0  0  0  0  0  0  0  0  0  0  0  0
   -0.3621    1.1939   -1.5619 H   0  0  0  0  0  0  0  0  0  0  0  0
    1.3008   -1.2094    0.0678 H   0  0  0  0  0  0  0  0  0  0  0  0
    0.7612   -0.7724    1.7130 H   0  0  0  0  0  0  0  0  0  0  0  0
    1.7575    1.4947    1.3904 H   0  0  0  0  0  0  0  0  0  0  0  0
    3.3137   -0.8048    0.4400 H   0  0  0  0  0  0  0  0  0  0  0  0
    3.9145    0.6064    1.1157 H   0  0  0  0  0  0  0  0  0  0  0  0
    4.4067    0.5323   -0.9985 H   0  0  0  0  0  0  0  0  0  0  0  0
    3.2236   -0.0966   -2.2243 H   0  0  0  0  0  0  0  0  0  0  0  0
  1  2  1  0
  2  3  1  0
  3  4  1  0
  4  5  1  0
  4  6  1  0
  6  7  1  0
  7  8  1  0
  8  9  1  0
  9 10  1  0
  9 11  1  0
 11 12  1  0
 11 13  2  0
  7  2  1  0
  1 14  1  0
  1 15  1  0
  1 16  1  0
  2 17  1  1
  3 18  1  0
  3 19  1  0
  4 20  1  6
  5 21  1  0
  5 22  1  0
  6 23  1  0
  6 24  1  0
  8 25  1  0
  8 26  1  0
  9 27  1  1
 10 28  1  0
 10 29  1  0
 12 30  1  0
 12 31  1  0
M  END
$$$$

     RDKit          3D

 31 31  0  0  0  0  0  0  0  0999 V2000
   -1.3384    1.4381   -1.7134 C   0  0  0  0  0  0  0  0  0  0  0  0
   -1.5884    0.2935   -0.7954 C   0  0  2  0  0  0  0  0  0  0  0  0
   -2.5553    0.6014    0.3139 C   0  0  0  0  0  0  0  0  0  0  0  0
   -2.2634   -0.5589    1.2719 C   0  0  1  0  0  0  0  0  0  0  0  0
   -3.0620   -1.7134    0.8973 N   0  0  0  0  0  0  0  0  0  0  0  0
   -0.7891   -0.8202    1.0627 C   0  0  0  0  0  0  0  0  0  0  0  0
   -0.4182   -0.2894   -0.2164 N   0  0  0  0  0  0  0  0  0  0  0  0
    0.7047    0.6189   -0.1307 C   0  0  0  0  0  0  0  0  0  0  0  0
    1.9190   -0.1999    0.2478 C   0  0  1  0  0  0  0  0  0  0  0  0
    2.1748   -1.2047   -0.7415 N   0  0  0  0  0  0  0  0  0  0  0  0
    3.1061    0.6197    0.5557 C   0  0  0  0  0  0  0  0  0  0  0  0
    4.3085    0.3069   -0.1163 N   0  0  0  0  0  0  0  0  0  0  0  0
    3.0912    1.5711    1.3804 O   0  0  0  0  0  0  0  0  0  0  0  0
   -2.3461    1.9023   -1.9322 H   0  0  0  0  0  0  0  0  0  0  0  0
   -0.7141    2.2402   -1.3192 H   0  0  0  0  0  0  0  0  0  0  0  0
   -0.9881    1.0360   -2.6857 H   0  0  0  0  0  0  0  0  0  0  0  0
   -2.0737   -0.5179   -1.4154 H   0  0  0  0  0  0  0  0  0  0  0  0
   -3.5835    0.4780   -0.0710 H   0  0  0  0  0  0  0  0  0  0  0  0
   -2.3959    1.5720    0.7944 H   0  0  0  0  0  0  0  0  0  0  0  0
   -2.4800   -0.2332    2.2935 H   0  0  0  0  0  0  0  0  0  0  0  0
   -2.6497   -2.1063    0.0297 H   0  0  0  0  0  0  0  0  0  0  0  0
   -3.0048   -2.4165    1.6649 H   0  0  0  0  0  0  0  0  0  0  0  0
   -0.6374   -1.9321    1.0485 H   0  0  0  0  0  0  0  0  0  0  0  0
   -0.2048   -0.3692    1.9136 H   0  0  0  0  0  0  0  0  0  0  0  0
    0.9046    1.0230   -1.1347 H   0  0  0  0  0  0  0  0  0  0  0  0
    0.5141    1.4169    0.6302 H   0  0  0  0  0  0  0  0  0  0  0  0
    1.6654   -0.7500    1.1990 H   0  0  0  0  0  0  0  0  0  0  0  0
    3.1300   -1.5908   -0.6040 H   0  0  0  0  0  0  0  0  0  0  0  0
    2.0604   -0.7944   -1.6973 H   0  0  0  0  0  0  0  0  0  0  0  0
    4.4727    0.6308   -1.0852 H   0  0  0  0  0  0  0  0  0  0  0  0
    5.0414   -0.2516    0.3547 H   0  0  0  0  0  0  0  0  0  0  0  0
  1  2  1  0
  2  3  1  0
  3  4  1  0
  4  5  1  0
  4  6  1  0
  6  7  1  0
  7  8  1  0
  8  9  1  0
  9 10  1  0
  9 11  1  0
 11 12  1  0
 11 13  2  0
  7  2  1  0
  1 14  1  0
  1 15  1  0
  1 16  1  0
  2 17  1  6
  3 18  1  0
  3 19  1  0
  4 20  1  1
  5 21  1  0
  5 22  1  0
  6 23  1  0
  6 24  1  0
  8 25  1  0
  8 26  1  0
  9 27  1  1
 10 28  1  0
 10 29  1  0
 12 30  1  0
 12 31  1  0
M  END
$$$$

     RDKit          3D

 31 31  0  0  0  0  0  0  0  0999 V2000
   -1.0415   -2.1446   -0.7034 C   0  0  0  0  0  0  0  0  0  0  0  0
   -0.9398   -0.9372    0.2056 C   0  0  2  0  0  0  0  0  0  0  0  0
   -2.3015   -0.4454    0.6431 C   0  0  0  0  0  0  0  0  0  0  0  0
   -2.6458    0.5889   -0.3951 C   0  0  1  0  0  0  0  0  0  0  0  0
   -3.4226    1.6587    0.2146 N   0  0  0  0  0  0  0  0  0  0  0  0
   -1.3227    1.0812   -0.8723 C   0  0  0  0  0  0  0  0  0  0  0  0
   -0.3039    0.1075   -0.5204 N   0  0  0  0  0  0  0  0  0  0  0  0
    0.7861    0.7171    0.1663 C   0  0  0  0  0  0  0  0  0  0  0  0
    1.9064   -0.2557    0.3782 C   0  0  1  0  0  0  0  0  0  0  0  0
    2.4120   -0.7583   -0.8990 N   0  0  0  0  0  0  0  0  0  0  0  0
    2.9841    0.4522    1.0930 C   0  0  0  0  0  0  0  0  0  0  0  0
    4.2539    0.6056    0.4946 N   0  0  0  0  0  0  0  0  0  0  0  0
    2.7747    0.9183    2.2310 O   0  0  0  0  0  0  0  0  0  0  0  0
   -2.0884   -2.3565   -0.9905 H   0  0  0  0  0  0  0  0  0  0  0  0
   -0.4557   -2.0023   -1.6399 H   0  0  0  0  0  0  0  0  0  0  0  0
   -0.6370   -3.0576   -0.2090 H   0  0  0  0  0  0  0  0  0  0  0  0
   -0.3836   -1.2395    1.0986 H   0  0  0  0  0  0  0  0  0  0  0  0
   -3.0581   -1.2247    0.7266 H   0  0  0  0  0  0  0  0  0  0  0  0
   -2.2055    0.0773    1.6334 H   0  0  0  0  0  0  0  0  0  0  0  0
   -3.2792    0.1379   -1.1626 H   0  0  0  0  0  0  0  0  0  0  0  0
   -2.9714    1.8527    1.1340 H   0  0  0  0  0  0  0  0  0  0  0  0
   -3.4289    2.4952   -0.3928 H   0  0  0  0  0  0  0  0  0  0  0  0
   -1.3264    1.2120   -1.9881 H   0  0  0  0  0  0  0  0  0  0  0  0
   -1.1151    2.0827   -0.4641 H   0  0  0  0  0  0  0  0  0  0  0  0
    1.1132    1.6173   -0.4070 H   0  0  0  0  0  0  0  0  0  0  0  0
    0.4285    1.1055    1.1440 H   0  0  0  0  0  0  0  0  0  0  0  0
    1.5630   -1.1276    0.9501 H   0  0  0  0  0  0  0  0  0  0  0  0
    3.4363   -0.8926   -0.8621 H   0  0  0  0  0  0  0  0  0  0  0  0
    1.8674   -1.5866   -1.1738 H   0  0  0  0  0  0  0  0  0  0  0  0
    4.9970   -0.0880    0.7158 H   0  0  0  0  0  0  0  0  0  0  0  0
    4.4048    1.4064   -0.1486 H   0  0  0  0  0  0  0  0  0  0  0  0
  1  2  1  0
  2  3  1  0
  3  4  1  0
  4  5  1  0
  4  6  1  0
  6  7  1  0
  7  8  1  0
  8  9  1  0
  9 10  1  0
  9 11  1  0
 11 12  1  0
 11 13  2  0
  7  2  1  0
  1 14  1  0
  1 15  1  0
  1 16  1  0
  2 17  1  1
  3 18  1  0
  3 19  1  0
  4 20  1  6
  5 21  1  0
  5 22  1  0
  6 23  1  0
  6 24  1  0
  8 25  1  0
  8 26  1  0
  9 27  1  1
 10 28  1  0
 10 29  1  0
 12 30  1  0
 12 31  1  0
M  END
$$$$

     RDKit          3D

 31 31  0  0  0  0  0  0  0  0999 V2000
   -1.3854   -1.4255   -1.9224 C   0  0  0  0  0  0  0  0  0  0  0  0
   -1.5450   -0.7360   -0.6184 C   0  0  2  0  0  0  0  0  0  0  0  0
   -1.9615    0.6964   -0.6614 C   0  0  0  0  0  0  0  0  0  0  0  0
   -1.6946    1.0971    0.7962 C   0  0  1  0  0  0  0  0  0  0  0  0
   -2.9789    1.2301    1.4455 N   0  0  0  0  0  0  0  0  0  0  0  0
   -0.9581   -0.0927    1.3977 C   0  0  0  0  0  0  0  0  0  0  0  0
   -0.3702   -0.6939    0.2203 N   0  0  0  0  0  0  0  0  0  0  0  0
    0.7086    0.1019   -0.3005 C   0  0  0  0  0  0  0  0  0  0  0  0
    1.8761    0.0271    0.6811 C   0  0  1  0  0  0  0  0  0  0  0  0
    2.2864   -1.3739    0.8038 N   0  0  0  0  0  0  0  0  0  0  0  0
    3.0112    0.8506    0.1480 C   0  0  0  0  0  0  0  0  0  0  0  0
    4.2470    0.2732   -0.2207 N   0  0  0  0  0  0  0  0  0  0  0  0
    2.8825    2.0885    0.0160 O   0  0  0  0  0  0  0  0  0  0  0  0
   -1.7788   -2.4777   -1.7775 H   0  0  0  0  0  0  0  0  0  0  0  0
   -0.3569   -1.5553   -2.2746 H   0  0  0  0  0  0  0  0  0  0  0  0
   -2.0393   -1.0097   -2.7156 H   0  0  0  0  0  0  0  0  0  0  0  0
   -2.3259   -1.2455    0.0369 H   0  0  0  0  0  0  0  0  0  0  0  0
   -1.3436    1.3482   -1.2822 H   0  0  0  0  0  0  0  0  0  0  0  0
   -3.0416    0.8216   -0.9168 H   0  0  0  0  0  0  0  0  0  0  0  0
   -1.1444    2.0370    0.8724 H   0  0  0  0  0  0  0  0  0  0  0  0
   -3.6448    0.5759    0.9738 H   0  0  0  0  0  0  0  0  0  0  0  0
   -3.3438    2.2001    1.4182 H   0  0  0  0  0  0  0  0  0  0  0  0
   -1.7595   -0.8046    1.7315 H   0  0  0  0  0  0  0  0  0  0  0  0
   -0.2636    0.1669    2.1816 H   0  0  0  0  0  0  0  0  0  0  0  0
    1.1184   -0.2977   -1.2501 H   0  0  0  0  0  0  0  0  0  0  0  0
    0.4565    1.1819   -0.4188 H   0  0  0  0  0  0  0  0  0  0  0  0
    1.6448    0.4447    1.6693 H   0  0  0  0  0  0  0  0  0  0  0  0
    1.4584   -1.9715    0.7502 H   0  0  0  0  0  0  0  0  0  0  0  0
    2.8743   -1.5810   -0.0468 H   0  0  0  0  0  0  0  0  0  0  0  0
    4.3226   -0.1141   -1.1763 H   0  0  0  0  0  0  0  0  0  0  0  0
    5.0491    0.2378    0.4394 H   0  0  0  0  0  0  0  0  0  0  0  0
  1  2  1  0
  2  3  1  0
  3  4  1  0
  4  5  1  0
  4  6  1  0
  6  7  1  0
  7  8  1  0
  8  9  1  0
  9 10  1  0
  9 11  1  0
 11 12  1  0
 11 13  2  0
  7  2  1  0
  1 14  1  0
  1 15  1  0
  1 16  1  0
  2 17  1  1
  3 18  1  0
  3 19  1  0
  4 20  1  6
  5 21  1  0
  5 22  1  0
  6 23  1  0
  6 24  1  0
  8 25  1  0
  8 26  1  0
  9 27  1  1
 10 28  1  0
 10 29  1  0
 12 30  1  0
 12 31  1  0
M  END
$$$$

     RDKit          3D

 31 31  0  0  0  0  0  0  0  0999 V2000
   -1.1908    2.1835   -0.2863 C   0  0  0  0  0  0  0  0  0  0  0  0
   -1.0198    0.8742   -1.0106 C   0  0  2  0  0  0  0  0  0  0  0  0
   -2.3344    0.0771   -1.0338 C   0  0  0  0  0  0  0  0  0  0  0  0
   -2.4190   -0.3164    0.4378 C   0  0  1  0  0  0  0  0  0  0  0  0
   -3.1350   -1.5562    0.5837 N   0  0  0  0  0  0  0  0  0  0  0  0
   -0.9450   -0.4490    0.8250 C   0  0  0  0  0  0  0  0  0  0  0  0
   -0.1945   -0.0735   -0.3158 N   0  0  0  0  0  0  0  0  0  0  0  0
    1.1565    0.2870   -0.1420 C   0  0  0  0  0  0  0  0  0  0  0  0
    2.0159   -0.9334    0.2505 C   0  0  1  0  0  0  0  0  0  0  0  0
    1.9263   -1.9357   -0.7973 N   0  0  0  0  0  0  0  0  0  0  0  0
    3.4009   -0.4212    0.2864 C   0  0  0  0  0  0  0  0  0  0  0  0
    3.8502    0.4776    1.2747 N   0  0  0  0  0  0  0  0  0  0  0  0
    4.2102   -0.8083   -0.6096 O   0  0  0  0  0  0  0  0  0  0  0  0
   -0.4402    2.3811    0.4767 H   0  0  0  0  0  0  0  0  0  0  0  0
   -1.1222    3.0330   -1.0187 H   0  0  0  0  0  0  0  0  0  0  0  0
   -2.1912    2.2992    0.1826 H   0  0  0  0  0  0  0  0  0  0  0  0
   -0.6685    1.0656   -2.0463 H   0  0  0  0  0  0  0  0  0  0  0  0
   -3.1774    0.6598   -1.3907 H   0  0  0  0  0  0  0  0  0  0  0  0
   -2.1359   -0.8469   -1.6044 H   0  0  0  0  0  0  0  0  0  0  0  0
   -2.9190    0.4699    1.0313 H   0  0  0  0  0  0  0  0  0  0  0  0
   -3.5646   -1.8174   -0.3425 H   0  0  0  0  0  0  0  0  0  0  0  0
   -3.9707   -1.4389    1.2182 H   0  0  0  0  0  0  0  0  0  0  0  0
   -0.7630   -1.5229    1.1174 H   0  0  0  0  0  0  0  0  0  0  0  0
   -0.7760    0.1958    1.7292 H   0  0  0  0  0  0  0  0  0  0  0  0
    1.3694    1.0863    0.5940 H   0  0  0  0  0  0  0  0  0  0  0  0
    1.5639    0.5977   -1.1409 H   0  0  0  0  0  0  0  0  0  0  0  0
    1.6578   -1.3491    1.2000 H   0  0  0  0  0  0  0  0  0  0  0  0
    0.9964   -1.9415   -1.2660 H   0  0  0  0  0  0  0  0  0  0  0  0
    2.6728   -1.8781   -1.4987 H   0  0  0  0  0  0  0  0  0  0  0  0
    4.8815    0.4506    1.5236 H   0  0  0  0  0  0  0  0  0  0  0  0
    3.2654    1.1502    1.7726 H   0  0  0  0  0  0  0  0  0  0  0  0
  1  2  1  0
  2  3  1  0
  3  4  1  0
  4  5  1  0
  4  6  1  0
  6  7  1  0
  7  8  1  0
  8  9  1  0
  9 10  1  0
  9 11  1  0
 11 12  1  0
 11 13  2  0
  7  2  1  0
  1 14  1  0
  1 15  1  0
  1 16  1  0
  2 17  1  6
  3 18  1  0
  3 19  1  0
  4 20  1  1
  5 21  1  0
  5 22  1  0
  6 23  1  0
  6 24  1  0
  8 25  1  0
  8 26  1  0
  9 27  1  1
 10 28  1  0
 10 29  1  0
 12 30  1  0
 12 31  1  0
M  END
$$$$

     RDKit          3D

 31 31  0  0  0  0  0  0  0  0999 V2000
   -1.1428   -1.8562    1.3867 C   0  0  0  0  0  0  0  0  0  0  0  0
   -1.4092   -0.4940    0.8541 C   0  0  2  0  0  0  0  0  0  0  0  0
   -2.4836   -0.5480   -0.2180 C   0  0  0  0  0  0  0  0  0  0  0  0
   -2.0782    0.5092   -1.2204 C   0  0  1  0  0  0  0  0  0  0  0  0
   -3.0420    1.5906   -1.2947 N   0  0  0  0  0  0  0  0  0  0  0  0
   -0.7991    1.1077   -0.6439 C   0  0  0  0  0  0  0  0  0  0  0  0
   -0.3095    0.2088    0.3212 N   0  0  0  0  0  0  0  0  0  0  0  0
    0.9109   -0.4537    0.1078 C   0  0  0  0  0  0  0  0  0  0  0  0
    2.0378    0.5769    0.1848 C   0  0  1  0  0  0  0  0  0  0  0  0
    1.9377    1.1319    1.5262 N   0  0  0  0  0  0  0  0  0  0  0  0
    3.3781   -0.0234   -0.0009 C   0  0  0  0  0  0  0  0  0  0  0  0
    3.8285   -0.6065   -1.2144 N   0  0  0  0  0  0  0  0  0  0  0  0
    4.1807   -0.0255    0.9651 O   0  0  0  0  0  0  0  0  0  0  0  0
   -0.3778   -1.8453    2.1906 H   0  0  0  0  0  0  0  0  0  0  0  0
   -0.8659   -2.5853    0.6066 H   0  0  0  0  0  0  0  0  0  0  0  0
   -2.0803   -2.2230    1.8985 H   0  0  0  0  0  0  0  0  0  0  0  0
   -1.8737    0.0866    1.7108 H   0  0  0  0  0  0  0  0  0  0  0  0
   -3.4828   -0.3536    0.1970 H   0  0  0  0  0  0  0  0  0  0  0  0
   -2.4447   -1.5489   -0.6900 H   0  0  0  0  0  0  0  0  0  0  0  0
   -1.9528    0.1166   -2.2311 H   0  0  0  0  0  0  0  0  0  0  0  0
   -3.6676    1.6364   -0.4710 H   0  0  0  0  0  0  0  0  0  0  0  0
   -3.5355    1.6251   -2.2093 H   0  0  0  0  0  0  0  0  0  0  0  0
   -1.0118    2.0848   -0.1355 H   0  0  0  0  0  0  0  0  0  0  0  0
   -0.1535    1.3330   -1.5041 H   0  0  0  0  0  0  0  0  0  0  0  0
    1.0960   -1.1414    0.9619 H   0  0  0  0  0  0  0  0  0  0  0  0
    1.0265   -1.0175   -0.8359 H   0  0  0  0  0  0  0  0  0  0  0  0
    1.8932    1.3340   -0.5956 H   0  0  0  0  0  0  0  0  0  0  0  0
    2.7049    0.8404    2.1401 H   0  0  0  0  0  0  0  0  0  0  0  0
    1.7094    2.1262    1.5633 H   0  0  0  0  0  0  0  0  0  0  0  0
    4.1998    0.0295   -1.9497 H   0  0  0  0  0  0  0  0  0  0  0  0
    3.8075   -1.6155   -1.3999 H   0  0  0  0  0  0  0  0  0  0  0  0
  1  2  1  0
  2  3  1  0
  3  4  1  0
  4  5  1  0
  4  6  1  0
  6  7  1  0
  7  8  1  0
  8  9  1  0
  9 10  1  0
  9 11  1  0
 11 12  1  0
 11 13  2  0
  7  2  1  0
  1 14  1  0
  1 15  1  0
  1 16  1  0
  2 17  1  1
  3 18  1  0
  3 19  1  0
  4 20  1  6
  5 21  1  0
  5 22  1  0
  6 23  1  0
  6 24  1  0
  8 25  1  0
  8 26  1  0
  9 27  1  6
 10 28  1  0
 10 29  1  0
 12 30  1  0
 12 31  1  0
M  END
$$$$

     RDKit          3D

 31 31  0  0  0  0  0  0  0  0999 V2000
   -2.3728   -1.6411    0.4758 C   0  0  0  0  0  0  0  0  0  0  0  0
   -1.1834   -0.8092    0.9116 C   0  0  2  0  0  0  0  0  0  0  0  0
   -1.7509    0.5562    1.3436 C   0  0  0  0  0  0  0  0  0  0  0  0
   -2.0871    1.0869   -0.0285 C   0  0  1  0  0  0  0  0  0  0  0  0
   -2.3213    2.5072   -0.0313 N   0  0  0  0  0  0  0  0  0  0  0  0
   -0.7934    0.7419   -0.7875 C   0  0  0  0  0  0  0  0  0  0  0  0
   -0.3920   -0.4728   -0.2507 N   0  0  0  0  0  0  0  0  0  0  0  0
    0.8518   -1.0437   -0.3777 C   0  0  0  0  0  0  0  0  0  0  0  0
    2.0611   -0.5405    0.3132 C   0  0  1  0  0  0  0  0  0  0  0  0
    3.2077   -1.4292   -0.0819 N   0  0  0  0  0  0  0  0  0  0  0  0
    2.5134    0.8034   -0.0740 C   0  0  0  0  0  0  0  0  0  0  0  0
    3.4552    1.0122   -1.1239 N   0  0  0  0  0  0  0  0  0  0  0  0
    2.0823    1.8449    0.5126 O   0  0  0  0  0  0  0  0  0  0  0  0
   -2.4185   -2.6198    0.9857 H   0  0  0  0  0  0  0  0  0  0  0  0
   -3.3373   -1.1472    0.6364 H   0  0  0  0  0  0  0  0  0  0  0  0
   -2.3112   -1.8662   -0.6315 H   0  0  0  0  0  0  0  0  0  0  0  0
   -0.6590   -1.3228    1.7090 H   0  0  0  0  0  0  0  0  0  0  0  0
   -0.9707    1.1396    1.8453 H   0  0  0  0  0  0  0  0  0  0  0  0
   -2.6592    0.3905    1.9621 H   0  0  0  0  0  0  0  0  0  0  0  0
   -2.8867    0.5038   -0.4859 H   0  0  0  0  0  0  0  0  0  0  0  0
   -3.2999    2.6657   -0.3659 H   0  0  0  0  0  0  0  0  0  0  0  0
   -1.6106    3.0645   -0.5193 H   0  0  0  0  0  0  0  0  0  0  0  0
   -1.0664    0.5801   -1.8826 H   0  0  0  0  0  0  0  0  0  0  0  0
   -0.0997    1.5712   -0.7723 H   0  0  0  0  0  0  0  0  0  0  0  0
    0.7467   -2.1491   -0.0746 H   0  0  0  0  0  0  0  0  0  0  0  0
    1.1058   -1.1163   -1.4790 H   0  0  0  0  0  0  0  0  0  0  0  0
    2.0064   -0.6251    1.4032 H   0  0  0  0  0  0  0  0  0  0  0  0
    2.9082   -2.0849   -0.8115 H   0  0  0  0  0  0  0  0  0  0  0  0
    3.6644   -1.8310    0.7421 H   0  0  0  0  0  0  0  0  0  0  0  0
    3.4946    1.9382   -1.5974 H   0  0  0  0  0  0  0  0  0  0  0  0
    4.1225    0.2927   -1.4650 H   0  0  0  0  0  0  0  0  0  0  0  0
  1  2  1  0
  2  3  1  0
  3  4  1  0
  4  5  1  0
  4  6  1  0
  6  7  1  0
  7  8  1  0
  8  9  1  0
  9 10  1  0
  9 11  1  0
 11 12  1  0
 11 13  2  0
  7  2  1  0
  1 14  1  0
  1 15  1  0
  1 16  1  0
  2 17  1  1
  3 18  1  0
  3 19  1  0
  4 20  1  6
  5 21  1  0
  5 22  1  0
  6 23  1  0
  6 24  1  0
  8 25  1  0
  8 26  1  0
  9 27  1  1
 10 28  1  0
 10 29  1  0
 12 30  1  0
 12 31  1  0
M  END
$$$$
