
     RDKit          3D

 25 26  0  0  0  0  0  0  0  0999 V2000
    2.7961    0.9530    0.3477 C   0  0  0  0  0  0  0  0  0  0  0  0
    2.1301   -0.2975   -0.0510 N   0  0  0  0  0  0  0  0  0  0  0  0
    2.7511   -1.3676   -0.5192 C   0  0  0  0  0  0  0  0  0  0  0  0
    1.8312   -2.3008   -0.7717 N   0  0  0  0  0  0  0  0  0  0  0  0
    0.6638   -1.7851   -0.4536 N   0  0  0  0  0  0  0  0  0  0  0  0
    0.8059   -0.5320    0.0020 C   0  0  0  0  0  0  0  0  0  0  0  0
   -0.1727    0.4424    0.4727 C   0  0  1  0  0  0  0  0  0  0  0  0
    0.1194    1.6824   -0.0919 O   0  0  0  0  0  0  0  0  0  0  0  0
   -1.5936    0.1148    0.2042 C   0  0  0  0  0  0  0  0  0  0  0  0
   -2.4546    1.1469    0.7994 N   0  0  0  0  0  0  0  0  0  0  0  0
   -1.9867   -0.2033   -1.1933 C   0  0  0  0  0  0  0  0  0  0  0  0
   -1.9595   -1.5565   -0.9217 O   0  0  0  0  0  0  0  0  0  0  0  0
   -2.0592   -1.2751    0.4397 C   0  0  0  0  0  0  0  0  0  0  0  0
    2.6689    1.7328   -0.4182 H   0  0  0  0  0  0  0  0  0  0  0  0
    3.8593    0.7372    0.5692 H   0  0  0  0  0  0  0  0  0  0  0  0
    2.2717    1.2930    1.2778 H   0  0  0  0  0  0  0  0  0  0  0  0
    3.8367   -1.4376   -0.6612 H   0  0  0  0  0  0  0  0  0  0  0  0
   -0.0441    0.5556    1.5746 H   0  0  0  0  0  0  0  0  0  0  0  0
   -0.1790    1.7014   -1.0546 H   0  0  0  0  0  0  0  0  0  0  0  0
   -2.2778    2.0072    0.2158 H   0  0  0  0  0  0  0  0  0  0  0  0
   -2.0535    1.3064    1.7654 H   0  0  0  0  0  0  0  0  0  0  0  0
   -1.3219    0.1514   -2.0053 H   0  0  0  0  0  0  0  0  0  0  0  0
   -3.0541    0.1033   -1.3844 H   0  0  0  0  0  0  0  0  0  0  0  0
   -3.1417   -1.2656    0.7579 H   0  0  0  0  0  0  0  0  0  0  0  0
   -1.4358   -1.9065    1.0998 H   0  0  0  0  0  0  0  0  0  0  0  0
  1  2  1  0
  2  3  1  0
  3  4  2  0
  4  5  1  0
  5  6  2  0
  6  7  1  0
  7  8  1  0
  7  9  1  0
  9 10  1  0
  9 11  1  0
 11 12  1  0
 12 13  1  0
  6  2  1  0
 13  9  1  0
  1 14  1  0
  1 15  1  0
  1 16  1  0
  3 17  1  0
  7 18  1  1
  8 19  1  0
 10 20  1  0
 10 21  1  0
 11 22  1  0
 11 23  1  0
 13 24  1  0
 13 25  1  0
M  END
$$$$

     RDKit          3D

 25 26  0  0  0  0  0  0  0  0999 V2000
    2.8921    0.9246   -0.3633 C   0  0  0  0  0  0  0  0  0  0  0  0
    2.1497   -0.1628    0.2398 N   0  0  0  0  0  0  0  0  0  0  0  0
    2.7779   -1.2121    0.8394 C   0  0  0  0  0  0  0  0  0  0  0  0
    1.7974   -2.0181    1.2810 N   0  0  0  0  0  0  0  0  0  0  0  0
    0.6261   -1.4915    0.9690 N   0  0  0  0  0  0  0  0  0  0  0  0
    0.8343   -0.3168    0.3095 C   0  0  0  0  0  0  0  0  0  0  0  0
   -0.2179    0.5848   -0.2126 C   0  0  1  0  0  0  0  0  0  0  0  0
    0.0257    1.0383   -1.4908 O   0  0  0  0  0  0  0  0  0  0  0  0
   -1.5796   -0.0495   -0.1434 C   0  0  0  0  0  0  0  0  0  0  0  0
   -1.7757   -1.1792   -1.0159 N   0  0  0  0  0  0  0  0  0  0  0  0
   -2.6507    1.0084   -0.3220 C   0  0  0  0  0  0  0  0  0  0  0  0
   -3.2159    0.6245    0.8699 O   0  0  0  0  0  0  0  0  0  0  0  0
   -2.1561   -0.2083    1.2426 C   0  0  0  0  0  0  0  0  0  0  0  0
    2.3167    1.3712   -1.1747 H   0  0  0  0  0  0  0  0  0  0  0  0
    3.0520    1.6964    0.4367 H   0  0  0  0  0  0  0  0  0  0  0  0
    3.9016    0.5661   -0.7081 H   0  0  0  0  0  0  0  0  0  0  0  0
    3.8469   -1.3639    0.9389 H   0  0  0  0  0  0  0  0  0  0  0  0
   -0.2525    1.4868    0.4506 H   0  0  0  0  0  0  0  0  0  0  0  0
    0.1980    0.2648   -2.0704 H   0  0  0  0  0  0  0  0  0  0  0  0
   -0.8657   -1.4088   -1.4611 H   0  0  0  0  0  0  0  0  0  0  0  0
   -2.1693   -2.0065   -0.5117 H   0  0  0  0  0  0  0  0  0  0  0  0
   -2.2841    2.0455   -0.3459 H   0  0  0  0  0  0  0  0  0  0  0  0
   -3.2864    0.8303   -1.2185 H   0  0  0  0  0  0  0  0  0  0  0  0
   -2.4719   -1.2549    1.4668 H   0  0  0  0  0  0  0  0  0  0  0  0
   -1.4927    0.2308    1.9942 H   0  0  0  0  0  0  0  0  0  0  0  0
  1  2  1  0
  2  3  1  0
  3  4  2  0
  4  5  1  0
  5  6  2  0
  6  7  1  0
  7  8  1  0
  7  9  1  0
  9 10  1  0
  9 11  1  0
 11 12  1  0
 12 13  1  0
  6  2  1  0
 13  9  1  0
  1 14  1  0
  1 15  1  0
  1 16  1  0
  3 17  1  0
  7 18  1  1
  8 19  1  0
 10 20  1  0
 10 21  1  0
 11 22  1  0
 11 23  1  0
 13 24  1  0
 13 25  1  0
M  END
$$$$

     RDKit          3D

 25 26  0  0  0  0  0  0  0  0999 V2000
    2.4127   -0.5700   -1.2436 C   0  0  0  0  0  0  0  0  0  0  0  0
    2.0934    0.1560   -0.0384 N   0  0  0  0  0  0  0  0  0  0  0  0
    2.8530    1.0885    0.5584 C   0  0  0  0  0  0  0  0  0  0  0  0
    2.2282    1.5511    1.6690 N   0  0  0  0  0  0  0  0  0  0  0  0
    1.0898    0.8892    1.7327 N   0  0  0  0  0  0  0  0  0  0  0  0
    0.9692    0.0303    0.7121 C   0  0  0  0  0  0  0  0  0  0  0  0
   -0.1884   -0.8769    0.4720 C   0  0  1  0  0  0  0  0  0  0  0  0
   -0.5798   -1.5119    1.6528 O   0  0  0  0  0  0  0  0  0  0  0  0
   -1.3537   -0.0413    0.0021 C   0  0  0  0  0  0  0  0  0  0  0  0
   -1.1681    0.6992   -1.2001 N   0  0  0  0  0  0  0  0  0  0  0  0
   -2.6873   -0.7545    0.0009 C   0  0  0  0  0  0  0  0  0  0  0  0
   -2.7561   -0.4785    1.3850 O   0  0  0  0  0  0  0  0  0  0  0  0
   -2.0499    0.7102    1.0881 C   0  0  0  0  0  0  0  0  0  0  0  0
    1.8459   -0.1490   -2.0960 H   0  0  0  0  0  0  0  0  0  0  0  0
    3.5131   -0.5025   -1.4139 H   0  0  0  0  0  0  0  0  0  0  0  0
    2.1727   -1.6424   -1.0535 H   0  0  0  0  0  0  0  0  0  0  0  0
    3.8123    1.4297    0.2227 H   0  0  0  0  0  0  0  0  0  0  0  0
    0.0313   -1.6324   -0.2806 H   0  0  0  0  0  0  0  0  0  0  0  0
   -0.2125   -1.0429    2.4325 H   0  0  0  0  0  0  0  0  0  0  0  0
   -0.4997    0.3049   -1.8678 H   0  0  0  0  0  0  0  0  0  0  0  0
   -1.1860    1.7209   -1.1117 H   0  0  0  0  0  0  0  0  0  0  0  0
   -2.6715   -1.8121   -0.2563 H   0  0  0  0  0  0  0  0  0  0  0  0
   -3.4470   -0.1186   -0.5055 H   0  0  0  0  0  0  0  0  0  0  0  0
   -2.7772    1.4482    0.6514 H   0  0  0  0  0  0  0  0  0  0  0  0
   -1.4445    1.1049    1.9059 H   0  0  0  0  0  0  0  0  0  0  0  0
  1  2  1  0
  2  3  1  0
  3  4  2  0
  4  5  1  0
  5  6  2  0
  6  7  1  0
  7  8  1  0
  7  9  1  0
  9 10  1  0
  9 11  1  0
 11 12  1  0
 12 13  1  0
  6  2  1  0
 13  9  1  0
  1 14  1  0
  1 15  1  0
  1 16  1  0
  3 17  1  0
  7 18  1  6
  8 19  1  0
 10 20  1  0
 10 21  1  0
 11 22  1  0
 11 23  1  0
 13 24  1  0
 13 25  1  0
M  END
$$$$

     RDKit          3D

 25 26  0  0  0  0  0  0  0  0999 V2000
    2.5487   -0.9829   -0.7326 C   0  0  0  0  0  0  0  0  0  0  0  0
    2.1055    0.3236   -0.2360 N   0  0  0  0  0  0  0  0  0  0  0  0
    2.7238    1.4970   -0.3465 C   0  0  0  0  0  0  0  0  0  0  0  0
    1.9644    2.4258    0.2497 N   0  0  0  0  0  0  0  0  0  0  0  0
    0.8754    1.8326    0.7306 N   0  0  0  0  0  0  0  0  0  0  0  0
    0.9388    0.5267    0.4422 C   0  0  0  0  0  0  0  0  0  0  0  0
   -0.0906   -0.4758    0.8110 C   0  0  1  0  0  0  0  0  0  0  0  0
   -0.5119   -0.3183    2.1363 O   0  0  0  0  0  0  0  0  0  0  0  0
   -1.2943   -0.3708   -0.0954 C   0  0  0  0  0  0  0  0  0  0  0  0
   -1.0111   -0.5133   -1.4862 N   0  0  0  0  0  0  0  0  0  0  0  0
   -2.5207   -1.0653    0.4241 C   0  0  0  0  0  0  0  0  0  0  0  0
   -2.7484    0.0526    1.2441 O   0  0  0  0  0  0  0  0  0  0  0  0
   -2.1881    0.8238    0.1997 C   0  0  0  0  0  0  0  0  0  0  0  0
    1.6964   -1.4417   -1.2484 H   0  0  0  0  0  0  0  0  0  0  0  0
    3.4103   -0.8380   -1.4019 H   0  0  0  0  0  0  0  0  0  0  0  0
    2.8318   -1.6087    0.1621 H   0  0  0  0  0  0  0  0  0  0  0  0
    3.6721    1.6519   -0.8356 H   0  0  0  0  0  0  0  0  0  0  0  0
    0.3458   -1.4796    0.6799 H   0  0  0  0  0  0  0  0  0  0  0  0
   -0.2650    0.5925    2.4660 H   0  0  0  0  0  0  0  0  0  0  0  0
   -1.8980   -0.3738   -2.0214 H   0  0  0  0  0  0  0  0  0  0  0  0
   -0.3620    0.2506   -1.7831 H   0  0  0  0  0  0  0  0  0  0  0  0
   -3.2850   -1.2213   -0.3405 H   0  0  0  0  0  0  0  0  0  0  0  0
   -2.3500   -1.9605    1.0479 H   0  0  0  0  0  0  0  0  0  0  0  0
   -1.6685    1.7301    0.5406 H   0  0  0  0  0  0  0  0  0  0  0  0
   -2.9194    0.9428   -0.6068 H   0  0  0  0  0  0  0  0  0  0  0  0
  1  2  1  0
  2  3  1  0
  3  4  2  0
  4  5  1  0
  5  6  2  0
  6  7  1  0
  7  8  1  0
  7  9  1  0
  9 10  1  0
  9 11  1  0
 11 12  1  0
 12 13  1  0
  6  2  1  0
 13  9  1  0
  1 14  1  0
  1 15  1  0
  1 16  1  0
  3 17  1  0
  7 18  1  1
  8 19  1  0
 10 20  1  0
 10 21  1  0
 11 22  1  0
 11 23  1  0
 13 24  1  0
 13 25  1  0
M  END
$$$$

     RDKit          3D

 25 26  0  0  0  0  0  0  0  0999 V2000
    2.3891   -0.4571    0.6027 C   0  0  0  0  0  0  0  0  0  0  0  0
    1.8462    0.6264   -0.1269 N   0  0  0  0  0  0  0  0  0  0  0  0
    2.4192    1.8474   -0.2245 C   0  0  0  0  0  0  0  0  0  0  0  0
    1.6451    2.6419   -0.9996 N   0  0  0  0  0  0  0  0  0  0  0  0
    0.6300    1.9092   -1.3574 N   0  0  0  0  0  0  0  0  0  0  0  0
    0.7278    0.6509   -0.8295 C   0  0  0  0  0  0  0  0  0  0  0  0
   -0.2600   -0.3829   -1.0451 C   0  0  1  0  0  0  0  0  0  0  0  0
    0.2336   -1.6629   -1.2245 O   0  0  0  0  0  0  0  0  0  0  0  0
   -1.4124   -0.4060   -0.0817 C   0  0  0  0  0  0  0  0  0  0  0  0
   -2.5001   -1.2386   -0.5617 N   0  0  0  0  0  0  0  0  0  0  0  0
   -1.9005    0.9991    0.2226 C   0  0  0  0  0  0  0  0  0  0  0  0
   -1.1175    0.9420    1.3800 O   0  0  0  0  0  0  0  0  0  0  0  0
   -1.1367   -0.4628    1.3704 C   0  0  0  0  0  0  0  0  0  0  0  0
    2.1797   -0.4180    1.7030 H   0  0  0  0  0  0  0  0  0  0  0  0
    2.0866   -1.4595    0.2672 H   0  0  0  0  0  0  0  0  0  0  0  0
    3.5023   -0.4195    0.5054 H   0  0  0  0  0  0  0  0  0  0  0  0
    3.3428    2.2090    0.2143 H   0  0  0  0  0  0  0  0  0  0  0  0
   -0.7618   -0.1579   -2.0494 H   0  0  0  0  0  0  0  0  0  0  0  0
   -0.1118   -2.3274   -0.5985 H   0  0  0  0  0  0  0  0  0  0  0  0
   -2.3848   -1.3687   -1.5837 H   0  0  0  0  0  0  0  0  0  0  0  0
   -2.5983   -2.1268   -0.0403 H   0  0  0  0  0  0  0  0  0  0  0  0
   -2.9722    1.0322    0.4882 H   0  0  0  0  0  0  0  0  0  0  0  0
   -1.5938    1.7090   -0.5439 H   0  0  0  0  0  0  0  0  0  0  0  0
   -0.2037   -0.8590    1.7469 H   0  0  0  0  0  0  0  0  0  0  0  0
   -2.0486   -0.8199    1.9281 H   0  0  0  0  0  0  0  0  0  0  0  0
  1  2  1  0
  2  3  1  0
  3  4  2  0
  4  5  1  0
  5  6  2  0
  6  7  1  0
  7  8  1  0
  7  9  1  0
  9 10  1  0
  9 11  1  0
 11 12  1  0
 12 13  1  0
  6  2  1  0
 13  9  1  0
  1 14  1  0
  1 15  1  0
  1 16  1  0
  3 17  1  0
  7 18  1  6
  8 19  1  0
 10 20  1  0
 10 21  1  0
 11 22  1  0
 11 23  1  0
 13 24  1  0
 13 25  1  0
M  END
$$$$

     RDKit          3D

 25 26  0  0  0  0  0  0  0  0999 V2000
    2.9011   -0.7416    0.1922 C   0  0  0  0  0  0  0  0  0  0  0  0
    2.1061    0.4695    0.0386 N   0  0  0  0  0  0  0  0  0  0  0  0
    2.6423    1.6956    0.1382 C   0  0  0  0  0  0  0  0  0  0  0  0
    1.6738    2.5817   -0.0477 N   0  0  0  0  0  0  0  0  0  0  0  0
    0.5571    1.9104   -0.2587 N   0  0  0  0  0  0  0  0  0  0  0  0
    0.7883    0.5881   -0.2121 C   0  0  0  0  0  0  0  0  0  0  0  0
   -0.0902   -0.5635   -0.3770 C   0  0  1  0  0  0  0  0  0  0  0  0
    0.2015   -1.4790    0.6346 O   0  0  0  0  0  0  0  0  0  0  0  0
   -1.5458   -0.2707   -0.3355 C   0  0  0  0  0  0  0  0  0  0  0  0
   -2.3131   -1.4947   -0.5440 N   0  0  0  0  0  0  0  0  0  0  0  0
   -2.0671    0.8701   -1.1205 C   0  0  0  0  0  0  0  0  0  0  0  0
   -2.0937    1.6498    0.0133 O   0  0  0  0  0  0  0  0  0  0  0  0
   -2.0523    0.5188    0.8274 C   0  0  0  0  0  0  0  0  0  0  0  0
    3.8713   -0.6571   -0.3385 H   0  0  0  0  0  0  0  0  0  0  0  0
    2.3648   -1.6007   -0.2692 H   0  0  0  0  0  0  0  0  0  0  0  0
    3.0905   -0.9876    1.2527 H   0  0  0  0  0  0  0  0  0  0  0  0
    3.6794    1.9597    0.3349 H   0  0  0  0  0  0  0  0  0  0  0  0
    0.1421   -1.0426   -1.3531 H   0  0  0  0  0  0  0  0  0  0  0  0
    0.1686   -2.3873    0.2945 H   0  0  0  0  0  0  0  0  0  0  0  0
   -1.8372   -2.2888   -0.0652 H   0  0  0  0  0  0  0  0  0  0  0  0
   -3.2557   -1.4084   -0.0697 H   0  0  0  0  0  0  0  0  0  0  0  0
   -1.4608    1.2398   -1.9614 H   0  0  0  0  0  0  0  0  0  0  0  0
   -3.1091    0.6771   -1.4750 H   0  0  0  0  0  0  0  0  0  0  0  0
   -1.3042    0.5788    1.6573 H   0  0  0  0  0  0  0  0  0  0  0  0
   -3.0577    0.1830    1.1622 H   0  0  0  0  0  0  0  0  0  0  0  0
  1  2  1  0
  2  3  1  0
  3  4  2  0
  4  5  1  0
  5  6  2  0
  6  7  1  0
  7  8  1  0
  7  9  1  0
  9 10  1  0
  9 11  1  0
 11 12  1  0
 12 13  1  0
  6  2  1  0
 13  9  1  0
  1 14  1  0
  1 15  1  0
  1 16  1  0
  3 17  1  0
  7 18  1  6
  8 19  1  0
 10 20  1  0
 10 21  1  0
 11 22  1  0
 11 23  1  0
 13 24  1  0
 13 25  1  0
M  END
$$$$

     RDKit          3D

 25 26  0  0  0  0  0  0  0  0999 V2000
    2.7965   -1.0744   -0.6465 C   0  0  0  0  0  0  0  0  0  0  0  0
    2.1685    0.0667    0.0043 N   0  0  0  0  0  0  0  0  0  0  0  0
    2.8844    0.9773    0.6923 C   0  0  0  0  0  0  0  0  0  0  0  0
    2.0200    1.8876    1.1591 N   0  0  0  0  0  0  0  0  0  0  0  0
    0.8211    1.5298    0.7604 N   0  0  0  0  0  0  0  0  0  0  0  0
    0.8766    0.4093    0.0448 C   0  0  0  0  0  0  0  0  0  0  0  0
   -0.2152   -0.3170   -0.5711 C   0  0  1  0  0  0  0  0  0  0  0  0
   -0.0968   -1.7061   -0.2872 O   0  0  0  0  0  0  0  0  0  0  0  0
   -1.5935    0.0616   -0.2066 C   0  0  0  0  0  0  0  0  0  0  0  0
   -2.6346   -0.6834   -0.9377 N   0  0  0  0  0  0  0  0  0  0  0  0
   -1.9984    1.4865   -0.1230 C   0  0  0  0  0  0  0  0  0  0  0  0
   -2.9401    1.0788    0.8572 O   0  0  0  0  0  0  0  0  0  0  0  0
   -1.9541    0.1409    1.2505 C   0  0  0  0  0  0  0  0  0  0  0  0
    3.1221   -0.7451   -1.6687 H   0  0  0  0  0  0  0  0  0  0  0  0
    2.1821   -1.9704   -0.6827 H   0  0  0  0  0  0  0  0  0  0  0  0
    3.7341   -1.3425   -0.1173 H   0  0  0  0  0  0  0  0  0  0  0  0
    3.9784    0.9628    0.8360 H   0  0  0  0  0  0  0  0  0  0  0  0
   -0.1537   -0.2779   -1.6990 H   0  0  0  0  0  0  0  0  0  0  0  0
   -0.2954   -1.8903    0.6608 H   0  0  0  0  0  0  0  0  0  0  0  0
   -2.9157   -1.5288   -0.3896 H   0  0  0  0  0  0  0  0  0  0  0  0
   -2.1550   -1.0244   -1.8086 H   0  0  0  0  0  0  0  0  0  0  0  0
   -1.3539    2.2253    0.3383 H   0  0  0  0  0  0  0  0  0  0  0  0
   -2.5926    1.8579   -1.0082 H   0  0  0  0  0  0  0  0  0  0  0  0
   -2.4467   -0.7703    1.6447 H   0  0  0  0  0  0  0  0  0  0  0  0
   -1.2383    0.6460    1.8979 H   0  0  0  0  0  0  0  0  0  0  0  0
  1  2  1  0
  2  3  1  0
  3  4  2  0
  4  5  1  0
  5  6  2  0
  6  7  1  0
  7  8  1  0
  7  9  1  0
  9 10  1  0
  9 11  1  0
 11 12  1  0
 12 13  1  0
  6  2  1  0
 13  9  1  0
  1 14  1  0
  1 15  1  0
  1 16  1  0
  3 17  1  0
  7 18  1  6
  8 19  1  0
 10 20  1  0
 10 21  1  0
 11 22  1  0
 11 23  1  0
 13 24  1  0
 13 25  1  0
M  END
$$$$

     RDKit          3D

 25 26  0  0  0  0  0  0  0  0999 V2000
    1.9576    0.7802    0.6531 C   0  0  0  0  0  0  0  0  0  0  0  0
    1.9775   -0.2539   -0.3450 N   0  0  0  0  0  0  0  0  0  0  0  0
    3.1414   -0.8291   -0.8128 C   0  0  0  0  0  0  0  0  0  0  0  0
    2.7540   -1.7323   -1.6931 N   0  0  0  0  0  0  0  0  0  0  0  0
    1.4683   -1.7524   -1.7970 N   0  0  0  0  0  0  0  0  0  0  0  0
    0.9298   -0.8038   -0.9354 C   0  0  0  0  0  0  0  0  0  0  0  0
   -0.5066   -0.6198   -0.8842 C   0  0  1  0  0  0  0  0  0  0  0  0
   -1.1301   -1.8813   -0.6046 O   0  0  0  0  0  0  0  0  0  0  0  0
   -1.1192    0.3496    0.0193 C   0  0  0  0  0  0  0  0  0  0  0  0
   -0.6936    1.7265   -0.0893 N   0  0  0  0  0  0  0  0  0  0  0  0
   -1.5160   -0.1245    1.3969 C   0  0  0  0  0  0  0  0  0  0  0  0
   -2.7807   -0.5317    0.9139 O   0  0  0  0  0  0  0  0  0  0  0  0
   -2.6611    0.3718   -0.1616 C   0  0  0  0  0  0  0  0  0  0  0  0
    1.2337    0.6164    1.4698 H   0  0  0  0  0  0  0  0  0  0  0  0
    1.9991    1.7966    0.2380 H   0  0  0  0  0  0  0  0  0  0  0  0
    2.9544    0.7119    1.2202 H   0  0  0  0  0  0  0  0  0  0  0  0
    4.1328   -0.5435   -0.4779 H   0  0  0  0  0  0  0  0  0  0  0  0
   -0.9421   -0.4028   -1.9234 H   0  0  0  0  0  0  0  0  0  0  0  0
   -0.5776   -2.2582    0.1262 H   0  0  0  0  0  0  0  0  0  0  0  0
   -0.6766    2.2063    0.8293 H   0  0  0  0  0  0  0  0  0  0  0  0
   -1.2452    2.2019   -0.8130 H   0  0  0  0  0  0  0  0  0  0  0  0
   -0.9611   -1.0183    1.7211 H   0  0  0  0  0  0  0  0  0  0  0  0
   -1.6243    0.6913    2.1183 H   0  0  0  0  0  0  0  0  0  0  0  0
   -3.1278    1.3242    0.1414 H   0  0  0  0  0  0  0  0  0  0  0  0
   -2.9866   -0.0253   -1.1346 H   0  0  0  0  0  0  0  0  0  0  0  0
  1  2  1  0
  2  3  1  0
  3  4  2  0
  4  5  1  0
  5  6  2  0
  6  7  1  0
  7  8  1  0
  7  9  1  0
  9 10  1  0
  9 11  1  0
 11 12  1  0
 12 13  1  0
  6  2  1  0
 13  9  1  0
  1 14  1  0
  1 15  1  0
  1 16  1  0
  3 17  1  0
  7 18  1  6
  8 19  1  0
 10 20  1  0
 10 21  1  0
 11 22  1  0
 11 23  1  0
 13 24  1  0
 13 25  1  0
M  END
$$$$
