
     RDKit          3D

 31 30  0  0  0  0  0  0  0  0999 V2000
   -3.3771    0.5502    0.7161 C   0  0  0  0  0  0  0  0  0  0  0  0
   -3.3142   -0.0461   -0.6477 C   0  0  0  0  0  0  0  0  0  0  0  0
   -2.0210   -0.7702   -0.9288 C   0  0  2  0  0  0  0  0  0  0  0  0
   -1.8016   -1.8624   -0.0036 N   0  0  0  0  0  0  0  0  0  0  0  0
   -0.8516    0.1485   -0.9177 C   0  0  0  0  0  0  0  0  0  0  0  0
   -0.8138    1.1733   -1.6441 O   0  0  0  0  0  0  0  0  0  0  0  0
    0.2700   -0.0939   -0.0866 N   0  0  0  0  0  0  0  0  0  0  0  0
    1.4237    0.7629   -0.0395 C   0  0  1  0  0  0  0  0  0  0  0  0
    1.7279    1.2515    1.3560 C   0  0  0  0  0  0  0  0  0  0  0  0
    0.6096    1.9659    1.7988 O   0  0  0  0  0  0  0  0  0  0  0  0
    2.6280   -0.0140   -0.5465 C   0  0  2  0  0  0  0  0  0  0  0  0
    2.9071   -1.2406    0.2813 C   0  0  0  0  0  0  0  0  0  0  0  0
    3.7793    0.7730   -0.5221 O   0  0  0  0  0  0  0  0  0  0  0  0
   -3.0362    1.6048    0.7603 H   0  0  0  0  0  0  0  0  0  0  0  0
   -4.4321    0.5442    1.0610 H   0  0  0  0  0  0  0  0  0  0  0  0
   -2.8004   -0.0908    1.4377 H   0  0  0  0  0  0  0  0  0  0  0  0
   -3.5527    0.6876   -1.4193 H   0  0  0  0  0  0  0  0  0  0  0  0
   -4.1195   -0.8297   -0.7032 H   0  0  0  0  0  0  0  0  0  0  0  0
   -2.1126   -1.2151   -1.9413 H   0  0  0  0  0  0  0  0  0  0  0  0
   -2.6462   -2.4770    0.0023 H   0  0  0  0  0  0  0  0  0  0  0  0
   -1.0167   -2.4384   -0.3906 H   0  0  0  0  0  0  0  0  0  0  0  0
    0.2599   -0.9348    0.5218 H   0  0  0  0  0  0  0  0  0  0  0  0
    1.2510    1.5930   -0.7449 H   0  0  0  0  0  0  0  0  0  0  0  0
    2.5554    1.9879    1.2959 H   0  0  0  0  0  0  0  0  0  0  0  0
    2.0441    0.4614    2.0329 H   0  0  0  0  0  0  0  0  0  0  0  0
    0.6432    2.8701    1.3506 H   0  0  0  0  0  0  0  0  0  0  0  0
    2.4445   -0.3208   -1.6161 H   0  0  0  0  0  0  0  0  0  0  0  0
    3.2937   -0.9548    1.2630 H   0  0  0  0  0  0  0  0  0  0  0  0
    3.6933   -1.8164   -0.2523 H   0  0  0  0  0  0  0  0  0  0  0  0
    2.0401   -1.9182    0.3748 H   0  0  0  0  0  0  0  0  0  0  0  0
    4.3250    0.6488    0.2804 H   0  0  0  0  0  0  0  0  0  0  0  0
  1  2  1  0
  2  3  1  0
  3  4  1  0
  3  5  1  0
  5  6  2  0
  5  7  1  0
  7  8  1  0
  8  9  1  0
  9 10  1  0
  8 11  1  0
 11 12  1  0
 11 13  1  0
  1 14  1  0
  1 15  1  0
  1 16  1  0
  2 17  1  0
  2 18  1  0
  3 19  1  6
  4 20  1  0
  4 21  1  0
  7 22  1  0
  8 23  1  6
  9 24  1  0
  9 25  1  0
 10 26  1  0
 11 27  1  6
 12 28  1  0
 12 29  1  0
 12 30  1  0
 13 31  1  0
M  END
$$$$

     RDKit          3D

 31 30  0  0  0  0  0  0  0  0999 V2000
    4.5237   -0.8776   -0.0243 C   0  0  0  0  0  0  0  0  0  0  0  0
    3.1035   -0.9637   -0.5373 C   0  0  0  0  0  0  0  0  0  0  0  0
    2.2402    0.1445    0.0207 C   0  0  2  0  0  0  0  0  0  0  0  0
    2.1872    0.0834    1.4447 N   0  0  0  0  0  0  0  0  0  0  0  0
    0.8981    0.1735   -0.5621 C   0  0  0  0  0  0  0  0  0  0  0  0
    0.6534    0.2272   -1.7938 O   0  0  0  0  0  0  0  0  0  0  0  0
   -0.2349    0.1401    0.2951 N   0  0  0  0  0  0  0  0  0  0  0  0
   -1.5978    0.1650   -0.1900 C   0  0  1  0  0  0  0  0  0  0  0  0
   -2.2171   -1.1653    0.1664 C   0  0  0  0  0  0  0  0  0  0  0  0
   -3.5283   -1.2940   -0.2355 O   0  0  0  0  0  0  0  0  0  0  0  0
   -2.3894    1.3250    0.2836 C   0  0  2  0  0  0  0  0  0  0  0  0
   -3.7342    1.3026   -0.4119 C   0  0  0  0  0  0  0  0  0  0  0  0
   -1.7561    2.4992   -0.1566 O   0  0  0  0  0  0  0  0  0  0  0  0
    5.1233   -0.2523   -0.7413 H   0  0  0  0  0  0  0  0  0  0  0  0
    4.9780   -1.8961    0.0181 H   0  0  0  0  0  0  0  0  0  0  0  0
    4.5887   -0.4599    0.9955 H   0  0  0  0  0  0  0  0  0  0  0  0
    2.6839   -1.9378   -0.2705 H   0  0  0  0  0  0  0  0  0  0  0  0
    3.1478   -0.8585   -1.6491 H   0  0  0  0  0  0  0  0  0  0  0  0
    2.7507    1.1037   -0.2539 H   0  0  0  0  0  0  0  0  0  0  0  0
    1.7973   -0.7883    1.8290 H   0  0  0  0  0  0  0  0  0  0  0  0
    3.0190    0.4509    1.9331 H   0  0  0  0  0  0  0  0  0  0  0  0
   -0.1376    0.0945    1.3493 H   0  0  0  0  0  0  0  0  0  0  0  0
   -1.5375    0.2126   -1.2978 H   0  0  0  0  0  0  0  0  0  0  0  0
   -2.2046   -1.3232    1.2797 H   0  0  0  0  0  0  0  0  0  0  0  0
   -1.6518   -2.0108   -0.2735 H   0  0  0  0  0  0  0  0  0  0  0  0
   -3.9683   -1.9685    0.3400 H   0  0  0  0  0  0  0  0  0  0  0  0
   -2.5433    1.3464    1.3816 H   0  0  0  0  0  0  0  0  0  0  0  0
   -4.0956    2.3315   -0.6357 H   0  0  0  0  0  0  0  0  0  0  0  0
   -4.5141    0.7820    0.1685 H   0  0  0  0  0  0  0  0  0  0  0  0
   -3.5907    0.7891   -1.3834 H   0  0  0  0  0  0  0  0  0  0  0  0
   -1.9935    2.6248   -1.0885 H   0  0  0  0  0  0  0  0  0  0  0  0
  1  2  1  0
  2  3  1  0
  3  4  1  0
  3  5  1  0
  5  6  2  0
  5  7  1  0
  7  8  1  0
  8  9  1  0
  9 10  1  0
  8 11  1  0
 11 12  1  0
 11 13  1  0
  1 14  1  0
  1 15  1  0
  1 16  1  0
  2 17  1  0
  2 18  1  0
  3 19  1  1
  4 20  1  0
  4 21  1  0
  7 22  1  0
  8 23  1  6
  9 24  1  0
  9 25  1  0
 10 26  1  0
 11 27  1  1
 12 28  1  0
 12 29  1  0
 12 30  1  0
 13 31  1  0
M  END
$$$$

     RDKit          3D

 31 30  0  0  0  0  0  0  0  0999 V2000
    3.0863   -1.2552    0.0383 C   0  0  0  0  0  0  0  0  0  0  0  0
    3.3801    0.0554   -0.6453 C   0  0  0  0  0  0  0  0  0  0  0  0
    2.2757    1.0494   -0.3197 C   0  0  2  0  0  0  0  0  0  0  0  0
    2.2705    1.2052    1.1217 N   0  0  0  0  0  0  0  0  0  0  0  0
    0.9603    0.5558   -0.7809 C   0  0  0  0  0  0  0  0  0  0  0  0
    0.7000    0.3356   -1.9928 O   0  0  0  0  0  0  0  0  0  0  0  0
   -0.0586    0.3147    0.1532 N   0  0  0  0  0  0  0  0  0  0  0  0
   -1.3904   -0.1732   -0.2046 C   0  0  1  0  0  0  0  0  0  0  0  0
   -1.5744   -1.4960    0.4691 C   0  0  0  0  0  0  0  0  0  0  0  0
   -2.8081   -2.0728    0.2096 O   0  0  0  0  0  0  0  0  0  0  0  0
   -2.3707    0.8721    0.2658 C   0  0  2  0  0  0  0  0  0  0  0  0
   -3.7931    0.5468   -0.0356 C   0  0  0  0  0  0  0  0  0  0  0  0
   -2.0361    2.0641   -0.4127 O   0  0  0  0  0  0  0  0  0  0  0  0
    2.0077   -1.3286    0.3411 H   0  0  0  0  0  0  0  0  0  0  0  0
    3.2525   -2.1120   -0.6732 H   0  0  0  0  0  0  0  0  0  0  0  0
    3.6803   -1.3893    0.9701 H   0  0  0  0  0  0  0  0  0  0  0  0
    4.3135    0.4828   -0.2340 H   0  0  0  0  0  0  0  0  0  0  0  0
    3.4669   -0.0979   -1.7392 H   0  0  0  0  0  0  0  0  0  0  0  0
    2.5210    2.0034   -0.8346 H   0  0  0  0  0  0  0  0  0  0  0  0
    2.9351    1.9577    1.4332 H   0  0  0  0  0  0  0  0  0  0  0  0
    2.4060    0.3122    1.6061 H   0  0  0  0  0  0  0  0  0  0  0  0
    0.0956    0.4782    1.1741 H   0  0  0  0  0  0  0  0  0  0  0  0
   -1.4122   -0.2999   -1.2974 H   0  0  0  0  0  0  0  0  0  0  0  0
   -0.7883   -2.1781    0.0840 H   0  0  0  0  0  0  0  0  0  0  0  0
   -1.3942   -1.4196    1.5658 H   0  0  0  0  0  0  0  0  0  0  0  0
   -2.7046   -3.0442    0.0542 H   0  0  0  0  0  0  0  0  0  0  0  0
   -2.2633    1.1005    1.3363 H   0  0  0  0  0  0  0  0  0  0  0  0
   -4.3416    1.5278   -0.1451 H   0  0  0  0  0  0  0  0  0  0  0  0
   -3.9241    0.0319   -1.0160 H   0  0  0  0  0  0  0  0  0  0  0  0
   -4.3105    0.0125    0.7840 H   0  0  0  0  0  0  0  0  0  0  0  0
   -2.1813    1.9605   -1.3916 H   0  0  0  0  0  0  0  0  0  0  0  0
  1  2  1  0
  2  3  1  0
  3  4  1  0
  3  5  1  0
  5  6  2  0
  5  7  1  0
  7  8  1  0
  8  9  1  0
  9 10  1  0
  8 11  1  0
 11 12  1  0
 11 13  1  0
  1 14  1  0
  1 15  1  0
  1 16  1  0
  2 17  1  0
  2 18  1  0
  3 19  1  6
  4 20  1  0
  4 21  1  0
  7 22  1  0
  8 23  1  6
  9 24  1  0
  9 25  1  0
 10 26  1  0
 11 27  1  1
 12 28  1  0
 12 29  1  0
 12 30  1  0
 13 31  1  0
M  END
$$$$

     RDKit          3D

 31 30  0  0  0  0  0  0  0  0999 V2000
   -3.7115    1.7737   -0.2197 C   0  0  0  0  0  0  0  0  0  0  0  0
   -2.3250    1.3345    0.2414 C   0  0  0  0  0  0  0  0  0  0  0  0
   -2.2331   -0.1436   -0.0252 C   0  0  2  0  0  0  0  0  0  0  0  0
   -3.2737   -0.8076    0.7259 N   0  0  0  0  0  0  0  0  0  0  0  0
   -0.9477   -0.7410    0.2971 C   0  0  0  0  0  0  0  0  0  0  0  0
   -0.9285   -1.6865    1.1280 O   0  0  0  0  0  0  0  0  0  0  0  0
    0.3058   -0.3711   -0.2287 N   0  0  0  0  0  0  0  0  0  0  0  0
    1.4962   -1.0140    0.1487 C   0  0  1  0  0  0  0  0  0  0  0  0
    2.3033   -1.6515   -0.9360 C   0  0  0  0  0  0  0  0  0  0  0  0
    2.7227   -0.7502   -1.9060 O   0  0  0  0  0  0  0  0  0  0  0  0
    2.4511   -0.0714    0.8974 C   0  0  2  0  0  0  0  0  0  0  0  0
    2.8553    1.0977    0.0373 C   0  0  0  0  0  0  0  0  0  0  0  0
    3.6183   -0.7418    1.2555 O   0  0  0  0  0  0  0  0  0  0  0  0
   -3.8981    1.2816   -1.2036 H   0  0  0  0  0  0  0  0  0  0  0  0
   -3.7507    2.8748   -0.3380 H   0  0  0  0  0  0  0  0  0  0  0  0
   -4.5043    1.4469    0.4722 H   0  0  0  0  0  0  0  0  0  0  0  0
   -1.6022    1.9373   -0.3069 H   0  0  0  0  0  0  0  0  0  0  0  0
   -2.3138    1.5198    1.3505 H   0  0  0  0  0  0  0  0  0  0  0  0
   -2.4703   -0.2932   -1.0981 H   0  0  0  0  0  0  0  0  0  0  0  0
   -4.2255   -0.5752    0.4362 H   0  0  0  0  0  0  0  0  0  0  0  0
   -3.0741   -0.7865    1.7311 H   0  0  0  0  0  0  0  0  0  0  0  0
    0.3428    0.4048   -0.9191 H   0  0  0  0  0  0  0  0  0  0  0  0
    1.2632   -1.8156    0.8921 H   0  0  0  0  0  0  0  0  0  0  0  0
    3.2613   -1.9767   -0.4271 H   0  0  0  0  0  0  0  0  0  0  0  0
    1.8836   -2.5784   -1.3362 H   0  0  0  0  0  0  0  0  0  0  0  0
    2.1862   -0.7790   -2.7316 H   0  0  0  0  0  0  0  0  0  0  0  0
    1.9977    0.3079    1.8168 H   0  0  0  0  0  0  0  0  0  0  0  0
    2.1635    1.3130   -0.7828 H   0  0  0  0  0  0  0  0  0  0  0  0
    3.0460    1.9684    0.6966 H   0  0  0  0  0  0  0  0  0  0  0  0
    3.8512    0.8866   -0.4533 H   0  0  0  0  0  0  0  0  0  0  0  0
    3.5101   -1.3638    1.9951 H   0  0  0  0  0  0  0  0  0  0  0  0
  1  2  1  0
  2  3  1  0
  3  4  1  0
  3  5  1  0
  5  6  2  0
  5  7  1  0
  7  8  1  0
  8  9  1  0
  9 10  1  0
  8 11  1  0
 11 12  1  0
 11 13  1  0
  1 14  1  0
  1 15  1  0
  1 16  1  0
  2 17  1  0
  2 18  1  0
  3 19  1  6
  4 20  1  0
  4 21  1  0
  7 22  1  0
  8 23  1  1
  9 24  1  0
  9 25  1  0
 10 26  1  0
 11 27  1  1
 12 28  1  0
 12 29  1  0
 12 30  1  0
 13 31  1  0
M  END
$$$$

     RDKit          3D

 31 30  0  0  0  0  0  0  0  0999 V2000
    4.4448   -0.0277    0.6549 C   0  0  0  0  0  0  0  0  0  0  0  0
    3.0099   -0.4415    0.8870 C   0  0  0  0  0  0  0  0  0  0  0  0
    2.2120   -0.3415   -0.3988 C   0  0  2  0  0  0  0  0  0  0  0  0
    2.2700    1.0420   -0.8280 N   0  0  0  0  0  0  0  0  0  0  0  0
    0.8013   -0.7461   -0.0900 C   0  0  0  0  0  0  0  0  0  0  0  0
    0.5142   -1.8995    0.2994 O   0  0  0  0  0  0  0  0  0  0  0  0
   -0.2731    0.1758   -0.2299 N   0  0  0  0  0  0  0  0  0  0  0  0
   -1.6476   -0.1129    0.0388 C   0  0  1  0  0  0  0  0  0  0  0  0
   -2.1061    0.7863    1.1754 C   0  0  0  0  0  0  0  0  0  0  0  0
   -1.3252    0.5242    2.2983 O   0  0  0  0  0  0  0  0  0  0  0  0
   -2.5354    0.0345   -1.1720 C   0  0  2  0  0  0  0  0  0  0  0  0
   -3.9513   -0.3681   -0.8178 C   0  0  0  0  0  0  0  0  0  0  0  0
   -2.0896   -0.8473   -2.1495 O   0  0  0  0  0  0  0  0  0  0  0  0
    4.7691   -0.3093   -0.3871 H   0  0  0  0  0  0  0  0  0  0  0  0
    5.1440   -0.5793    1.3311 H   0  0  0  0  0  0  0  0  0  0  0  0
    4.5959    1.0553    0.8068 H   0  0  0  0  0  0  0  0  0  0  0  0
    2.9780   -1.4889    1.2335 H   0  0  0  0  0  0  0  0  0  0  0  0
    2.5516    0.2416    1.6507 H   0  0  0  0  0  0  0  0  0  0  0  0
    2.6866   -1.0150   -1.1313 H   0  0  0  0  0  0  0  0  0  0  0  0
    1.6931    1.1332   -1.6916 H   0  0  0  0  0  0  0  0  0  0  0  0
    1.8980    1.6219   -0.0501 H   0  0  0  0  0  0  0  0  0  0  0  0
   -0.0187    1.1335   -0.5554 H   0  0  0  0  0  0  0  0  0  0  0  0
   -1.7375   -1.1692    0.3732 H   0  0  0  0  0  0  0  0  0  0  0  0
   -1.8751    1.8309    0.8724 H   0  0  0  0  0  0  0  0  0  0  0  0
   -3.1492    0.6325    1.4574 H   0  0  0  0  0  0  0  0  0  0  0  0
   -1.5079    1.2624    2.9436 H   0  0  0  0  0  0  0  0  0  0  0  0
   -2.4968    1.0496   -1.6004 H   0  0  0  0  0  0  0  0  0  0  0  0
   -4.3229   -1.2077   -1.4627 H   0  0  0  0  0  0  0  0  0  0  0  0
   -4.0548   -0.7160    0.2241 H   0  0  0  0  0  0  0  0  0  0  0  0
   -4.6595    0.4704   -1.0040 H   0  0  0  0  0  0  0  0  0  0  0  0
   -1.8178   -1.7242   -1.7342 H   0  0  0  0  0  0  0  0  0  0  0  0
  1  2  1  0
  2  3  1  0
  3  4  1  0
  3  5  1  0
  5  6  2  0
  5  7  1  0
  7  8  1  0
  8  9  1  0
  9 10  1  0
  8 11  1  0
 11 12  1  0
 11 13  1  0
  1 14  1  0
  1 15  1  0
  1 16  1  0
  2 17  1  0
  2 18  1  0
  3 19  1  6
  4 20  1  0
  4 21  1  0
  7 22  1  0
  8 23  1  1
  9 24  1  0
  9 25  1  0
 10 26  1  0
 11 27  1  6
 12 28  1  0
 12 29  1  0
 12 30  1  0
 13 31  1  0
M  END
$$$$

     RDKit          3D

 31 30  0  0  0  0  0  0  0  0999 V2000
   -4.4372   -0.2635    0.2840 C   0  0  0  0  0  0  0  0  0  0  0  0
   -3.0996   -0.5438   -0.3195 C   0  0  0  0  0  0  0  0  0  0  0  0
   -2.0192   -0.7979    0.7060 C   0  0  2  0  0  0  0  0  0  0  0  0
   -1.8647    0.3737    1.5740 N   0  0  0  0  0  0  0  0  0  0  0  0
   -0.7353   -0.9653   -0.0409 C   0  0  0  0  0  0  0  0  0  0  0  0
   -0.5911   -1.9040   -0.8641 O   0  0  0  0  0  0  0  0  0  0  0  0
    0.3689   -0.0885    0.1372 N   0  0  0  0  0  0  0  0  0  0  0  0
    1.6283   -0.2202   -0.5693 C   0  0  1  0  0  0  0  0  0  0  0  0
    1.7876    1.0017   -1.4313 C   0  0  0  0  0  0  0  0  0  0  0  0
    2.9677    0.9928   -2.1644 O   0  0  0  0  0  0  0  0  0  0  0  0
    2.7791   -0.4440    0.3666 C   0  0  2  0  0  0  0  0  0  0  0  0
    2.8875    0.5982    1.4412 C   0  0  0  0  0  0  0  0  0  0  0  0
    3.9533   -0.5634   -0.3413 O   0  0  0  0  0  0  0  0  0  0  0  0
   -4.4168   -0.2819    1.4090 H   0  0  0  0  0  0  0  0  0  0  0  0
   -5.1808   -0.9550   -0.1177 H   0  0  0  0  0  0  0  0  0  0  0  0
   -4.7998    0.7695    0.0317 H   0  0  0  0  0  0  0  0  0  0  0  0
   -3.1496   -1.4250   -0.9727 H   0  0  0  0  0  0  0  0  0  0  0  0
   -2.7822    0.3628   -0.8886 H   0  0  0  0  0  0  0  0  0  0  0  0
   -2.2473   -1.7009    1.2715 H   0  0  0  0  0  0  0  0  0  0  0  0
   -2.7047    0.5406    2.1533 H   0  0  0  0  0  0  0  0  0  0  0  0
   -1.7209    1.2102    0.9728 H   0  0  0  0  0  0  0  0  0  0  0  0
    0.2581    0.6927    0.8179 H   0  0  0  0  0  0  0  0  0  0  0  0
    1.5823   -1.0958   -1.2511 H   0  0  0  0  0  0  0  0  0  0  0  0
    1.7135    1.9503   -0.8603 H   0  0  0  0  0  0  0  0  0  0  0  0
    0.9573    1.0118   -2.1676 H   0  0  0  0  0  0  0  0  0  0  0  0
    3.5808    1.7318   -1.8698 H   0  0  0  0  0  0  0  0  0  0  0  0
    2.6001   -1.4190    0.8749 H   0  0  0  0  0  0  0  0  0  0  0  0
    2.9298    1.6252    1.0836 H   0  0  0  0  0  0  0  0  0  0  0  0
    3.8473    0.4031    1.9834 H   0  0  0  0  0  0  0  0  0  0  0  0
    2.0348    0.4469    2.1509 H   0  0  0  0  0  0  0  0  0  0  0  0
    3.8728   -1.0431   -1.1818 H   0  0  0  0  0  0  0  0  0  0  0  0
  1  2  1  0
  2  3  1  0
  3  4  1  0
  3  5  1  0
  5  6  2  0
  5  7  1  0
  7  8  1  0
  8  9  1  0
  9 10  1  0
  8 11  1  0
 11 12  1  0
 11 13  1  0
  1 14  1  0
  1 15  1  0
  1 16  1  0
  2 17  1  0
  2 18  1  0
  3 19  1  1
  4 20  1  0
  4 21  1  0
  7 22  1  0
  8 23  1  6
  9 24  1  0
  9 25  1  0
 10 26  1  0
 11 27  1  1
 12 28  1  0
 12 29  1  0
 12 30  1  0
 13 31  1  0
M  END
$$$$

     RDKit          3D

 31 30  0  0  0  0  0  0  0  0999 V2000
    4.4443   -0.2387   -0.4175 C   0  0  0  0  0  0  0  0  0  0  0  0
    3.1089   -0.7177    0.1117 C   0  0  0  0  0  0  0  0  0  0  0  0
    1.9971   -0.2054   -0.7641 C   0  0  2  0  0  0  0  0  0  0  0  0
    2.0524    1.2403   -0.7429 N   0  0  0  0  0  0  0  0  0  0  0  0
    0.6726   -0.6887   -0.3804 C   0  0  0  0  0  0  0  0  0  0  0  0
    0.5023   -1.9570   -0.3624 O   0  0  0  0  0  0  0  0  0  0  0  0
   -0.4222    0.1490   -0.0311 N   0  0  0  0  0  0  0  0  0  0  0  0
   -1.7177   -0.3120    0.3446 C   0  0  1  0  0  0  0  0  0  0  0  0
   -2.0631    0.0032    1.7851 C   0  0  0  0  0  0  0  0  0  0  0  0
   -2.0494    1.3660    2.0439 O   0  0  0  0  0  0  0  0  0  0  0  0
   -2.8190    0.0843   -0.5992 C   0  0  2  0  0  0  0  0  0  0  0  0
   -2.7038   -0.5062   -1.9602 C   0  0  0  0  0  0  0  0  0  0  0  0
   -2.8661    1.4916   -0.6554 O   0  0  0  0  0  0  0  0  0  0  0  0
    4.6388    0.7886   -0.0465 H   0  0  0  0  0  0  0  0  0  0  0  0
    4.4949   -0.3081   -1.5299 H   0  0  0  0  0  0  0  0  0  0  0  0
    5.2290   -0.8786    0.0711 H   0  0  0  0  0  0  0  0  0  0  0  0
    3.0919   -1.8290    0.1256 H   0  0  0  0  0  0  0  0  0  0  0  0
    3.0306   -0.3795    1.1556 H   0  0  0  0  0  0  0  0  0  0  0  0
    2.2620   -0.5082   -1.8188 H   0  0  0  0  0  0  0  0  0  0  0  0
    1.9670    1.6326    0.2011 H   0  0  0  0  0  0  0  0  0  0  0  0
    1.3719    1.6134   -1.4306 H   0  0  0  0  0  0  0  0  0  0  0  0
   -0.2519    1.1775   -0.0553 H   0  0  0  0  0  0  0  0  0  0  0  0
   -1.6764   -1.4437    0.3032 H   0  0  0  0  0  0  0  0  0  0  0  0
   -1.2668   -0.4618    2.4200 H   0  0  0  0  0  0  0  0  0  0  0  0
   -3.0562   -0.4043    2.0152 H   0  0  0  0  0  0  0  0  0  0  0  0
   -2.9092    1.7482    1.6992 H   0  0  0  0  0  0  0  0  0  0  0  0
   -3.8007   -0.2194   -0.1772 H   0  0  0  0  0  0  0  0  0  0  0  0
   -2.1868   -1.4853   -1.9853 H   0  0  0  0  0  0  0  0  0  0  0  0
   -3.7001   -0.6788   -2.4413 H   0  0  0  0  0  0  0  0  0  0  0  0
   -2.1859    0.2148   -2.6602 H   0  0  0  0  0  0  0  0  0  0  0  0
   -3.1886    1.7131   -1.5818 H   0  0  0  0  0  0  0  0  0  0  0  0
  1  2  1  0
  2  3  1  0
  3  4  1  0
  3  5  1  0
  5  6  2  0
  5  7  1  0
  7  8  1  0
  8  9  1  0
  9 10  1  0
  8 11  1  0
 11 12  1  0
 11 13  1  0
  1 14  1  0
  1 15  1  0
  1 16  1  0
  2 17  1  0
  2 18  1  0
  3 19  1  6
  4 20  1  0
  4 21  1  0
  7 22  1  0
  8 23  1  1
  9 24  1  0
  9 25  1  0
 10 26  1  0
 11 27  1  1
 12 28  1  0
 12 29  1  0
 12 30  1  0
 13 31  1  0
M  END
$$$$

     RDKit          3D

 31 30  0  0  0  0  0  0  0  0999 V2000
   -2.4443   -0.7843    1.7173 C   0  0  0  0  0  0  0  0  0  0  0  0
   -3.0883   -0.3949    0.4269 C   0  0  0  0  0  0  0  0  0  0  0  0
   -2.4649    0.7901   -0.2624 C   0  0  2  0  0  0  0  0  0  0  0  0
   -3.2750    0.9632   -1.4849 N   0  0  0  0  0  0  0  0  0  0  0  0
   -1.0701    0.6222   -0.6534 C   0  0  0  0  0  0  0  0  0  0  0  0
   -0.7596    0.5759   -1.8687 O   0  0  0  0  0  0  0  0  0  0  0  0
   -0.0024    0.5041    0.2792 N   0  0  0  0  0  0  0  0  0  0  0  0
    1.3722    0.3372   -0.1470 C   0  0  1  0  0  0  0  0  0  0  0  0
    2.2257    1.4856    0.3222 C   0  0  0  0  0  0  0  0  0  0  0  0
    3.5327    1.3440   -0.0730 O   0  0  0  0  0  0  0  0  0  0  0  0
    1.8904   -0.9919    0.3567 C   0  0  2  0  0  0  0  0  0  0  0  0
    3.3077   -1.2454   -0.0853 C   0  0  0  0  0  0  0  0  0  0  0  0
    1.1043   -2.0150   -0.1700 O   0  0  0  0  0  0  0  0  0  0  0  0
   -3.1706   -1.4373    2.2899 H   0  0  0  0  0  0  0  0  0  0  0  0
   -2.2887    0.1270    2.3321 H   0  0  0  0  0  0  0  0  0  0  0  0
   -1.5391   -1.3985    1.6001 H   0  0  0  0  0  0  0  0  0  0  0  0
   -3.1610   -1.2675   -0.2538 H   0  0  0  0  0  0  0  0  0  0  0  0
   -4.1422   -0.1063    0.6551 H   0  0  0  0  0  0  0  0  0  0  0  0
   -2.6073    1.6902    0.3654 H   0  0  0  0  0  0  0  0  0  0  0  0
   -2.8866    0.3344   -2.2365 H   0  0  0  0  0  0  0  0  0  0  0  0
   -3.1261    1.9445   -1.8550 H   0  0  0  0  0  0  0  0  0  0  0  0
   -0.1690    0.5363    1.3179 H   0  0  0  0  0  0  0  0  0  0  0  0
    1.4190    0.3217   -1.2546 H   0  0  0  0  0  0  0  0  0  0  0  0
    2.1695    1.5825    1.4308 H   0  0  0  0  0  0  0  0  0  0  0  0
    1.8264    2.4125   -0.1272 H   0  0  0  0  0  0  0  0  0  0  0  0
    3.6868    1.8178   -0.9330 H   0  0  0  0  0  0  0  0  0  0  0  0
    1.8651   -1.0623    1.4552 H   0  0  0  0  0  0  0  0  0  0  0  0
    3.5114   -0.9072   -1.1171 H   0  0  0  0  0  0  0  0  0  0  0  0
    4.0509   -0.8273    0.6242 H   0  0  0  0  0  0  0  0  0  0  0  0
    3.4640   -2.3449   -0.0819 H   0  0  0  0  0  0  0  0  0  0  0  0
    0.7690   -2.6066    0.5474 H   0  0  0  0  0  0  0  0  0  0  0  0
  1  2  1  0
  2  3  1  0
  3  4  1  0
  3  5  1  0
  5  6  2  0
  5  7  1  0
  7  8  1  0
  8  9  1  0
  9 10  1  0
  8 11  1  0
 11 12  1  0
 11 13  1  0
  1 14  1  0
  1 15  1  0
  1 16  1  0
  2 17  1  0
  2 18  1  0
  3 19  1  1
  4 20  1  0
  4 21  1  0
  7 22  1  0
  8 23  1  6
  9 24  1  0
  9 25  1  0
 10 26  1  0
 11 27  1  1
 12 28  1  0
 12 29  1  0
 12 30  1  0
 13 31  1  0
M  END
$$$$
