
     RDKit          3D

 31 30  0  0  0  0  0  0  0  0999 V2000
    3.5266    0.6267    0.6258 C   0  0  0  0  0  0  0  0  0  0  0  0
    3.0929   -0.3790   -0.3992 C   0  0  2  0  0  0  0  0  0  0  0  0
    4.0626   -0.4014   -1.4084 O   0  0  0  0  0  0  0  0  0  0  0  0
    1.7828   -0.0027   -1.0596 C   0  0  1  0  0  0  0  0  0  0  0  0
    1.5023   -1.0146   -2.0543 N   0  0  0  0  0  0  0  0  0  0  0  0
    0.6631    0.0206   -0.0854 C   0  0  0  0  0  0  0  0  0  0  0  0
    0.6992    0.8487    0.8920 O   0  0  0  0  0  0  0  0  0  0  0  0
   -0.4293   -0.8677   -0.2438 N   0  0  0  0  0  0  0  0  0  0  0  0
   -1.5469   -0.9208    0.6289 C   0  0  0  0  0  0  0  0  0  0  0  0
   -2.3852    0.2914    0.7665 C   0  0  0  0  0  0  0  0  0  0  0  0
   -3.0994    0.6381   -0.5474 C   0  0  0  0  0  0  0  0  0  0  0  0
   -3.5282   -0.0782    1.7275 C   0  0  0  0  0  0  0  0  0  0  0  0
   -1.7948    1.4291    1.2280 O   0  0  0  0  0  0  0  0  0  0  0  0
    3.5450    1.6408    0.1900 H   0  0  0  0  0  0  0  0  0  0  0  0
    2.9230    0.5788    1.5633 H   0  0  0  0  0  0  0  0  0  0  0  0
    4.5956    0.3774    0.8822 H   0  0  0  0  0  0  0  0  0  0  0  0
    3.0363   -1.3785    0.0316 H   0  0  0  0  0  0  0  0  0  0  0  0
    4.6401    0.4068   -1.3913 H   0  0  0  0  0  0  0  0  0  0  0  0
    1.8983    1.0050   -1.5121 H   0  0  0  0  0  0  0  0  0  0  0  0
    1.9578   -0.7168   -2.9561 H   0  0  0  0  0  0  0  0  0  0  0  0
    1.9577   -1.9087   -1.7708 H   0  0  0  0  0  0  0  0  0  0  0  0
   -0.3882   -1.5147   -1.0611 H   0  0  0  0  0  0  0  0  0  0  0  0
   -1.1751   -1.3053    1.6213 H   0  0  0  0  0  0  0  0  0  0  0  0
   -2.2471   -1.7443    0.2983 H   0  0  0  0  0  0  0  0  0  0  0  0
   -3.4302   -0.3231   -0.9924 H   0  0  0  0  0  0  0  0  0  0  0  0
   -2.4198    1.1961   -1.2215 H   0  0  0  0  0  0  0  0  0  0  0  0
   -4.0015    1.2679   -0.3445 H   0  0  0  0  0  0  0  0  0  0  0  0
   -4.3994    0.5811    1.5882 H   0  0  0  0  0  0  0  0  0  0  0  0
   -3.8264   -1.0959    1.4580 H   0  0  0  0  0  0  0  0  0  0  0  0
   -3.1462   -0.0145    2.7755 H   0  0  0  0  0  0  0  0  0  0  0  0
   -2.0660    2.2568    0.7712 H   0  0  0  0  0  0  0  0  0  0  0  0
  1  2  1  0
  2  3  1  0
  2  4  1  0
  4  5  1  0
  4  6  1  0
  6  7  2  0
  6  8  1  0
  8  9  1  0
  9 10  1  0
 10 11  1  0
 10 12  1  0
 10 13  1  0
  1 14  1  0
  1 15  1  0
  1 16  1  0
  2 17  1  1
  3 18  1  0
  4 19  1  6
  5 20  1  0
  5 21  1  0
  8 22  1  0
  9 23  1  0
  9 24  1  0
 11 25  1  0
 11 26  1  0
 11 27  1  0
 12 28  1  0
 12 29  1  0
 12 30  1  0
 13 31  1  0
M  END
$$$$

     RDKit          3D

 31 30  0  0  0  0  0  0  0  0999 V2000
    3.0732    0.7814    0.7204 C   0  0  0  0  0  0  0  0  0  0  0  0
    2.5451    0.5287   -0.6849 C   0  0  2  0  0  0  0  0  0  0  0  0
    1.5983    1.4954   -0.9945 O   0  0  0  0  0  0  0  0  0  0  0  0
    1.9968   -0.8785   -0.7981 C   0  0  1  0  0  0  0  0  0  0  0  0
    3.0748   -1.7815   -0.4522 N   0  0  0  0  0  0  0  0  0  0  0  0
    0.8639   -1.1138    0.1071 C   0  0  0  0  0  0  0  0  0  0  0  0
    0.9298   -2.0036    1.0225 O   0  0  0  0  0  0  0  0  0  0  0  0
   -0.3608   -0.3978    0.0459 N   0  0  0  0  0  0  0  0  0  0  0  0
   -1.4612   -0.6725    0.9746 C   0  0  0  0  0  0  0  0  0  0  0  0
   -2.6393    0.2140    0.7037 C   0  0  0  0  0  0  0  0  0  0  0  0
   -2.1957    1.6488    0.8708 C   0  0  0  0  0  0  0  0  0  0  0  0
   -3.0978   -0.0484   -0.7133 C   0  0  0  0  0  0  0  0  0  0  0  0
   -3.6310   -0.1139    1.6269 O   0  0  0  0  0  0  0  0  0  0  0  0
    2.2759    0.8518    1.4685 H   0  0  0  0  0  0  0  0  0  0  0  0
    3.6935    1.6920    0.6941 H   0  0  0  0  0  0  0  0  0  0  0  0
    3.7605   -0.0630    0.9795 H   0  0  0  0  0  0  0  0  0  0  0  0
    3.4080    0.6651   -1.3645 H   0  0  0  0  0  0  0  0  0  0  0  0
    1.5360    2.1601   -0.2584 H   0  0  0  0  0  0  0  0  0  0  0  0
    1.7411   -1.0307   -1.8669 H   0  0  0  0  0  0  0  0  0  0  0  0
    3.5029   -2.1716   -1.3077 H   0  0  0  0  0  0  0  0  0  0  0  0
    2.7122   -2.5435    0.1497 H   0  0  0  0  0  0  0  0  0  0  0  0
   -0.4484    0.3311   -0.6848 H   0  0  0  0  0  0  0  0  0  0  0  0
   -1.7766   -1.7233    0.7586 H   0  0  0  0  0  0  0  0  0  0  0  0
   -1.0832   -0.6258    2.0034 H   0  0  0  0  0  0  0  0  0  0  0  0
   -2.8905    2.2278    1.4988 H   0  0  0  0  0  0  0  0  0  0  0  0
   -2.1607    2.1425   -0.1420 H   0  0  0  0  0  0  0  0  0  0  0  0
   -1.1944    1.7202    1.3458 H   0  0  0  0  0  0  0  0  0  0  0  0
   -4.2008    0.0441   -0.8296 H   0  0  0  0  0  0  0  0  0  0  0  0
   -2.8498   -1.1077   -0.9686 H   0  0  0  0  0  0  0  0  0  0  0  0
   -2.5887    0.6689   -1.3642 H   0  0  0  0  0  0  0  0  0  0  0  0
   -4.1331   -0.8962    1.2467 H   0  0  0  0  0  0  0  0  0  0  0  0
  1  2  1  0
  2  3  1  0
  2  4  1  0
  4  5  1  0
  4  6  1  0
  6  7  2  0
  6  8  1  0
  8  9  1  0
  9 10  1  0
 10 11  1  0
 10 12  1  0
 10 13  1  0
  1 14  1  0
  1 15  1  0
  1 16  1  0
  2 17  1  6
  3 18  1  0
  4 19  1  6
  5 20  1  0
  5 21  1  0
  8 22  1  0
  9 23  1  0
  9 24  1  0
 11 25  1  0
 11 26  1  0
 11 27  1  0
 12 28  1  0
 12 29  1  0
 12 30  1  0
 13 31  1  0
M  END
$$$$

     RDKit          3D

 31 30  0  0  0  0  0  0  0  0999 V2000
    3.6859   -1.0371    0.9264 C   0  0  0  0  0  0  0  0  0  0  0  0
    3.1497   -0.4015   -0.3332 C   0  0  2  0  0  0  0  0  0  0  0  0
    4.2372    0.1713   -0.9948 O   0  0  0  0  0  0  0  0  0  0  0  0
    2.1595    0.6949   -0.0641 C   0  0  1  0  0  0  0  0  0  0  0  0
    1.7711    1.2477   -1.3498 N   0  0  0  0  0  0  0  0  0  0  0  0
    0.9708    0.2169    0.6865 C   0  0  0  0  0  0  0  0  0  0  0  0
    1.0334   -0.3002    1.8183 O   0  0  0  0  0  0  0  0  0  0  0  0
   -0.3084    0.3526    0.0897 N   0  0  0  0  0  0  0  0  0  0  0  0
   -1.4899   -0.1176    0.8249 C   0  0  0  0  0  0  0  0  0  0  0  0
   -2.7477    0.1071    0.0411 C   0  0  0  0  0  0  0  0  0  0  0  0
   -2.6651   -0.6724   -1.2510 C   0  0  0  0  0  0  0  0  0  0  0  0
   -3.8989   -0.4435    0.8426 C   0  0  0  0  0  0  0  0  0  0  0  0
   -2.8999    1.4693   -0.2147 O   0  0  0  0  0  0  0  0  0  0  0  0
    4.5677   -1.6611    0.6024 H   0  0  0  0  0  0  0  0  0  0  0  0
    2.9878   -1.7216    1.4043 H   0  0  0  0  0  0  0  0  0  0  0  0
    4.0996   -0.2548    1.5841 H   0  0  0  0  0  0  0  0  0  0  0  0
    2.7147   -1.1505   -0.9973 H   0  0  0  0  0  0  0  0  0  0  0  0
    4.2659   -0.0964   -1.9520 H   0  0  0  0  0  0  0  0  0  0  0  0
    2.6129    1.5226    0.5146 H   0  0  0  0  0  0  0  0  0  0  0  0
    1.1096    2.0335   -1.2790 H   0  0  0  0  0  0  0  0  0  0  0  0
    1.3849    0.4518   -1.9275 H   0  0  0  0  0  0  0  0  0  0  0  0
   -0.4570    0.7737   -0.8553 H   0  0  0  0  0  0  0  0  0  0  0  0
   -1.3837   -1.2257    0.9582 H   0  0  0  0  0  0  0  0  0  0  0  0
   -1.5374    0.3357    1.8272 H   0  0  0  0  0  0  0  0  0  0  0  0
   -2.1959   -1.6557   -0.9912 H   0  0  0  0  0  0  0  0  0  0  0  0
   -2.0736   -0.1745   -2.0279 H   0  0  0  0  0  0  0  0  0  0  0  0
   -3.7105   -0.8860   -1.5633 H   0  0  0  0  0  0  0  0  0  0  0  0
   -3.7059   -0.3820    1.9437 H   0  0  0  0  0  0  0  0  0  0  0  0
   -4.8508    0.0883    0.5828 H   0  0  0  0  0  0  0  0  0  0  0  0
   -4.0490   -1.5027    0.5525 H   0  0  0  0  0  0  0  0  0  0  0  0
   -2.7768    1.9927    0.6021 H   0  0  0  0  0  0  0  0  0  0  0  0
  1  2  1  0
  2  3  1  0
  2  4  1  0
  4  5  1  0
  4  6  1  0
  6  7  2  0
  6  8  1  0
  8  9  1  0
  9 10  1  0
 10 11  1  0
 10 12  1  0
 10 13  1  0
  1 14  1  0
  1 15  1  0
  1 16  1  0
  2 17  1  6
  3 18  1  0
  4 19  1  1
  5 20  1  0
  5 21  1  0
  8 22  1  0
  9 23  1  0
  9 24  1  0
 11 25  1  0
 11 26  1  0
 11 27  1  0
 12 28  1  0
 12 29  1  0
 12 30  1  0
 13 31  1  0
M  END
$$$$

     RDKit          3D

 31 30  0  0  0  0  0  0  0  0999 V2000
   -4.2479    0.1433    0.0145 C   0  0  0  0  0  0  0  0  0  0  0  0
   -2.9910    0.1324    0.8727 C   0  0  2  0  0  0  0  0  0  0  0  0
   -2.5367    1.4472    0.9517 O   0  0  0  0  0  0  0  0  0  0  0  0
   -1.9818   -0.7323    0.1410 C   0  0  1  0  0  0  0  0  0  0  0  0
   -1.7875   -0.2250   -1.1887 N   0  0  0  0  0  0  0  0  0  0  0  0
   -0.6878   -0.7875    0.9022 C   0  0  0  0  0  0  0  0  0  0  0  0
   -0.7008   -1.2124    2.0861 O   0  0  0  0  0  0  0  0  0  0  0  0
    0.5162   -0.3621    0.2752 N   0  0  0  0  0  0  0  0  0  0  0  0
    1.7279   -0.4356    1.0491 C   0  0  0  0  0  0  0  0  0  0  0  0
    2.9389    0.0370    0.2929 C   0  0  0  0  0  0  0  0  0  0  0  0
    3.1800   -0.7109   -0.9733 C   0  0  0  0  0  0  0  0  0  0  0  0
    2.7741    1.5016   -0.0358 C   0  0  0  0  0  0  0  0  0  0  0  0
    4.0454   -0.0776    1.1328 O   0  0  0  0  0  0  0  0  0  0  0  0
   -4.6950   -0.8820    0.0187 H   0  0  0  0  0  0  0  0  0  0  0  0
   -4.0402    0.5165   -0.9974 H   0  0  0  0  0  0  0  0  0  0  0  0
   -5.0137    0.7959    0.5020 H   0  0  0  0  0  0  0  0  0  0  0  0
   -3.2392   -0.2664    1.8658 H   0  0  0  0  0  0  0  0  0  0  0  0
   -2.8836    1.9673    0.1896 H   0  0  0  0  0  0  0  0  0  0  0  0
   -2.4057   -1.7452    0.0690 H   0  0  0  0  0  0  0  0  0  0  0  0
   -2.0331    0.7882   -1.2415 H   0  0  0  0  0  0  0  0  0  0  0  0
   -2.3860   -0.7051   -1.9055 H   0  0  0  0  0  0  0  0  0  0  0  0
    0.4918   -0.0112   -0.7192 H   0  0  0  0  0  0  0  0  0  0  0  0
    1.8471   -1.4658    1.4330 H   0  0  0  0  0  0  0  0  0  0  0  0
    1.5935    0.2168    1.9351 H   0  0  0  0  0  0  0  0  0  0  0  0
    4.2873   -0.7924   -1.1188 H   0  0  0  0  0  0  0  0  0  0  0  0
    2.8092   -0.1636   -1.8713 H   0  0  0  0  0  0  0  0  0  0  0  0
    2.7831   -1.7399   -0.9832 H   0  0  0  0  0  0  0  0  0  0  0  0
    3.6896    2.0874    0.1447 H   0  0  0  0  0  0  0  0  0  0  0  0
    1.9736    1.9508    0.5957 H   0  0  0  0  0  0  0  0  0  0  0  0
    2.4775    1.6714   -1.0904 H   0  0  0  0  0  0  0  0  0  0  0  0
    4.4947   -0.9406    0.9736 H   0  0  0  0  0  0  0  0  0  0  0  0
  1  2  1  0
  2  3  1  0
  2  4  1  0
  4  5  1  0
  4  6  1  0
  6  7  2  0
  6  8  1  0
  8  9  1  0
  9 10  1  0
 10 11  1  0
 10 12  1  0
 10 13  1  0
  1 14  1  0
  1 15  1  0
  1 16  1  0
  2 17  1  1
  3 18  1  0
  4 19  1  6
  5 20  1  0
  5 21  1  0
  8 22  1  0
  9 23  1  0
  9 24  1  0
 11 25  1  0
 11 26  1  0
 11 27  1  0
 12 28  1  0
 12 29  1  0
 12 30  1  0
 13 31  1  0
M  END
$$$$

     RDKit          3D

 31 30  0  0  0  0  0  0  0  0999 V2000
   -3.5973    1.3735   -0.8531 C   0  0  0  0  0  0  0  0  0  0  0  0
   -2.3069    0.5875   -0.7402 C   0  0  2  0  0  0  0  0  0  0  0  0
   -2.5318   -0.6557   -1.3387 O   0  0  0  0  0  0  0  0  0  0  0  0
   -2.0111    0.4004    0.7302 C   0  0  1  0  0  0  0  0  0  0  0  0
   -3.1177   -0.2418    1.4081 N   0  0  0  0  0  0  0  0  0  0  0  0
   -0.7937   -0.4123    0.9547 C   0  0  0  0  0  0  0  0  0  0  0  0
   -0.8630   -1.4571    1.6387 O   0  0  0  0  0  0  0  0  0  0  0  0
    0.4789   -0.0739    0.4308 N   0  0  0  0  0  0  0  0  0  0  0  0
    1.6650   -0.8855    0.6621 C   0  0  0  0  0  0  0  0  0  0  0  0
    2.8817   -0.3138    0.0026 C   0  0  0  0  0  0  0  0  0  0  0  0
    3.2376    1.0264    0.6106 C   0  0  0  0  0  0  0  0  0  0  0  0
    2.7584   -0.2232   -1.4906 C   0  0  0  0  0  0  0  0  0  0  0  0
    3.9535   -1.1723    0.2911 O   0  0  0  0  0  0  0  0  0  0  0  0
   -4.4868    0.7395   -0.8451 H   0  0  0  0  0  0  0  0  0  0  0  0
   -3.5342    1.9563   -1.7963 H   0  0  0  0  0  0  0  0  0  0  0  0
   -3.6167    2.0714    0.0053 H   0  0  0  0  0  0  0  0  0  0  0  0
   -1.4598    1.1022   -1.2198 H   0  0  0  0  0  0  0  0  0  0  0  0
   -3.4437   -0.9869   -1.1757 H   0  0  0  0  0  0  0  0  0  0  0  0
   -1.9215    1.4169    1.1657 H   0  0  0  0  0  0  0  0  0  0  0  0
   -3.0769   -1.2719    1.3775 H   0  0  0  0  0  0  0  0  0  0  0  0
   -4.0341    0.1681    1.1946 H   0  0  0  0  0  0  0  0  0  0  0  0
    0.5689    0.7810   -0.1369 H   0  0  0  0  0  0  0  0  0  0  0  0
    1.5015   -1.9453    0.3963 H   0  0  0  0  0  0  0  0  0  0  0  0
    1.8357   -0.8666    1.7612 H   0  0  0  0  0  0  0  0  0  0  0  0
    3.1760    0.9389    1.7167 H   0  0  0  0  0  0  0  0  0  0  0  0
    4.2759    1.2993    0.3375 H   0  0  0  0  0  0  0  0  0  0  0  0
    2.5046    1.7978    0.3189 H   0  0  0  0  0  0  0  0  0  0  0  0
    2.0114    0.5319   -1.8041 H   0  0  0  0  0  0  0  0  0  0  0  0
    3.7736    0.0404   -1.8885 H   0  0  0  0  0  0  0  0  0  0  0  0
    2.5298   -1.2279   -1.8795 H   0  0  0  0  0  0  0  0  0  0  0  0
    3.6425   -2.1236    0.1657 H   0  0  0  0  0  0  0  0  0  0  0  0
  1  2  1  0
  2  3  1  0
  2  4  1  0
  4  5  1  0
  4  6  1  0
  6  7  2  0
  6  8  1  0
  8  9  1  0
  9 10  1  0
 10 11  1  0
 10 12  1  0
 10 13  1  0
  1 14  1  0
  1 15  1  0
  1 16  1  0
  2 17  1  6
  3 18  1  0
  4 19  1  1
  5 20  1  0
  5 21  1  0
  8 22  1  0
  9 23  1  0
  9 24  1  0
 11 25  1  0
 11 26  1  0
 11 27  1  0
 12 28  1  0
 12 29  1  0
 12 30  1  0
 13 31  1  0
M  END
$$$$

     RDKit          3D

 31 30  0  0  0  0  0  0  0  0999 V2000
    4.3643    0.2610   -0.1571 C   0  0  0  0  0  0  0  0  0  0  0  0
    2.9892    0.7919   -0.5450 C   0  0  2  0  0  0  0  0  0  0  0  0
    2.5388    1.6076    0.4674 O   0  0  0  0  0  0  0  0  0  0  0  0
    2.0445   -0.3795   -0.7758 C   0  0  1  0  0  0  0  0  0  0  0  0
    1.9376   -1.1728    0.4356 N   0  0  0  0  0  0  0  0  0  0  0  0
    0.7252    0.1534   -1.1921 C   0  0  0  0  0  0  0  0  0  0  0  0
    0.7053    0.8608   -2.2404 O   0  0  0  0  0  0  0  0  0  0  0  0
   -0.4803   -0.0941   -0.4782 N   0  0  0  0  0  0  0  0  0  0  0  0
   -1.6916    0.4938   -1.0072 C   0  0  0  0  0  0  0  0  0  0  0  0
   -2.9009    0.1748   -0.1857 C   0  0  0  0  0  0  0  0  0  0  0  0
   -2.7092    0.6316    1.2316 C   0  0  0  0  0  0  0  0  0  0  0  0
   -3.1823   -1.3259   -0.2412 C   0  0  0  0  0  0  0  0  0  0  0  0
   -3.9976    0.7922   -0.7916 O   0  0  0  0  0  0  0  0  0  0  0  0
    4.3284   -0.2475    0.8259 H   0  0  0  0  0  0  0  0  0  0  0  0
    5.1027    1.0671   -0.1588 H   0  0  0  0  0  0  0  0  0  0  0  0
    4.6375   -0.4628   -0.9785 H   0  0  0  0  0  0  0  0  0  0  0  0
    3.1104    1.3800   -1.4571 H   0  0  0  0  0  0  0  0  0  0  0  0
    2.3970    1.1511    1.3187 H   0  0  0  0  0  0  0  0  0  0  0  0
    2.4720   -1.0239   -1.5720 H   0  0  0  0  0  0  0  0  0  0  0  0
    1.2026   -1.8854    0.3410 H   0  0  0  0  0  0  0  0  0  0  0  0
    2.8410   -1.6305    0.6340 H   0  0  0  0  0  0  0  0  0  0  0  0
   -0.4372   -0.6731    0.3722 H   0  0  0  0  0  0  0  0  0  0  0  0
   -1.8433    0.0751   -2.0238 H   0  0  0  0  0  0  0  0  0  0  0  0
   -1.5704    1.5883   -1.0552 H   0  0  0  0  0  0  0  0  0  0  0  0
   -3.2872    1.5819    1.3764 H   0  0  0  0  0  0  0  0  0  0  0  0
   -3.0977   -0.0932    1.9685 H   0  0  0  0  0  0  0  0  0  0  0  0
   -1.6313    0.8441    1.4507 H   0  0  0  0  0  0  0  0  0  0  0  0
   -4.0748   -1.5739    0.3389 H   0  0  0  0  0  0  0  0  0  0  0  0
   -2.2968   -1.8976    0.0986 H   0  0  0  0  0  0  0  0  0  0  0  0
   -3.3457   -1.5577   -1.3290 H   0  0  0  0  0  0  0  0  0  0  0  0
   -4.8503    0.5633   -0.3811 H   0  0  0  0  0  0  0  0  0  0  0  0
  1  2  1  0
  2  3  1  0
  2  4  1  0
  4  5  1  0
  4  6  1  0
  6  7  2  0
  6  8  1  0
  8  9  1  0
  9 10  1  0
 10 11  1  0
 10 12  1  0
 10 13  1  0
  1 14  1  0
  1 15  1  0
  1 16  1  0
  2 17  1  6
  3 18  1  0
  4 19  1  6
  5 20  1  0
  5 21  1  0
  8 22  1  0
  9 23  1  0
  9 24  1  0
 11 25  1  0
 11 26  1  0
 11 27  1  0
 12 28  1  0
 12 29  1  0
 12 30  1  0
 13 31  1  0
M  END
$$$$

     RDKit          3D

 31 30  0  0  0  0  0  0  0  0999 V2000
    3.6456    1.0244   -0.3047 C   0  0  0  0  0  0  0  0  0  0  0  0
    3.2074   -0.1213    0.5442 C   0  0  2  0  0  0  0  0  0  0  0  0
    4.2919   -0.9686    0.7278 O   0  0  0  0  0  0  0  0  0  0  0  0
    2.0198   -0.8623   -0.0221 C   0  0  1  0  0  0  0  0  0  0  0  0
    1.6100   -1.9100    0.8552 N   0  0  0  0  0  0  0  0  0  0  0  0
    0.9293    0.0461   -0.4260 C   0  0  0  0  0  0  0  0  0  0  0  0
    1.2029    0.9934   -1.1952 O   0  0  0  0  0  0  0  0  0  0  0  0
   -0.4157   -0.1139    0.0243 N   0  0  0  0  0  0  0  0  0  0  0  0
   -1.4863    0.7711   -0.3671 C   0  0  0  0  0  0  0  0  0  0  0  0
   -2.7590    0.2917    0.3020 C   0  0  0  0  0  0  0  0  0  0  0  0
   -3.1424   -1.0849   -0.1769 C   0  0  0  0  0  0  0  0  0  0  0  0
   -3.8800    1.2329   -0.1273 C   0  0  0  0  0  0  0  0  0  0  0  0
   -2.6453    0.2994    1.6750 O   0  0  0  0  0  0  0  0  0  0  0  0
    3.0556    1.9509   -0.1395 H   0  0  0  0  0  0  0  0  0  0  0  0
    4.7001    1.2740   -0.0033 H   0  0  0  0  0  0  0  0  0  0  0  0
    3.7055    0.7457   -1.3854 H   0  0  0  0  0  0  0  0  0  0  0  0
    2.9253    0.2615    1.5427 H   0  0  0  0  0  0  0  0  0  0  0  0
    4.8487   -0.9147   -0.0798 H   0  0  0  0  0  0  0  0  0  0  0  0
    2.3854   -1.3521   -0.9704 H   0  0  0  0  0  0  0  0  0  0  0  0
    2.4638   -2.4365    1.1442 H   0  0  0  0  0  0  0  0  0  0  0  0
    1.1571   -1.5793    1.7262 H   0  0  0  0  0  0  0  0  0  0  0  0
   -0.5744   -0.9331    0.6704 H   0  0  0  0  0  0  0  0  0  0  0  0
   -1.2808    1.8219   -0.1749 H   0  0  0  0  0  0  0  0  0  0  0  0
   -1.6731    0.6796   -1.4765 H   0  0  0  0  0  0  0  0  0  0  0  0
   -4.0899   -1.3512    0.3598 H   0  0  0  0  0  0  0  0  0  0  0  0
   -2.3684   -1.8483    0.0698 H   0  0  0  0  0  0  0  0  0  0  0  0
   -3.3492   -1.1249   -1.2473 H   0  0  0  0  0  0  0  0  0  0  0  0
   -4.0989    1.0457   -1.1932 H   0  0  0  0  0  0  0  0  0  0  0  0
   -3.6138    2.2754    0.0651 H   0  0  0  0  0  0  0  0  0  0  0  0
   -4.7952    0.9029    0.4364 H   0  0  0  0  0  0  0  0  0  0  0  0
   -1.9761    0.9846    1.9700 H   0  0  0  0  0  0  0  0  0  0  0  0
  1  2  1  0
  2  3  1  0
  2  4  1  0
  4  5  1  0
  4  6  1  0
  6  7  2  0
  6  8  1  0
  8  9  1  0
  9 10  1  0
 10 11  1  0
 10 12  1  0
 10 13  1  0
  1 14  1  0
  1 15  1  0
  1 16  1  0
  2 17  1  1
  3 18  1  0
  4 19  1  6
  5 20  1  0
  5 21  1  0
  8 22  1  0
  9 23  1  0
  9 24  1  0
 11 25  1  0
 11 26  1  0
 11 27  1  0
 12 28  1  0
 12 29  1  0
 12 30  1  0
 13 31  1  0
M  END
$$$$

     RDKit          3D

 31 30  0  0  0  0  0  0  0  0999 V2000
   -2.9326    1.1029    0.3352 C   0  0  0  0  0  0  0  0  0  0  0  0
   -3.0266   -0.2891   -0.2422 C   0  0  2  0  0  0  0  0  0  0  0  0
   -4.2389   -0.8815    0.1389 O   0  0  0  0  0  0  0  0  0  0  0  0
   -1.8591   -1.1635    0.2230 C   0  0  1  0  0  0  0  0  0  0  0  0
   -2.0801   -2.4466   -0.4342 N   0  0  0  0  0  0  0  0  0  0  0  0
   -0.5935   -0.6009   -0.3246 C   0  0  0  0  0  0  0  0  0  0  0  0
   -0.0827   -1.1628   -1.3350 O   0  0  0  0  0  0  0  0  0  0  0  0
    0.0620    0.5185    0.2231 N   0  0  0  0  0  0  0  0  0  0  0  0
    1.2641    1.0932   -0.2520 C   0  0  0  0  0  0  0  0  0  0  0  0
    2.4932    0.2494   -0.2409 C   0  0  0  0  0  0  0  0  0  0  0  0
    3.5942    1.1135   -0.8839 C   0  0  0  0  0  0  0  0  0  0  0  0
    3.0022   -0.0268    1.1616 C   0  0  0  0  0  0  0  0  0  0  0  0
    2.4278   -0.8908   -0.9981 O   0  0  0  0  0  0  0  0  0  0  0  0
   -2.2187    1.7510   -0.2002 H   0  0  0  0  0  0  0  0  0  0  0  0
   -2.7204    1.0628    1.4236 H   0  0  0  0  0  0  0  0  0  0  0  0
   -3.9237    1.6293    0.2423 H   0  0  0  0  0  0  0  0  0  0  0  0
   -3.0176   -0.2378   -1.3451 H   0  0  0  0  0  0  0  0  0  0  0  0
   -4.9664   -0.3149   -0.1882 H   0  0  0  0  0  0  0  0  0  0  0  0
   -1.8264   -1.3065    1.2937 H   0  0  0  0  0  0  0  0  0  0  0  0
   -2.4221   -3.1449    0.2674 H   0  0  0  0  0  0  0  0  0  0  0  0
   -2.6989   -2.3801   -1.2567 H   0  0  0  0  0  0  0  0  0  0  0  0
   -0.3836    0.9643    1.0748 H   0  0  0  0  0  0  0  0  0  0  0  0
    1.1695    1.4572   -1.3253 H   0  0  0  0  0  0  0  0  0  0  0  0
    1.5277    2.0484    0.2942 H   0  0  0  0  0  0  0  0  0  0  0  0
    4.5081    0.5127   -0.8923 H   0  0  0  0  0  0  0  0  0  0  0  0
    3.6621    2.0142   -0.2201 H   0  0  0  0  0  0  0  0  0  0  0  0
    3.2508    1.4443   -1.8784 H   0  0  0  0  0  0  0  0  0  0  0  0
    3.5411    0.8393    1.5939 H   0  0  0  0  0  0  0  0  0  0  0  0
    3.7341   -0.8558    1.0690 H   0  0  0  0  0  0  0  0  0  0  0  0
    2.1954   -0.3716    1.8361 H   0  0  0  0  0  0  0  0  0  0  0  0
    2.5592   -1.7275   -0.5176 H   0  0  0  0  0  0  0  0  0  0  0  0
  1  2  1  0
  2  3  1  0
  2  4  1  0
  4  5  1  0
  4  6  1  0
  6  7  2  0
  6  8  1  0
  8  9  1  0
  9 10  1  0
 10 11  1  0
 10 12  1  0
 10 13  1  0
  1 14  1  0
  1 15  1  0
  1 16  1  0
  2 17  1  6
  3 18  1  0
  4 19  1  1
  5 20  1  0
  5 21  1  0
  8 22  1  0
  9 23  1  0
  9 24  1  0
 11 25  1  0
 11 26  1  0
 11 27  1  0
 12 28  1  0
 12 29  1  0
 12 30  1  0
 13 31  1  0
M  END
$$$$
