
     RDKit          3D

 27 28  0  0  0  0  0  0  0  0999 V2000
   -3.6461   -1.4010    1.0888 N   0  0  0  0  0  0  0  0  0  0  0  0
   -2.7498   -0.7102    0.4659 C   0  0  0  0  0  0  0  0  0  0  0  0
   -1.5025   -1.1828    0.3308 N   0  0  0  0  0  0  0  0  0  0  0  0
   -0.5192   -0.5098   -0.3092 C   0  0  0  0  0  0  0  0  0  0  0  0
    0.6224   -1.0564   -0.3746 N   0  0  0  0  0  0  0  0  0  0  0  0
    1.7939   -0.5200   -1.0018 C   0  0  0  0  0  0  0  0  0  0  0  0
    2.4899    0.3553    0.0393 C   0  0  0  0  0  0  0  0  0  0  0  0
    2.8832   -0.4421    1.2638 C   0  0  0  0  0  0  0  0  0  0  0  0
    4.2081   -0.1331    1.0159 O   0  0  0  0  0  0  0  0  0  0  0  0
    3.9498    0.5682   -0.1820 C   0  0  0  0  0  0  0  0  0  0  0  0
   -0.8337    0.6854   -0.8244 N   0  0  0  0  0  0  0  0  0  0  0  0
   -2.0818    1.2090   -0.7151 C   0  0  0  0  0  0  0  0  0  0  0  0
   -3.0742    0.5207   -0.0645 C   0  0  0  0  0  0  0  0  0  0  0  0
   -4.3962    1.0543    0.0620 N   0  0  0  0  0  0  0  0  0  0  0  0
   -3.3943   -2.3322    1.4881 H   0  0  0  0  0  0  0  0  0  0  0  0
   -1.2884   -2.1280    0.7486 H   0  0  0  0  0  0  0  0  0  0  0  0
    2.4625   -1.3988   -1.2344 H   0  0  0  0  0  0  0  0  0  0  0  0
    1.6159    0.0670   -1.9003 H   0  0  0  0  0  0  0  0  0  0  0  0
    1.8669    1.2396    0.2284 H   0  0  0  0  0  0  0  0  0  0  0  0
    2.4281   -0.0003    2.1624 H   0  0  0  0  0  0  0  0  0  0  0  0
    2.6994   -1.5394    1.1744 H   0  0  0  0  0  0  0  0  0  0  0  0
    4.3804    0.1064   -1.0772 H   0  0  0  0  0  0  0  0  0  0  0  0
    4.2313    1.6432   -0.1281 H   0  0  0  0  0  0  0  0  0  0  0  0
   -0.0674    1.2079   -1.3221 H   0  0  0  0  0  0  0  0  0  0  0  0
   -2.3006    2.1870   -1.1483 H   0  0  0  0  0  0  0  0  0  0  0  0
   -4.7264    1.7823   -0.5841 H   0  0  0  0  0  0  0  0  0  0  0  0
   -5.0512    0.7279    0.7979 H   0  0  0  0  0  0  0  0  0  0  0  0
  1  2  2  3
  2  3  1  0
  3  4  1  0
  4  5  2  3
  5  6  1  0
  6  7  1  0
  7  8  1  0
  8  9  1  0
  9 10  1  0
  4 11  1  0
 11 12  1  0
 12 13  2  0
 13 14  1  0
 13  2  1  0
 10  7  1  0
  1 15  1  0
  3 16  1  0
  6 17  1  0
  6 18  1  0
  7 19  1  0
  8 20  1  0
  8 21  1  0
 10 22  1  0
 10 23  1  0
 11 24  1  0
 12 25  1  0
 14 26  1  0
 14 27  1  0
M  END
$$$$

     RDKit          3D

 27 28  0  0  0  0  0  0  0  0999 V2000
   -3.5484    1.4805    1.4508 N   0  0  0  0  0  0  0  0  0  0  0  0
   -2.7234    0.8137    0.6896 C   0  0  0  0  0  0  0  0  0  0  0  0
   -1.4302    1.1618    0.6046 N   0  0  0  0  0  0  0  0  0  0  0  0
   -0.5608    0.4698   -0.1891 C   0  0  0  0  0  0  0  0  0  0  0  0
    0.6428    0.8768   -0.2021 N   0  0  0  0  0  0  0  0  0  0  0  0
    1.7295    0.3293   -0.9417 C   0  0  0  0  0  0  0  0  0  0  0  0
    2.5339   -0.6110   -0.0755 C   0  0  0  0  0  0  0  0  0  0  0  0
    3.0975    0.1270    1.1382 C   0  0  0  0  0  0  0  0  0  0  0  0
    4.2333   -0.6826    1.0075 O   0  0  0  0  0  0  0  0  0  0  0  0
    4.0170   -0.6304   -0.3760 C   0  0  0  0  0  0  0  0  0  0  0  0
   -1.0108   -0.5865   -0.9034 N   0  0  0  0  0  0  0  0  0  0  0  0
   -2.2962   -0.9462   -0.8299 C   0  0  0  0  0  0  0  0  0  0  0  0
   -3.1921   -0.2620   -0.0350 C   0  0  0  0  0  0  0  0  0  0  0  0
   -4.5680   -0.6784    0.0188 N   0  0  0  0  0  0  0  0  0  0  0  0
   -3.1818    2.2946    1.9958 H   0  0  0  0  0  0  0  0  0  0  0  0
   -1.1066    1.9831    1.1674 H   0  0  0  0  0  0  0  0  0  0  0  0
    1.4502   -0.1528   -1.8947 H   0  0  0  0  0  0  0  0  0  0  0  0
    2.4291    1.1664   -1.2308 H   0  0  0  0  0  0  0  0  0  0  0  0
    2.0745   -1.5692    0.1691 H   0  0  0  0  0  0  0  0  0  0  0  0
    3.3008    1.1706    0.8794 H   0  0  0  0  0  0  0  0  0  0  0  0
    2.5012   -0.0559    2.0504 H   0  0  0  0  0  0  0  0  0  0  0  0
    4.3592   -1.5130   -0.9305 H   0  0  0  0  0  0  0  0  0  0  0  0
    4.3298    0.3573   -0.7950 H   0  0  0  0  0  0  0  0  0  0  0  0
   -0.3193   -1.0855   -1.4938 H   0  0  0  0  0  0  0  0  0  0  0  0
   -2.6352   -1.7921   -1.4079 H   0  0  0  0  0  0  0  0  0  0  0  0
   -5.1782   -0.7291   -0.8131 H   0  0  0  0  0  0  0  0  0  0  0  0
   -4.9478   -0.9363    0.9469 H   0  0  0  0  0  0  0  0  0  0  0  0
  1  2  2  3
  2  3  1  0
  3  4  1  0
  4  5  2  3
  5  6  1  0
  6  7  1  0
  7  8  1  0
  8  9  1  0
  9 10  1  0
  4 11  1  0
 11 12  1  0
 12 13  2  0
 13 14  1  0
 13  2  1  0
 10  7  1  0
  1 15  1  0
  3 16  1  0
  6 17  1  0
  6 18  1  0
  7 19  1  0
  8 20  1  0
  8 21  1  0
 10 22  1  0
 10 23  1  0
 11 24  1  0
 12 25  1  0
 14 26  1  0
 14 27  1  0
M  END
$$$$

     RDKit          3D

 27 28  0  0  0  0  0  0  0  0999 V2000
    3.7613   -1.8298    0.0358 N   0  0  0  0  0  0  0  0  0  0  0  0
    2.8150   -0.9743    0.2486 C   0  0  0  0  0  0  0  0  0  0  0  0
    1.5515   -1.3872    0.5425 N   0  0  0  0  0  0  0  0  0  0  0  0
    0.5771   -0.4803    0.7615 C   0  0  0  0  0  0  0  0  0  0  0  0
   -0.5967   -0.9314    1.0349 N   0  0  0  0  0  0  0  0  0  0  0  0
   -1.7360   -0.0817    1.2922 C   0  0  0  0  0  0  0  0  0  0  0  0
   -2.3892    0.2132   -0.0343 C   0  0  0  0  0  0  0  0  0  0  0  0
   -3.6204    1.1069    0.0550 C   0  0  0  0  0  0  0  0  0  0  0  0
   -4.1549    0.3418   -1.0027 O   0  0  0  0  0  0  0  0  0  0  0  0
   -3.4942   -0.7626   -0.4145 C   0  0  0  0  0  0  0  0  0  0  0  0
    0.8726    0.8191    0.6852 N   0  0  0  0  0  0  0  0  0  0  0  0
    2.1072    1.2689    0.3977 C   0  0  0  0  0  0  0  0  0  0  0  0
    3.1416    0.3665    0.1649 C   0  0  0  0  0  0  0  0  0  0  0  0
    4.4530    0.8076   -0.1402 N   0  0  0  0  0  0  0  0  0  0  0  0
    3.6362   -2.8549    0.0711 H   0  0  0  0  0  0  0  0  0  0  0  0
    1.3446   -2.4178    0.5967 H   0  0  0  0  0  0  0  0  0  0  0  0
   -1.4983    0.8103    1.8811 H   0  0  0  0  0  0  0  0  0  0  0  0
   -2.4719   -0.6750    1.8859 H   0  0  0  0  0  0  0  0  0  0  0  0
   -1.7288    0.4328   -0.8708 H   0  0  0  0  0  0  0  0  0  0  0  0
   -3.4190    2.1599   -0.2056 H   0  0  0  0  0  0  0  0  0  0  0  0
   -4.1874    0.9090    0.9666 H   0  0  0  0  0  0  0  0  0  0  0  0
   -4.1054   -1.0899    0.4578 H   0  0  0  0  0  0  0  0  0  0  0  0
   -3.2125   -1.5558   -1.1058 H   0  0  0  0  0  0  0  0  0  0  0  0
    0.1193    1.5231    0.8545 H   0  0  0  0  0  0  0  0  0  0  0  0
    2.3500    2.3079    0.3353 H   0  0  0  0  0  0  0  0  0  0  0  0
    4.8428    1.6259    0.3726 H   0  0  0  0  0  0  0  0  0  0  0  0
    5.0423    0.3479   -0.8550 H   0  0  0  0  0  0  0  0  0  0  0  0
  1  2  2  3
  2  3  1  0
  3  4  1  0
  4  5  2  3
  5  6  1  0
  6  7  1  0
  7  8  1  0
  8  9  1  0
  9 10  1  0
  4 11  1  0
 11 12  1  0
 12 13  2  0
 13 14  1  0
 13  2  1  0
 10  7  1  0
  1 15  1  0
  3 16  1  0
  6 17  1  0
  6 18  1  0
  7 19  1  0
  8 20  1  0
  8 21  1  0
 10 22  1  0
 10 23  1  0
 11 24  1  0
 12 25  1  0
 14 26  1  0
 14 27  1  0
M  END
$$$$

     RDKit          3D

 27 28  0  0  0  0  0  0  0  0999 V2000
   -2.9557   -1.4088    1.5286 N   0  0  0  0  0  0  0  0  0  0  0  0
   -2.4517   -0.6721    0.6165 C   0  0  0  0  0  0  0  0  0  0  0  0
   -1.1223   -0.6097    0.4013 N   0  0  0  0  0  0  0  0  0  0  0  0
   -0.6027    0.1700   -0.5626 C   0  0  0  0  0  0  0  0  0  0  0  0
    0.6777    0.2278   -0.7672 N   0  0  0  0  0  0  0  0  0  0  0  0
    1.5889   -0.5473    0.0378 C   0  0  0  0  0  0  0  0  0  0  0  0
    2.9945   -0.1531   -0.3718 C   0  0  0  0  0  0  0  0  0  0  0  0
    3.2695    1.3117   -0.1570 C   0  0  0  0  0  0  0  0  0  0  0  0
    4.2779    0.9594    0.7303 O   0  0  0  0  0  0  0  0  0  0  0  0
    3.9906   -0.4184    0.7081 C   0  0  0  0  0  0  0  0  0  0  0  0
   -1.4574    0.8897   -1.3093 N   0  0  0  0  0  0  0  0  0  0  0  0
   -2.7881    0.8645   -1.1373 C   0  0  0  0  0  0  0  0  0  0  0  0
   -3.3446    0.0726   -0.1552 C   0  0  0  0  0  0  0  0  0  0  0  0
   -4.7435    0.0271    0.0478 N   0  0  0  0  0  0  0  0  0  0  0  0
   -2.3082   -1.9744    2.1180 H   0  0  0  0  0  0  0  0  0  0  0  0
   -0.4461   -1.1624    0.9725 H   0  0  0  0  0  0  0  0  0  0  0  0
    1.4182   -0.3379    1.1126 H   0  0  0  0  0  0  0  0  0  0  0  0
    1.3948   -1.6030   -0.1394 H   0  0  0  0  0  0  0  0  0  0  0  0
    3.2291   -0.5519   -1.3666 H   0  0  0  0  0  0  0  0  0  0  0  0
    3.6470    1.8658   -1.0385 H   0  0  0  0  0  0  0  0  0  0  0  0
    2.4135    1.8556    0.2792 H   0  0  0  0  0  0  0  0  0  0  0  0
    3.5333   -0.6991    1.6802 H   0  0  0  0  0  0  0  0  0  0  0  0
    4.8099   -1.0537    0.3607 H   0  0  0  0  0  0  0  0  0  0  0  0
   -1.0298    1.4970   -2.0625 H   0  0  0  0  0  0  0  0  0  0  0  0
   -3.4719    1.4512   -1.7474 H   0  0  0  0  0  0  0  0  0  0  0  0
   -5.3132   -0.5852   -0.5634 H   0  0  0  0  0  0  0  0  0  0  0  0
   -5.2096    0.5846    0.7848 H   0  0  0  0  0  0  0  0  0  0  0  0
  1  2  2  3
  2  3  1  0
  3  4  1  0
  4  5  2  3
  5  6  1  0
  6  7  1  0
  7  8  1  0
  8  9  1  0
  9 10  1  0
  4 11  1  0
 11 12  1  0
 12 13  2  0
 13 14  1  0
 13  2  1  0
 10  7  1  0
  1 15  1  0
  3 16  1  0
  6 17  1  0
  6 18  1  0
  7 19  1  0
  8 20  1  0
  8 21  1  0
 10 22  1  0
 10 23  1  0
 11 24  1  0
 12 25  1  0
 14 26  1  0
 14 27  1  0
M  END
$$$$

     RDKit          3D

 27 28  0  0  0  0  0  0  0  0999 V2000
    2.9283    0.9143    1.9017 N   0  0  0  0  0  0  0  0  0  0  0  0
    2.4643    0.2938    0.8617 C   0  0  0  0  0  0  0  0  0  0  0  0
    1.1373    0.0889    0.6772 N   0  0  0  0  0  0  0  0  0  0  0  0
    0.6725   -0.5602   -0.4135 C   0  0  0  0  0  0  0  0  0  0  0  0
   -0.5838   -0.7615   -0.6013 N   0  0  0  0  0  0  0  0  0  0  0  0
   -1.5571   -0.2952    0.3587 C   0  0  0  0  0  0  0  0  0  0  0  0
   -2.9651   -0.3542   -0.1883 C   0  0  0  0  0  0  0  0  0  0  0  0
   -3.9729    0.1366    0.8270 C   0  0  0  0  0  0  0  0  0  0  0  0
   -3.5726    1.4493    0.4850 O   0  0  0  0  0  0  0  0  0  0  0  0
   -3.4294    0.9585   -0.8305 C   0  0  0  0  0  0  0  0  0  0  0  0
    1.5825   -0.9892   -1.2989 N   0  0  0  0  0  0  0  0  0  0  0  0
    2.9054   -0.8167   -1.1713 C   0  0  0  0  0  0  0  0  0  0  0  0
    3.3670   -0.1547   -0.0574 C   0  0  0  0  0  0  0  0  0  0  0  0
    4.7649    0.0277    0.0775 N   0  0  0  0  0  0  0  0  0  0  0  0
    2.3168    1.2940    2.6593 H   0  0  0  0  0  0  0  0  0  0  0  0
    0.5002    0.4497    1.4047 H   0  0  0  0  0  0  0  0  0  0  0  0
   -1.3470    0.7794    0.6071 H   0  0  0  0  0  0  0  0  0  0  0  0
   -1.4767   -0.9526    1.2476 H   0  0  0  0  0  0  0  0  0  0  0  0
   -3.2338   -1.2504   -0.7497 H   0  0  0  0  0  0  0  0  0  0  0  0
   -3.7819   -0.1465    1.8670 H   0  0  0  0  0  0  0  0  0  0  0  0
   -5.0249   -0.0034    0.4690 H   0  0  0  0  0  0  0  0  0  0  0  0
   -2.6649    1.4698   -1.4235 H   0  0  0  0  0  0  0  0  0  0  0  0
   -4.4193    0.8374   -1.2732 H   0  0  0  0  0  0  0  0  0  0  0  0
    1.2117   -1.4925   -2.1433 H   0  0  0  0  0  0  0  0  0  0  0  0
    3.6159   -1.1823   -1.9173 H   0  0  0  0  0  0  0  0  0  0  0  0
    5.3937   -0.6649    0.5161 H   0  0  0  0  0  0  0  0  0  0  0  0
    5.1689    0.9249   -0.2957 H   0  0  0  0  0  0  0  0  0  0  0  0
  1  2  2  3
  2  3  1  0
  3  4  1  0
  4  5  2  3
  5  6  1  0
  6  7  1  0
  7  8  1  0
  8  9  1  0
  9 10  1  0
  4 11  1  0
 11 12  1  0
 12 13  2  0
 13 14  1  0
 13  2  1  0
 10  7  1  0
  1 15  1  0
  3 16  1  0
  6 17  1  0
  6 18  1  0
  7 19  1  0
  8 20  1  0
  8 21  1  0
 10 22  1  0
 10 23  1  0
 11 24  1  0
 12 25  1  0
 14 26  1  0
 14 27  1  0
M  END
$$$$

     RDKit          3D

 27 28  0  0  0  0  0  0  0  0999 V2000
   -3.0296    1.5625    1.1573 N   0  0  0  0  0  0  0  0  0  0  0  0
   -2.4932    0.5282    0.6158 C   0  0  0  0  0  0  0  0  0  0  0  0
   -1.1895    0.5257    0.2884 N   0  0  0  0  0  0  0  0  0  0  0  0
   -0.6057   -0.5604   -0.2852 C   0  0  0  0  0  0  0  0  0  0  0  0
    0.6435   -0.5873   -0.6087 N   0  0  0  0  0  0  0  0  0  0  0  0
    1.4562    0.5963   -0.3463 C   0  0  0  0  0  0  0  0  0  0  0  0
    2.8403    0.4677   -0.8885 C   0  0  0  0  0  0  0  0  0  0  0  0
    3.5514   -0.7104   -0.2683 C   0  0  0  0  0  0  0  0  0  0  0  0
    3.8181    0.0953    0.8367 O   0  0  0  0  0  0  0  0  0  0  0  0
    3.8405    1.1907   -0.0266 C   0  0  0  0  0  0  0  0  0  0  0  0
   -1.3977   -1.6232   -0.5053 N   0  0  0  0  0  0  0  0  0  0  0  0
   -2.7050   -1.6643   -0.1941 C   0  0  0  0  0  0  0  0  0  0  0  0
   -3.3051   -0.5597    0.3909 C   0  0  0  0  0  0  0  0  0  0  0  0
   -4.6867   -0.5850    0.7269 N   0  0  0  0  0  0  0  0  0  0  0  0
   -2.4736    2.4148    1.3536 H   0  0  0  0  0  0  0  0  0  0  0  0
   -0.5603    1.3462    0.4538 H   0  0  0  0  0  0  0  0  0  0  0  0
    1.4546    0.8618    0.7171 H   0  0  0  0  0  0  0  0  0  0  0  0
    0.9800    1.4727   -0.8774 H   0  0  0  0  0  0  0  0  0  0  0  0
    2.9587    0.5825   -1.9760 H   0  0  0  0  0  0  0  0  0  0  0  0
    2.8562   -1.5621   -0.0512 H   0  0  0  0  0  0  0  0  0  0  0  0
    4.4754   -0.9735   -0.7883 H   0  0  0  0  0  0  0  0  0  0  0  0
    3.4040    2.1205    0.3928 H   0  0  0  0  0  0  0  0  0  0  0  0
    4.8246    1.3077   -0.5050 H   0  0  0  0  0  0  0  0  0  0  0  0
   -0.9377   -2.4689   -0.9533 H   0  0  0  0  0  0  0  0  0  0  0  0
   -3.3248   -2.5356   -0.3819 H   0  0  0  0  0  0  0  0  0  0  0  0
   -5.3387    0.2145    0.5728 H   0  0  0  0  0  0  0  0  0  0  0  0
   -5.0560   -1.4568    1.1499 H   0  0  0  0  0  0  0  0  0  0  0  0
  1  2  2  3
  2  3  1  0
  3  4  1  0
  4  5  2  3
  5  6  1  0
  6  7  1  0
  7  8  1  0
  8  9  1  0
  9 10  1  0
  4 11  1  0
 11 12  1  0
 12 13  2  0
 13 14  1  0
 13  2  1  0
 10  7  1  0
  1 15  1  0
  3 16  1  0
  6 17  1  0
  6 18  1  0
  7 19  1  0
  8 20  1  0
  8 21  1  0
 10 22  1  0
 10 23  1  0
 11 24  1  0
 12 25  1  0
 14 26  1  0
 14 27  1  0
M  END
$$$$

     RDKit          3D

 27 28  0  0  0  0  0  0  0  0999 V2000
    3.4796   -0.8368   -1.5373 N   0  0  0  0  0  0  0  0  0  0  0  0
    2.6377   -0.3625   -0.6800 C   0  0  0  0  0  0  0  0  0  0  0  0
    1.3062   -0.5158   -0.8073 N   0  0  0  0  0  0  0  0  0  0  0  0
    0.4636   -0.0071    0.1066 C   0  0  0  0  0  0  0  0  0  0  0  0
   -0.8355   -0.1543   -0.0137 N   0  0  0  0  0  0  0  0  0  0  0  0
   -1.7508    0.3836    0.9549 C   0  0  0  0  0  0  0  0  0  0  0  0
   -3.1437   -0.0201    0.5839 C   0  0  0  0  0  0  0  0  0  0  0  0
   -3.4863    0.5226   -0.8007 C   0  0  0  0  0  0  0  0  0  0  0  0
   -3.8570   -0.8008   -1.1353 O   0  0  0  0  0  0  0  0  0  0  0  0
   -3.1905   -1.3977   -0.0598 C   0  0  0  0  0  0  0  0  0  0  0  0
    0.9910    0.6574    1.1483 N   0  0  0  0  0  0  0  0  0  0  0  0
    2.3070    0.8436    1.3310 C   0  0  0  0  0  0  0  0  0  0  0  0
    3.1878    0.3247    0.3969 C   0  0  0  0  0  0  0  0  0  0  0  0
    4.5912    0.4709    0.5059 N   0  0  0  0  0  0  0  0  0  0  0  0
    3.0730   -1.3532   -2.3471 H   0  0  0  0  0  0  0  0  0  0  0  0
    0.9520   -1.0430   -1.6397 H   0  0  0  0  0  0  0  0  0  0  0  0
   -1.5166   -0.0823    1.9407 H   0  0  0  0  0  0  0  0  0  0  0  0
   -1.6407    1.4824    1.0866 H   0  0  0  0  0  0  0  0  0  0  0  0
   -3.9388    0.1855    1.3142 H   0  0  0  0  0  0  0  0  0  0  0  0
   -4.3109    1.2373   -0.7867 H   0  0  0  0  0  0  0  0  0  0  0  0
   -2.6163    0.8922   -1.3695 H   0  0  0  0  0  0  0  0  0  0  0  0
   -3.7564   -2.1453    0.5024 H   0  0  0  0  0  0  0  0  0  0  0  0
   -2.1649   -1.7321   -0.3776 H   0  0  0  0  0  0  0  0  0  0  0  0
    0.2870    1.0404    1.8428 H   0  0  0  0  0  0  0  0  0  0  0  0
    2.6976    1.3870    2.1867 H   0  0  0  0  0  0  0  0  0  0  0  0
    5.1409    1.1137   -0.0911 H   0  0  0  0  0  0  0  0  0  0  0  0
    5.0936   -0.0903    1.2153 H   0  0  0  0  0  0  0  0  0  0  0  0
  1  2  2  3
  2  3  1  0
  3  4  1  0
  4  5  2  3
  5  6  1  0
  6  7  1  0
  7  8  1  0
  8  9  1  0
  9 10  1  0
  4 11  1  0
 11 12  1  0
 12 13  2  0
 13 14  1  0
 13  2  1  0
 10  7  1  0
  1 15  1  0
  3 16  1  0
  6 17  1  0
  6 18  1  0
  7 19  1  0
  8 20  1  0
  8 21  1  0
 10 22  1  0
 10 23  1  0
 11 24  1  0
 12 25  1  0
 14 26  1  0
 14 27  1  0
M  END
$$$$

     RDKit          3D

 27 28  0  0  0  0  0  0  0  0999 V2000
    3.2217   -1.7995    0.4874 N   0  0  0  0  0  0  0  0  0  0  0  0
    2.5485   -0.7714    0.1313 C   0  0  0  0  0  0  0  0  0  0  0  0
    1.2251   -0.8191   -0.0992 N   0  0  0  0  0  0  0  0  0  0  0  0
    0.5022    0.2666   -0.4774 C   0  0  0  0  0  0  0  0  0  0  0  0
   -0.7589    0.2237   -0.6974 N   0  0  0  0  0  0  0  0  0  0  0  0
   -1.5720   -0.9462   -0.5799 C   0  0  0  0  0  0  0  0  0  0  0  0
   -3.0325   -0.6319   -0.3635 C   0  0  0  0  0  0  0  0  0  0  0  0
   -3.3520    0.1579    0.8616 C   0  0  0  0  0  0  0  0  0  0  0  0
   -3.1155    1.3245    0.1337 O   0  0  0  0  0  0  0  0  0  0  0  0
   -3.5311    0.6267   -1.0092 C   0  0  0  0  0  0  0  0  0  0  0  0
    1.1842    1.4129   -0.6133 N   0  0  0  0  0  0  0  0  0  0  0  0
    2.5062    1.5329   -0.3995 C   0  0  0  0  0  0  0  0  0  0  0  0
    3.2243    0.4211   -0.0162 C   0  0  0  0  0  0  0  0  0  0  0  0
    4.6073    0.5657    0.2031 N   0  0  0  0  0  0  0  0  0  0  0  0
    2.7996   -2.7400    0.6239 H   0  0  0  0  0  0  0  0  0  0  0  0
    0.7500   -1.7435    0.0240 H   0  0  0  0  0  0  0  0  0  0  0  0
   -1.4705   -1.5966   -1.4639 H   0  0  0  0  0  0  0  0  0  0  0  0
   -1.2580   -1.5539    0.3173 H   0  0  0  0  0  0  0  0  0  0  0  0
   -3.6643   -1.4824   -0.6095 H   0  0  0  0  0  0  0  0  0  0  0  0
   -4.4215    0.0544    1.1305 H   0  0  0  0  0  0  0  0  0  0  0  0
   -2.7114    0.0029    1.7432 H   0  0  0  0  0  0  0  0  0  0  0  0
   -4.6092    0.6289   -1.1979 H   0  0  0  0  0  0  0  0  0  0  0  0
   -2.9763    0.8832   -1.9340 H   0  0  0  0  0  0  0  0  0  0  0  0
    0.6672    2.2672   -0.9015 H   0  0  0  0  0  0  0  0  0  0  0  0
    3.0186    2.4799   -0.5211 H   0  0  0  0  0  0  0  0  0  0  0  0
    5.2030    0.9678   -0.5317 H   0  0  0  0  0  0  0  0  0  0  0  0
    5.0152    0.2681    1.0978 H   0  0  0  0  0  0  0  0  0  0  0  0
  1  2  2  3
  2  3  1  0
  3  4  1  0
  4  5  2  3
  5  6  1  0
  6  7  1  0
  7  8  1  0
  8  9  1  0
  9 10  1  0
  4 11  1  0
 11 12  1  0
 12 13  2  0
 13 14  1  0
 13  2  1  0
 10  7  1  0
  1 15  1  0
  3 16  1  0
  6 17  1  0
  6 18  1  0
  7 19  1  0
  8 20  1  0
  8 21  1  0
 10 22  1  0
 10 23  1  0
 11 24  1  0
 12 25  1  0
 14 26  1  0
 14 27  1  0
M  END
$$$$
