
     RDKit          3D

 31 32  0  0  0  0  0  0  0  0999 V2000
   -2.7634   -1.7885   -0.4780 N   0  0  0  0  0  0  0  0  0  0  0  0
   -2.7691   -0.6899    0.4842 C   0  0  0  0  0  0  0  0  0  0  0  0
   -1.8591    0.4217   -0.0536 C   0  0  1  0  0  0  0  0  0  0  0  0
   -1.8203    1.5641    0.8713 C   0  0  0  0  0  0  0  0  0  0  0  0
   -0.7402    2.0325    1.3133 O   0  0  0  0  0  0  0  0  0  0  0  0
   -2.9922    2.1596    1.2849 O   0  0  0  0  0  0  0  0  0  0  0  0
   -0.6089   -0.1043   -0.4419 N   0  0  0  0  0  0  0  0  0  0  0  0
    0.2190   -0.6922    0.5395 C   0  0  0  0  0  0  0  0  0  0  0  0
    1.4513   -1.0695   -0.2527 C   0  0  2  0  0  0  0  0  0  0  0  0
    2.6954   -1.1059    0.5962 C   0  0  0  0  0  0  0  0  0  0  0  0
    3.4687    0.0720    0.2828 N   0  0  0  0  0  0  0  0  0  0  0  0
    2.5345    1.0157   -0.3103 C   0  0  0  0  0  0  0  0  0  0  0  0
    1.6114    0.1505   -1.1339 C   0  0  2  0  0  0  0  0  0  0  0  0
    0.2109    0.7702   -1.1918 C   0  0  0  0  0  0  0  0  0  0  0  0
   -2.0455   -1.6049   -1.2252 H   0  0  0  0  0  0  0  0  0  0  0  0
   -3.6957   -1.9570   -0.8877 H   0  0  0  0  0  0  0  0  0  0  0  0
   -3.7942   -0.2651    0.4681 H   0  0  0  0  0  0  0  0  0  0  0  0
   -2.4652   -1.0470    1.4678 H   0  0  0  0  0  0  0  0  0  0  0  0
   -2.3760    0.7817   -0.9845 H   0  0  0  0  0  0  0  0  0  0  0  0
   -3.1154    2.5418    2.2305 H   0  0  0  0  0  0  0  0  0  0  0  0
    0.5757    0.0306    1.3212 H   0  0  0  0  0  0  0  0  0  0  0  0
   -0.1841   -1.6185    0.9971 H   0  0  0  0  0  0  0  0  0  0  0  0
    1.2995   -2.0056   -0.8252 H   0  0  0  0  0  0  0  0  0  0  0  0
    2.4995   -1.2243    1.6788 H   0  0  0  0  0  0  0  0  0  0  0  0
    3.3027   -1.9734    0.2661 H   0  0  0  0  0  0  0  0  0  0  0  0
    4.2016   -0.1085   -0.4345 H   0  0  0  0  0  0  0  0  0  0  0  0
    1.9376    1.4909    0.4943 H   0  0  0  0  0  0  0  0  0  0  0  0
    3.0661    1.7425   -0.9402 H   0  0  0  0  0  0  0  0  0  0  0  0
    1.9893   -0.0935   -2.1314 H   0  0  0  0  0  0  0  0  0  0  0  0
   -0.1139    0.8154   -2.2650 H   0  0  0  0  0  0  0  0  0  0  0  0
    0.2803    1.7589   -0.7404 H   0  0  0  0  0  0  0  0  0  0  0  0
  1  2  1  0
  2  3  1  0
  3  4  1  0
  4  5  2  0
  4  6  1  0
  3  7  1  0
  7  8  1  0
  8  9  1  0
  9 10  1  0
 10 11  1  0
 11 12  1  0
 12 13  1  0
 13 14  1  0
 14  7  1  0
 13  9  1  0
  1 15  1  0
  1 16  1  0
  2 17  1  0
  2 18  1  0
  3 19  1  6
  6 20  1  0
  8 21  1  0
  8 22  1  0
  9 23  1  6
 10 24  1  0
 10 25  1  0
 11 26  1  0
 12 27  1  0
 12 28  1  0
 13 29  1  6
 14 30  1  0
 14 31  1  0
M  END
$$$$

     RDKit          3D

 31 32  0  0  0  0  0  0  0  0999 V2000
    3.0827   -1.1207   -0.1857 N   0  0  0  0  0  0  0  0  0  0  0  0
    2.5700   -0.5048    0.9982 C   0  0  0  0  0  0  0  0  0  0  0  0
    1.6437    0.6449    0.6006 C   0  0  1  0  0  0  0  0  0  0  0  0
    2.3865    1.6405   -0.1774 C   0  0  0  0  0  0  0  0  0  0  0  0
    2.0636    1.8996   -1.3538 O   0  0  0  0  0  0  0  0  0  0  0  0
    3.4596    2.3178    0.3637 O   0  0  0  0  0  0  0  0  0  0  0  0
    0.5544    0.0476   -0.1248 N   0  0  0  0  0  0  0  0  0  0  0  0
   -0.5042    0.9431   -0.4401 C   0  0  0  0  0  0  0  0  0  0  0  0
   -1.4476   -0.0008   -1.2004 C   0  0  2  0  0  0  0  0  0  0  0  0
   -2.8748    0.4699   -1.1251 C   0  0  0  0  0  0  0  0  0  0  0  0
   -3.1990    0.2720    0.2546 N   0  0  0  0  0  0  0  0  0  0  0  0
   -2.5372   -0.9278    0.6825 C   0  0  0  0  0  0  0  0  0  0  0  0
   -1.3970   -1.1909   -0.2664 C   0  0  2  0  0  0  0  0  0  0  0  0
   -0.0691   -1.0684    0.4838 C   0  0  0  0  0  0  0  0  0  0  0  0
    2.5914   -0.8088   -1.0623 H   0  0  0  0  0  0  0  0  0  0  0  0
    3.0079   -2.1672   -0.1852 H   0  0  0  0  0  0  0  0  0  0  0  0
    3.3672   -0.1477    1.6846 H   0  0  0  0  0  0  0  0  0  0  0  0
    1.9466   -1.2332    1.5472 H   0  0  0  0  0  0  0  0  0  0  0  0
    1.2316    1.0431    1.5515 H   0  0  0  0  0  0  0  0  0  0  0  0
    3.8020    3.2178   -0.0093 H   0  0  0  0  0  0  0  0  0  0  0  0
   -1.0508    1.2365    0.4996 H   0  0  0  0  0  0  0  0  0  0  0  0
   -0.2428    1.8129   -1.0533 H   0  0  0  0  0  0  0  0  0  0  0  0
   -1.0909   -0.2147   -2.2103 H   0  0  0  0  0  0  0  0  0  0  0  0
   -2.9614    1.5120   -1.4641 H   0  0  0  0  0  0  0  0  0  0  0  0
   -3.4772   -0.1929   -1.7493 H   0  0  0  0  0  0  0  0  0  0  0  0
   -4.2390    0.0850    0.3244 H   0  0  0  0  0  0  0  0  0  0  0  0
   -2.1708   -0.7525    1.7183 H   0  0  0  0  0  0  0  0  0  0  0  0
   -3.2247   -1.7976    0.7391 H   0  0  0  0  0  0  0  0  0  0  0  0
   -1.4730   -2.1540   -0.7846 H   0  0  0  0  0  0  0  0  0  0  0  0
   -0.2576   -0.8453    1.5526 H   0  0  0  0  0  0  0  0  0  0  0  0
    0.5097   -2.0151    0.3913 H   0  0  0  0  0  0  0  0  0  0  0  0
  1  2  1  0
  2  3  1  0
  3  4  1  0
  4  5  2  0
  4  6  1  0
  3  7  1  0
  7  8  1  0
  8  9  1  0
  9 10  1  0
 10 11  1  0
 11 12  1  0
 12 13  1  0
 13 14  1  0
 14  7  1  0
 13  9  1  0
  1 15  1  0
  1 16  1  0
  2 17  1  0
  2 18  1  0
  3 19  1  1
  6 20  1  0
  8 21  1  0
  8 22  1  0
  9 23  1  6
 10 24  1  0
 10 25  1  0
 11 26  1  0
 12 27  1  0
 12 28  1  0
 13 29  1  6
 14 30  1  0
 14 31  1  0
M  END
$$$$

     RDKit          3D

 31 32  0  0  0  0  0  0  0  0999 V2000
   -2.3572    1.3944   -1.0177 N   0  0  0  0  0  0  0  0  0  0  0  0
   -2.6196    0.0237   -0.6661 C   0  0  0  0  0  0  0  0  0  0  0  0
   -1.8031   -0.4385    0.5343 C   0  0  1  0  0  0  0  0  0  0  0  0
   -2.1790   -1.8494    0.7708 C   0  0  0  0  0  0  0  0  0  0  0  0
   -1.2464   -2.7204    0.8177 O   0  0  0  0  0  0  0  0  0  0  0  0
   -3.4670   -2.3141    0.9482 O   0  0  0  0  0  0  0  0  0  0  0  0
   -0.4290   -0.2750    0.3926 N   0  0  0  0  0  0  0  0  0  0  0  0
    0.2922   -0.9333   -0.5856 C   0  0  0  0  0  0  0  0  0  0  0  0
    1.4090    0.0424   -0.9365 C   0  0  2  0  0  0  0  0  0  0  0  0
    2.7675   -0.5095   -0.5760 C   0  0  0  0  0  0  0  0  0  0  0  0
    3.5138    0.7248   -0.3078 N   0  0  0  0  0  0  0  0  0  0  0  0
    2.6100    1.3655    0.6582 C   0  0  0  0  0  0  0  0  0  0  0  0
    1.2737    1.1999    0.0151 C   0  0  2  0  0  0  0  0  0  0  0  0
    0.2458    0.7516    1.0366 C   0  0  0  0  0  0  0  0  0  0  0  0
   -1.3548    1.6001   -1.1450 H   0  0  0  0  0  0  0  0  0  0  0  0
   -2.8790    2.0842   -0.4692 H   0  0  0  0  0  0  0  0  0  0  0  0
   -2.4565   -0.6190   -1.5481 H   0  0  0  0  0  0  0  0  0  0  0  0
   -3.7041   -0.0379   -0.3702 H   0  0  0  0  0  0  0  0  0  0  0  0
   -2.1641    0.1489    1.4038 H   0  0  0  0  0  0  0  0  0  0  0  0
   -3.7321   -3.2831    1.0000 H   0  0  0  0  0  0  0  0  0  0  0  0
    0.7934   -1.8402   -0.1312 H   0  0  0  0  0  0  0  0  0  0  0  0
   -0.2719   -1.2575   -1.4775 H   0  0  0  0  0  0  0  0  0  0  0  0
    1.3769    0.3184   -1.9900 H   0  0  0  0  0  0  0  0  0  0  0  0
    3.2436   -1.0246   -1.4502 H   0  0  0  0  0  0  0  0  0  0  0  0
    2.7775   -1.1091    0.3365 H   0  0  0  0  0  0  0  0  0  0  0  0
    3.4571    1.3361   -1.1690 H   0  0  0  0  0  0  0  0  0  0  0  0
    2.9179    2.4102    0.7925 H   0  0  0  0  0  0  0  0  0  0  0  0
    2.6680    0.7495    1.5657 H   0  0  0  0  0  0  0  0  0  0  0  0
    0.9082    2.1136   -0.4893 H   0  0  0  0  0  0  0  0  0  0  0  0
   -0.3747    1.6134    1.3407 H   0  0  0  0  0  0  0  0  0  0  0  0
    0.7840    0.3350    1.9338 H   0  0  0  0  0  0  0  0  0  0  0  0
  1  2  1  0
  2  3  1  0
  3  4  1  0
  4  5  2  0
  4  6  1  0
  3  7  1  0
  7  8  1  0
  8  9  1  0
  9 10  1  0
 10 11  1  0
 11 12  1  0
 12 13  1  0
 13 14  1  0
 14  7  1  0
 13  9  1  0
  1 15  1  0
  1 16  1  0
  2 17  1  0
  2 18  1  0
  3 19  1  1
  6 20  1  0
  8 21  1  0
  8 22  1  0
  9 23  1  6
 10 24  1  0
 10 25  1  0
 11 26  1  0
 12 27  1  0
 12 28  1  0
 13 29  1  6
 14 30  1  0
 14 31  1  0
M  END
$$$$

     RDKit          3D

 31 32  0  0  0  0  0  0  0  0999 V2000
    2.5960    1.1580    1.1791 N   0  0  0  0  0  0  0  0  0  0  0  0
    2.5085    1.2756   -0.2858 C   0  0  0  0  0  0  0  0  0  0  0  0
    1.6833    0.1592   -0.8481 C   0  0  1  0  0  0  0  0  0  0  0  0
    2.3665   -1.1251   -0.4636 C   0  0  0  0  0  0  0  0  0  0  0  0
    1.7336   -2.0638    0.0896 O   0  0  0  0  0  0  0  0  0  0  0  0
    3.7165   -1.3188   -0.7057 O   0  0  0  0  0  0  0  0  0  0  0  0
    0.3455    0.0838   -0.5193 N   0  0  0  0  0  0  0  0  0  0  0  0
   -0.1408   -0.1065    0.7656 C   0  0  0  0  0  0  0  0  0  0  0  0
   -1.5164    0.5265    0.7839 C   0  0  2  0  0  0  0  0  0  0  0  0
   -2.5046   -0.3440    1.5523 C   0  0  0  0  0  0  0  0  0  0  0  0
   -3.4528   -0.8179    0.5570 N   0  0  0  0  0  0  0  0  0  0  0  0
   -2.7260   -0.8469   -0.6805 C   0  0  0  0  0  0  0  0  0  0  0  0
   -1.9447    0.4550   -0.6553 C   0  0  2  0  0  0  0  0  0  0  0  0
   -0.6616    0.3644   -1.4596 C   0  0  0  0  0  0  0  0  0  0  0  0
    2.8654    0.1704    1.4295 H   0  0  0  0  0  0  0  0  0  0  0  0
    3.3688    1.7603    1.5549 H   0  0  0  0  0  0  0  0  0  0  0  0
    3.5480    1.1483   -0.6571 H   0  0  0  0  0  0  0  0  0  0  0  0
    2.1861    2.2772   -0.5855 H   0  0  0  0  0  0  0  0  0  0  0  0
    1.7669    0.2023   -1.9759 H   0  0  0  0  0  0  0  0  0  0  0  0
    4.2236   -1.9948   -0.1500 H   0  0  0  0  0  0  0  0  0  0  0  0
    0.4768    0.2036    1.6195 H   0  0  0  0  0  0  0  0  0  0  0  0
   -0.3191   -1.2104    0.9322 H   0  0  0  0  0  0  0  0  0  0  0  0
   -1.4802    1.5607    1.1596 H   0  0  0  0  0  0  0  0  0  0  0  0
   -2.0275   -1.1753    2.0724 H   0  0  0  0  0  0  0  0  0  0  0  0
   -3.0381    0.3055    2.2645 H   0  0  0  0  0  0  0  0  0  0  0  0
   -4.2163   -0.1100    0.4811 H   0  0  0  0  0  0  0  0  0  0  0  0
   -2.0211   -1.6892   -0.7241 H   0  0  0  0  0  0  0  0  0  0  0  0
   -3.4572   -0.8315   -1.5158 H   0  0  0  0  0  0  0  0  0  0  0  0
   -2.5761    1.3092   -0.9618 H   0  0  0  0  0  0  0  0  0  0  0  0
   -0.5009    1.2132   -2.1364 H   0  0  0  0  0  0  0  0  0  0  0  0
   -0.8023   -0.5391   -2.1167 H   0  0  0  0  0  0  0  0  0  0  0  0
  1  2  1  0
  2  3  1  0
  3  4  1  0
  4  5  2  0
  4  6  1  0
  3  7  1  0
  7  8  1  0
  8  9  1  0
  9 10  1  0
 10 11  1  0
 11 12  1  0
 12 13  1  0
 13 14  1  0
 14  7  1  0
 13  9  1  0
  1 15  1  0
  1 16  1  0
  2 17  1  0
  2 18  1  0
  3 19  1  6
  6 20  1  0
  8 21  1  0
  8 22  1  0
  9 23  1  1
 10 24  1  0
 10 25  1  0
 11 26  1  0
 12 27  1  0
 12 28  1  0
 13 29  1  6
 14 30  1  0
 14 31  1  0
M  END
$$$$

     RDKit          3D

 31 32  0  0  0  0  0  0  0  0999 V2000
   -3.8561    0.6434    0.3222 N   0  0  0  0  0  0  0  0  0  0  0  0
   -2.5127    0.9005   -0.2187 C   0  0  0  0  0  0  0  0  0  0  0  0
   -1.6589   -0.2842    0.1808 C   0  0  1  0  0  0  0  0  0  0  0  0
   -2.3030   -1.4789   -0.4318 C   0  0  0  0  0  0  0  0  0  0  0  0
   -1.8072   -2.1825   -1.3266 O   0  0  0  0  0  0  0  0  0  0  0  0
   -3.5794   -1.8645    0.0221 O   0  0  0  0  0  0  0  0  0  0  0  0
   -0.3751   -0.1196   -0.4448 N   0  0  0  0  0  0  0  0  0  0  0  0
    0.5787   -1.1525   -0.0919 C   0  0  0  0  0  0  0  0  0  0  0  0
    1.8515   -0.5705   -0.7210 C   0  0  2  0  0  0  0  0  0  0  0  0
    2.9563   -0.7710    0.2791 C   0  0  0  0  0  0  0  0  0  0  0  0
    3.8060    0.3716    0.0458 N   0  0  0  0  0  0  0  0  0  0  0  0
    2.8195    1.4604   -0.0113 C   0  0  0  0  0  0  0  0  0  0  0  0
    1.6247    0.9205   -0.7248 C   0  0  2  0  0  0  0  0  0  0  0  0
    0.3419    1.0498    0.0781 C   0  0  0  0  0  0  0  0  0  0  0  0
   -4.2974    1.5116    0.6741 H   0  0  0  0  0  0  0  0  0  0  0  0
   -4.4798    0.2517   -0.4139 H   0  0  0  0  0  0  0  0  0  0  0  0
   -2.5443    0.9479   -1.3375 H   0  0  0  0  0  0  0  0  0  0  0  0
   -2.1895    1.8478    0.2189 H   0  0  0  0  0  0  0  0  0  0  0  0
   -1.6207   -0.4137    1.2607 H   0  0  0  0  0  0  0  0  0  0  0  0
   -3.7803   -2.8697    0.0489 H   0  0  0  0  0  0  0  0  0  0  0  0
    0.3581   -2.1422   -0.4718 H   0  0  0  0  0  0  0  0  0  0  0  0
    0.6766   -1.1118    1.0223 H   0  0  0  0  0  0  0  0  0  0  0  0
    2.0522   -0.9852   -1.7094 H   0  0  0  0  0  0  0  0  0  0  0  0
    3.4341   -1.7352    0.0910 H   0  0  0  0  0  0  0  0  0  0  0  0
    2.5367   -0.7062    1.2956 H   0  0  0  0  0  0  0  0  0  0  0  0
    4.1892    0.2598   -0.9311 H   0  0  0  0  0  0  0  0  0  0  0  0
    3.2965    2.2460   -0.6405 H   0  0  0  0  0  0  0  0  0  0  0  0
    2.6402    1.8251    0.9975 H   0  0  0  0  0  0  0  0  0  0  0  0
    1.4718    1.3396   -1.7317 H   0  0  0  0  0  0  0  0  0  0  0  0
    0.5517    0.8285    1.1466 H   0  0  0  0  0  0  0  0  0  0  0  0
   -0.1811    1.9831   -0.0962 H   0  0  0  0  0  0  0  0  0  0  0  0
  1  2  1  0
  2  3  1  0
  3  4  1  0
  4  5  2  0
  4  6  1  0
  3  7  1  0
  7  8  1  0
  8  9  1  0
  9 10  1  0
 10 11  1  0
 11 12  1  0
 12 13  1  0
 13 14  1  0
 14  7  1  0
 13  9  1  0
  1 15  1  0
  1 16  1  0
  2 17  1  0
  2 18  1  0
  3 19  1  1
  6 20  1  0
  8 21  1  0
  8 22  1  0
  9 23  1  6
 10 24  1  0
 10 25  1  0
 11 26  1  0
 12 27  1  0
 12 28  1  0
 13 29  1  6
 14 30  1  0
 14 31  1  0
M  END
$$$$

     RDKit          3D

 31 32  0  0  0  0  0  0  0  0999 V2000
    3.4553   -1.8075    0.2172 N   0  0  0  0  0  0  0  0  0  0  0  0
    2.2346   -1.3999   -0.4470 C   0  0  0  0  0  0  0  0  0  0  0  0
    1.6857   -0.1240    0.2016 C   0  0  1  0  0  0  0  0  0  0  0  0
    2.6649    0.9758    0.1015 C   0  0  0  0  0  0  0  0  0  0  0  0
    3.8079    0.9299    0.6397 O   0  0  0  0  0  0  0  0  0  0  0  0
    2.3635    2.1306   -0.6031 O   0  0  0  0  0  0  0  0  0  0  0  0
    0.4938    0.2284   -0.5090 N   0  0  0  0  0  0  0  0  0  0  0  0
   -0.1576    1.4062   -0.0306 C   0  0  0  0  0  0  0  0  0  0  0  0
   -1.6452    1.1484   -0.0843 C   0  0  2  0  0  0  0  0  0  0  0  0
   -2.1945    0.6034    1.2033 C   0  0  0  0  0  0  0  0  0  0  0  0
   -3.2551   -0.3090    0.7995 N   0  0  0  0  0  0  0  0  0  0  0  0
   -2.9756   -0.7300   -0.5371 C   0  0  0  0  0  0  0  0  0  0  0  0
   -1.7262   -0.0434   -1.0017 C   0  0  2  0  0  0  0  0  0  0  0  0
   -0.4722   -0.8197   -0.6167 C   0  0  0  0  0  0  0  0  0  0  0  0
    3.5855   -2.8095    0.0418 H   0  0  0  0  0  0  0  0  0  0  0  0
    3.4680   -1.5629    1.2235 H   0  0  0  0  0  0  0  0  0  0  0  0
    2.4593   -1.1578   -1.4964 H   0  0  0  0  0  0  0  0  0  0  0  0
    1.4429   -2.1566   -0.3924 H   0  0  0  0  0  0  0  0  0  0  0  0
    1.5371   -0.3588    1.2592 H   0  0  0  0  0  0  0  0  0  0  0  0
    2.7332    3.0475   -0.3758 H   0  0  0  0  0  0  0  0  0  0  0  0
    0.1812    1.7331    0.9666 H   0  0  0  0  0  0  0  0  0  0  0  0
    0.0353    2.2214   -0.7894 H   0  0  0  0  0  0  0  0  0  0  0  0
   -2.2092    2.0230   -0.4472 H   0  0  0  0  0  0  0  0  0  0  0  0
   -1.4387    0.0812    1.8038 H   0  0  0  0  0  0  0  0  0  0  0  0
   -2.6216    1.4380    1.8162 H   0  0  0  0  0  0  0  0  0  0  0  0
   -4.1766    0.2156    0.8733 H   0  0  0  0  0  0  0  0  0  0  0  0
   -2.9506   -1.8283   -0.6595 H   0  0  0  0  0  0  0  0  0  0  0  0
   -3.8091   -0.3663   -1.1929 H   0  0  0  0  0  0  0  0  0  0  0  0
   -1.7103    0.2058   -2.0655 H   0  0  0  0  0  0  0  0  0  0  0  0
   -0.6026   -1.3834    0.3143 H   0  0  0  0  0  0  0  0  0  0  0  0
   -0.2029   -1.5312   -1.4223 H   0  0  0  0  0  0  0  0  0  0  0  0
  1  2  1  0
  2  3  1  0
  3  4  1  0
  4  5  2  0
  4  6  1  0
  3  7  1  0
  7  8  1  0
  8  9  1  0
  9 10  1  0
 10 11  1  0
 11 12  1  0
 12 13  1  0
 13 14  1  0
 14  7  1  0
 13  9  1  0
  1 15  1  0
  1 16  1  0
  2 17  1  0
  2 18  1  0
  3 19  1  1
  6 20  1  0
  8 21  1  0
  8 22  1  0
  9 23  1  6
 10 24  1  0
 10 25  1  0
 11 26  1  0
 12 27  1  0
 12 28  1  0
 13 29  1  6
 14 30  1  0
 14 31  1  0
M  END
$$$$

     RDKit          3D

 31 32  0  0  0  0  0  0  0  0999 V2000
   -2.7144    1.7019    0.1918 N   0  0  0  0  0  0  0  0  0  0  0  0
   -2.7904    0.2837    0.0101 C   0  0  0  0  0  0  0  0  0  0  0  0
   -1.6692   -0.4666    0.6680 C   0  0  1  0  0  0  0  0  0  0  0  0
   -1.9048   -1.9002    0.3810 C   0  0  0  0  0  0  0  0  0  0  0  0
   -0.9823   -2.5607   -0.1476 O   0  0  0  0  0  0  0  0  0  0  0  0
   -3.0948   -2.5411    0.6699 O   0  0  0  0  0  0  0  0  0  0  0  0
   -0.3937   -0.1109    0.3012 N   0  0  0  0  0  0  0  0  0  0  0  0
    0.7111   -0.6563    0.9351 C   0  0  0  0  0  0  0  0  0  0  0  0
    1.7828   -0.6486   -0.1353 C   0  0  2  0  0  0  0  0  0  0  0  0
    3.0707   -0.0754    0.3963 C   0  0  0  0  0  0  0  0  0  0  0  0
    3.5112    0.7581   -0.7008 N   0  0  0  0  0  0  0  0  0  0  0  0
    2.2817    1.4928   -1.0053 C   0  0  0  0  0  0  0  0  0  0  0  0
    1.2890    0.3680   -1.1630 C   0  0  2  0  0  0  0  0  0  0  0  0
   -0.1014    0.7742   -0.7178 C   0  0  0  0  0  0  0  0  0  0  0  0
   -2.9095    2.1479   -0.7404 H   0  0  0  0  0  0  0  0  0  0  0  0
   -3.4231    2.0871    0.8558 H   0  0  0  0  0  0  0  0  0  0  0  0
   -2.8893   -0.0229   -1.0641 H   0  0  0  0  0  0  0  0  0  0  0  0
   -3.7341   -0.0683    0.4982 H   0  0  0  0  0  0  0  0  0  0  0  0
   -1.8043   -0.3498    1.7780 H   0  0  0  0  0  0  0  0  0  0  0  0
   -3.0672   -3.5047    1.0058 H   0  0  0  0  0  0  0  0  0  0  0  0
    0.5335   -1.6577    1.3685 H   0  0  0  0  0  0  0  0  0  0  0  0
    1.0525    0.0385    1.7566 H   0  0  0  0  0  0  0  0  0  0  0  0
    1.8948   -1.6306   -0.5921 H   0  0  0  0  0  0  0  0  0  0  0  0
    2.8868    0.5922    1.2559 H   0  0  0  0  0  0  0  0  0  0  0  0
    3.7863   -0.8837    0.6444 H   0  0  0  0  0  0  0  0  0  0  0  0
    3.7147    0.1373   -1.5210 H   0  0  0  0  0  0  0  0  0  0  0  0
    2.3949    2.1057   -1.9124 H   0  0  0  0  0  0  0  0  0  0  0  0
    2.0462    2.0800   -0.1031 H   0  0  0  0  0  0  0  0  0  0  0  0
    1.2983   -0.0693   -2.1642 H   0  0  0  0  0  0  0  0  0  0  0  0
   -0.0363    1.8237   -0.3335 H   0  0  0  0  0  0  0  0  0  0  0  0
   -0.7394    0.7561   -1.6236 H   0  0  0  0  0  0  0  0  0  0  0  0
  1  2  1  0
  2  3  1  0
  3  4  1  0
  4  5  2  0
  4  6  1  0
  3  7  1  0
  7  8  1  0
  8  9  1  0
  9 10  1  0
 10 11  1  0
 11 12  1  0
 12 13  1  0
 13 14  1  0
 14  7  1  0
 13  9  1  0
  1 15  1  0
  1 16  1  0
  2 17  1  0
  2 18  1  0
  3 19  1  1
  6 20  1  0
  8 21  1  0
  8 22  1  0
  9 23  1  6
 10 24  1  0
 10 25  1  0
 11 26  1  0
 12 27  1  0
 12 28  1  0
 13 29  1  6
 14 30  1  0
 14 31  1  0
M  END
$$$$

     RDKit          3D

 31 32  0  0  0  0  0  0  0  0999 V2000
   -2.2953   -1.6002   -1.3424 N   0  0  0  0  0  0  0  0  0  0  0  0
   -2.7198   -0.5666   -0.3861 C   0  0  0  0  0  0  0  0  0  0  0  0
   -1.7311    0.5822   -0.3651 C   0  0  1  0  0  0  0  0  0  0  0  0
   -2.2584    1.5483    0.6233 C   0  0  0  0  0  0  0  0  0  0  0  0
   -1.5048    1.9410    1.5358 O   0  0  0  0  0  0  0  0  0  0  0  0
   -3.5463    2.0365    0.5840 O   0  0  0  0  0  0  0  0  0  0  0  0
   -0.4045    0.2250   -0.1697 N   0  0  0  0  0  0  0  0  0  0  0  0
    0.6059    1.1878   -0.2142 C   0  0  0  0  0  0  0  0  0  0  0  0
    1.6700    0.6439    0.7148 C   0  0  2  0  0  0  0  0  0  0  0  0
    3.0564    0.7986    0.1656 C   0  0  0  0  0  0  0  0  0  0  0  0
    3.6028   -0.5231   -0.0230 N   0  0  0  0  0  0  0  0  0  0  0  0
    2.4254   -1.3218   -0.3258 C   0  0  0  0  0  0  0  0  0  0  0  0
    1.4317   -0.8543    0.7095 C   0  0  2  0  0  0  0  0  0  0  0  0
    0.0050   -1.0409    0.1996 C   0  0  0  0  0  0  0  0  0  0  0  0
   -2.7610   -1.4952   -2.2614 H   0  0  0  0  0  0  0  0  0  0  0  0
   -2.4290   -2.5340   -0.8988 H   0  0  0  0  0  0  0  0  0  0  0  0
   -3.7120   -0.2258   -0.7663 H   0  0  0  0  0  0  0  0  0  0  0  0
   -2.9111   -0.9894    0.6164 H   0  0  0  0  0  0  0  0  0  0  0  0
   -1.8272    1.0603   -1.3874 H   0  0  0  0  0  0  0  0  0  0  0  0
   -3.8647    2.8372    1.1095 H   0  0  0  0  0  0  0  0  0  0  0  0
    1.0775    1.2529   -1.2402 H   0  0  0  0  0  0  0  0  0  0  0  0
    0.2674    2.1871    0.0455 H   0  0  0  0  0  0  0  0  0  0  0  0
    1.5306    1.0684    1.7123 H   0  0  0  0  0  0  0  0  0  0  0  0
    3.6678    1.3377    0.9189 H   0  0  0  0  0  0  0  0  0  0  0  0
    2.9913    1.3482   -0.8031 H   0  0  0  0  0  0  0  0  0  0  0  0
    3.9300   -0.8608    0.9249 H   0  0  0  0  0  0  0  0  0  0  0  0
    2.6123   -2.4028   -0.2841 H   0  0  0  0  0  0  0  0  0  0  0  0
    2.0096   -1.0480   -1.3331 H   0  0  0  0  0  0  0  0  0  0  0  0
    1.5742   -1.2981    1.6940 H   0  0  0  0  0  0  0  0  0  0  0  0
    0.0670   -1.7050   -0.7120 H   0  0  0  0  0  0  0  0  0  0  0  0
   -0.5596   -1.5891    0.9584 H   0  0  0  0  0  0  0  0  0  0  0  0
  1  2  1  0
  2  3  1  0
  3  4  1  0
  4  5  2  0
  4  6  1  0
  3  7  1  0
  7  8  1  0
  8  9  1  0
  9 10  1  0
 10 11  1  0
 11 12  1  0
 12 13  1  0
 13 14  1  0
 14  7  1  0
 13  9  1  0
  1 15  1  0
  1 16  1  0
  2 17  1  0
  2 18  1  0
  3 19  1  6
  6 20  1  0
  8 21  1  0
  8 22  1  0
  9 23  1  1
 10 24  1  0
 10 25  1  0
 11 26  1  0
 12 27  1  0
 12 28  1  0
 13 29  1  1
 14 30  1  0
 14 31  1  0
M  END
$$$$
