
     RDKit          3D

 33 35  0  0  0  0  0  0  0  0999 V2000
    3.1505   -1.6375   -0.9330 N   0  0  0  0  0  0  0  0  0  0  0  0
    3.6471   -0.5377   -0.1336 C   0  0  0  0  0  0  0  0  0  0  0  0
    2.5481    0.3512    0.3498 C   0  0  0  0  0  0  0  0  0  0  0  0
    3.0163    1.4014    1.1128 O   0  0  0  0  0  0  0  0  0  0  0  0
    1.4910    0.7260   -0.6379 C   0  0  0  0  0  0  0  0  0  0  0  0
    0.5413   -0.1985   -0.1098 N   0  0  0  0  0  0  0  0  0  0  0  0
   -0.7146    0.3691    0.3318 C   0  0  1  0  0  0  0  0  0  0  0  0
   -1.4765    1.0191   -0.8058 C   0  0  0  0  0  0  0  0  0  0  0  0
   -2.6862    0.2334   -1.0042 N   0  0  0  0  0  0  0  0  0  0  0  0
   -3.5619    0.5297    0.1241 C   0  0  0  0  0  0  0  0  0  0  0  0
   -2.8773   -0.0414    1.3609 C   0  0  0  0  0  0  0  0  0  0  0  0
   -1.6769   -0.7092    0.7627 C   0  0  1  0  0  0  0  0  0  0  0  0
   -2.2454   -1.1180   -0.6051 C   0  0  0  0  0  0  0  0  0  0  0  0
    1.4407   -0.4259    1.0297 C   0  0  0  0  0  0  0  0  0  0  0  0
    2.2022   -1.4523   -1.3085 H   0  0  0  0  0  0  0  0  0  0  0  0
    3.8600   -1.8813   -1.6535 H   0  0  0  0  0  0  0  0  0  0  0  0
    4.1659   -0.9972    0.7535 H   0  0  0  0  0  0  0  0  0  0  0  0
    4.3710    0.0678   -0.7176 H   0  0  0  0  0  0  0  0  0  0  0  0
    2.6040    2.2535    0.7764 H   0  0  0  0  0  0  0  0  0  0  0  0
    1.1497    1.7860   -0.4624 H   0  0  0  0  0  0  0  0  0  0  0  0
    1.7452    0.6276   -1.7083 H   0  0  0  0  0  0  0  0  0  0  0  0
   -0.5663    1.0506    1.1929 H   0  0  0  0  0  0  0  0  0  0  0  0
   -0.8444    1.0698   -1.6952 H   0  0  0  0  0  0  0  0  0  0  0  0
   -1.7452    2.0725   -0.4981 H   0  0  0  0  0  0  0  0  0  0  0  0
   -3.7664    1.6061    0.2281 H   0  0  0  0  0  0  0  0  0  0  0  0
   -4.4861   -0.0752   -0.0502 H   0  0  0  0  0  0  0  0  0  0  0  0
   -3.5424   -0.7527    1.8901 H   0  0  0  0  0  0  0  0  0  0  0  0
   -2.6221    0.8165    2.0109 H   0  0  0  0  0  0  0  0  0  0  0  0
   -1.2532   -1.5242    1.3141 H   0  0  0  0  0  0  0  0  0  0  0  0
   -1.4953   -1.5281   -1.2660 H   0  0  0  0  0  0  0  0  0  0  0  0
   -3.1591   -1.7107   -0.4910 H   0  0  0  0  0  0  0  0  0  0  0  0
    1.6942   -1.4814    1.1768 H   0  0  0  0  0  0  0  0  0  0  0  0
    1.0922    0.0910    1.9290 H   0  0  0  0  0  0  0  0  0  0  0  0
  1  2  1  0
  2  3  1  0
  3  4  1  0
  3  5  1  0
  5  6  1  0
  6  7  1  0
  7  8  1  0
  8  9  1  0
  9 10  1  0
 10 11  1  0
 11 12  1  0
 12 13  1  0
  6 14  1  0
 14  3  1  0
 12  7  1  0
 13  9  1  0
  1 15  1  0
  1 16  1  0
  2 17  1  0
  2 18  1  0
  4 19  1  0
  5 20  1  0
  5 21  1  0
  7 22  1  1
  8 23  1  0
  8 24  1  0
 10 25  1  0
 10 26  1  0
 11 27  1  0
 11 28  1  0
 12 29  1  1
 13 30  1  0
 13 31  1  0
 14 32  1  0
 14 33  1  0
M  END
$$$$

     RDKit          3D

 33 35  0  0  0  0  0  0  0  0999 V2000
    4.0845    0.7287   -0.5233 N   0  0  0  0  0  0  0  0  0  0  0  0
    3.2894   -0.1026    0.3770 C   0  0  0  0  0  0  0  0  0  0  0  0
    2.2808   -0.9092   -0.4174 C   0  0  0  0  0  0  0  0  0  0  0  0
    2.8261   -1.7622   -1.3521 O   0  0  0  0  0  0  0  0  0  0  0  0
    1.2135   -0.0534   -1.0663 C   0  0  0  0  0  0  0  0  0  0  0  0
    0.1899   -0.7442   -0.2838 N   0  0  0  0  0  0  0  0  0  0  0  0
   -0.5786    0.2435    0.4381 C   0  0  1  0  0  0  0  0  0  0  0  0
   -1.2473    1.1055   -0.6449 C   0  0  0  0  0  0  0  0  0  0  0  0
   -2.5815    0.5583   -0.8328 N   0  0  0  0  0  0  0  0  0  0  0  0
   -3.4884    1.0999    0.1991 C   0  0  0  0  0  0  0  0  0  0  0  0
   -2.6980    0.8040    1.4568 C   0  0  0  0  0  0  0  0  0  0  0  0
   -1.8485   -0.3541    1.0536 C   0  0  1  0  0  0  0  0  0  0  0  0
   -2.4817   -0.8073   -0.2723 C   0  0  0  0  0  0  0  0  0  0  0  0
    1.1799   -1.4654    0.4503 C   0  0  0  0  0  0  0  0  0  0  0  0
    3.9613    1.7489   -0.2815 H   0  0  0  0  0  0  0  0  0  0  0  0
    3.7791    0.6367   -1.5185 H   0  0  0  0  0  0  0  0  0  0  0  0
    2.7721    0.5338    1.1203 H   0  0  0  0  0  0  0  0  0  0  0  0
    3.9534   -0.8364    0.8935 H   0  0  0  0  0  0  0  0  0  0  0  0
    3.0159   -2.6490   -0.9933 H   0  0  0  0  0  0  0  0  0  0  0  0
    1.0341   -0.2615   -2.1436 H   0  0  0  0  0  0  0  0  0  0  0  0
    1.3276    1.0187   -0.8576 H   0  0  0  0  0  0  0  0  0  0  0  0
   -0.0248    0.8271    1.1635 H   0  0  0  0  0  0  0  0  0  0  0  0
   -0.6753    1.0657   -1.5954 H   0  0  0  0  0  0  0  0  0  0  0  0
   -1.2839    2.1638   -0.2974 H   0  0  0  0  0  0  0  0  0  0  0  0
   -3.6792    2.1662    0.0408 H   0  0  0  0  0  0  0  0  0  0  0  0
   -4.3824    0.4575    0.1596 H   0  0  0  0  0  0  0  0  0  0  0  0
   -3.3231    0.6503    2.3331 H   0  0  0  0  0  0  0  0  0  0  0  0
   -2.0742    1.7304    1.6367 H   0  0  0  0  0  0  0  0  0  0  0  0
   -1.6866   -1.1295    1.7572 H   0  0  0  0  0  0  0  0  0  0  0  0
   -3.4781   -1.2392   -0.1204 H   0  0  0  0  0  0  0  0  0  0  0  0
   -1.7766   -1.4265   -0.8288 H   0  0  0  0  0  0  0  0  0  0  0  0
    1.3009   -1.2303    1.5158 H   0  0  0  0  0  0  0  0  0  0  0  0
    1.0997   -2.5685    0.3065 H   0  0  0  0  0  0  0  0  0  0  0  0
  1  2  1  0
  2  3  1  0
  3  4  1  0
  3  5  1  0
  5  6  1  0
  6  7  1  0
  7  8  1  0
  8  9  1  0
  9 10  1  0
 10 11  1  0
 11 12  1  0
 12 13  1  0
  6 14  1  0
 14  3  1  0
 12  7  1  0
 13  9  1  0
  1 15  1  0
  1 16  1  0
  2 17  1  0
  2 18  1  0
  4 19  1  0
  5 20  1  0
  5 21  1  0
  7 22  1  1
  8 23  1  0
  8 24  1  0
 10 25  1  0
 10 26  1  0
 11 27  1  0
 11 28  1  0
 12 29  1  1
 13 30  1  0
 13 31  1  0
 14 32  1  0
 14 33  1  0
M  END
$$$$

     RDKit          3D

 33 35  0  0  0  0  0  0  0  0999 V2000
    4.3718    0.1043   -0.8913 N   0  0  0  0  0  0  0  0  0  0  0  0
    3.6106   -0.3883    0.2560 C   0  0  0  0  0  0  0  0  0  0  0  0
    2.2302    0.2672    0.2583 C   0  0  0  0  0  0  0  0  0  0  0  0
    2.2741    1.6548    0.3559 O   0  0  0  0  0  0  0  0  0  0  0  0
    1.3468   -0.4148    1.2656 C   0  0  0  0  0  0  0  0  0  0  0  0
    0.4080   -0.8077    0.2263 N   0  0  0  0  0  0  0  0  0  0  0  0
   -0.8951   -0.4019    0.4803 C   0  0  1  0  0  0  0  0  0  0  0  0
   -1.2533    1.0276    0.5500 C   0  0  0  0  0  0  0  0  0  0  0  0
   -2.4677    1.1941   -0.2746 N   0  0  0  0  0  0  0  0  0  0  0  0
   -3.5128    0.4677    0.4306 C   0  0  0  0  0  0  0  0  0  0  0  0
   -3.2315   -1.0261    0.2202 C   0  0  0  0  0  0  0  0  0  0  0  0
   -1.8943   -0.9636   -0.4911 C   0  0  1  0  0  0  0  0  0  0  0  0
   -2.1734    0.2526   -1.3708 C   0  0  0  0  0  0  0  0  0  0  0  0
    1.2616   -0.3010   -0.7472 C   0  0  0  0  0  0  0  0  0  0  0  0
    5.3443    0.3659   -0.5853 H   0  0  0  0  0  0  0  0  0  0  0  0
    3.8944    0.9078   -1.3615 H   0  0  0  0  0  0  0  0  0  0  0  0
    3.4326   -1.4876    0.1721 H   0  0  0  0  0  0  0  0  0  0  0  0
    4.0994   -0.1162    1.2122 H   0  0  0  0  0  0  0  0  0  0  0  0
    2.1492    2.0396   -0.5616 H   0  0  0  0  0  0  0  0  0  0  0  0
    1.8116   -1.2791    1.7989 H   0  0  0  0  0  0  0  0  0  0  0  0
    0.9187    0.2850    2.0293 H   0  0  0  0  0  0  0  0  0  0  0  0
   -1.1980   -0.8803    1.4802 H   0  0  0  0  0  0  0  0  0  0  0  0
   -0.5071    1.7496    0.2498 H   0  0  0  0  0  0  0  0  0  0  0  0
   -1.5841    1.3178    1.5756 H   0  0  0  0  0  0  0  0  0  0  0  0
   -3.3427    0.6992    1.5227 H   0  0  0  0  0  0  0  0  0  0  0  0
   -4.5257    0.7405    0.1307 H   0  0  0  0  0  0  0  0  0  0  0  0
   -4.0318   -1.4089   -0.4217 H   0  0  0  0  0  0  0  0  0  0  0  0
   -3.1793   -1.5775    1.1751 H   0  0  0  0  0  0  0  0  0  0  0  0
   -1.6060   -1.8565   -1.0032 H   0  0  0  0  0  0  0  0  0  0  0  0
   -3.1164    0.0429   -1.9318 H   0  0  0  0  0  0  0  0  0  0  0  0
   -1.3521    0.5559   -2.0021 H   0  0  0  0  0  0  0  0  0  0  0  0
    0.9323    0.3896   -1.5306 H   0  0  0  0  0  0  0  0  0  0  0  0
    1.7855   -1.1524   -1.2877 H   0  0  0  0  0  0  0  0  0  0  0  0
  1  2  1  0
  2  3  1  0
  3  4  1  0
  3  5  1  0
  5  6  1  0
  6  7  1  0
  7  8  1  0
  8  9  1  0
  9 10  1  0
 10 11  1  0
 11 12  1  0
 12 13  1  0
  6 14  1  0
 14  3  1  0
 12  7  1  0
 13  9  1  0
  1 15  1  0
  1 16  1  0
  2 17  1  0
  2 18  1  0
  4 19  1  0
  5 20  1  0
  5 21  1  0
  7 22  1  1
  8 23  1  0
  8 24  1  0
 10 25  1  0
 10 26  1  0
 11 27  1  0
 11 28  1  0
 12 29  1  6
 13 30  1  0
 13 31  1  0
 14 32  1  0
 14 33  1  0
M  END
$$$$

     RDKit          3D

 33 35  0  0  0  0  0  0  0  0999 V2000
    4.3746    0.4649   -0.3210 N   0  0  0  0  0  0  0  0  0  0  0  0
    3.5218   -0.1476    0.6698 C   0  0  0  0  0  0  0  0  0  0  0  0
    2.2765   -0.6155   -0.0592 C   0  0  0  0  0  0  0  0  0  0  0  0
    2.5259   -1.5324   -1.0606 O   0  0  0  0  0  0  0  0  0  0  0  0
    1.4008    0.5539   -0.4965 C   0  0  0  0  0  0  0  0  0  0  0  0
    0.3398    0.0533    0.3741 N   0  0  0  0  0  0  0  0  0  0  0  0
   -0.8349   -0.3266   -0.3615 C   0  0  1  0  0  0  0  0  0  0  0  0
   -1.8230   -1.0131    0.5793 C   0  0  0  0  0  0  0  0  0  0  0  0
   -2.7092    0.0225    1.0768 N   0  0  0  0  0  0  0  0  0  0  0  0
   -3.7516    0.1965    0.0501 C   0  0  0  0  0  0  0  0  0  0  0  0
   -2.9356    0.5731   -1.1839 C   0  0  0  0  0  0  0  0  0  0  0  0
   -1.6145    0.9635   -0.6335 C   0  0  1  0  0  0  0  0  0  0  0  0
   -1.9716    1.2776    0.8277 C   0  0  0  0  0  0  0  0  0  0  0  0
    1.1545   -1.0362    0.8422 C   0  0  0  0  0  0  0  0  0  0  0  0
    3.8606    0.9172   -1.0908 H   0  0  0  0  0  0  0  0  0  0  0  0
    5.1684    0.9967    0.0560 H   0  0  0  0  0  0  0  0  0  0  0  0
    3.2235    0.6201    1.4064 H   0  0  0  0  0  0  0  0  0  0  0  0
    4.0076   -1.0169    1.1610 H   0  0  0  0  0  0  0  0  0  0  0  0
    2.8187   -2.3714   -0.6298 H   0  0  0  0  0  0  0  0  0  0  0  0
    1.1708    0.5245   -1.5768 H   0  0  0  0  0  0  0  0  0  0  0  0
    1.8033    1.5144   -0.1714 H   0  0  0  0  0  0  0  0  0  0  0  0
   -0.6407   -0.8917   -1.2687 H   0  0  0  0  0  0  0  0  0  0  0  0
   -2.4387   -1.7413   -0.0039 H   0  0  0  0  0  0  0  0  0  0  0  0
   -1.2940   -1.5091    1.4120 H   0  0  0  0  0  0  0  0  0  0  0  0
   -4.3478   -0.7000   -0.0845 H   0  0  0  0  0  0  0  0  0  0  0  0
   -4.3359    1.1071    0.3142 H   0  0  0  0  0  0  0  0  0  0  0  0
   -3.4354    1.3125   -1.8041 H   0  0  0  0  0  0  0  0  0  0  0  0
   -2.8146   -0.3927   -1.7527 H   0  0  0  0  0  0  0  0  0  0  0  0
   -1.0626    1.7296   -1.1226 H   0  0  0  0  0  0  0  0  0  0  0  0
   -2.6291    2.1425    0.9205 H   0  0  0  0  0  0  0  0  0  0  0  0
   -1.0632    1.2932    1.4267 H   0  0  0  0  0  0  0  0  0  0  0  0
    1.3469   -0.9425    1.9109 H   0  0  0  0  0  0  0  0  0  0  0  0
    0.7088   -2.0260    0.5938 H   0  0  0  0  0  0  0  0  0  0  0  0
  1  2  1  0
  2  3  1  0
  3  4  1  0
  3  5  1  0
  5  6  1  0
  6  7  1  0
  7  8  1  0
  8  9  1  0
  9 10  1  0
 10 11  1  0
 11 12  1  0
 12 13  1  0
  6 14  1  0
 14  3  1  0
 12  7  1  0
 13  9  1  0
  1 15  1  0
  1 16  1  0
  2 17  1  0
  2 18  1  0
  4 19  1  0
  5 20  1  0
  5 21  1  0
  7 22  1  6
  8 23  1  0
  8 24  1  0
 10 25  1  0
 10 26  1  0
 11 27  1  0
 11 28  1  0
 12 29  1  6
 13 30  1  0
 13 31  1  0
 14 32  1  0
 14 33  1  0
M  END
$$$$

     RDKit          3D

 33 35  0  0  0  0  0  0  0  0999 V2000
    4.1741   -0.3418   -0.9320 N   0  0  0  0  0  0  0  0  0  0  0  0
    3.3309   -0.6766    0.2051 C   0  0  0  0  0  0  0  0  0  0  0  0
    2.3380    0.4295    0.3831 C   0  0  0  0  0  0  0  0  0  0  0  0
    2.8824    1.6804    0.6269 O   0  0  0  0  0  0  0  0  0  0  0  0
    1.2723    0.0405    1.4155 C   0  0  0  0  0  0  0  0  0  0  0  0
    0.4886   -0.4187    0.2668 N   0  0  0  0  0  0  0  0  0  0  0  0
   -0.8814   -0.3747    0.5070 C   0  0  1  0  0  0  0  0  0  0  0  0
   -1.5606    0.9225    0.7363 C   0  0  0  0  0  0  0  0  0  0  0  0
   -2.5699    1.0571   -0.3315 N   0  0  0  0  0  0  0  0  0  0  0  0
   -3.6293    0.1280    0.0052 C   0  0  0  0  0  0  0  0  0  0  0  0
   -3.0458   -1.2629   -0.1713 C   0  0  0  0  0  0  0  0  0  0  0  0
   -1.6481   -0.9366   -0.6569 C   0  0  1  0  0  0  0  0  0  0  0  0
   -1.9393    0.3278   -1.4371 C   0  0  0  0  0  0  0  0  0  0  0  0
    1.1787    0.4222   -0.6334 C   0  0  0  0  0  0  0  0  0  0  0  0
    4.9445   -1.0309   -1.0761 H   0  0  0  0  0  0  0  0  0  0  0  0
    4.5119    0.6358   -0.7957 H   0  0  0  0  0  0  0  0  0  0  0  0
    2.8382   -1.6455    0.1228 H   0  0  0  0  0  0  0  0  0  0  0  0
    3.9867   -0.7123    1.1160 H   0  0  0  0  0  0  0  0  0  0  0  0
    2.5340    2.3321   -0.0409 H   0  0  0  0  0  0  0  0  0  0  0  0
    1.5586   -0.7709    2.0939 H   0  0  0  0  0  0  0  0  0  0  0  0
    0.8112    0.9065    1.8825 H   0  0  0  0  0  0  0  0  0  0  0  0
   -1.1067   -1.1093    1.3584 H   0  0  0  0  0  0  0  0  0  0  0  0
   -2.0662    0.8823    1.7246 H   0  0  0  0  0  0  0  0  0  0  0  0
   -0.8988    1.8043    0.7693 H   0  0  0  0  0  0  0  0  0  0  0  0
   -4.5085    0.2873   -0.6592 H   0  0  0  0  0  0  0  0  0  0  0  0
   -3.9088    0.3353    1.0610 H   0  0  0  0  0  0  0  0  0  0  0  0
   -3.5939   -1.8512   -0.9187 H   0  0  0  0  0  0  0  0  0  0  0  0
   -2.9400   -1.7523    0.8198 H   0  0  0  0  0  0  0  0  0  0  0  0
   -1.1534   -1.7115   -1.2183 H   0  0  0  0  0  0  0  0  0  0  0  0
   -2.7427    0.1585   -2.1954 H   0  0  0  0  0  0  0  0  0  0  0  0
   -1.0660    0.8163   -1.8508 H   0  0  0  0  0  0  0  0  0  0  0  0
    1.5147   -0.0392   -1.5735 H   0  0  0  0  0  0  0  0  0  0  0  0
    0.8944    1.4678   -0.7803 H   0  0  0  0  0  0  0  0  0  0  0  0
  1  2  1  0
  2  3  1  0
  3  4  1  0
  3  5  1  0
  5  6  1  0
  6  7  1  0
  7  8  1  0
  8  9  1  0
  9 10  1  0
 10 11  1  0
 11 12  1  0
 12 13  1  0
  6 14  1  0
 14  3  1  0
 12  7  1  0
 13  9  1  0
  1 15  1  0
  1 16  1  0
  2 17  1  0
  2 18  1  0
  4 19  1  0
  5 20  1  0
  5 21  1  0
  7 22  1  1
  8 23  1  0
  8 24  1  0
 10 25  1  0
 10 26  1  0
 11 27  1  0
 11 28  1  0
 12 29  1  6
 13 30  1  0
 13 31  1  0
 14 32  1  0
 14 33  1  0
M  END
$$$$

     RDKit          3D

 33 35  0  0  0  0  0  0  0  0999 V2000
   -3.8001    1.1582   -0.8145 N   0  0  0  0  0  0  0  0  0  0  0  0
   -2.8842    0.8418    0.2641 C   0  0  0  0  0  0  0  0  0  0  0  0
   -2.3584   -0.5607    0.1006 C   0  0  0  0  0  0  0  0  0  0  0  0
   -3.3927   -1.4795    0.1202 O   0  0  0  0  0  0  0  0  0  0  0  0
   -1.3509   -0.7566   -1.0130 C   0  0  0  0  0  0  0  0  0  0  0  0
   -0.2844   -0.8785   -0.0711 N   0  0  0  0  0  0  0  0  0  0  0  0
    0.6556    0.1936    0.0166 C   0  0  1  0  0  0  0  0  0  0  0  0
    1.5219   -0.0800    1.2464 C   0  0  0  0  0  0  0  0  0  0  0  0
    2.7902   -0.5881    0.7594 N   0  0  0  0  0  0  0  0  0  0  0  0
    3.5515    0.5848    0.3039 C   0  0  0  0  0  0  0  0  0  0  0  0
    2.7149    1.1579   -0.8370 C   0  0  0  0  0  0  0  0  0  0  0  0
    1.6964    0.0879   -1.0766 C   0  0  1  0  0  0  0  0  0  0  0  0
    2.4494   -1.1488   -0.5594 C   0  0  0  0  0  0  0  0  0  0  0  0
   -1.2146   -0.9046    1.0147 C   0  0  0  0  0  0  0  0  0  0  0  0
   -4.2136    0.2945   -1.2206 H   0  0  0  0  0  0  0  0  0  0  0  0
   -4.4878    1.8973   -0.5755 H   0  0  0  0  0  0  0  0  0  0  0  0
   -2.1138    1.6081    0.3369 H   0  0  0  0  0  0  0  0  0  0  0  0
   -3.4194    0.8532    1.2580 H   0  0  0  0  0  0  0  0  0  0  0  0
   -3.6962   -1.5762    1.0722 H   0  0  0  0  0  0  0  0  0  0  0  0
   -1.3113    0.1374   -1.6872 H   0  0  0  0  0  0  0  0  0  0  0  0
   -1.5928   -1.6920   -1.5576 H   0  0  0  0  0  0  0  0  0  0  0  0
    0.2274    1.2003    0.0216 H   0  0  0  0  0  0  0  0  0  0  0  0
    1.0463   -0.8069    1.9187 H   0  0  0  0  0  0  0  0  0  0  0  0
    1.6397    0.9089    1.7527 H   0  0  0  0  0  0  0  0  0  0  0  0
    3.7115    1.3088    1.1134 H   0  0  0  0  0  0  0  0  0  0  0  0
    4.4851    0.1931   -0.1479 H   0  0  0  0  0  0  0  0  0  0  0  0
    2.1820    2.0448   -0.3967 H   0  0  0  0  0  0  0  0  0  0  0  0
    3.3371    1.4098   -1.6934 H   0  0  0  0  0  0  0  0  0  0  0  0
    1.3274   -0.0189   -2.0740 H   0  0  0  0  0  0  0  0  0  0  0  0
    1.7835   -1.9985   -0.4337 H   0  0  0  0  0  0  0  0  0  0  0  0
    3.3628   -1.3348   -1.1385 H   0  0  0  0  0  0  0  0  0  0  0  0
   -1.3055   -1.9257    1.4420 H   0  0  0  0  0  0  0  0  0  0  0  0
   -1.0571   -0.1303    1.7930 H   0  0  0  0  0  0  0  0  0  0  0  0
  1  2  1  0
  2  3  1  0
  3  4  1  0
  3  5  1  0
  5  6  1  0
  6  7  1  0
  7  8  1  0
  8  9  1  0
  9 10  1  0
 10 11  1  0
 11 12  1  0
 12 13  1  0
  6 14  1  0
 14  3  1  0
 12  7  1  0
 13  9  1  0
  1 15  1  0
  1 16  1  0
  2 17  1  0
  2 18  1  0
  4 19  1  0
  5 20  1  0
  5 21  1  0
  7 22  1  1
  8 23  1  0
  8 24  1  0
 10 25  1  0
 10 26  1  0
 11 27  1  0
 11 28  1  0
 12 29  1  6
 13 30  1  0
 13 31  1  0
 14 32  1  0
 14 33  1  0
M  END
$$$$

     RDKit          3D

 33 35  0  0  0  0  0  0  0  0999 V2000
    3.3546    1.1656    0.7346 N   0  0  0  0  0  0  0  0  0  0  0  0
    3.5454   -0.1934    0.2363 C   0  0  0  0  0  0  0  0  0  0  0  0
    2.3050   -0.7489   -0.4189 C   0  0  0  0  0  0  0  0  0  0  0  0
    2.4066   -1.9890   -0.9716 O   0  0  0  0  0  0  0  0  0  0  0  0
    1.4410    0.1903   -1.1954 C   0  0  0  0  0  0  0  0  0  0  0  0
    0.3191   -0.5156   -0.6320 N   0  0  0  0  0  0  0  0  0  0  0  0
   -0.9425    0.0686   -0.5533 C   0  0  1  0  0  0  0  0  0  0  0  0
   -1.9846   -1.0188   -0.8098 C   0  0  0  0  0  0  0  0  0  0  0  0
   -3.0056   -0.7589    0.1923 N   0  0  0  0  0  0  0  0  0  0  0  0
   -3.5004    0.5729   -0.1166 C   0  0  0  0  0  0  0  0  0  0  0  0
   -2.5436    1.5516    0.5313 C   0  0  0  0  0  0  0  0  0  0  0  0
   -1.3615    0.6264    0.7684 C   0  0  1  0  0  0  0  0  0  0  0  0
   -2.1380   -0.5453    1.3601 C   0  0  0  0  0  0  0  0  0  0  0  0
    1.0974   -0.6928    0.5689 C   0  0  0  0  0  0  0  0  0  0  0  0
    3.3213    1.1527    1.7599 H   0  0  0  0  0  0  0  0  0  0  0  0
    4.1378    1.7722    0.4010 H   0  0  0  0  0  0  0  0  0  0  0  0
    4.3909   -0.2530   -0.4704 H   0  0  0  0  0  0  0  0  0  0  0  0
    3.8145   -0.8837    1.0914 H   0  0  0  0  0  0  0  0  0  0  0  0
    3.3321   -2.3222   -1.1104 H   0  0  0  0  0  0  0  0  0  0  0  0
    1.5365    0.1345   -2.3016 H   0  0  0  0  0  0  0  0  0  0  0  0
    1.4837    1.2623   -0.8732 H   0  0  0  0  0  0  0  0  0  0  0  0
   -1.0748    0.8689   -1.3142 H   0  0  0  0  0  0  0  0  0  0  0  0
   -2.3704   -1.0012   -1.8319 H   0  0  0  0  0  0  0  0  0  0  0  0
   -1.5294   -1.9892   -0.5215 H   0  0  0  0  0  0  0  0  0  0  0  0
   -4.5477    0.7351    0.1728 H   0  0  0  0  0  0  0  0  0  0  0  0
   -3.4392    0.7610   -1.2266 H   0  0  0  0  0  0  0  0  0  0  0  0
   -3.0022    1.8408    1.5088 H   0  0  0  0  0  0  0  0  0  0  0  0
   -2.2963    2.4018   -0.0990 H   0  0  0  0  0  0  0  0  0  0  0  0
   -0.6154    1.0391    1.4175 H   0  0  0  0  0  0  0  0  0  0  0  0
   -1.4964   -1.4155    1.5336 H   0  0  0  0  0  0  0  0  0  0  0  0
   -2.7861   -0.2436    2.1812 H   0  0  0  0  0  0  0  0  0  0  0  0
    0.9494   -1.6934    0.9928 H   0  0  0  0  0  0  0  0  0  0  0  0
    1.1989    0.1205    1.2727 H   0  0  0  0  0  0  0  0  0  0  0  0
  1  2  1  0
  2  3  1  0
  3  4  1  0
  3  5  1  0
  5  6  1  0
  6  7  1  0
  7  8  1  0
  8  9  1  0
  9 10  1  0
 10 11  1  0
 11 12  1  0
 12 13  1  0
  6 14  1  0
 14  3  1  0
 12  7  1  0
 13  9  1  0
  1 15  1  0
  1 16  1  0
  2 17  1  0
  2 18  1  0
  4 19  1  0
  5 20  1  0
  5 21  1  0
  7 22  1  6
  8 23  1  0
  8 24  1  0
 10 25  1  0
 10 26  1  0
 11 27  1  0
 11 28  1  0
 12 29  1  1
 13 30  1  0
 13 31  1  0
 14 32  1  0
 14 33  1  0
M  END
$$$$

     RDKit          3D

 33 35  0  0  0  0  0  0  0  0999 V2000
    4.3705    0.0475   -0.6447 N   0  0  0  0  0  0  0  0  0  0  0  0
    3.3398   -0.7653   -0.0399 C   0  0  0  0  0  0  0  0  0  0  0  0
    2.3405    0.1211    0.6645 C   0  0  0  0  0  0  0  0  0  0  0  0
    2.8907    0.8903    1.6661 O   0  0  0  0  0  0  0  0  0  0  0  0
    1.3748    0.8382   -0.2551 C   0  0  0  0  0  0  0  0  0  0  0  0
    0.3109    0.4171    0.6023 N   0  0  0  0  0  0  0  0  0  0  0  0
   -0.8536   -0.1410   -0.0053 C   0  0  1  0  0  0  0  0  0  0  0  0
   -1.7139   -0.7149    1.1220 C   0  0  0  0  0  0  0  0  0  0  0  0
   -3.0403   -0.1174    0.9499 N   0  0  0  0  0  0  0  0  0  0  0  0
   -3.5325   -0.6375   -0.3295 C   0  0  0  0  0  0  0  0  0  0  0  0
   -2.8133    0.1473   -1.4134 C   0  0  0  0  0  0  0  0  0  0  0  0
   -1.7728    0.8861   -0.6074 C   0  0  1  0  0  0  0  0  0  0  0  0
   -2.6268    1.2594    0.6144 C   0  0  0  0  0  0  0  0  0  0  0  0
    1.1321   -0.6312    1.1752 C   0  0  0  0  0  0  0  0  0  0  0  0
    4.3912    1.0062   -0.2269 H   0  0  0  0  0  0  0  0  0  0  0  0
    5.3232   -0.3910   -0.4983 H   0  0  0  0  0  0  0  0  0  0  0  0
    2.8749   -1.4432   -0.7615 H   0  0  0  0  0  0  0  0  0  0  0  0
    3.7957   -1.4371    0.7463 H   0  0  0  0  0  0  0  0  0  0  0  0
    3.5535    0.3271    2.1381 H   0  0  0  0  0  0  0  0  0  0  0  0
    1.5717    1.9353   -0.2352 H   0  0  0  0  0  0  0  0  0  0  0  0
    1.3325    0.4165   -1.2860 H   0  0  0  0  0  0  0  0  0  0  0  0
   -0.6342   -0.9270   -0.7665 H   0  0  0  0  0  0  0  0  0  0  0  0
   -1.7849   -1.8229    1.0130 H   0  0  0  0  0  0  0  0  0  0  0  0
   -1.3545   -0.4307    2.1102 H   0  0  0  0  0  0  0  0  0  0  0  0
   -3.1953   -1.6861   -0.4061 H   0  0  0  0  0  0  0  0  0  0  0  0
   -4.6187   -0.5568   -0.4103 H   0  0  0  0  0  0  0  0  0  0  0  0
   -3.5498    0.9047   -1.7753 H   0  0  0  0  0  0  0  0  0  0  0  0
   -2.4050   -0.4740   -2.2101 H   0  0  0  0  0  0  0  0  0  0  0  0
   -1.3100    1.7251   -1.0861 H   0  0  0  0  0  0  0  0  0  0  0  0
   -3.4878    1.8747    0.3015 H   0  0  0  0  0  0  0  0  0  0  0  0
   -2.0056    1.6986    1.3926 H   0  0  0  0  0  0  0  0  0  0  0  0
    1.0619   -1.6079    0.6611 H   0  0  0  0  0  0  0  0  0  0  0  0
    1.0352   -0.7112    2.2671 H   0  0  0  0  0  0  0  0  0  0  0  0
  1  2  1  0
  2  3  1  0
  3  4  1  0
  3  5  1  0
  5  6  1  0
  6  7  1  0
  7  8  1  0
  8  9  1  0
  9 10  1  0
 10 11  1  0
 11 12  1  0
 12 13  1  0
  6 14  1  0
 14  3  1  0
 12  7  1  0
 13  9  1  0
  1 15  1  0
  1 16  1  0
  2 17  1  0
  2 18  1  0
  4 19  1  0
  5 20  1  0
  5 21  1  0
  7 22  1  6
  8 23  1  0
  8 24  1  0
 10 25  1  0
 10 26  1  0
 11 27  1  0
 11 28  1  0
 12 29  1  6
 13 30  1  0
 13 31  1  0
 14 32  1  0
 14 33  1  0
M  END
$$$$
