
     RDKit          3D

 21 22  0  0  0  0  0  0  0  0999 V2000
    3.7146   -1.8189   -0.7194 O   0  0  0  0  0  0  0  0  0  0  0  0
    3.0377   -0.7331   -0.1520 C   0  0  0  0  0  0  0  0  0  0  0  0
    3.6660    0.4721    0.0719 C   0  0  0  0  0  0  0  0  0  0  0  0
    2.9773    1.5266    0.6321 C   0  0  0  0  0  0  0  0  0  0  0  0
    1.6620    1.3801    0.9692 N   0  0  0  0  0  0  0  0  0  0  0  0
    1.0509    0.2027    0.7497 C   0  0  0  0  0  0  0  0  0  0  0  0
   -0.3933    0.0131    1.1102 C   0  0  0  0  0  0  0  0  0  0  0  0
   -1.2323    0.3635    0.0109 N   0  0  0  0  0  0  0  0  0  0  0  0
   -2.4802    0.0473    0.0508 C   0  0  0  0  0  0  0  0  0  0  0  0
   -3.1243   -0.5986    1.0370 N   0  0  0  0  0  0  0  0  0  0  0  0
   -4.3832   -0.7030    0.6479 N   0  0  0  0  0  0  0  0  0  0  0  0
   -4.5587   -0.1535   -0.5347 N   0  0  0  0  0  0  0  0  0  0  0  0
   -3.3783    0.3128   -0.9070 N   0  0  0  0  0  0  0  0  0  0  0  0
    1.7406   -0.8092    0.2037 N   0  0  0  0  0  0  0  0  0  0  0  0
    3.3093   -2.7376   -0.5045 H   0  0  0  0  0  0  0  0  0  0  0  0
    4.7049    0.6160   -0.1849 H   0  0  0  0  0  0  0  0  0  0  0  0
    3.5107    2.4536    0.7895 H   0  0  0  0  0  0  0  0  0  0  0  0
   -0.5186   -1.0795    1.3218 H   0  0  0  0  0  0  0  0  0  0  0  0
   -0.6180    0.5531    2.0422 H   0  0  0  0  0  0  0  0  0  0  0  0
   -5.4639   -0.1108   -1.0500 H   0  0  0  0  0  0  0  0  0  0  0  0
   -3.2231    0.8032   -1.8143 H   0  0  0  0  0  0  0  0  0  0  0  0
  1  2  1  0
  2  3  2  0
  3  4  1  0
  4  5  2  0
  5  6  1  0
  6  7  1  0
  7  8  1  0
  8  9  2  3
  9 10  1  0
 10 11  2  0
 11 12  1  0
 12 13  1  0
  6 14  2  0
 14  2  1  0
 13  9  1  0
  1 15  1  0
  3 16  1  0
  4 17  1  0
  7 18  1  0
  7 19  1  0
 12 20  1  0
 13 21  1  0
M  END
$$$$

     RDKit          3D

 21 22  0  0  0  0  0  0  0  0999 V2000
    4.1305    1.7303    1.0122 O   0  0  0  0  0  0  0  0  0  0  0  0
    3.2352    0.7814    0.5272 C   0  0  0  0  0  0  0  0  0  0  0  0
    3.6502   -0.3391   -0.1786 C   0  0  0  0  0  0  0  0  0  0  0  0
    2.6947   -1.2235   -0.6198 C   0  0  0  0  0  0  0  0  0  0  0  0
    1.3714   -1.0412   -0.3915 N   0  0  0  0  0  0  0  0  0  0  0  0
    0.9985    0.0393    0.2866 C   0  0  0  0  0  0  0  0  0  0  0  0
   -0.4095    0.3757    0.6144 C   0  0  0  0  0  0  0  0  0  0  0  0
   -1.3439   -0.5957    0.1195 N   0  0  0  0  0  0  0  0  0  0  0  0
   -2.5865   -0.2193   -0.0007 C   0  0  0  0  0  0  0  0  0  0  0  0
   -3.1349    0.9763    0.2782 N   0  0  0  0  0  0  0  0  0  0  0  0
   -4.4286    0.9459    0.0170 N   0  0  0  0  0  0  0  0  0  0  0  0
   -4.7125   -0.2548   -0.4255 N   0  0  0  0  0  0  0  0  0  0  0  0
   -3.6119   -0.9662   -0.4409 N   0  0  0  0  0  0  0  0  0  0  0  0
    1.9287    0.9235    0.7300 N   0  0  0  0  0  0  0  0  0  0  0  0
    4.9157    2.0540    0.4629 H   0  0  0  0  0  0  0  0  0  0  0  0
    4.7126   -0.4659   -0.3502 H   0  0  0  0  0  0  0  0  0  0  0  0
    2.9909   -2.1093   -1.1749 H   0  0  0  0  0  0  0  0  0  0  0  0
   -0.6378    1.3407    0.1159 H   0  0  0  0  0  0  0  0  0  0  0  0
   -0.5287    0.5703    1.7159 H   0  0  0  0  0  0  0  0  0  0  0  0
   -5.6942   -0.5548   -0.7131 H   0  0  0  0  0  0  0  0  0  0  0  0
   -3.5401   -1.9675   -0.7499 H   0  0  0  0  0  0  0  0  0  0  0  0
  1  2  1  0
  2  3  2  0
  3  4  1  0
  4  5  2  0
  5  6  1  0
  6  7  1  0
  7  8  1  0
  8  9  2  3
  9 10  1  0
 10 11  2  0
 11 12  1  0
 12 13  1  0
  6 14  2  0
 14  2  1  0
 13  9  1  0
  1 15  1  0
  3 16  1  0
  4 17  1  0
  7 18  1  0
  7 19  1  0
 12 20  1  0
 13 21  1  0
M  END
$$$$

     RDKit          3D

 21 22  0  0  0  0  0  0  0  0999 V2000
   -3.8914   -1.3935   -1.4112 O   0  0  0  0  0  0  0  0  0  0  0  0
   -2.8529   -0.6482   -0.8701 C   0  0  0  0  0  0  0  0  0  0  0  0
   -2.9626    0.7183   -0.8613 C   0  0  0  0  0  0  0  0  0  0  0  0
   -1.9258    1.4692   -0.3208 C   0  0  0  0  0  0  0  0  0  0  0  0
   -0.8350    0.8833    0.1851 N   0  0  0  0  0  0  0  0  0  0  0  0
   -0.7395   -0.4605    0.1705 C   0  0  0  0  0  0  0  0  0  0  0  0
    0.4234   -1.1970    0.7048 C   0  0  0  0  0  0  0  0  0  0  0  0
    1.4430   -0.3701    1.2406 N   0  0  0  0  0  0  0  0  0  0  0  0
    2.3726    0.2168    0.5974 C   0  0  0  0  0  0  0  0  0  0  0  0
    3.3240    0.9930    1.1288 N   0  0  0  0  0  0  0  0  0  0  0  0
    4.1224    1.4328    0.1417 N   0  0  0  0  0  0  0  0  0  0  0  0
    3.6662    0.9279   -1.0126 N   0  0  0  0  0  0  0  0  0  0  0  0
    2.5930    0.1851   -0.7116 N   0  0  0  0  0  0  0  0  0  0  0  0
   -1.7393   -1.2006   -0.3514 N   0  0  0  0  0  0  0  0  0  0  0  0
   -4.0467   -2.3132   -0.9900 H   0  0  0  0  0  0  0  0  0  0  0  0
   -3.8405    1.1989   -1.2681 H   0  0  0  0  0  0  0  0  0  0  0  0
   -2.0588    2.5515   -0.3364 H   0  0  0  0  0  0  0  0  0  0  0  0
    0.0481   -1.8865    1.4911 H   0  0  0  0  0  0  0  0  0  0  0  0
    0.7815   -1.8756   -0.1228 H   0  0  0  0  0  0  0  0  0  0  0  0
    4.0936    1.1035   -1.9460 H   0  0  0  0  0  0  0  0  0  0  0  0
    2.0247   -0.3353   -1.4136 H   0  0  0  0  0  0  0  0  0  0  0  0
  1  2  1  0
  2  3  2  0
  3  4  1  0
  4  5  2  0
  5  6  1  0
  6  7  1  0
  7  8  1  0
  8  9  2  3
  9 10  1  0
 10 11  2  0
 11 12  1  0
 12 13  1  0
  6 14  2  0
 14  2  1  0
 13  9  1  0
  1 15  1  0
  3 16  1  0
  4 17  1  0
  7 18  1  0
  7 19  1  0
 12 20  1  0
 13 21  1  0
M  END
$$$$

     RDKit          3D

 21 22  0  0  0  0  0  0  0  0999 V2000
   -3.4786    2.1564    0.0701 O   0  0  0  0  0  0  0  0  0  0  0  0
   -2.8619    0.9153    0.1686 C   0  0  0  0  0  0  0  0  0  0  0  0
   -3.6781   -0.1594    0.4594 C   0  0  0  0  0  0  0  0  0  0  0  0
   -3.1039   -1.4038    0.5649 C   0  0  0  0  0  0  0  0  0  0  0  0
   -1.7766   -1.5362    0.3835 N   0  0  0  0  0  0  0  0  0  0  0  0
   -0.9914   -0.4807    0.1005 C   0  0  0  0  0  0  0  0  0  0  0  0
    0.4847   -0.7191   -0.0871 C   0  0  0  0  0  0  0  0  0  0  0  0
    1.1416    0.5229   -0.3797 N   0  0  0  0  0  0  0  0  0  0  0  0
    2.3963    0.6409   -0.1199 C   0  0  0  0  0  0  0  0  0  0  0  0
    3.1811    1.7240   -0.3239 N   0  0  0  0  0  0  0  0  0  0  0  0
    4.3927    1.3950    0.0878 N   0  0  0  0  0  0  0  0  0  0  0  0
    4.4274    0.1733    0.5398 N   0  0  0  0  0  0  0  0  0  0  0  0
    3.1953   -0.2992    0.4142 N   0  0  0  0  0  0  0  0  0  0  0  0
   -1.5281    0.7492   -0.0085 N   0  0  0  0  0  0  0  0  0  0  0  0
   -2.9892    2.9023   -0.3941 H   0  0  0  0  0  0  0  0  0  0  0  0
   -4.7425   -0.0528    0.6048 H   0  0  0  0  0  0  0  0  0  0  0  0
   -3.7427   -2.2468    0.7928 H   0  0  0  0  0  0  0  0  0  0  0  0
    0.8736   -1.2392    0.8038 H   0  0  0  0  0  0  0  0  0  0  0  0
    0.6406   -1.3889   -0.9669 H   0  0  0  0  0  0  0  0  0  0  0  0
    5.2449   -0.3707    0.9345 H   0  0  0  0  0  0  0  0  0  0  0  0
    2.9146   -1.2825    0.7036 H   0  0  0  0  0  0  0  0  0  0  0  0
  1  2  1  0
  2  3  2  0
  3  4  1  0
  4  5  2  0
  5  6  1  0
  6  7  1  0
  7  8  1  0
  8  9  2  3
  9 10  1  0
 10 11  2  0
 11 12  1  0
 12 13  1  0
  6 14  2  0
 14  2  1  0
 13  9  1  0
  1 15  1  0
  3 16  1  0
  4 17  1  0
  7 18  1  0
  7 19  1  0
 12 20  1  0
 13 21  1  0
M  END
$$$$

     RDKit          3D

 21 22  0  0  0  0  0  0  0  0999 V2000
   -3.8639    0.6970   -1.5775 O   0  0  0  0  0  0  0  0  0  0  0  0
   -3.0954    0.1745   -0.5285 C   0  0  0  0  0  0  0  0  0  0  0  0
   -3.6376   -0.6319    0.4463 C   0  0  0  0  0  0  0  0  0  0  0  0
   -2.7773   -1.0852    1.4284 C   0  0  0  0  0  0  0  0  0  0  0  0
   -1.4723   -0.7514    1.4277 N   0  0  0  0  0  0  0  0  0  0  0  0
   -0.9531    0.0323    0.4776 C   0  0  0  0  0  0  0  0  0  0  0  0
    0.4671    0.4319    0.4244 C   0  0  0  0  0  0  0  0  0  0  0  0
    1.2605   -0.5063   -0.3460 N   0  0  0  0  0  0  0  0  0  0  0  0
    2.4993   -0.3011   -0.6303 C   0  0  0  0  0  0  0  0  0  0  0  0
    3.2465   -1.1616   -1.3431 N   0  0  0  0  0  0  0  0  0  0  0  0
    4.4762   -0.6454   -1.4532 N   0  0  0  0  0  0  0  0  0  0  0  0
    4.5192    0.5186   -0.8266 N   0  0  0  0  0  0  0  0  0  0  0  0
    3.3115    0.7239   -0.3267 N   0  0  0  0  0  0  0  0  0  0  0  0
   -1.7751    0.4815   -0.4844 N   0  0  0  0  0  0  0  0  0  0  0  0
   -4.1752    0.0541   -2.2835 H   0  0  0  0  0  0  0  0  0  0  0  0
   -4.6777   -0.8737    0.4114 H   0  0  0  0  0  0  0  0  0  0  0  0
   -3.2076   -1.7249    2.2017 H   0  0  0  0  0  0  0  0  0  0  0  0
    0.8852    0.4494    1.4525 H   0  0  0  0  0  0  0  0  0  0  0  0
    0.6084    1.4277   -0.0620 H   0  0  0  0  0  0  0  0  0  0  0  0
    5.3558    1.1371   -0.7543 H   0  0  0  0  0  0  0  0  0  0  0  0
    3.0054    1.5538    0.2279 H   0  0  0  0  0  0  0  0  0  0  0  0
  1  2  1  0
  2  3  2  0
  3  4  1  0
  4  5  2  0
  5  6  1  0
  6  7  1  0
  7  8  1  0
  8  9  2  3
  9 10  1  0
 10 11  2  0
 11 12  1  0
 12 13  1  0
  6 14  2  0
 14  2  1  0
 13  9  1  0
  1 15  1  0
  3 16  1  0
  4 17  1  0
  7 18  1  0
  7 19  1  0
 12 20  1  0
 13 21  1  0
M  END
$$$$

     RDKit          3D

 21 22  0  0  0  0  0  0  0  0999 V2000
   -4.0920   -1.3422    0.9725 O   0  0  0  0  0  0  0  0  0  0  0  0
   -3.1838   -0.4496    0.4384 C   0  0  0  0  0  0  0  0  0  0  0  0
   -3.6265    0.5530   -0.3863 C   0  0  0  0  0  0  0  0  0  0  0  0
   -2.6861    1.4260   -0.9006 C   0  0  0  0  0  0  0  0  0  0  0  0
   -1.3917    1.2604   -0.5767 N   0  0  0  0  0  0  0  0  0  0  0  0
   -0.9452    0.2879    0.2259 C   0  0  0  0  0  0  0  0  0  0  0  0
    0.4917    0.1404    0.5582 C   0  0  0  0  0  0  0  0  0  0  0  0
    1.1939   -0.7048   -0.3634 N   0  0  0  0  0  0  0  0  0  0  0  0
    2.4875   -0.6651   -0.3471 C   0  0  0  0  0  0  0  0  0  0  0  0
    3.3272   -1.3828   -1.1345 N   0  0  0  0  0  0  0  0  0  0  0  0
    4.5745   -1.0545   -0.8073 N   0  0  0  0  0  0  0  0  0  0  0  0
    4.5554   -0.1644    0.1486 N   0  0  0  0  0  0  0  0  0  0  0  0
    3.2994    0.0813    0.4378 N   0  0  0  0  0  0  0  0  0  0  0  0
   -1.8691   -0.5585    0.7227 N   0  0  0  0  0  0  0  0  0  0  0  0
   -4.3720   -2.2013    0.5392 H   0  0  0  0  0  0  0  0  0  0  0  0
   -4.6745    0.6496   -0.6204 H   0  0  0  0  0  0  0  0  0  0  0  0
   -3.0518    2.2104   -1.5489 H   0  0  0  0  0  0  0  0  0  0  0  0
    0.6553   -0.2676    1.5735 H   0  0  0  0  0  0  0  0  0  0  0  0
    1.0171    1.1380    0.5440 H   0  0  0  0  0  0  0  0  0  0  0  0
    5.3563    0.2997    0.6306 H   0  0  0  0  0  0  0  0  0  0  0  0
    2.9345    0.7442    1.1569 H   0  0  0  0  0  0  0  0  0  0  0  0
  1  2  1  0
  2  3  2  0
  3  4  1  0
  4  5  2  0
  5  6  1  0
  6  7  1  0
  7  8  1  0
  8  9  2  3
  9 10  1  0
 10 11  2  0
 11 12  1  0
 12 13  1  0
  6 14  2  0
 14  2  1  0
 13  9  1  0
  1 15  1  0
  3 16  1  0
  4 17  1  0
  7 18  1  0
  7 19  1  0
 12 20  1  0
 13 21  1  0
M  END
$$$$

     RDKit          3D

 21 22  0  0  0  0  0  0  0  0999 V2000
   -3.1046    2.4039   -0.1246 O   0  0  0  0  0  0  0  0  0  0  0  0
   -2.7348    1.0712   -0.0048 C   0  0  0  0  0  0  0  0  0  0  0  0
   -3.7240    0.1384    0.1876 C   0  0  0  0  0  0  0  0  0  0  0  0
   -3.3941   -1.1936    0.3108 C   0  0  0  0  0  0  0  0  0  0  0  0
   -2.0912   -1.5217    0.2349 N   0  0  0  0  0  0  0  0  0  0  0  0
   -1.1073   -0.6410    0.0489 C   0  0  0  0  0  0  0  0  0  0  0  0
    0.2825   -1.1327   -0.0158 C   0  0  0  0  0  0  0  0  0  0  0  0
    1.2319   -0.0590   -0.2205 N   0  0  0  0  0  0  0  0  0  0  0  0
    2.4709   -0.1441    0.1270 C   0  0  0  0  0  0  0  0  0  0  0  0
    3.1263   -1.1542    0.7100 N   0  0  0  0  0  0  0  0  0  0  0  0
    4.3774   -0.7659    0.8648 N   0  0  0  0  0  0  0  0  0  0  0  0
    4.5275    0.4727    0.3904 N   0  0  0  0  0  0  0  0  0  0  0  0
    3.3492    0.8460   -0.0610 N   0  0  0  0  0  0  0  0  0  0  0  0
   -1.4453    0.6610   -0.0701 N   0  0  0  0  0  0  0  0  0  0  0  0
   -2.4503    3.1737   -0.1420 H   0  0  0  0  0  0  0  0  0  0  0  0
   -4.7526    0.4629    0.2400 H   0  0  0  0  0  0  0  0  0  0  0  0
   -4.1868   -1.9090    0.4613 H   0  0  0  0  0  0  0  0  0  0  0  0
    0.5996   -1.6484    0.9346 H   0  0  0  0  0  0  0  0  0  0  0  0
    0.4329   -1.8906   -0.8228 H   0  0  0  0  0  0  0  0  0  0  0  0
    5.4163    1.0335    0.3825 H   0  0  0  0  0  0  0  0  0  0  0  0
    3.1763    1.7971   -0.4979 H   0  0  0  0  0  0  0  0  0  0  0  0
  1  2  1  0
  2  3  2  0
  3  4  1  0
  4  5  2  0
  5  6  1  0
  6  7  1  0
  7  8  1  0
  8  9  2  3
  9 10  1  0
 10 11  2  0
 11 12  1  0
 12 13  1  0
  6 14  2  0
 14  2  1  0
 13  9  1  0
  1 15  1  0
  3 16  1  0
  4 17  1  0
  7 18  1  0
  7 19  1  0
 12 20  1  0
 13 21  1  0
M  END
$$$$

     RDKit          3D

 21 22  0  0  0  0  0  0  0  0999 V2000
   -3.3329    1.7491   -1.3205 O   0  0  0  0  0  0  0  0  0  0  0  0
   -2.8067    0.6595   -0.6433 C   0  0  0  0  0  0  0  0  0  0  0  0
   -3.6502   -0.1133    0.1292 C   0  0  0  0  0  0  0  0  0  0  0  0
   -3.0858   -1.1877    0.7860 C   0  0  0  0  0  0  0  0  0  0  0  0
   -1.7708   -1.4481    0.6623 N   0  0  0  0  0  0  0  0  0  0  0  0
   -0.9555   -0.6920   -0.0911 C   0  0  0  0  0  0  0  0  0  0  0  0
    0.5066   -0.9950   -0.2188 C   0  0  0  0  0  0  0  0  0  0  0  0
    1.1739   -0.0588   -1.0696 N   0  0  0  0  0  0  0  0  0  0  0  0
    2.3764    0.3951   -0.8077 C   0  0  0  0  0  0  0  0  0  0  0  0
    3.0626    1.2733   -1.5594 N   0  0  0  0  0  0  0  0  0  0  0  0
    4.2199    1.4763   -0.9670 N   0  0  0  0  0  0  0  0  0  0  0  0
    4.2865    0.7479    0.1443 N   0  0  0  0  0  0  0  0  0  0  0  0
    3.1553    0.0922    0.2308 N   0  0  0  0  0  0  0  0  0  0  0  0
   -1.5002    0.3549   -0.7324 N   0  0  0  0  0  0  0  0  0  0  0  0
   -2.8073    2.2908   -1.9832 H   0  0  0  0  0  0  0  0  0  0  0  0
   -4.7089    0.1073    0.2207 H   0  0  0  0  0  0  0  0  0  0  0  0
   -3.7477   -1.8097    1.4037 H   0  0  0  0  0  0  0  0  0  0  0  0
    0.9359   -0.9980    0.8014 H   0  0  0  0  0  0  0  0  0  0  0  0
    0.6098   -2.0114   -0.6169 H   0  0  0  0  0  0  0  0  0  0  0  0
    5.1196    0.7354    0.8016 H   0  0  0  0  0  0  0  0  0  0  0  0
    2.9192   -0.5679    1.0104 H   0  0  0  0  0  0  0  0  0  0  0  0
  1  2  1  0
  2  3  2  0
  3  4  1  0
  4  5  2  0
  5  6  1  0
  6  7  1  0
  7  8  1  0
  8  9  2  3
  9 10  1  0
 10 11  2  0
 11 12  1  0
 12 13  1  0
  6 14  2  0
 14  2  1  0
 13  9  1  0
  1 15  1  0
  3 16  1  0
  4 17  1  0
  7 18  1  0
  7 19  1  0
 12 20  1  0
 13 21  1  0
M  END
$$$$
