
     RDKit          3D

 25 26  0  0  0  0  0  0  0  0999 V2000
   -3.5658    0.0004   -0.8177 C   0  0  0  0  0  0  0  0  0  0  0  0
   -2.6520    0.6121    0.1852 C   0  0  0  0  0  0  0  0  0  0  0  0
   -3.1031    1.5387    0.9119 O   0  0  0  0  0  0  0  0  0  0  0  0
   -1.3204    0.2139    0.3642 N   0  0  0  0  0  0  0  0  0  0  0  0
   -0.6611   -0.8265   -0.3856 C   0  0  0  0  0  0  0  0  0  0  0  0
    0.7187   -0.2981   -0.4511 C   0  0  2  0  0  0  0  0  0  0  0  0
    1.7588   -1.1871   -0.8172 N   0  0  0  0  0  0  0  0  0  0  0  0
    3.0936   -0.6522   -0.6558 C   0  0  0  0  0  0  0  0  0  0  0  0
    4.0790   -1.0594   -1.2973 O   0  0  0  0  0  0  0  0  0  0  0  0
    3.2353    0.4365    0.3403 C   0  0  0  0  0  0  0  0  0  0  0  0
    4.3792    0.9506    0.5313 O   0  0  0  0  0  0  0  0  0  0  0  0
    2.0981    0.8828    1.0586 N   0  0  0  0  0  0  0  0  0  0  0  0
    0.9394    0.0457    1.0362 C   0  0  1  0  0  0  0  0  0  0  0  0
   -0.3705    0.7449    1.3025 C   0  0  0  0  0  0  0  0  0  0  0  0
   -4.1945    0.8407   -1.2095 H   0  0  0  0  0  0  0  0  0  0  0  0
   -3.0371   -0.4199   -1.6852 H   0  0  0  0  0  0  0  0  0  0  0  0
   -4.2676   -0.7268   -0.3693 H   0  0  0  0  0  0  0  0  0  0  0  0
   -1.1032   -0.9963   -1.3865 H   0  0  0  0  0  0  0  0  0  0  0  0
   -0.6387   -1.7799    0.2079 H   0  0  0  0  0  0  0  0  0  0  0  0
    0.7894    0.6530   -1.0175 H   0  0  0  0  0  0  0  0  0  0  0  0
    1.6781   -2.1508   -1.1779 H   0  0  0  0  0  0  0  0  0  0  0  0
    2.0929    1.7712    1.5796 H   0  0  0  0  0  0  0  0  0  0  0  0
    1.0552   -0.8837    1.6230 H   0  0  0  0  0  0  0  0  0  0  0  0
   -0.7204    0.4556    2.3290 H   0  0  0  0  0  0  0  0  0  0  0  0
   -0.2835    1.8347    1.2881 H   0  0  0  0  0  0  0  0  0  0  0  0
  1  2  1  0
  2  3  2  0
  2  4  1  0
  4  5  1  0
  5  6  1  0
  6  7  1  0
  7  8  1  0
  8  9  2  0
  8 10  1  0
 10 11  2  0
 10 12  1  0
 12 13  1  0
 13 14  1  0
 14  4  1  0
 13  6  1  0
  1 15  1  0
  1 16  1  0
  1 17  1  0
  5 18  1  0
  5 19  1  0
  6 20  1  6
  7 21  1  0
 12 22  1  0
 13 23  1  1
 14 24  1  0
 14 25  1  0
M  END
$$$$

     RDKit          3D

 25 26  0  0  0  0  0  0  0  0999 V2000
    3.4520   -0.6628   -1.2933 C   0  0  0  0  0  0  0  0  0  0  0  0
    2.0661   -1.1870   -1.4643 C   0  0  0  0  0  0  0  0  0  0  0  0
    1.9320   -2.1154   -2.2922 O   0  0  0  0  0  0  0  0  0  0  0  0
    0.9631   -0.6844   -0.7500 N   0  0  0  0  0  0  0  0  0  0  0  0
    1.0174    0.3972    0.2377 C   0  0  0  0  0  0  0  0  0  0  0  0
   -0.3984    0.8653    0.2239 C   0  0  2  0  0  0  0  0  0  0  0  0
   -0.8560    1.5568    1.3785 N   0  0  0  0  0  0  0  0  0  0  0  0
   -2.2582    1.6581    1.5862 C   0  0  0  0  0  0  0  0  0  0  0  0
   -2.8009    2.5022    2.3333 O   0  0  0  0  0  0  0  0  0  0  0  0
   -3.1436    0.7070    0.8767 C   0  0  0  0  0  0  0  0  0  0  0  0
   -4.3866    0.7724    1.0403 O   0  0  0  0  0  0  0  0  0  0  0  0
   -2.5050   -0.2430    0.0340 N   0  0  0  0  0  0  0  0  0  0  0  0
   -1.1255   -0.4940    0.2137 C   0  0  1  0  0  0  0  0  0  0  0  0
   -0.3961   -1.1690   -0.8904 C   0  0  0  0  0  0  0  0  0  0  0  0
    3.9477   -0.5003   -2.2816 H   0  0  0  0  0  0  0  0  0  0  0  0
    3.9963   -1.4281   -0.6821 H   0  0  0  0  0  0  0  0  0  0  0  0
    3.4785    0.2831   -0.7441 H   0  0  0  0  0  0  0  0  0  0  0  0
    1.7493    1.1752   -0.0545 H   0  0  0  0  0  0  0  0  0  0  0  0
    1.2498   -0.0137    1.2488 H   0  0  0  0  0  0  0  0  0  0  0  0
   -0.6134    1.3962   -0.7282 H   0  0  0  0  0  0  0  0  0  0  0  0
   -0.2021    1.9767    2.0517 H   0  0  0  0  0  0  0  0  0  0  0  0
   -3.0633   -0.7241   -0.6860 H   0  0  0  0  0  0  0  0  0  0  0  0
   -0.8623   -0.9596    1.1845 H   0  0  0  0  0  0  0  0  0  0  0  0
   -0.4448   -2.2724   -0.7862 H   0  0  0  0  0  0  0  0  0  0  0  0
   -0.7960   -0.8363   -1.8839 H   0  0  0  0  0  0  0  0  0  0  0  0
  1  2  1  0
  2  3  2  0
  2  4  1  0
  4  5  1  0
  5  6  1  0
  6  7  1  0
  7  8  1  0
  8  9  2  0
  8 10  1  0
 10 11  2  0
 10 12  1  0
 12 13  1  0
 13 14  1  0
 14  4  1  0
 13  6  1  0
  1 15  1  0
  1 16  1  0
  1 17  1  0
  5 18  1  0
  5 19  1  0
  6 20  1  6
  7 21  1  0
 12 22  1  0
 13 23  1  1
 14 24  1  0
 14 25  1  0
M  END
$$$$

     RDKit          3D

 25 26  0  0  0  0  0  0  0  0999 V2000
    3.6604    0.4408   -0.2618 C   0  0  0  0  0  0  0  0  0  0  0  0
    2.6873   -0.6794   -0.1711 C   0  0  0  0  0  0  0  0  0  0  0  0
    3.1227   -1.8624   -0.2153 O   0  0  0  0  0  0  0  0  0  0  0  0
    1.2940   -0.4426   -0.0372 N   0  0  0  0  0  0  0  0  0  0  0  0
    0.6913    0.8984    0.0234 C   0  0  0  0  0  0  0  0  0  0  0  0
   -0.7216    0.6045   -0.3422 C   0  0  2  0  0  0  0  0  0  0  0  0
   -1.7081    1.5262    0.0879 N   0  0  0  0  0  0  0  0  0  0  0  0
   -3.0516    1.0850    0.2006 C   0  0  0  0  0  0  0  0  0  0  0  0
   -3.9922    1.9180    0.3109 O   0  0  0  0  0  0  0  0  0  0  0  0
   -3.3364   -0.3681    0.1873 C   0  0  0  0  0  0  0  0  0  0  0  0
   -4.5163   -0.7798    0.2856 O   0  0  0  0  0  0  0  0  0  0  0  0
   -2.2012   -1.2165    0.0587 N   0  0  0  0  0  0  0  0  0  0  0  0
   -0.9427   -0.6888    0.4637 C   0  0  1  0  0  0  0  0  0  0  0  0
    0.2634   -1.4633    0.0593 C   0  0  0  0  0  0  0  0  0  0  0  0
    3.3239    1.2193   -0.9973 H   0  0  0  0  0  0  0  0  0  0  0  0
    4.6301    0.0705   -0.6443 H   0  0  0  0  0  0  0  0  0  0  0  0
    3.7448    0.9150    0.7169 H   0  0  0  0  0  0  0  0  0  0  0  0
    0.7316    1.1746    1.1106 H   0  0  0  0  0  0  0  0  0  0  0  0
    1.2078    1.6165   -0.6100 H   0  0  0  0  0  0  0  0  0  0  0  0
   -0.8007    0.3232   -1.4162 H   0  0  0  0  0  0  0  0  0  0  0  0
   -1.4706    2.5038    0.3187 H   0  0  0  0  0  0  0  0  0  0  0  0
   -2.3565   -2.1731   -0.3235 H   0  0  0  0  0  0  0  0  0  0  0  0
   -0.8834   -0.4373    1.5426 H   0  0  0  0  0  0  0  0  0  0  0  0
    0.5561   -2.2420    0.8089 H   0  0  0  0  0  0  0  0  0  0  0  0
    0.0681   -1.9426   -0.9192 H   0  0  0  0  0  0  0  0  0  0  0  0
  1  2  1  0
  2  3  2  0
  2  4  1  0
  4  5  1  0
  5  6  1  0
  6  7  1  0
  7  8  1  0
  8  9  2  0
  8 10  1  0
 10 11  2  0
 10 12  1  0
 12 13  1  0
 13 14  1  0
 14  4  1  0
 13  6  1  0
  1 15  1  0
  1 16  1  0
  1 17  1  0
  5 18  1  0
  5 19  1  0
  6 20  1  6
  7 21  1  0
 12 22  1  0
 13 23  1  1
 14 24  1  0
 14 25  1  0
M  END
$$$$

     RDKit          3D

 25 26  0  0  0  0  0  0  0  0999 V2000
    3.6157    0.4167    0.3635 C   0  0  0  0  0  0  0  0  0  0  0  0
    2.6506    0.4542   -0.7532 C   0  0  0  0  0  0  0  0  0  0  0  0
    3.0594    0.7815   -1.8979 O   0  0  0  0  0  0  0  0  0  0  0  0
    1.2927    0.1225   -0.5119 N   0  0  0  0  0  0  0  0  0  0  0  0
    0.7207   -0.2667    0.7656 C   0  0  0  0  0  0  0  0  0  0  0  0
   -0.7018    0.0746    0.5963 C   0  0  2  0  0  0  0  0  0  0  0  0
   -1.6528   -0.6430    1.3755 N   0  0  0  0  0  0  0  0  0  0  0  0
   -3.0121   -0.4821    0.9905 C   0  0  0  0  0  0  0  0  0  0  0  0
   -3.9770   -0.7380    1.7582 O   0  0  0  0  0  0  0  0  0  0  0  0
   -3.2941    0.0103   -0.3809 C   0  0  0  0  0  0  0  0  0  0  0  0
   -4.4850    0.1650   -0.7567 O   0  0  0  0  0  0  0  0  0  0  0  0
   -2.1840    0.2899   -1.2229 N   0  0  0  0  0  0  0  0  0  0  0  0
   -0.9533   -0.3683   -0.8562 C   0  0  1  0  0  0  0  0  0  0  0  0
    0.2707    0.1312   -1.5483 C   0  0  0  0  0  0  0  0  0  0  0  0
    3.9853    1.4425    0.5986 H   0  0  0  0  0  0  0  0  0  0  0  0
    3.1485   -0.0042    1.2618 H   0  0  0  0  0  0  0  0  0  0  0  0
    4.4696   -0.2243    0.0539 H   0  0  0  0  0  0  0  0  0  0  0  0
    1.1455    0.3550    1.6066 H   0  0  0  0  0  0  0  0  0  0  0  0
    0.8758   -1.3487    0.9407 H   0  0  0  0  0  0  0  0  0  0  0  0
   -0.8878    1.1594    0.7035 H   0  0  0  0  0  0  0  0  0  0  0  0
   -1.4223   -1.2544    2.1787 H   0  0  0  0  0  0  0  0  0  0  0  0
   -2.3036    0.9277   -2.0291 H   0  0  0  0  0  0  0  0  0  0  0  0
   -1.0953   -1.4557   -0.9045 H   0  0  0  0  0  0  0  0  0  0  0  0
    0.5848   -0.6423   -2.2925 H   0  0  0  0  0  0  0  0  0  0  0  0
    0.1500    1.0974   -2.0316 H   0  0  0  0  0  0  0  0  0  0  0  0
  1  2  1  0
  2  3  2  0
  2  4  1  0
  4  5  1  0
  5  6  1  0
  6  7  1  0
  7  8  1  0
  8  9  2  0
  8 10  1  0
 10 11  2  0
 10 12  1  0
 12 13  1  0
 13 14  1  0
 14  4  1  0
 13  6  1  0
  1 15  1  0
  1 16  1  0
  1 17  1  0
  5 18  1  0
  5 19  1  0
  6 20  1  6
  7 21  1  0
 12 22  1  0
 13 23  1  1
 14 24  1  0
 14 25  1  0
M  END
$$$$

     RDKit          3D

 25 26  0  0  0  0  0  0  0  0999 V2000
   -3.5262    0.9102    0.0821 C   0  0  0  0  0  0  0  0  0  0  0  0
   -2.7405   -0.3399   -0.0869 C   0  0  0  0  0  0  0  0  0  0  0  0
   -3.3623   -1.4219   -0.0541 O   0  0  0  0  0  0  0  0  0  0  0  0
   -1.3471   -0.2314   -0.2732 N   0  0  0  0  0  0  0  0  0  0  0  0
   -0.4514   -1.3842   -0.4526 C   0  0  0  0  0  0  0  0  0  0  0  0
    0.9117   -0.7980   -0.5634 C   0  0  2  0  0  0  0  0  0  0  0  0
    1.9671   -1.5319    0.0480 N   0  0  0  0  0  0  0  0  0  0  0  0
    3.2052   -0.8113    0.2423 C   0  0  0  0  0  0  0  0  0  0  0  0
    4.2903   -1.4215    0.4189 O   0  0  0  0  0  0  0  0  0  0  0  0
    3.1687    0.6585    0.2292 C   0  0  0  0  0  0  0  0  0  0  0  0
    4.2074    1.3434    0.3917 O   0  0  0  0  0  0  0  0  0  0  0  0
    1.8847    1.2869    0.0208 N   0  0  0  0  0  0  0  0  0  0  0  0
    0.7392    0.4878    0.2670 C   0  0  1  0  0  0  0  0  0  0  0  0
   -0.5445    0.9757   -0.3247 C   0  0  0  0  0  0  0  0  0  0  0  0
   -4.5723    0.7085    0.3726 H   0  0  0  0  0  0  0  0  0  0  0  0
   -3.0479    1.5843    0.8067 H   0  0  0  0  0  0  0  0  0  0  0  0
   -3.5591    1.4054   -0.9268 H   0  0  0  0  0  0  0  0  0  0  0  0
   -0.5658   -2.1171    0.3430 H   0  0  0  0  0  0  0  0  0  0  0  0
   -0.7494   -1.8261   -1.4338 H   0  0  0  0  0  0  0  0  0  0  0  0
    1.1417   -0.4492   -1.5929 H   0  0  0  0  0  0  0  0  0  0  0  0
    1.8932   -2.5217    0.3495 H   0  0  0  0  0  0  0  0  0  0  0  0
    1.8380    2.2639   -0.2900 H   0  0  0  0  0  0  0  0  0  0  0  0
    0.5939    0.2215    1.3369 H   0  0  0  0  0  0  0  0  0  0  0  0
   -1.0016    1.8132    0.2277 H   0  0  0  0  0  0  0  0  0  0  0  0
   -0.3728    1.1949   -1.3945 H   0  0  0  0  0  0  0  0  0  0  0  0
  1  2  1  0
  2  3  2  0
  2  4  1  0
  4  5  1  0
  5  6  1  0
  6  7  1  0
  7  8  1  0
  8  9  2  0
  8 10  1  0
 10 11  2  0
 10 12  1  0
 12 13  1  0
 13 14  1  0
 14  4  1  0
 13  6  1  0
  1 15  1  0
  1 16  1  0
  1 17  1  0
  5 18  1  0
  5 19  1  0
  6 20  1  6
  7 21  1  0
 12 22  1  0
 13 23  1  1
 14 24  1  0
 14 25  1  0
M  END
$$$$

     RDKit          3D

 25 26  0  0  0  0  0  0  0  0999 V2000
   -3.6688   -0.1712   -0.2228 C   0  0  0  0  0  0  0  0  0  0  0  0
   -2.5464   -1.1237    0.0102 C   0  0  0  0  0  0  0  0  0  0  0  0
   -2.7969   -2.3515    0.1069 O   0  0  0  0  0  0  0  0  0  0  0  0
   -1.2158   -0.6124    0.1169 N   0  0  0  0  0  0  0  0  0  0  0  0
   -0.0336   -1.4609    0.3463 C   0  0  0  0  0  0  0  0  0  0  0  0
    1.0378   -0.5941   -0.2218 C   0  0  2  0  0  0  0  0  0  0  0  0
    2.3709   -0.8807    0.1456 N   0  0  0  0  0  0  0  0  0  0  0  0
    3.3295    0.1632    0.1398 C   0  0  0  0  0  0  0  0  0  0  0  0
    4.5679   -0.0125    0.2650 O   0  0  0  0  0  0  0  0  0  0  0  0
    2.8730    1.5595   -0.0222 C   0  0  0  0  0  0  0  0  0  0  0  0
    3.6965    2.5028   -0.0314 O   0  0  0  0  0  0  0  0  0  0  0  0
    1.4521    1.7511   -0.1647 N   0  0  0  0  0  0  0  0  0  0  0  0
    0.6194    0.7496    0.4071 C   0  0  1  0  0  0  0  0  0  0  0  0
   -0.8180    0.7806    0.0208 C   0  0  0  0  0  0  0  0  0  0  0  0
   -3.5511    0.7262    0.3912 H   0  0  0  0  0  0  0  0  0  0  0  0
   -4.6342   -0.6481    0.0372 H   0  0  0  0  0  0  0  0  0  0  0  0
   -3.6751    0.1038   -1.2972 H   0  0  0  0  0  0  0  0  0  0  0  0
    0.0681   -1.4990    1.4640 H   0  0  0  0  0  0  0  0  0  0  0  0
   -0.1347   -2.4409   -0.1109 H   0  0  0  0  0  0  0  0  0  0  0  0
    0.9133   -0.5081   -1.3216 H   0  0  0  0  0  0  0  0  0  0  0  0
    2.6659   -1.8263    0.4174 H   0  0  0  0  0  0  0  0  0  0  0  0
    1.1185    2.5937   -0.6669 H   0  0  0  0  0  0  0  0  0  0  0  0
    0.7276    0.6436    1.5059 H   0  0  0  0  0  0  0  0  0  0  0  0
   -1.3957    1.3450    0.7880 H   0  0  0  0  0  0  0  0  0  0  0  0
   -0.9700    1.2103   -0.9755 H   0  0  0  0  0  0  0  0  0  0  0  0
  1  2  1  0
  2  3  2  0
  2  4  1  0
  4  5  1  0
  5  6  1  0
  6  7  1  0
  7  8  1  0
  8  9  2  0
  8 10  1  0
 10 11  2  0
 10 12  1  0
 12 13  1  0
 13 14  1  0
 14  4  1  0
 13  6  1  0
  1 15  1  0
  1 16  1  0
  1 17  1  0
  5 18  1  0
  5 19  1  0
  6 20  1  6
  7 21  1  0
 12 22  1  0
 13 23  1  1
 14 24  1  0
 14 25  1  0
M  END
$$$$

     RDKit          3D

 25 26  0  0  0  0  0  0  0  0999 V2000
    3.5446    0.3287    1.0609 C   0  0  0  0  0  0  0  0  0  0  0  0
    2.7661   -0.1147   -0.1280 C   0  0  0  0  0  0  0  0  0  0  0  0
    3.4030   -0.5070   -1.1301 O   0  0  0  0  0  0  0  0  0  0  0  0
    1.3504   -0.0945   -0.1286 N   0  0  0  0  0  0  0  0  0  0  0  0
    0.5335   -0.5141   -1.2571 C   0  0  0  0  0  0  0  0  0  0  0  0
   -0.8142   -0.6849   -0.6480 C   0  0  2  0  0  0  0  0  0  0  0  0
   -1.9331   -0.5303   -1.5096 N   0  0  0  0  0  0  0  0  0  0  0  0
   -3.1892   -0.1986   -0.9318 C   0  0  0  0  0  0  0  0  0  0  0  0
   -4.2414   -0.3151   -1.6197 O   0  0  0  0  0  0  0  0  0  0  0  0
   -3.2410    0.2783    0.4683 C   0  0  0  0  0  0  0  0  0  0  0  0
   -4.3375    0.5775    1.0012 O   0  0  0  0  0  0  0  0  0  0  0  0
   -1.9822    0.3661    1.1374 N   0  0  0  0  0  0  0  0  0  0  0  0
   -0.8289    0.5155    0.3151 C   0  0  1  0  0  0  0  0  0  0  0  0
    0.4881    0.3417    0.9797 C   0  0  0  0  0  0  0  0  0  0  0  0
    2.8595    0.5475    1.9142 H   0  0  0  0  0  0  0  0  0  0  0  0
    4.2490   -0.4471    1.3849 H   0  0  0  0  0  0  0  0  0  0  0  0
    4.1514    1.2256    0.8063 H   0  0  0  0  0  0  0  0  0  0  0  0
    0.9226   -1.4668   -1.6787 H   0  0  0  0  0  0  0  0  0  0  0  0
    0.4849    0.2809   -2.0158 H   0  0  0  0  0  0  0  0  0  0  0  0
   -0.8758   -1.5755    0.0146 H   0  0  0  0  0  0  0  0  0  0  0  0
   -1.8436   -0.6547   -2.5352 H   0  0  0  0  0  0  0  0  0  0  0  0
   -1.9869    0.3158    2.1792 H   0  0  0  0  0  0  0  0  0  0  0  0
   -0.8310    1.4301   -0.3063 H   0  0  0  0  0  0  0  0  0  0  0  0
    0.4719   -0.4140    1.7811 H   0  0  0  0  0  0  0  0  0  0  0  0
    0.8797    1.3096    1.3740 H   0  0  0  0  0  0  0  0  0  0  0  0
  1  2  1  0
  2  3  2  0
  2  4  1  0
  4  5  1  0
  5  6  1  0
  6  7  1  0
  7  8  1  0
  8  9  2  0
  8 10  1  0
 10 11  2  0
 10 12  1  0
 12 13  1  0
 13 14  1  0
 14  4  1  0
 13  6  1  0
  1 15  1  0
  1 16  1  0
  1 17  1  0
  5 18  1  0
  5 19  1  0
  6 20  1  1
  7 21  1  0
 12 22  1  0
 13 23  1  6
 14 24  1  0
 14 25  1  0
M  END
$$$$

     RDKit          3D

 25 26  0  0  0  0  0  0  0  0999 V2000
    3.5691    0.8635    0.3104 C   0  0  0  0  0  0  0  0  0  0  0  0
    2.7368   -0.3477    0.1689 C   0  0  0  0  0  0  0  0  0  0  0  0
    3.3189   -1.4761    0.1500 O   0  0  0  0  0  0  0  0  0  0  0  0
    1.3366   -0.2990    0.0551 N   0  0  0  0  0  0  0  0  0  0  0  0
    0.5736    0.9529    0.0662 C   0  0  0  0  0  0  0  0  0  0  0  0
   -0.7540    0.5101   -0.4350 C   0  0  2  0  0  0  0  0  0  0  0  0
   -1.8743    1.3147   -0.1206 N   0  0  0  0  0  0  0  0  0  0  0  0
   -3.1581    0.7088   -0.1013 C   0  0  0  0  0  0  0  0  0  0  0  0
   -4.1886    1.4271   -0.0446 O   0  0  0  0  0  0  0  0  0  0  0  0
   -3.2852   -0.7701   -0.1479 C   0  0  0  0  0  0  0  0  0  0  0  0
   -4.4066   -1.3337   -0.1324 O   0  0  0  0  0  0  0  0  0  0  0  0
   -2.0497   -1.4727   -0.2102 N   0  0  0  0  0  0  0  0  0  0  0  0
   -0.8810   -0.8388    0.2983 C   0  0  1  0  0  0  0  0  0  0  0  0
    0.4233   -1.4425   -0.0890 C   0  0  0  0  0  0  0  0  0  0  0  0
    4.4677    0.6975    0.9405 H   0  0  0  0  0  0  0  0  0  0  0  0
    3.8881    1.1757   -0.7263 H   0  0  0  0  0  0  0  0  0  0  0  0
    2.9985    1.7246    0.7137 H   0  0  0  0  0  0  0  0  0  0  0  0
    0.4897    1.2336    1.1552 H   0  0  0  0  0  0  0  0  0  0  0  0
    1.0569    1.7348   -0.5328 H   0  0  0  0  0  0  0  0  0  0  0  0
   -0.6477    0.3000   -1.5305 H   0  0  0  0  0  0  0  0  0  0  0  0
   -1.7663    2.3160    0.0899 H   0  0  0  0  0  0  0  0  0  0  0  0
   -2.0409   -2.4195   -0.6214 H   0  0  0  0  0  0  0  0  0  0  0  0
   -0.9480   -0.5984    1.3807 H   0  0  0  0  0  0  0  0  0  0  0  0
    0.3932   -1.6693   -1.1711 H   0  0  0  0  0  0  0  0  0  0  0  0
    0.7479   -2.2916    0.5342 H   0  0  0  0  0  0  0  0  0  0  0  0
  1  2  1  0
  2  3  2  0
  2  4  1  0
  4  5  1  0
  5  6  1  0
  6  7  1  0
  7  8  1  0
  8  9  2  0
  8 10  1  0
 10 11  2  0
 10 12  1  0
 12 13  1  0
 13 14  1  0
 14  4  1  0
 13  6  1  0
  1 15  1  0
  1 16  1  0
  1 17  1  0
  5 18  1  0
  5 19  1  0
  6 20  1  6
  7 21  1  0
 12 22  1  0
 13 23  1  1
 14 24  1  0
 14 25  1  0
M  END
$$$$
