
     RDKit          3D

 29 30  0  0  0  0  0  0  0  0999 V2000
    4.2799    1.3716    0.1124 C   0  0  0  0  0  0  0  0  0  0  0  0
    3.3614    0.2745   -0.2074 N   0  0  0  0  0  0  0  0  0  0  0  0
    2.0910    0.2309    0.2081 C   0  0  0  0  0  0  0  0  0  0  0  0
    1.5481   -0.9306   -0.2796 C   0  0  0  0  0  0  0  0  0  0  0  0
    0.2107   -1.3562   -0.0660 N   0  0  0  0  0  0  0  0  0  0  0  0
   -0.7720   -0.6136    0.6897 C   0  0  2  0  0  0  0  0  0  0  0  0
   -2.0546   -1.4364    0.7173 C   0  0  0  0  0  0  0  0  0  0  0  0
   -2.6414   -1.2814   -0.6816 C   0  0  0  0  0  0  0  0  0  0  0  0
   -3.2445    0.0245   -0.7360 N   0  0  0  0  0  0  0  0  0  0  0  0
   -2.5011    1.0308   -0.0854 C   0  0  0  0  0  0  0  0  0  0  0  0
   -1.0423    0.7664    0.1524 C   0  0  2  0  0  0  0  0  0  0  0  0
   -0.3833    1.0037   -1.0529 O   0  0  0  0  0  0  0  0  0  0  0  0
    2.5239   -1.5488   -0.9780 N   0  0  0  0  0  0  0  0  0  0  0  0
    3.6168   -0.8069   -0.9254 N   0  0  0  0  0  0  0  0  0  0  0  0
    3.8476    2.3468   -0.2422 H   0  0  0  0  0  0  0  0  0  0  0  0
    5.2554    1.2294   -0.3511 H   0  0  0  0  0  0  0  0  0  0  0  0
    4.2986    1.4396    1.2198 H   0  0  0  0  0  0  0  0  0  0  0  0
    1.6278    1.0052    0.8216 H   0  0  0  0  0  0  0  0  0  0  0  0
   -0.0369   -2.2931   -0.5134 H   0  0  0  0  0  0  0  0  0  0  0  0
   -0.4232   -0.5471    1.7340 H   0  0  0  0  0  0  0  0  0  0  0  0
   -1.8175   -2.4758    0.9334 H   0  0  0  0  0  0  0  0  0  0  0  0
   -2.7237   -0.9482    1.4508 H   0  0  0  0  0  0  0  0  0  0  0  0
   -3.4019   -2.0810   -0.8412 H   0  0  0  0  0  0  0  0  0  0  0  0
   -1.8332   -1.3835   -1.4353 H   0  0  0  0  0  0  0  0  0  0  0  0
   -3.3996    0.2915   -1.7359 H   0  0  0  0  0  0  0  0  0  0  0  0
   -2.6139    2.0110   -0.5959 H   0  0  0  0  0  0  0  0  0  0  0  0
   -2.9588    1.1919    0.9353 H   0  0  0  0  0  0  0  0  0  0  0  0
   -0.6881    1.5054    0.9056 H   0  0  0  0  0  0  0  0  0  0  0  0
   -0.1256    1.9796   -1.0893 H   0  0  0  0  0  0  0  0  0  0  0  0
  1  2  1  0
  2  3  1  0
  3  4  2  0
  4  5  1  0
  5  6  1  0
  6  7  1  0
  7  8  1  0
  8  9  1  0
  9 10  1  0
 10 11  1  0
 11 12  1  0
  4 13  1  0
 13 14  2  0
 14  2  1  0
 11  6  1  0
  1 15  1  0
  1 16  1  0
  1 17  1  0
  3 18  1  0
  5 19  1  0
  6 20  1  1
  7 21  1  0
  7 22  1  0
  8 23  1  0
  8 24  1  0
  9 25  1  0
 10 26  1  0
 10 27  1  0
 11 28  1  1
 12 29  1  0
M  END
$$$$

     RDKit          3D

 29 30  0  0  0  0  0  0  0  0999 V2000
    4.6157   -0.0086   -0.5352 C   0  0  0  0  0  0  0  0  0  0  0  0
    3.4641   -0.2422    0.3447 N   0  0  0  0  0  0  0  0  0  0  0  0
    2.1899   -0.2923   -0.0875 C   0  0  0  0  0  0  0  0  0  0  0  0
    1.3515   -0.5254    0.9803 C   0  0  0  0  0  0  0  0  0  0  0  0
   -0.0672   -0.6524    1.0352 N   0  0  0  0  0  0  0  0  0  0  0  0
   -0.7951   -0.4793   -0.2198 C   0  0  2  0  0  0  0  0  0  0  0  0
   -0.6451    0.9366   -0.6534 C   0  0  0  0  0  0  0  0  0  0  0  0
   -1.7713    1.7662   -0.1142 C   0  0  0  0  0  0  0  0  0  0  0  0
   -3.0320    1.1681   -0.5062 N   0  0  0  0  0  0  0  0  0  0  0  0
   -3.1784    0.0044    0.3860 C   0  0  0  0  0  0  0  0  0  0  0  0
   -2.1803   -1.0021   -0.1075 C   0  0  2  0  0  0  0  0  0  0  0  0
   -2.1733   -2.0621    0.8054 O   0  0  0  0  0  0  0  0  0  0  0  0
    2.1925   -0.6099    2.0576 N   0  0  0  0  0  0  0  0  0  0  0  0
    3.4315   -0.4359    1.6320 N   0  0  0  0  0  0  0  0  0  0  0  0
    4.2889    0.6377   -1.3839 H   0  0  0  0  0  0  0  0  0  0  0  0
    5.4056    0.5065    0.0573 H   0  0  0  0  0  0  0  0  0  0  0  0
    4.9910   -0.9814   -0.9043 H   0  0  0  0  0  0  0  0  0  0  0  0
    1.8633   -0.1748   -1.1207 H   0  0  0  0  0  0  0  0  0  0  0  0
   -0.5241   -0.8556    1.9268 H   0  0  0  0  0  0  0  0  0  0  0  0
   -0.2677   -1.1526   -0.9667 H   0  0  0  0  0  0  0  0  0  0  0  0
    0.3126    1.3334   -0.2004 H   0  0  0  0  0  0  0  0  0  0  0  0
   -0.5837    1.0534   -1.7627 H   0  0  0  0  0  0  0  0  0  0  0  0
   -1.7100    1.7270    1.0087 H   0  0  0  0  0  0  0  0  0  0  0  0
   -1.7000    2.8337   -0.3929 H   0  0  0  0  0  0  0  0  0  0  0  0
   -3.8192    1.8460   -0.3351 H   0  0  0  0  0  0  0  0  0  0  0  0
   -4.1882   -0.4019    0.3422 H   0  0  0  0  0  0  0  0  0  0  0  0
   -2.9329    0.3595    1.4003 H   0  0  0  0  0  0  0  0  0  0  0  0
   -2.5080   -1.3730   -1.1049 H   0  0  0  0  0  0  0  0  0  0  0  0
   -2.0300   -2.9232    0.3224 H   0  0  0  0  0  0  0  0  0  0  0  0
  1  2  1  0
  2  3  1  0
  3  4  2  0
  4  5  1  0
  5  6  1  0
  6  7  1  0
  7  8  1  0
  8  9  1  0
  9 10  1  0
 10 11  1  0
 11 12  1  0
  4 13  1  0
 13 14  2  0
 14  2  1  0
 11  6  1  0
  1 15  1  0
  1 16  1  0
  1 17  1  0
  3 18  1  0
  5 19  1  0
  6 20  1  6
  7 21  1  0
  7 22  1  0
  8 23  1  0
  8 24  1  0
  9 25  1  0
 10 26  1  0
 10 27  1  0
 11 28  1  6
 12 29  1  0
M  END
$$$$

     RDKit          3D

 29 30  0  0  0  0  0  0  0  0999 V2000
    4.5820   -0.8820    0.1966 C   0  0  0  0  0  0  0  0  0  0  0  0
    3.3775   -0.2243    0.6260 N   0  0  0  0  0  0  0  0  0  0  0  0
    2.2488   -0.1100   -0.1229 C   0  0  0  0  0  0  0  0  0  0  0  0
    1.3194    0.5681    0.6014 C   0  0  0  0  0  0  0  0  0  0  0  0
   -0.0129    0.9553    0.3339 N   0  0  0  0  0  0  0  0  0  0  0  0
   -0.7685    0.6421   -0.8485 C   0  0  2  0  0  0  0  0  0  0  0  0
   -2.0204    1.5003   -0.8464 C   0  0  0  0  0  0  0  0  0  0  0  0
   -3.0342    1.1111    0.1475 C   0  0  0  0  0  0  0  0  0  0  0  0
   -2.9775   -0.1544    0.7331 N   0  0  0  0  0  0  0  0  0  0  0  0
   -1.8749   -0.9932    0.5276 C   0  0  0  0  0  0  0  0  0  0  0  0
   -1.2392   -0.8154   -0.8263 C   0  0  2  0  0  0  0  0  0  0  0  0
   -0.2461   -1.7038   -1.0805 O   0  0  0  0  0  0  0  0  0  0  0  0
    1.9438    0.8417    1.7875 N   0  0  0  0  0  0  0  0  0  0  0  0
    3.1533    0.3683    1.7844 N   0  0  0  0  0  0  0  0  0  0  0  0
    5.2372   -1.0847    1.0871 H   0  0  0  0  0  0  0  0  0  0  0  0
    5.1936   -0.2679   -0.4896 H   0  0  0  0  0  0  0  0  0  0  0  0
    4.3857   -1.8922   -0.2526 H   0  0  0  0  0  0  0  0  0  0  0  0
    2.1211   -0.4831   -1.1190 H   0  0  0  0  0  0  0  0  0  0  0  0
   -0.5149    1.5346    1.0754 H   0  0  0  0  0  0  0  0  0  0  0  0
   -0.1972    0.7782   -1.7800 H   0  0  0  0  0  0  0  0  0  0  0  0
   -2.4049    1.4747   -1.8967 H   0  0  0  0  0  0  0  0  0  0  0  0
   -1.6754    2.5444   -0.6868 H   0  0  0  0  0  0  0  0  0  0  0  0
   -3.0552    1.8863    0.9729 H   0  0  0  0  0  0  0  0  0  0  0  0
   -4.0517    1.2301   -0.3339 H   0  0  0  0  0  0  0  0  0  0  0  0
   -3.8972   -0.6127    0.8982 H   0  0  0  0  0  0  0  0  0  0  0  0
   -2.1772   -2.0605    0.6072 H   0  0  0  0  0  0  0  0  0  0  0  0
   -1.1305   -0.8408    1.3538 H   0  0  0  0  0  0  0  0  0  0  0  0
   -2.0591   -0.8960   -1.5699 H   0  0  0  0  0  0  0  0  0  0  0  0
   -0.2251   -2.4142   -0.3913 H   0  0  0  0  0  0  0  0  0  0  0  0
  1  2  1  0
  2  3  1  0
  3  4  2  0
  4  5  1  0
  5  6  1  0
  6  7  1  0
  7  8  1  0
  8  9  1  0
  9 10  1  0
 10 11  1  0
 11 12  1  0
  4 13  1  0
 13 14  2  0
 14  2  1  0
 11  6  1  0
  1 15  1  0
  1 16  1  0
  1 17  1  0
  3 18  1  0
  5 19  1  0
  6 20  1  6
  7 21  1  0
  7 22  1  0
  8 23  1  0
  8 24  1  0
  9 25  1  0
 10 26  1  0
 10 27  1  0
 11 28  1  6
 12 29  1  0
M  END
$$$$

     RDKit          3D

 29 30  0  0  0  0  0  0  0  0999 V2000
    5.1579    0.2175   -0.2676 C   0  0  0  0  0  0  0  0  0  0  0  0
    3.7253    0.1153   -0.4422 N   0  0  0  0  0  0  0  0  0  0  0  0
    2.8513   -0.2832    0.5227 C   0  0  0  0  0  0  0  0  0  0  0  0
    1.5774   -0.2578   -0.0032 C   0  0  0  0  0  0  0  0  0  0  0  0
    0.3511   -0.5898    0.6267 N   0  0  0  0  0  0  0  0  0  0  0  0
   -0.8847   -0.4996   -0.0928 C   0  0  2  0  0  0  0  0  0  0  0  0
   -1.1671    0.8881   -0.5884 C   0  0  0  0  0  0  0  0  0  0  0  0
   -2.5682    1.3247   -0.4992 C   0  0  0  0  0  0  0  0  0  0  0  0
   -3.5822    0.3528   -0.5608 N   0  0  0  0  0  0  0  0  0  0  0  0
   -3.2244   -0.9898   -0.2919 C   0  0  0  0  0  0  0  0  0  0  0  0
   -2.0681   -0.9741    0.7149 C   0  0  2  0  0  0  0  0  0  0  0  0
   -2.3956   -0.0160    1.6866 O   0  0  0  0  0  0  0  0  0  0  0  0
    1.7345    0.1591   -1.2772 N   0  0  0  0  0  0  0  0  0  0  0  0
    3.0096    0.3752   -1.5209 N   0  0  0  0  0  0  0  0  0  0  0  0
    5.6542   -0.6616   -0.7130 H   0  0  0  0  0  0  0  0  0  0  0  0
    5.4114    0.2560    0.8093 H   0  0  0  0  0  0  0  0  0  0  0  0
    5.5285    1.1286   -0.8108 H   0  0  0  0  0  0  0  0  0  0  0  0
    3.1118   -0.5727    1.5364 H   0  0  0  0  0  0  0  0  0  0  0  0
    0.3397   -0.9018    1.6173 H   0  0  0  0  0  0  0  0  0  0  0  0
   -0.8570   -1.1614   -1.0081 H   0  0  0  0  0  0  0  0  0  0  0  0
   -0.5310    1.5797    0.0395 H   0  0  0  0  0  0  0  0  0  0  0  0
   -0.7548    1.0054   -1.6218 H   0  0  0  0  0  0  0  0  0  0  0  0
   -2.7211    1.9342    0.4399 H   0  0  0  0  0  0  0  0  0  0  0  0
   -2.7557    2.0735   -1.3259 H   0  0  0  0  0  0  0  0  0  0  0  0
   -4.4077    0.5967    0.0655 H   0  0  0  0  0  0  0  0  0  0  0  0
   -4.0763   -1.5745    0.0770 H   0  0  0  0  0  0  0  0  0  0  0  0
   -2.8086   -1.4331   -1.2434 H   0  0  0  0  0  0  0  0  0  0  0  0
   -1.9110   -1.9655    1.1611 H   0  0  0  0  0  0  0  0  0  0  0  0
   -1.7392   -0.1257    2.4165 H   0  0  0  0  0  0  0  0  0  0  0  0
  1  2  1  0
  2  3  1  0
  3  4  2  0
  4  5  1  0
  5  6  1  0
  6  7  1  0
  7  8  1  0
  8  9  1  0
  9 10  1  0
 10 11  1  0
 11 12  1  0
  4 13  1  0
 13 14  2  0
 14  2  1  0
 11  6  1  0
  1 15  1  0
  1 16  1  0
  1 17  1  0
  3 18  1  0
  5 19  1  0
  6 20  1  6
  7 21  1  0
  7 22  1  0
  8 23  1  0
  8 24  1  0
  9 25  1  0
 10 26  1  0
 10 27  1  0
 11 28  1  1
 12 29  1  0
M  END
$$$$

     RDKit          3D

 29 30  0  0  0  0  0  0  0  0999 V2000
    5.0883   -0.2456    0.6136 C   0  0  0  0  0  0  0  0  0  0  0  0
    3.6757    0.0207    0.5683 N   0  0  0  0  0  0  0  0  0  0  0  0
    2.8525   -0.3499   -0.4331 C   0  0  0  0  0  0  0  0  0  0  0  0
    1.5848    0.0841   -0.1122 C   0  0  0  0  0  0  0  0  0  0  0  0
    0.4038   -0.0871   -0.8803 N   0  0  0  0  0  0  0  0  0  0  0  0
   -0.8486    0.4432   -0.3751 C   0  0  2  0  0  0  0  0  0  0  0  0
   -1.1959   -0.1767    0.9531 C   0  0  0  0  0  0  0  0  0  0  0  0
   -2.6674   -0.2368    1.2111 C   0  0  0  0  0  0  0  0  0  0  0  0
   -3.3074    0.8663    0.5205 N   0  0  0  0  0  0  0  0  0  0  0  0
   -3.2696    0.6740   -0.9175 C   0  0  0  0  0  0  0  0  0  0  0  0
   -1.9365    0.1515   -1.3865 C   0  0  2  0  0  0  0  0  0  0  0  0
   -1.9842   -1.2195   -1.6829 O   0  0  0  0  0  0  0  0  0  0  0  0
    1.6915    0.7018    1.0739 N   0  0  0  0  0  0  0  0  0  0  0  0
    2.9352    0.6605    1.4719 N   0  0  0  0  0  0  0  0  0  0  0  0
    5.3337   -0.4842    1.6884 H   0  0  0  0  0  0  0  0  0  0  0  0
    5.6498    0.6405    0.2735 H   0  0  0  0  0  0  0  0  0  0  0  0
    5.3229   -1.0987   -0.0403 H   0  0  0  0  0  0  0  0  0  0  0  0
    3.1325   -0.8849   -1.3183 H   0  0  0  0  0  0  0  0  0  0  0  0
    0.4811   -0.5916   -1.7861 H   0  0  0  0  0  0  0  0  0  0  0  0
   -0.7382    1.5464   -0.3272 H   0  0  0  0  0  0  0  0  0  0  0  0
   -0.7194   -1.1773    1.0327 H   0  0  0  0  0  0  0  0  0  0  0  0
   -0.7280    0.4517    1.7387 H   0  0  0  0  0  0  0  0  0  0  0  0
   -3.1490   -1.1720    0.8899 H   0  0  0  0  0  0  0  0  0  0  0  0
   -2.8408   -0.1207    2.2938 H   0  0  0  0  0  0  0  0  0  0  0  0
   -4.2782    0.9406    0.8550 H   0  0  0  0  0  0  0  0  0  0  0  0
   -3.4734    1.6619   -1.3727 H   0  0  0  0  0  0  0  0  0  0  0  0
   -4.0787   -0.0160   -1.2211 H   0  0  0  0  0  0  0  0  0  0  0  0
   -1.6790    0.6838   -2.3247 H   0  0  0  0  0  0  0  0  0  0  0  0
   -1.2573   -1.6661   -1.2012 H   0  0  0  0  0  0  0  0  0  0  0  0
  1  2  1  0
  2  3  1  0
  3  4  2  0
  4  5  1  0
  5  6  1  0
  6  7  1  0
  7  8  1  0
  8  9  1  0
  9 10  1  0
 10 11  1  0
 11 12  1  0
  4 13  1  0
 13 14  2  0
 14  2  1  0
 11  6  1  0
  1 15  1  0
  1 16  1  0
  1 17  1  0
  3 18  1  0
  5 19  1  0
  6 20  1  1
  7 21  1  0
  7 22  1  0
  8 23  1  0
  8 24  1  0
  9 25  1  0
 10 26  1  0
 10 27  1  0
 11 28  1  6
 12 29  1  0
M  END
$$$$

     RDKit          3D

 29 30  0  0  0  0  0  0  0  0999 V2000
    4.4986    0.2745    0.6100 C   0  0  0  0  0  0  0  0  0  0  0  0
    3.2952    0.8558    0.0886 N   0  0  0  0  0  0  0  0  0  0  0  0
    2.1250    0.1863   -0.1338 C   0  0  0  0  0  0  0  0  0  0  0  0
    1.2012    1.0607   -0.6325 C   0  0  0  0  0  0  0  0  0  0  0  0
   -0.1397    0.8310   -1.0049 N   0  0  0  0  0  0  0  0  0  0  0  0
   -0.7237   -0.4885   -0.8439 C   0  0  2  0  0  0  0  0  0  0  0  0
   -2.0956   -0.5241   -1.4409 C   0  0  0  0  0  0  0  0  0  0  0  0
   -3.1999   -0.0997   -0.5603 C   0  0  0  0  0  0  0  0  0  0  0  0
   -2.9314   -0.0773    0.8369 N   0  0  0  0  0  0  0  0  0  0  0  0
   -2.0530   -1.1754    1.1676 C   0  0  0  0  0  0  0  0  0  0  0  0
   -0.6813   -0.8554    0.6091 C   0  0  2  0  0  0  0  0  0  0  0  0
   -0.1599    0.1671    1.3978 O   0  0  0  0  0  0  0  0  0  0  0  0
    1.8491    2.2583   -0.7001 N   0  0  0  0  0  0  0  0  0  0  0  0
    3.0855    2.0963   -0.2649 N   0  0  0  0  0  0  0  0  0  0  0  0
    5.2718    1.0540    0.6789 H   0  0  0  0  0  0  0  0  0  0  0  0
    4.2806   -0.2103    1.5849 H   0  0  0  0  0  0  0  0  0  0  0  0
    4.8363   -0.5113   -0.1005 H   0  0  0  0  0  0  0  0  0  0  0  0
    1.9904   -0.8669    0.0609 H   0  0  0  0  0  0  0  0  0  0  0  0
   -0.7009    1.6296   -1.3980 H   0  0  0  0  0  0  0  0  0  0  0  0
   -0.0812   -1.1892   -1.4019 H   0  0  0  0  0  0  0  0  0  0  0  0
   -2.3295   -1.5337   -1.8487 H   0  0  0  0  0  0  0  0  0  0  0  0
   -2.0706    0.1476   -2.3479 H   0  0  0  0  0  0  0  0  0  0  0  0
   -3.5592    0.9337   -0.8447 H   0  0  0  0  0  0  0  0  0  0  0  0
   -4.1182   -0.7417   -0.7100 H   0  0  0  0  0  0  0  0  0  0  0  0
   -2.5841    0.8205    1.1973 H   0  0  0  0  0  0  0  0  0  0  0  0
   -2.4076   -2.0778    0.6585 H   0  0  0  0  0  0  0  0  0  0  0  0
   -1.9844   -1.2589    2.2566 H   0  0  0  0  0  0  0  0  0  0  0  0
   -0.0710   -1.7565    0.8127 H   0  0  0  0  0  0  0  0  0  0  0  0
   -0.5424    1.0513    1.1542 H   0  0  0  0  0  0  0  0  0  0  0  0
  1  2  1  0
  2  3  1  0
  3  4  2  0
  4  5  1  0
  5  6  1  0
  6  7  1  0
  7  8  1  0
  8  9  1  0
  9 10  1  0
 10 11  1  0
 11 12  1  0
  4 13  1  0
 13 14  2  0
 14  2  1  0
 11  6  1  0
  1 15  1  0
  1 16  1  0
  1 17  1  0
  3 18  1  0
  5 19  1  0
  6 20  1  6
  7 21  1  0
  7 22  1  0
  8 23  1  0
  8 24  1  0
  9 25  1  0
 10 26  1  0
 10 27  1  0
 11 28  1  6
 12 29  1  0
M  END
$$$$

     RDKit          3D

 29 30  0  0  0  0  0  0  0  0999 V2000
    4.7140    0.1499   -0.5033 C   0  0  0  0  0  0  0  0  0  0  0  0
    3.4913   -0.5845   -0.2741 N   0  0  0  0  0  0  0  0  0  0  0  0
    2.2108   -0.1594   -0.4733 C   0  0  0  0  0  0  0  0  0  0  0  0
    1.3381   -1.1499   -0.1379 C   0  0  0  0  0  0  0  0  0  0  0  0
   -0.0744   -1.1322   -0.1844 N   0  0  0  0  0  0  0  0  0  0  0  0
   -0.8470    0.0074   -0.5838 C   0  0  2  0  0  0  0  0  0  0  0  0
   -0.7181    1.1501    0.3735 C   0  0  0  0  0  0  0  0  0  0  0  0
   -1.4933    0.8910    1.6514 C   0  0  0  0  0  0  0  0  0  0  0  0
   -2.8728    0.6278    1.3759 N   0  0  0  0  0  0  0  0  0  0  0  0
   -2.9821   -0.5712    0.5677 C   0  0  0  0  0  0  0  0  0  0  0  0
   -2.3158   -0.3216   -0.7437 C   0  0  2  0  0  0  0  0  0  0  0  0
   -2.5142   -1.3620   -1.6510 O   0  0  0  0  0  0  0  0  0  0  0  0
    2.1230   -2.1834    0.2684 N   0  0  0  0  0  0  0  0  0  0  0  0
    3.3810   -1.8282    0.1797 N   0  0  0  0  0  0  0  0  0  0  0  0
    5.3949   -0.0965    0.3482 H   0  0  0  0  0  0  0  0  0  0  0  0
    5.1697   -0.1499   -1.4696 H   0  0  0  0  0  0  0  0  0  0  0  0
    4.4676    1.2388   -0.5274 H   0  0  0  0  0  0  0  0  0  0  0  0
    2.0016    0.8261   -0.8486 H   0  0  0  0  0  0  0  0  0  0  0  0
   -0.5877   -2.0075    0.0904 H   0  0  0  0  0  0  0  0  0  0  0  0
   -0.5086    0.3945   -1.5884 H   0  0  0  0  0  0  0  0  0  0  0  0
    0.2955    1.4111    0.6637 H   0  0  0  0  0  0  0  0  0  0  0  0
   -1.1720    2.0664   -0.0885 H   0  0  0  0  0  0  0  0  0  0  0  0
   -1.0261    0.0387    2.1594 H   0  0  0  0  0  0  0  0  0  0  0  0
   -1.4013    1.8203    2.2702 H   0  0  0  0  0  0  0  0  0  0  0  0
   -3.3526    1.4383    0.9661 H   0  0  0  0  0  0  0  0  0  0  0  0
   -2.5496   -1.4003    1.1414 H   0  0  0  0  0  0  0  0  0  0  0  0
   -4.0550   -0.7666    0.3740 H   0  0  0  0  0  0  0  0  0  0  0  0
   -2.7865    0.6073   -1.1772 H   0  0  0  0  0  0  0  0  0  0  0  0
   -3.3304   -1.1742   -2.1791 H   0  0  0  0  0  0  0  0  0  0  0  0
  1  2  1  0
  2  3  1  0
  3  4  2  0
  4  5  1  0
  5  6  1  0
  6  7  1  0
  7  8  1  0
  8  9  1  0
  9 10  1  0
 10 11  1  0
 11 12  1  0
  4 13  1  0
 13 14  2  0
 14  2  1  0
 11  6  1  0
  1 15  1  0
  1 16  1  0
  1 17  1  0
  3 18  1  0
  5 19  1  0
  6 20  1  6
  7 21  1  0
  7 22  1  0
  8 23  1  0
  8 24  1  0
  9 25  1  0
 10 26  1  0
 10 27  1  0
 11 28  1  6
 12 29  1  0
M  END
$$$$

     RDKit          3D

 29 30  0  0  0  0  0  0  0  0999 V2000
    4.7062   -0.2605   -0.2334 C   0  0  0  0  0  0  0  0  0  0  0  0
    3.5244    0.5337    0.0021 N   0  0  0  0  0  0  0  0  0  0  0  0
    2.2465    0.0855    0.0858 C   0  0  0  0  0  0  0  0  0  0  0  0
    1.4515    1.1831    0.3175 C   0  0  0  0  0  0  0  0  0  0  0  0
    0.0674    1.2955    0.4776 N   0  0  0  0  0  0  0  0  0  0  0  0
   -0.8078    0.1639    0.3724 C   0  0  2  0  0  0  0  0  0  0  0  0
   -0.8719   -0.3994   -1.0217 C   0  0  0  0  0  0  0  0  0  0  0  0
   -2.2162   -1.0631   -1.2490 C   0  0  0  0  0  0  0  0  0  0  0  0
   -2.7520   -1.6824   -0.0729 N   0  0  0  0  0  0  0  0  0  0  0  0
   -2.9751   -0.7736    1.0081 C   0  0  0  0  0  0  0  0  0  0  0  0
   -2.2120    0.4959    0.8293 C   0  0  2  0  0  0  0  0  0  0  0  0
   -2.8687    1.3234   -0.0470 O   0  0  0  0  0  0  0  0  0  0  0  0
    2.3177    2.2395    0.3596 N   0  0  0  0  0  0  0  0  0  0  0  0
    3.5425    1.8357    0.1705 N   0  0  0  0  0  0  0  0  0  0  0  0
    5.5049    0.3225   -0.7285 H   0  0  0  0  0  0  0  0  0  0  0  0
    5.0815   -0.7139    0.7046 H   0  0  0  0  0  0  0  0  0  0  0  0
    4.4022   -1.1059   -0.8887 H   0  0  0  0  0  0  0  0  0  0  0  0
    1.9318   -0.9381   -0.0067 H   0  0  0  0  0  0  0  0  0  0  0  0
   -0.3758    2.2232    0.6820 H   0  0  0  0  0  0  0  0  0  0  0  0
   -0.4698   -0.6612    1.0685 H   0  0  0  0  0  0  0  0  0  0  0  0
   -0.0571   -1.1082   -1.2112 H   0  0  0  0  0  0  0  0  0  0  0  0
   -0.7588    0.4617   -1.7320 H   0  0  0  0  0  0  0  0  0  0  0  0
   -2.0442   -1.8670   -1.9973 H   0  0  0  0  0  0  0  0  0  0  0  0
   -2.9324   -0.3429   -1.6597 H   0  0  0  0  0  0  0  0  0  0  0  0
   -2.2610   -2.5562    0.2053 H   0  0  0  0  0  0  0  0  0  0  0  0
   -2.6077   -1.2495    1.9565 H   0  0  0  0  0  0  0  0  0  0  0  0
   -4.0724   -0.5604    1.0770 H   0  0  0  0  0  0  0  0  0  0  0  0
   -2.1574    1.0023    1.8355 H   0  0  0  0  0  0  0  0  0  0  0  0
   -2.3365    2.1163   -0.3040 H   0  0  0  0  0  0  0  0  0  0  0  0
  1  2  1  0
  2  3  1  0
  3  4  2  0
  4  5  1  0
  5  6  1  0
  6  7  1  0
  7  8  1  0
  8  9  1  0
  9 10  1  0
 10 11  1  0
 11 12  1  0
  4 13  1  0
 13 14  2  0
 14  2  1  0
 11  6  1  0
  1 15  1  0
  1 16  1  0
  1 17  1  0
  3 18  1  0
  5 19  1  0
  6 20  1  1
  7 21  1  0
  7 22  1  0
  8 23  1  0
  8 24  1  0
  9 25  1  0
 10 26  1  0
 10 27  1  0
 11 28  1  1
 12 29  1  0
M  END
$$$$
