
     RDKit          3D

 27 29  0  0  0  0  0  0  0  0999 V2000
    3.6401    0.7643    1.7635 N   0  0  0  0  0  0  0  0  0  0  0  0
    2.7654    0.3777    0.8602 C   0  0  0  0  0  0  0  0  0  0  0  0
    1.4451    0.5778    0.9017 N   0  0  0  0  0  0  0  0  0  0  0  0
    0.8328    0.0773   -0.1841 C   0  0  0  0  0  0  0  0  0  0  0  0
   -0.5593    0.0772   -0.6318 C   0  0  2  0  0  0  0  0  0  0  0  0
   -1.1027    1.4148   -0.9291 C   0  0  0  0  0  0  0  0  0  0  0  0
   -1.6822    1.9059    0.3066 N   0  0  0  0  0  0  0  0  0  0  0  0
   -1.5265    0.8325    1.2986 C   0  0  0  0  0  0  0  0  0  0  0  0
   -1.5733   -0.3288    0.4575 C   0  0  2  0  0  0  0  0  0  0  0  0
   -1.1247   -1.6457    0.7013 C   0  0  0  0  0  0  0  0  0  0  0  0
   -0.8146   -2.1621   -0.5740 O   0  0  0  0  0  0  0  0  0  0  0  0
   -0.8424   -1.0822   -1.4817 C   0  0  0  0  0  0  0  0  0  0  0  0
    1.8428   -0.4486   -0.9108 N   0  0  0  0  0  0  0  0  0  0  0  0
    2.9942   -0.2676   -0.2920 N   0  0  0  0  0  0  0  0  0  0  0  0
    4.6415    0.5627    1.6384 H   0  0  0  0  0  0  0  0  0  0  0  0
   -0.2234    2.1033   -1.1283 H   0  0  0  0  0  0  0  0  0  0  0  0
   -1.7317    1.5332   -1.8106 H   0  0  0  0  0  0  0  0  0  0  0  0
   -2.7337    1.9395    0.1192 H   0  0  0  0  0  0  0  0  0  0  0  0
   -0.6749    1.0261    1.9418 H   0  0  0  0  0  0  0  0  0  0  0  0
   -2.4299    0.8758    1.9639 H   0  0  0  0  0  0  0  0  0  0  0  0
   -2.5511   -0.3330   -0.0930 H   0  0  0  0  0  0  0  0  0  0  0  0
   -0.2810   -1.7482    1.3888 H   0  0  0  0  0  0  0  0  0  0  0  0
   -1.9484   -2.2939    1.0766 H   0  0  0  0  0  0  0  0  0  0  0  0
   -0.1477   -1.2263   -2.3259 H   0  0  0  0  0  0  0  0  0  0  0  0
   -1.9111   -1.0065   -1.8232 H   0  0  0  0  0  0  0  0  0  0  0  0
    1.7703   -0.9447   -1.8472 H   0  0  0  0  0  0  0  0  0  0  0  0
    3.9264   -0.5805   -0.6588 H   0  0  0  0  0  0  0  0  0  0  0  0
  1  2  2  3
  2  3  1  0
  3  4  2  0
  5  4  1  1
  5  6  1  0
  6  7  1  0
  7  8  1  0
  8  9  1  0
  9 10  1  0
 10 11  1  0
 11 12  1  0
  4 13  1  0
 13 14  1  0
 14  2  1  0
  9  5  1  0
 12  5  1  0
  1 15  1  0
  6 16  1  0
  6 17  1  0
  7 18  1  0
  8 19  1  0
  8 20  1  0
  9 21  1  6
 10 22  1  0
 10 23  1  0
 12 24  1  0
 12 25  1  0
 13 26  1  0
 14 27  1  0
M  END
$$$$

     RDKit          3D

 27 29  0  0  0  0  0  0  0  0999 V2000
    4.1197    0.9690   -1.0941 N   0  0  0  0  0  0  0  0  0  0  0  0
    2.9118    0.8875   -0.5819 C   0  0  0  0  0  0  0  0  0  0  0  0
    2.0378   -0.1356   -0.7381 N   0  0  0  0  0  0  0  0  0  0  0  0
    0.8969    0.1833   -0.0428 C   0  0  0  0  0  0  0  0  0  0  0  0
   -0.2206   -0.7038   -0.0249 C   0  0  2  0  0  0  0  0  0  0  0  0
   -0.6466   -1.0005   -1.4157 C   0  0  0  0  0  0  0  0  0  0  0  0
   -1.5766    0.0622   -1.7521 N   0  0  0  0  0  0  0  0  0  0  0  0
   -1.7888    0.8535   -0.5151 C   0  0  0  0  0  0  0  0  0  0  0  0
   -1.5496   -0.1535    0.4632 C   0  0  2  0  0  0  0  0  0  0  0  0
   -1.3618   -0.1001    1.8685 C   0  0  0  0  0  0  0  0  0  0  0  0
   -0.3810   -1.0851    2.1515 O   0  0  0  0  0  0  0  0  0  0  0  0
   -0.1888   -1.8199    0.9591 C   0  0  0  0  0  0  0  0  0  0  0  0
    1.1274    1.3773    0.5005 N   0  0  0  0  0  0  0  0  0  0  0  0
    2.3413    1.8083    0.1800 N   0  0  0  0  0  0  0  0  0  0  0  0
    4.4012    0.1408   -1.6702 H   0  0  0  0  0  0  0  0  0  0  0  0
   -1.0410   -2.0059   -1.5647 H   0  0  0  0  0  0  0  0  0  0  0  0
    0.2373   -0.8703   -2.0977 H   0  0  0  0  0  0  0  0  0  0  0  0
   -2.5190   -0.4129   -1.9160 H   0  0  0  0  0  0  0  0  0  0  0  0
   -1.1683    1.7318   -0.6373 H   0  0  0  0  0  0  0  0  0  0  0  0
   -2.8554    1.2069   -0.5157 H   0  0  0  0  0  0  0  0  0  0  0  0
   -2.2694   -1.0076    0.2363 H   0  0  0  0  0  0  0  0  0  0  0  0
   -1.1778    0.8317    2.4069 H   0  0  0  0  0  0  0  0  0  0  0  0
   -2.2712   -0.5281    2.4108 H   0  0  0  0  0  0  0  0  0  0  0  0
    0.7594   -2.3437    1.0234 H   0  0  0  0  0  0  0  0  0  0  0  0
   -1.0654   -2.4794    0.8196 H   0  0  0  0  0  0  0  0  0  0  0  0
    0.4654    1.8888    1.0812 H   0  0  0  0  0  0  0  0  0  0  0  0
    2.7829    2.7055    0.4653 H   0  0  0  0  0  0  0  0  0  0  0  0
  1  2  2  3
  2  3  1  0
  3  4  2  0
  5  4  1  6
  5  6  1  0
  6  7  1  0
  7  8  1  0
  8  9  1  0
  9 10  1  0
 10 11  1  0
 11 12  1  0
  4 13  1  0
 13 14  1  0
 14  2  1  0
  9  5  1  0
 12  5  1  0
  1 15  1  0
  6 16  1  0
  6 17  1  0
  7 18  1  0
  8 19  1  0
  8 20  1  0
  9 21  1  1
 10 22  1  0
 10 23  1  0
 12 24  1  0
 12 25  1  0
 13 26  1  0
 14 27  1  0
M  END
$$$$

     RDKit          3D

 27 29  0  0  0  0  0  0  0  0999 V2000
    3.2547    0.6114    2.3634 N   0  0  0  0  0  0  0  0  0  0  0  0
    2.5127    0.3654    1.3125 C   0  0  0  0  0  0  0  0  0  0  0  0
    1.1979    0.2135    1.2524 N   0  0  0  0  0  0  0  0  0  0  0  0
    0.8068   -0.0718   -0.0043 C   0  0  0  0  0  0  0  0  0  0  0  0
   -0.4821   -0.3893   -0.5934 C   0  0  2  0  0  0  0  0  0  0  0  0
   -0.8977    0.2806   -1.8026 C   0  0  0  0  0  0  0  0  0  0  0  0
   -1.4561    1.5638   -1.3470 N   0  0  0  0  0  0  0  0  0  0  0  0
   -1.8244    1.3778    0.0710 C   0  0  0  0  0  0  0  0  0  0  0  0
   -1.7043   -0.0193    0.2740 C   0  0  2  0  0  0  0  0  0  0  0  0
   -1.3764   -0.7524    1.4483 C   0  0  0  0  0  0  0  0  0  0  0  0
   -0.7653   -1.9224    0.9875 O   0  0  0  0  0  0  0  0  0  0  0  0
   -0.6696   -1.8600   -0.4226 C   0  0  0  0  0  0  0  0  0  0  0  0
    1.9426   -0.0843   -0.7381 N   0  0  0  0  0  0  0  0  0  0  0  0
    2.9530    0.1804    0.0724 N   0  0  0  0  0  0  0  0  0  0  0  0
    4.2685    0.7096    2.2543 H   0  0  0  0  0  0  0  0  0  0  0  0
   -0.1150    0.4972   -2.5366 H   0  0  0  0  0  0  0  0  0  0  0  0
   -1.6835   -0.2826   -2.3586 H   0  0  0  0  0  0  0  0  0  0  0  0
   -0.8077    2.3383   -1.3850 H   0  0  0  0  0  0  0  0  0  0  0  0
   -1.3337    2.0753    0.7119 H   0  0  0  0  0  0  0  0  0  0  0  0
   -2.9252    1.6802    0.1043 H   0  0  0  0  0  0  0  0  0  0  0  0
   -2.5523   -0.5661   -0.2720 H   0  0  0  0  0  0  0  0  0  0  0  0
   -0.8723   -0.2579    2.2759 H   0  0  0  0  0  0  0  0  0  0  0  0
   -2.3417   -1.1388    1.9167 H   0  0  0  0  0  0  0  0  0  0  0  0
    0.2836   -2.3357   -0.6808 H   0  0  0  0  0  0  0  0  0  0  0  0
   -1.4970   -2.2463   -0.9457 H   0  0  0  0  0  0  0  0  0  0  0  0
    2.1001   -0.2339   -1.7581 H   0  0  0  0  0  0  0  0  0  0  0  0
    3.9845    0.2675   -0.1998 H   0  0  0  0  0  0  0  0  0  0  0  0
  1  2  2  3
  2  3  1  0
  3  4  2  0
  5  4  1  1
  5  6  1  0
  6  7  1  0
  7  8  1  0
  8  9  1  0
  9 10  1  0
 10 11  1  0
 11 12  1  0
  4 13  1  0
 13 14  1  0
 14  2  1  0
  9  5  1  0
 12  5  1  0
  1 15  1  0
  6 16  1  0
  6 17  1  0
  7 18  1  0
  8 19  1  0
  8 20  1  0
  9 21  1  6
 10 22  1  0
 10 23  1  0
 12 24  1  0
 12 25  1  0
 13 26  1  0
 14 27  1  0
M  END
$$$$

     RDKit          3D

 27 29  0  0  0  0  0  0  0  0999 V2000
    3.0916    1.3049   -2.2740 N   0  0  0  0  0  0  0  0  0  0  0  0
    2.4536    0.5568   -1.4985 C   0  0  0  0  0  0  0  0  0  0  0  0
    1.3078    0.8552   -0.8707 N   0  0  0  0  0  0  0  0  0  0  0  0
    0.8624   -0.1630   -0.1052 C   0  0  0  0  0  0  0  0  0  0  0  0
   -0.2931   -0.1620    0.7281 C   0  0  2  0  0  0  0  0  0  0  0  0
   -0.8438   -1.4468    1.1447 C   0  0  0  0  0  0  0  0  0  0  0  0
   -1.8029   -1.7671    0.0439 N   0  0  0  0  0  0  0  0  0  0  0  0
   -2.0026   -0.5209   -0.7311 C   0  0  0  0  0  0  0  0  0  0  0  0
   -1.5674    0.4764    0.1912 C   0  0  2  0  0  0  0  0  0  0  0  0
   -1.0747    1.8040   -0.0801 C   0  0  0  0  0  0  0  0  0  0  0  0
   -0.1421    2.0597    0.9583 O   0  0  0  0  0  0  0  0  0  0  0  0
   -0.1336    0.9061    1.7943 C   0  0  0  0  0  0  0  0  0  0  0  0
    1.7739   -1.1399   -0.2648 N   0  0  0  0  0  0  0  0  0  0  0  0
    2.7181   -0.7040   -1.0952 N   0  0  0  0  0  0  0  0  0  0  0  0
    3.9945    1.0534   -2.7581 H   0  0  0  0  0  0  0  0  0  0  0  0
   -1.3753   -1.3622    2.0897 H   0  0  0  0  0  0  0  0  0  0  0  0
   -0.1214   -2.2841    1.2357 H   0  0  0  0  0  0  0  0  0  0  0  0
   -2.7198   -1.9686    0.5258 H   0  0  0  0  0  0  0  0  0  0  0  0
   -3.1355   -0.4322   -0.8995 H   0  0  0  0  0  0  0  0  0  0  0  0
   -1.5490   -0.5902   -1.7211 H   0  0  0  0  0  0  0  0  0  0  0  0
   -2.2637    0.5169    1.0882 H   0  0  0  0  0  0  0  0  0  0  0  0
   -0.6875    2.0599   -1.0558 H   0  0  0  0  0  0  0  0  0  0  0  0
   -1.9176    2.5419    0.1098 H   0  0  0  0  0  0  0  0  0  0  0  0
   -0.8788    0.8921    2.5546 H   0  0  0  0  0  0  0  0  0  0  0  0
    0.9228    0.8424    2.1706 H   0  0  0  0  0  0  0  0  0  0  0  0
    1.8032   -2.0971    0.1540 H   0  0  0  0  0  0  0  0  0  0  0  0
    3.5811   -1.2316   -1.4349 H   0  0  0  0  0  0  0  0  0  0  0  0
  1  2  2  3
  2  3  1  0
  3  4  2  0
  5  4  1  6
  5  6  1  0
  6  7  1  0
  7  8  1  0
  8  9  1  0
  9 10  1  0
 10 11  1  0
 11 12  1  0
  4 13  1  0
 13 14  1  0
 14  2  1  0
  9  5  1  0
 12  5  1  0
  1 15  1  0
  6 16  1  0
  6 17  1  0
  7 18  1  0
  8 19  1  0
  8 20  1  0
  9 21  1  1
 10 22  1  0
 10 23  1  0
 12 24  1  0
 12 25  1  0
 13 26  1  0
 14 27  1  0
M  END
$$$$

     RDKit          3D

 27 29  0  0  0  0  0  0  0  0999 V2000
    3.3044    1.0316    2.1107 N   0  0  0  0  0  0  0  0  0  0  0  0
    2.4653    0.3580    1.3623 C   0  0  0  0  0  0  0  0  0  0  0  0
    1.1844    0.6000    1.0841 N   0  0  0  0  0  0  0  0  0  0  0  0
    0.7248   -0.3375    0.2607 C   0  0  0  0  0  0  0  0  0  0  0  0
   -0.5882   -0.5099   -0.3622 C   0  0  2  0  0  0  0  0  0  0  0  0
   -0.5636    0.0095   -1.7581 C   0  0  0  0  0  0  0  0  0  0  0  0
   -0.2227    1.4181   -1.4463 N   0  0  0  0  0  0  0  0  0  0  0  0
   -0.9411    1.7315   -0.2142 C   0  0  0  0  0  0  0  0  0  0  0  0
   -1.6105    0.5230    0.1481 C   0  0  2  0  0  0  0  0  0  0  0  0
   -1.8080   -0.0141    1.4660 C   0  0  0  0  0  0  0  0  0  0  0  0
   -1.7585   -1.3894    1.3149 O   0  0  0  0  0  0  0  0  0  0  0  0
   -1.3258   -1.6800    0.0200 C   0  0  0  0  0  0  0  0  0  0  0  0
    1.7491   -1.1801    0.0279 N   0  0  0  0  0  0  0  0  0  0  0  0
    2.8047   -0.7599    0.6962 N   0  0  0  0  0  0  0  0  0  0  0  0
    4.2850    0.7424    2.2477 H   0  0  0  0  0  0  0  0  0  0  0  0
   -1.5080    0.0170   -2.2460 H   0  0  0  0  0  0  0  0  0  0  0  0
    0.2579   -0.4484   -2.2992 H   0  0  0  0  0  0  0  0  0  0  0  0
   -0.4233    2.0412   -2.2291 H   0  0  0  0  0  0  0  0  0  0  0  0
   -1.7235    2.4912   -0.5233 H   0  0  0  0  0  0  0  0  0  0  0  0
   -0.3241    2.2735    0.5127 H   0  0  0  0  0  0  0  0  0  0  0  0
   -2.5099    0.3398   -0.4768 H   0  0  0  0  0  0  0  0  0  0  0  0
   -1.1804    0.3373    2.3037 H   0  0  0  0  0  0  0  0  0  0  0  0
   -2.8746    0.1886    1.7936 H   0  0  0  0  0  0  0  0  0  0  0  0
   -0.6989   -2.6002    0.0253 H   0  0  0  0  0  0  0  0  0  0  0  0
   -2.2124   -1.8897   -0.6453 H   0  0  0  0  0  0  0  0  0  0  0  0
    1.7541   -2.0349   -0.5726 H   0  0  0  0  0  0  0  0  0  0  0  0
    3.7437   -1.2588    0.6816 H   0  0  0  0  0  0  0  0  0  0  0  0
  1  2  2  3
  2  3  1  0
  3  4  2  0
  5  4  1  1
  5  6  1  0
  6  7  1  0
  7  8  1  0
  8  9  1  0
  9 10  1  0
 10 11  1  0
 11 12  1  0
  4 13  1  0
 13 14  1  0
 14  2  1  0
  9  5  1  0
 12  5  1  0
  1 15  1  0
  6 16  1  0
  6 17  1  0
  7 18  1  0
  8 19  1  0
  8 20  1  0
  9 21  1  6
 10 22  1  0
 10 23  1  0
 12 24  1  0
 12 25  1  0
 13 26  1  0
 14 27  1  0
M  END
$$$$

     RDKit          3D

 27 29  0  0  0  0  0  0  0  0999 V2000
    3.8039    1.2153   -1.6158 N   0  0  0  0  0  0  0  0  0  0  0  0
    2.7163    0.5530   -1.2752 C   0  0  0  0  0  0  0  0  0  0  0  0
    1.8814    0.9232   -0.2616 N   0  0  0  0  0  0  0  0  0  0  0  0
    0.8509    0.0079   -0.1852 C   0  0  0  0  0  0  0  0  0  0  0  0
   -0.2145    0.0497    0.7854 C   0  0  2  0  0  0  0  0  0  0  0  0
   -0.3738   -1.1938    1.5588 C   0  0  0  0  0  0  0  0  0  0  0  0
   -1.0812   -2.0206    0.5471 N   0  0  0  0  0  0  0  0  0  0  0  0
   -1.8309   -1.1298   -0.3125 C   0  0  0  0  0  0  0  0  0  0  0  0
   -1.6309    0.1710    0.2672 C   0  0  2  0  0  0  0  0  0  0  0  0
   -1.4856    1.4300   -0.4351 C   0  0  0  0  0  0  0  0  0  0  0  0
   -0.7499    2.2166    0.4729 O   0  0  0  0  0  0  0  0  0  0  0  0
   -0.2246    1.3713    1.4634 C   0  0  0  0  0  0  0  0  0  0  0  0
    1.0928   -0.8720   -1.1386 N   0  0  0  0  0  0  0  0  0  0  0  0
    2.2197   -0.5442   -1.7965 N   0  0  0  0  0  0  0  0  0  0  0  0
    4.0367    2.0728   -1.0729 H   0  0  0  0  0  0  0  0  0  0  0  0
    0.6053   -1.6684    1.7161 H   0  0  0  0  0  0  0  0  0  0  0  0
   -0.9152   -1.0795    2.4821 H   0  0  0  0  0  0  0  0  0  0  0  0
   -1.6711   -2.6782    1.0961 H   0  0  0  0  0  0  0  0  0  0  0  0
   -2.9139   -1.4553   -0.1475 H   0  0  0  0  0  0  0  0  0  0  0  0
   -1.6695   -1.2450   -1.3721 H   0  0  0  0  0  0  0  0  0  0  0  0
   -2.2661    0.3071    1.1939 H   0  0  0  0  0  0  0  0  0  0  0  0
   -0.8523    1.3195   -1.3392 H   0  0  0  0  0  0  0  0  0  0  0  0
   -2.4141    1.9808   -0.6880 H   0  0  0  0  0  0  0  0  0  0  0  0
   -0.9102    1.4050    2.2943 H   0  0  0  0  0  0  0  0  0  0  0  0
    0.7598    1.6701    1.8038 H   0  0  0  0  0  0  0  0  0  0  0  0
    0.5820   -1.7319   -1.4276 H   0  0  0  0  0  0  0  0  0  0  0  0
    2.6550   -1.0747   -2.6135 H   0  0  0  0  0  0  0  0  0  0  0  0
  1  2  2  3
  2  3  1  0
  3  4  2  0
  5  4  1  6
  5  6  1  0
  6  7  1  0
  7  8  1  0
  8  9  1  0
  9 10  1  0
 10 11  1  0
 11 12  1  0
  4 13  1  0
 13 14  1  0
 14  2  1  0
  9  5  1  0
 12  5  1  0
  1 15  1  0
  6 16  1  0
  6 17  1  0
  7 18  1  0
  8 19  1  0
  8 20  1  0
  9 21  1  1
 10 22  1  0
 10 23  1  0
 12 24  1  0
 12 25  1  0
 13 26  1  0
 14 27  1  0
M  END
$$$$

     RDKit          3D

 27 29  0  0  0  0  0  0  0  0999 V2000
    2.4644   -0.1587    3.5054 N   0  0  0  0  0  0  0  0  0  0  0  0
    2.0777   -0.1000    2.2328 C   0  0  0  0  0  0  0  0  0  0  0  0
    0.9388   -0.7015    1.7668 N   0  0  0  0  0  0  0  0  0  0  0  0
    0.7401   -0.3075    0.4568 C   0  0  0  0  0  0  0  0  0  0  0  0
   -0.3829   -0.6848   -0.3258 C   0  0  2  0  0  0  0  0  0  0  0  0
   -0.1074   -1.1018   -1.6830 C   0  0  0  0  0  0  0  0  0  0  0  0
   -0.1492    0.1331   -2.5194 N   0  0  0  0  0  0  0  0  0  0  0  0
   -0.7472    1.1662   -1.6874 C   0  0  0  0  0  0  0  0  0  0  0  0
   -1.3766    0.4576   -0.6453 C   0  0  2  0  0  0  0  0  0  0  0  0
   -1.6893    0.8029    0.7212 C   0  0  0  0  0  0  0  0  0  0  0  0
   -2.0333   -0.4650    1.2779 O   0  0  0  0  0  0  0  0  0  0  0  0
   -1.4537   -1.4437    0.4176 C   0  0  0  0  0  0  0  0  0  0  0  0
    1.8326    0.5068    0.2878 N   0  0  0  0  0  0  0  0  0  0  0  0
    2.5631    0.6267    1.2269 N   0  0  0  0  0  0  0  0  0  0  0  0
    3.3785    0.3934    3.6243 H   0  0  0  0  0  0  0  0  0  0  0  0
   -0.7986   -1.8806   -2.0967 H   0  0  0  0  0  0  0  0  0  0  0  0
    0.9513   -1.4916   -1.8373 H   0  0  0  0  0  0  0  0  0  0  0  0
   -0.9133   -0.0699   -3.2442 H   0  0  0  0  0  0  0  0  0  0  0  0
    0.0320    1.9238   -1.5263 H   0  0  0  0  0  0  0  0  0  0  0  0
   -1.5080    1.7243   -2.3465 H   0  0  0  0  0  0  0  0  0  0  0  0
   -2.2878   -0.0853   -1.0511 H   0  0  0  0  0  0  0  0  0  0  0  0
   -2.6209    1.3984    0.7972 H   0  0  0  0  0  0  0  0  0  0  0  0
   -0.9687    1.3014    1.3641 H   0  0  0  0  0  0  0  0  0  0  0  0
   -1.1202   -2.3013    0.9923 H   0  0  0  0  0  0  0  0  0  0  0  0
   -2.1984   -1.7984   -0.3561 H   0  0  0  0  0  0  0  0  0  0  0  0
    1.9031    0.9508   -0.6872 H   0  0  0  0  0  0  0  0  0  0  0  0
    3.4742    1.2046    1.3353 H   0  0  0  0  0  0  0  0  0  0  0  0
  1  2  2  3
  2  3  1  0
  3  4  2  0
  5  4  1  1
  5  6  1  0
  6  7  1  0
  7  8  1  0
  8  9  1  0
  9 10  1  0
 10 11  1  0
 11 12  1  0
  4 13  1  0
 13 14  1  0
 14  2  1  0
  9  5  1  0
 12  5  1  0
  1 15  1  0
  6 16  1  0
  6 17  1  0
  7 18  1  0
  8 19  1  0
  8 20  1  0
  9 21  1  6
 10 22  1  0
 10 23  1  0
 12 24  1  0
 12 25  1  0
 13 26  1  0
 14 27  1  0
M  END
$$$$

     RDKit          3D

 27 29  0  0  0  0  0  0  0  0999 V2000
    3.5759    1.4262   -0.9404 N   0  0  0  0  0  0  0  0  0  0  0  0
    2.7216    0.5719   -0.5891 C   0  0  0  0  0  0  0  0  0  0  0  0
    1.4512    0.9782   -0.1805 N   0  0  0  0  0  0  0  0  0  0  0  0
    0.7719   -0.0726    0.2174 C   0  0  0  0  0  0  0  0  0  0  0  0
   -0.5773   -0.1299    0.7588 C   0  0  2  0  0  0  0  0  0  0  0  0
   -1.1500   -1.4734    0.8619 C   0  0  0  0  0  0  0  0  0  0  0  0
   -1.3999   -1.7815   -0.5420 N   0  0  0  0  0  0  0  0  0  0  0  0
   -1.5708   -0.5022   -1.2457 C   0  0  0  0  0  0  0  0  0  0  0  0
   -1.6558    0.4509   -0.1699 C   0  0  2  0  0  0  0  0  0  0  0  0
   -1.1736    1.8180   -0.1988 C   0  0  0  0  0  0  0  0  0  0  0  0
   -0.6749    2.0840    1.0931 O   0  0  0  0  0  0  0  0  0  0  0  0
   -0.7554    0.8741    1.8315 C   0  0  0  0  0  0  0  0  0  0  0  0
    1.5878   -1.1468    0.0684 N   0  0  0  0  0  0  0  0  0  0  0  0
    2.7454   -0.7263   -0.4162 N   0  0  0  0  0  0  0  0  0  0  0  0
    4.5069    1.4726   -1.2607 H   0  0  0  0  0  0  0  0  0  0  0  0
   -2.1276   -1.4148    1.3606 H   0  0  0  0  0  0  0  0  0  0  0  0
   -0.4798   -2.2279    1.3207 H   0  0  0  0  0  0  0  0  0  0  0  0
   -0.6255   -2.3165   -0.9865 H   0  0  0  0  0  0  0  0  0  0  0  0
   -0.7981   -0.3391   -1.9952 H   0  0  0  0  0  0  0  0  0  0  0  0
   -2.5403   -0.6299   -1.8069 H   0  0  0  0  0  0  0  0  0  0  0  0
   -2.6158    0.3848    0.3922 H   0  0  0  0  0  0  0  0  0  0  0  0
   -0.4813    2.1026   -0.9944 H   0  0  0  0  0  0  0  0  0  0  0  0
   -2.0578    2.5126   -0.3025 H   0  0  0  0  0  0  0  0  0  0  0  0
    0.0863    0.7957    2.5548 H   0  0  0  0  0  0  0  0  0  0  0  0
   -1.6796    0.7885    2.3991 H   0  0  0  0  0  0  0  0  0  0  0  0
    1.3536   -2.1402    0.3002 H   0  0  0  0  0  0  0  0  0  0  0  0
    3.5629   -1.3591   -0.6217 H   0  0  0  0  0  0  0  0  0  0  0  0
  1  2  2  3
  2  3  1  0
  3  4  2  0
  5  4  1  6
  5  6  1  0
  6  7  1  0
  7  8  1  0
  8  9  1  0
  9 10  1  0
 10 11  1  0
 11 12  1  0
  4 13  1  0
 13 14  1  0
 14  2  1  0
  9  5  1  0
 12  5  1  0
  1 15  1  0
  6 16  1  0
  6 17  1  0
  7 18  1  0
  8 19  1  0
  8 20  1  0
  9 21  1  1
 10 22  1  0
 10 23  1  0
 12 24  1  0
 12 25  1  0
 13 26  1  0
 14 27  1  0
M  END
$$$$
