
     RDKit          3D

 28 28  0  0  0  0  0  0  0  0999 V2000
    4.3643    0.1554    1.7733 C   0  0  0  0  0  0  0  0  0  0  0  0
    3.0511   -0.4216    1.5149 N   0  0  0  0  0  0  0  0  0  0  0  0
    2.0984    0.2278    0.6873 C   0  0  0  0  0  0  0  0  0  0  0  0
    2.3877    1.3282    0.1609 O   0  0  0  0  0  0  0  0  0  0  0  0
    0.7693   -0.3919    0.4474 C   0  0  2  0  0  0  0  0  0  0  0  0
    0.9866   -1.7388   -0.2302 C   0  0  0  0  0  0  0  0  0  0  0  0
   -0.0304    0.4435   -0.4219 N   0  0  0  0  0  0  0  0  0  0  0  0
   -1.3265    0.3459   -0.4556 C   0  0  0  0  0  0  0  0  0  0  0  0
   -2.0689   -0.5026    0.2759 N   0  0  0  0  0  0  0  0  0  0  0  0
   -3.3759   -0.3382   -0.0071 C   0  0  0  0  0  0  0  0  0  0  0  0
   -4.3939   -0.9627    0.4853 N   0  0  0  0  0  0  0  0  0  0  0  0
   -3.4073    0.6376   -0.9346 N   0  0  0  0  0  0  0  0  0  0  0  0
   -2.1903    1.0499   -1.2067 N   0  0  0  0  0  0  0  0  0  0  0  0
   -1.7716    2.0899   -2.1512 C   0  0  0  0  0  0  0  0  0  0  0  0
    5.1226   -0.4044    1.1685 H   0  0  0  0  0  0  0  0  0  0  0  0
    4.5951    0.1207    2.8494 H   0  0  0  0  0  0  0  0  0  0  0  0
    4.3983    1.2212    1.4534 H   0  0  0  0  0  0  0  0  0  0  0  0
    2.8275   -1.3278    1.9551 H   0  0  0  0  0  0  0  0  0  0  0  0
    0.2554   -0.5981    1.4122 H   0  0  0  0  0  0  0  0  0  0  0  0
    1.0575   -2.5196    0.5484 H   0  0  0  0  0  0  0  0  0  0  0  0
    0.1244   -1.8920   -0.9169 H   0  0  0  0  0  0  0  0  0  0  0  0
    1.8935   -1.7539   -0.8555 H   0  0  0  0  0  0  0  0  0  0  0  0
   -1.7190   -1.1992    0.9699 H   0  0  0  0  0  0  0  0  0  0  0  0
   -4.2862   -1.6972    1.1916 H   0  0  0  0  0  0  0  0  0  0  0  0
   -4.2692    1.0155   -1.3766 H   0  0  0  0  0  0  0  0  0  0  0  0
   -1.2600    1.6577   -3.0318 H   0  0  0  0  0  0  0  0  0  0  0  0
   -2.6705    2.6180   -2.5232 H   0  0  0  0  0  0  0  0  0  0  0  0
   -1.1619    2.8367   -1.6146 H   0  0  0  0  0  0  0  0  0  0  0  0
  1  2  1  0
  2  3  1  0
  3  4  2  0
  3  5  1  0
  5  6  1  0
  5  7  1  0
  7  8  2  3
  8  9  1  0
  9 10  1  0
 10 11  2  3
 10 12  1  0
 12 13  1  0
 13 14  1  0
 13  8  1  0
  1 15  1  0
  1 16  1  0
  1 17  1  0
  2 18  1  0
  5 19  1  1
  6 20  1  0
  6 21  1  0
  6 22  1  0
  9 23  1  0
 11 24  1  0
 12 25  1  0
 14 26  1  0
 14 27  1  0
 14 28  1  0
M  END
$$$$

     RDKit          3D

 28 28  0  0  0  0  0  0  0  0999 V2000
    3.7749   -1.4810    0.5518 C   0  0  0  0  0  0  0  0  0  0  0  0
    2.8617   -0.7711   -0.3445 N   0  0  0  0  0  0  0  0  0  0  0  0
    1.7031   -0.1127    0.1390 C   0  0  0  0  0  0  0  0  0  0  0  0
    1.4621   -0.1433    1.3601 O   0  0  0  0  0  0  0  0  0  0  0  0
    0.7750    0.6075   -0.7637 C   0  0  2  0  0  0  0  0  0  0  0  0
    1.6246    1.6416   -1.4851 C   0  0  0  0  0  0  0  0  0  0  0  0
   -0.2806    1.1618   -0.0198 N   0  0  0  0  0  0  0  0  0  0  0  0
   -1.4149    0.7471    0.3161 C   0  0  0  0  0  0  0  0  0  0  0  0
   -2.2668    1.4879    1.0510 N   0  0  0  0  0  0  0  0  0  0  0  0
   -3.3798    0.7656    1.2355 C   0  0  0  0  0  0  0  0  0  0  0  0
   -4.4543    1.1175    1.8951 N   0  0  0  0  0  0  0  0  0  0  0  0
   -3.2173   -0.4143    0.6188 N   0  0  0  0  0  0  0  0  0  0  0  0
   -2.0166   -0.4170    0.0610 N   0  0  0  0  0  0  0  0  0  0  0  0
   -1.4938   -1.5578   -0.7045 C   0  0  0  0  0  0  0  0  0  0  0  0
    4.5435   -0.7845    0.9390 H   0  0  0  0  0  0  0  0  0  0  0  0
    3.2126   -1.8483    1.4330 H   0  0  0  0  0  0  0  0  0  0  0  0
    4.2198   -2.3054   -0.0117 H   0  0  0  0  0  0  0  0  0  0  0  0
    3.0397   -0.7308   -1.3649 H   0  0  0  0  0  0  0  0  0  0  0  0
    0.4609   -0.1091   -1.5704 H   0  0  0  0  0  0  0  0  0  0  0  0
    1.0346    2.2747   -2.1677 H   0  0  0  0  0  0  0  0  0  0  0  0
    2.3394    1.0691   -2.1132 H   0  0  0  0  0  0  0  0  0  0  0  0
    2.2271    2.2133   -0.7559 H   0  0  0  0  0  0  0  0  0  0  0  0
   -2.1041    2.4707    1.4265 H   0  0  0  0  0  0  0  0  0  0  0  0
   -4.5030    2.0558    2.3481 H   0  0  0  0  0  0  0  0  0  0  0  0
   -3.9298   -1.2000    0.5886 H   0  0  0  0  0  0  0  0  0  0  0  0
   -1.5331   -1.3880   -1.7887 H   0  0  0  0  0  0  0  0  0  0  0  0
   -2.1735   -2.4487   -0.5392 H   0  0  0  0  0  0  0  0  0  0  0  0
   -0.5111   -1.9002   -0.3342 H   0  0  0  0  0  0  0  0  0  0  0  0
  1  2  1  0
  2  3  1  0
  3  4  2  0
  3  5  1  0
  5  6  1  0
  5  7  1  0
  7  8  2  3
  8  9  1  0
  9 10  1  0
 10 11  2  3
 10 12  1  0
 12 13  1  0
 13 14  1  0
 13  8  1  0
  1 15  1  0
  1 16  1  0
  1 17  1  0
  2 18  1  0
  5 19  1  6
  6 20  1  0
  6 21  1  0
  6 22  1  0
  9 23  1  0
 11 24  1  0
 12 25  1  0
 14 26  1  0
 14 27  1  0
 14 28  1  0
M  END
$$$$

     RDKit          3D

 28 28  0  0  0  0  0  0  0  0999 V2000
    3.2751    1.3622    2.1241 C   0  0  0  0  0  0  0  0  0  0  0  0
    2.7887    1.0290    0.7828 N   0  0  0  0  0  0  0  0  0  0  0  0
    1.7182    0.1356    0.5638 C   0  0  0  0  0  0  0  0  0  0  0  0
    1.1579   -0.3968    1.5569 O   0  0  0  0  0  0  0  0  0  0  0  0
    1.2537   -0.1764   -0.8215 C   0  0  2  0  0  0  0  0  0  0  0  0
    0.9408    1.0591   -1.6126 C   0  0  0  0  0  0  0  0  0  0  0  0
    0.1557   -1.0959   -0.8301 N   0  0  0  0  0  0  0  0  0  0  0  0
   -0.9650   -0.7147   -0.3125 C   0  0  0  0  0  0  0  0  0  0  0  0
   -1.3062    0.4366    0.2579 N   0  0  0  0  0  0  0  0  0  0  0  0
   -2.6049    0.3677    0.6541 C   0  0  0  0  0  0  0  0  0  0  0  0
   -3.2674    1.3090    1.2456 N   0  0  0  0  0  0  0  0  0  0  0  0
   -3.0650   -0.8469    0.3197 N   0  0  0  0  0  0  0  0  0  0  0  0
   -2.0718   -1.4921   -0.2616 N   0  0  0  0  0  0  0  0  0  0  0  0
   -2.1611   -2.8588   -0.7776 C   0  0  0  0  0  0  0  0  0  0  0  0
    3.5652    2.4333    2.0792 H   0  0  0  0  0  0  0  0  0  0  0  0
    2.4883    1.2341    2.8745 H   0  0  0  0  0  0  0  0  0  0  0  0
    4.1947    0.7986    2.3687 H   0  0  0  0  0  0  0  0  0  0  0  0
    3.2315    1.4538   -0.0696 H   0  0  0  0  0  0  0  0  0  0  0  0
    2.1167   -0.7163   -1.2924 H   0  0  0  0  0  0  0  0  0  0  0  0
    1.6247    1.0982   -2.4841 H   0  0  0  0  0  0  0  0  0  0  0  0
    1.1555    1.9480   -0.9814 H   0  0  0  0  0  0  0  0  0  0  0  0
   -0.1214    1.0086   -1.9274 H   0  0  0  0  0  0  0  0  0  0  0  0
   -0.6912    1.2643    0.3875 H   0  0  0  0  0  0  0  0  0  0  0  0
   -2.8280    2.2153    1.4638 H   0  0  0  0  0  0  0  0  0  0  0  0
   -4.0243   -1.2246    0.4820 H   0  0  0  0  0  0  0  0  0  0  0  0
   -3.2103   -3.1463   -0.9449 H   0  0  0  0  0  0  0  0  0  0  0  0
   -1.6274   -2.9418   -1.7355 H   0  0  0  0  0  0  0  0  0  0  0  0
   -1.7227   -3.5429   -0.0342 H   0  0  0  0  0  0  0  0  0  0  0  0
  1  2  1  0
  2  3  1  0
  3  4  2  0
  3  5  1  0
  5  6  1  0
  5  7  1  0
  7  8  2  3
  8  9  1  0
  9 10  1  0
 10 11  2  3
 10 12  1  0
 12 13  1  0
 13 14  1  0
 13  8  1  0
  1 15  1  0
  1 16  1  0
  1 17  1  0
  2 18  1  0
  5 19  1  6
  6 20  1  0
  6 21  1  0
  6 22  1  0
  9 23  1  0
 11 24  1  0
 12 25  1  0
 14 26  1  0
 14 27  1  0
 14 28  1  0
M  END
$$$$

     RDKit          3D

 28 28  0  0  0  0  0  0  0  0999 V2000
    4.0080    0.2240   -1.5933 C   0  0  0  0  0  0  0  0  0  0  0  0
    3.1467    0.4493   -0.4632 N   0  0  0  0  0  0  0  0  0  0  0  0
    1.8324   -0.0949   -0.4196 C   0  0  0  0  0  0  0  0  0  0  0  0
    1.4526   -0.7778   -1.4016 O   0  0  0  0  0  0  0  0  0  0  0  0
    0.9224    0.1202    0.7309 C   0  0  2  0  0  0  0  0  0  0  0  0
    1.6027   -0.5351    1.9386 C   0  0  0  0  0  0  0  0  0  0  0  0
   -0.3021   -0.5456    0.4711 N   0  0  0  0  0  0  0  0  0  0  0  0
   -1.3913   -0.0296    0.0804 C   0  0  0  0  0  0  0  0  0  0  0  0
   -1.6206    1.2601   -0.1717 N   0  0  0  0  0  0  0  0  0  0  0  0
   -2.8992    1.4387   -0.5688 C   0  0  0  0  0  0  0  0  0  0  0  0
   -3.5365    2.4856   -0.9045 N   0  0  0  0  0  0  0  0  0  0  0  0
   -3.4587    0.1984   -0.5529 N   0  0  0  0  0  0  0  0  0  0  0  0
   -2.5371   -0.6690   -0.1604 N   0  0  0  0  0  0  0  0  0  0  0  0
   -2.7683   -2.0957   -0.0223 C   0  0  0  0  0  0  0  0  0  0  0  0
    5.0707    0.1820   -1.2301 H   0  0  0  0  0  0  0  0  0  0  0  0
    3.8654    0.9706   -2.3923 H   0  0  0  0  0  0  0  0  0  0  0  0
    3.8293   -0.7727   -2.0602 H   0  0  0  0  0  0  0  0  0  0  0  0
    3.4670    1.0168    0.3491 H   0  0  0  0  0  0  0  0  0  0  0  0
    0.8100    1.2022    0.9697 H   0  0  0  0  0  0  0  0  0  0  0  0
    1.2706   -1.5860    2.0638 H   0  0  0  0  0  0  0  0  0  0  0  0
    2.7086   -0.5919    1.7735 H   0  0  0  0  0  0  0  0  0  0  0  0
    1.3917    0.0281    2.8698 H   0  0  0  0  0  0  0  0  0  0  0  0
   -0.9658    2.0881   -0.1006 H   0  0  0  0  0  0  0  0  0  0  0  0
   -3.1741    3.4418   -0.9368 H   0  0  0  0  0  0  0  0  0  0  0  0
   -4.4432   -0.0402   -0.8045 H   0  0  0  0  0  0  0  0  0  0  0  0
   -2.2108   -2.4179    0.8914 H   0  0  0  0  0  0  0  0  0  0  0  0
   -3.8365   -2.3324    0.0118 H   0  0  0  0  0  0  0  0  0  0  0  0
   -2.2337   -2.6169   -0.8693 H   0  0  0  0  0  0  0  0  0  0  0  0
  1  2  1  0
  2  3  1  0
  3  4  2  0
  3  5  1  0
  5  6  1  0
  5  7  1  0
  7  8  2  3
  8  9  1  0
  9 10  1  0
 10 11  2  3
 10 12  1  0
 12 13  1  0
 13 14  1  0
 13  8  1  0
  1 15  1  0
  1 16  1  0
  1 17  1  0
  2 18  1  0
  5 19  1  1
  6 20  1  0
  6 21  1  0
  6 22  1  0
  9 23  1  0
 11 24  1  0
 12 25  1  0
 14 26  1  0
 14 27  1  0
 14 28  1  0
M  END
$$$$

     RDKit          3D

 28 28  0  0  0  0  0  0  0  0999 V2000
    3.7623   -1.2483   -1.4034 C   0  0  0  0  0  0  0  0  0  0  0  0
    3.0457   -0.4895   -0.4013 N   0  0  0  0  0  0  0  0  0  0  0  0
    1.7813    0.0858   -0.5996 C   0  0  0  0  0  0  0  0  0  0  0  0
    1.2106   -0.0506   -1.7094 O   0  0  0  0  0  0  0  0  0  0  0  0
    1.1546    0.8443    0.5212 C   0  0  2  0  0  0  0  0  0  0  0  0
    1.0917   -0.0332    1.7479 C   0  0  0  0  0  0  0  0  0  0  0  0
   -0.1335    1.3619    0.1759 N   0  0  0  0  0  0  0  0  0  0  0  0
   -1.1002    0.5682   -0.0860 C   0  0  0  0  0  0  0  0  0  0  0  0
   -1.1092   -0.7639   -0.0915 N   0  0  0  0  0  0  0  0  0  0  0  0
   -2.3423   -1.1900   -0.4242 C   0  0  0  0  0  0  0  0  0  0  0  0
   -2.6973   -2.4073   -0.5225 N   0  0  0  0  0  0  0  0  0  0  0  0
   -3.0991   -0.1191   -0.6254 N   0  0  0  0  0  0  0  0  0  0  0  0
   -2.3629    0.9489   -0.4248 N   0  0  0  0  0  0  0  0  0  0  0  0
   -2.8094    2.3223   -0.5417 C   0  0  0  0  0  0  0  0  0  0  0  0
    3.3634   -1.0185   -2.4138 H   0  0  0  0  0  0  0  0  0  0  0  0
    3.5957   -2.3283   -1.2080 H   0  0  0  0  0  0  0  0  0  0  0  0
    4.8467   -1.0550   -1.3509 H   0  0  0  0  0  0  0  0  0  0  0  0
    3.5143   -0.3711    0.5265 H   0  0  0  0  0  0  0  0  0  0  0  0
    1.8380    1.7162    0.6879 H   0  0  0  0  0  0  0  0  0  0  0  0
    1.5714   -1.0052    1.5354 H   0  0  0  0  0  0  0  0  0  0  0  0
    1.6298    0.5107    2.5748 H   0  0  0  0  0  0  0  0  0  0  0  0
    0.0564   -0.1625    2.1304 H   0  0  0  0  0  0  0  0  0  0  0  0
   -0.3197   -1.4103    0.1194 H   0  0  0  0  0  0  0  0  0  0  0  0
   -3.6529   -2.7041   -0.7803 H   0  0  0  0  0  0  0  0  0  0  0  0
   -4.1004   -0.0866   -0.8947 H   0  0  0  0  0  0  0  0  0  0  0  0
   -2.1337    2.9889    0.0461 H   0  0  0  0  0  0  0  0  0  0  0  0
   -2.7789    2.6551   -1.5978 H   0  0  0  0  0  0  0  0  0  0  0  0
   -3.8222    2.4411   -0.1362 H   0  0  0  0  0  0  0  0  0  0  0  0
  1  2  1  0
  2  3  1  0
  3  4  2  0
  3  5  1  0
  5  6  1  0
  5  7  1  0
  7  8  2  3
  8  9  1  0
  9 10  1  0
 10 11  2  3
 10 12  1  0
 12 13  1  0
 13 14  1  0
 13  8  1  0
  1 15  1  0
  1 16  1  0
  1 17  1  0
  2 18  1  0
  5 19  1  1
  6 20  1  0
  6 21  1  0
  6 22  1  0
  9 23  1  0
 11 24  1  0
 12 25  1  0
 14 26  1  0
 14 27  1  0
 14 28  1  0
M  END
$$$$

     RDKit          3D

 28 28  0  0  0  0  0  0  0  0999 V2000
    3.1521   -0.0805   -1.5473 C   0  0  0  0  0  0  0  0  0  0  0  0
    1.9579   -0.2410   -0.7415 N   0  0  0  0  0  0  0  0  0  0  0  0
    2.0670   -0.0793    0.6538 C   0  0  0  0  0  0  0  0  0  0  0  0
    3.1636    0.1939    1.1705 O   0  0  0  0  0  0  0  0  0  0  0  0
    0.8758   -0.2326    1.5245 C   0  0  2  0  0  0  0  0  0  0  0  0
    1.1417   -1.4479    2.4243 C   0  0  0  0  0  0  0  0  0  0  0  0
   -0.2508   -0.5406    0.7201 N   0  0  0  0  0  0  0  0  0  0  0  0
   -1.0512    0.2782    0.1629 C   0  0  0  0  0  0  0  0  0  0  0  0
   -1.0983    1.6084    0.1480 N   0  0  0  0  0  0  0  0  0  0  0  0
   -2.1508    1.9910   -0.5944 C   0  0  0  0  0  0  0  0  0  0  0  0
   -2.5267    3.2152   -0.8443 N   0  0  0  0  0  0  0  0  0  0  0  0
   -2.7533    0.8807   -1.0377 N   0  0  0  0  0  0  0  0  0  0  0  0
   -2.1013   -0.1494   -0.5889 N   0  0  0  0  0  0  0  0  0  0  0  0
   -2.4645   -1.5437   -0.8663 C   0  0  0  0  0  0  0  0  0  0  0  0
    2.8514    0.2969   -2.5484 H   0  0  0  0  0  0  0  0  0  0  0  0
    3.8112    0.6346   -1.0465 H   0  0  0  0  0  0  0  0  0  0  0  0
    3.6867   -1.0683   -1.6270 H   0  0  0  0  0  0  0  0  0  0  0  0
    1.0329   -0.4735   -1.1992 H   0  0  0  0  0  0  0  0  0  0  0  0
    0.7508    0.6521    2.1764 H   0  0  0  0  0  0  0  0  0  0  0  0
    0.2900   -1.6333    3.0908 H   0  0  0  0  0  0  0  0  0  0  0  0
    2.0705   -1.3087    2.9934 H   0  0  0  0  0  0  0  0  0  0  0  0
    1.2555   -2.3455    1.7571 H   0  0  0  0  0  0  0  0  0  0  0  0
   -0.4176    2.2213    0.6400 H   0  0  0  0  0  0  0  0  0  0  0  0
   -1.9671    4.0043   -0.4359 H   0  0  0  0  0  0  0  0  0  0  0  0
   -3.6039    0.8824   -1.6419 H   0  0  0  0  0  0  0  0  0  0  0  0
   -2.3817   -1.7771   -1.9358 H   0  0  0  0  0  0  0  0  0  0  0  0
   -1.8242   -2.1909   -0.2323 H   0  0  0  0  0  0  0  0  0  0  0  0
   -3.5156   -1.7465   -0.5743 H   0  0  0  0  0  0  0  0  0  0  0  0
  1  2  1  0
  2  3  1  0
  3  4  2  0
  3  5  1  0
  5  6  1  0
  5  7  1  0
  7  8  2  3
  8  9  1  0
  9 10  1  0
 10 11  2  3
 10 12  1  0
 12 13  1  0
 13 14  1  0
 13  8  1  0
  1 15  1  0
  1 16  1  0
  1 17  1  0
  2 18  1  0
  5 19  1  1
  6 20  1  0
  6 21  1  0
  6 22  1  0
  9 23  1  0
 11 24  1  0
 12 25  1  0
 14 26  1  0
 14 27  1  0
 14 28  1  0
M  END
$$$$

     RDKit          3D

 28 28  0  0  0  0  0  0  0  0999 V2000
    3.9481    1.1110   -1.0805 C   0  0  0  0  0  0  0  0  0  0  0  0
    3.0840    0.3796   -0.1639 N   0  0  0  0  0  0  0  0  0  0  0  0
    1.7546    0.0112   -0.5042 C   0  0  0  0  0  0  0  0  0  0  0  0
    1.3026    0.3236   -1.6321 O   0  0  0  0  0  0  0  0  0  0  0  0
    0.8797   -0.7337    0.4340 C   0  0  2  0  0  0  0  0  0  0  0  0
    1.5458   -2.1003    0.6383 C   0  0  0  0  0  0  0  0  0  0  0  0
   -0.3941   -0.9721   -0.1564 N   0  0  0  0  0  0  0  0  0  0  0  0
   -1.3579   -0.1112   -0.1075 C   0  0  0  0  0  0  0  0  0  0  0  0
   -1.3293    1.0992    0.4793 N   0  0  0  0  0  0  0  0  0  0  0  0
   -2.5252    1.7016    0.3183 C   0  0  0  0  0  0  0  0  0  0  0  0
   -2.9425    2.8457    0.7066 N   0  0  0  0  0  0  0  0  0  0  0  0
   -3.2812    0.8312   -0.3791 N   0  0  0  0  0  0  0  0  0  0  0  0
   -2.5839   -0.2616   -0.6381 N   0  0  0  0  0  0  0  0  0  0  0  0
   -3.0763   -1.4264   -1.3769 C   0  0  0  0  0  0  0  0  0  0  0  0
    4.5269    1.8442   -0.4843 H   0  0  0  0  0  0  0  0  0  0  0  0
    4.7005    0.4277   -1.5499 H   0  0  0  0  0  0  0  0  0  0  0  0
    3.3423    1.5687   -1.8688 H   0  0  0  0  0  0  0  0  0  0  0  0
    3.4098    0.0914    0.7951 H   0  0  0  0  0  0  0  0  0  0  0  0
    0.8262   -0.2406    1.4270 H   0  0  0  0  0  0  0  0  0  0  0  0
    0.7556   -2.8049    0.9497 H   0  0  0  0  0  0  0  0  0  0  0  0
    2.3334   -2.0409    1.3884 H   0  0  0  0  0  0  0  0  0  0  0  0
    1.9349   -2.4403   -0.3603 H   0  0  0  0  0  0  0  0  0  0  0  0
   -0.5486    1.5563    0.9891 H   0  0  0  0  0  0  0  0  0  0  0  0
   -2.4088    3.5411    1.2374 H   0  0  0  0  0  0  0  0  0  0  0  0
   -4.2758    0.9760   -0.6826 H   0  0  0  0  0  0  0  0  0  0  0  0
   -2.4824   -2.3305   -1.0988 H   0  0  0  0  0  0  0  0  0  0  0  0
   -3.0320   -1.2344   -2.4745 H   0  0  0  0  0  0  0  0  0  0  0  0
   -4.1065   -1.6117   -1.0153 H   0  0  0  0  0  0  0  0  0  0  0  0
  1  2  1  0
  2  3  1  0
  3  4  2  0
  3  5  1  0
  5  6  1  0
  5  7  1  0
  7  8  2  3
  8  9  1  0
  9 10  1  0
 10 11  2  3
 10 12  1  0
 12 13  1  0
 13 14  1  0
 13  8  1  0
  1 15  1  0
  1 16  1  0
  1 17  1  0
  2 18  1  0
  5 19  1  1
  6 20  1  0
  6 21  1  0
  6 22  1  0
  9 23  1  0
 11 24  1  0
 12 25  1  0
 14 26  1  0
 14 27  1  0
 14 28  1  0
M  END
$$$$

     RDKit          3D

 28 28  0  0  0  0  0  0  0  0999 V2000
    3.8597    0.5686    1.1831 C   0  0  0  0  0  0  0  0  0  0  0  0
    3.0539   -0.1009    0.1888 N   0  0  0  0  0  0  0  0  0  0  0  0
    1.6968   -0.4034    0.4249 C   0  0  0  0  0  0  0  0  0  0  0  0
    1.1891   -0.0784    1.5282 O   0  0  0  0  0  0  0  0  0  0  0  0
    0.8987   -1.0946   -0.6248 C   0  0  2  0  0  0  0  0  0  0  0  0
    1.0176   -0.3754   -1.9406 C   0  0  0  0  0  0  0  0  0  0  0  0
   -0.4658   -1.3010   -0.2174 N   0  0  0  0  0  0  0  0  0  0  0  0
   -1.2609   -0.3345    0.0034 C   0  0  0  0  0  0  0  0  0  0  0  0
   -0.9533    0.9644   -0.1075 N   0  0  0  0  0  0  0  0  0  0  0  0
   -2.1009    1.6286    0.2223 C   0  0  0  0  0  0  0  0  0  0  0  0
   -2.2683    2.8976    0.2526 N   0  0  0  0  0  0  0  0  0  0  0  0
   -3.0601    0.7403    0.5200 N   0  0  0  0  0  0  0  0  0  0  0  0
   -2.5557   -0.4709    0.3890 N   0  0  0  0  0  0  0  0  0  0  0  0
   -3.2710   -1.7094    0.6197 C   0  0  0  0  0  0  0  0  0  0  0  0
    4.7862    0.9930    0.7397 H   0  0  0  0  0  0  0  0  0  0  0  0
    4.1727   -0.1382    1.9867 H   0  0  0  0  0  0  0  0  0  0  0  0
    3.3211    1.4161    1.6505 H   0  0  0  0  0  0  0  0  0  0  0  0
    3.4567   -0.3873   -0.7527 H   0  0  0  0  0  0  0  0  0  0  0  0
    1.3459   -2.1293   -0.7077 H   0  0  0  0  0  0  0  0  0  0  0  0
    1.4282   -1.0329   -2.7425 H   0  0  0  0  0  0  0  0  0  0  0  0
    1.6468    0.5210   -1.7863 H   0  0  0  0  0  0  0  0  0  0  0  0
    0.0027   -0.0271   -2.2678 H   0  0  0  0  0  0  0  0  0  0  0  0
   -0.0560    1.4436   -0.3806 H   0  0  0  0  0  0  0  0  0  0  0  0
   -1.4507    3.5248    0.0009 H   0  0  0  0  0  0  0  0  0  0  0  0
   -4.0515    0.9310    0.8108 H   0  0  0  0  0  0  0  0  0  0  0  0
   -3.7620   -1.6041    1.6278 H   0  0  0  0  0  0  0  0  0  0  0  0
   -4.0728   -1.8834   -0.1276 H   0  0  0  0  0  0  0  0  0  0  0  0
   -2.5473   -2.5581    0.6281 H   0  0  0  0  0  0  0  0  0  0  0  0
  1  2  1  0
  2  3  1  0
  3  4  2  0
  3  5  1  0
  5  6  1  0
  5  7  1  0
  7  8  2  3
  8  9  1  0
  9 10  1  0
 10 11  2  3
 10 12  1  0
 12 13  1  0
 13 14  1  0
 13  8  1  0
  1 15  1  0
  1 16  1  0
  1 17  1  0
  2 18  1  0
  5 19  1  6
  6 20  1  0
  6 21  1  0
  6 22  1  0
  9 23  1  0
 11 24  1  0
 12 25  1  0
 14 26  1  0
 14 27  1  0
 14 28  1  0
M  END
$$$$
