
     RDKit          3D

 32 33  0  0  0  0  0  0  0  0999 V2000
    4.6495    0.6445    0.3038 N   0  0  0  0  0  0  0  0  0  0  0  0
    3.5675    0.5886   -0.5909 C   0  0  0  0  0  0  0  0  0  0  0  0
    3.7326    0.4532   -1.8385 O   0  0  0  0  0  0  0  0  0  0  0  0
    2.1345    0.6854   -0.1354 C   0  0  2  0  0  0  0  0  0  0  0  0
    2.1656    0.8334    1.2989 N   0  0  0  0  0  0  0  0  0  0  0  0
    1.4349   -0.5302   -0.6027 C   0  0  0  0  0  0  0  0  0  0  0  0
    0.0800   -0.6690   -0.2979 N   0  0  0  0  0  0  0  0  0  0  0  0
   -0.5960   -1.8221   -0.7376 C   0  0  0  0  0  0  0  0  0  0  0  0
   -2.0422   -1.3561   -0.9611 C   0  0  0  0  0  0  0  0  0  0  0  0
   -2.1383   -0.2069   -0.0198 C   0  0  1  0  0  0  0  0  0  0  0  0
   -3.2850    0.7147   -0.1416 C   0  0  0  0  0  0  0  0  0  0  0  0
   -3.1730    0.7984    1.3861 C   0  0  0  0  0  0  0  0  0  0  0  0
   -2.5104   -0.5127    1.3407 N   0  0  0  0  0  0  0  0  0  0  0  0
   -0.7509    0.4249   -0.1530 C   0  0  0  0  0  0  0  0  0  0  0  0
    4.9990    1.5307    0.7438 H   0  0  0  0  0  0  0  0  0  0  0  0
    5.1316   -0.2563    0.5414 H   0  0  0  0  0  0  0  0  0  0  0  0
    1.7630    1.6344   -0.5660 H   0  0  0  0  0  0  0  0  0  0  0  0
    2.7817    0.1237    1.7468 H   0  0  0  0  0  0  0  0  0  0  0  0
    2.5700    1.7702    1.5263 H   0  0  0  0  0  0  0  0  0  0  0  0
    1.5733   -0.5997   -1.7125 H   0  0  0  0  0  0  0  0  0  0  0  0
    1.9917   -1.4176   -0.1989 H   0  0  0  0  0  0  0  0  0  0  0  0
   -0.6038   -2.6674   -0.0361 H   0  0  0  0  0  0  0  0  0  0  0  0
   -0.1760   -2.1286   -1.7289 H   0  0  0  0  0  0  0  0  0  0  0  0
   -2.0953   -0.9772   -2.0017 H   0  0  0  0  0  0  0  0  0  0  0  0
   -2.7472   -2.1718   -0.7557 H   0  0  0  0  0  0  0  0  0  0  0  0
   -3.0455    1.6954   -0.5851 H   0  0  0  0  0  0  0  0  0  0  0  0
   -4.2173    0.2411   -0.4415 H   0  0  0  0  0  0  0  0  0  0  0  0
   -2.4179    1.5484    1.7229 H   0  0  0  0  0  0  0  0  0  0  0  0
   -4.1332    0.8032    1.9065 H   0  0  0  0  0  0  0  0  0  0  0  0
   -3.2284   -1.2761    1.3552 H   0  0  0  0  0  0  0  0  0  0  0  0
   -0.6287    1.0757    0.7217 H   0  0  0  0  0  0  0  0  0  0  0  0
   -0.7856    1.0259   -1.0894 H   0  0  0  0  0  0  0  0  0  0  0  0
  1  2  1  0
  2  3  2  0
  2  4  1  0
  4  5  1  0
  4  6  1  0
  6  7  1  0
  7  8  1  0
  8  9  1  0
  9 10  1  0
 10 11  1  0
 11 12  1  0
 12 13  1  0
 10 14  1  0
 14  7  1  0
 10 13  1  1
  1 15  1  0
  1 16  1  0
  4 17  1  6
  5 18  1  0
  5 19  1  0
  6 20  1  0
  6 21  1  0
  8 22  1  0
  8 23  1  0
  9 24  1  0
  9 25  1  0
 11 26  1  0
 11 27  1  0
 12 28  1  0
 12 29  1  0
 13 30  1  0
 14 31  1  0
 14 32  1  0
M  END
$$$$

     RDKit          3D

 32 33  0  0  0  0  0  0  0  0999 V2000
    2.5181    1.3422    0.7214 N   0  0  0  0  0  0  0  0  0  0  0  0
    3.2204    0.2149    0.2397 C   0  0  0  0  0  0  0  0  0  0  0  0
    4.4253    0.3435   -0.0604 O   0  0  0  0  0  0  0  0  0  0  0  0
    2.5595   -1.0862    0.0905 C   0  0  2  0  0  0  0  0  0  0  0  0
    3.4489   -2.1094   -0.4250 N   0  0  0  0  0  0  0  0  0  0  0  0
    1.3105   -1.0071   -0.7650 C   0  0  0  0  0  0  0  0  0  0  0  0
    0.3950   -0.0924   -0.1290 N   0  0  0  0  0  0  0  0  0  0  0  0
   -0.1363   -0.5718    1.1044 C   0  0  0  0  0  0  0  0  0  0  0  0
   -1.1666    0.5102    1.4257 C   0  0  0  0  0  0  0  0  0  0  0  0
   -1.7747    0.6787    0.0512 C   0  0  1  0  0  0  0  0  0  0  0  0
   -3.1017   -0.0428   -0.0053 C   0  0  0  0  0  0  0  0  0  0  0  0
   -3.6310    1.3151    0.4769 C   0  0  0  0  0  0  0  0  0  0  0  0
   -2.4566    1.9074   -0.1842 N   0  0  0  0  0  0  0  0  0  0  0  0
   -0.7452    0.2287   -0.9214 C   0  0  0  0  0  0  0  0  0  0  0  0
    2.0135    1.3109    1.6294 H   0  0  0  0  0  0  0  0  0  0  0  0
    2.4750    2.2429    0.1959 H   0  0  0  0  0  0  0  0  0  0  0  0
    2.3070   -1.4312    1.1366 H   0  0  0  0  0  0  0  0  0  0  0  0
    4.4458   -1.9539   -0.2238 H   0  0  0  0  0  0  0  0  0  0  0  0
    3.0828   -3.0380   -0.1028 H   0  0  0  0  0  0  0  0  0  0  0  0
    0.8884   -1.9848   -0.9892 H   0  0  0  0  0  0  0  0  0  0  0  0
    1.6223   -0.5243   -1.7241 H   0  0  0  0  0  0  0  0  0  0  0  0
   -0.7375   -1.5220    0.9994 H   0  0  0  0  0  0  0  0  0  0  0  0
    0.5954   -0.6723    1.9297 H   0  0  0  0  0  0  0  0  0  0  0  0
   -0.5991    1.4078    1.7447 H   0  0  0  0  0  0  0  0  0  0  0  0
   -1.9053    0.1661    2.1778 H   0  0  0  0  0  0  0  0  0  0  0  0
   -3.4525   -0.2946   -1.0215 H   0  0  0  0  0  0  0  0  0  0  0  0
   -3.2489   -0.8292    0.7503 H   0  0  0  0  0  0  0  0  0  0  0  0
   -3.4973    1.4205    1.5724 H   0  0  0  0  0  0  0  0  0  0  0  0
   -4.5935    1.5995    0.0563 H   0  0  0  0  0  0  0  0  0  0  0  0
   -2.6694    2.0472   -1.1883 H   0  0  0  0  0  0  0  0  0  0  0  0
   -0.4460    1.0374   -1.6239 H   0  0  0  0  0  0  0  0  0  0  0  0
   -1.1462   -0.6132   -1.5231 H   0  0  0  0  0  0  0  0  0  0  0  0
  1  2  1  0
  2  3  2  0
  2  4  1  0
  4  5  1  0
  4  6  1  0
  6  7  1  0
  7  8  1  0
  8  9  1  0
  9 10  1  0
 10 11  1  0
 11 12  1  0
 12 13  1  0
 10 14  1  0
 14  7  1  0
 10 13  1  6
  1 15  1  0
  1 16  1  0
  4 17  1  1
  5 18  1  0
  5 19  1  0
  6 20  1  0
  6 21  1  0
  8 22  1  0
  8 23  1  0
  9 24  1  0
  9 25  1  0
 11 26  1  0
 11 27  1  0
 12 28  1  0
 12 29  1  0
 13 30  1  0
 14 31  1  0
 14 32  1  0
M  END
$$$$

     RDKit          3D

 32 33  0  0  0  0  0  0  0  0999 V2000
    3.8000    1.7542   -0.9344 N   0  0  0  0  0  0  0  0  0  0  0  0
    3.8095    0.3673   -0.6566 C   0  0  0  0  0  0  0  0  0  0  0  0
    4.8372   -0.2763   -1.0565 O   0  0  0  0  0  0  0  0  0  0  0  0
    2.6909   -0.3180    0.0619 C   0  0  2  0  0  0  0  0  0  0  0  0
    3.0225   -1.6971    0.1715 N   0  0  0  0  0  0  0  0  0  0  0  0
    1.4162    0.0002   -0.6035 C   0  0  0  0  0  0  0  0  0  0  0  0
    0.2381   -0.5714   -0.0511 N   0  0  0  0  0  0  0  0  0  0  0  0
   -0.1326   -0.0688    1.2458 C   0  0  0  0  0  0  0  0  0  0  0  0
   -1.5938   -0.5232    1.3188 C   0  0  0  0  0  0  0  0  0  0  0  0
   -2.0986   -0.0554   -0.0225 C   0  0  1  0  0  0  0  0  0  0  0  0
   -3.3047   -0.7889   -0.5590 C   0  0  0  0  0  0  0  0  0  0  0  0
   -3.9011    0.5737   -0.7034 C   0  0  0  0  0  0  0  0  0  0  0  0
   -2.8104    1.1918    0.0274 N   0  0  0  0  0  0  0  0  0  0  0  0
   -0.8821   -0.0932   -0.8792 C   0  0  0  0  0  0  0  0  0  0  0  0
    3.9878    2.5082   -0.2416 H   0  0  0  0  0  0  0  0  0  0  0  0
    3.5890    2.0549   -1.9099 H   0  0  0  0  0  0  0  0  0  0  0  0
    2.6824    0.1402    1.0854 H   0  0  0  0  0  0  0  0  0  0  0  0
    3.6513   -1.8388    0.9835 H   0  0  0  0  0  0  0  0  0  0  0  0
    2.2331   -2.3430    0.1014 H   0  0  0  0  0  0  0  0  0  0  0  0
    1.3106    1.1003   -0.6963 H   0  0  0  0  0  0  0  0  0  0  0  0
    1.4842   -0.3714   -1.6686 H   0  0  0  0  0  0  0  0  0  0  0  0
    0.3687   -0.5864    2.0856 H   0  0  0  0  0  0  0  0  0  0  0  0
   -0.1284    1.0164    1.3378 H   0  0  0  0  0  0  0  0  0  0  0  0
   -1.5744   -1.6368    1.2934 H   0  0  0  0  0  0  0  0  0  0  0  0
   -2.1204   -0.1004    2.1713 H   0  0  0  0  0  0  0  0  0  0  0  0
   -3.7779   -1.3847    0.2525 H   0  0  0  0  0  0  0  0  0  0  0  0
   -3.1328   -1.3514   -1.5043 H   0  0  0  0  0  0  0  0  0  0  0  0
   -3.9242    0.9484   -1.7489 H   0  0  0  0  0  0  0  0  0  0  0  0
   -4.9059    0.6950   -0.2116 H   0  0  0  0  0  0  0  0  0  0  0  0
   -3.1303    1.3929    1.0008 H   0  0  0  0  0  0  0  0  0  0  0  0
   -0.6839    0.9683   -1.2129 H   0  0  0  0  0  0  0  0  0  0  0  0
   -1.0197   -0.7066   -1.7710 H   0  0  0  0  0  0  0  0  0  0  0  0
  1  2  1  0
  2  3  2  0
  2  4  1  0
  4  5  1  0
  4  6  1  0
  6  7  1  0
  7  8  1  0
  8  9  1  0
  9 10  1  0
 10 11  1  0
 11 12  1  0
 12 13  1  0
 10 14  1  0
 14  7  1  0
 10 13  1  1
  1 15  1  0
  1 16  1  0
  4 17  1  1
  5 18  1  0
  5 19  1  0
  6 20  1  0
  6 21  1  0
  8 22  1  0
  8 23  1  0
  9 24  1  0
  9 25  1  0
 11 26  1  0
 11 27  1  0
 12 28  1  0
 12 29  1  0
 13 30  1  0
 14 31  1  0
 14 32  1  0
M  END
$$$$

     RDKit          3D

 32 33  0  0  0  0  0  0  0  0999 V2000
    4.4460    0.7063   -0.1776 N   0  0  0  0  0  0  0  0  0  0  0  0
    3.6070   -0.4177    0.0328 C   0  0  0  0  0  0  0  0  0  0  0  0
    4.1280   -1.4661    0.5088 O   0  0  0  0  0  0  0  0  0  0  0  0
    2.1557   -0.4038   -0.2843 C   0  0  2  0  0  0  0  0  0  0  0  0
    1.8710    0.9254   -0.8309 N   0  0  0  0  0  0  0  0  0  0  0  0
    1.4074   -0.6161    1.0058 C   0  0  0  0  0  0  0  0  0  0  0  0
    0.0159   -0.6490    0.9375 N   0  0  0  0  0  0  0  0  0  0  0  0
   -0.5754   -1.7706    0.2694 C   0  0  0  0  0  0  0  0  0  0  0  0
   -1.5458   -1.1614   -0.7255 C   0  0  0  0  0  0  0  0  0  0  0  0
   -1.9767    0.0747   -0.0051 C   0  0  1  0  0  0  0  0  0  0  0  0
   -2.5968    1.1536   -0.8529 C   0  0  0  0  0  0  0  0  0  0  0  0
   -3.7058    1.1000    0.1608 C   0  0  0  0  0  0  0  0  0  0  0  0
   -3.1593   -0.0690    0.8111 N   0  0  0  0  0  0  0  0  0  0  0  0
   -0.7323    0.5127    0.7155 C   0  0  0  0  0  0  0  0  0  0  0  0
    4.7911    1.3138    0.6239 H   0  0  0  0  0  0  0  0  0  0  0  0
    4.7423    0.9565   -1.1499 H   0  0  0  0  0  0  0  0  0  0  0  0
    1.9593   -1.1681   -1.0324 H   0  0  0  0  0  0  0  0  0  0  0  0
    2.0673    1.6708   -0.1279 H   0  0  0  0  0  0  0  0  0  0  0  0
    2.4881    1.0348   -1.6671 H   0  0  0  0  0  0  0  0  0  0  0  0
    1.7027    0.2621    1.6543 H   0  0  0  0  0  0  0  0  0  0  0  0
    1.8140   -1.5097    1.5199 H   0  0  0  0  0  0  0  0  0  0  0  0
    0.1573   -2.4368   -0.2240 H   0  0  0  0  0  0  0  0  0  0  0  0
   -1.1872   -2.3250    1.0130 H   0  0  0  0  0  0  0  0  0  0  0  0
   -2.4164   -1.8719   -0.8249 H   0  0  0  0  0  0  0  0  0  0  0  0
   -1.0859   -0.9665   -1.7124 H   0  0  0  0  0  0  0  0  0  0  0  0
   -2.0317    2.1053   -0.7688 H   0  0  0  0  0  0  0  0  0  0  0  0
   -2.8589    0.8301   -1.8828 H   0  0  0  0  0  0  0  0  0  0  0  0
   -4.7074    0.9458   -0.2798 H   0  0  0  0  0  0  0  0  0  0  0  0
   -3.7261    1.9406    0.8901 H   0  0  0  0  0  0  0  0  0  0  0  0
   -3.6988   -0.9560    0.5804 H   0  0  0  0  0  0  0  0  0  0  0  0
   -0.2813    1.3158    0.1258 H   0  0  0  0  0  0  0  0  0  0  0  0
   -1.0670    0.9396    1.6971 H   0  0  0  0  0  0  0  0  0  0  0  0
  1  2  1  0
  2  3  2  0
  2  4  1  0
  4  5  1  0
  4  6  1  0
  6  7  1  0
  7  8  1  0
  8  9  1  0
  9 10  1  0
 10 11  1  0
 11 12  1  0
 12 13  1  0
 10 14  1  0
 14  7  1  0
 10 13  1  1
  1 15  1  0
  1 16  1  0
  4 17  1  6
  5 18  1  0
  5 19  1  0
  6 20  1  0
  6 21  1  0
  8 22  1  0
  8 23  1  0
  9 24  1  0
  9 25  1  0
 11 26  1  0
 11 27  1  0
 12 28  1  0
 12 29  1  0
 13 30  1  0
 14 31  1  0
 14 32  1  0
M  END
$$$$

     RDKit          3D

 32 33  0  0  0  0  0  0  0  0999 V2000
    4.1648    0.5164   -0.9816 N   0  0  0  0  0  0  0  0  0  0  0  0
    3.7602   -0.5740   -0.1809 C   0  0  0  0  0  0  0  0  0  0  0  0
    4.4555   -1.6398   -0.0880 O   0  0  0  0  0  0  0  0  0  0  0  0
    2.5043   -0.5068    0.5807 C   0  0  2  0  0  0  0  0  0  0  0  0
    2.2878   -1.6870    1.3959 N   0  0  0  0  0  0  0  0  0  0  0  0
    1.2832   -0.3945   -0.3324 C   0  0  0  0  0  0  0  0  0  0  0  0
    0.1406   -0.3326    0.5116 N   0  0  0  0  0  0  0  0  0  0  0  0
   -0.0205    0.8396    1.2944 C   0  0  0  0  0  0  0  0  0  0  0  0
   -1.2727    1.5315    0.7811 C   0  0  0  0  0  0  0  0  0  0  0  0
   -1.9983    0.4625    0.0540 C   0  0  1  0  0  0  0  0  0  0  0  0
   -3.4160    0.1901    0.5021 C   0  0  0  0  0  0  0  0  0  0  0  0
   -3.5890   -0.1896   -0.9629 C   0  0  0  0  0  0  0  0  0  0  0  0
   -2.5333    0.7952   -1.2528 N   0  0  0  0  0  0  0  0  0  0  0  0
   -1.0984   -0.7455   -0.0408 C   0  0  0  0  0  0  0  0  0  0  0  0
    4.0521    1.5086   -0.6686 H   0  0  0  0  0  0  0  0  0  0  0  0
    4.5898    0.2943   -1.9183 H   0  0  0  0  0  0  0  0  0  0  0  0
    2.5067    0.3883    1.2232 H   0  0  0  0  0  0  0  0  0  0  0  0
    1.3374   -2.0776    1.3011 H   0  0  0  0  0  0  0  0  0  0  0  0
    3.0294   -2.3681    1.1268 H   0  0  0  0  0  0  0  0  0  0  0  0
    1.4021    0.5265   -0.9688 H   0  0  0  0  0  0  0  0  0  0  0  0
    1.2649   -1.2422   -1.0302 H   0  0  0  0  0  0  0  0  0  0  0  0
   -0.1706    0.5154    2.3601 H   0  0  0  0  0  0  0  0  0  0  0  0
    0.8419    1.5191    1.2987 H   0  0  0  0  0  0  0  0  0  0  0  0
   -1.8325    1.9034    1.6641 H   0  0  0  0  0  0  0  0  0  0  0  0
   -0.9598    2.3843    0.1226 H   0  0  0  0  0  0  0  0  0  0  0  0
   -3.5098   -0.6101    1.2276 H   0  0  0  0  0  0  0  0  0  0  0  0
   -3.9308    1.1437    0.6927 H   0  0  0  0  0  0  0  0  0  0  0  0
   -3.1605   -1.2091   -1.1403 H   0  0  0  0  0  0  0  0  0  0  0  0
   -4.5626    0.0186   -1.4056 H   0  0  0  0  0  0  0  0  0  0  0  0
   -2.9771    1.7512   -1.2087 H   0  0  0  0  0  0  0  0  0  0  0  0
   -1.5321   -1.5203    0.6616 H   0  0  0  0  0  0  0  0  0  0  0  0
   -1.0569   -1.1917   -1.0439 H   0  0  0  0  0  0  0  0  0  0  0  0
  1  2  1  0
  2  3  2  0
  2  4  1  0
  4  5  1  0
  4  6  1  0
  6  7  1  0
  7  8  1  0
  8  9  1  0
  9 10  1  0
 10 11  1  0
 11 12  1  0
 12 13  1  0
 10 14  1  0
 14  7  1  0
 10 13  1  6
  1 15  1  0
  1 16  1  0
  4 17  1  1
  5 18  1  0
  5 19  1  0
  6 20  1  0
  6 21  1  0
  8 22  1  0
  8 23  1  0
  9 24  1  0
  9 25  1  0
 11 26  1  0
 11 27  1  0
 12 28  1  0
 12 29  1  0
 13 30  1  0
 14 31  1  0
 14 32  1  0
M  END
$$$$

     RDKit          3D

 32 33  0  0  0  0  0  0  0  0999 V2000
    4.5031   -0.3004    0.1076 N   0  0  0  0  0  0  0  0  0  0  0  0
    3.6114    0.6874   -0.3709 C   0  0  0  0  0  0  0  0  0  0  0  0
    4.0542    1.8459   -0.5270 O   0  0  0  0  0  0  0  0  0  0  0  0
    2.1932    0.4116   -0.6903 C   0  0  2  0  0  0  0  0  0  0  0  0
    1.6016    1.6589   -1.1666 N   0  0  0  0  0  0  0  0  0  0  0  0
    1.5406   -0.0537    0.5859 C   0  0  0  0  0  0  0  0  0  0  0  0
    0.1853   -0.3829    0.5343 N   0  0  0  0  0  0  0  0  0  0  0  0
   -0.1692   -1.5571   -0.2145 C   0  0  0  0  0  0  0  0  0  0  0  0
   -1.6625   -1.4260   -0.5194 C   0  0  0  0  0  0  0  0  0  0  0  0
   -2.0211   -0.1678    0.1811 C   0  0  1  0  0  0  0  0  0  0  0  0
   -3.2595    0.5432   -0.2205 C   0  0  0  0  0  0  0  0  0  0  0  0
   -3.8642   -0.2058    0.9701 C   0  0  0  0  0  0  0  0  0  0  0  0
   -2.5009   -0.2450    1.5254 N   0  0  0  0  0  0  0  0  0  0  0  0
   -0.7270    0.6312    0.0852 C   0  0  0  0  0  0  0  0  0  0  0  0
    4.4476   -1.2964   -0.2539 H   0  0  0  0  0  0  0  0  0  0  0  0
    5.2502   -0.1418    0.8172 H   0  0  0  0  0  0  0  0  0  0  0  0
    2.1038   -0.3905   -1.4401 H   0  0  0  0  0  0  0  0  0  0  0  0
    2.1332    1.9405   -2.0250 H   0  0  0  0  0  0  0  0  0  0  0  0
    1.7384    2.3458   -0.4029 H   0  0  0  0  0  0  0  0  0  0  0  0
    1.7017    0.7109    1.3828 H   0  0  0  0  0  0  0  0  0  0  0  0
    2.1090   -0.9487    0.9202 H   0  0  0  0  0  0  0  0  0  0  0  0
   -0.0971   -2.4209    0.5099 H   0  0  0  0  0  0  0  0  0  0  0  0
    0.4351   -1.7332   -1.1057 H   0  0  0  0  0  0  0  0  0  0  0  0
   -2.2365   -2.2981   -0.1897 H   0  0  0  0  0  0  0  0  0  0  0  0
   -1.7464   -1.2536   -1.6117 H   0  0  0  0  0  0  0  0  0  0  0  0
   -3.7581    0.2546   -1.1479 H   0  0  0  0  0  0  0  0  0  0  0  0
   -3.1616    1.6350   -0.0232 H   0  0  0  0  0  0  0  0  0  0  0  0
   -4.1361   -1.2325    0.6615 H   0  0  0  0  0  0  0  0  0  0  0  0
   -4.5853    0.3619    1.5538 H   0  0  0  0  0  0  0  0  0  0  0  0
   -2.3566    0.6879    2.0119 H   0  0  0  0  0  0  0  0  0  0  0  0
   -0.7358    1.5398    0.6804 H   0  0  0  0  0  0  0  0  0  0  0  0
   -0.5906    0.7998   -1.0195 H   0  0  0  0  0  0  0  0  0  0  0  0
  1  2  1  0
  2  3  2  0
  2  4  1  0
  4  5  1  0
  4  6  1  0
  6  7  1  0
  7  8  1  0
  8  9  1  0
  9 10  1  0
 10 11  1  0
 11 12  1  0
 12 13  1  0
 10 14  1  0
 14  7  1  0
 10 13  1  1
  1 15  1  0
  1 16  1  0
  4 17  1  6
  5 18  1  0
  5 19  1  0
  6 20  1  0
  6 21  1  0
  8 22  1  0
  8 23  1  0
  9 24  1  0
  9 25  1  0
 11 26  1  0
 11 27  1  0
 12 28  1  0
 12 29  1  0
 13 30  1  0
 14 31  1  0
 14 32  1  0
M  END
$$$$

     RDKit          3D

 32 33  0  0  0  0  0  0  0  0999 V2000
    4.7628    1.1570   -0.0430 N   0  0  0  0  0  0  0  0  0  0  0  0
    3.6216    0.6393   -0.7041 C   0  0  0  0  0  0  0  0  0  0  0  0
    3.4983    0.7074   -1.9460 O   0  0  0  0  0  0  0  0  0  0  0  0
    2.5279   -0.0033    0.0559 C   0  0  2  0  0  0  0  0  0  0  0  0
    2.7126   -1.4406    0.1702 N   0  0  0  0  0  0  0  0  0  0  0  0
    1.1919    0.1671   -0.6789 C   0  0  0  0  0  0  0  0  0  0  0  0
    0.1765   -0.4726    0.0782 N   0  0  0  0  0  0  0  0  0  0  0  0
   -0.2121    0.1104    1.3095 C   0  0  0  0  0  0  0  0  0  0  0  0
   -1.7017    0.3666    1.2577 C   0  0  0  0  0  0  0  0  0  0  0  0
   -2.1479   -0.1490   -0.0747 C   0  0  1  0  0  0  0  0  0  0  0  0
   -3.4169   -0.9410   -0.1326 C   0  0  0  0  0  0  0  0  0  0  0  0
   -4.0183    0.3761   -0.5925 C   0  0  0  0  0  0  0  0  0  0  0  0
   -2.6866    0.8639   -0.9315 N   0  0  0  0  0  0  0  0  0  0  0  0
   -0.9719   -0.9164   -0.6278 C   0  0  0  0  0  0  0  0  0  0  0  0
    4.9419    0.9322    0.9708 H   0  0  0  0  0  0  0  0  0  0  0  0
    5.4679    1.7655   -0.4971 H   0  0  0  0  0  0  0  0  0  0  0  0
    2.4204    0.5193    1.0239 H   0  0  0  0  0  0  0  0  0  0  0  0
    3.2975   -1.8394   -0.5590 H   0  0  0  0  0  0  0  0  0  0  0  0
    2.9938   -1.7781    1.0913 H   0  0  0  0  0  0  0  0  0  0  0  0
    1.0462    1.2816   -0.7621 H   0  0  0  0  0  0  0  0  0  0  0  0
    1.2914   -0.2907   -1.6807 H   0  0  0  0  0  0  0  0  0  0  0  0
   -0.0007   -0.5104    2.2216 H   0  0  0  0  0  0  0  0  0  0  0  0
    0.2850    1.0887    1.5033 H   0  0  0  0  0  0  0  0  0  0  0  0
   -2.2571   -0.2012    2.0504 H   0  0  0  0  0  0  0  0  0  0  0  0
   -1.9292    1.4436    1.3896 H   0  0  0  0  0  0  0  0  0  0  0  0
   -3.7301   -1.3204    0.8371 H   0  0  0  0  0  0  0  0  0  0  0  0
   -3.3997   -1.6943   -0.9548 H   0  0  0  0  0  0  0  0  0  0  0  0
   -4.7055    0.2969   -1.4536 H   0  0  0  0  0  0  0  0  0  0  0  0
   -4.4757    0.8807    0.2732 H   0  0  0  0  0  0  0  0  0  0  0  0
   -2.5608    1.8239   -0.5313 H   0  0  0  0  0  0  0  0  0  0  0  0
   -0.8883   -0.8635   -1.7161 H   0  0  0  0  0  0  0  0  0  0  0  0
   -1.1328   -1.9994   -0.3469 H   0  0  0  0  0  0  0  0  0  0  0  0
  1  2  1  0
  2  3  2  0
  2  4  1  0
  4  5  1  0
  4  6  1  0
  6  7  1  0
  7  8  1  0
  8  9  1  0
  9 10  1  0
 10 11  1  0
 11 12  1  0
 12 13  1  0
 10 14  1  0
 14  7  1  0
 10 13  1  6
  1 15  1  0
  1 16  1  0
  4 17  1  1
  5 18  1  0
  5 19  1  0
  6 20  1  0
  6 21  1  0
  8 22  1  0
  8 23  1  0
  9 24  1  0
  9 25  1  0
 11 26  1  0
 11 27  1  0
 12 28  1  0
 12 29  1  0
 13 30  1  0
 14 31  1  0
 14 32  1  0
M  END
$$$$

     RDKit          3D

 32 33  0  0  0  0  0  0  0  0999 V2000
    3.7351    0.9549    1.3739 N   0  0  0  0  0  0  0  0  0  0  0  0
    3.6657    0.0042    0.3135 C   0  0  0  0  0  0  0  0  0  0  0  0
    4.7154   -0.3518   -0.2395 O   0  0  0  0  0  0  0  0  0  0  0  0
    2.3738   -0.5653   -0.1405 C   0  0  2  0  0  0  0  0  0  0  0  0
    2.6260   -1.4860   -1.2139 N   0  0  0  0  0  0  0  0  0  0  0  0
    1.4123    0.5271   -0.5610 C   0  0  0  0  0  0  0  0  0  0  0  0
    0.1459   -0.0179   -1.0072 N   0  0  0  0  0  0  0  0  0  0  0  0
   -0.6897    1.1006   -1.3974 C   0  0  0  0  0  0  0  0  0  0  0  0
   -1.5283    1.3323   -0.1582 C   0  0  0  0  0  0  0  0  0  0  0  0
   -1.8859   -0.1101    0.1640 C   0  0  1  0  0  0  0  0  0  0  0  0
   -2.6587   -0.3573    1.3895 C   0  0  0  0  0  0  0  0  0  0  0  0
   -3.8528   -0.3602    0.4442 C   0  0  0  0  0  0  0  0  0  0  0  0
   -2.9385   -0.6190   -0.6537 N   0  0  0  0  0  0  0  0  0  0  0  0
   -0.5343   -0.7511    0.0278 C   0  0  0  0  0  0  0  0  0  0  0  0
    2.9639    1.6438    1.4447 H   0  0  0  0  0  0  0  0  0  0  0  0
    4.5456    0.9042    2.0088 H   0  0  0  0  0  0  0  0  0  0  0  0
    1.9412   -1.0806    0.7468 H   0  0  0  0  0  0  0  0  0  0  0  0
    3.3182   -2.2010   -0.9166 H   0  0  0  0  0  0  0  0  0  0  0  0
    1.7692   -1.8949   -1.6225 H   0  0  0  0  0  0  0  0  0  0  0  0
    1.9051    1.0810   -1.3839 H   0  0  0  0  0  0  0  0  0  0  0  0
    1.2435    1.2523    0.2521 H   0  0  0  0  0  0  0  0  0  0  0  0
   -0.1053    1.9950   -1.6791 H   0  0  0  0  0  0  0  0  0  0  0  0
   -1.3787    0.7734   -2.2133 H   0  0  0  0  0  0  0  0  0  0  0  0
   -0.8705    1.7351    0.6498 H   0  0  0  0  0  0  0  0  0  0  0  0
   -2.4077    1.9568   -0.3403 H   0  0  0  0  0  0  0  0  0  0  0  0
   -2.6962    0.4404    2.1628 H   0  0  0  0  0  0  0  0  0  0  0  0
   -2.4866   -1.3788    1.7916 H   0  0  0  0  0  0  0  0  0  0  0  0
   -4.3066    0.6364    0.3283 H   0  0  0  0  0  0  0  0  0  0  0  0
   -4.5718   -1.1844    0.6164 H   0  0  0  0  0  0  0  0  0  0  0  0
   -2.8662   -1.6102   -0.9517 H   0  0  0  0  0  0  0  0  0  0  0  0
   -0.5845   -1.8301   -0.1358 H   0  0  0  0  0  0  0  0  0  0  0  0
    0.0013   -0.5387    0.9938 H   0  0  0  0  0  0  0  0  0  0  0  0
  1  2  1  0
  2  3  2  0
  2  4  1  0
  4  5  1  0
  4  6  1  0
  6  7  1  0
  7  8  1  0
  8  9  1  0
  9 10  1  0
 10 11  1  0
 11 12  1  0
 12 13  1  0
 10 14  1  0
 14  7  1  0
 10 13  1  6
  1 15  1  0
  1 16  1  0
  4 17  1  1
  5 18  1  0
  5 19  1  0
  6 20  1  0
  6 21  1  0
  8 22  1  0
  8 23  1  0
  9 24  1  0
  9 25  1  0
 11 26  1  0
 11 27  1  0
 12 28  1  0
 12 29  1  0
 13 30  1  0
 14 31  1  0
 14 32  1  0
M  END
$$$$
