
     RDKit          3D

 33 35  0  0  0  0  0  0  0  0999 V2000
    3.7848    0.9461   -0.4339 C   0  0  0  0  0  0  0  0  0  0  0  0
    2.5968    0.6976    0.3343 N   0  0  0  0  0  0  0  0  0  0  0  0
    2.4775   -0.6507    0.7868 C   0  0  0  0  0  0  0  0  0  0  0  0
    1.3509   -1.2707   -0.0129 C   0  0  2  0  0  0  0  0  0  0  0  0
    1.9332   -1.9146   -1.0987 O   0  0  0  0  0  0  0  0  0  0  0  0
    0.4854   -0.1142   -0.3813 C   0  0  1  0  0  0  0  0  0  0  0  0
   -0.6842    0.0518    0.4432 N   0  0  0  0  0  0  0  0  0  0  0  0
   -1.2855    1.3004    0.1414 C   0  0  0  0  0  0  0  0  0  0  0  0
   -2.7588    1.3074   -0.0344 C   0  0  0  0  0  0  0  0  0  0  0  0
   -3.3530    0.4748    0.9630 N   0  0  0  0  0  0  0  0  0  0  0  0
   -2.9434   -0.8800    0.8226 C   0  0  1  0  0  0  0  0  0  0  0  0
   -2.5214   -1.4901   -0.4419 C   0  0  0  0  0  0  0  0  0  0  0  0
   -1.5137   -1.0708    0.5670 C   0  0  1  0  0  0  0  0  0  0  0  0
    1.3812    1.0742   -0.3292 C   0  0  0  0  0  0  0  0  0  0  0  0
    4.4914    1.5668    0.1727 H   0  0  0  0  0  0  0  0  0  0  0  0
    4.2599   -0.0048   -0.7704 H   0  0  0  0  0  0  0  0  0  0  0  0
    3.5264    1.5861   -1.3133 H   0  0  0  0  0  0  0  0  0  0  0  0
    2.2517   -0.6677    1.8792 H   0  0  0  0  0  0  0  0  0  0  0  0
    3.4333   -1.1823    0.6443 H   0  0  0  0  0  0  0  0  0  0  0  0
    0.8941   -2.0323    0.6145 H   0  0  0  0  0  0  0  0  0  0  0  0
    1.6581   -1.4336   -1.9016 H   0  0  0  0  0  0  0  0  0  0  0  0
    0.1555   -0.2875   -1.4483 H   0  0  0  0  0  0  0  0  0  0  0  0
   -1.0557    1.9873    1.0102 H   0  0  0  0  0  0  0  0  0  0  0  0
   -0.8326    1.7913   -0.7526 H   0  0  0  0  0  0  0  0  0  0  0  0
   -3.1308    2.3552    0.0580 H   0  0  0  0  0  0  0  0  0  0  0  0
   -3.0714    0.9575   -1.0288 H   0  0  0  0  0  0  0  0  0  0  0  0
   -4.3514    0.6006    1.1248 H   0  0  0  0  0  0  0  0  0  0  0  0
   -3.4919   -1.5766    1.5255 H   0  0  0  0  0  0  0  0  0  0  0  0
   -2.6951   -2.5939   -0.5942 H   0  0  0  0  0  0  0  0  0  0  0  0
   -2.4852   -0.9577   -1.4065 H   0  0  0  0  0  0  0  0  0  0  0  0
   -1.0608   -1.9250    1.1553 H   0  0  0  0  0  0  0  0  0  0  0  0
    1.6157    1.4335   -1.3611 H   0  0  0  0  0  0  0  0  0  0  0  0
    0.9391    1.9220    0.2472 H   0  0  0  0  0  0  0  0  0  0  0  0
  1  2  1  0
  2  3  1  0
  3  4  1  0
  4  5  1  0
  4  6  1  0
  6  7  1  0
  7  8  1  0
  8  9  1  0
  9 10  1  0
 10 11  1  0
 11 12  1  0
 12 13  1  0
  6 14  1  0
 14  2  1  0
 13  7  1  0
 13 11  1  0
  1 15  1  0
  1 16  1  0
  1 17  1  0
  3 18  1  0
  3 19  1  0
  4 20  1  1
  5 21  1  0
  6 22  1  6
  8 23  1  0
  8 24  1  0
  9 25  1  0
  9 26  1  0
 10 27  1  0
 11 28  1  1
 12 29  1  0
 12 30  1  0
 13 31  1  1
 14 32  1  0
 14 33  1  0
M  END
$$$$

     RDKit          3D

 33 35  0  0  0  0  0  0  0  0999 V2000
    3.7936    0.6440    0.9695 C   0  0  0  0  0  0  0  0  0  0  0  0
    2.6653    0.7939    0.1031 N   0  0  0  0  0  0  0  0  0  0  0  0
    2.6638   -0.1363   -0.9886 C   0  0  0  0  0  0  0  0  0  0  0  0
    1.2610   -0.6129   -1.1857 C   0  0  2  0  0  0  0  0  0  0  0  0
    0.8474   -0.6682   -2.5031 O   0  0  0  0  0  0  0  0  0  0  0  0
    0.4685    0.4203   -0.3711 C   0  0  1  0  0  0  0  0  0  0  0  0
   -0.8346   -0.0501   -0.0535 N   0  0  0  0  0  0  0  0  0  0  0  0
   -1.5690   -0.2515   -1.2450 C   0  0  0  0  0  0  0  0  0  0  0  0
   -3.0509   -0.1006   -1.1317 C   0  0  0  0  0  0  0  0  0  0  0  0
   -3.5667   -0.3880    0.1758 N   0  0  0  0  0  0  0  0  0  0  0  0
   -2.8958    0.3003    1.2297 C   0  0  1  0  0  0  0  0  0  0  0  0
   -1.9982   -0.4807    2.0984 C   0  0  0  0  0  0  0  0  0  0  0  0
   -1.4741    0.5470    1.0523 C   0  0  1  0  0  0  0  0  0  0  0  0
    1.3813    0.6284    0.7948 C   0  0  0  0  0  0  0  0  0  0  0  0
    4.4828    1.5171    0.7922 H   0  0  0  0  0  0  0  0  0  0  0  0
    3.5380    0.6936    2.0451 H   0  0  0  0  0  0  0  0  0  0  0  0
    4.4052   -0.2643    0.7484 H   0  0  0  0  0  0  0  0  0  0  0  0
    3.3736   -0.9929   -0.7935 H   0  0  0  0  0  0  0  0  0  0  0  0
    3.0653    0.3558   -1.8983 H   0  0  0  0  0  0  0  0  0  0  0  0
    1.1447   -1.5813   -0.6504 H   0  0  0  0  0  0  0  0  0  0  0  0
    0.7811   -1.6474   -2.7427 H   0  0  0  0  0  0  0  0  0  0  0  0
    0.4753    1.3770   -0.9633 H   0  0  0  0  0  0  0  0  0  0  0  0
   -1.1913    0.4158   -2.0537 H   0  0  0  0  0  0  0  0  0  0  0  0
   -1.3482   -1.2942   -1.6059 H   0  0  0  0  0  0  0  0  0  0  0  0
   -3.5512   -0.7873   -1.8425 H   0  0  0  0  0  0  0  0  0  0  0  0
   -3.3653    0.9232   -1.4204 H   0  0  0  0  0  0  0  0  0  0  0  0
   -3.8139   -1.3630    0.3545 H   0  0  0  0  0  0  0  0  0  0  0  0
   -3.5411    1.0523    1.7513 H   0  0  0  0  0  0  0  0  0  0  0  0
   -1.8720   -1.5523    1.8657 H   0  0  0  0  0  0  0  0  0  0  0  0
   -1.8512   -0.2457    3.1588 H   0  0  0  0  0  0  0  0  0  0  0  0
   -1.0737    1.4717    1.5415 H   0  0  0  0  0  0  0  0  0  0  0  0
    1.2089    1.5526    1.3514 H   0  0  0  0  0  0  0  0  0  0  0  0
    1.4413   -0.2762    1.4168 H   0  0  0  0  0  0  0  0  0  0  0  0
  1  2  1  0
  2  3  1  0
  3  4  1  0
  4  5  1  0
  4  6  1  0
  6  7  1  0
  7  8  1  0
  8  9  1  0
  9 10  1  0
 10 11  1  0
 11 12  1  0
 12 13  1  0
  6 14  1  0
 14  2  1  0
 13  7  1  0
 13 11  1  0
  1 15  1  0
  1 16  1  0
  1 17  1  0
  3 18  1  0
  3 19  1  0
  4 20  1  1
  5 21  1  0
  6 22  1  6
  8 23  1  0
  8 24  1  0
  9 25  1  0
  9 26  1  0
 10 27  1  0
 11 28  1  1
 12 29  1  0
 12 30  1  0
 13 31  1  1
 14 32  1  0
 14 33  1  0
M  END
$$$$

     RDKit          3D

 33 35  0  0  0  0  0  0  0  0999 V2000
   -3.9026   -0.5818   -0.2442 C   0  0  0  0  0  0  0  0  0  0  0  0
   -2.6517    0.0394   -0.5042 N   0  0  0  0  0  0  0  0  0  0  0  0
   -2.5420    1.4141   -0.1452 C   0  0  0  0  0  0  0  0  0  0  0  0
   -1.1215    1.6469    0.3263 C   0  0  2  0  0  0  0  0  0  0  0  0
   -0.5456    2.7764   -0.2027 O   0  0  0  0  0  0  0  0  0  0  0  0
   -0.4434    0.3736   -0.1147 C   0  0  1  0  0  0  0  0  0  0  0  0
    0.8237    0.1400    0.3876 N   0  0  0  0  0  0  0  0  0  0  0  0
    1.8774    1.0060    0.0840 C   0  0  0  0  0  0  0  0  0  0  0  0
    3.0865    0.3556   -0.5449 C   0  0  0  0  0  0  0  0  0  0  0  0
    2.7986   -0.9159   -1.1713 N   0  0  0  0  0  0  0  0  0  0  0  0
    2.1496   -1.8219   -0.2450 C   0  0  1  0  0  0  0  0  0  0  0  0
    2.4051   -1.6739    1.2187 C   0  0  0  0  0  0  0  0  0  0  0  0
    1.1304   -1.2169    0.6142 C   0  0  1  0  0  0  0  0  0  0  0  0
   -1.5260   -0.6321    0.1748 C   0  0  0  0  0  0  0  0  0  0  0  0
   -3.7557   -1.5328    0.3360 H   0  0  0  0  0  0  0  0  0  0  0  0
   -4.6551    0.0570    0.2216 H   0  0  0  0  0  0  0  0  0  0  0  0
   -4.3070   -0.9390   -1.2357 H   0  0  0  0  0  0  0  0  0  0  0  0
   -2.7456    2.0191   -1.0630 H   0  0  0  0  0  0  0  0  0  0  0  0
   -3.2893    1.7404    0.6057 H   0  0  0  0  0  0  0  0  0  0  0  0
   -1.1971    1.6939    1.4511 H   0  0  0  0  0  0  0  0  0  0  0  0
   -0.9011    2.9232   -1.1120 H   0  0  0  0  0  0  0  0  0  0  0  0
   -0.3978    0.4443   -1.2307 H   0  0  0  0  0  0  0  0  0  0  0  0
    2.2381    1.4913    1.0234 H   0  0  0  0  0  0  0  0  0  0  0  0
    1.5975    1.8477   -0.5839 H   0  0  0  0  0  0  0  0  0  0  0  0
    3.9263    0.2144    0.1675 H   0  0  0  0  0  0  0  0  0  0  0  0
    3.5265    0.9942   -1.3680 H   0  0  0  0  0  0  0  0  0  0  0  0
    3.7142   -1.3106   -1.5056 H   0  0  0  0  0  0  0  0  0  0  0  0
    2.0685   -2.8692   -0.6349 H   0  0  0  0  0  0  0  0  0  0  0  0
    2.4015   -2.6125    1.8229 H   0  0  0  0  0  0  0  0  0  0  0  0
    3.0605   -0.9073    1.6332 H   0  0  0  0  0  0  0  0  0  0  0  0
    0.2441   -1.8655    0.8596 H   0  0  0  0  0  0  0  0  0  0  0  0
   -1.7098   -0.6690    1.2623 H   0  0  0  0  0  0  0  0  0  0  0  0
   -1.3571   -1.6293   -0.2829 H   0  0  0  0  0  0  0  0  0  0  0  0
  1  2  1  0
  2  3  1  0
  3  4  1  0
  4  5  1  0
  4  6  1  0
  6  7  1  0
  7  8  1  0
  8  9  1  0
  9 10  1  0
 10 11  1  0
 11 12  1  0
 12 13  1  0
  6 14  1  0
 14  2  1  0
 13  7  1  0
 13 11  1  0
  1 15  1  0
  1 16  1  0
  1 17  1  0
  3 18  1  0
  3 19  1  0
  4 20  1  1
  5 21  1  0
  6 22  1  6
  8 23  1  0
  8 24  1  0
  9 25  1  0
  9 26  1  0
 10 27  1  0
 11 28  1  6
 12 29  1  0
 12 30  1  0
 13 31  1  1
 14 32  1  0
 14 33  1  0
M  END
$$$$

     RDKit          3D

 33 35  0  0  0  0  0  0  0  0999 V2000
   -3.4764    0.8608    0.9171 C   0  0  0  0  0  0  0  0  0  0  0  0
   -2.6325    0.8617   -0.2645 N   0  0  0  0  0  0  0  0  0  0  0  0
   -2.7211   -0.3533   -1.0225 C   0  0  0  0  0  0  0  0  0  0  0  0
   -1.2678   -0.6909   -1.3882 C   0  0  2  0  0  0  0  0  0  0  0  0
   -1.1119   -1.9868   -1.7927 O   0  0  0  0  0  0  0  0  0  0  0  0
   -0.6041   -0.3677   -0.0662 C   0  0  1  0  0  0  0  0  0  0  0  0
    0.8061   -0.1427   -0.1803 N   0  0  0  0  0  0  0  0  0  0  0  0
    1.5538   -1.2746   -0.6423 C   0  0  0  0  0  0  0  0  0  0  0  0
    3.0116   -0.8445   -0.7555 C   0  0  0  0  0  0  0  0  0  0  0  0
    3.2322    0.4594   -0.1599 N   0  0  0  0  0  0  0  0  0  0  0  0
    2.7007    0.5698    1.1671 C   0  0  1  0  0  0  0  0  0  0  0  0
    1.6048    1.6476    1.3965 C   0  0  0  0  0  0  0  0  0  0  0  0
    1.2819    0.1611    1.1790 C   0  0  1  0  0  0  0  0  0  0  0  0
   -1.2645    0.9901    0.2059 C   0  0  0  0  0  0  0  0  0  0  0  0
   -3.2108    1.8018    1.4740 H   0  0  0  0  0  0  0  0  0  0  0  0
   -4.5496    0.9573    0.6789 H   0  0  0  0  0  0  0  0  0  0  0  0
   -3.2431    0.0355    1.6052 H   0  0  0  0  0  0  0  0  0  0  0  0
   -3.3689   -0.2979   -1.8955 H   0  0  0  0  0  0  0  0  0  0  0  0
   -3.0704   -1.1527   -0.3174 H   0  0  0  0  0  0  0  0  0  0  0  0
   -0.9706    0.0736   -2.1390 H   0  0  0  0  0  0  0  0  0  0  0  0
   -0.9924   -1.9928   -2.7804 H   0  0  0  0  0  0  0  0  0  0  0  0
   -0.8704   -1.1069    0.7007 H   0  0  0  0  0  0  0  0  0  0  0  0
    1.1972   -1.6587   -1.6106 H   0  0  0  0  0  0  0  0  0  0  0  0
    1.5101   -2.1301    0.0674 H   0  0  0  0  0  0  0  0  0  0  0  0
    3.7019   -1.5767   -0.3005 H   0  0  0  0  0  0  0  0  0  0  0  0
    3.2947   -0.7539   -1.8317 H   0  0  0  0  0  0  0  0  0  0  0  0
    4.2684    0.5820   -0.0934 H   0  0  0  0  0  0  0  0  0  0  0  0
    3.3317    0.3773    2.0537 H   0  0  0  0  0  0  0  0  0  0  0  0
    1.4300    2.3447    0.5501 H   0  0  0  0  0  0  0  0  0  0  0  0
    1.5236    2.0393    2.4369 H   0  0  0  0  0  0  0  0  0  0  0  0
    0.8503   -0.4035    2.0208 H   0  0  0  0  0  0  0  0  0  0  0  0
   -0.7481    1.7094   -0.4766 H   0  0  0  0  0  0  0  0  0  0  0  0
   -1.1964    1.2624    1.2641 H   0  0  0  0  0  0  0  0  0  0  0  0
  1  2  1  0
  2  3  1  0
  3  4  1  0
  4  5  1  0
  4  6  1  0
  6  7  1  0
  7  8  1  0
  8  9  1  0
  9 10  1  0
 10 11  1  0
 11 12  1  0
 12 13  1  0
  6 14  1  0
 14  2  1  0
 13  7  1  0
 13 11  1  0
  1 15  1  0
  1 16  1  0
  1 17  1  0
  3 18  1  0
  3 19  1  0
  4 20  1  6
  5 21  1  0
  6 22  1  1
  8 23  1  0
  8 24  1  0
  9 25  1  0
  9 26  1  0
 10 27  1  0
 11 28  1  1
 12 29  1  0
 12 30  1  0
 13 31  1  1
 14 32  1  0
 14 33  1  0
M  END
$$$$

     RDKit          3D

 33 35  0  0  0  0  0  0  0  0999 V2000
    2.8719    1.6479   -0.1449 C   0  0  0  0  0  0  0  0  0  0  0  0
    2.4754    0.2779   -0.3036 N   0  0  0  0  0  0  0  0  0  0  0  0
    2.4315   -0.4667    0.9080 C   0  0  0  0  0  0  0  0  0  0  0  0
    1.3696   -1.5065    0.7988 C   0  0  2  0  0  0  0  0  0  0  0  0
    1.9974   -2.7395    0.5001 O   0  0  0  0  0  0  0  0  0  0  0  0
    0.5322   -1.0609   -0.3635 C   0  0  1  0  0  0  0  0  0  0  0  0
   -0.8276   -0.7496   -0.0058 N   0  0  0  0  0  0  0  0  0  0  0  0
   -1.5307   -0.5749   -1.2779 C   0  0  0  0  0  0  0  0  0  0  0  0
   -3.0129   -0.4196   -1.0586 C   0  0  0  0  0  0  0  0  0  0  0  0
   -3.3134    0.5497   -0.0709 N   0  0  0  0  0  0  0  0  0  0  0  0
   -2.2292    1.1849    0.5642 C   0  0  1  0  0  0  0  0  0  0  0  0
   -1.8586    0.5760    1.9239 C   0  0  0  0  0  0  0  0  0  0  0  0
   -0.9794    0.4677    0.7245 C   0  0  1  0  0  0  0  0  0  0  0  0
    1.2584    0.0821   -1.0208 C   0  0  0  0  0  0  0  0  0  0  0  0
    2.0832    2.3206    0.2094 H   0  0  0  0  0  0  0  0  0  0  0  0
    3.2360    2.0248   -1.1211 H   0  0  0  0  0  0  0  0  0  0  0  0
    3.7679    1.6452    0.5309 H   0  0  0  0  0  0  0  0  0  0  0  0
    3.4456   -0.9511    1.0207 H   0  0  0  0  0  0  0  0  0  0  0  0
    2.3044    0.1345    1.8275 H   0  0  0  0  0  0  0  0  0  0  0  0
    0.8026   -1.6804    1.7303 H   0  0  0  0  0  0  0  0  0  0  0  0
    2.2433   -2.6546   -0.4764 H   0  0  0  0  0  0  0  0  0  0  0  0
    0.4844   -1.8940   -1.0951 H   0  0  0  0  0  0  0  0  0  0  0  0
   -1.3192   -1.4736   -1.8706 H   0  0  0  0  0  0  0  0  0  0  0  0
   -1.1430    0.3288   -1.7753 H   0  0  0  0  0  0  0  0  0  0  0  0
   -3.4622   -1.4254   -0.8286 H   0  0  0  0  0  0  0  0  0  0  0  0
   -3.4619   -0.1164   -2.0262 H   0  0  0  0  0  0  0  0  0  0  0  0
   -4.0429    1.2187   -0.3521 H   0  0  0  0  0  0  0  0  0  0  0  0
   -2.1840    2.2883    0.4550 H   0  0  0  0  0  0  0  0  0  0  0  0
   -1.6427    1.3329    2.6887 H   0  0  0  0  0  0  0  0  0  0  0  0
   -2.4480   -0.2761    2.2960 H   0  0  0  0  0  0  0  0  0  0  0  0
   -0.0375    1.0660    0.8097 H   0  0  0  0  0  0  0  0  0  0  0  0
    0.6445    1.0092   -1.1114 H   0  0  0  0  0  0  0  0  0  0  0  0
    1.5449   -0.1659   -2.0850 H   0  0  0  0  0  0  0  0  0  0  0  0
  1  2  1  0
  2  3  1  0
  3  4  1  0
  4  5  1  0
  4  6  1  0
  6  7  1  0
  7  8  1  0
  8  9  1  0
  9 10  1  0
 10 11  1  0
 11 12  1  0
 12 13  1  0
  6 14  1  0
 14  2  1  0
 13  7  1  0
 13 11  1  0
  1 15  1  0
  1 16  1  0
  1 17  1  0
  3 18  1  0
  3 19  1  0
  4 20  1  1
  5 21  1  0
  6 22  1  6
  8 23  1  0
  8 24  1  0
  9 25  1  0
  9 26  1  0
 10 27  1  0
 11 28  1  1
 12 29  1  0
 12 30  1  0
 13 31  1  1
 14 32  1  0
 14 33  1  0
M  END
$$$$

     RDKit          3D

 33 35  0  0  0  0  0  0  0  0999 V2000
   -3.5083   -0.1259    1.2213 C   0  0  0  0  0  0  0  0  0  0  0  0
   -2.6605    0.7175    0.4031 N   0  0  0  0  0  0  0  0  0  0  0  0
   -2.7249    0.3891   -0.9960 C   0  0  0  0  0  0  0  0  0  0  0  0
   -1.2769    0.5025   -1.4601 C   0  0  2  0  0  0  0  0  0  0  0  0
   -1.0586   -0.0696   -2.6908 O   0  0  0  0  0  0  0  0  0  0  0  0
   -0.6318   -0.2677   -0.3154 C   0  0  1  0  0  0  0  0  0  0  0  0
    0.7903   -0.2025   -0.3114 N   0  0  0  0  0  0  0  0  0  0  0  0
    1.2740   -1.5649   -0.1180 C   0  0  0  0  0  0  0  0  0  0  0  0
    2.7567   -1.6333    0.0841 C   0  0  0  0  0  0  0  0  0  0  0  0
    3.3557   -0.3773   -0.2876 N   0  0  0  0  0  0  0  0  0  0  0  0
    2.8538    0.6368    0.6008 C   0  0  1  0  0  0  0  0  0  0  0  0
    2.1778    1.8194    0.0300 C   0  0  0  0  0  0  0  0  0  0  0  0
    1.3542    0.7297    0.6252 C   0  0  1  0  0  0  0  0  0  0  0  0
   -1.2881    0.4684    0.8427 C   0  0  0  0  0  0  0  0  0  0  0  0
   -3.3118    0.1717    2.2802 H   0  0  0  0  0  0  0  0  0  0  0  0
   -3.2910   -1.1983    1.1144 H   0  0  0  0  0  0  0  0  0  0  0  0
   -4.5803    0.0664    1.0257 H   0  0  0  0  0  0  0  0  0  0  0  0
   -2.9831   -0.6992   -1.0513 H   0  0  0  0  0  0  0  0  0  0  0  0
   -3.4092    1.0141   -1.5821 H   0  0  0  0  0  0  0  0  0  0  0  0
   -0.9319    1.5405   -1.3648 H   0  0  0  0  0  0  0  0  0  0  0  0
   -0.7190    0.6148   -3.3372 H   0  0  0  0  0  0  0  0  0  0  0  0
   -1.0540   -1.2891   -0.3223 H   0  0  0  0  0  0  0  0  0  0  0  0
    1.0331   -2.1335   -1.0455 H   0  0  0  0  0  0  0  0  0  0  0  0
    0.7158   -2.0599    0.6971 H   0  0  0  0  0  0  0  0  0  0  0  0
    2.9323   -1.8773    1.1546 H   0  0  0  0  0  0  0  0  0  0  0  0
    3.2088   -2.4330   -0.5353 H   0  0  0  0  0  0  0  0  0  0  0  0
    4.3841   -0.4697   -0.0984 H   0  0  0  0  0  0  0  0  0  0  0  0
    3.4267    0.8050    1.5395 H   0  0  0  0  0  0  0  0  0  0  0  0
    2.1798    1.9373   -1.0656 H   0  0  0  0  0  0  0  0  0  0  0  0
    2.1284    2.7850    0.5681 H   0  0  0  0  0  0  0  0  0  0  0  0
    0.9466    0.8182    1.6535 H   0  0  0  0  0  0  0  0  0  0  0  0
   -1.2458   -0.1033    1.7812 H   0  0  0  0  0  0  0  0  0  0  0  0
   -0.8427    1.4881    0.9602 H   0  0  0  0  0  0  0  0  0  0  0  0
  1  2  1  0
  2  3  1  0
  3  4  1  0
  4  5  1  0
  4  6  1  0
  6  7  1  0
  7  8  1  0
  8  9  1  0
  9 10  1  0
 10 11  1  0
 11 12  1  0
 12 13  1  0
  6 14  1  0
 14  2  1  0
 13  7  1  0
 13 11  1  0
  1 15  1  0
  1 16  1  0
  1 17  1  0
  3 18  1  0
  3 19  1  0
  4 20  1  6
  5 21  1  0
  6 22  1  6
  8 23  1  0
  8 24  1  0
  9 25  1  0
  9 26  1  0
 10 27  1  0
 11 28  1  1
 12 29  1  0
 12 30  1  0
 13 31  1  1
 14 32  1  0
 14 33  1  0
M  END
$$$$

     RDKit          3D

 33 35  0  0  0  0  0  0  0  0999 V2000
   -3.0749    1.7840    0.0502 C   0  0  0  0  0  0  0  0  0  0  0  0
   -2.4274    0.7375   -0.7233 N   0  0  0  0  0  0  0  0  0  0  0  0
   -2.8430   -0.5745   -0.3360 C   0  0  0  0  0  0  0  0  0  0  0  0
   -1.5676   -1.4113   -0.2769 C   0  0  2  0  0  0  0  0  0  0  0  0
   -1.7587   -2.4183    0.6631 O   0  0  0  0  0  0  0  0  0  0  0  0
   -0.6047   -0.3881    0.2200 C   0  0  1  0  0  0  0  0  0  0  0  0
    0.7548   -0.7268    0.1907 N   0  0  0  0  0  0  0  0  0  0  0  0
    1.3990   -0.9904   -1.0074 C   0  0  0  0  0  0  0  0  0  0  0  0
    2.5367   -0.0240   -1.2742 C   0  0  0  0  0  0  0  0  0  0  0  0
    3.4193   -0.0283   -0.1884 N   0  0  0  0  0  0  0  0  0  0  0  0
    2.8970    0.0882    1.1080 C   0  0  1  0  0  0  0  0  0  0  0  0
    1.8315    1.1965    1.3218 C   0  0  0  0  0  0  0  0  0  0  0  0
    1.5019   -0.2691    1.2922 C   0  0  1  0  0  0  0  0  0  0  0  0
   -0.9954    0.8367   -0.5573 C   0  0  0  0  0  0  0  0  0  0  0  0
   -4.1095    1.9412   -0.2727 H   0  0  0  0  0  0  0  0  0  0  0  0
   -2.9590    1.6019    1.1392 H   0  0  0  0  0  0  0  0  0  0  0  0
   -2.5007    2.7251   -0.1768 H   0  0  0  0  0  0  0  0  0  0  0  0
   -3.6193   -1.0259   -0.9547 H   0  0  0  0  0  0  0  0  0  0  0  0
   -3.2628   -0.5120    0.7117 H   0  0  0  0  0  0  0  0  0  0  0  0
   -1.3521   -1.7860   -1.2850 H   0  0  0  0  0  0  0  0  0  0  0  0
   -1.4974   -3.2905    0.2841 H   0  0  0  0  0  0  0  0  0  0  0  0
   -0.8814   -0.1772    1.2951 H   0  0  0  0  0  0  0  0  0  0  0  0
    0.7032   -1.0047   -1.8651 H   0  0  0  0  0  0  0  0  0  0  0  0
    1.8764   -2.0120   -0.9649 H   0  0  0  0  0  0  0  0  0  0  0  0
    2.1153    1.0122   -1.3987 H   0  0  0  0  0  0  0  0  0  0  0  0
    3.0805   -0.3480   -2.1949 H   0  0  0  0  0  0  0  0  0  0  0  0
    4.3734   -0.3308   -0.3168 H   0  0  0  0  0  0  0  0  0  0  0  0
    3.5929   -0.0995    1.9417 H   0  0  0  0  0  0  0  0  0  0  0  0
    1.8516    1.7097    2.3069 H   0  0  0  0  0  0  0  0  0  0  0  0
    1.6337    1.8358    0.4414 H   0  0  0  0  0  0  0  0  0  0  0  0
    1.1643   -0.6790    2.2895 H   0  0  0  0  0  0  0  0  0  0  0  0
   -0.7376    1.7231    0.0879 H   0  0  0  0  0  0  0  0  0  0  0  0
   -0.5400    0.9043   -1.5505 H   0  0  0  0  0  0  0  0  0  0  0  0
  1  2  1  0
  2  3  1  0
  3  4  1  0
  4  5  1  0
  4  6  1  0
  6  7  1  0
  7  8  1  0
  8  9  1  0
  9 10  1  0
 10 11  1  0
 11 12  1  0
 12 13  1  0
  6 14  1  0
 14  2  1  0
 13  7  1  0
 13 11  1  0
  1 15  1  0
  1 16  1  0
  1 17  1  0
  3 18  1  0
  3 19  1  0
  4 20  1  6
  5 21  1  0
  6 22  1  1
  8 23  1  0
  8 24  1  0
  9 25  1  0
  9 26  1  0
 10 27  1  0
 11 28  1  1
 12 29  1  0
 12 30  1  0
 13 31  1  1
 14 32  1  0
 14 33  1  0
M  END
$$$$

     RDKit          3D

 33 35  0  0  0  0  0  0  0  0999 V2000
    3.4102    0.8343   -0.2267 C   0  0  0  0  0  0  0  0  0  0  0  0
    2.5378   -0.2945   -0.2377 N   0  0  0  0  0  0  0  0  0  0  0  0
    1.7272   -0.4454    0.9178 C   0  0  0  0  0  0  0  0  0  0  0  0
    0.5843   -1.2925    0.4842 C   0  0  2  0  0  0  0  0  0  0  0  0
    0.9155   -2.6418    0.6745 O   0  0  0  0  0  0  0  0  0  0  0  0
    0.4228   -0.9734   -0.9781 C   0  0  1  0  0  0  0  0  0  0  0  0
   -0.6561   -0.0690   -1.2454 N   0  0  0  0  0  0  0  0  0  0  0  0
   -0.5458    1.2339   -0.7062 C   0  0  0  0  0  0  0  0  0  0  0  0
   -1.4040    1.5578    0.4705 C   0  0  0  0  0  0  0  0  0  0  0  0
   -2.7767    1.2771    0.1111 N   0  0  0  0  0  0  0  0  0  0  0  0
   -2.9205   -0.0862   -0.2490 C   0  0  1  0  0  0  0  0  0  0  0  0
   -3.1450   -0.3118   -1.7529 C   0  0  0  0  0  0  0  0  0  0  0  0
   -1.8935   -0.7402   -1.0157 C   0  0  1  0  0  0  0  0  0  0  0  0
    1.7665   -0.4687   -1.4217 C   0  0  0  0  0  0  0  0  0  0  0  0
    3.9624    0.8008    0.7555 H   0  0  0  0  0  0  0  0  0  0  0  0
    2.9014    1.8159   -0.2414 H   0  0  0  0  0  0  0  0  0  0  0  0
    4.1756    0.7171   -1.0036 H   0  0  0  0  0  0  0  0  0  0  0  0
    1.4401    0.4961    1.4275 H   0  0  0  0  0  0  0  0  0  0  0  0
    2.2909   -1.0228    1.7023 H   0  0  0  0  0  0  0  0  0  0  0  0
   -0.3381   -1.0958    1.0664 H   0  0  0  0  0  0  0  0  0  0  0  0
    1.8704   -2.7573    0.8922 H   0  0  0  0  0  0  0  0  0  0  0  0
    0.1643   -1.9386   -1.4837 H   0  0  0  0  0  0  0  0  0  0  0  0
    0.4800    1.5628   -0.4808 H   0  0  0  0  0  0  0  0  0  0  0  0
   -0.8812    1.9399   -1.5268 H   0  0  0  0  0  0  0  0  0  0  0  0
   -1.3535    2.6829    0.5865 H   0  0  0  0  0  0  0  0  0  0  0  0
   -1.1095    1.1290    1.4224 H   0  0  0  0  0  0  0  0  0  0  0  0
   -3.1092    1.9577   -0.6033 H   0  0  0  0  0  0  0  0  0  0  0  0
   -3.5821   -0.6760    0.4404 H   0  0  0  0  0  0  0  0  0  0  0  0
   -3.9287   -1.0665   -1.9877 H   0  0  0  0  0  0  0  0  0  0  0  0
   -3.1248    0.5734   -2.4225 H   0  0  0  0  0  0  0  0  0  0  0  0
   -1.8358   -1.8627   -0.9194 H   0  0  0  0  0  0  0  0  0  0  0  0
    2.2413   -1.2621   -2.0367 H   0  0  0  0  0  0  0  0  0  0  0  0
    1.7139    0.4269   -2.0663 H   0  0  0  0  0  0  0  0  0  0  0  0
  1  2  1  0
  2  3  1  0
  3  4  1  0
  4  5  1  0
  4  6  1  0
  6  7  1  0
  7  8  1  0
  8  9  1  0
  9 10  1  0
 10 11  1  0
 11 12  1  0
 12 13  1  0
  6 14  1  0
 14  2  1  0
 13  7  1  0
 13 11  1  0
  1 15  1  0
  1 16  1  0
  1 17  1  0
  3 18  1  0
  3 19  1  0
  4 20  1  1
  5 21  1  0
  6 22  1  6
  8 23  1  0
  8 24  1  0
  9 25  1  0
  9 26  1  0
 10 27  1  0
 11 28  1  1
 12 29  1  0
 12 30  1  0
 13 31  1  1
 14 32  1  0
 14 33  1  0
M  END
$$$$
