
     RDKit          3D

 32 33  0  0  0  0  0  0  0  0999 V2000
    4.1555    1.2773   -0.4104 N   0  0  0  0  0  0  0  0  0  0  0  0
    3.5617    0.2654    0.3961 C   0  0  0  0  0  0  0  0  0  0  0  0
    4.2362   -0.1518    1.3592 O   0  0  0  0  0  0  0  0  0  0  0  0
    2.2055   -0.2774    0.1174 C   0  0  1  0  0  0  0  0  0  0  0  0
    1.9456   -1.3277    1.1031 N   0  0  0  0  0  0  0  0  0  0  0  0
    1.2473    0.8771    0.3196 C   0  0  0  0  0  0  0  0  0  0  0  0
   -0.0889    0.5507    0.0970 N   0  0  0  0  0  0  0  0  0  0  0  0
   -0.5598    0.2615   -1.1748 C   0  0  0  0  0  0  0  0  0  0  0  0
   -1.4667   -0.9478   -1.1197 C   0  0  2  0  0  0  0  0  0  0  0  0
   -2.9046   -0.4678   -1.3537 C   0  0  0  0  0  0  0  0  0  0  0  0
   -3.2123    0.1308   -0.0012 C   0  0  0  0  0  0  0  0  0  0  0  0
   -2.1369   -0.3296    0.9346 C   0  0  2  0  0  0  0  0  0  0  0  0
   -1.0306    0.6885    1.1084 C   0  0  0  0  0  0  0  0  0  0  0  0
   -1.5879   -1.4950    0.2227 N   0  0  0  0  0  0  0  0  0  0  0  0
    5.0727    1.1135   -0.8985 H   0  0  0  0  0  0  0  0  0  0  0  0
    3.7064    2.2078   -0.5398 H   0  0  0  0  0  0  0  0  0  0  0  0
    2.2051   -0.7033   -0.8792 H   0  0  0  0  0  0  0  0  0  0  0  0
    2.6653   -1.3278    1.8397 H   0  0  0  0  0  0  0  0  0  0  0  0
    1.9296   -2.2466    0.6120 H   0  0  0  0  0  0  0  0  0  0  0  0
    1.5990    1.7239   -0.2761 H   0  0  0  0  0  0  0  0  0  0  0  0
    1.3702    1.1681    1.4023 H   0  0  0  0  0  0  0  0  0  0  0  0
   -1.1377    1.1644   -1.5428 H   0  0  0  0  0  0  0  0  0  0  0  0
    0.2071    0.1009   -1.9613 H   0  0  0  0  0  0  0  0  0  0  0  0
   -1.1824   -1.7181   -1.8519 H   0  0  0  0  0  0  0  0  0  0  0  0
   -2.8451    0.3181   -2.1469 H   0  0  0  0  0  0  0  0  0  0  0  0
   -3.5270   -1.3212   -1.6114 H   0  0  0  0  0  0  0  0  0  0  0  0
   -3.2592    1.2482   -0.0546 H   0  0  0  0  0  0  0  0  0  0  0  0
   -4.2004   -0.2510    0.2940 H   0  0  0  0  0  0  0  0  0  0  0  0
   -2.5291   -0.6112    1.9293 H   0  0  0  0  0  0  0  0  0  0  0  0
   -1.5243    1.6908    1.0123 H   0  0  0  0  0  0  0  0  0  0  0  0
   -0.6287    0.6512    2.1458 H   0  0  0  0  0  0  0  0  0  0  0  0
   -2.2856   -2.2619    0.1776 H   0  0  0  0  0  0  0  0  0  0  0  0
  1  2  1  0
  2  3  2  0
  2  4  1  0
  4  5  1  0
  4  6  1  0
  6  7  1  0
  7  8  1  0
  8  9  1  0
  9 10  1  0
 10 11  1  0
 11 12  1  0
 12 13  1  0
 12 14  1  0
 13  7  1  0
 14  9  1  0
  1 15  1  0
  1 16  1  0
  4 17  1  6
  5 18  1  0
  5 19  1  0
  6 20  1  0
  6 21  1  0
  8 22  1  0
  8 23  1  0
  9 24  1  6
 10 25  1  0
 10 26  1  0
 11 27  1  0
 11 28  1  0
 12 29  1  1
 13 30  1  0
 13 31  1  0
 14 32  1  0
M  END
$$$$

     RDKit          3D

 32 33  0  0  0  0  0  0  0  0999 V2000
    3.0902    1.6030    1.0287 N   0  0  0  0  0  0  0  0  0  0  0  0
    2.7514    0.2157    0.8283 C   0  0  0  0  0  0  0  0  0  0  0  0
    2.7074   -0.5838    1.7832 O   0  0  0  0  0  0  0  0  0  0  0  0
    2.4656   -0.2487   -0.5349 C   0  0  1  0  0  0  0  0  0  0  0  0
    3.5563   -1.2355   -0.8075 N   0  0  0  0  0  0  0  0  0  0  0  0
    1.1723   -0.9052   -0.7275 C   0  0  0  0  0  0  0  0  0  0  0  0
   -0.0128   -0.1541   -0.4397 N   0  0  0  0  0  0  0  0  0  0  0  0
   -1.1615   -0.8787   -0.9383 C   0  0  0  0  0  0  0  0  0  0  0  0
   -2.4388   -0.7743   -0.2588 C   0  0  2  0  0  0  0  0  0  0  0  0
   -3.1166    0.5334   -0.6263 C   0  0  0  0  0  0  0  0  0  0  0  0
   -2.1880    1.5038    0.0820 C   0  0  0  0  0  0  0  0  0  0  0  0
   -1.6067    0.6702    1.1978 C   0  0  2  0  0  0  0  0  0  0  0  0
   -0.1585    0.2681    0.9181 C   0  0  0  0  0  0  0  0  0  0  0  0
   -2.3384   -0.5885    1.1929 N   0  0  0  0  0  0  0  0  0  0  0  0
    3.5952    1.9040    1.8984 H   0  0  0  0  0  0  0  0  0  0  0  0
    2.8507    2.3262    0.3333 H   0  0  0  0  0  0  0  0  0  0  0  0
    2.6561    0.5760   -1.2816 H   0  0  0  0  0  0  0  0  0  0  0  0
    3.6339   -1.8501    0.0301 H   0  0  0  0  0  0  0  0  0  0  0  0
    3.3329   -1.7486   -1.6820 H   0  0  0  0  0  0  0  0  0  0  0  0
    1.0831   -1.2439   -1.8200 H   0  0  0  0  0  0  0  0  0  0  0  0
    1.1614   -1.8682   -0.1560 H   0  0  0  0  0  0  0  0  0  0  0  0
   -0.8561   -1.9700   -0.9637 H   0  0  0  0  0  0  0  0  0  0  0  0
   -1.2667   -0.6092   -2.0111 H   0  0  0  0  0  0  0  0  0  0  0  0
   -3.1267   -1.6311   -0.4222 H   0  0  0  0  0  0  0  0  0  0  0  0
   -4.1460    0.6132   -0.2279 H   0  0  0  0  0  0  0  0  0  0  0  0
   -3.0633    0.6141   -1.7295 H   0  0  0  0  0  0  0  0  0  0  0  0
   -1.3930    1.7949   -0.6388 H   0  0  0  0  0  0  0  0  0  0  0  0
   -2.7451    2.3901    0.4624 H   0  0  0  0  0  0  0  0  0  0  0  0
   -1.6897    1.2119    2.1609 H   0  0  0  0  0  0  0  0  0  0  0  0
    0.5170    1.0693    1.2055 H   0  0  0  0  0  0  0  0  0  0  0  0
    0.0155   -0.6103    1.5726 H   0  0  0  0  0  0  0  0  0  0  0  0
   -3.2815   -0.3936    1.5647 H   0  0  0  0  0  0  0  0  0  0  0  0
  1  2  1  0
  2  3  2  0
  2  4  1  0
  4  5  1  0
  4  6  1  0
  6  7  1  0
  7  8  1  0
  8  9  1  0
  9 10  1  0
 10 11  1  0
 11 12  1  0
 12 13  1  0
 12 14  1  0
 13  7  1  0
 14  9  1  0
  1 15  1  0
  1 16  1  0
  4 17  1  6
  5 18  1  0
  5 19  1  0
  6 20  1  0
  6 21  1  0
  8 22  1  0
  8 23  1  0
  9 24  1  1
 10 25  1  0
 10 26  1  0
 11 27  1  0
 11 28  1  0
 12 29  1  1
 13 30  1  0
 13 31  1  0
 14 32  1  0
M  END
$$$$

     RDKit          3D

 32 33  0  0  0  0  0  0  0  0999 V2000
    4.2640   -0.4577   -1.0020 N   0  0  0  0  0  0  0  0  0  0  0  0
    2.8524   -0.6020   -0.9245 C   0  0  0  0  0  0  0  0  0  0  0  0
    2.2464   -0.6495   -2.0287 O   0  0  0  0  0  0  0  0  0  0  0  0
    2.1822   -0.6864    0.3726 C   0  0  1  0  0  0  0  0  0  0  0  0
    3.1801   -0.5948    1.4207 N   0  0  0  0  0  0  0  0  0  0  0  0
    1.1733    0.4002    0.6187 C   0  0  0  0  0  0  0  0  0  0  0  0
    0.0973    0.4174   -0.3497 N   0  0  0  0  0  0  0  0  0  0  0  0
   -0.7694    1.5387    0.0466 C   0  0  0  0  0  0  0  0  0  0  0  0
   -2.1684    1.3772   -0.4293 C   0  0  2  0  0  0  0  0  0  0  0  0
   -3.0403    0.6399    0.5756 C   0  0  0  0  0  0  0  0  0  0  0  0
   -3.0723   -0.7871    0.0628 C   0  0  0  0  0  0  0  0  0  0  0  0
   -1.9520   -0.7892   -0.9847 C   0  0  2  0  0  0  0  0  0  0  0  0
   -0.6292   -0.8350   -0.3006 C   0  0  0  0  0  0  0  0  0  0  0  0
   -2.1837    0.5221   -1.6026 N   0  0  0  0  0  0  0  0  0  0  0  0
    4.7343    0.4674   -0.9069 H   0  0  0  0  0  0  0  0  0  0  0  0
    4.8638   -1.2916   -1.1584 H   0  0  0  0  0  0  0  0  0  0  0  0
    1.7337   -1.6982    0.4546 H   0  0  0  0  0  0  0  0  0  0  0  0
    4.1550   -0.6349    1.0586 H   0  0  0  0  0  0  0  0  0  0  0  0
    3.0977    0.3013    1.9588 H   0  0  0  0  0  0  0  0  0  0  0  0
    1.7085    1.3730    0.5131 H   0  0  0  0  0  0  0  0  0  0  0  0
    0.8038    0.2882    1.6559 H   0  0  0  0  0  0  0  0  0  0  0  0
   -0.2697    2.4502   -0.3511 H   0  0  0  0  0  0  0  0  0  0  0  0
   -0.7689    1.6248    1.1556 H   0  0  0  0  0  0  0  0  0  0  0  0
   -2.6095    2.3751   -0.6225 H   0  0  0  0  0  0  0  0  0  0  0  0
   -2.5799    0.6472    1.5957 H   0  0  0  0  0  0  0  0  0  0  0  0
   -4.0704    1.0490    0.6105 H   0  0  0  0  0  0  0  0  0  0  0  0
   -4.0466   -1.0377   -0.3790 H   0  0  0  0  0  0  0  0  0  0  0  0
   -2.8226   -1.5062    0.8764 H   0  0  0  0  0  0  0  0  0  0  0  0
   -2.1428   -1.6097   -1.6807 H   0  0  0  0  0  0  0  0  0  0  0  0
   -0.7851   -1.1810    0.7476 H   0  0  0  0  0  0  0  0  0  0  0  0
   -0.0100   -1.6080   -0.7943 H   0  0  0  0  0  0  0  0  0  0  0  0
   -3.1715    0.4975   -1.9504 H   0  0  0  0  0  0  0  0  0  0  0  0
  1  2  1  0
  2  3  2  0
  2  4  1  0
  4  5  1  0
  4  6  1  0
  6  7  1  0
  7  8  1  0
  8  9  1  0
  9 10  1  0
 10 11  1  0
 11 12  1  0
 12 13  1  0
 12 14  1  0
 13  7  1  0
 14  9  1  0
  1 15  1  0
  1 16  1  0
  4 17  1  6
  5 18  1  0
  5 19  1  0
  6 20  1  0
  6 21  1  0
  8 22  1  0
  8 23  1  0
  9 24  1  6
 10 25  1  0
 10 26  1  0
 11 27  1  0
 11 28  1  0
 12 29  1  6
 13 30  1  0
 13 31  1  0
 14 32  1  0
M  END
$$$$

     RDKit          3D

 32 33  0  0  0  0  0  0  0  0999 V2000
    4.4638    0.4278    0.0087 N   0  0  0  0  0  0  0  0  0  0  0  0
    3.5392   -0.4642   -0.5630 C   0  0  0  0  0  0  0  0  0  0  0  0
    3.8176   -1.0701   -1.6176 O   0  0  0  0  0  0  0  0  0  0  0  0
    2.2316   -0.6913    0.0794 C   0  0  1  0  0  0  0  0  0  0  0  0
    2.1624    0.1240    1.2718 N   0  0  0  0  0  0  0  0  0  0  0  0
    1.1552   -0.3485   -0.8967 C   0  0  0  0  0  0  0  0  0  0  0  0
   -0.1760   -0.5208   -0.4259 N   0  0  0  0  0  0  0  0  0  0  0  0
   -1.1747   -0.1732   -1.3854 C   0  0  0  0  0  0  0  0  0  0  0  0
   -2.5502   -0.6009   -0.9909 C   0  0  2  0  0  0  0  0  0  0  0  0
   -3.4254    0.6160   -0.6389 C   0  0  0  0  0  0  0  0  0  0  0  0
   -2.5700    1.2004    0.4737 C   0  0  0  0  0  0  0  0  0  0  0  0
   -1.9760   -0.0209    1.0888 C   0  0  2  0  0  0  0  0  0  0  0  0
   -0.4633    0.0245    0.8593 C   0  0  0  0  0  0  0  0  0  0  0  0
   -2.4671   -1.1868    0.3591 N   0  0  0  0  0  0  0  0  0  0  0  0
    4.3141    1.4649   -0.0558 H   0  0  0  0  0  0  0  0  0  0  0  0
    5.3301    0.1245    0.5174 H   0  0  0  0  0  0  0  0  0  0  0  0
    2.1063   -1.7453    0.4015 H   0  0  0  0  0  0  0  0  0  0  0  0
    2.3661   -0.4437    2.1222 H   0  0  0  0  0  0  0  0  0  0  0  0
    2.7195    0.9924    1.2015 H   0  0  0  0  0  0  0  0  0  0  0  0
    1.2949    0.7144   -1.2391 H   0  0  0  0  0  0  0  0  0  0  0  0
    1.3353   -0.9575   -1.8163 H   0  0  0  0  0  0  0  0  0  0  0  0
   -0.9143   -0.6950   -2.3475 H   0  0  0  0  0  0  0  0  0  0  0  0
   -1.1269    0.9189   -1.6460 H   0  0  0  0  0  0  0  0  0  0  0  0
   -3.0503   -1.2722   -1.6936 H   0  0  0  0  0  0  0  0  0  0  0  0
   -4.3377    0.2297   -0.1730 H   0  0  0  0  0  0  0  0  0  0  0  0
   -3.5633    1.2840   -1.4818 H   0  0  0  0  0  0  0  0  0  0  0  0
   -3.1748    1.7698    1.2051 H   0  0  0  0  0  0  0  0  0  0  0  0
   -1.8380    1.8831    0.0049 H   0  0  0  0  0  0  0  0  0  0  0  0
   -2.2162   -0.1470    2.1575 H   0  0  0  0  0  0  0  0  0  0  0  0
   -0.0621    1.0364    0.9547 H   0  0  0  0  0  0  0  0  0  0  0  0
   -0.0473   -0.5751    1.7000 H   0  0  0  0  0  0  0  0  0  0  0  0
   -1.7025   -1.8982    0.3133 H   0  0  0  0  0  0  0  0  0  0  0  0
  1  2  1  0
  2  3  2  0
  2  4  1  0
  4  5  1  0
  4  6  1  0
  6  7  1  0
  7  8  1  0
  8  9  1  0
  9 10  1  0
 10 11  1  0
 11 12  1  0
 12 13  1  0
 12 14  1  0
 13  7  1  0
 14  9  1  0
  1 15  1  0
  1 16  1  0
  4 17  1  1
  5 18  1  0
  5 19  1  0
  6 20  1  0
  6 21  1  0
  8 22  1  0
  8 23  1  0
  9 24  1  6
 10 25  1  0
 10 26  1  0
 11 27  1  0
 11 28  1  0
 12 29  1  1
 13 30  1  0
 13 31  1  0
 14 32  1  0
M  END
$$$$

     RDKit          3D

 32 33  0  0  0  0  0  0  0  0999 V2000
    4.3770    0.0187   -0.7022 N   0  0  0  0  0  0  0  0  0  0  0  0
    3.0036   -0.3348   -0.7058 C   0  0  0  0  0  0  0  0  0  0  0  0
    2.4984   -0.7396   -1.7814 O   0  0  0  0  0  0  0  0  0  0  0  0
    2.1965   -0.2257    0.5343 C   0  0  1  0  0  0  0  0  0  0  0  0
    2.9934    0.2697    1.6402 N   0  0  0  0  0  0  0  0  0  0  0  0
    1.0150    0.6892    0.3649 C   0  0  0  0  0  0  0  0  0  0  0  0
    0.1285    0.2413   -0.6599 N   0  0  0  0  0  0  0  0  0  0  0  0
   -0.5668   -0.9804   -0.3437 C   0  0  0  0  0  0  0  0  0  0  0  0
   -1.5888   -0.8394    0.7514 C   0  0  2  0  0  0  0  0  0  0  0  0
   -2.9497   -1.1690    0.1218 C   0  0  0  0  0  0  0  0  0  0  0  0
   -3.0493    0.0190   -0.8455 C   0  0  0  0  0  0  0  0  0  0  0  0
   -2.1533    1.0746   -0.2651 C   0  0  2  0  0  0  0  0  0  0  0  0
   -0.8539    1.2381   -0.9879 C   0  0  0  0  0  0  0  0  0  0  0  0
   -1.8334    0.5753    1.0814 N   0  0  0  0  0  0  0  0  0  0  0  0
    4.6798    0.7799   -0.0585 H   0  0  0  0  0  0  0  0  0  0  0  0
    5.0912   -0.4463   -1.3079 H   0  0  0  0  0  0  0  0  0  0  0  0
    1.8953   -1.2646    0.7973 H   0  0  0  0  0  0  0  0  0  0  0  0
    2.6201    1.1519    2.0319 H   0  0  0  0  0  0  0  0  0  0  0  0
    3.1417   -0.4452    2.3696 H   0  0  0  0  0  0  0  0  0  0  0  0
    0.5117    0.8899    1.3310 H   0  0  0  0  0  0  0  0  0  0  0  0
    1.4238    1.6808    0.0314 H   0  0  0  0  0  0  0  0  0  0  0  0
    0.1136   -1.8032   -0.0407 H   0  0  0  0  0  0  0  0  0  0  0  0
   -1.0153   -1.3343   -1.3164 H   0  0  0  0  0  0  0  0  0  0  0  0
   -1.3835   -1.4491    1.6301 H   0  0  0  0  0  0  0  0  0  0  0  0
   -3.7499   -1.1592    0.8608 H   0  0  0  0  0  0  0  0  0  0  0  0
   -2.8174   -2.1105   -0.4135 H   0  0  0  0  0  0  0  0  0  0  0  0
   -2.7611   -0.2781   -1.8668 H   0  0  0  0  0  0  0  0  0  0  0  0
   -4.1131    0.3032   -0.8593 H   0  0  0  0  0  0  0  0  0  0  0  0
   -2.6672    2.0493   -0.2079 H   0  0  0  0  0  0  0  0  0  0  0  0
   -0.4386    2.2320   -0.6822 H   0  0  0  0  0  0  0  0  0  0  0  0
   -0.9802    1.2922   -2.0886 H   0  0  0  0  0  0  0  0  0  0  0  0
   -2.7682    0.5680    1.5871 H   0  0  0  0  0  0  0  0  0  0  0  0
  1  2  1  0
  2  3  2  0
  2  4  1  0
  4  5  1  0
  4  6  1  0
  6  7  1  0
  7  8  1  0
  8  9  1  0
  9 10  1  0
 10 11  1  0
 11 12  1  0
 12 13  1  0
 12 14  1  0
 13  7  1  0
 14  9  1  0
  1 15  1  0
  1 16  1  0
  4 17  1  1
  5 18  1  0
  5 19  1  0
  6 20  1  0
  6 21  1  0
  8 22  1  0
  8 23  1  0
  9 24  1  1
 10 25  1  0
 10 26  1  0
 11 27  1  0
 11 28  1  0
 12 29  1  1
 13 30  1  0
 13 31  1  0
 14 32  1  0
M  END
$$$$

     RDKit          3D

 32 33  0  0  0  0  0  0  0  0999 V2000
    4.5407    0.7962    0.3654 N   0  0  0  0  0  0  0  0  0  0  0  0
    3.2659    1.0446   -0.2356 C   0  0  0  0  0  0  0  0  0  0  0  0
    2.9981    2.2160   -0.6269 O   0  0  0  0  0  0  0  0  0  0  0  0
    2.2377   -0.0102   -0.4230 C   0  0  1  0  0  0  0  0  0  0  0  0
    2.7394   -1.2601    0.0816 N   0  0  0  0  0  0  0  0  0  0  0  0
    0.9801    0.4280    0.2847 C   0  0  0  0  0  0  0  0  0  0  0  0
   -0.0809   -0.5074    0.1733 N   0  0  0  0  0  0  0  0  0  0  0  0
   -0.6614   -0.7010   -1.0765 C   0  0  0  0  0  0  0  0  0  0  0  0
   -2.1597   -0.7087   -1.1337 C   0  0  2  0  0  0  0  0  0  0  0  0
   -2.6257    0.7301   -1.0774 C   0  0  0  0  0  0  0  0  0  0  0  0
   -2.4856    1.0443    0.3938 C   0  0  0  0  0  0  0  0  0  0  0  0
   -2.3089   -0.2987    1.0522 C   0  0  2  0  0  0  0  0  0  0  0  0
   -0.8839   -0.6421    1.3300 C   0  0  0  0  0  0  0  0  0  0  0  0
   -2.7701   -1.2654    0.0489 N   0  0  0  0  0  0  0  0  0  0  0  0
    5.3803    1.3028   -0.0070 H   0  0  0  0  0  0  0  0  0  0  0  0
    4.6478    0.1246    1.1608 H   0  0  0  0  0  0  0  0  0  0  0  0
    2.0236   -0.1501   -1.5027 H   0  0  0  0  0  0  0  0  0  0  0  0
    2.0712   -2.0429   -0.0716 H   0  0  0  0  0  0  0  0  0  0  0  0
    3.0740   -1.2275    1.0610 H   0  0  0  0  0  0  0  0  0  0  0  0
    0.6690    1.4432   -0.0331 H   0  0  0  0  0  0  0  0  0  0  0  0
    1.2407    0.5249    1.3672 H   0  0  0  0  0  0  0  0  0  0  0  0
   -0.3129   -1.6980   -1.4799 H   0  0  0  0  0  0  0  0  0  0  0  0
   -0.3063    0.0481   -1.8150 H   0  0  0  0  0  0  0  0  0  0  0  0
   -2.5184   -1.2377   -2.0561 H   0  0  0  0  0  0  0  0  0  0  0  0
   -3.6758    0.7750   -1.4127 H   0  0  0  0  0  0  0  0  0  0  0  0
   -1.9295    1.3216   -1.7004 H   0  0  0  0  0  0  0  0  0  0  0  0
   -3.4610    1.4949    0.7336 H   0  0  0  0  0  0  0  0  0  0  0  0
   -1.6428    1.7249    0.5375 H   0  0  0  0  0  0  0  0  0  0  0  0
   -2.9345   -0.3412    1.9681 H   0  0  0  0  0  0  0  0  0  0  0  0
   -0.8557   -1.7135    1.6488 H   0  0  0  0  0  0  0  0  0  0  0  0
   -0.4582   -0.0676    2.1888 H   0  0  0  0  0  0  0  0  0  0  0  0
   -3.7971   -1.1471   -0.0359 H   0  0  0  0  0  0  0  0  0  0  0  0
  1  2  1  0
  2  3  2  0
  2  4  1  0
  4  5  1  0
  4  6  1  0
  6  7  1  0
  7  8  1  0
  8  9  1  0
  9 10  1  0
 10 11  1  0
 11 12  1  0
 12 13  1  0
 12 14  1  0
 13  7  1  0
 14  9  1  0
  1 15  1  0
  1 16  1  0
  4 17  1  6
  5 18  1  0
  5 19  1  0
  6 20  1  0
  6 21  1  0
  8 22  1  0
  8 23  1  0
  9 24  1  6
 10 25  1  0
 10 26  1  0
 11 27  1  0
 11 28  1  0
 12 29  1  1
 13 30  1  0
 13 31  1  0
 14 32  1  0
M  END
$$$$

     RDKit          3D

 32 33  0  0  0  0  0  0  0  0999 V2000
    4.6400    0.0302    0.1841 N   0  0  0  0  0  0  0  0  0  0  0  0
    3.5652   -0.8024   -0.1833 C   0  0  0  0  0  0  0  0  0  0  0  0
    3.8010   -1.7672   -0.9887 O   0  0  0  0  0  0  0  0  0  0  0  0
    2.2134   -0.5719    0.3437 C   0  0  1  0  0  0  0  0  0  0  0  0
    2.1319    0.5725    1.2079 N   0  0  0  0  0  0  0  0  0  0  0  0
    1.2455   -0.4538   -0.8039 C   0  0  0  0  0  0  0  0  0  0  0  0
   -0.0642   -0.2316   -0.3999 N   0  0  0  0  0  0  0  0  0  0  0  0
   -0.4628    0.9734    0.1958 C   0  0  0  0  0  0  0  0  0  0  0  0
   -1.8481    1.4174   -0.2553 C   0  0  2  0  0  0  0  0  0  0  0  0
   -2.9006    1.0407    0.7654 C   0  0  0  0  0  0  0  0  0  0  0  0
   -3.0911   -0.4363    0.5690 C   0  0  0  0  0  0  0  0  0  0  0  0
   -2.4219   -0.7000   -0.7501 C   0  0  2  0  0  0  0  0  0  0  0  0
   -1.0282   -1.2670   -0.4783 C   0  0  0  0  0  0  0  0  0  0  0  0
   -2.2417    0.5882   -1.4027 N   0  0  0  0  0  0  0  0  0  0  0  0
    5.2920   -0.2671    0.9152 H   0  0  0  0  0  0  0  0  0  0  0  0
    4.7672    0.9444   -0.2931 H   0  0  0  0  0  0  0  0  0  0  0  0
    1.9501   -1.5037    0.9217 H   0  0  0  0  0  0  0  0  0  0  0  0
    2.7520    1.3328    0.8967 H   0  0  0  0  0  0  0  0  0  0  0  0
    2.2785    0.2770    2.1835 H   0  0  0  0  0  0  0  0  0  0  0  0
    1.6634    0.2924   -1.5364 H   0  0  0  0  0  0  0  0  0  0  0  0
    1.2972   -1.4293   -1.3691 H   0  0  0  0  0  0  0  0  0  0  0  0
   -0.5438    0.8226    1.2980 H   0  0  0  0  0  0  0  0  0  0  0  0
    0.2656    1.7627   -0.0218 H   0  0  0  0  0  0  0  0  0  0  0  0
   -1.8745    2.4897   -0.5072 H   0  0  0  0  0  0  0  0  0  0  0  0
   -2.6321    1.3303    1.7950 H   0  0  0  0  0  0  0  0  0  0  0  0
   -3.8369    1.5380    0.4336 H   0  0  0  0  0  0  0  0  0  0  0  0
   -2.6730   -1.0568    1.3758 H   0  0  0  0  0  0  0  0  0  0  0  0
   -4.1825   -0.7140    0.5059 H   0  0  0  0  0  0  0  0  0  0  0  0
   -3.0164   -1.3403   -1.4098 H   0  0  0  0  0  0  0  0  0  0  0  0
   -0.8053   -1.9424   -1.3219 H   0  0  0  0  0  0  0  0  0  0  0  0
   -1.0520   -1.8109    0.4998 H   0  0  0  0  0  0  0  0  0  0  0  0
   -3.1881    0.8825   -1.7174 H   0  0  0  0  0  0  0  0  0  0  0  0
  1  2  1  0
  2  3  2  0
  2  4  1  0
  4  5  1  0
  4  6  1  0
  6  7  1  0
  7  8  1  0
  8  9  1  0
  9 10  1  0
 10 11  1  0
 11 12  1  0
 12 13  1  0
 12 14  1  0
 13  7  1  0
 14  9  1  0
  1 15  1  0
  1 16  1  0
  4 17  1  1
  5 18  1  0
  5 19  1  0
  6 20  1  0
  6 21  1  0
  8 22  1  0
  8 23  1  0
  9 24  1  6
 10 25  1  0
 10 26  1  0
 11 27  1  0
 11 28  1  0
 12 29  1  6
 13 30  1  0
 13 31  1  0
 14 32  1  0
M  END
$$$$

     RDKit          3D

 32 33  0  0  0  0  0  0  0  0999 V2000
    4.2361    0.9558   -0.5218 N   0  0  0  0  0  0  0  0  0  0  0  0
    2.8555    0.7083   -0.7167 C   0  0  0  0  0  0  0  0  0  0  0  0
    2.1037    1.5867   -1.2404 O   0  0  0  0  0  0  0  0  0  0  0  0
    2.2525   -0.5830   -0.3143 C   0  0  1  0  0  0  0  0  0  0  0  0
    3.2950   -1.4116    0.2540 N   0  0  0  0  0  0  0  0  0  0  0  0
    1.1958   -0.3900    0.7473 C   0  0  0  0  0  0  0  0  0  0  0  0
    0.1066    0.4541    0.3187 N   0  0  0  0  0  0  0  0  0  0  0  0
   -0.8091    0.5333    1.4698 C   0  0  0  0  0  0  0  0  0  0  0  0
   -2.2017    0.8897    1.0559 C   0  0  2  0  0  0  0  0  0  0  0  0
   -3.0384   -0.3653    0.7870 C   0  0  0  0  0  0  0  0  0  0  0  0
   -2.9844   -0.5677   -0.7113 C   0  0  0  0  0  0  0  0  0  0  0  0
   -1.8925    0.4091   -1.1169 C   0  0  2  0  0  0  0  0  0  0  0  0
   -0.5783   -0.2140   -0.7732 C   0  0  0  0  0  0  0  0  0  0  0  0
   -2.1347    1.5340   -0.2399 N   0  0  0  0  0  0  0  0  0  0  0  0
    4.7155    1.6636   -1.1223 H   0  0  0  0  0  0  0  0  0  0  0  0
    4.7703    0.4369    0.2141 H   0  0  0  0  0  0  0  0  0  0  0  0
    1.8547   -1.0665   -1.2301 H   0  0  0  0  0  0  0  0  0  0  0  0
    3.2667   -1.3489    1.2957 H   0  0  0  0  0  0  0  0  0  0  0  0
    3.1889   -2.4072   -0.0462 H   0  0  0  0  0  0  0  0  0  0  0  0
    1.7047    0.1520    1.5907 H   0  0  0  0  0  0  0  0  0  0  0  0
    0.8278   -1.3277    1.1626 H   0  0  0  0  0  0  0  0  0  0  0  0
   -0.7509   -0.3870    2.0589 H   0  0  0  0  0  0  0  0  0  0  0  0
   -0.4050    1.3722    2.0909 H   0  0  0  0  0  0  0  0  0  0  0  0
   -2.7207    1.5126    1.8146 H   0  0  0  0  0  0  0  0  0  0  0  0
   -4.0922   -0.1750    1.0793 H   0  0  0  0  0  0  0  0  0  0  0  0
   -2.6367   -1.2425    1.3419 H   0  0  0  0  0  0  0  0  0  0  0  0
   -2.5717   -1.5866   -0.9364 H   0  0  0  0  0  0  0  0  0  0  0  0
   -3.9319   -0.3776   -1.2160 H   0  0  0  0  0  0  0  0  0  0  0  0
   -1.9902    0.6879   -2.1762 H   0  0  0  0  0  0  0  0  0  0  0  0
    0.0596   -0.1992   -1.6570 H   0  0  0  0  0  0  0  0  0  0  0  0
   -0.6825   -1.2894   -0.4488 H   0  0  0  0  0  0  0  0  0  0  0  0
   -3.0123    2.0429   -0.4724 H   0  0  0  0  0  0  0  0  0  0  0  0
  1  2  1  0
  2  3  2  0
  2  4  1  0
  4  5  1  0
  4  6  1  0
  6  7  1  0
  7  8  1  0
  8  9  1  0
  9 10  1  0
 10 11  1  0
 11 12  1  0
 12 13  1  0
 12 14  1  0
 13  7  1  0
 14  9  1  0
  1 15  1  0
  1 16  1  0
  4 17  1  6
  5 18  1  0
  5 19  1  0
  6 20  1  0
  6 21  1  0
  8 22  1  0
  8 23  1  0
  9 24  1  1
 10 25  1  0
 10 26  1  0
 11 27  1  0
 11 28  1  0
 12 29  1  6
 13 30  1  0
 13 31  1  0
 14 32  1  0
M  END
$$$$
