
     RDKit          3D

 24 25  0  0  0  0  0  0  0  0999 V2000
   -3.7542    1.5378    0.5044 C   0  0  0  0  0  0  0  0  0  0  0  0
   -2.8470    0.4508    0.1291 N   0  0  0  0  0  0  0  0  0  0  0  0
   -1.5183    0.5006   -0.0168 C   0  0  0  0  0  0  0  0  0  0  0  0
   -1.0509   -0.7263   -0.3742 C   0  0  0  0  0  0  0  0  0  0  0  0
    0.2877   -1.2470   -0.6610 C   0  0  2  0  0  0  0  0  0  0  0  0
    0.4489   -2.5292    0.0093 N   0  0  0  0  0  0  0  0  0  0  0  0
    1.3877   -0.3810   -0.2146 C   0  0  0  0  0  0  0  0  0  0  0  0
    1.4168    0.8908    0.1825 N   0  0  0  0  0  0  0  0  0  0  0  0
    2.6619    1.2538    0.4978 C   0  0  0  0  0  0  0  0  0  0  0  0
    3.0492    2.4100    0.9178 N   0  0  0  0  0  0  0  0  0  0  0  0
    3.4376    0.1683    0.2897 N   0  0  0  0  0  0  0  0  0  0  0  0
    2.6704   -0.8192   -0.1403 N   0  0  0  0  0  0  0  0  0  0  0  0
   -2.1587   -1.5218   -0.4380 N   0  0  0  0  0  0  0  0  0  0  0  0
   -3.2086   -0.7903   -0.1332 N   0  0  0  0  0  0  0  0  0  0  0  0
   -4.5285    1.0713    1.1474 H   0  0  0  0  0  0  0  0  0  0  0  0
   -3.1828    2.3139    1.0302 H   0  0  0  0  0  0  0  0  0  0  0  0
   -4.2495    1.9471   -0.3969 H   0  0  0  0  0  0  0  0  0  0  0  0
   -0.9076    1.3626    0.1224 H   0  0  0  0  0  0  0  0  0  0  0  0
    0.4028   -1.4294   -1.7442 H   0  0  0  0  0  0  0  0  0  0  0  0
   -0.4516   -3.0453   -0.1409 H   0  0  0  0  0  0  0  0  0  0  0  0
    0.5446   -2.3282    1.0476 H   0  0  0  0  0  0  0  0  0  0  0  0
    4.0491    2.5776    1.1328 H   0  0  0  0  0  0  0  0  0  0  0  0
    4.4875    0.1095    0.4431 H   0  0  0  0  0  0  0  0  0  0  0  0
    3.0134   -1.7766   -0.3796 H   0  0  0  0  0  0  0  0  0  0  0  0
  1  2  1  0
  2  3  1  0
  3  4  2  0
  4  5  1  0
  5  6  1  0
  5  7  1  0
  7  8  2  0
  8  9  1  0
  9 10  2  3
  9 11  1  0
 11 12  1  0
  4 13  1  0
 13 14  2  0
 14  2  1  0
 12  7  1  0
  1 15  1  0
  1 16  1  0
  1 17  1  0
  3 18  1  0
  5 19  1  6
  6 20  1  0
  6 21  1  0
 10 22  1  0
 11 23  1  0
 12 24  1  0
M  END
$$$$

     RDKit          3D

 24 25  0  0  0  0  0  0  0  0999 V2000
    3.7227    0.5004    1.1445 C   0  0  0  0  0  0  0  0  0  0  0  0
    2.7332   -0.2636    0.3715 N   0  0  0  0  0  0  0  0  0  0  0  0
    1.4037   -0.1220    0.3772 C   0  0  0  0  0  0  0  0  0  0  0  0
    0.8753   -1.0410   -0.4924 C   0  0  0  0  0  0  0  0  0  0  0  0
   -0.5672   -1.2725   -0.8305 C   0  0  2  0  0  0  0  0  0  0  0  0
   -0.7319   -1.4131   -2.2603 N   0  0  0  0  0  0  0  0  0  0  0  0
   -1.4301   -0.2262   -0.2512 C   0  0  0  0  0  0  0  0  0  0  0  0
   -1.6659    1.0224   -0.7049 N   0  0  0  0  0  0  0  0  0  0  0  0
   -2.5138    1.6434    0.1233 C   0  0  0  0  0  0  0  0  0  0  0  0
   -2.9914    2.8468    0.0471 N   0  0  0  0  0  0  0  0  0  0  0  0
   -2.8143    0.7857    1.1019 N   0  0  0  0  0  0  0  0  0  0  0  0
   -2.1570   -0.3376    0.8681 N   0  0  0  0  0  0  0  0  0  0  0  0
    1.9017   -1.7162   -1.0028 N   0  0  0  0  0  0  0  0  0  0  0  0
    3.0217   -1.2317   -0.4678 N   0  0  0  0  0  0  0  0  0  0  0  0
    3.7384    0.1954    2.2005 H   0  0  0  0  0  0  0  0  0  0  0  0
    4.7285    0.3352    0.7067 H   0  0  0  0  0  0  0  0  0  0  0  0
    3.4611    1.5933    1.0755 H   0  0  0  0  0  0  0  0  0  0  0  0
    0.8635    0.5916    0.9661 H   0  0  0  0  0  0  0  0  0  0  0  0
   -0.8299   -2.2559   -0.3833 H   0  0  0  0  0  0  0  0  0  0  0  0
   -1.3191   -2.2471   -2.5090 H   0  0  0  0  0  0  0  0  0  0  0  0
   -1.0819   -0.5631   -2.7271 H   0  0  0  0  0  0  0  0  0  0  0  0
   -2.7064    3.4544   -0.7504 H   0  0  0  0  0  0  0  0  0  0  0  0
   -3.4562    0.9377    1.9312 H   0  0  0  0  0  0  0  0  0  0  0  0
   -2.1843   -1.2163    1.4662 H   0  0  0  0  0  0  0  0  0  0  0  0
  1  2  1  0
  2  3  1  0
  3  4  2  0
  4  5  1  0
  5  6  1  0
  5  7  1  0
  7  8  2  0
  8  9  1  0
  9 10  2  3
  9 11  1  0
 11 12  1  0
  4 13  1  0
 13 14  2  0
 14  2  1  0
 12  7  1  0
  1 15  1  0
  1 16  1  0
  1 17  1  0
  3 18  1  0
  5 19  1  1
  6 20  1  0
  6 21  1  0
 10 22  1  0
 11 23  1  0
 12 24  1  0
M  END
$$$$

     RDKit          3D

 24 25  0  0  0  0  0  0  0  0999 V2000
    4.2044    0.6490   -0.3787 C   0  0  0  0  0  0  0  0  0  0  0  0
    2.8725    0.0966   -0.6353 N   0  0  0  0  0  0  0  0  0  0  0  0
    1.9107   -0.1944    0.2544 C   0  0  0  0  0  0  0  0  0  0  0  0
    0.8273   -0.6905   -0.4201 C   0  0  0  0  0  0  0  0  0  0  0  0
   -0.4553   -1.1371    0.1835 C   0  0  2  0  0  0  0  0  0  0  0  0
   -0.8287   -2.3950   -0.4254 N   0  0  0  0  0  0  0  0  0  0  0  0
   -1.5390   -0.1444   -0.0599 C   0  0  0  0  0  0  0  0  0  0  0  0
   -2.0708    0.7083    0.8348 N   0  0  0  0  0  0  0  0  0  0  0  0
   -3.0366    1.4647    0.2620 C   0  0  0  0  0  0  0  0  0  0  0  0
   -3.7583    2.3812    0.8084 N   0  0  0  0  0  0  0  0  0  0  0  0
   -3.0934    1.0595   -1.0196 N   0  0  0  0  0  0  0  0  0  0  0  0
   -2.1942    0.0950   -1.2083 N   0  0  0  0  0  0  0  0  0  0  0  0
    1.1525   -0.6916   -1.7129 N   0  0  0  0  0  0  0  0  0  0  0  0
    2.3985   -0.2093   -1.8159 N   0  0  0  0  0  0  0  0  0  0  0  0
    4.2755    1.0716    0.6401 H   0  0  0  0  0  0  0  0  0  0  0  0
    4.9189   -0.1638   -0.5272 H   0  0  0  0  0  0  0  0  0  0  0  0
    4.3593    1.5068   -1.0788 H   0  0  0  0  0  0  0  0  0  0  0  0
    1.9879   -0.0563    1.3261 H   0  0  0  0  0  0  0  0  0  0  0  0
   -0.3425   -1.2990    1.2779 H   0  0  0  0  0  0  0  0  0  0  0  0
   -0.0080   -2.9117   -0.8119 H   0  0  0  0  0  0  0  0  0  0  0  0
   -1.3935   -3.0038    0.2363 H   0  0  0  0  0  0  0  0  0  0  0  0
   -4.4674    2.8796    0.2299 H   0  0  0  0  0  0  0  0  0  0  0  0
   -3.7074    1.3928   -1.7931 H   0  0  0  0  0  0  0  0  0  0  0  0
   -2.0124   -0.4082   -2.1012 H   0  0  0  0  0  0  0  0  0  0  0  0
  1  2  1  0
  2  3  1  0
  3  4  2  0
  4  5  1  0
  5  6  1  0
  5  7  1  0
  7  8  2  0
  8  9  1  0
  9 10  2  3
  9 11  1  0
 11 12  1  0
  4 13  1  0
 13 14  2  0
 14  2  1  0
 12  7  1  0
  1 15  1  0
  1 16  1  0
  1 17  1  0
  3 18  1  0
  5 19  1  1
  6 20  1  0
  6 21  1  0
 10 22  1  0
 11 23  1  0
 12 24  1  0
M  END
$$$$

     RDKit          3D

 24 25  0  0  0  0  0  0  0  0999 V2000
    3.8500    1.3595    0.0079 C   0  0  0  0  0  0  0  0  0  0  0  0
    2.7742    0.5313    0.5354 N   0  0  0  0  0  0  0  0  0  0  0  0
    1.7818   -0.0078   -0.1998 C   0  0  0  0  0  0  0  0  0  0  0  0
    0.9414   -0.7305    0.6234 C   0  0  0  0  0  0  0  0  0  0  0  0
   -0.2630   -1.4812    0.2550 C   0  0  2  0  0  0  0  0  0  0  0  0
   -0.0577   -2.2841   -0.9313 N   0  0  0  0  0  0  0  0  0  0  0  0
   -1.4216   -0.5448    0.0691 C   0  0  0  0  0  0  0  0  0  0  0  0
   -1.6789    0.2147   -1.0086 N   0  0  0  0  0  0  0  0  0  0  0  0
   -2.8045    0.9219   -0.8089 C   0  0  0  0  0  0  0  0  0  0  0  0
   -3.3728    1.7557   -1.6037 N   0  0  0  0  0  0  0  0  0  0  0  0
   -3.2630    0.6008    0.4171 N   0  0  0  0  0  0  0  0  0  0  0  0
   -2.4232   -0.2801    0.9318 N   0  0  0  0  0  0  0  0  0  0  0  0
    1.4639   -0.6024    1.8568 N   0  0  0  0  0  0  0  0  0  0  0  0
    2.5520    0.1512    1.7798 N   0  0  0  0  0  0  0  0  0  0  0  0
    3.4771    2.0664   -0.7650 H   0  0  0  0  0  0  0  0  0  0  0  0
    4.3058    1.9534    0.8180 H   0  0  0  0  0  0  0  0  0  0  0  0
    4.6483    0.7390   -0.4621 H   0  0  0  0  0  0  0  0  0  0  0  0
    1.6882    0.1268   -1.2769 H   0  0  0  0  0  0  0  0  0  0  0  0
   -0.5126   -2.1839    1.0821 H   0  0  0  0  0  0  0  0  0  0  0  0
   -0.0643   -1.7215   -1.8056 H   0  0  0  0  0  0  0  0  0  0  0  0
   -0.7506   -3.0674   -0.9559 H   0  0  0  0  0  0  0  0  0  0  0  0
   -4.2485    2.2482   -1.3399 H   0  0  0  0  0  0  0  0  0  0  0  0
   -4.1306    0.9743    0.8935 H   0  0  0  0  0  0  0  0  0  0  0  0
   -2.4914   -0.7397    1.8878 H   0  0  0  0  0  0  0  0  0  0  0  0
  1  2  1  0
  2  3  1  0
  3  4  2  0
  4  5  1  0
  5  6  1  0
  5  7  1  0
  7  8  2  0
  8  9  1  0
  9 10  2  3
  9 11  1  0
 11 12  1  0
  4 13  1  0
 13 14  2  0
 14  2  1  0
 12  7  1  0
  1 15  1  0
  1 16  1  0
  1 17  1  0
  3 18  1  0
  5 19  1  1
  6 20  1  0
  6 21  1  0
 10 22  1  0
 11 23  1  0
 12 24  1  0
M  END
$$$$

     RDKit          3D

 24 25  0  0  0  0  0  0  0  0999 V2000
    3.6706   -1.5510    0.0769 C   0  0  0  0  0  0  0  0  0  0  0  0
    2.8049   -0.3957   -0.0522 N   0  0  0  0  0  0  0  0  0  0  0  0
    1.4596   -0.4244   -0.2840 C   0  0  0  0  0  0  0  0  0  0  0  0
    1.0042    0.8635   -0.3399 C   0  0  0  0  0  0  0  0  0  0  0  0
   -0.3376    1.4117   -0.5551 C   0  0  2  0  0  0  0  0  0  0  0  0
   -0.4894    2.5391    0.3630 N   0  0  0  0  0  0  0  0  0  0  0  0
   -1.4004    0.4293   -0.2645 C   0  0  0  0  0  0  0  0  0  0  0  0
   -1.2814   -0.8987   -0.1652 N   0  0  0  0  0  0  0  0  0  0  0  0
   -2.4969   -1.3997    0.1103 C   0  0  0  0  0  0  0  0  0  0  0  0
   -2.7856   -2.6482    0.2793 N   0  0  0  0  0  0  0  0  0  0  0  0
   -3.3533   -0.3661    0.1773 N   0  0  0  0  0  0  0  0  0  0  0  0
   -2.7129    0.7649   -0.0474 N   0  0  0  0  0  0  0  0  0  0  0  0
    2.1099    1.6557   -0.1363 N   0  0  0  0  0  0  0  0  0  0  0  0
    3.1427    0.8690    0.0277 N   0  0  0  0  0  0  0  0  0  0  0  0
    4.6075   -1.2681    0.5829 H   0  0  0  0  0  0  0  0  0  0  0  0
    3.9031   -1.9722   -0.9237 H   0  0  0  0  0  0  0  0  0  0  0  0
    3.0900   -2.3176    0.6368 H   0  0  0  0  0  0  0  0  0  0  0  0
    0.9322   -1.3542   -0.3953 H   0  0  0  0  0  0  0  0  0  0  0  0
   -0.4070    1.7548   -1.6155 H   0  0  0  0  0  0  0  0  0  0  0  0
   -0.5132    3.4437   -0.1209 H   0  0  0  0  0  0  0  0  0  0  0  0
    0.2471    2.5332    1.1031 H   0  0  0  0  0  0  0  0  0  0  0  0
   -3.7229   -3.0019    0.4887 H   0  0  0  0  0  0  0  0  0  0  0  0
   -4.3939   -0.4193    0.3787 H   0  0  0  0  0  0  0  0  0  0  0  0
   -3.0773    1.7523   -0.0691 H   0  0  0  0  0  0  0  0  0  0  0  0
  1  2  1  0
  2  3  1  0
  3  4  2  0
  4  5  1  0
  5  6  1  0
  5  7  1  0
  7  8  2  0
  8  9  1  0
  9 10  2  3
  9 11  1  0
 11 12  1  0
  4 13  1  0
 13 14  2  0
 14  2  1  0
 12  7  1  0
  1 15  1  0
  1 16  1  0
  1 17  1  0
  3 18  1  0
  5 19  1  6
  6 20  1  0
  6 21  1  0
 10 22  1  0
 11 23  1  0
 12 24  1  0
M  END
$$$$

     RDKit          3D

 24 25  0  0  0  0  0  0  0  0999 V2000
    4.1031    1.4088   -0.4897 C   0  0  0  0  0  0  0  0  0  0  0  0
    2.6960    1.1296   -0.2549 N   0  0  0  0  0  0  0  0  0  0  0  0
    2.1550   -0.1152   -0.2549 C   0  0  0  0  0  0  0  0  0  0  0  0
    0.7981   -0.0289   -0.0003 C   0  0  0  0  0  0  0  0  0  0  0  0
   -0.1503   -1.1682    0.0825 C   0  0  2  0  0  0  0  0  0  0  0  0
    0.1027   -2.0847   -1.0381 N   0  0  0  0  0  0  0  0  0  0  0  0
   -1.5241   -0.6528   -0.0502 C   0  0  0  0  0  0  0  0  0  0  0  0
   -1.8807    0.6283    0.1072 N   0  0  0  0  0  0  0  0  0  0  0  0
   -3.2110    0.6846   -0.0954 C   0  0  0  0  0  0  0  0  0  0  0  0
   -3.9604    1.7292   -0.0402 N   0  0  0  0  0  0  0  0  0  0  0  0
   -3.6544   -0.5496   -0.3724 N   0  0  0  0  0  0  0  0  0  0  0  0
   -2.6136   -1.3730   -0.3442 N   0  0  0  0  0  0  0  0  0  0  0  0
    0.5620    1.2934    0.1477 N   0  0  0  0  0  0  0  0  0  0  0  0
    1.7063    1.9550   -0.0088 N   0  0  0  0  0  0  0  0  0  0  0  0
    4.6437    1.0737    0.4118 H   0  0  0  0  0  0  0  0  0  0  0  0
    4.2639    2.4769   -0.7122 H   0  0  0  0  0  0  0  0  0  0  0  0
    4.4871    0.8203   -1.3599 H   0  0  0  0  0  0  0  0  0  0  0  0
    2.7249   -1.0173   -0.4304 H   0  0  0  0  0  0  0  0  0  0  0  0
    0.0141   -1.7045    1.0399 H   0  0  0  0  0  0  0  0  0  0  0  0
   -0.8198   -2.4687   -1.3350 H   0  0  0  0  0  0  0  0  0  0  0  0
    0.4648   -1.4980   -1.8235 H   0  0  0  0  0  0  0  0  0  0  0  0
   -3.5623    2.6793    0.1821 H   0  0  0  0  0  0  0  0  0  0  0  0
   -4.6513   -0.8078   -0.5744 H   0  0  0  0  0  0  0  0  0  0  0  0
   -2.6939   -2.4103   -0.5304 H   0  0  0  0  0  0  0  0  0  0  0  0
  1  2  1  0
  2  3  1  0
  3  4  2  0
  4  5  1  0
  5  6  1  0
  5  7  1  0
  7  8  2  0
  8  9  1  0
  9 10  2  3
  9 11  1  0
 11 12  1  0
  4 13  1  0
 13 14  2  0
 14  2  1  0
 12  7  1  0
  1 15  1  0
  1 16  1  0
  1 17  1  0
  3 18  1  0
  5 19  1  1
  6 20  1  0
  6 21  1  0
 10 22  1  0
 11 23  1  0
 12 24  1  0
M  END
$$$$

     RDKit          3D

 24 25  0  0  0  0  0  0  0  0999 V2000
    3.3691    1.4514   -0.8452 C   0  0  0  0  0  0  0  0  0  0  0  0
    2.6357    0.3325   -0.2487 N   0  0  0  0  0  0  0  0  0  0  0  0
    1.3204    0.3114   -0.0229 C   0  0  0  0  0  0  0  0  0  0  0  0
    1.0123   -0.8960    0.5411 C   0  0  0  0  0  0  0  0  0  0  0  0
   -0.3540   -1.3108    0.9427 C   0  0  2  0  0  0  0  0  0  0  0  0
   -0.6399   -2.6683    0.5194 N   0  0  0  0  0  0  0  0  0  0  0  0
   -1.3562   -0.3723    0.3920 C   0  0  0  0  0  0  0  0  0  0  0  0
   -1.9995    0.6256    1.0222 N   0  0  0  0  0  0  0  0  0  0  0  0
   -2.8193    1.2235    0.1494 C   0  0  0  0  0  0  0  0  0  0  0  0
   -3.6088    2.2366    0.3964 N   0  0  0  0  0  0  0  0  0  0  0  0
   -2.6746    0.5892   -1.0122 N   0  0  0  0  0  0  0  0  0  0  0  0
   -1.7951   -0.3717   -0.8703 N   0  0  0  0  0  0  0  0  0  0  0  0
    2.1615   -1.5755    0.6405 N   0  0  0  0  0  0  0  0  0  0  0  0
    3.1213   -0.8085    0.1563 N   0  0  0  0  0  0  0  0  0  0  0  0
    3.0708    1.4983   -1.9037 H   0  0  0  0  0  0  0  0  0  0  0  0
    3.0536    2.3811   -0.3200 H   0  0  0  0  0  0  0  0  0  0  0  0
    4.4486    1.3461   -0.7323 H   0  0  0  0  0  0  0  0  0  0  0  0
    0.6481    1.1400   -0.2643 H   0  0  0  0  0  0  0  0  0  0  0  0
   -0.3717   -1.2929    2.0635 H   0  0  0  0  0  0  0  0  0  0  0  0
   -1.1414   -3.1637    1.2753 H   0  0  0  0  0  0  0  0  0  0  0  0
    0.2575   -3.1555    0.2927 H   0  0  0  0  0  0  0  0  0  0  0  0
   -3.6241    2.6413    1.3591 H   0  0  0  0  0  0  0  0  0  0  0  0
   -3.1981    0.8481   -1.8754 H   0  0  0  0  0  0  0  0  0  0  0  0
   -1.5163   -1.0100   -1.6555 H   0  0  0  0  0  0  0  0  0  0  0  0
  1  2  1  0
  2  3  1  0
  3  4  2  0
  4  5  1  0
  5  6  1  0
  5  7  1  0
  7  8  2  0
  8  9  1  0
  9 10  2  3
  9 11  1  0
 11 12  1  0
  4 13  1  0
 13 14  2  0
 14  2  1  0
 12  7  1  0
  1 15  1  0
  1 16  1  0
  1 17  1  0
  3 18  1  0
  5 19  1  1
  6 20  1  0
  6 21  1  0
 10 22  1  0
 11 23  1  0
 12 24  1  0
M  END
$$$$

     RDKit          3D

 24 25  0  0  0  0  0  0  0  0999 V2000
    3.7032    0.9571   -0.7700 C   0  0  0  0  0  0  0  0  0  0  0  0
    2.7213    0.0006   -0.2624 N   0  0  0  0  0  0  0  0  0  0  0  0
    1.4132    0.1891   -0.0543 C   0  0  0  0  0  0  0  0  0  0  0  0
    0.9029   -0.9903    0.4279 C   0  0  0  0  0  0  0  0  0  0  0  0
   -0.4861   -1.3127    0.8161 C   0  0  2  0  0  0  0  0  0  0  0  0
   -0.8840   -2.6119    0.2799 N   0  0  0  0  0  0  0  0  0  0  0  0
   -1.4383   -0.2571    0.4540 C   0  0  0  0  0  0  0  0  0  0  0  0
   -1.9683   -0.0758   -0.7716 N   0  0  0  0  0  0  0  0  0  0  0  0
   -2.7890    0.9816   -0.7114 C   0  0  0  0  0  0  0  0  0  0  0  0
   -3.4637    1.4308   -1.7211 N   0  0  0  0  0  0  0  0  0  0  0  0
   -2.7520    1.4384    0.5578 N   0  0  0  0  0  0  0  0  0  0  0  0
   -1.9213    0.6804    1.2844 N   0  0  0  0  0  0  0  0  0  0  0  0
    1.9280   -1.8425    0.4904 N   0  0  0  0  0  0  0  0  0  0  0  0
    3.0259   -1.2314    0.0695 N   0  0  0  0  0  0  0  0  0  0  0  0
    3.2281    1.7995   -1.2938 H   0  0  0  0  0  0  0  0  0  0  0  0
    4.2766    1.2956    0.1333 H   0  0  0  0  0  0  0  0  0  0  0  0
    4.4189    0.3972   -1.3986 H   0  0  0  0  0  0  0  0  0  0  0  0
    0.8530    1.0825   -0.2253 H   0  0  0  0  0  0  0  0  0  0  0  0
   -0.4948   -1.4519    1.9375 H   0  0  0  0  0  0  0  0  0  0  0  0
   -0.1095   -3.2714    0.4356 H   0  0  0  0  0  0  0  0  0  0  0  0
   -1.0658   -2.5397   -0.7534 H   0  0  0  0  0  0  0  0  0  0  0  0
   -4.0973    2.2560   -1.6523 H   0  0  0  0  0  0  0  0  0  0  0  0
   -3.2910    2.2529    0.9002 H   0  0  0  0  0  0  0  0  0  0  0  0
   -1.7104    0.8229    2.3132 H   0  0  0  0  0  0  0  0  0  0  0  0
  1  2  1  0
  2  3  1  0
  3  4  2  0
  4  5  1  0
  5  6  1  0
  5  7  1  0
  7  8  2  0
  8  9  1  0
  9 10  2  3
  9 11  1  0
 11 12  1  0
  4 13  1  0
 13 14  2  0
 14  2  1  0
 12  7  1  0
  1 15  1  0
  1 16  1  0
  1 17  1  0
  3 18  1  0
  5 19  1  1
  6 20  1  0
  6 21  1  0
 10 22  1  0
 11 23  1  0
 12 24  1  0
M  END
$$$$
