
     RDKit          3D

 28 29  0  0  0  0  0  0  0  0999 V2000
    4.6921   -0.4520   -1.3653 N   0  0  0  0  0  0  0  0  0  0  0  0
    3.5461    0.1782   -0.7418 C   0  0  0  0  0  0  0  0  0  0  0  0
    3.0664   -0.6369    0.4565 C   0  0  0  0  0  0  0  0  0  0  0  0
    1.7125   -0.3499    0.0348 N   0  0  0  0  0  0  0  0  0  0  0  0
    0.4831   -0.2431    0.7109 C   0  0  0  0  0  0  0  0  0  0  0  0
    0.4157   -0.4090    1.9297 O   0  0  0  0  0  0  0  0  0  0  0  0
   -0.7014    0.0578   -0.0001 N   0  0  0  0  0  0  0  0  0  0  0  0
   -1.9948    0.1894    0.5784 C   0  0  1  0  0  0  0  0  0  0  0  0
   -2.6578    1.5161    0.3716 C   0  0  0  0  0  0  0  0  0  0  0  0
   -4.0517    1.1752    0.9293 C   0  0  0  0  0  0  0  0  0  0  0  0
   -4.2649   -0.1159    0.2590 N   0  0  0  0  0  0  0  0  0  0  0  0
   -3.0029   -0.7437    0.0506 C   0  0  0  0  0  0  0  0  0  0  0  0
   -2.8281   -1.8754   -0.4839 O   0  0  0  0  0  0  0  0  0  0  0  0
    2.2104   -0.2354   -1.3244 C   0  0  0  0  0  0  0  0  0  0  0  0
    5.3054    0.2499   -1.8365 H   0  0  0  0  0  0  0  0  0  0  0  0
    5.2777   -0.8594   -0.5823 H   0  0  0  0  0  0  0  0  0  0  0  0
    3.6556    1.2373   -0.4901 H   0  0  0  0  0  0  0  0  0  0  0  0
    3.3618   -0.2278    1.4335 H   0  0  0  0  0  0  0  0  0  0  0  0
    3.2776   -1.7265    0.3140 H   0  0  0  0  0  0  0  0  0  0  0  0
   -0.6045    0.1916   -1.0317 H   0  0  0  0  0  0  0  0  0  0  0  0
   -1.9304    0.0191    1.6762 H   0  0  0  0  0  0  0  0  0  0  0  0
   -2.2001    2.3473    0.9225 H   0  0  0  0  0  0  0  0  0  0  0  0
   -2.8489    1.7480   -0.6963 H   0  0  0  0  0  0  0  0  0  0  0  0
   -4.7901    1.9219    0.6409 H   0  0  0  0  0  0  0  0  0  0  0  0
   -3.9431    0.9993    2.0038 H   0  0  0  0  0  0  0  0  0  0  0  0
   -5.1925   -0.5042   -0.0169 H   0  0  0  0  0  0  0  0  0  0  0  0
    1.7295    0.5622   -1.9249 H   0  0  0  0  0  0  0  0  0  0  0  0
    2.2772   -1.2123   -1.8173 H   0  0  0  0  0  0  0  0  0  0  0  0
  1  2  1  0
  2  3  1  0
  3  4  1  0
  4  5  1  0
  5  6  2  0
  5  7  1  0
  7  8  1  0
  8  9  1  0
  9 10  1  0
 10 11  1  0
 11 12  1  0
 12 13  2  0
  4 14  1  0
 14  2  1  0
 12  8  1  0
  1 15  1  0
  1 16  1  0
  2 17  1  0
  3 18  1  0
  3 19  1  0
  7 20  1  0
  8 21  1  1
  9 22  1  0
  9 23  1  0
 10 24  1  0
 10 25  1  0
 11 26  1  0
 14 27  1  0
 14 28  1  0
M  END
$$$$

     RDKit          3D

 28 29  0  0  0  0  0  0  0  0999 V2000
   -4.6285    0.2050    0.4888 N   0  0  0  0  0  0  0  0  0  0  0  0
   -3.7978   -0.5264   -0.4277 C   0  0  0  0  0  0  0  0  0  0  0  0
   -2.9053   -1.5612    0.1936 C   0  0  0  0  0  0  0  0  0  0  0  0
   -1.7379   -0.7509   -0.0736 N   0  0  0  0  0  0  0  0  0  0  0  0
   -0.3555   -0.8638    0.2174 C   0  0  0  0  0  0  0  0  0  0  0  0
    0.1250   -1.8430    0.8509 O   0  0  0  0  0  0  0  0  0  0  0  0
    0.5963    0.1191   -0.1831 N   0  0  0  0  0  0  0  0  0  0  0  0
    1.9823    0.0699    0.0724 C   0  0  1  0  0  0  0  0  0  0  0  0
    2.8910    0.1075   -1.1034 C   0  0  0  0  0  0  0  0  0  0  0  0
    4.2303    0.3636   -0.3873 C   0  0  0  0  0  0  0  0  0  0  0  0
    3.8240    1.4489    0.5037 N   0  0  0  0  0  0  0  0  0  0  0  0
    2.4869    1.1830    0.9157 C   0  0  0  0  0  0  0  0  0  0  0  0
    1.7986    1.7320    1.8043 O   0  0  0  0  0  0  0  0  0  0  0  0
   -2.5515    0.2299   -0.7625 C   0  0  0  0  0  0  0  0  0  0  0  0
   -4.3258    1.2038    0.5461 H   0  0  0  0  0  0  0  0  0  0  0  0
   -4.6003   -0.1777    1.4540 H   0  0  0  0  0  0  0  0  0  0  0  0
   -4.3027   -0.8718   -1.3563 H   0  0  0  0  0  0  0  0  0  0  0  0
   -2.9501   -2.5204   -0.3488 H   0  0  0  0  0  0  0  0  0  0  0  0
   -3.1032   -1.6421    1.2822 H   0  0  0  0  0  0  0  0  0  0  0  0
    0.2179    0.9439   -0.7124 H   0  0  0  0  0  0  0  0  0  0  0  0
    2.2040   -0.8696    0.6405 H   0  0  0  0  0  0  0  0  0  0  0  0
    2.7659    0.9677   -1.7621 H   0  0  0  0  0  0  0  0  0  0  0  0
    3.0111   -0.8588   -1.6277 H   0  0  0  0  0  0  0  0  0  0  0  0
    5.0152    0.6562   -1.0833 H   0  0  0  0  0  0  0  0  0  0  0  0
    4.5103   -0.5345    0.2309 H   0  0  0  0  0  0  0  0  0  0  0  0
    4.3668    2.2841    0.8140 H   0  0  0  0  0  0  0  0  0  0  0  0
   -2.4588    1.2092   -0.2495 H   0  0  0  0  0  0  0  0  0  0  0  0
   -2.3079    0.2963   -1.8408 H   0  0  0  0  0  0  0  0  0  0  0  0
  1  2  1  0
  2  3  1  0
  3  4  1  0
  4  5  1  0
  5  6  2  0
  5  7  1  0
  7  8  1  0
  8  9  1  0
  9 10  1  0
 10 11  1  0
 11 12  1  0
 12 13  2  0
  4 14  1  0
 14  2  1  0
 12  8  1  0
  1 15  1  0
  1 16  1  0
  2 17  1  0
  3 18  1  0
  3 19  1  0
  7 20  1  0
  8 21  1  1
  9 22  1  0
  9 23  1  0
 10 24  1  0
 10 25  1  0
 11 26  1  0
 14 27  1  0
 14 28  1  0
M  END
$$$$

     RDKit          3D

 28 29  0  0  0  0  0  0  0  0999 V2000
    4.8954    0.3250   -0.3519 N   0  0  0  0  0  0  0  0  0  0  0  0
    3.5000    0.6904   -0.3308 C   0  0  0  0  0  0  0  0  0  0  0  0
    2.9149    0.8660    1.0701 C   0  0  0  0  0  0  0  0  0  0  0  0
    1.7071    0.2953    0.5400 N   0  0  0  0  0  0  0  0  0  0  0  0
    0.3308    0.4383    0.7727 C   0  0  0  0  0  0  0  0  0  0  0  0
   -0.1558    1.2267    1.6334 O   0  0  0  0  0  0  0  0  0  0  0  0
   -0.6440   -0.3200    0.0306 N   0  0  0  0  0  0  0  0  0  0  0  0
   -2.0454   -0.1770    0.2647 C   0  0  1  0  0  0  0  0  0  0  0  0
   -2.8038    0.3540   -0.9383 C   0  0  0  0  0  0  0  0  0  0  0  0
   -4.2352    0.0159   -0.5657 C   0  0  0  0  0  0  0  0  0  0  0  0
   -4.0988   -1.2679    0.1351 N   0  0  0  0  0  0  0  0  0  0  0  0
   -2.7502   -1.4316    0.5513 C   0  0  0  0  0  0  0  0  0  0  0  0
   -2.2646   -2.4676    1.0688 O   0  0  0  0  0  0  0  0  0  0  0  0
    2.5396   -0.4856   -0.3333 C   0  0  0  0  0  0  0  0  0  0  0  0
    5.4366    1.2155   -0.4706 H   0  0  0  0  0  0  0  0  0  0  0  0
    5.1285   -0.3243   -1.1399 H   0  0  0  0  0  0  0  0  0  0  0  0
    3.1802    1.4508   -1.0490 H   0  0  0  0  0  0  0  0  0  0  0  0
    2.8568    1.9196    1.4005 H   0  0  0  0  0  0  0  0  0  0  0  0
    3.4877    0.2029    1.7623 H   0  0  0  0  0  0  0  0  0  0  0  0
   -0.3054   -0.9895   -0.6961 H   0  0  0  0  0  0  0  0  0  0  0  0
   -2.2113    0.5858    1.0798 H   0  0  0  0  0  0  0  0  0  0  0  0
   -2.6557    1.4361   -1.0922 H   0  0  0  0  0  0  0  0  0  0  0  0
   -2.5661   -0.2381   -1.8618 H   0  0  0  0  0  0  0  0  0  0  0  0
   -4.6015    0.7956    0.1317 H   0  0  0  0  0  0  0  0  0  0  0  0
   -4.8764   -0.0888   -1.4712 H   0  0  0  0  0  0  0  0  0  0  0  0
   -4.8756   -1.9652    0.3068 H   0  0  0  0  0  0  0  0  0  0  0  0
    2.9958   -1.3241    0.2336 H   0  0  0  0  0  0  0  0  0  0  0  0
    2.1164   -0.7381   -1.3183 H   0  0  0  0  0  0  0  0  0  0  0  0
  1  2  1  0
  2  3  1  0
  3  4  1  0
  4  5  1  0
  5  6  2  0
  5  7  1  0
  7  8  1  0
  8  9  1  0
  9 10  1  0
 10 11  1  0
 11 12  1  0
 12 13  2  0
  4 14  1  0
 14  2  1  0
 12  8  1  0
  1 15  1  0
  1 16  1  0
  2 17  1  0
  3 18  1  0
  3 19  1  0
  7 20  1  0
  8 21  1  1
  9 22  1  0
  9 23  1  0
 10 24  1  0
 10 25  1  0
 11 26  1  0
 14 27  1  0
 14 28  1  0
M  END
$$$$

     RDKit          3D

 28 29  0  0  0  0  0  0  0  0999 V2000
    3.6520   -0.0595   -1.7891 N   0  0  0  0  0  0  0  0  0  0  0  0
    3.6579   -0.7499   -0.5184 C   0  0  0  0  0  0  0  0  0  0  0  0
    2.3730   -1.4933   -0.2207 C   0  0  0  0  0  0  0  0  0  0  0  0
    1.8687   -0.2688    0.3719 N   0  0  0  0  0  0  0  0  0  0  0  0
    0.6032    0.3257    0.5867 C   0  0  0  0  0  0  0  0  0  0  0  0
    0.5783    1.4600    1.1672 O   0  0  0  0  0  0  0  0  0  0  0  0
   -0.6187   -0.2677    0.1948 N   0  0  0  0  0  0  0  0  0  0  0  0
   -1.8417    0.4004    0.4504 C   0  0  1  0  0  0  0  0  0  0  0  0
   -2.6680    0.6283   -0.8165 C   0  0  0  0  0  0  0  0  0  0  0  0
   -3.9944    1.0328   -0.2050 C   0  0  0  0  0  0  0  0  0  0  0  0
   -4.0778    0.1864    0.9945 N   0  0  0  0  0  0  0  0  0  0  0  0
   -2.8078   -0.4062    1.2425 C   0  0  0  0  0  0  0  0  0  0  0  0
   -2.6146   -1.4022    1.9868 O   0  0  0  0  0  0  0  0  0  0  0  0
    3.2332    0.1003    0.6588 C   0  0  0  0  0  0  0  0  0  0  0  0
    4.6270    0.1428   -2.1049 H   0  0  0  0  0  0  0  0  0  0  0  0
    3.1156    0.8187   -1.7897 H   0  0  0  0  0  0  0  0  0  0  0  0
    4.5885   -1.2958   -0.3210 H   0  0  0  0  0  0  0  0  0  0  0  0
    2.5941   -2.2955    0.5325 H   0  0  0  0  0  0  0  0  0  0  0  0
    1.8411   -1.8563   -1.1080 H   0  0  0  0  0  0  0  0  0  0  0  0
   -0.6044   -1.1859   -0.2756 H   0  0  0  0  0  0  0  0  0  0  0  0
   -1.7259    1.3784    0.9607 H   0  0  0  0  0  0  0  0  0  0  0  0
   -2.7897   -0.3231   -1.3448 H   0  0  0  0  0  0  0  0  0  0  0  0
   -2.2289    1.4299   -1.4396 H   0  0  0  0  0  0  0  0  0  0  0  0
   -4.0323    2.1004    0.0407 H   0  0  0  0  0  0  0  0  0  0  0  0
   -4.8611    0.7136   -0.8369 H   0  0  0  0  0  0  0  0  0  0  0  0
   -4.9430    0.0424    1.5776 H   0  0  0  0  0  0  0  0  0  0  0  0
    3.4769    1.1724    0.5347 H   0  0  0  0  0  0  0  0  0  0  0  0
    3.5988   -0.3284    1.6029 H   0  0  0  0  0  0  0  0  0  0  0  0
  1  2  1  0
  2  3  1  0
  3  4  1  0
  4  5  1  0
  5  6  2  0
  5  7  1  0
  7  8  1  0
  8  9  1  0
  9 10  1  0
 10 11  1  0
 11 12  1  0
 12 13  2  0
  4 14  1  0
 14  2  1  0
 12  8  1  0
  1 15  1  0
  1 16  1  0
  2 17  1  0
  3 18  1  0
  3 19  1  0
  7 20  1  0
  8 21  1  1
  9 22  1  0
  9 23  1  0
 10 24  1  0
 10 25  1  0
 11 26  1  0
 14 27  1  0
 14 28  1  0
M  END
$$$$

     RDKit          3D

 28 29  0  0  0  0  0  0  0  0999 V2000
    3.7709    1.1541    0.8578 N   0  0  0  0  0  0  0  0  0  0  0  0
    3.7840   -0.1231    0.2099 C   0  0  0  0  0  0  0  0  0  0  0  0
    3.1481   -0.0771   -1.1717 C   0  0  0  0  0  0  0  0  0  0  0  0
    1.8629   -0.2102   -0.5185 N   0  0  0  0  0  0  0  0  0  0  0  0
    0.5520    0.2210   -0.8551 C   0  0  0  0  0  0  0  0  0  0  0  0
    0.3425    0.8597   -1.9168 O   0  0  0  0  0  0  0  0  0  0  0  0
   -0.5781   -0.0360   -0.0334 N   0  0  0  0  0  0  0  0  0  0  0  0
   -1.9162    0.3764   -0.3279 C   0  0  1  0  0  0  0  0  0  0  0  0
   -2.7596   -0.9007   -0.4327 C   0  0  0  0  0  0  0  0  0  0  0  0
   -4.1065   -0.5233    0.1407 C   0  0  0  0  0  0  0  0  0  0  0  0
   -3.7761    0.5158    1.0986 N   0  0  0  0  0  0  0  0  0  0  0  0
   -2.5527    1.1491    0.7549 C   0  0  0  0  0  0  0  0  0  0  0  0
   -2.0753    2.1916    1.2730 O   0  0  0  0  0  0  0  0  0  0  0  0
    2.5393   -0.9324    0.5388 C   0  0  0  0  0  0  0  0  0  0  0  0
    2.8771    1.3178    1.4044 H   0  0  0  0  0  0  0  0  0  0  0  0
    3.8723    1.9389    0.1910 H   0  0  0  0  0  0  0  0  0  0  0  0
    4.7303   -0.6947    0.2575 H   0  0  0  0  0  0  0  0  0  0  0  0
    3.3132    0.8671   -1.7127 H   0  0  0  0  0  0  0  0  0  0  0  0
    3.3774   -1.0099   -1.7491 H   0  0  0  0  0  0  0  0  0  0  0  0
   -0.4087   -0.5659    0.8489 H   0  0  0  0  0  0  0  0  0  0  0  0
   -2.0332    0.9249   -1.2600 H   0  0  0  0  0  0  0  0  0  0  0  0
   -2.8090   -1.2797   -1.4586 H   0  0  0  0  0  0  0  0  0  0  0  0
   -2.3343   -1.7014    0.2070 H   0  0  0  0  0  0  0  0  0  0  0  0
   -4.6106   -1.3909    0.6131 H   0  0  0  0  0  0  0  0  0  0  0  0
   -4.7053   -0.1112   -0.7043 H   0  0  0  0  0  0  0  0  0  0  0  0
   -4.3424    0.7966    1.9525 H   0  0  0  0  0  0  0  0  0  0  0  0
    2.6903   -1.9850    0.2363 H   0  0  0  0  0  0  0  0  0  0  0  0
    2.1478   -0.7713    1.5565 H   0  0  0  0  0  0  0  0  0  0  0  0
  1  2  1  0
  2  3  1  0
  3  4  1  0
  4  5  1  0
  5  6  2  0
  5  7  1  0
  7  8  1  0
  8  9  1  0
  9 10  1  0
 10 11  1  0
 11 12  1  0
 12 13  2  0
  4 14  1  0
 14  2  1  0
 12  8  1  0
  1 15  1  0
  1 16  1  0
  2 17  1  0
  3 18  1  0
  3 19  1  0
  7 20  1  0
  8 21  1  6
  9 22  1  0
  9 23  1  0
 10 24  1  0
 10 25  1  0
 11 26  1  0
 14 27  1  0
 14 28  1  0
M  END
$$$$

     RDKit          3D

 28 29  0  0  0  0  0  0  0  0999 V2000
   -4.5623    0.8385   -0.4803 N   0  0  0  0  0  0  0  0  0  0  0  0
   -3.7740   -0.2597    0.0394 C   0  0  0  0  0  0  0  0  0  0  0  0
   -2.9903    0.0479    1.2734 C   0  0  0  0  0  0  0  0  0  0  0  0
   -1.7754   -0.0814    0.5310 N   0  0  0  0  0  0  0  0  0  0  0  0
   -0.3829    0.1227    0.8329 C   0  0  0  0  0  0  0  0  0  0  0  0
   -0.0306    0.5005    1.9766 O   0  0  0  0  0  0  0  0  0  0  0  0
    0.6221   -0.0959   -0.1464 N   0  0  0  0  0  0  0  0  0  0  0  0
    1.9929    0.1195    0.1983 C   0  0  1  0  0  0  0  0  0  0  0  0
    2.8564   -1.1173   -0.0600 C   0  0  0  0  0  0  0  0  0  0  0  0
    4.2522   -0.4845    0.0100 C   0  0  0  0  0  0  0  0  0  0  0  0
    4.0494    0.8146   -0.6174 N   0  0  0  0  0  0  0  0  0  0  0  0
    2.6585    1.1116   -0.6921 C   0  0  0  0  0  0  0  0  0  0  0  0
    2.1181    2.0289   -1.3758 O   0  0  0  0  0  0  0  0  0  0  0  0
   -2.4717   -0.5033   -0.6667 C   0  0  0  0  0  0  0  0  0  0  0  0
   -5.5191    0.7377   -0.0919 H   0  0  0  0  0  0  0  0  0  0  0  0
   -4.1249    1.7525   -0.3210 H   0  0  0  0  0  0  0  0  0  0  0  0
   -4.3753   -1.1888    0.0625 H   0  0  0  0  0  0  0  0  0  0  0  0
   -3.1149    1.0701    1.6977 H   0  0  0  0  0  0  0  0  0  0  0  0
   -3.1108   -0.7189    2.0816 H   0  0  0  0  0  0  0  0  0  0  0  0
    0.3797   -0.4082   -1.1042 H   0  0  0  0  0  0  0  0  0  0  0  0
    2.1544    0.4466    1.2252 H   0  0  0  0  0  0  0  0  0  0  0  0
    2.7142   -1.8870    0.6979 H   0  0  0  0  0  0  0  0  0  0  0  0
    2.6409   -1.4425   -1.0949 H   0  0  0  0  0  0  0  0  0  0  0  0
    4.9828   -1.1033   -0.5150 H   0  0  0  0  0  0  0  0  0  0  0  0
    4.4688   -0.3546    1.0984 H   0  0  0  0  0  0  0  0  0  0  0  0
    4.8386    1.4251   -0.9575 H   0  0  0  0  0  0  0  0  0  0  0  0
   -2.2621    0.1912   -1.5135 H   0  0  0  0  0  0  0  0  0  0  0  0
   -2.2347   -1.5616   -0.8809 H   0  0  0  0  0  0  0  0  0  0  0  0
  1  2  1  0
  2  3  1  0
  3  4  1  0
  4  5  1  0
  5  6  2  0
  5  7  1  0
  7  8  1  0
  8  9  1  0
  9 10  1  0
 10 11  1  0
 11 12  1  0
 12 13  2  0
  4 14  1  0
 14  2  1  0
 12  8  1  0
  1 15  1  0
  1 16  1  0
  2 17  1  0
  3 18  1  0
  3 19  1  0
  7 20  1  0
  8 21  1  1
  9 22  1  0
  9 23  1  0
 10 24  1  0
 10 25  1  0
 11 26  1  0
 14 27  1  0
 14 28  1  0
M  END
$$$$

     RDKit          3D

 28 29  0  0  0  0  0  0  0  0999 V2000
    4.3735   -1.3257    0.1855 N   0  0  0  0  0  0  0  0  0  0  0  0
    3.7536   -0.0424    0.4587 C   0  0  0  0  0  0  0  0  0  0  0  0
    2.3380   -0.1202    0.9896 C   0  0  0  0  0  0  0  0  0  0  0  0
    1.8033    0.3361   -0.2762 N   0  0  0  0  0  0  0  0  0  0  0  0
    0.4893    0.5215   -0.7602 C   0  0  0  0  0  0  0  0  0  0  0  0
    0.3420    0.9462   -1.9481 O   0  0  0  0  0  0  0  0  0  0  0  0
   -0.6497    0.2460    0.0447 N   0  0  0  0  0  0  0  0  0  0  0  0
   -1.9513    0.4592   -0.5177 C   0  0  1  0  0  0  0  0  0  0  0  0
   -2.7069   -0.8537   -0.5449 C   0  0  0  0  0  0  0  0  0  0  0  0
   -4.1041   -0.5397   -0.1088 C   0  0  0  0  0  0  0  0  0  0  0  0
   -4.1473    0.8807    0.1600 N   0  0  0  0  0  0  0  0  0  0  0  0
   -2.8085    1.3233    0.3122 C   0  0  0  0  0  0  0  0  0  0  0  0
   -2.4321    2.2808    1.0282 O   0  0  0  0  0  0  0  0  0  0  0  0
    3.1358    0.5122   -0.8074 C   0  0  0  0  0  0  0  0  0  0  0  0
    3.6829   -2.1169    0.2121 H   0  0  0  0  0  0  0  0  0  0  0  0
    5.2197   -1.4911    0.7396 H   0  0  0  0  0  0  0  0  0  0  0  0
    4.4126    0.6623    0.9972 H   0  0  0  0  0  0  0  0  0  0  0  0
    2.0502   -1.1408    1.2673 H   0  0  0  0  0  0  0  0  0  0  0  0
    2.1104    0.6030    1.8049 H   0  0  0  0  0  0  0  0  0  0  0  0
   -0.5008   -0.1042    1.0232 H   0  0  0  0  0  0  0  0  0  0  0  0
   -1.8791    0.8231   -1.5406 H   0  0  0  0  0  0  0  0  0  0  0  0
   -2.2498   -1.5981    0.1531 H   0  0  0  0  0  0  0  0  0  0  0  0
   -2.6929   -1.3039   -1.5786 H   0  0  0  0  0  0  0  0  0  0  0  0
   -4.8612   -0.8017   -0.8842 H   0  0  0  0  0  0  0  0  0  0  0  0
   -4.3839   -1.1365    0.7966 H   0  0  0  0  0  0  0  0  0  0  0  0
   -5.0361    1.4500    0.2237 H   0  0  0  0  0  0  0  0  0  0  0  0
    3.3565    1.6029   -0.9310 H   0  0  0  0  0  0  0  0  0  0  0  0
    3.3359   -0.0725   -1.7245 H   0  0  0  0  0  0  0  0  0  0  0  0
  1  2  1  0
  2  3  1  0
  3  4  1  0
  4  5  1  0
  5  6  2  0
  5  7  1  0
  7  8  1  0
  8  9  1  0
  9 10  1  0
 10 11  1  0
 11 12  1  0
 12 13  2  0
  4 14  1  0
 14  2  1  0
 12  8  1  0
  1 15  1  0
  1 16  1  0
  2 17  1  0
  3 18  1  0
  3 19  1  0
  7 20  1  0
  8 21  1  6
  9 22  1  0
  9 23  1  0
 10 24  1  0
 10 25  1  0
 11 26  1  0
 14 27  1  0
 14 28  1  0
M  END
$$$$

     RDKit          3D

 28 29  0  0  0  0  0  0  0  0999 V2000
    4.4305   -0.9103    0.2112 N   0  0  0  0  0  0  0  0  0  0  0  0
    3.4204   -0.4189   -0.6730 C   0  0  0  0  0  0  0  0  0  0  0  0
    2.9677    0.9715   -0.3074 C   0  0  0  0  0  0  0  0  0  0  0  0
    1.6138    0.4706   -0.1701 N   0  0  0  0  0  0  0  0  0  0  0  0
    0.3762    1.1123   -0.0092 C   0  0  0  0  0  0  0  0  0  0  0  0
    0.2513    2.3684    0.0455 O   0  0  0  0  0  0  0  0  0  0  0  0
   -0.8027    0.3435    0.0996 N   0  0  0  0  0  0  0  0  0  0  0  0
   -2.0906    0.9754    0.2660 C   0  0  1  0  0  0  0  0  0  0  0  0
   -3.0003    0.4775   -0.8415 C   0  0  0  0  0  0  0  0  0  0  0  0
   -3.2725   -0.9365   -0.4128 C   0  0  0  0  0  0  0  0  0  0  0  0
   -3.2469   -0.8752    1.0431 N   0  0  0  0  0  0  0  0  0  0  0  0
   -2.7272    0.3825    1.4653 C   0  0  0  0  0  0  0  0  0  0  0  0
   -2.7859    0.8959    2.6055 O   0  0  0  0  0  0  0  0  0  0  0  0
    2.0596   -0.8862   -0.2645 C   0  0  0  0  0  0  0  0  0  0  0  0
    4.0763   -1.7357    0.7305 H   0  0  0  0  0  0  0  0  0  0  0  0
    4.7626   -0.1928    0.8720 H   0  0  0  0  0  0  0  0  0  0  0  0
    3.6170   -0.5181   -1.7447 H   0  0  0  0  0  0  0  0  0  0  0  0
    3.1164    1.7121   -1.1196 H   0  0  0  0  0  0  0  0  0  0  0  0
    3.3407    1.3233    0.6559 H   0  0  0  0  0  0  0  0  0  0  0  0
   -0.7709   -0.7022    0.0623 H   0  0  0  0  0  0  0  0  0  0  0  0
   -2.0156    2.0629    0.2926 H   0  0  0  0  0  0  0  0  0  0  0  0
   -3.9626    1.0350   -0.8473 H   0  0  0  0  0  0  0  0  0  0  0  0
   -2.5089    0.5142   -1.8277 H   0  0  0  0  0  0  0  0  0  0  0  0
   -4.2697   -1.3053   -0.7529 H   0  0  0  0  0  0  0  0  0  0  0  0
   -2.5306   -1.6570   -0.8133 H   0  0  0  0  0  0  0  0  0  0  0  0
   -3.5509   -1.6111    1.7165 H   0  0  0  0  0  0  0  0  0  0  0  0
    2.0065   -1.4638    0.6764 H   0  0  0  0  0  0  0  0  0  0  0  0
    1.4964   -1.4320   -1.0556 H   0  0  0  0  0  0  0  0  0  0  0  0
  1  2  1  0
  2  3  1  0
  3  4  1  0
  4  5  1  0
  5  6  2  0
  5  7  1  0
  7  8  1  0
  8  9  1  0
  9 10  1  0
 10 11  1  0
 11 12  1  0
 12 13  2  0
  4 14  1  0
 14  2  1  0
 12  8  1  0
  1 15  1  0
  1 16  1  0
  2 17  1  0
  3 18  1  0
  3 19  1  0
  7 20  1  0
  8 21  1  1
  9 22  1  0
  9 23  1  0
 10 24  1  0
 10 25  1  0
 11 26  1  0
 14 27  1  0
 14 28  1  0
M  END
$$$$
