
     RDKit          3D

 29 30  0  0  0  0  0  0  0  0999 V2000
   -3.4505    1.5302   -1.3161 C   0  0  0  0  0  0  0  0  0  0  0  0
   -2.2706    1.1309   -0.5463 N   0  0  0  0  0  0  0  0  0  0  0  0
   -2.4000    0.0636    0.4190 C   0  0  0  0  0  0  0  0  0  0  0  0
   -3.5552   -0.4695    0.5999 O   0  0  0  0  0  0  0  0  0  0  0  0
   -1.2688   -0.4341    1.1665 C   0  0  0  0  0  0  0  0  0  0  0  0
    0.0215    0.2324    0.9215 N   0  0  0  0  0  0  0  0  0  0  0  0
    0.7360    0.0872   -0.2823 C   0  0  0  0  0  0  0  0  0  0  0  0
    0.2870   -0.6192   -1.2244 O   0  0  0  0  0  0  0  0  0  0  0  0
    2.0713    0.7811   -0.3911 C   0  0  2  0  0  0  0  0  0  0  0  0
    2.8672    0.1882   -1.5901 C   0  0  0  0  0  0  0  0  0  0  0  0
    3.9670   -0.1328   -0.5712 C   0  0  0  0  0  0  0  0  0  0  0  0
    3.0437    0.1444    0.4835 N   0  0  0  0  0  0  0  0  0  0  0  0
   -1.3031   -1.2573    2.3708 C   0  0  0  0  0  0  0  0  0  0  0  0
   -1.1139   -1.9857    1.0842 C   0  0  0  0  0  0  0  0  0  0  0  0
   -4.2575    0.7881   -1.1917 H   0  0  0  0  0  0  0  0  0  0  0  0
   -3.1825    1.5220   -2.3973 H   0  0  0  0  0  0  0  0  0  0  0  0
   -3.7773    2.5219   -0.9869 H   0  0  0  0  0  0  0  0  0  0  0  0
   -1.3656    1.6134   -0.6545 H   0  0  0  0  0  0  0  0  0  0  0  0
    0.3962    0.8474    1.6408 H   0  0  0  0  0  0  0  0  0  0  0  0
    2.0643    1.8428   -0.3354 H   0  0  0  0  0  0  0  0  0  0  0  0
    2.3994   -0.7103   -1.9950 H   0  0  0  0  0  0  0  0  0  0  0  0
    3.1342    0.9569   -2.2988 H   0  0  0  0  0  0  0  0  0  0  0  0
    4.8392    0.5981   -0.6665 H   0  0  0  0  0  0  0  0  0  0  0  0
    4.2991   -1.2008   -0.6954 H   0  0  0  0  0  0  0  0  0  0  0  0
    2.7069   -0.6046    1.0587 H   0  0  0  0  0  0  0  0  0  0  0  0
   -0.4228   -1.2593    3.0826 H   0  0  0  0  0  0  0  0  0  0  0  0
   -2.2649   -1.3188    2.9345 H   0  0  0  0  0  0  0  0  0  0  0  0
   -0.1612   -2.3734    0.7535 H   0  0  0  0  0  0  0  0  0  0  0  0
   -2.0391   -2.4826    0.6274 H   0  0  0  0  0  0  0  0  0  0  0  0
  1  2  1  0
  2  3  1  0
  3  4  2  0
  3  5  1  0
  5  6  1  0
  6  7  1  0
  7  8  2  0
  7  9  1  0
  9 10  1  0
 10 11  1  0
 11 12  1  0
  5 13  1  0
 13 14  1  0
 14  5  1  0
 12  9  1  0
  1 15  1  0
  1 16  1  0
  1 17  1  0
  2 18  1  0
  6 19  1  0
  9 20  1  6
 10 21  1  0
 10 22  1  0
 11 23  1  0
 11 24  1  0
 12 25  1  0
 13 26  1  0
 13 27  1  0
 14 28  1  0
 14 29  1  0
M  END
$$$$

     RDKit          3D

 29 30  0  0  0  0  0  0  0  0999 V2000
   -4.1962    1.4236    1.0649 C   0  0  0  0  0  0  0  0  0  0  0  0
   -3.3847    0.2790    0.6743 N   0  0  0  0  0  0  0  0  0  0  0  0
   -1.9758    0.3108    0.7233 C   0  0  0  0  0  0  0  0  0  0  0  0
   -1.4894    1.4025    1.2017 O   0  0  0  0  0  0  0  0  0  0  0  0
   -1.0733   -0.7643    0.2526 C   0  0  0  0  0  0  0  0  0  0  0  0
    0.1945   -0.2258   -0.2193 N   0  0  0  0  0  0  0  0  0  0  0  0
    1.4817   -0.7179    0.1485 C   0  0  0  0  0  0  0  0  0  0  0  0
    1.5531   -1.6018    0.9818 O   0  0  0  0  0  0  0  0  0  0  0  0
    2.5815   -0.0417   -0.6042 C   0  0  2  0  0  0  0  0  0  0  0  0
    3.9120   -0.0898    0.1842 C   0  0  0  0  0  0  0  0  0  0  0  0
    4.0206    1.3461   -0.3517 C   0  0  0  0  0  0  0  0  0  0  0  0
    2.5869    1.3612   -0.3375 N   0  0  0  0  0  0  0  0  0  0  0  0
   -1.6892   -1.5212   -0.9927 C   0  0  0  0  0  0  0  0  0  0  0  0
   -1.3639   -2.1859    0.2674 C   0  0  0  0  0  0  0  0  0  0  0  0
   -3.6395    2.0756    1.7358 H   0  0  0  0  0  0  0  0  0  0  0  0
   -4.1961    2.0336    0.0730 H   0  0  0  0  0  0  0  0  0  0  0  0
   -5.2203    1.1783    1.3046 H   0  0  0  0  0  0  0  0  0  0  0  0
   -3.8394   -0.6437    0.3656 H   0  0  0  0  0  0  0  0  0  0  0  0
    0.1311    0.6098   -0.8409 H   0  0  0  0  0  0  0  0  0  0  0  0
    2.7428   -0.3368   -1.6249 H   0  0  0  0  0  0  0  0  0  0  0  0
    3.7882   -0.0846    1.2690 H   0  0  0  0  0  0  0  0  0  0  0  0
    4.6727   -0.7316   -0.2456 H   0  0  0  0  0  0  0  0  0  0  0  0
    4.4109    1.3827   -1.3877 H   0  0  0  0  0  0  0  0  0  0  0  0
    4.4133    2.0915    0.3583 H   0  0  0  0  0  0  0  0  0  0  0  0
    2.1179    1.7139    0.4960 H   0  0  0  0  0  0  0  0  0  0  0  0
   -2.6889   -1.1063   -1.2512 H   0  0  0  0  0  0  0  0  0  0  0  0
   -1.0475   -1.6511   -1.8588 H   0  0  0  0  0  0  0  0  0  0  0  0
   -0.5730   -2.9740    0.2342 H   0  0  0  0  0  0  0  0  0  0  0  0
   -2.2299   -2.5319    0.8606 H   0  0  0  0  0  0  0  0  0  0  0  0
  1  2  1  0
  2  3  1  0
  3  4  2  0
  3  5  1  0
  5  6  1  0
  6  7  1  0
  7  8  2  0
  7  9  1  0
  9 10  1  0
 10 11  1  0
 11 12  1  0
  5 13  1  0
 13 14  1  0
 14  5  1  0
 12  9  1  0
  1 15  1  0
  1 16  1  0
  1 17  1  0
  2 18  1  0
  6 19  1  0
  9 20  1  6
 10 21  1  0
 10 22  1  0
 11 23  1  0
 11 24  1  0
 12 25  1  0
 13 26  1  0
 13 27  1  0
 14 28  1  0
 14 29  1  0
M  END
$$$$

     RDKit          3D

 29 30  0  0  0  0  0  0  0  0999 V2000
   -4.6978   -0.4885   -0.9329 C   0  0  0  0  0  0  0  0  0  0  0  0
   -3.5359   -0.6905   -0.0712 N   0  0  0  0  0  0  0  0  0  0  0  0
   -2.3132   -0.0324   -0.3477 C   0  0  0  0  0  0  0  0  0  0  0  0
   -2.3068    0.7184   -1.3632 O   0  0  0  0  0  0  0  0  0  0  0  0
   -1.0783   -0.1741    0.4685 C   0  0  0  0  0  0  0  0  0  0  0  0
    0.1230    0.2804   -0.1775 N   0  0  0  0  0  0  0  0  0  0  0  0
    1.4273    0.2668    0.3796 C   0  0  0  0  0  0  0  0  0  0  0  0
    1.5671   -0.1716    1.5302 O   0  0  0  0  0  0  0  0  0  0  0  0
    2.5959    0.7644   -0.3934 C   0  0  2  0  0  0  0  0  0  0  0  0
    3.1236   -0.1985   -1.4270 C   0  0  0  0  0  0  0  0  0  0  0  0
    4.3784   -0.2396   -0.5593 C   0  0  0  0  0  0  0  0  0  0  0  0
    3.8006    0.6476    0.4032 N   0  0  0  0  0  0  0  0  0  0  0  0
   -1.0652   -1.1310    1.5843 C   0  0  0  0  0  0  0  0  0  0  0  0
   -1.2352    0.2941    1.9299 C   0  0  0  0  0  0  0  0  0  0  0  0
   -4.6671    0.5188   -1.3922 H   0  0  0  0  0  0  0  0  0  0  0  0
   -5.6059   -0.5022   -0.2918 H   0  0  0  0  0  0  0  0  0  0  0  0
   -4.7245   -1.2533   -1.7349 H   0  0  0  0  0  0  0  0  0  0  0  0
   -3.6352   -1.3171    0.7330 H   0  0  0  0  0  0  0  0  0  0  0  0
    0.0570    0.6606   -1.1469 H   0  0  0  0  0  0  0  0  0  0  0  0
    2.4424    1.7611   -0.8772 H   0  0  0  0  0  0  0  0  0  0  0  0
    2.5919   -1.1598   -1.5182 H   0  0  0  0  0  0  0  0  0  0  0  0
    3.3633    0.2449   -2.4143 H   0  0  0  0  0  0  0  0  0  0  0  0
    4.5821   -1.2470   -0.1107 H   0  0  0  0  0  0  0  0  0  0  0  0
    5.2662    0.2331   -1.0348 H   0  0  0  0  0  0  0  0  0  0  0  0
    4.2435    1.5824    0.5383 H   0  0  0  0  0  0  0  0  0  0  0  0
   -1.9598   -1.7722    1.7059 H   0  0  0  0  0  0  0  0  0  0  0  0
   -0.1505   -1.6741    1.8975 H   0  0  0  0  0  0  0  0  0  0  0  0
   -0.3661    0.7840    2.4108 H   0  0  0  0  0  0  0  0  0  0  0  0
   -2.2209    0.7138    2.2121 H   0  0  0  0  0  0  0  0  0  0  0  0
  1  2  1  0
  2  3  1  0
  3  4  2  0
  3  5  1  0
  5  6  1  0
  6  7  1  0
  7  8  2  0
  7  9  1  0
  9 10  1  0
 10 11  1  0
 11 12  1  0
  5 13  1  0
 13 14  1  0
 14  5  1  0
 12  9  1  0
  1 15  1  0
  1 16  1  0
  1 17  1  0
  2 18  1  0
  6 19  1  0
  9 20  1  6
 10 21  1  0
 10 22  1  0
 11 23  1  0
 11 24  1  0
 12 25  1  0
 13 26  1  0
 13 27  1  0
 14 28  1  0
 14 29  1  0
M  END
$$$$

     RDKit          3D

 29 30  0  0  0  0  0  0  0  0999 V2000
   -4.6616    0.8831    0.8691 C   0  0  0  0  0  0  0  0  0  0  0  0
   -3.5644    0.1617    0.2996 N   0  0  0  0  0  0  0  0  0  0  0  0
   -2.2392    0.3594    0.7505 C   0  0  0  0  0  0  0  0  0  0  0  0
   -1.9967    1.1744    1.6603 O   0  0  0  0  0  0  0  0  0  0  0  0
   -1.1020   -0.4235    0.1290 C   0  0  0  0  0  0  0  0  0  0  0  0
    0.1892    0.0819    0.4690 N   0  0  0  0  0  0  0  0  0  0  0  0
    1.4024   -0.5169    0.0552 C   0  0  0  0  0  0  0  0  0  0  0  0
    1.3109   -1.5495   -0.6439 O   0  0  0  0  0  0  0  0  0  0  0  0
    2.7195    0.0369    0.4225 C   0  0  2  0  0  0  0  0  0  0  0  0
    3.2589    1.1184   -0.5257 C   0  0  0  0  0  0  0  0  0  0  0  0
    4.5837    0.5062   -0.0463 C   0  0  0  0  0  0  0  0  0  0  0  0
    3.8458   -0.7692   -0.0855 N   0  0  0  0  0  0  0  0  0  0  0  0
   -1.3867   -1.7835   -0.3018 C   0  0  0  0  0  0  0  0  0  0  0  0
   -1.2536   -0.7161   -1.3461 C   0  0  0  0  0  0  0  0  0  0  0  0
   -5.2971    0.1211    1.4085 H   0  0  0  0  0  0  0  0  0  0  0  0
   -4.3399    1.5917    1.6329 H   0  0  0  0  0  0  0  0  0  0  0  0
   -5.2284    1.4377    0.0957 H   0  0  0  0  0  0  0  0  0  0  0  0
   -3.6921   -0.5350   -0.4639 H   0  0  0  0  0  0  0  0  0  0  0  0
    0.2534    0.9566    1.0636 H   0  0  0  0  0  0  0  0  0  0  0  0
    2.9100    0.3053    1.4540 H   0  0  0  0  0  0  0  0  0  0  0  0
    3.0456    2.1263   -0.1875 H   0  0  0  0  0  0  0  0  0  0  0  0
    3.0874    0.8729   -1.5960 H   0  0  0  0  0  0  0  0  0  0  0  0
    5.4148    0.5606   -0.7588 H   0  0  0  0  0  0  0  0  0  0  0  0
    4.7527    0.7836    0.9943 H   0  0  0  0  0  0  0  0  0  0  0  0
    3.6524   -1.0106   -1.0847 H   0  0  0  0  0  0  0  0  0  0  0  0
   -0.7014   -2.6415   -0.2775 H   0  0  0  0  0  0  0  0  0  0  0  0
   -2.4565   -2.1302   -0.1850 H   0  0  0  0  0  0  0  0  0  0  0  0
   -2.1469   -0.2688   -1.8112 H   0  0  0  0  0  0  0  0  0  0  0  0
   -0.3603   -0.7332   -1.9901 H   0  0  0  0  0  0  0  0  0  0  0  0
  1  2  1  0
  2  3  1  0
  3  4  2  0
  3  5  1  0
  5  6  1  0
  6  7  1  0
  7  8  2  0
  7  9  1  0
  9 10  1  0
 10 11  1  0
 11 12  1  0
  5 13  1  0
 13 14  1  0
 14  5  1  0
 12  9  1  0
  1 15  1  0
  1 16  1  0
  1 17  1  0
  2 18  1  0
  6 19  1  0
  9 20  1  1
 10 21  1  0
 10 22  1  0
 11 23  1  0
 11 24  1  0
 12 25  1  0
 13 26  1  0
 13 27  1  0
 14 28  1  0
 14 29  1  0
M  END
$$$$

     RDKit          3D

 29 30  0  0  0  0  0  0  0  0999 V2000
   -4.0160    0.6632    1.7989 C   0  0  0  0  0  0  0  0  0  0  0  0
   -2.7131    0.3745    1.2209 N   0  0  0  0  0  0  0  0  0  0  0  0
   -2.5003    0.2373   -0.1580 C   0  0  0  0  0  0  0  0  0  0  0  0
   -3.5397    0.3837   -0.8943 O   0  0  0  0  0  0  0  0  0  0  0  0
   -1.1986   -0.0566   -0.8124 C   0  0  0  0  0  0  0  0  0  0  0  0
   -0.0644   -0.2169    0.0337 N   0  0  0  0  0  0  0  0  0  0  0  0
    1.2418   -0.5056   -0.4269 C   0  0  0  0  0  0  0  0  0  0  0  0
    1.4275   -0.6307   -1.6414 O   0  0  0  0  0  0  0  0  0  0  0  0
    2.3798   -0.6578    0.5320 C   0  0  2  0  0  0  0  0  0  0  0  0
    2.9411    0.6249    1.0567 C   0  0  0  0  0  0  0  0  0  0  0  0
    4.0629    0.4157    0.0766 C   0  0  0  0  0  0  0  0  0  0  0  0
    3.6228   -0.9478   -0.1165 N   0  0  0  0  0  0  0  0  0  0  0  0
   -1.1097    0.3464   -2.2243 C   0  0  0  0  0  0  0  0  0  0  0  0
   -1.3332   -1.1151   -1.9266 C   0  0  0  0  0  0  0  0  0  0  0  0
   -4.7792    0.4121    1.0327 H   0  0  0  0  0  0  0  0  0  0  0  0
   -4.0215    1.7360    2.0778 H   0  0  0  0  0  0  0  0  0  0  0  0
   -4.1161    0.0300    2.7032 H   0  0  0  0  0  0  0  0  0  0  0  0
   -1.9341    0.2720    1.8755 H   0  0  0  0  0  0  0  0  0  0  0  0
   -0.1558   -0.1237    1.0727 H   0  0  0  0  0  0  0  0  0  0  0  0
    2.0766   -1.3348    1.3574 H   0  0  0  0  0  0  0  0  0  0  0  0
    3.2801    0.5491    2.1195 H   0  0  0  0  0  0  0  0  0  0  0  0
    2.3183    1.5083    0.8399 H   0  0  0  0  0  0  0  0  0  0  0  0
    5.0780    0.5270    0.5300 H   0  0  0  0  0  0  0  0  0  0  0  0
    3.9061    1.0340   -0.8353 H   0  0  0  0  0  0  0  0  0  0  0  0
    4.1822   -1.6735    0.3697 H   0  0  0  0  0  0  0  0  0  0  0  0
   -0.1981    0.5703   -2.7720 H   0  0  0  0  0  0  0  0  0  0  0  0
   -1.9814    0.9177   -2.6660 H   0  0  0  0  0  0  0  0  0  0  0  0
   -2.3340   -1.4931   -2.1788 H   0  0  0  0  0  0  0  0  0  0  0  0
   -0.5222   -1.8467   -2.0446 H   0  0  0  0  0  0  0  0  0  0  0  0
  1  2  1  0
  2  3  1  0
  3  4  2  0
  3  5  1  0
  5  6  1  0
  6  7  1  0
  7  8  2  0
  7  9  1  0
  9 10  1  0
 10 11  1  0
 11 12  1  0
  5 13  1  0
 13 14  1  0
 14  5  1  0
 12  9  1  0
  1 15  1  0
  1 16  1  0
  1 17  1  0
  2 18  1  0
  6 19  1  0
  9 20  1  1
 10 21  1  0
 10 22  1  0
 11 23  1  0
 11 24  1  0
 12 25  1  0
 13 26  1  0
 13 27  1  0
 14 28  1  0
 14 29  1  0
M  END
$$$$

     RDKit          3D

 29 30  0  0  0  0  0  0  0  0999 V2000
    4.3849    0.9491   -1.4218 C   0  0  0  0  0  0  0  0  0  0  0  0
    3.4428    0.4231   -0.4221 N   0  0  0  0  0  0  0  0  0  0  0  0
    2.1295    0.0685   -0.7351 C   0  0  0  0  0  0  0  0  0  0  0  0
    1.8118    0.2393   -1.9806 O   0  0  0  0  0  0  0  0  0  0  0  0
    1.1024   -0.4770    0.2189 C   0  0  0  0  0  0  0  0  0  0  0  0
   -0.2288   -0.3810   -0.2654 N   0  0  0  0  0  0  0  0  0  0  0  0
   -1.4116   -0.7881    0.4543 C   0  0  0  0  0  0  0  0  0  0  0  0
   -1.2054   -1.2673    1.6038 O   0  0  0  0  0  0  0  0  0  0  0  0
   -2.7569   -0.6426   -0.1259 C   0  0  2  0  0  0  0  0  0  0  0  0
   -3.1957    0.6758   -0.6372 C   0  0  0  0  0  0  0  0  0  0  0  0
   -4.0409    0.7944    0.6345 C   0  0  0  0  0  0  0  0  0  0  0  0
   -3.8585   -0.6565    0.8286 N   0  0  0  0  0  0  0  0  0  0  0  0
    1.5770   -1.4352    1.2312 C   0  0  0  0  0  0  0  0  0  0  0  0
    1.3013   -0.0073    1.6853 C   0  0  0  0  0  0  0  0  0  0  0  0
    4.1194    0.6922   -2.4493 H   0  0  0  0  0  0  0  0  0  0  0  0
    4.4770    2.0525   -1.2391 H   0  0  0  0  0  0  0  0  0  0  0  0
    5.3906    0.5333   -1.1532 H   0  0  0  0  0  0  0  0  0  0  0  0
    3.7413    0.3054    0.5807 H   0  0  0  0  0  0  0  0  0  0  0  0
   -0.4185    0.0133   -1.2373 H   0  0  0  0  0  0  0  0  0  0  0  0
   -2.9278   -1.4519   -0.8775 H   0  0  0  0  0  0  0  0  0  0  0  0
   -2.4576    1.4819   -0.7593 H   0  0  0  0  0  0  0  0  0  0  0  0
   -3.8510    0.6475   -1.5476 H   0  0  0  0  0  0  0  0  0  0  0  0
   -3.5529    1.4098    1.4058 H   0  0  0  0  0  0  0  0  0  0  0  0
   -5.0834    1.0937    0.4753 H   0  0  0  0  0  0  0  0  0  0  0  0
   -4.7183   -1.1320    0.5045 H   0  0  0  0  0  0  0  0  0  0  0  0
    2.6594   -1.7588    1.1868 H   0  0  0  0  0  0  0  0  0  0  0  0
    0.9559   -2.1716    1.7286 H   0  0  0  0  0  0  0  0  0  0  0  0
    0.4014    0.2232    2.2782 H   0  0  0  0  0  0  0  0  0  0  0  0
    2.2128    0.5664    1.9244 H   0  0  0  0  0  0  0  0  0  0  0  0
  1  2  1  0
  2  3  1  0
  3  4  2  0
  3  5  1  0
  5  6  1  0
  6  7  1  0
  7  8  2  0
  7  9  1  0
  9 10  1  0
 10 11  1  0
 11 12  1  0
  5 13  1  0
 13 14  1  0
 14  5  1  0
 12  9  1  0
  1 15  1  0
  1 16  1  0
  1 17  1  0
  2 18  1  0
  6 19  1  0
  9 20  1  6
 10 21  1  0
 10 22  1  0
 11 23  1  0
 11 24  1  0
 12 25  1  0
 13 26  1  0
 13 27  1  0
 14 28  1  0
 14 29  1  0
M  END
$$$$

     RDKit          3D

 29 30  0  0  0  0  0  0  0  0999 V2000
   -3.1203    2.3926    0.7277 C   0  0  0  0  0  0  0  0  0  0  0  0
   -2.1618    1.3790    0.2551 N   0  0  0  0  0  0  0  0  0  0  0  0
   -2.3356    0.0159    0.5135 C   0  0  0  0  0  0  0  0  0  0  0  0
   -3.3925   -0.2781    1.1833 O   0  0  0  0  0  0  0  0  0  0  0  0
   -1.4520   -1.0304    0.0657 C   0  0  0  0  0  0  0  0  0  0  0  0
   -0.0417   -1.0471    0.3205 N   0  0  0  0  0  0  0  0  0  0  0  0
    1.0230   -0.2808   -0.0995 C   0  0  0  0  0  0  0  0  0  0  0  0
    0.8579    0.6747   -0.8391 O   0  0  0  0  0  0  0  0  0  0  0  0
    2.4375   -0.6269    0.3536 C   0  0  2  0  0  0  0  0  0  0  0  0
    3.1994    0.4948    0.9869 C   0  0  0  0  0  0  0  0  0  0  0  0
    3.5769    0.8506   -0.4495 C   0  0  0  0  0  0  0  0  0  0  0  0
    3.2623   -0.4975   -0.8554 N   0  0  0  0  0  0  0  0  0  0  0  0
   -1.9921   -2.3275   -0.5111 C   0  0  0  0  0  0  0  0  0  0  0  0
   -1.7158   -1.2234   -1.4663 C   0  0  0  0  0  0  0  0  0  0  0  0
   -3.8876    1.8766    1.3528 H   0  0  0  0  0  0  0  0  0  0  0  0
   -2.6216    3.2224    1.2380 H   0  0  0  0  0  0  0  0  0  0  0  0
   -3.6273    2.8190   -0.1828 H   0  0  0  0  0  0  0  0  0  0  0  0
   -1.3684    1.7838   -0.3162 H   0  0  0  0  0  0  0  0  0  0  0  0
    0.2434   -1.8516    1.0215 H   0  0  0  0  0  0  0  0  0  0  0  0
    2.4748   -1.6042    0.8516 H   0  0  0  0  0  0  0  0  0  0  0  0
    2.5981    1.2260    1.5220 H   0  0  0  0  0  0  0  0  0  0  0  0
    4.0921    0.1266    1.5433 H   0  0  0  0  0  0  0  0  0  0  0  0
    4.6568    1.0798   -0.5569 H   0  0  0  0  0  0  0  0  0  0  0  0
    2.9627    1.6419   -0.8658 H   0  0  0  0  0  0  0  0  0  0  0  0
    4.0542   -1.1549   -0.8963 H   0  0  0  0  0  0  0  0  0  0  0  0
   -3.0232   -2.6245   -0.2844 H   0  0  0  0  0  0  0  0  0  0  0  0
   -1.2895   -3.1868   -0.6338 H   0  0  0  0  0  0  0  0  0  0  0  0
   -2.5772   -0.6799   -1.8561 H   0  0  0  0  0  0  0  0  0  0  0  0
   -0.8325   -1.1702   -2.1225 H   0  0  0  0  0  0  0  0  0  0  0  0
  1  2  1  0
  2  3  1  0
  3  4  2  0
  3  5  1  0
  5  6  1  0
  6  7  1  0
  7  8  2  0
  7  9  1  0
  9 10  1  0
 10 11  1  0
 11 12  1  0
  5 13  1  0
 13 14  1  0
 14  5  1  0
 12  9  1  0
  1 15  1  0
  1 16  1  0
  1 17  1  0
  2 18  1  0
  6 19  1  0
  9 20  1  1
 10 21  1  0
 10 22  1  0
 11 23  1  0
 11 24  1  0
 12 25  1  0
 13 26  1  0
 13 27  1  0
 14 28  1  0
 14 29  1  0
M  END
$$$$

     RDKit          3D

 29 30  0  0  0  0  0  0  0  0999 V2000
   -3.6941   -0.0844    2.0003 C   0  0  0  0  0  0  0  0  0  0  0  0
   -3.1052   -0.1110    0.6644 N   0  0  0  0  0  0  0  0  0  0  0  0
   -1.7074    0.0255    0.4558 C   0  0  0  0  0  0  0  0  0  0  0  0
   -0.9675    0.1761    1.4648 O   0  0  0  0  0  0  0  0  0  0  0  0
   -1.0870   -0.0016   -0.8915 C   0  0  0  0  0  0  0  0  0  0  0  0
    0.3303   -0.2286   -0.9466 N   0  0  0  0  0  0  0  0  0  0  0  0
    1.3171    0.5920   -0.3542 C   0  0  0  0  0  0  0  0  0  0  0  0
    0.9420    1.6091    0.2776 O   0  0  0  0  0  0  0  0  0  0  0  0
    2.7687    0.2456   -0.4866 C   0  0  2  0  0  0  0  0  0  0  0  0
    3.2392   -0.8270    0.4611 C   0  0  0  0  0  0  0  0  0  0  0  0
    3.7103    0.3327    1.3061 C   0  0  0  0  0  0  0  0  0  0  0  0
    3.6652    1.1767    0.1547 N   0  0  0  0  0  0  0  0  0  0  0  0
   -1.7114    0.9208   -1.9379 C   0  0  0  0  0  0  0  0  0  0  0  0
   -1.8599   -0.5348   -2.0585 C   0  0  0  0  0  0  0  0  0  0  0  0
   -3.0070    0.4270    2.6809 H   0  0  0  0  0  0  0  0  0  0  0  0
   -4.6153    0.5319    1.9422 H   0  0  0  0  0  0  0  0  0  0  0  0
   -3.9643   -1.0983    2.3246 H   0  0  0  0  0  0  0  0  0  0  0  0
   -3.6902   -0.2309   -0.1835 H   0  0  0  0  0  0  0  0  0  0  0  0
    0.6808   -1.0725   -1.4676 H   0  0  0  0  0  0  0  0  0  0  0  0
    3.0635    0.0300   -1.5529 H   0  0  0  0  0  0  0  0  0  0  0  0
    2.4085   -1.4288    0.8872 H   0  0  0  0  0  0  0  0  0  0  0  0
    4.0659   -1.4393    0.0431 H   0  0  0  0  0  0  0  0  0  0  0  0
    4.7295    0.1433    1.7063 H   0  0  0  0  0  0  0  0  0  0  0  0
    2.9498    0.5847    2.0795 H   0  0  0  0  0  0  0  0  0  0  0  0
    3.2900    2.1304    0.3216 H   0  0  0  0  0  0  0  0  0  0  0  0
   -2.6152    1.4748   -1.5925 H   0  0  0  0  0  0  0  0  0  0  0  0
   -1.0489    1.5122   -2.5929 H   0  0  0  0  0  0  0  0  0  0  0  0
   -2.7908   -1.0496   -1.8191 H   0  0  0  0  0  0  0  0  0  0  0  0
   -1.2966   -1.0182   -2.8865 H   0  0  0  0  0  0  0  0  0  0  0  0
  1  2  1  0
  2  3  1  0
  3  4  2  0
  3  5  1  0
  5  6  1  0
  6  7  1  0
  7  8  2  0
  7  9  1  0
  9 10  1  0
 10 11  1  0
 11 12  1  0
  5 13  1  0
 13 14  1  0
 14  5  1  0
 12  9  1  0
  1 15  1  0
  1 16  1  0
  1 17  1  0
  2 18  1  0
  6 19  1  0
  9 20  1  6
 10 21  1  0
 10 22  1  0
 11 23  1  0
 11 24  1  0
 12 25  1  0
 13 26  1  0
 13 27  1  0
 14 28  1  0
 14 29  1  0
M  END
$$$$
