
     RDKit          3D

 28 29  0  0  0  0  0  0  0  0999 V2000
    4.9153    0.0367    0.0277 C   0  0  0  0  0  0  0  0  0  0  0  0
    3.6337    0.1891   -0.6591 N   0  0  0  0  0  0  0  0  0  0  0  0
    3.3887    0.5833   -1.8804 N   0  0  0  0  0  0  0  0  0  0  0  0
    2.0790    0.5829   -2.1164 N   0  0  0  0  0  0  0  0  0  0  0  0
    1.4620    0.1660   -0.9836 C   0  0  0  0  0  0  0  0  0  0  0  0
    0.1964    0.0196   -0.7757 N   0  0  0  0  0  0  0  0  0  0  0  0
   -0.2617   -0.4338    0.4951 C   0  0  0  0  0  0  0  0  0  0  0  0
   -1.7128   -0.1751    0.7612 C   0  0  2  0  0  0  0  0  0  0  0  0
   -2.0264   -0.6634    2.0258 O   0  0  0  0  0  0  0  0  0  0  0  0
   -2.5594   -0.9605   -0.2373 C   0  0  0  0  0  0  0  0  0  0  0  0
   -3.6211    0.0663   -0.5828 C   0  0  0  0  0  0  0  0  0  0  0  0
   -2.8418    1.2885   -0.6578 N   0  0  0  0  0  0  0  0  0  0  0  0
   -2.1208    1.2457    0.6135 C   0  0  0  0  0  0  0  0  0  0  0  0
    2.4499   -0.0641   -0.1176 N   0  0  0  0  0  0  0  0  0  0  0  0
    5.3295   -0.9873   -0.1186 H   0  0  0  0  0  0  0  0  0  0  0  0
    5.5900    0.8287   -0.3386 H   0  0  0  0  0  0  0  0  0  0  0  0
    4.7703    0.1589    1.1183 H   0  0  0  0  0  0  0  0  0  0  0  0
   -0.0642   -1.5159    0.5847 H   0  0  0  0  0  0  0  0  0  0  0  0
    0.3489    0.0756    1.2779 H   0  0  0  0  0  0  0  0  0  0  0  0
   -1.5318   -1.5131    2.1477 H   0  0  0  0  0  0  0  0  0  0  0  0
   -3.0028   -1.8467    0.2259 H   0  0  0  0  0  0  0  0  0  0  0  0
   -1.9487   -1.2163   -1.1311 H   0  0  0  0  0  0  0  0  0  0  0  0
   -4.1307   -0.1623   -1.5399 H   0  0  0  0  0  0  0  0  0  0  0  0
   -4.3334    0.1166    0.2599 H   0  0  0  0  0  0  0  0  0  0  0  0
   -2.1164    1.1399   -1.4061 H   0  0  0  0  0  0  0  0  0  0  0  0
   -2.9022    1.4639    1.3988 H   0  0  0  0  0  0  0  0  0  0  0  0
   -1.2945    1.9752    0.6508 H   0  0  0  0  0  0  0  0  0  0  0  0
    2.3049   -0.3985    0.8542 H   0  0  0  0  0  0  0  0  0  0  0  0
  1  2  1  0
  2  3  1  0
  3  4  2  0
  4  5  1  0
  5  6  2  3
  6  7  1  0
  7  8  1  0
  8  9  1  1
  8 10  1  0
 10 11  1  0
 11 12  1  0
 12 13  1  0
  5 14  1  0
 14  2  1  0
 13  8  1  0
  1 15  1  0
  1 16  1  0
  1 17  1  0
  7 18  1  0
  7 19  1  0
  9 20  1  0
 10 21  1  0
 10 22  1  0
 11 23  1  0
 11 24  1  0
 12 25  1  0
 13 26  1  0
 13 27  1  0
 14 28  1  0
M  END
$$$$

     RDKit          3D

 28 29  0  0  0  0  0  0  0  0999 V2000
    4.9710   -0.3722    0.4347 C   0  0  0  0  0  0  0  0  0  0  0  0
    3.7341    0.2925    0.1502 N   0  0  0  0  0  0  0  0  0  0  0  0
    3.6432    1.3518   -0.6571 N   0  0  0  0  0  0  0  0  0  0  0  0
    2.3726    1.7214   -0.7055 N   0  0  0  0  0  0  0  0  0  0  0  0
    1.6397    0.9075    0.0659 C   0  0  0  0  0  0  0  0  0  0  0  0
    0.3758    1.0021    0.2303 N   0  0  0  0  0  0  0  0  0  0  0  0
   -0.4201    0.1429    1.0488 C   0  0  0  0  0  0  0  0  0  0  0  0
   -1.7692   -0.1619    0.4552 C   0  0  2  0  0  0  0  0  0  0  0  0
   -2.4535   -0.9939    1.3195 O   0  0  0  0  0  0  0  0  0  0  0  0
   -1.6676   -0.8184   -0.8954 C   0  0  0  0  0  0  0  0  0  0  0  0
   -3.0757   -0.5582   -1.4348 C   0  0  0  0  0  0  0  0  0  0  0  0
   -3.4027    0.7673   -0.9787 N   0  0  0  0  0  0  0  0  0  0  0  0
   -2.5799    1.0544    0.1629 C   0  0  0  0  0  0  0  0  0  0  0  0
    2.5001    0.0259    0.5900 N   0  0  0  0  0  0  0  0  0  0  0  0
    5.2697   -0.9902   -0.4441 H   0  0  0  0  0  0  0  0  0  0  0  0
    4.8918   -1.0096    1.3473 H   0  0  0  0  0  0  0  0  0  0  0  0
    5.8098    0.3649    0.5687 H   0  0  0  0  0  0  0  0  0  0  0  0
   -0.5948    0.6508    2.0155 H   0  0  0  0  0  0  0  0  0  0  0  0
    0.0654   -0.8256    1.2739 H   0  0  0  0  0  0  0  0  0  0  0  0
   -2.8302   -1.7740    0.8453 H   0  0  0  0  0  0  0  0  0  0  0  0
   -0.9709   -0.3197   -1.5834 H   0  0  0  0  0  0  0  0  0  0  0  0
   -1.4534   -1.8996   -0.8365 H   0  0  0  0  0  0  0  0  0  0  0  0
   -3.7322   -1.3087   -0.9370 H   0  0  0  0  0  0  0  0  0  0  0  0
   -3.1000   -0.6603   -2.5444 H   0  0  0  0  0  0  0  0  0  0  0  0
   -4.4132    0.8983   -0.8301 H   0  0  0  0  0  0  0  0  0  0  0  0
   -3.2104    1.3824    1.0199 H   0  0  0  0  0  0  0  0  0  0  0  0
   -1.8753    1.8724   -0.1402 H   0  0  0  0  0  0  0  0  0  0  0  0
    2.2759   -0.7422    1.2300 H   0  0  0  0  0  0  0  0  0  0  0  0
  1  2  1  0
  2  3  1  0
  3  4  2  0
  4  5  1  0
  5  6  2  3
  6  7  1  0
  7  8  1  0
  8  9  1  1
  8 10  1  0
 10 11  1  0
 11 12  1  0
 12 13  1  0
  5 14  1  0
 14  2  1  0
 13  8  1  0
  1 15  1  0
  1 16  1  0
  1 17  1  0
  7 18  1  0
  7 19  1  0
  9 20  1  0
 10 21  1  0
 10 22  1  0
 11 23  1  0
 11 24  1  0
 12 25  1  0
 13 26  1  0
 13 27  1  0
 14 28  1  0
M  END
$$$$

     RDKit          3D

 28 29  0  0  0  0  0  0  0  0999 V2000
    5.4147   -0.0255   -0.5384 C   0  0  0  0  0  0  0  0  0  0  0  0
    4.0236   -0.1913   -0.1782 N   0  0  0  0  0  0  0  0  0  0  0  0
    3.6375   -1.0606    0.7662 N   0  0  0  0  0  0  0  0  0  0  0  0
    2.3234   -0.9777    0.8608 N   0  0  0  0  0  0  0  0  0  0  0  0
    1.8472   -0.0700   -0.0051 C   0  0  0  0  0  0  0  0  0  0  0  0
    0.6165    0.2677   -0.1833 N   0  0  0  0  0  0  0  0  0  0  0  0
   -0.4042   -0.3590    0.5991 C   0  0  0  0  0  0  0  0  0  0  0  0
   -1.7795   -0.2260   -0.0051 C   0  0  2  0  0  0  0  0  0  0  0  0
   -1.8644   -0.7953   -1.2649 O   0  0  0  0  0  0  0  0  0  0  0  0
   -2.2473    1.1960   -0.0821 C   0  0  0  0  0  0  0  0  0  0  0  0
   -3.7668    1.0008   -0.0088 C   0  0  0  0  0  0  0  0  0  0  0  0
   -3.8439    0.0799    1.1339 N   0  0  0  0  0  0  0  0  0  0  0  0
   -2.7611   -0.8528    0.9480 C   0  0  0  0  0  0  0  0  0  0  0  0
    2.9439    0.4068   -0.6441 N   0  0  0  0  0  0  0  0  0  0  0  0
    6.0079   -0.0537    0.4016 H   0  0  0  0  0  0  0  0  0  0  0  0
    5.7170   -0.8629   -1.2066 H   0  0  0  0  0  0  0  0  0  0  0  0
    5.5168    0.9134   -1.0960 H   0  0  0  0  0  0  0  0  0  0  0  0
   -0.4586   -0.0261    1.6372 H   0  0  0  0  0  0  0  0  0  0  0  0
   -0.1801   -1.4609    0.6197 H   0  0  0  0  0  0  0  0  0  0  0  0
   -2.3148   -1.6733   -1.1595 H   0  0  0  0  0  0  0  0  0  0  0  0
   -1.9539    1.7075   -1.0174 H   0  0  0  0  0  0  0  0  0  0  0  0
   -1.9653    1.7818    0.8193 H   0  0  0  0  0  0  0  0  0  0  0  0
   -4.2907    1.9329    0.1815 H   0  0  0  0  0  0  0  0  0  0  0  0
   -4.0916    0.4331   -0.8807 H   0  0  0  0  0  0  0  0  0  0  0  0
   -3.6741    0.7037    1.9789 H   0  0  0  0  0  0  0  0  0  0  0  0
   -2.2954   -1.0656    1.9494 H   0  0  0  0  0  0  0  0  0  0  0  0
   -3.1246   -1.8533    0.5846 H   0  0  0  0  0  0  0  0  0  0  0  0
    2.9678    1.1306   -1.3897 H   0  0  0  0  0  0  0  0  0  0  0  0
  1  2  1  0
  2  3  1  0
  3  4  2  0
  4  5  1  0
  5  6  2  3
  6  7  1  0
  7  8  1  0
  8  9  1  6
  8 10  1  0
 10 11  1  0
 11 12  1  0
 12 13  1  0
  5 14  1  0
 14  2  1  0
 13  8  1  0
  1 15  1  0
  1 16  1  0
  1 17  1  0
  7 18  1  0
  7 19  1  0
  9 20  1  0
 10 21  1  0
 10 22  1  0
 11 23  1  0
 11 24  1  0
 12 25  1  0
 13 26  1  0
 13 27  1  0
 14 28  1  0
M  END
$$$$

     RDKit          3D

 28 29  0  0  0  0  0  0  0  0999 V2000
    5.2886    0.9185    0.1496 C   0  0  0  0  0  0  0  0  0  0  0  0
    3.9584    0.3536   -0.1174 N   0  0  0  0  0  0  0  0  0  0  0  0
    3.6307   -0.4372   -1.1228 N   0  0  0  0  0  0  0  0  0  0  0  0
    2.3461   -0.7480   -1.0420 N   0  0  0  0  0  0  0  0  0  0  0  0
    1.8611   -0.1368    0.0391 C   0  0  0  0  0  0  0  0  0  0  0  0
    0.6515   -0.1999    0.4461 N   0  0  0  0  0  0  0  0  0  0  0  0
   -0.3810   -0.9617   -0.2273 C   0  0  0  0  0  0  0  0  0  0  0  0
   -1.7107   -0.4550    0.2697 C   0  0  2  0  0  0  0  0  0  0  0  0
   -1.8406   -0.6114    1.6257 O   0  0  0  0  0  0  0  0  0  0  0  0
   -2.8774   -1.1046   -0.4509 C   0  0  0  0  0  0  0  0  0  0  0  0
   -3.9880   -0.1062   -0.1176 C   0  0  0  0  0  0  0  0  0  0  0  0
   -3.3554    1.1529    0.1191 N   0  0  0  0  0  0  0  0  0  0  0  0
   -1.9400    0.9951   -0.0763 C   0  0  0  0  0  0  0  0  0  0  0  0
    2.8590    0.5404    0.6048 N   0  0  0  0  0  0  0  0  0  0  0  0
    5.1986    1.6042    1.0125 H   0  0  0  0  0  0  0  0  0  0  0  0
    6.0263    0.1147    0.3120 H   0  0  0  0  0  0  0  0  0  0  0  0
    5.6178    1.5520   -0.7110 H   0  0  0  0  0  0  0  0  0  0  0  0
   -0.2841   -2.0111    0.1436 H   0  0  0  0  0  0  0  0  0  0  0  0
   -0.2943   -0.9722   -1.3114 H   0  0  0  0  0  0  0  0  0  0  0  0
   -1.7318   -1.5687    1.8496 H   0  0  0  0  0  0  0  0  0  0  0  0
   -3.0999   -2.1114   -0.0921 H   0  0  0  0  0  0  0  0  0  0  0  0
   -2.7336   -1.0362   -1.5512 H   0  0  0  0  0  0  0  0  0  0  0  0
   -4.4258   -0.4754    0.8554 H   0  0  0  0  0  0  0  0  0  0  0  0
   -4.7713   -0.0881   -0.8920 H   0  0  0  0  0  0  0  0  0  0  0  0
   -3.7868    1.8835   -0.4896 H   0  0  0  0  0  0  0  0  0  0  0  0
   -1.3213    1.6932    0.4963 H   0  0  0  0  0  0  0  0  0  0  0  0
   -1.7588    1.0771   -1.1879 H   0  0  0  0  0  0  0  0  0  0  0  0
    2.8628    1.1386    1.4659 H   0  0  0  0  0  0  0  0  0  0  0  0
  1  2  1  0
  2  3  1  0
  3  4  2  0
  4  5  1  0
  5  6  2  3
  6  7  1  0
  7  8  1  0
  8  9  1  1
  8 10  1  0
 10 11  1  0
 11 12  1  0
 12 13  1  0
  5 14  1  0
 14  2  1  0
 13  8  1  0
  1 15  1  0
  1 16  1  0
  1 17  1  0
  7 18  1  0
  7 19  1  0
  9 20  1  0
 10 21  1  0
 10 22  1  0
 11 23  1  0
 11 24  1  0
 12 25  1  0
 13 26  1  0
 13 27  1  0
 14 28  1  0
M  END
$$$$

     RDKit          3D

 28 29  0  0  0  0  0  0  0  0999 V2000
    4.9493   -0.2338    0.3119 C   0  0  0  0  0  0  0  0  0  0  0  0
    3.6352   -0.8111    0.4616 N   0  0  0  0  0  0  0  0  0  0  0  0
    3.3225   -1.8905    1.1297 N   0  0  0  0  0  0  0  0  0  0  0  0
    2.0134   -2.0940    1.0293 N   0  0  0  0  0  0  0  0  0  0  0  0
    1.4792   -1.1203    0.2788 C   0  0  0  0  0  0  0  0  0  0  0  0
    0.2277   -1.0349   -0.0052 N   0  0  0  0  0  0  0  0  0  0  0  0
   -0.2398    0.0430   -0.8136 C   0  0  0  0  0  0  0  0  0  0  0  0
   -1.6519    0.4603   -0.5417 C   0  0  2  0  0  0  0  0  0  0  0  0
   -1.9848    1.5039   -1.3813 O   0  0  0  0  0  0  0  0  0  0  0  0
   -1.9096    0.8680    0.8686 C   0  0  0  0  0  0  0  0  0  0  0  0
   -3.3438    0.4335    1.1051 C   0  0  0  0  0  0  0  0  0  0  0  0
   -3.8436   -0.0413   -0.1728 N   0  0  0  0  0  0  0  0  0  0  0  0
   -2.6380   -0.6751   -0.7220 C   0  0  0  0  0  0  0  0  0  0  0  0
    2.5213   -0.3314   -0.0622 N   0  0  0  0  0  0  0  0  0  0  0  0
    4.8563    0.8812    0.1606 H   0  0  0  0  0  0  0  0  0  0  0  0
    5.5071   -0.6493   -0.5543 H   0  0  0  0  0  0  0  0  0  0  0  0
    5.4967   -0.3553    1.2738 H   0  0  0  0  0  0  0  0  0  0  0  0
   -0.1585   -0.2459   -1.8811 H   0  0  0  0  0  0  0  0  0  0  0  0
    0.4026    0.9365   -0.6765 H   0  0  0  0  0  0  0  0  0  0  0  0
   -1.4905    2.3344   -1.1286 H   0  0  0  0  0  0  0  0  0  0  0  0
   -1.2235    0.3576    1.5846 H   0  0  0  0  0  0  0  0  0  0  0  0
   -1.8757    1.9727    1.0180 H   0  0  0  0  0  0  0  0  0  0  0  0
   -3.3856   -0.4491    1.7943 H   0  0  0  0  0  0  0  0  0  0  0  0
   -3.9664    1.2578    1.5093 H   0  0  0  0  0  0  0  0  0  0  0  0
   -4.0047    0.8323   -0.7574 H   0  0  0  0  0  0  0  0  0  0  0  0
   -2.3375   -1.4956   -0.0411 H   0  0  0  0  0  0  0  0  0  0  0  0
   -2.7644   -0.9803   -1.7615 H   0  0  0  0  0  0  0  0  0  0  0  0
    2.4068    0.5268   -0.6592 H   0  0  0  0  0  0  0  0  0  0  0  0
  1  2  1  0
  2  3  1  0
  3  4  2  0
  4  5  1  0
  5  6  2  3
  6  7  1  0
  7  8  1  0
  8  9  1  6
  8 10  1  0
 10 11  1  0
 11 12  1  0
 12 13  1  0
  5 14  1  0
 14  2  1  0
 13  8  1  0
  1 15  1  0
  1 16  1  0
  1 17  1  0
  7 18  1  0
  7 19  1  0
  9 20  1  0
 10 21  1  0
 10 22  1  0
 11 23  1  0
 11 24  1  0
 12 25  1  0
 13 26  1  0
 13 27  1  0
 14 28  1  0
M  END
$$$$

     RDKit          3D

 28 29  0  0  0  0  0  0  0  0999 V2000
    4.8785    0.4215    0.4865 C   0  0  0  0  0  0  0  0  0  0  0  0
    3.6883    0.6898   -0.3097 N   0  0  0  0  0  0  0  0  0  0  0  0
    3.5590    1.5442   -1.3038 N   0  0  0  0  0  0  0  0  0  0  0  0
    2.3300    1.5118   -1.7856 N   0  0  0  0  0  0  0  0  0  0  0  0
    1.6457    0.6056   -1.0772 C   0  0  0  0  0  0  0  0  0  0  0  0
    0.4132    0.2953   -1.2550 N   0  0  0  0  0  0  0  0  0  0  0  0
   -0.2866   -0.6887   -0.4677 C   0  0  0  0  0  0  0  0  0  0  0  0
   -1.5326    0.0066    0.0856 C   0  0  2  0  0  0  0  0  0  0  0  0
   -1.1017    1.0775    0.8579 O   0  0  0  0  0  0  0  0  0  0  0  0
   -2.3545   -0.9246    0.9408 C   0  0  0  0  0  0  0  0  0  0  0  0
   -3.7497   -0.7958    0.3292 C   0  0  0  0  0  0  0  0  0  0  0  0
   -3.4436   -0.5736   -1.0715 N   0  0  0  0  0  0  0  0  0  0  0  0
   -2.4501    0.4759   -0.9957 C   0  0  0  0  0  0  0  0  0  0  0  0
    2.5003    0.1122   -0.1748 N   0  0  0  0  0  0  0  0  0  0  0  0
    5.7580    0.6297   -0.1448 H   0  0  0  0  0  0  0  0  0  0  0  0
    4.9190    1.0947    1.3675 H   0  0  0  0  0  0  0  0  0  0  0  0
    4.8781   -0.6428    0.8349 H   0  0  0  0  0  0  0  0  0  0  0  0
    0.3163   -0.9671    0.4085 H   0  0  0  0  0  0  0  0  0  0  0  0
   -0.5655   -1.5726   -1.0692 H   0  0  0  0  0  0  0  0  0  0  0  0
   -0.7927    1.8424    0.3009 H   0  0  0  0  0  0  0  0  0  0  0  0
   -1.9779   -1.9726    0.8217 H   0  0  0  0  0  0  0  0  0  0  0  0
   -2.3427   -0.6339    2.0063 H   0  0  0  0  0  0  0  0  0  0  0  0
   -4.2144    0.1285    0.7156 H   0  0  0  0  0  0  0  0  0  0  0  0
   -4.3583   -1.6840    0.5088 H   0  0  0  0  0  0  0  0  0  0  0  0
   -3.1081   -1.4251   -1.5491 H   0  0  0  0  0  0  0  0  0  0  0  0
   -1.9480    0.6633   -1.9565 H   0  0  0  0  0  0  0  0  0  0  0  0
   -2.9793    1.3987   -0.6546 H   0  0  0  0  0  0  0  0  0  0  0  0
    2.3193   -0.6167    0.5505 H   0  0  0  0  0  0  0  0  0  0  0  0
  1  2  1  0
  2  3  1  0
  3  4  2  0
  4  5  1  0
  5  6  2  3
  6  7  1  0
  7  8  1  0
  8  9  1  1
  8 10  1  0
 10 11  1  0
 11 12  1  0
 12 13  1  0
  5 14  1  0
 14  2  1  0
 13  8  1  0
  1 15  1  0
  1 16  1  0
  1 17  1  0
  7 18  1  0
  7 19  1  0
  9 20  1  0
 10 21  1  0
 10 22  1  0
 11 23  1  0
 11 24  1  0
 12 25  1  0
 13 26  1  0
 13 27  1  0
 14 28  1  0
M  END
$$$$

     RDKit          3D

 28 29  0  0  0  0  0  0  0  0999 V2000
    5.3896   -0.0275   -0.7679 C   0  0  0  0  0  0  0  0  0  0  0  0
    4.0192   -0.2301   -0.2919 N   0  0  0  0  0  0  0  0  0  0  0  0
    3.6190   -0.9988    0.7077 N   0  0  0  0  0  0  0  0  0  0  0  0
    2.2886   -0.9054    0.8178 N   0  0  0  0  0  0  0  0  0  0  0  0
    1.8355   -0.0644   -0.1261 C   0  0  0  0  0  0  0  0  0  0  0  0
    0.6151    0.2831   -0.3427 N   0  0  0  0  0  0  0  0  0  0  0  0
   -0.4111   -0.2712    0.5019 C   0  0  0  0  0  0  0  0  0  0  0  0
   -1.7453    0.3798    0.3188 C   0  0  2  0  0  0  0  0  0  0  0  0
   -1.7243    1.7349    0.5981 O   0  0  0  0  0  0  0  0  0  0  0  0
   -2.6948   -0.2565    1.3397 C   0  0  0  0  0  0  0  0  0  0  0  0
   -4.0152   -0.2653    0.6144 C   0  0  0  0  0  0  0  0  0  0  0  0
   -3.6011   -0.6712   -0.7299 N   0  0  0  0  0  0  0  0  0  0  0  0
   -2.3939    0.0999   -0.9939 C   0  0  0  0  0  0  0  0  0  0  0  0
    2.9407    0.3347   -0.7958 N   0  0  0  0  0  0  0  0  0  0  0  0
    5.4384    0.2066   -1.8304 H   0  0  0  0  0  0  0  0  0  0  0  0
    6.0176   -0.9343   -0.5575 H   0  0  0  0  0  0  0  0  0  0  0  0
    5.8923    0.7999   -0.2144 H   0  0  0  0  0  0  0  0  0  0  0  0
   -0.5189   -1.3611    0.3991 H   0  0  0  0  0  0  0  0  0  0  0  0
   -0.0953   -0.0822    1.5581 H   0  0  0  0  0  0  0  0  0  0  0  0
   -1.7485    2.3009   -0.2139 H   0  0  0  0  0  0  0  0  0  0  0  0
   -2.3886   -1.3251    1.4741 H   0  0  0  0  0  0  0  0  0  0  0  0
   -2.7045    0.2788    2.2889 H   0  0  0  0  0  0  0  0  0  0  0  0
   -4.6358   -1.0785    1.0609 H   0  0  0  0  0  0  0  0  0  0  0  0
   -4.5145    0.7078    0.6256 H   0  0  0  0  0  0  0  0  0  0  0  0
   -3.3098   -1.6726   -0.6480 H   0  0  0  0  0  0  0  0  0  0  0  0
   -2.7468    1.0558   -1.4647 H   0  0  0  0  0  0  0  0  0  0  0  0
   -1.7324   -0.3999   -1.7328 H   0  0  0  0  0  0  0  0  0  0  0  0
    2.9245    0.9960   -1.5953 H   0  0  0  0  0  0  0  0  0  0  0  0
  1  2  1  0
  2  3  1  0
  3  4  2  0
  4  5  1  0
  5  6  2  3
  6  7  1  0
  7  8  1  0
  8  9  1  1
  8 10  1  0
 10 11  1  0
 11 12  1  0
 12 13  1  0
  5 14  1  0
 14  2  1  0
 13  8  1  0
  1 15  1  0
  1 16  1  0
  1 17  1  0
  7 18  1  0
  7 19  1  0
  9 20  1  0
 10 21  1  0
 10 22  1  0
 11 23  1  0
 11 24  1  0
 12 25  1  0
 13 26  1  0
 13 27  1  0
 14 28  1  0
M  END
$$$$

     RDKit          3D

 28 29  0  0  0  0  0  0  0  0999 V2000
    5.0246    0.4582   -0.1982 C   0  0  0  0  0  0  0  0  0  0  0  0
    3.8087   -0.3042   -0.0807 N   0  0  0  0  0  0  0  0  0  0  0  0
    3.7647   -1.5373    0.4192 N   0  0  0  0  0  0  0  0  0  0  0  0
    2.5147   -1.9729    0.3968 N   0  0  0  0  0  0  0  0  0  0  0  0
    1.7336   -0.9978   -0.1299 C   0  0  0  0  0  0  0  0  0  0  0  0
    0.4766   -1.1264   -0.2795 N   0  0  0  0  0  0  0  0  0  0  0  0
   -0.4155   -0.1579   -0.8213 C   0  0  0  0  0  0  0  0  0  0  0  0
   -1.5141    0.1204    0.1578 C   0  0  2  0  0  0  0  0  0  0  0  0
   -1.0777    0.6079    1.3660 O   0  0  0  0  0  0  0  0  0  0  0  0
   -2.3955   -1.1171    0.3770 C   0  0  0  0  0  0  0  0  0  0  0  0
   -3.5453   -0.4178    1.1107 C   0  0  0  0  0  0  0  0  0  0  0  0
   -3.6752    0.8715    0.5061 N   0  0  0  0  0  0  0  0  0  0  0  0
   -2.5624    1.0689   -0.3858 C   0  0  0  0  0  0  0  0  0  0  0  0
    2.5730    0.0111   -0.4094 N   0  0  0  0  0  0  0  0  0  0  0  0
    4.9118    1.3494   -0.8362 H   0  0  0  0  0  0  0  0  0  0  0  0
    5.8208   -0.1637   -0.6631 H   0  0  0  0  0  0  0  0  0  0  0  0
    5.4264    0.7947    0.7844 H   0  0  0  0  0  0  0  0  0  0  0  0
   -0.8911   -0.6039   -1.7291 H   0  0  0  0  0  0  0  0  0  0  0  0
    0.0512    0.8092   -1.0853 H   0  0  0  0  0  0  0  0  0  0  0  0
   -1.1358    1.6019    1.3512 H   0  0  0  0  0  0  0  0  0  0  0  0
   -1.9030   -1.8680    0.9963 H   0  0  0  0  0  0  0  0  0  0  0  0
   -2.7723   -1.4748   -0.5896 H   0  0  0  0  0  0  0  0  0  0  0  0
   -4.4514   -1.0237    1.1292 H   0  0  0  0  0  0  0  0  0  0  0  0
   -3.1714   -0.3094    2.1710 H   0  0  0  0  0  0  0  0  0  0  0  0
   -3.7635    1.6156    1.2329 H   0  0  0  0  0  0  0  0  0  0  0  0
   -2.9015    0.7462   -1.4101 H   0  0  0  0  0  0  0  0  0  0  0  0
   -2.2000    2.1170   -0.3993 H   0  0  0  0  0  0  0  0  0  0  0  0
    2.2695    0.9030   -0.8249 H   0  0  0  0  0  0  0  0  0  0  0  0
  1  2  1  0
  2  3  1  0
  3  4  2  0
  4  5  1  0
  5  6  2  3
  6  7  1  0
  7  8  1  0
  8  9  1  1
  8 10  1  0
 10 11  1  0
 11 12  1  0
 12 13  1  0
  5 14  1  0
 14  2  1  0
 13  8  1  0
  1 15  1  0
  1 16  1  0
  1 17  1  0
  7 18  1  0
  7 19  1  0
  9 20  1  0
 10 21  1  0
 10 22  1  0
 11 23  1  0
 11 24  1  0
 12 25  1  0
 13 26  1  0
 13 27  1  0
 14 28  1  0
M  END
$$$$
