
     RDKit          3D

 27 28  0  0  0  0  0  0  0  0999 V2000
    3.9325    0.3199   -1.0493 C   0  0  0  0  0  0  0  0  0  0  0  0
    2.8435   -0.0783   -0.1648 N   0  0  0  0  0  0  0  0  0  0  0  0
    2.8336   -1.1014    0.7054 C   0  0  0  0  0  0  0  0  0  0  0  0
    1.6359   -1.1085    1.3136 N   0  0  0  0  0  0  0  0  0  0  0  0
    0.8726   -0.1054    0.8486 N   0  0  0  0  0  0  0  0  0  0  0  0
   -0.4785    0.1795    1.2707 C   0  0  0  0  0  0  0  0  0  0  0  0
   -1.5447   -0.5473    0.5511 C   0  0  2  0  0  0  0  0  0  0  0  0
   -1.4497   -1.9367    0.6628 O   0  0  0  0  0  0  0  0  0  0  0  0
   -1.6783   -0.1489   -0.8955 C   0  0  0  0  0  0  0  0  0  0  0  0
   -2.4500    1.1682   -0.7342 C   0  0  0  0  0  0  0  0  0  0  0  0
   -3.4313    0.7897    0.1696 O   0  0  0  0  0  0  0  0  0  0  0  0
   -2.8795   -0.0405    1.1104 C   0  0  0  0  0  0  0  0  0  0  0  0
    1.6421    0.5101   -0.0582 C   0  0  0  0  0  0  0  0  0  0  0  0
    1.3173    1.5145   -0.7421 O   0  0  0  0  0  0  0  0  0  0  0  0
    4.1639    1.4075   -0.9094 H   0  0  0  0  0  0  0  0  0  0  0  0
    4.8522   -0.2189   -0.7515 H   0  0  0  0  0  0  0  0  0  0  0  0
    3.6815    0.1881   -2.1143 H   0  0  0  0  0  0  0  0  0  0  0  0
    3.6751   -1.7715    0.8491 H   0  0  0  0  0  0  0  0  0  0  0  0
   -0.5799   -0.0683    2.3666 H   0  0  0  0  0  0  0  0  0  0  0  0
   -0.7024    1.2656    1.2228 H   0  0  0  0  0  0  0  0  0  0  0  0
   -2.0834   -2.3090   -0.0012 H   0  0  0  0  0  0  0  0  0  0  0  0
   -2.4169   -0.8373   -1.3718 H   0  0  0  0  0  0  0  0  0  0  0  0
   -0.7566   -0.0501   -1.4504 H   0  0  0  0  0  0  0  0  0  0  0  0
   -2.9094    1.4241   -1.7079 H   0  0  0  0  0  0  0  0  0  0  0  0
   -1.8142    1.9588   -0.3367 H   0  0  0  0  0  0  0  0  0  0  0  0
   -3.5358   -0.9122    1.3627 H   0  0  0  0  0  0  0  0  0  0  0  0
   -2.7397    0.5085    2.0630 H   0  0  0  0  0  0  0  0  0  0  0  0
  1  2  1  0
  2  3  1  0
  3  4  2  0
  4  5  1  0
  5  6  1  0
  6  7  1  0
  7  8  1  6
  7  9  1  0
  9 10  1  0
 10 11  1  0
 11 12  1  0
  5 13  1  0
 13 14  2  0
 13  2  1  0
 12  7  1  0
  1 15  1  0
  1 16  1  0
  1 17  1  0
  3 18  1  0
  6 19  1  0
  6 20  1  0
  8 21  1  0
  9 22  1  0
  9 23  1  0
 10 24  1  0
 10 25  1  0
 12 26  1  0
 12 27  1  0
M  END
$$$$

     RDKit          3D

 27 28  0  0  0  0  0  0  0  0999 V2000
    3.7479    1.3627   -0.6645 C   0  0  0  0  0  0  0  0  0  0  0  0
    2.7599    0.3466   -0.3062 N   0  0  0  0  0  0  0  0  0  0  0  0
    2.8822   -0.9794   -0.3776 C   0  0  0  0  0  0  0  0  0  0  0  0
    1.7284   -1.5129    0.0528 N   0  0  0  0  0  0  0  0  0  0  0  0
    0.8662   -0.5540    0.3997 N   0  0  0  0  0  0  0  0  0  0  0  0
   -0.4739   -0.7498    0.9021 C   0  0  0  0  0  0  0  0  0  0  0  0
   -1.5323   -0.8407   -0.1396 C   0  0  2  0  0  0  0  0  0  0  0  0
   -1.3617   -1.8781   -1.0336 O   0  0  0  0  0  0  0  0  0  0  0  0
   -1.8427    0.4807   -0.8109 C   0  0  0  0  0  0  0  0  0  0  0  0
   -2.4713    1.2140    0.3739 C   0  0  0  0  0  0  0  0  0  0  0  0
   -2.9342    0.2567    1.2387 O   0  0  0  0  0  0  0  0  0  0  0  0
   -2.8573   -0.9939    0.6330 C   0  0  0  0  0  0  0  0  0  0  0  0
    1.5126    0.6012    0.1746 C   0  0  0  0  0  0  0  0  0  0  0  0
    1.0468    1.7600    0.3748 O   0  0  0  0  0  0  0  0  0  0  0  0
    4.7124    1.1387   -0.1393 H   0  0  0  0  0  0  0  0  0  0  0  0
    3.8875    1.3149   -1.7713 H   0  0  0  0  0  0  0  0  0  0  0  0
    3.3977    2.3457   -0.3192 H   0  0  0  0  0  0  0  0  0  0  0  0
    3.7633   -1.5283   -0.7241 H   0  0  0  0  0  0  0  0  0  0  0  0
   -0.7592    0.1227    1.5638 H   0  0  0  0  0  0  0  0  0  0  0  0
   -0.4718   -1.6158    1.6041 H   0  0  0  0  0  0  0  0  0  0  0  0
   -0.5365   -2.3915   -0.8825 H   0  0  0  0  0  0  0  0  0  0  0  0
   -0.9962    0.9875   -1.2547 H   0  0  0  0  0  0  0  0  0  0  0  0
   -2.6659    0.2623   -1.5282 H   0  0  0  0  0  0  0  0  0  0  0  0
   -1.6658    1.8042    0.8489 H   0  0  0  0  0  0  0  0  0  0  0  0
   -3.2477    1.9288    0.0339 H   0  0  0  0  0  0  0  0  0  0  0  0
   -2.8072   -1.7870    1.3760 H   0  0  0  0  0  0  0  0  0  0  0  0
   -3.6812   -1.0952   -0.0974 H   0  0  0  0  0  0  0  0  0  0  0  0
  1  2  1  0
  2  3  1  0
  3  4  2  0
  4  5  1  0
  5  6  1  0
  6  7  1  0
  7  8  1  6
  7  9  1  0
  9 10  1  0
 10 11  1  0
 11 12  1  0
  5 13  1  0
 13 14  2  0
 13  2  1  0
 12  7  1  0
  1 15  1  0
  1 16  1  0
  1 17  1  0
  3 18  1  0
  6 19  1  0
  6 20  1  0
  8 21  1  0
  9 22  1  0
  9 23  1  0
 10 24  1  0
 10 25  1  0
 12 26  1  0
 12 27  1  0
M  END
$$$$

     RDKit          3D

 27 28  0  0  0  0  0  0  0  0999 V2000
    3.9953    1.0786   -0.4387 C   0  0  0  0  0  0  0  0  0  0  0  0
    2.8869    0.1557   -0.3523 N   0  0  0  0  0  0  0  0  0  0  0  0
    2.9074   -1.0859    0.1309 C   0  0  0  0  0  0  0  0  0  0  0  0
    1.6482   -1.5353   -0.0012 N   0  0  0  0  0  0  0  0  0  0  0  0
    0.8600   -0.6195   -0.5447 N   0  0  0  0  0  0  0  0  0  0  0  0
   -0.5479   -0.7721   -0.8047 C   0  0  0  0  0  0  0  0  0  0  0  0
   -1.4059   -0.4705    0.3668 C   0  0  2  0  0  0  0  0  0  0  0  0
   -1.0872   -1.3395    1.4393 O   0  0  0  0  0  0  0  0  0  0  0  0
   -2.8808   -0.6955    0.0792 C   0  0  0  0  0  0  0  0  0  0  0  0
   -3.4733    0.6577    0.3592 C   0  0  0  0  0  0  0  0  0  0  0  0
   -2.4176    1.5292    0.1022 O   0  0  0  0  0  0  0  0  0  0  0  0
   -1.3968    0.9279    0.8615 C   0  0  0  0  0  0  0  0  0  0  0  0
    1.6256    0.4530   -0.7729 C   0  0  0  0  0  0  0  0  0  0  0  0
    1.2628    1.5559   -1.2888 O   0  0  0  0  0  0  0  0  0  0  0  0
    4.9371    0.4965   -0.5601 H   0  0  0  0  0  0  0  0  0  0  0  0
    3.9347    1.7287   -1.3485 H   0  0  0  0  0  0  0  0  0  0  0  0
    4.1013    1.7051    0.4498 H   0  0  0  0  0  0  0  0  0  0  0  0
    3.7773   -1.5862    0.5345 H   0  0  0  0  0  0  0  0  0  0  0  0
   -0.8476   -0.0358   -1.6134 H   0  0  0  0  0  0  0  0  0  0  0  0
   -0.7778   -1.7613   -1.2733 H   0  0  0  0  0  0  0  0  0  0  0  0
   -0.5109   -2.0771    1.0807 H   0  0  0  0  0  0  0  0  0  0  0  0
   -3.0610   -0.9540   -0.9791 H   0  0  0  0  0  0  0  0  0  0  0  0
   -3.3468   -1.4300    0.7594 H   0  0  0  0  0  0  0  0  0  0  0  0
   -4.3176    0.9097   -0.3076 H   0  0  0  0  0  0  0  0  0  0  0  0
   -3.7339    0.7595    1.4321 H   0  0  0  0  0  0  0  0  0  0  0  0
   -0.4428    1.4450    0.7361 H   0  0  0  0  0  0  0  0  0  0  0  0
   -1.6887    0.9603    1.9534 H   0  0  0  0  0  0  0  0  0  0  0  0
  1  2  1  0
  2  3  1  0
  3  4  2  0
  4  5  1  0
  5  6  1  0
  6  7  1  0
  7  8  1  1
  7  9  1  0
  9 10  1  0
 10 11  1  0
 11 12  1  0
  5 13  1  0
 13 14  2  0
 13  2  1  0
 12  7  1  0
  1 15  1  0
  1 16  1  0
  1 17  1  0
  3 18  1  0
  6 19  1  0
  6 20  1  0
  8 21  1  0
  9 22  1  0
  9 23  1  0
 10 24  1  0
 10 25  1  0
 12 26  1  0
 12 27  1  0
M  END
$$$$

     RDKit          3D

 27 28  0  0  0  0  0  0  0  0999 V2000
    4.1922   -0.1201    0.2752 C   0  0  0  0  0  0  0  0  0  0  0  0
    2.8041   -0.4295    0.6029 N   0  0  0  0  0  0  0  0  0  0  0  0
    2.2806   -0.5836    1.8348 C   0  0  0  0  0  0  0  0  0  0  0  0
    0.9779   -0.8570    1.6379 N   0  0  0  0  0  0  0  0  0  0  0  0
    0.7029   -0.8723    0.3414 N   0  0  0  0  0  0  0  0  0  0  0  0
   -0.5682   -1.1255   -0.2523 C   0  0  0  0  0  0  0  0  0  0  0  0
   -1.4038    0.1161   -0.4616 C   0  0  2  0  0  0  0  0  0  0  0  0
   -0.7867    1.0366   -1.2878 O   0  0  0  0  0  0  0  0  0  0  0  0
   -1.7056    0.8046    0.8529 C   0  0  0  0  0  0  0  0  0  0  0  0
   -3.0954    1.3663    0.5579 C   0  0  0  0  0  0  0  0  0  0  0  0
   -3.7050    0.4513   -0.2522 O   0  0  0  0  0  0  0  0  0  0  0  0
   -2.7722   -0.2730   -0.9347 C   0  0  0  0  0  0  0  0  0  0  0  0
    1.8445   -0.6046   -0.3220 C   0  0  0  0  0  0  0  0  0  0  0  0
    2.0085   -0.5274   -1.5651 O   0  0  0  0  0  0  0  0  0  0  0  0
    4.7493    0.0344    1.2258 H   0  0  0  0  0  0  0  0  0  0  0  0
    4.2578    0.8647   -0.2651 H   0  0  0  0  0  0  0  0  0  0  0  0
    4.6970   -0.9290   -0.2605 H   0  0  0  0  0  0  0  0  0  0  0  0
    2.8058   -0.5032    2.7971 H   0  0  0  0  0  0  0  0  0  0  0  0
   -1.1563   -1.7669    0.4682 H   0  0  0  0  0  0  0  0  0  0  0  0
   -0.4923   -1.7108   -1.1839 H   0  0  0  0  0  0  0  0  0  0  0  0
   -0.3657    1.7846   -0.7715 H   0  0  0  0  0  0  0  0  0  0  0  0
   -0.9830    1.5946    1.1054 H   0  0  0  0  0  0  0  0  0  0  0  0
   -1.8045    0.0273    1.6499 H   0  0  0  0  0  0  0  0  0  0  0  0
   -2.9731    2.3179   -0.0005 H   0  0  0  0  0  0  0  0  0  0  0  0
   -3.6956    1.4810    1.4816 H   0  0  0  0  0  0  0  0  0  0  0  0
   -2.9385   -1.3583   -0.6766 H   0  0  0  0  0  0  0  0  0  0  0  0
   -2.8750   -0.2183   -2.0502 H   0  0  0  0  0  0  0  0  0  0  0  0
  1  2  1  0
  2  3  1  0
  3  4  2  0
  4  5  1  0
  5  6  1  0
  6  7  1  0
  7  8  1  6
  7  9  1  0
  9 10  1  0
 10 11  1  0
 11 12  1  0
  5 13  1  0
 13 14  2  0
 13  2  1  0
 12  7  1  0
  1 15  1  0
  1 16  1  0
  1 17  1  0
  3 18  1  0
  6 19  1  0
  6 20  1  0
  8 21  1  0
  9 22  1  0
  9 23  1  0
 10 24  1  0
 10 25  1  0
 12 26  1  0
 12 27  1  0
M  END
$$$$

     RDKit          3D

 27 28  0  0  0  0  0  0  0  0999 V2000
    4.1258    0.1206   -1.0789 C   0  0  0  0  0  0  0  0  0  0  0  0
    2.9232    0.3644   -0.2707 N   0  0  0  0  0  0  0  0  0  0  0  0
    2.6470    1.4297    0.4927 C   0  0  0  0  0  0  0  0  0  0  0  0
    1.4458    1.2363    1.0497 N   0  0  0  0  0  0  0  0  0  0  0  0
    0.9265    0.0608    0.6652 N   0  0  0  0  0  0  0  0  0  0  0  0
   -0.3606   -0.4706    1.0671 C   0  0  0  0  0  0  0  0  0  0  0  0
   -1.4200    0.0019    0.1454 C   0  0  2  0  0  0  0  0  0  0  0  0
   -1.4599    1.4039    0.1650 O   0  0  0  0  0  0  0  0  0  0  0  0
   -2.8176   -0.4407    0.6186 C   0  0  0  0  0  0  0  0  0  0  0  0
   -3.5582   -0.1725   -0.7011 C   0  0  0  0  0  0  0  0  0  0  0  0
   -2.7375   -0.7881   -1.6153 O   0  0  0  0  0  0  0  0  0  0  0  0
   -1.4176   -0.5865   -1.2239 C   0  0  0  0  0  0  0  0  0  0  0  0
    1.8533   -0.4608   -0.1483 C   0  0  0  0  0  0  0  0  0  0  0  0
    1.7824   -1.5690   -0.7420 O   0  0  0  0  0  0  0  0  0  0  0  0
    5.0007    0.4135   -0.4631 H   0  0  0  0  0  0  0  0  0  0  0  0
    4.0412    0.6940   -2.0075 H   0  0  0  0  0  0  0  0  0  0  0  0
    4.1703   -0.9772   -1.2689 H   0  0  0  0  0  0  0  0  0  0  0  0
    3.3141    2.2873    0.6130 H   0  0  0  0  0  0  0  0  0  0  0  0
   -0.2779   -1.5786    1.0355 H   0  0  0  0  0  0  0  0  0  0  0  0
   -0.5394   -0.1297    2.0987 H   0  0  0  0  0  0  0  0  0  0  0  0
   -1.8296    1.6867    1.0486 H   0  0  0  0  0  0  0  0  0  0  0  0
   -2.7792   -1.5087    0.8254 H   0  0  0  0  0  0  0  0  0  0  0  0
   -3.1888    0.1717    1.4365 H   0  0  0  0  0  0  0  0  0  0  0  0
   -3.5548    0.9346   -0.8583 H   0  0  0  0  0  0  0  0  0  0  0  0
   -4.5571   -0.5929   -0.6326 H   0  0  0  0  0  0  0  0  0  0  0  0
   -0.8476    0.0520   -1.9248 H   0  0  0  0  0  0  0  0  0  0  0  0
   -0.8845   -1.5821   -1.1314 H   0  0  0  0  0  0  0  0  0  0  0  0
  1  2  1  0
  2  3  1  0
  3  4  2  0
  4  5  1  0
  5  6  1  0
  6  7  1  0
  7  8  1  6
  7  9  1  0
  9 10  1  0
 10 11  1  0
 11 12  1  0
  5 13  1  0
 13 14  2  0
 13  2  1  0
 12  7  1  0
  1 15  1  0
  1 16  1  0
  1 17  1  0
  3 18  1  0
  6 19  1  0
  6 20  1  0
  8 21  1  0
  9 22  1  0
  9 23  1  0
 10 24  1  0
 10 25  1  0
 12 26  1  0
 12 27  1  0
M  END
$$$$

     RDKit          3D

 27 28  0  0  0  0  0  0  0  0999 V2000
    4.0559    0.7411    0.5052 C   0  0  0  0  0  0  0  0  0  0  0  0
    2.9015   -0.0795    0.1998 N   0  0  0  0  0  0  0  0  0  0  0  0
    2.8132   -1.1412   -0.6319 C   0  0  0  0  0  0  0  0  0  0  0  0
    1.5524   -1.6022   -0.6132 N   0  0  0  0  0  0  0  0  0  0  0  0
    0.8378   -0.8573    0.2116 N   0  0  0  0  0  0  0  0  0  0  0  0
   -0.5445   -1.0623    0.4737 C   0  0  0  0  0  0  0  0  0  0  0  0
   -1.4852   -0.3412   -0.4213 C   0  0  2  0  0  0  0  0  0  0  0  0
   -1.3617   -0.6656   -1.7584 O   0  0  0  0  0  0  0  0  0  0  0  0
   -1.5480    1.1201   -0.1361 C   0  0  0  0  0  0  0  0  0  0  0  0
   -3.0401    1.4011   -0.2975 C   0  0  0  0  0  0  0  0  0  0  0  0
   -3.6398    0.2314   -0.7000 O   0  0  0  0  0  0  0  0  0  0  0  0
   -2.9074   -0.7679   -0.0183 C   0  0  0  0  0  0  0  0  0  0  0  0
    1.6499    0.0664    0.7068 C   0  0  0  0  0  0  0  0  0  0  0  0
    1.3546    0.9547    1.5176 O   0  0  0  0  0  0  0  0  0  0  0  0
    3.6793    1.7016    0.9144 H   0  0  0  0  0  0  0  0  0  0  0  0
    4.6134    0.9953   -0.4198 H   0  0  0  0  0  0  0  0  0  0  0  0
    4.7049    0.2904    1.2809 H   0  0  0  0  0  0  0  0  0  0  0  0
    3.6418   -1.5360   -1.2089 H   0  0  0  0  0  0  0  0  0  0  0  0
   -0.7658   -2.1531    0.3967 H   0  0  0  0  0  0  0  0  0  0  0  0
   -0.8289   -0.7834    1.5312 H   0  0  0  0  0  0  0  0  0  0  0  0
   -0.4703   -1.0587   -1.8888 H   0  0  0  0  0  0  0  0  0  0  0  0
   -1.3100    1.2693    0.9380 H   0  0  0  0  0  0  0  0  0  0  0  0
   -0.9925    1.7552   -0.8190 H   0  0  0  0  0  0  0  0  0  0  0  0
   -3.4923    1.7366    0.6366 H   0  0  0  0  0  0  0  0  0  0  0  0
   -3.1917    2.1948   -1.0757 H   0  0  0  0  0  0  0  0  0  0  0  0
   -3.0785   -0.6413    1.0575 H   0  0  0  0  0  0  0  0  0  0  0  0
   -3.1481   -1.7680   -0.3814 H   0  0  0  0  0  0  0  0  0  0  0  0
  1  2  1  0
  2  3  1  0
  3  4  2  0
  4  5  1  0
  5  6  1  0
  6  7  1  0
  7  8  1  6
  7  9  1  0
  9 10  1  0
 10 11  1  0
 11 12  1  0
  5 13  1  0
 13 14  2  0
 13  2  1  0
 12  7  1  0
  1 15  1  0
  1 16  1  0
  1 17  1  0
  3 18  1  0
  6 19  1  0
  6 20  1  0
  8 21  1  0
  9 22  1  0
  9 23  1  0
 10 24  1  0
 10 25  1  0
 12 26  1  0
 12 27  1  0
M  END
$$$$

     RDKit          3D

 27 28  0  0  0  0  0  0  0  0999 V2000
    3.6986   -0.3219    1.3146 C   0  0  0  0  0  0  0  0  0  0  0  0
    2.5982    0.1636    0.4727 N   0  0  0  0  0  0  0  0  0  0  0  0
    2.3282    1.4394    0.1452 C   0  0  0  0  0  0  0  0  0  0  0  0
    1.2374    1.4573   -0.6411 N   0  0  0  0  0  0  0  0  0  0  0  0
    0.7994    0.2156   -0.8264 N   0  0  0  0  0  0  0  0  0  0  0  0
   -0.3455   -0.2262   -1.6035 C   0  0  0  0  0  0  0  0  0  0  0  0
   -1.6087   -0.2905   -0.8146 C   0  0  2  0  0  0  0  0  0  0  0  0
   -2.6283   -0.7158   -1.6302 O   0  0  0  0  0  0  0  0  0  0  0  0
   -2.0093    1.0439   -0.2255 C   0  0  0  0  0  0  0  0  0  0  0  0
   -2.7656    0.6119    1.0152 C   0  0  0  0  0  0  0  0  0  0  0  0
   -2.7316   -0.7609    1.0646 O   0  0  0  0  0  0  0  0  0  0  0  0
   -1.5423   -1.1506    0.4036 C   0  0  0  0  0  0  0  0  0  0  0  0
    1.6468   -0.5676   -0.1352 C   0  0  0  0  0  0  0  0  0  0  0  0
    1.5741   -1.8218   -0.0565 O   0  0  0  0  0  0  0  0  0  0  0  0
    3.8110   -1.4130    1.1652 H   0  0  0  0  0  0  0  0  0  0  0  0
    4.6262    0.1847    0.9192 H   0  0  0  0  0  0  0  0  0  0  0  0
    3.5347   -0.0682    2.3665 H   0  0  0  0  0  0  0  0  0  0  0  0
    2.9072    2.2897    0.4728 H   0  0  0  0  0  0  0  0  0  0  0  0
   -0.1757   -1.2083   -2.0691 H   0  0  0  0  0  0  0  0  0  0  0  0
   -0.4991    0.4952   -2.4325 H   0  0  0  0  0  0  0  0  0  0  0  0
   -2.3421   -1.5434   -2.1143 H   0  0  0  0  0  0  0  0  0  0  0  0
   -2.6436    1.5581   -0.9610 H   0  0  0  0  0  0  0  0  0  0  0  0
   -1.1197    1.6546    0.0205 H   0  0  0  0  0  0  0  0  0  0  0  0
   -3.7947    1.0250    0.9220 H   0  0  0  0  0  0  0  0  0  0  0  0
   -2.2480    1.0181    1.9077 H   0  0  0  0  0  0  0  0  0  0  0  0
   -1.5843   -2.2241    0.2244 H   0  0  0  0  0  0  0  0  0  0  0  0
   -0.7234   -0.8449    1.0956 H   0  0  0  0  0  0  0  0  0  0  0  0
  1  2  1  0
  2  3  1  0
  3  4  2  0
  4  5  1  0
  5  6  1  0
  6  7  1  0
  7  8  1  6
  7  9  1  0
  9 10  1  0
 10 11  1  0
 11 12  1  0
  5 13  1  0
 13 14  2  0
 13  2  1  0
 12  7  1  0
  1 15  1  0
  1 16  1  0
  1 17  1  0
  3 18  1  0
  6 19  1  0
  6 20  1  0
  8 21  1  0
  9 22  1  0
  9 23  1  0
 10 24  1  0
 10 25  1  0
 12 26  1  0
 12 27  1  0
M  END
$$$$

     RDKit          3D

 27 28  0  0  0  0  0  0  0  0999 V2000
    4.1736   -0.8482    0.3623 C   0  0  0  0  0  0  0  0  0  0  0  0
    2.8855   -0.4551   -0.2188 N   0  0  0  0  0  0  0  0  0  0  0  0
    2.4010   -0.8153   -1.4313 C   0  0  0  0  0  0  0  0  0  0  0  0
    1.1885   -0.2423   -1.5810 N   0  0  0  0  0  0  0  0  0  0  0  0
    0.8909    0.4681   -0.5033 N   0  0  0  0  0  0  0  0  0  0  0  0
   -0.3281    1.2360   -0.2787 C   0  0  0  0  0  0  0  0  0  0  0  0
   -1.3927    0.3887    0.3856 C   0  0  2  0  0  0  0  0  0  0  0  0
   -0.9809   -0.0952    1.6137 O   0  0  0  0  0  0  0  0  0  0  0  0
   -1.8020   -0.7123   -0.5718 C   0  0  0  0  0  0  0  0  0  0  0  0
   -3.2134   -0.3067   -0.9421 C   0  0  0  0  0  0  0  0  0  0  0  0
   -3.1851    1.0738   -0.8169 O   0  0  0  0  0  0  0  0  0  0  0  0
   -2.6513    1.2191    0.4803 C   0  0  0  0  0  0  0  0  0  0  0  0
    1.9406    0.3288    0.3245 C   0  0  0  0  0  0  0  0  0  0  0  0
    2.0054    0.8725    1.4560 O   0  0  0  0  0  0  0  0  0  0  0  0
    4.0888   -0.7109    1.4619 H   0  0  0  0  0  0  0  0  0  0  0  0
    4.4632   -1.8661    0.0771 H   0  0  0  0  0  0  0  0  0  0  0  0
    4.9460   -0.1356   -0.0114 H   0  0  0  0  0  0  0  0  0  0  0  0
    2.9332   -1.4505   -2.1161 H   0  0  0  0  0  0  0  0  0  0  0  0
   -0.7408    1.5916   -1.2483 H   0  0  0  0  0  0  0  0  0  0  0  0
   -0.1279    2.1559    0.3192 H   0  0  0  0  0  0  0  0  0  0  0  0
   -1.3274   -1.0280    1.6887 H   0  0  0  0  0  0  0  0  0  0  0  0
   -1.8402   -1.6858   -0.0540 H   0  0  0  0  0  0  0  0  0  0  0  0
   -1.1364   -0.7433   -1.4692 H   0  0  0  0  0  0  0  0  0  0  0  0
   -3.8930   -0.6980   -0.1560 H   0  0  0  0  0  0  0  0  0  0  0  0
   -3.4838   -0.6540   -1.9557 H   0  0  0  0  0  0  0  0  0  0  0  0
   -3.3762    0.8154    1.2141 H   0  0  0  0  0  0  0  0  0  0  0  0
   -2.4375    2.2974    0.6290 H   0  0  0  0  0  0  0  0  0  0  0  0
  1  2  1  0
  2  3  1  0
  3  4  2  0
  4  5  1  0
  5  6  1  0
  6  7  1  0
  7  8  1  1
  7  9  1  0
  9 10  1  0
 10 11  1  0
 11 12  1  0
  5 13  1  0
 13 14  2  0
 13  2  1  0
 12  7  1  0
  1 15  1  0
  1 16  1  0
  1 17  1  0
  3 18  1  0
  6 19  1  0
  6 20  1  0
  8 21  1  0
  9 22  1  0
  9 23  1  0
 10 24  1  0
 10 25  1  0
 12 26  1  0
 12 27  1  0
M  END
$$$$
