
     RDKit          3D

 24 25  0  0  0  0  0  0  0  0999 V2000
    2.6207   -1.0309   -0.4979 C   0  0  0  0  0  0  0  0  0  0  0  0
    2.2836    0.3883   -0.4524 N   0  0  0  0  0  0  0  0  0  0  0  0
    2.9642    1.3490   -1.0873 N   0  0  0  0  0  0  0  0  0  0  0  0
    2.4165    2.5173   -0.8519 N   0  0  0  0  0  0  0  0  0  0  0  0
    1.3424    2.3081   -0.0352 C   0  0  0  0  0  0  0  0  0  0  0  0
    1.2701    0.9586    0.2093 C   0  0  0  0  0  0  0  0  0  0  0  0
    0.3407    0.3426    0.9777 O   0  0  0  0  0  0  0  0  0  0  0  0
   -0.8833   -0.1738    0.6122 C   0  0  0  0  0  0  0  0  0  0  0  0
   -1.6180   -0.7697    1.7284 C   0  0  0  0  0  0  0  0  0  0  0  0
   -1.1124   -0.7696    2.8753 O   0  0  0  0  0  0  0  0  0  0  0  0
   -2.8578   -1.3273    1.5197 O   0  0  0  0  0  0  0  0  0  0  0  0
   -0.9487   -0.9748   -0.6618 C   0  0  0  0  0  0  0  0  0  0  0  0
   -2.2928   -0.4130   -0.8657 N   0  0  0  0  0  0  0  0  0  0  0  0
   -1.7975    0.7780   -0.1671 C   0  0  0  0  0  0  0  0  0  0  0  0
    2.3039   -1.5548    0.4207 H   0  0  0  0  0  0  0  0  0  0  0  0
    3.7218   -1.1340   -0.5597 H   0  0  0  0  0  0  0  0  0  0  0  0
    2.2017   -1.4498   -1.4176 H   0  0  0  0  0  0  0  0  0  0  0  0
    0.7331    3.1358    0.2938 H   0  0  0  0  0  0  0  0  0  0  0  0
   -3.2066   -1.9791    2.2161 H   0  0  0  0  0  0  0  0  0  0  0  0
   -0.2894   -0.5835   -1.4521 H   0  0  0  0  0  0  0  0  0  0  0  0
   -0.9426   -2.0692   -0.5448 H   0  0  0  0  0  0  0  0  0  0  0  0
   -2.5135   -0.2532   -1.8745 H   0  0  0  0  0  0  0  0  0  0  0  0
   -1.1812    1.4195   -0.8304 H   0  0  0  0  0  0  0  0  0  0  0  0
   -2.5549    1.2857    0.4453 H   0  0  0  0  0  0  0  0  0  0  0  0
  1  2  1  0
  2  3  1  0
  3  4  2  0
  4  5  1  0
  5  6  2  0
  6  7  1  0
  7  8  1  0
  8  9  1  0
  9 10  2  0
  9 11  1  0
  8 12  1  0
 12 13  1  0
 13 14  1  0
  6  2  1  0
 14  8  1  0
  1 15  1  0
  1 16  1  0
  1 17  1  0
  5 18  1  0
 11 19  1  0
 12 20  1  0
 12 21  1  0
 13 22  1  0
 14 23  1  0
 14 24  1  0
M  END
$$$$

     RDKit          3D

 24 25  0  0  0  0  0  0  0  0999 V2000
    0.9460   -0.9716   -2.6896 C   0  0  0  0  0  0  0  0  0  0  0  0
    1.8033   -0.8814   -1.4922 N   0  0  0  0  0  0  0  0  0  0  0  0
    3.1238   -0.8350   -1.4870 N   0  0  0  0  0  0  0  0  0  0  0  0
    3.5897   -0.7739   -0.2580 N   0  0  0  0  0  0  0  0  0  0  0  0
    2.5626   -0.7784    0.5946 C   0  0  0  0  0  0  0  0  0  0  0  0
    1.4117   -0.8476   -0.2104 C   0  0  0  0  0  0  0  0  0  0  0  0
    0.1400   -0.8708    0.2939 O   0  0  0  0  0  0  0  0  0  0  0  0
   -0.7291    0.1226    0.6367 C   0  0  0  0  0  0  0  0  0  0  0  0
   -1.2142    1.1189   -0.2997 C   0  0  0  0  0  0  0  0  0  0  0  0
   -0.9573    1.2706   -1.5056 O   0  0  0  0  0  0  0  0  0  0  0  0
   -2.1195    2.0716    0.2236 O   0  0  0  0  0  0  0  0  0  0  0  0
   -1.9381   -0.3788    1.4624 C   0  0  0  0  0  0  0  0  0  0  0  0
   -1.8810    0.9040    2.1394 N   0  0  0  0  0  0  0  0  0  0  0  0
   -0.4351    0.8162    1.9815 C   0  0  0  0  0  0  0  0  0  0  0  0
   -0.0698   -1.2704   -2.3739 H   0  0  0  0  0  0  0  0  0  0  0  0
    0.8952   -0.0241   -3.2181 H   0  0  0  0  0  0  0  0  0  0  0  0
    1.3804   -1.7433   -3.3760 H   0  0  0  0  0  0  0  0  0  0  0  0
    2.5739   -0.7382    1.6900 H   0  0  0  0  0  0  0  0  0  0  0  0
   -2.4875    2.8180   -0.3334 H   0  0  0  0  0  0  0  0  0  0  0  0
   -1.5937   -1.2448    2.0485 H   0  0  0  0  0  0  0  0  0  0  0  0
   -2.8394   -0.5403    0.8392 H   0  0  0  0  0  0  0  0  0  0  0  0
   -2.2149    0.8653    3.1250 H   0  0  0  0  0  0  0  0  0  0  0  0
    0.0702    1.7659    1.7909 H   0  0  0  0  0  0  0  0  0  0  0  0
   -0.0171    0.1457    2.7362 H   0  0  0  0  0  0  0  0  0  0  0  0
  1  2  1  0
  2  3  1  0
  3  4  2  0
  4  5  1  0
  5  6  2  0
  6  7  1  0
  7  8  1  0
  8  9  1  0
  9 10  2  0
  9 11  1  0
  8 12  1  0
 12 13  1  0
 13 14  1  0
  6  2  1  0
 14  8  1  0
  1 15  1  0
  1 16  1  0
  1 17  1  0
  5 18  1  0
 11 19  1  0
 12 20  1  0
 12 21  1  0
 13 22  1  0
 14 23  1  0
 14 24  1  0
M  END
$$$$

     RDKit          3D

 24 25  0  0  0  0  0  0  0  0999 V2000
    2.7790    1.7018    0.2460 C   0  0  0  0  0  0  0  0  0  0  0  0
    2.4840    0.2659    0.1357 N   0  0  0  0  0  0  0  0  0  0  0  0
    3.3465   -0.7233    0.0848 N   0  0  0  0  0  0  0  0  0  0  0  0
    2.7102   -1.8836   -0.0137 N   0  0  0  0  0  0  0  0  0  0  0  0
    1.3789   -1.6551   -0.0286 C   0  0  0  0  0  0  0  0  0  0  0  0
    1.2533   -0.2855    0.0670 C   0  0  0  0  0  0  0  0  0  0  0  0
    0.0954    0.4307    0.0913 O   0  0  0  0  0  0  0  0  0  0  0  0
   -1.1996   -0.0655    0.0252 C   0  0  0  0  0  0  0  0  0  0  0  0
   -1.6254   -0.9932    1.0760 C   0  0  0  0  0  0  0  0  0  0  0  0
   -2.7678   -1.4764    1.0813 O   0  0  0  0  0  0  0  0  0  0  0  0
   -0.7456   -1.3427    2.0841 O   0  0  0  0  0  0  0  0  0  0  0  0
   -1.5510   -0.4686   -1.3883 C   0  0  0  0  0  0  0  0  0  0  0  0
   -2.3442    0.7430   -1.5746 N   0  0  0  0  0  0  0  0  0  0  0  0
   -2.2034    1.0677   -0.1773 C   0  0  0  0  0  0  0  0  0  0  0  0
    3.8219    1.8291    0.5250 H   0  0  0  0  0  0  0  0  0  0  0  0
    2.6076    2.2020   -0.7448 H   0  0  0  0  0  0  0  0  0  0  0  0
    2.0498    2.1378    0.9421 H   0  0  0  0  0  0  0  0  0  0  0  0
    0.6207   -2.4160   -0.1011 H   0  0  0  0  0  0  0  0  0  0  0  0
   -1.0626   -1.7158    2.9891 H   0  0  0  0  0  0  0  0  0  0  0  0
   -0.7077   -0.4900   -2.1039 H   0  0  0  0  0  0  0  0  0  0  0  0
   -2.2037   -1.3553   -1.4702 H   0  0  0  0  0  0  0  0  0  0  0  0
   -1.8612    1.4766   -2.1578 H   0  0  0  0  0  0  0  0  0  0  0  0
   -1.7472    2.0831    0.0159 H   0  0  0  0  0  0  0  0  0  0  0  0
   -3.1281    0.9333    0.3970 H   0  0  0  0  0  0  0  0  0  0  0  0
  1  2  1  0
  2  3  1  0
  3  4  2  0
  4  5  1  0
  5  6  2  0
  6  7  1  0
  7  8  1  0
  8  9  1  0
  9 10  2  0
  9 11  1  0
  8 12  1  0
 12 13  1  0
 13 14  1  0
  6  2  1  0
 14  8  1  0
  1 15  1  0
  1 16  1  0
  1 17  1  0
  5 18  1  0
 11 19  1  0
 12 20  1  0
 12 21  1  0
 13 22  1  0
 14 23  1  0
 14 24  1  0
M  END
$$$$

     RDKit          3D

 24 25  0  0  0  0  0  0  0  0999 V2000
    3.2598    0.0609   -0.7385 C   0  0  0  0  0  0  0  0  0  0  0  0
    2.5153    0.3519    0.4876 N   0  0  0  0  0  0  0  0  0  0  0  0
    3.0902    0.7251    1.6062 N   0  0  0  0  0  0  0  0  0  0  0  0
    2.1222    0.8957    2.4829 N   0  0  0  0  0  0  0  0  0  0  0  0
    0.9320    0.6348    1.9346 C   0  0  0  0  0  0  0  0  0  0  0  0
    1.1791    0.2778    0.6281 C   0  0  0  0  0  0  0  0  0  0  0  0
    0.3225   -0.0871   -0.3784 O   0  0  0  0  0  0  0  0  0  0  0  0
   -1.0532   -0.1886   -0.3206 C   0  0  0  0  0  0  0  0  0  0  0  0
   -1.8307    0.9996    0.0158 C   0  0  0  0  0  0  0  0  0  0  0  0
   -3.0847    0.9105    0.0694 O   0  0  0  0  0  0  0  0  0  0  0  0
   -1.2655    2.2349    0.2831 O   0  0  0  0  0  0  0  0  0  0  0  0
   -1.5188   -1.4579    0.3476 C   0  0  0  0  0  0  0  0  0  0  0  0
   -2.3755   -1.7601   -0.7784 N   0  0  0  0  0  0  0  0  0  0  0  0
   -1.5905   -0.8511   -1.5923 C   0  0  0  0  0  0  0  0  0  0  0  0
    3.1662    0.8919   -1.4357 H   0  0  0  0  0  0  0  0  0  0  0  0
    4.3036   -0.1545   -0.5153 H   0  0  0  0  0  0  0  0  0  0  0  0
    2.7933   -0.8421   -1.2093 H   0  0  0  0  0  0  0  0  0  0  0  0
   -0.0256    0.6834    2.3868 H   0  0  0  0  0  0  0  0  0  0  0  0
   -1.7240    3.0940   -0.0552 H   0  0  0  0  0  0  0  0  0  0  0  0
   -0.7432   -2.1974    0.5750 H   0  0  0  0  0  0  0  0  0  0  0  0
   -2.0979   -1.2016    1.2576 H   0  0  0  0  0  0  0  0  0  0  0  0
   -3.3766   -1.4648   -0.6315 H   0  0  0  0  0  0  0  0  0  0  0  0
   -2.1696   -0.1751   -2.2347 H   0  0  0  0  0  0  0  0  0  0  0  0
   -0.8284   -1.3802   -2.1850 H   0  0  0  0  0  0  0  0  0  0  0  0
  1  2  1  0
  2  3  1  0
  3  4  2  0
  4  5  1  0
  5  6  2  0
  6  7  1  0
  7  8  1  0
  8  9  1  0
  9 10  2  0
  9 11  1  0
  8 12  1  0
 12 13  1  0
 13 14  1  0
  6  2  1  0
 14  8  1  0
  1 15  1  0
  1 16  1  0
  1 17  1  0
  5 18  1  0
 11 19  1  0
 12 20  1  0
 12 21  1  0
 13 22  1  0
 14 23  1  0
 14 24  1  0
M  END
$$$$

     RDKit          3D

 24 25  0  0  0  0  0  0  0  0999 V2000
    2.9445   -1.2132    0.4907 C   0  0  0  0  0  0  0  0  0  0  0  0
    2.5473    0.1603    0.1455 N   0  0  0  0  0  0  0  0  0  0  0  0
    3.4141    1.1392    0.0035 N   0  0  0  0  0  0  0  0  0  0  0  0
    2.7404    2.2317   -0.3033 N   0  0  0  0  0  0  0  0  0  0  0  0
    1.4236    1.9499   -0.3590 C   0  0  0  0  0  0  0  0  0  0  0  0
    1.2738    0.6165   -0.0723 C   0  0  0  0  0  0  0  0  0  0  0  0
    0.2300   -0.2068    0.0185 O   0  0  0  0  0  0  0  0  0  0  0  0
   -1.1029   -0.2218   -0.0975 C   0  0  0  0  0  0  0  0  0  0  0  0
   -1.6747   -1.5874    0.1548 C   0  0  0  0  0  0  0  0  0  0  0  0
   -2.9024   -1.8143    0.0954 O   0  0  0  0  0  0  0  0  0  0  0  0
   -0.7821   -2.5985    0.4594 O   0  0  0  0  0  0  0  0  0  0  0  0
   -1.7715    0.5020   -1.2385 C   0  0  0  0  0  0  0  0  0  0  0  0
   -1.9941    1.6273   -0.3658 N   0  0  0  0  0  0  0  0  0  0  0  0
   -1.9124    0.7541    0.7590 C   0  0  0  0  0  0  0  0  0  0  0  0
    3.9732   -1.3945    0.1307 H   0  0  0  0  0  0  0  0  0  0  0  0
    2.8211   -1.4227    1.5582 H   0  0  0  0  0  0  0  0  0  0  0  0
    2.2897   -1.9301   -0.0792 H   0  0  0  0  0  0  0  0  0  0  0  0
    0.5953    2.6022   -0.5810 H   0  0  0  0  0  0  0  0  0  0  0  0
   -1.0723   -3.5477    0.6686 H   0  0  0  0  0  0  0  0  0  0  0  0
   -1.1360    0.6711   -2.1092 H   0  0  0  0  0  0  0  0  0  0  0  0
   -2.7660    0.0098   -1.4499 H   0  0  0  0  0  0  0  0  0  0  0  0
   -2.8600    2.1572   -0.4813 H   0  0  0  0  0  0  0  0  0  0  0  0
   -2.9260    0.3819    1.0136 H   0  0  0  0  0  0  0  0  0  0  0  0
   -1.3527    1.1340    1.6391 H   0  0  0  0  0  0  0  0  0  0  0  0
  1  2  1  0
  2  3  1  0
  3  4  2  0
  4  5  1  0
  5  6  2  0
  6  7  1  0
  7  8  1  0
  8  9  1  0
  9 10  2  0
  9 11  1  0
  8 12  1  0
 12 13  1  0
 13 14  1  0
  6  2  1  0
 14  8  1  0
  1 15  1  0
  1 16  1  0
  1 17  1  0
  5 18  1  0
 11 19  1  0
 12 20  1  0
 12 21  1  0
 13 22  1  0
 14 23  1  0
 14 24  1  0
M  END
$$$$

     RDKit          3D

 24 25  0  0  0  0  0  0  0  0999 V2000
    2.4615    0.2904    1.2980 C   0  0  0  0  0  0  0  0  0  0  0  0
    2.3034    0.0841   -0.1282 N   0  0  0  0  0  0  0  0  0  0  0  0
    3.2170   -0.4073   -0.9785 N   0  0  0  0  0  0  0  0  0  0  0  0
    2.7061   -0.4450   -2.1905 N   0  0  0  0  0  0  0  0  0  0  0  0
    1.4298    0.0370   -2.1066 C   0  0  0  0  0  0  0  0  0  0  0  0
    1.1761    0.3725   -0.7953 C   0  0  0  0  0  0  0  0  0  0  0  0
    0.0075    0.8864   -0.3269 O   0  0  0  0  0  0  0  0  0  0  0  0
   -1.1020    0.2395    0.1565 C   0  0  0  0  0  0  0  0  0  0  0  0
   -2.1728    1.1562    0.5703 C   0  0  0  0  0  0  0  0  0  0  0  0
   -3.2656    0.7417    1.0388 O   0  0  0  0  0  0  0  0  0  0  0  0
   -1.9596    2.5186    0.4351 O   0  0  0  0  0  0  0  0  0  0  0  0
   -1.6376   -0.7451   -0.8925 C   0  0  0  0  0  0  0  0  0  0  0  0
   -1.8244   -1.7261    0.1521 N   0  0  0  0  0  0  0  0  0  0  0  0
   -0.9055   -0.9746    1.0114 C   0  0  0  0  0  0  0  0  0  0  0  0
    3.5057    0.5754    1.5377 H   0  0  0  0  0  0  0  0  0  0  0  0
    1.7644    1.0610    1.6532 H   0  0  0  0  0  0  0  0  0  0  0  0
    2.2950   -0.7084    1.7850 H   0  0  0  0  0  0  0  0  0  0  0  0
    0.7427    0.1342   -2.9392 H   0  0  0  0  0  0  0  0  0  0  0  0
   -2.6353    3.2077    0.7588 H   0  0  0  0  0  0  0  0  0  0  0  0
   -0.8963   -1.0417   -1.6416 H   0  0  0  0  0  0  0  0  0  0  0  0
   -2.5592   -0.3942   -1.3946 H   0  0  0  0  0  0  0  0  0  0  0  0
   -1.3614   -2.6286   -0.0994 H   0  0  0  0  0  0  0  0  0  0  0  0
    0.0976   -1.3836    1.0959 H   0  0  0  0  0  0  0  0  0  0  0  0
   -1.3869   -0.8502    2.0007 H   0  0  0  0  0  0  0  0  0  0  0  0
  1  2  1  0
  2  3  1  0
  3  4  2  0
  4  5  1  0
  5  6  2  0
  6  7  1  0
  7  8  1  0
  8  9  1  0
  9 10  2  0
  9 11  1  0
  8 12  1  0
 12 13  1  0
 13 14  1  0
  6  2  1  0
 14  8  1  0
  1 15  1  0
  1 16  1  0
  1 17  1  0
  5 18  1  0
 11 19  1  0
 12 20  1  0
 12 21  1  0
 13 22  1  0
 14 23  1  0
 14 24  1  0
M  END
$$$$

     RDKit          3D

 24 25  0  0  0  0  0  0  0  0999 V2000
    2.9231    0.1855    1.4569 C   0  0  0  0  0  0  0  0  0  0  0  0
    2.5066    0.1819    0.0609 N   0  0  0  0  0  0  0  0  0  0  0  0
    3.3485    0.2506   -0.9460 N   0  0  0  0  0  0  0  0  0  0  0  0
    2.7035    0.2290   -2.1094 N   0  0  0  0  0  0  0  0  0  0  0  0
    1.3980    0.1426   -1.7955 C   0  0  0  0  0  0  0  0  0  0  0  0
    1.2534    0.1116   -0.4217 C   0  0  0  0  0  0  0  0  0  0  0  0
    0.1463    0.0303    0.3457 O   0  0  0  0  0  0  0  0  0  0  0  0
   -1.1810   -0.0467   -0.0101 C   0  0  0  0  0  0  0  0  0  0  0  0
   -1.6840    1.1013   -0.8025 C   0  0  0  0  0  0  0  0  0  0  0  0
   -2.8575    1.1970   -1.2084 O   0  0  0  0  0  0  0  0  0  0  0  0
   -0.8038    2.1141   -1.1038 O   0  0  0  0  0  0  0  0  0  0  0  0
   -1.7351   -1.3902   -0.3819 C   0  0  0  0  0  0  0  0  0  0  0  0
   -1.6591   -1.7178    1.0523 N   0  0  0  0  0  0  0  0  0  0  0  0
   -2.0018   -0.3006    1.2624 C   0  0  0  0  0  0  0  0  0  0  0  0
    3.3066    1.1842    1.7427 H   0  0  0  0  0  0  0  0  0  0  0  0
    3.7006   -0.5975    1.5935 H   0  0  0  0  0  0  0  0  0  0  0  0
    2.0365   -0.0948    2.0613 H   0  0  0  0  0  0  0  0  0  0  0  0
    0.6133    0.1056   -2.5334 H   0  0  0  0  0  0  0  0  0  0  0  0
   -1.1098    3.0583   -1.2957 H   0  0  0  0  0  0  0  0  0  0  0  0
   -1.1254   -2.0234   -1.0245 H   0  0  0  0  0  0  0  0  0  0  0  0
   -2.8096   -1.3132   -0.6488 H   0  0  0  0  0  0  0  0  0  0  0  0
   -2.3538   -2.3887    1.3844 H   0  0  0  0  0  0  0  0  0  0  0  0
   -1.5365    0.0858    2.1830 H   0  0  0  0  0  0  0  0  0  0  0  0
   -3.0791   -0.1047    1.1386 H   0  0  0  0  0  0  0  0  0  0  0  0
  1  2  1  0
  2  3  1  0
  3  4  2  0
  4  5  1  0
  5  6  2  0
  6  7  1  0
  7  8  1  0
  8  9  1  0
  9 10  2  0
  9 11  1  0
  8 12  1  0
 12 13  1  0
 13 14  1  0
  6  2  1  0
 14  8  1  0
  1 15  1  0
  1 16  1  0
  1 17  1  0
  5 18  1  0
 11 19  1  0
 12 20  1  0
 12 21  1  0
 13 22  1  0
 14 23  1  0
 14 24  1  0
M  END
$$$$

     RDKit          3D

 24 25  0  0  0  0  0  0  0  0999 V2000
    2.6639    1.1273    1.5848 C   0  0  0  0  0  0  0  0  0  0  0  0
    2.4253    0.1559    0.5192 N   0  0  0  0  0  0  0  0  0  0  0  0
    3.3785   -0.5296   -0.0774 N   0  0  0  0  0  0  0  0  0  0  0  0
    2.8725   -1.3269   -0.9949 N   0  0  0  0  0  0  0  0  0  0  0  0
    1.5446   -1.1320   -0.9717 C   0  0  0  0  0  0  0  0  0  0  0  0
    1.2442   -0.1970   -0.0194 C   0  0  0  0  0  0  0  0  0  0  0  0
    0.0178    0.3089    0.3484 O   0  0  0  0  0  0  0  0  0  0  0  0
   -1.2088   -0.0391   -0.1914 C   0  0  0  0  0  0  0  0  0  0  0  0
   -1.5632   -1.4663   -0.0558 C   0  0  0  0  0  0  0  0  0  0  0  0
   -2.6259   -1.9468   -0.4841 O   0  0  0  0  0  0  0  0  0  0  0  0
   -0.6657   -2.3146    0.5816 O   0  0  0  0  0  0  0  0  0  0  0  0
   -2.3164    0.8198    0.4286 C   0  0  0  0  0  0  0  0  0  0  0  0
   -2.2760    1.6267   -0.7545 N   0  0  0  0  0  0  0  0  0  0  0  0
   -1.5823    0.5961   -1.5041 C   0  0  0  0  0  0  0  0  0  0  0  0
    2.9238    2.1181    1.1477 H   0  0  0  0  0  0  0  0  0  0  0  0
    1.7300    1.2115    2.1716 H   0  0  0  0  0  0  0  0  0  0  0  0
    3.4827    0.8242    2.2549 H   0  0  0  0  0  0  0  0  0  0  0  0
    0.8578   -1.6526   -1.6200 H   0  0  0  0  0  0  0  0  0  0  0  0
   -0.8536   -3.3171    0.5608 H   0  0  0  0  0  0  0  0  0  0  0  0
   -3.2678    0.2667    0.5839 H   0  0  0  0  0  0  0  0  0  0  0  0
   -1.9988    1.3423    1.3610 H   0  0  0  0  0  0  0  0  0  0  0  0
   -1.7318    2.5065   -0.6392 H   0  0  0  0  0  0  0  0  0  0  0  0
   -0.7644    0.9890   -2.1061 H   0  0  0  0  0  0  0  0  0  0  0  0
   -2.2863    0.0291   -2.1241 H   0  0  0  0  0  0  0  0  0  0  0  0
  1  2  1  0
  2  3  1  0
  3  4  2  0
  4  5  1  0
  5  6  2  0
  6  7  1  0
  7  8  1  0
  8  9  1  0
  9 10  2  0
  9 11  1  0
  8 12  1  0
 12 13  1  0
 13 14  1  0
  6  2  1  0
 14  8  1  0
  1 15  1  0
  1 16  1  0
  1 17  1  0
  5 18  1  0
 11 19  1  0
 12 20  1  0
 12 21  1  0
 13 22  1  0
 14 23  1  0
 14 24  1  0
M  END
$$$$
