
     RDKit          3D

 31 32  0  0  0  0  0  0  0  0999 V2000
   -2.8367   -1.3226   -0.8135 N   0  0  0  0  0  0  0  0  0  0  0  0
   -2.4083   -0.8396    0.4947 C   0  0  2  0  0  0  0  0  0  0  0  0
   -2.4800    0.6864    0.3925 C   0  0  0  0  0  0  0  0  0  0  0  0
   -1.8204    1.0216   -0.9397 C   0  0  1  0  0  0  0  0  0  0  0  0
   -1.8018    2.4044   -1.0924 O   0  0  0  0  0  0  0  0  0  0  0  0
   -0.4124    0.4530   -0.9284 C   0  0  0  0  0  0  0  0  0  0  0  0
   -0.0858   -0.0402    0.3867 N   0  0  0  0  0  0  0  0  0  0  0  0
    1.2664   -0.4836    0.4904 C   0  0  0  0  0  0  0  0  0  0  0  0
    2.3001    0.6077    0.4058 C   0  0  1  0  0  0  0  0  0  0  0  0
    3.7282    0.0579    0.5331 C   0  0  0  0  0  0  0  0  0  0  0  0
    3.5190   -0.2274   -0.9045 C   0  0  0  0  0  0  0  0  0  0  0  0
    3.8405   -1.0525   -1.7628 O   0  0  0  0  0  0  0  0  0  0  0  0
    2.7118    0.9395   -0.9463 N   0  0  0  0  0  0  0  0  0  0  0  0
   -0.9402   -1.1854    0.6357 C   0  0  0  0  0  0  0  0  0  0  0  0
   -2.6200   -2.3084   -0.9856 H   0  0  0  0  0  0  0  0  0  0  0  0
   -3.7834   -1.0155   -1.0681 H   0  0  0  0  0  0  0  0  0  0  0  0
   -3.0252   -1.2188    1.3146 H   0  0  0  0  0  0  0  0  0  0  0  0
   -1.9282    1.1591    1.2372 H   0  0  0  0  0  0  0  0  0  0  0  0
   -3.5154    1.0350    0.3512 H   0  0  0  0  0  0  0  0  0  0  0  0
   -2.4196    0.5075   -1.7198 H   0  0  0  0  0  0  0  0  0  0  0  0
   -1.6607    2.6257   -2.0327 H   0  0  0  0  0  0  0  0  0  0  0  0
    0.2570    1.2414   -1.2905 H   0  0  0  0  0  0  0  0  0  0  0  0
   -0.3324   -0.4099   -1.6444 H   0  0  0  0  0  0  0  0  0  0  0  0
    1.3819   -0.9638    1.5072 H   0  0  0  0  0  0  0  0  0  0  0  0
    1.4356   -1.2606   -0.3004 H   0  0  0  0  0  0  0  0  0  0  0  0
    2.1475    1.4363    1.0954 H   0  0  0  0  0  0  0  0  0  0  0  0
    4.4447    0.8910    0.6805 H   0  0  0  0  0  0  0  0  0  0  0  0
    3.8278   -0.8160    1.1756 H   0  0  0  0  0  0  0  0  0  0  0  0
    2.5680    1.6416   -1.6838 H   0  0  0  0  0  0  0  0  0  0  0  0
   -0.6318   -1.9686   -0.1107 H   0  0  0  0  0  0  0  0  0  0  0  0
   -0.7262   -1.5950    1.6493 H   0  0  0  0  0  0  0  0  0  0  0  0
  1  2  1  0
  2  3  1  0
  3  4  1  0
  4  5  1  0
  4  6  1  0
  6  7  1  0
  7  8  1  0
  8  9  1  0
  9 10  1  0
 10 11  1  0
 11 12  2  0
 11 13  1  0
  7 14  1  0
 14  2  1  0
 13  9  1  0
  1 15  1  0
  1 16  1  0
  2 17  1  1
  3 18  1  0
  3 19  1  0
  4 20  1  6
  5 21  1  0
  6 22  1  0
  6 23  1  0
  8 24  1  0
  8 25  1  0
  9 26  1  1
 10 27  1  0
 10 28  1  0
 13 29  1  0
 14 30  1  0
 14 31  1  0
M  END
$$$$

     RDKit          3D

 31 32  0  0  0  0  0  0  0  0999 V2000
   -1.4675    0.3361   -2.4982 N   0  0  0  0  0  0  0  0  0  0  0  0
   -1.3146    0.0658   -1.1047 C   0  0  2  0  0  0  0  0  0  0  0  0
   -2.6832    0.1663   -0.4169 C   0  0  0  0  0  0  0  0  0  0  0  0
   -2.4886   -0.4000    0.9673 C   0  0  1  0  0  0  0  0  0  0  0  0
   -2.3863   -1.7921    0.8089 O   0  0  0  0  0  0  0  0  0  0  0  0
   -1.3083    0.1400    1.6896 C   0  0  0  0  0  0  0  0  0  0  0  0
   -0.2433    0.6467    0.9365 N   0  0  0  0  0  0  0  0  0  0  0  0
    0.9957   -0.0596    1.1200 C   0  0  0  0  0  0  0  0  0  0  0  0
    2.1408    0.4432    0.3110 C   0  0  1  0  0  0  0  0  0  0  0  0
    3.4062   -0.3807    0.5997 C   0  0  0  0  0  0  0  0  0  0  0  0
    3.6257   -0.1806   -0.8579 C   0  0  0  0  0  0  0  0  0  0  0  0
    4.5435   -0.0447   -1.6977 O   0  0  0  0  0  0  0  0  0  0  0  0
    2.2128   -0.1986   -0.9974 N   0  0  0  0  0  0  0  0  0  0  0  0
   -0.4680    1.0836   -0.3738 C   0  0  0  0  0  0  0  0  0  0  0  0
   -1.7611   -0.5306   -2.9940 H   0  0  0  0  0  0  0  0  0  0  0  0
   -0.6329    0.7876   -2.9349 H   0  0  0  0  0  0  0  0  0  0  0  0
   -0.8740   -0.9368   -0.8830 H   0  0  0  0  0  0  0  0  0  0  0  0
   -2.9729    1.2488   -0.3866 H   0  0  0  0  0  0  0  0  0  0  0  0
   -3.4187   -0.4053   -0.9819 H   0  0  0  0  0  0  0  0  0  0  0  0
   -3.4413   -0.2352    1.5146 H   0  0  0  0  0  0  0  0  0  0  0  0
   -1.4231   -2.0157    0.7662 H   0  0  0  0  0  0  0  0  0  0  0  0
   -0.9173   -0.6907    2.3463 H   0  0  0  0  0  0  0  0  0  0  0  0
   -1.6574    0.9182    2.4037 H   0  0  0  0  0  0  0  0  0  0  0  0
    0.7976   -1.1417    0.9806 H   0  0  0  0  0  0  0  0  0  0  0  0
    1.2542    0.0508    2.2130 H   0  0  0  0  0  0  0  0  0  0  0  0
    2.2768    1.5221    0.3278 H   0  0  0  0  0  0  0  0  0  0  0  0
    3.1506   -1.4057    0.8986 H   0  0  0  0  0  0  0  0  0  0  0  0
    4.1065    0.1734    1.2577 H   0  0  0  0  0  0  0  0  0  0  0  0
    1.6016   -0.5494   -1.7580 H   0  0  0  0  0  0  0  0  0  0  0  0
    0.4412    1.3597   -0.9120 H   0  0  0  0  0  0  0  0  0  0  0  0
   -1.0945    2.0250   -0.3625 H   0  0  0  0  0  0  0  0  0  0  0  0
  1  2  1  0
  2  3  1  0
  3  4  1  0
  4  5  1  0
  4  6  1  0
  6  7  1  0
  7  8  1  0
  8  9  1  0
  9 10  1  0
 10 11  1  0
 11 12  2  0
 11 13  1  0
  7 14  1  0
 14  2  1  0
 13  9  1  0
  1 15  1  0
  1 16  1  0
  2 17  1  6
  3 18  1  0
  3 19  1  0
  4 20  1  1
  5 21  1  0
  6 22  1  0
  6 23  1  0
  8 24  1  0
  8 25  1  0
  9 26  1  6
 10 27  1  0
 10 28  1  0
 13 29  1  0
 14 30  1  0
 14 31  1  0
M  END
$$$$

     RDKit          3D

 31 32  0  0  0  0  0  0  0  0999 V2000
   -1.9966    0.9091    2.3696 N   0  0  0  0  0  0  0  0  0  0  0  0
   -1.6893    0.6620    0.9855 C   0  0  2  0  0  0  0  0  0  0  0  0
   -2.7827   -0.1409    0.3649 C   0  0  0  0  0  0  0  0  0  0  0  0
   -2.4717   -0.7175   -0.9602 C   0  0  1  0  0  0  0  0  0  0  0  0
   -3.1760    0.0576   -1.9133 O   0  0  0  0  0  0  0  0  0  0  0  0
   -1.0617   -0.8889   -1.3261 C   0  0  0  0  0  0  0  0  0  0  0  0
   -0.1132   -0.0182   -0.6264 N   0  0  0  0  0  0  0  0  0  0  0  0
    1.2053   -0.5731   -0.8477 C   0  0  0  0  0  0  0  0  0  0  0  0
    2.3547    0.2941   -0.5990 C   0  0  1  0  0  0  0  0  0  0  0  0
    2.6610    0.8970    0.7335 C   0  0  0  0  0  0  0  0  0  0  0  0
    4.0764    0.7458    0.2061 C   0  0  0  0  0  0  0  0  0  0  0  0
    5.1785    1.3046    0.2159 O   0  0  0  0  0  0  0  0  0  0  0  0
    3.5937   -0.4515   -0.3875 N   0  0  0  0  0  0  0  0  0  0  0  0
   -0.4152   -0.1663    0.8135 C   0  0  0  0  0  0  0  0  0  0  0  0
   -2.4020    1.8392    2.5333 H   0  0  0  0  0  0  0  0  0  0  0  0
   -1.3212    0.5691    3.0561 H   0  0  0  0  0  0  0  0  0  0  0  0
   -1.5607    1.6407    0.4512 H   0  0  0  0  0  0  0  0  0  0  0  0
   -3.6962    0.5236    0.3325 H   0  0  0  0  0  0  0  0  0  0  0  0
   -3.0760   -0.9302    1.1185 H   0  0  0  0  0  0  0  0  0  0  0  0
   -2.9856   -1.7206   -1.0197 H   0  0  0  0  0  0  0  0  0  0  0  0
   -2.5444    0.3345   -2.5965 H   0  0  0  0  0  0  0  0  0  0  0  0
   -0.9533   -0.6091   -2.4190 H   0  0  0  0  0  0  0  0  0  0  0  0
   -0.6644   -1.9172   -1.2451 H   0  0  0  0  0  0  0  0  0  0  0  0
    1.2534   -0.9090   -1.9229 H   0  0  0  0  0  0  0  0  0  0  0  0
    1.3104   -1.4972   -0.2296 H   0  0  0  0  0  0  0  0  0  0  0  0
    2.5514    1.0614   -1.4148 H   0  0  0  0  0  0  0  0  0  0  0  0
    2.5870    0.2360    1.6129 H   0  0  0  0  0  0  0  0  0  0  0  0
    2.4088    1.9537    0.8652 H   0  0  0  0  0  0  0  0  0  0  0  0
    4.0457   -1.3697   -0.5300 H   0  0  0  0  0  0  0  0  0  0  0  0
   -0.6871   -1.2580    0.9148 H   0  0  0  0  0  0  0  0  0  0  0  0
    0.3711    0.1390    1.4643 H   0  0  0  0  0  0  0  0  0  0  0  0
  1  2  1  0
  2  3  1  0
  3  4  1  0
  4  5  1  0
  4  6  1  0
  6  7  1  0
  7  8  1  0
  8  9  1  0
  9 10  1  0
 10 11  1  0
 11 12  2  0
 11 13  1  0
  7 14  1  0
 14  2  1  0
 13  9  1  0
  1 15  1  0
  1 16  1  0
  2 17  1  6
  3 18  1  0
  3 19  1  0
  4 20  1  1
  5 21  1  0
  6 22  1  0
  6 23  1  0
  8 24  1  0
  8 25  1  0
  9 26  1  6
 10 27  1  0
 10 28  1  0
 13 29  1  0
 14 30  1  0
 14 31  1  0
M  END
$$$$

     RDKit          3D

 31 32  0  0  0  0  0  0  0  0999 V2000
   -1.4920    2.7372    0.5101 N   0  0  0  0  0  0  0  0  0  0  0  0
   -1.3129    1.3972    0.0540 C   0  0  2  0  0  0  0  0  0  0  0  0
   -2.5988    0.6402   -0.1812 C   0  0  0  0  0  0  0  0  0  0  0  0
   -2.4010   -0.8497   -0.1577 C   0  0  1  0  0  0  0  0  0  0  0  0
   -3.2194   -1.4293   -1.1195 O   0  0  0  0  0  0  0  0  0  0  0  0
   -0.9679   -1.2442   -0.4533 C   0  0  0  0  0  0  0  0  0  0  0  0
   -0.0795   -0.6064    0.4299 N   0  0  0  0  0  0  0  0  0  0  0  0
    1.2100   -1.0928    0.6066 C   0  0  0  0  0  0  0  0  0  0  0  0
    2.1802   -0.9783   -0.5271 C   0  0  1  0  0  0  0  0  0  0  0  0
    2.4569    0.4400   -0.9750 C   0  0  0  0  0  0  0  0  0  0  0  0
    3.3845    0.4367    0.1798 C   0  0  0  0  0  0  0  0  0  0  0  0
    3.8863    1.2191    1.0186 O   0  0  0  0  0  0  0  0  0  0  0  0
    3.5345   -0.9559   -0.0146 N   0  0  0  0  0  0  0  0  0  0  0  0
   -0.4889    0.5887    1.0428 C   0  0  0  0  0  0  0  0  0  0  0  0
   -0.7158    2.9197    1.2160 H   0  0  0  0  0  0  0  0  0  0  0  0
   -2.4269    2.9379    0.9405 H   0  0  0  0  0  0  0  0  0  0  0  0
   -0.7642    1.4166   -0.9022 H   0  0  0  0  0  0  0  0  0  0  0  0
   -3.3245    0.9558    0.5936 H   0  0  0  0  0  0  0  0  0  0  0  0
   -2.9742    0.9594   -1.1902 H   0  0  0  0  0  0  0  0  0  0  0  0
   -2.7051   -1.2926    0.8294 H   0  0  0  0  0  0  0  0  0  0  0  0
   -2.6877   -1.7967   -1.8633 H   0  0  0  0  0  0  0  0  0  0  0  0
   -0.9312   -2.3507   -0.2144 H   0  0  0  0  0  0  0  0  0  0  0  0
   -0.7060   -1.1475   -1.5064 H   0  0  0  0  0  0  0  0  0  0  0  0
    1.6571   -0.6106    1.5106 H   0  0  0  0  0  0  0  0  0  0  0  0
    1.1312   -2.1799    0.9127 H   0  0  0  0  0  0  0  0  0  0  0  0
    2.0248   -1.6824   -1.3730 H   0  0  0  0  0  0  0  0  0  0  0  0
    3.0351    0.4797   -1.9227 H   0  0  0  0  0  0  0  0  0  0  0  0
    1.6152    1.1557   -0.8987 H   0  0  0  0  0  0  0  0  0  0  0  0
    4.3273   -1.6035    0.1691 H   0  0  0  0  0  0  0  0  0  0  0  0
    0.4397    1.1723    1.3182 H   0  0  0  0  0  0  0  0  0  0  0  0
   -1.0871    0.3639    1.9675 H   0  0  0  0  0  0  0  0  0  0  0  0
  1  2  1  0
  2  3  1  0
  3  4  1  0
  4  5  1  0
  4  6  1  0
  6  7  1  0
  7  8  1  0
  8  9  1  0
  9 10  1  0
 10 11  1  0
 11 12  2  0
 11 13  1  0
  7 14  1  0
 14  2  1  0
 13  9  1  0
  1 15  1  0
  1 16  1  0
  2 17  1  6
  3 18  1  0
  3 19  1  0
  4 20  1  1
  5 21  1  0
  6 22  1  0
  6 23  1  0
  8 24  1  0
  8 25  1  0
  9 26  1  6
 10 27  1  0
 10 28  1  0
 13 29  1  0
 14 30  1  0
 14 31  1  0
M  END
$$$$

     RDKit          3D

 31 32  0  0  0  0  0  0  0  0999 V2000
   -2.5357   -0.5085    2.0093 N   0  0  0  0  0  0  0  0  0  0  0  0
   -2.0149   -0.1772    0.7055 C   0  0  2  0  0  0  0  0  0  0  0  0
   -2.5535   -1.0836   -0.4061 C   0  0  0  0  0  0  0  0  0  0  0  0
   -2.2743   -0.2834   -1.6605 C   0  0  1  0  0  0  0  0  0  0  0  0
   -3.0294    0.8681   -1.5981 O   0  0  0  0  0  0  0  0  0  0  0  0
   -0.7959   -0.0339   -1.8089 C   0  0  0  0  0  0  0  0  0  0  0  0
   -0.0514    0.0595   -0.6298 N   0  0  0  0  0  0  0  0  0  0  0  0
    1.3434    0.2844   -0.8228 C   0  0  0  0  0  0  0  0  0  0  0  0
    2.1609    0.0190    0.3839 C   0  0  1  0  0  0  0  0  0  0  0  0
    3.6566    0.2584    0.1634 C   0  0  0  0  0  0  0  0  0  0  0  0
    3.6007    0.4943    1.6256 C   0  0  0  0  0  0  0  0  0  0  0  0
    4.2659    0.3509    2.6746 O   0  0  0  0  0  0  0  0  0  0  0  0
    2.2961    1.0488    1.3826 N   0  0  0  0  0  0  0  0  0  0  0  0
   -0.5003   -0.3537    0.6139 C   0  0  0  0  0  0  0  0  0  0  0  0
   -2.7144    0.4190    2.5007 H   0  0  0  0  0  0  0  0  0  0  0  0
   -1.8420   -1.0537    2.5710 H   0  0  0  0  0  0  0  0  0  0  0  0
   -2.2260    0.8939    0.4606 H   0  0  0  0  0  0  0  0  0  0  0  0
   -1.8788   -1.9869   -0.4815 H   0  0  0  0  0  0  0  0  0  0  0  0
   -3.5950   -1.3584   -0.2728 H   0  0  0  0  0  0  0  0  0  0  0  0
   -2.6138   -0.8514   -2.5515 H   0  0  0  0  0  0  0  0  0  0  0  0
   -2.4224    1.6595   -1.5616 H   0  0  0  0  0  0  0  0  0  0  0  0
   -0.4158   -0.9061   -2.4278 H   0  0  0  0  0  0  0  0  0  0  0  0
   -0.6465    0.8771   -2.4350 H   0  0  0  0  0  0  0  0  0  0  0  0
    1.7310   -0.3430   -1.6565 H   0  0  0  0  0  0  0  0  0  0  0  0
    1.5337    1.3468   -1.1525 H   0  0  0  0  0  0  0  0  0  0  0  0
    2.0262   -1.0079    0.8147 H   0  0  0  0  0  0  0  0  0  0  0  0
    4.2121   -0.6047   -0.1813 H   0  0  0  0  0  0  0  0  0  0  0  0
    3.8067    1.2323   -0.3780 H   0  0  0  0  0  0  0  0  0  0  0  0
    1.7992    1.8372    1.8180 H   0  0  0  0  0  0  0  0  0  0  0  0
   -0.1061    0.3031    1.4271 H   0  0  0  0  0  0  0  0  0  0  0  0
   -0.2162   -1.3997    0.8739 H   0  0  0  0  0  0  0  0  0  0  0  0
  1  2  1  0
  2  3  1  0
  3  4  1  0
  4  5  1  0
  4  6  1  0
  6  7  1  0
  7  8  1  0
  8  9  1  0
  9 10  1  0
 10 11  1  0
 11 12  2  0
 11 13  1  0
  7 14  1  0
 14  2  1  0
 13  9  1  0
  1 15  1  0
  1 16  1  0
  2 17  1  6
  3 18  1  0
  3 19  1  0
  4 20  1  6
  5 21  1  0
  6 22  1  0
  6 23  1  0
  8 24  1  0
  8 25  1  0
  9 26  1  1
 10 27  1  0
 10 28  1  0
 13 29  1  0
 14 30  1  0
 14 31  1  0
M  END
$$$$

     RDKit          3D

 31 32  0  0  0  0  0  0  0  0999 V2000
   -2.8664   -1.8584   -0.9116 N   0  0  0  0  0  0  0  0  0  0  0  0
   -2.0067   -1.4336    0.1869 C   0  0  2  0  0  0  0  0  0  0  0  0
   -2.6704   -0.2385    0.8149 C   0  0  0  0  0  0  0  0  0  0  0  0
   -1.9003    0.9761    0.3624 C   0  0  1  0  0  0  0  0  0  0  0  0
   -2.5050    2.1596    0.6769 O   0  0  0  0  0  0  0  0  0  0  0  0
   -0.5120    0.8114    1.0191 C   0  0  0  0  0  0  0  0  0  0  0  0
    0.1338   -0.2068    0.2805 N   0  0  0  0  0  0  0  0  0  0  0  0
    1.0837    0.3598   -0.6327 C   0  0  0  0  0  0  0  0  0  0  0  0
    2.3150    0.9421   -0.0046 C   0  0  1  0  0  0  0  0  0  0  0  0
    3.1728   -0.0122    0.7974 C   0  0  0  0  0  0  0  0  0  0  0  0
    3.5645   -0.4969   -0.5305 C   0  0  0  0  0  0  0  0  0  0  0  0
    3.8931   -1.5864   -1.0489 O   0  0  0  0  0  0  0  0  0  0  0  0
    3.4029    0.8508   -0.9949 N   0  0  0  0  0  0  0  0  0  0  0  0
   -0.6598   -1.1673   -0.3846 C   0  0  0  0  0  0  0  0  0  0  0  0
   -2.2770   -2.2667   -1.6755 H   0  0  0  0  0  0  0  0  0  0  0  0
   -3.3809   -1.0265   -1.3279 H   0  0  0  0  0  0  0  0  0  0  0  0
   -1.9950   -2.3071    0.9037 H   0  0  0  0  0  0  0  0  0  0  0  0
   -2.5982   -0.3820    1.9228 H   0  0  0  0  0  0  0  0  0  0  0  0
   -3.7467   -0.1652    0.5410 H   0  0  0  0  0  0  0  0  0  0  0  0
   -1.7366    0.8960   -0.7493 H   0  0  0  0  0  0  0  0  0  0  0  0
   -1.8369    2.8806    0.6790 H   0  0  0  0  0  0  0  0  0  0  0  0
   -0.0482    1.7942    1.0429 H   0  0  0  0  0  0  0  0  0  0  0  0
   -0.6756    0.4365    2.0775 H   0  0  0  0  0  0  0  0  0  0  0  0
    0.5959    1.2388   -1.1668 H   0  0  0  0  0  0  0  0  0  0  0  0
    1.3196   -0.3311   -1.4845 H   0  0  0  0  0  0  0  0  0  0  0  0
    2.2636    1.9478    0.4039 H   0  0  0  0  0  0  0  0  0  0  0  0
    4.0063    0.5415    1.2715 H   0  0  0  0  0  0  0  0  0  0  0  0
    2.6346   -0.7175    1.4535 H   0  0  0  0  0  0  0  0  0  0  0  0
    3.8620    1.4380   -1.7006 H   0  0  0  0  0  0  0  0  0  0  0  0
   -0.0924   -2.1391   -0.3410 H   0  0  0  0  0  0  0  0  0  0  0  0
   -0.7398   -0.9379   -1.4804 H   0  0  0  0  0  0  0  0  0  0  0  0
  1  2  1  0
  2  3  1  0
  3  4  1  0
  4  5  1  0
  4  6  1  0
  6  7  1  0
  7  8  1  0
  8  9  1  0
  9 10  1  0
 10 11  1  0
 11 12  2  0
 11 13  1  0
  7 14  1  0
 14  2  1  0
 13  9  1  0
  1 15  1  0
  1 16  1  0
  2 17  1  1
  3 18  1  0
  3 19  1  0
  4 20  1  6
  5 21  1  0
  6 22  1  0
  6 23  1  0
  8 24  1  0
  8 25  1  0
  9 26  1  1
 10 27  1  0
 10 28  1  0
 13 29  1  0
 14 30  1  0
 14 31  1  0
M  END
$$$$

     RDKit          3D

 31 32  0  0  0  0  0  0  0  0999 V2000
    2.6770    2.2315   -0.5120 N   0  0  0  0  0  0  0  0  0  0  0  0
    2.0344    1.0958    0.1012 C   0  0  2  0  0  0  0  0  0  0  0  0
    2.8001   -0.1661   -0.0098 C   0  0  0  0  0  0  0  0  0  0  0  0
    2.0833   -1.3949   -0.4221 C   0  0  1  0  0  0  0  0  0  0  0  0
    2.5936   -2.4716    0.3438 O   0  0  0  0  0  0  0  0  0  0  0  0
    0.5919   -1.4120   -0.1995 C   0  0  0  0  0  0  0  0  0  0  0  0
    0.0674   -0.1660    0.2246 N   0  0  0  0  0  0  0  0  0  0  0  0
   -1.1298   -0.0626    0.8951 C   0  0  0  0  0  0  0  0  0  0  0  0
   -2.2900   -0.3623   -0.0341 C   0  0  1  0  0  0  0  0  0  0  0  0
   -3.6458   -0.2561    0.6437 C   0  0  0  0  0  0  0  0  0  0  0  0
   -4.0415    0.3638   -0.6386 C   0  0  0  0  0  0  0  0  0  0  0  0
   -5.0760    0.4575   -1.3261 O   0  0  0  0  0  0  0  0  0  0  0  0
   -2.7203    0.8358   -0.7851 N   0  0  0  0  0  0  0  0  0  0  0  0
    0.6104    0.9783   -0.4322 C   0  0  0  0  0  0  0  0  0  0  0  0
    3.5180    2.0126   -1.0683 H   0  0  0  0  0  0  0  0  0  0  0  0
    2.0172    2.7945   -1.0888 H   0  0  0  0  0  0  0  0  0  0  0  0
    1.8888    1.3652    1.1879 H   0  0  0  0  0  0  0  0  0  0  0  0
    3.3536   -0.3285    0.9580 H   0  0  0  0  0  0  0  0  0  0  0  0
    3.6213    0.0242   -0.7594 H   0  0  0  0  0  0  0  0  0  0  0  0
    2.3365   -1.6781   -1.4755 H   0  0  0  0  0  0  0  0  0  0  0  0
    2.2780   -2.3653    1.2811 H   0  0  0  0  0  0  0  0  0  0  0  0
    0.2672   -2.2062    0.5007 H   0  0  0  0  0  0  0  0  0  0  0  0
    0.1162   -1.6532   -1.1808 H   0  0  0  0  0  0  0  0  0  0  0  0
   -1.3447    0.9142    1.3847 H   0  0  0  0  0  0  0  0  0  0  0  0
   -1.1970   -0.8280    1.7141 H   0  0  0  0  0  0  0  0  0  0  0  0
   -2.2078   -1.2689   -0.6366 H   0  0  0  0  0  0  0  0  0  0  0  0
   -4.1027   -1.2056    0.9177 H   0  0  0  0  0  0  0  0  0  0  0  0
   -3.6197    0.5216    1.4439 H   0  0  0  0  0  0  0  0  0  0  0  0
   -2.2305    1.6352   -1.2071 H   0  0  0  0  0  0  0  0  0  0  0  0
    0.7003    0.7330   -1.5166 H   0  0  0  0  0  0  0  0  0  0  0  0
    0.0506    1.8622   -0.1832 H   0  0  0  0  0  0  0  0  0  0  0  0
  1  2  1  0
  2  3  1  0
  3  4  1  0
  4  5  1  0
  4  6  1  0
  6  7  1  0
  7  8  1  0
  8  9  1  0
  9 10  1  0
 10 11  1  0
 11 12  2  0
 11 13  1  0
  7 14  1  0
 14  2  1  0
 13  9  1  0
  1 15  1  0
  1 16  1  0
  2 17  1  1
  3 18  1  0
  3 19  1  0
  4 20  1  6
  5 21  1  0
  6 22  1  0
  6 23  1  0
  8 24  1  0
  8 25  1  0
  9 26  1  6
 10 27  1  0
 10 28  1  0
 13 29  1  0
 14 30  1  0
 14 31  1  0
M  END
$$$$

     RDKit          3D

 31 32  0  0  0  0  0  0  0  0999 V2000
   -2.9604   -0.1393    2.1916 N   0  0  0  0  0  0  0  0  0  0  0  0
   -2.2243    0.3130    1.0419 C   0  0  2  0  0  0  0  0  0  0  0  0
   -2.7614   -0.3064   -0.2320 C   0  0  0  0  0  0  0  0  0  0  0  0
   -2.0079    0.3256   -1.3528 C   0  0  1  0  0  0  0  0  0  0  0  0
   -2.4621    1.6663   -1.4345 O   0  0  0  0  0  0  0  0  0  0  0  0
   -0.5303    0.2603   -1.2763 C   0  0  0  0  0  0  0  0  0  0  0  0
    0.0167    0.0674   -0.0055 N   0  0  0  0  0  0  0  0  0  0  0  0
    1.1381   -0.8252    0.0742 C   0  0  0  0  0  0  0  0  0  0  0  0
    2.3875   -0.3659   -0.5548 C   0  0  1  0  0  0  0  0  0  0  0  0
    2.9910    0.9285   -0.0155 C   0  0  0  0  0  0  0  0  0  0  0  0
    4.2775    0.2117   -0.3330 C   0  0  0  0  0  0  0  0  0  0  0  0
    5.4376    0.4718   -0.7089 O   0  0  0  0  0  0  0  0  0  0  0  0
    3.5768   -0.9815   -0.0063 N   0  0  0  0  0  0  0  0  0  0  0  0
   -0.7825   -0.0427    1.1430 C   0  0  0  0  0  0  0  0  0  0  0  0
   -3.6820   -0.8492    1.9781 H   0  0  0  0  0  0  0  0  0  0  0  0
   -2.3362   -0.4220    2.9793 H   0  0  0  0  0  0  0  0  0  0  0  0
   -2.3577    1.4236    0.9839 H   0  0  0  0  0  0  0  0  0  0  0  0
   -2.5412   -1.3949   -0.2115 H   0  0  0  0  0  0  0  0  0  0  0  0
   -3.8360   -0.1035   -0.3877 H   0  0  0  0  0  0  0  0  0  0  0  0
   -2.4229   -0.1331   -2.3027 H   0  0  0  0  0  0  0  0  0  0  0  0
   -1.7221    2.3092   -1.3005 H   0  0  0  0  0  0  0  0  0  0  0  0
   -0.0764    1.1294   -1.8310 H   0  0  0  0  0  0  0  0  0  0  0  0
   -0.2453   -0.6482   -1.9061 H   0  0  0  0  0  0  0  0  0  0  0  0
    1.3296   -1.0666    1.1513 H   0  0  0  0  0  0  0  0  0  0  0  0
    0.8387   -1.7777   -0.4106 H   0  0  0  0  0  0  0  0  0  0  0  0
    2.4506   -0.3704   -1.6579 H   0  0  0  0  0  0  0  0  0  0  0  0
    2.8040    1.8152   -0.6271 H   0  0  0  0  0  0  0  0  0  0  0  0
    2.9214    1.0322    1.0678 H   0  0  0  0  0  0  0  0  0  0  0  0
    3.8883   -1.8623    0.4399 H   0  0  0  0  0  0  0  0  0  0  0  0
   -0.7621   -1.1337    1.4562 H   0  0  0  0  0  0  0  0  0  0  0  0
   -0.3468    0.4686    2.0474 H   0  0  0  0  0  0  0  0  0  0  0  0
  1  2  1  0
  2  3  1  0
  3  4  1  0
  4  5  1  0
  4  6  1  0
  6  7  1  0
  7  8  1  0
  8  9  1  0
  9 10  1  0
 10 11  1  0
 11 12  2  0
 11 13  1  0
  7 14  1  0
 14  2  1  0
 13  9  1  0
  1 15  1  0
  1 16  1  0
  2 17  1  6
  3 18  1  0
  3 19  1  0
  4 20  1  6
  5 21  1  0
  6 22  1  0
  6 23  1  0
  8 24  1  0
  8 25  1  0
  9 26  1  6
 10 27  1  0
 10 28  1  0
 13 29  1  0
 14 30  1  0
 14 31  1  0
M  END
$$$$
