
     RDKit          3D

 25 26  0  0  0  0  0  0  0  0999 V2000
   -3.9758    1.6973   -0.0346 N   0  0  0  0  0  0  0  0  0  0  0  0
   -2.5980    1.4135    0.1036 C   0  0  0  0  0  0  0  0  0  0  0  0
   -1.7932    2.2560    0.6083 O   0  0  0  0  0  0  0  0  0  0  0  0
   -2.0560    0.1663   -0.3196 N   0  0  0  0  0  0  0  0  0  0  0  0
   -0.6444   -0.1412   -0.1851 C   0  0  0  0  0  0  0  0  0  0  0  0
   -0.3514   -1.4895    0.4006 C   0  0  0  0  0  0  0  0  0  0  0  0
    0.5133   -1.8059   -0.6668 N   0  0  0  0  0  0  0  0  0  0  0  0
    1.9196   -1.7071   -0.4872 C   0  0  0  0  0  0  0  0  0  0  0  0
    2.4115   -0.3721   -0.1323 C   0  0  0  0  0  0  0  0  0  0  0  0
    2.5777    0.1599    1.0822 N   0  0  0  0  0  0  0  0  0  0  0  0
    3.0383    1.3766    0.9633 N   0  0  0  0  0  0  0  0  0  0  0  0
    3.1703    1.6339   -0.3065 N   0  0  0  0  0  0  0  0  0  0  0  0
    2.7912    0.5739   -1.0022 N   0  0  0  0  0  0  0  0  0  0  0  0
   -0.0319   -0.7117   -1.4319 C   0  0  0  0  0  0  0  0  0  0  0  0
   -4.6629    0.9503    0.1646 H   0  0  0  0  0  0  0  0  0  0  0  0
   -4.3217    2.6255   -0.3280 H   0  0  0  0  0  0  0  0  0  0  0  0
   -2.6614   -0.5706   -0.7427 H   0  0  0  0  0  0  0  0  0  0  0  0
   -0.1061    0.7110    0.2740 H   0  0  0  0  0  0  0  0  0  0  0  0
   -1.2830   -2.1244    0.3699 H   0  0  0  0  0  0  0  0  0  0  0  0
    0.0385   -1.5098    1.4309 H   0  0  0  0  0  0  0  0  0  0  0  0
    2.4080   -2.0406   -1.4413 H   0  0  0  0  0  0  0  0  0  0  0  0
    2.2612   -2.4636    0.2781 H   0  0  0  0  0  0  0  0  0  0  0  0
    3.5123    2.5077   -0.7964 H   0  0  0  0  0  0  0  0  0  0  0  0
    0.6874   -0.0460   -1.9267 H   0  0  0  0  0  0  0  0  0  0  0  0
   -0.8434   -1.0894   -2.1070 H   0  0  0  0  0  0  0  0  0  0  0  0
  1  2  1  0
  2  3  2  0
  2  4  1  0
  4  5  1  0
  5  6  1  0
  6  7  1  0
  7  8  1  0
  8  9  1  0
  9 10  1  0
 10 11  2  0
 11 12  1  0
 12 13  1  0
  7 14  1  0
 14  5  1  0
 13  9  2  0
  1 15  1  0
  1 16  1  0
  4 17  1  0
  5 18  1  0
  6 19  1  0
  6 20  1  0
  8 21  1  0
  8 22  1  0
 12 23  1  0
 14 24  1  0
 14 25  1  0
M  END
$$$$

     RDKit          3D

 25 26  0  0  0  0  0  0  0  0999 V2000
   -4.6151    0.8270    0.3308 N   0  0  0  0  0  0  0  0  0  0  0  0
   -3.4239    0.6264   -0.4406 C   0  0  0  0  0  0  0  0  0  0  0  0
   -3.3848    1.0375   -1.6310 O   0  0  0  0  0  0  0  0  0  0  0  0
   -2.2812   -0.0249    0.0993 N   0  0  0  0  0  0  0  0  0  0  0  0
   -1.1337   -0.1875   -0.7294 C   0  0  0  0  0  0  0  0  0  0  0  0
    0.1246    0.3111   -0.0058 C   0  0  0  0  0  0  0  0  0  0  0  0
    0.8206   -0.7290   -0.7435 N   0  0  0  0  0  0  0  0  0  0  0  0
    1.9615   -1.2792   -0.0525 C   0  0  0  0  0  0  0  0  0  0  0  0
    2.9136   -0.1643    0.1909 C   0  0  0  0  0  0  0  0  0  0  0  0
    3.8952    0.2191   -0.6365 N   0  0  0  0  0  0  0  0  0  0  0  0
    4.5253    1.2463   -0.0680 N   0  0  0  0  0  0  0  0  0  0  0  0
    3.9793    1.5277    1.0886 N   0  0  0  0  0  0  0  0  0  0  0  0
    2.9855    0.6596    1.2507 N   0  0  0  0  0  0  0  0  0  0  0  0
   -0.4084   -1.5182   -0.6003 C   0  0  0  0  0  0  0  0  0  0  0  0
   -5.5149    0.8243   -0.1916 H   0  0  0  0  0  0  0  0  0  0  0  0
   -4.6235    0.9701    1.3510 H   0  0  0  0  0  0  0  0  0  0  0  0
   -2.3022   -0.3641    1.0689 H   0  0  0  0  0  0  0  0  0  0  0  0
   -1.1768    0.1937   -1.7446 H   0  0  0  0  0  0  0  0  0  0  0  0
    0.4084    1.3471   -0.2639 H   0  0  0  0  0  0  0  0  0  0  0  0
    0.0748    0.1033    1.0839 H   0  0  0  0  0  0  0  0  0  0  0  0
    1.5885   -1.7133    0.9001 H   0  0  0  0  0  0  0  0  0  0  0  0
    2.4480   -2.0384   -0.6631 H   0  0  0  0  0  0  0  0  0  0  0  0
    4.2530    2.2730    1.7565 H   0  0  0  0  0  0  0  0  0  0  0  0
   -0.5433   -1.9916    0.3719 H   0  0  0  0  0  0  0  0  0  0  0  0
   -0.5707   -2.1557   -1.4967 H   0  0  0  0  0  0  0  0  0  0  0  0
  1  2  1  0
  2  3  2  0
  2  4  1  0
  4  5  1  0
  5  6  1  0
  6  7  1  0
  7  8  1  0
  8  9  1  0
  9 10  1  0
 10 11  2  0
 11 12  1  0
 12 13  1  0
  7 14  1  0
 14  5  1  0
 13  9  2  0
  1 15  1  0
  1 16  1  0
  4 17  1  0
  5 18  1  0
  6 19  1  0
  6 20  1  0
  8 21  1  0
  8 22  1  0
 12 23  1  0
 14 24  1  0
 14 25  1  0
M  END
$$$$

     RDKit          3D

 25 26  0  0  0  0  0  0  0  0999 V2000
   -4.6996   -0.5305   -0.9687 N   0  0  0  0  0  0  0  0  0  0  0  0
   -3.6711    0.1405   -0.2601 C   0  0  0  0  0  0  0  0  0  0  0  0
   -3.9329    1.2222    0.3404 O   0  0  0  0  0  0  0  0  0  0  0  0
   -2.3489   -0.4071   -0.2283 N   0  0  0  0  0  0  0  0  0  0  0  0
   -1.2761    0.2662    0.4943 C   0  0  0  0  0  0  0  0  0  0  0  0
   -0.4534   -0.6592    1.3642 C   0  0  0  0  0  0  0  0  0  0  0  0
    0.6720   -0.5371    0.4530 N   0  0  0  0  0  0  0  0  0  0  0  0
    1.8542    0.0106    1.0943 C   0  0  0  0  0  0  0  0  0  0  0  0
    2.9439    0.0973    0.0918 C   0  0  0  0  0  0  0  0  0  0  0  0
    2.9620   -0.2355   -1.1990 N   0  0  0  0  0  0  0  0  0  0  0  0
    4.1732    0.0325   -1.6588 N   0  0  0  0  0  0  0  0  0  0  0  0
    4.9340    0.5298   -0.6939 N   0  0  0  0  0  0  0  0  0  0  0  0
    4.1793    0.5686    0.3773 N   0  0  0  0  0  0  0  0  0  0  0  0
   -0.0567    0.4192   -0.3586 C   0  0  0  0  0  0  0  0  0  0  0  0
   -4.5957   -0.8320   -1.9602 H   0  0  0  0  0  0  0  0  0  0  0  0
   -5.6113   -0.7475   -0.5091 H   0  0  0  0  0  0  0  0  0  0  0  0
   -2.1903   -1.3008   -0.7406 H   0  0  0  0  0  0  0  0  0  0  0  0
   -1.6180    1.1855    0.9709 H   0  0  0  0  0  0  0  0  0  0  0  0
   -0.2660   -0.2161    2.3690 H   0  0  0  0  0  0  0  0  0  0  0  0
   -0.8852   -1.6541    1.4706 H   0  0  0  0  0  0  0  0  0  0  0  0
    2.1121   -0.7019    1.9198 H   0  0  0  0  0  0  0  0  0  0  0  0
    1.6356    0.9968    1.5534 H   0  0  0  0  0  0  0  0  0  0  0  0
    5.9299    0.8168   -0.8182 H   0  0  0  0  0  0  0  0  0  0  0  0
   -0.1650    0.0967   -1.4124 H   0  0  0  0  0  0  0  0  0  0  0  0
    0.3741    1.4392   -0.3396 H   0  0  0  0  0  0  0  0  0  0  0  0
  1  2  1  0
  2  3  2  0
  2  4  1  0
  4  5  1  0
  5  6  1  0
  6  7  1  0
  7  8  1  0
  8  9  1  0
  9 10  1  0
 10 11  2  0
 11 12  1  0
 12 13  1  0
  7 14  1  0
 14  5  1  0
 13  9  2  0
  1 15  1  0
  1 16  1  0
  4 17  1  0
  5 18  1  0
  6 19  1  0
  6 20  1  0
  8 21  1  0
  8 22  1  0
 12 23  1  0
 14 24  1  0
 14 25  1  0
M  END
$$$$

     RDKit          3D

 25 26  0  0  0  0  0  0  0  0999 V2000
   -4.7628   -0.5371   -0.2943 N   0  0  0  0  0  0  0  0  0  0  0  0
   -3.5835    0.0759    0.2158 C   0  0  0  0  0  0  0  0  0  0  0  0
   -3.6924    0.7470    1.2944 O   0  0  0  0  0  0  0  0  0  0  0  0
   -2.3170   -0.0321   -0.4221 N   0  0  0  0  0  0  0  0  0  0  0  0
   -1.1933    0.6377    0.1964 C   0  0  0  0  0  0  0  0  0  0  0  0
    0.0672   -0.1897    0.3022 C   0  0  0  0  0  0  0  0  0  0  0  0
    0.8093    1.0327    0.0537 N   0  0  0  0  0  0  0  0  0  0  0  0
    2.0192    0.8498   -0.7213 C   0  0  0  0  0  0  0  0  0  0  0  0
    2.8877   -0.0837    0.0536 C   0  0  0  0  0  0  0  0  0  0  0  0
    2.9466   -1.4206    0.0056 N   0  0  0  0  0  0  0  0  0  0  0  0
    3.8650   -1.8159    0.8719 N   0  0  0  0  0  0  0  0  0  0  0  0
    4.3962   -0.7774    1.4731 N   0  0  0  0  0  0  0  0  0  0  0  0
    3.7944    0.2877    0.9691 N   0  0  0  0  0  0  0  0  0  0  0  0
   -0.3470    1.4681   -0.7468 C   0  0  0  0  0  0  0  0  0  0  0  0
   -4.7724   -1.4499   -0.7940 H   0  0  0  0  0  0  0  0  0  0  0  0
   -5.6947   -0.0689   -0.1773 H   0  0  0  0  0  0  0  0  0  0  0  0
   -2.2586   -0.5792   -1.2903 H   0  0  0  0  0  0  0  0  0  0  0  0
   -1.4038    1.1807    1.1149 H   0  0  0  0  0  0  0  0  0  0  0  0
    0.2572   -0.6475    1.2917 H   0  0  0  0  0  0  0  0  0  0  0  0
    0.2287   -0.8862   -0.5438 H   0  0  0  0  0  0  0  0  0  0  0  0
    1.8076    0.4546   -1.7379 H   0  0  0  0  0  0  0  0  0  0  0  0
    2.5764    1.7923   -0.8357 H   0  0  0  0  0  0  0  0  0  0  0  0
    5.1493   -0.7484    2.2114 H   0  0  0  0  0  0  0  0  0  0  0  0
   -0.5342    2.5400   -0.7304 H   0  0  0  0  0  0  0  0  0  0  0  0
   -0.2451    1.0005   -1.7597 H   0  0  0  0  0  0  0  0  0  0  0  0
  1  2  1  0
  2  3  2  0
  2  4  1  0
  4  5  1  0
  5  6  1  0
  6  7  1  0
  7  8  1  0
  8  9  1  0
  9 10  1  0
 10 11  2  0
 11 12  1  0
 12 13  1  0
  7 14  1  0
 14  5  1  0
 13  9  2  0
  1 15  1  0
  1 16  1  0
  4 17  1  0
  5 18  1  0
  6 19  1  0
  6 20  1  0
  8 21  1  0
  8 22  1  0
 12 23  1  0
 14 24  1  0
 14 25  1  0
M  END
$$$$

     RDKit          3D

 25 26  0  0  0  0  0  0  0  0999 V2000
    4.9229    0.4920    0.2311 N   0  0  0  0  0  0  0  0  0  0  0  0
    3.6679    0.2990    0.8916 C   0  0  0  0  0  0  0  0  0  0  0  0
    3.5446    0.3223    2.1378 O   0  0  0  0  0  0  0  0  0  0  0  0
    2.4835    0.0673    0.1320 N   0  0  0  0  0  0  0  0  0  0  0  0
    1.1915   -0.1361    0.6788 C   0  0  0  0  0  0  0  0  0  0  0  0
    0.4192   -1.3333    0.2287 C   0  0  0  0  0  0  0  0  0  0  0  0
   -0.7870   -0.5483    0.4214 N   0  0  0  0  0  0  0  0  0  0  0  0
   -1.7624   -0.8218   -0.6050 C   0  0  0  0  0  0  0  0  0  0  0  0
   -2.9962   -0.0201   -0.4093 C   0  0  0  0  0  0  0  0  0  0  0  0
   -3.2544    0.8636    0.5637 N   0  0  0  0  0  0  0  0  0  0  0  0
   -4.4604    1.3458    0.3625 N   0  0  0  0  0  0  0  0  0  0  0  0
   -4.9823    0.7994   -0.7078 N   0  0  0  0  0  0  0  0  0  0  0  0
   -4.0827   -0.0479   -1.1925 N   0  0  0  0  0  0  0  0  0  0  0  0
    0.0436    0.6353    0.1538 C   0  0  0  0  0  0  0  0  0  0  0  0
    5.2201   -0.1501   -0.5436 H   0  0  0  0  0  0  0  0  0  0  0  0
    5.5616    1.2690    0.5052 H   0  0  0  0  0  0  0  0  0  0  0  0
    2.6061    0.0512   -0.9081 H   0  0  0  0  0  0  0  0  0  0  0  0
    1.2024   -0.0940    1.8055 H   0  0  0  0  0  0  0  0  0  0  0  0
    0.5955   -1.6384   -0.8299 H   0  0  0  0  0  0  0  0  0  0  0  0
    0.5211   -2.1972    0.9150 H   0  0  0  0  0  0  0  0  0  0  0  0
   -2.0622   -1.8929   -0.4758 H   0  0  0  0  0  0  0  0  0  0  0  0
   -1.3280   -0.6474   -1.6007 H   0  0  0  0  0  0  0  0  0  0  0  0
   -5.9474    1.0147   -1.0908 H   0  0  0  0  0  0  0  0  0  0  0  0
   -0.3151    1.4951    0.7599 H   0  0  0  0  0  0  0  0  0  0  0  0
   -0.0017    0.8729   -0.9048 H   0  0  0  0  0  0  0  0  0  0  0  0
  1  2  1  0
  2  3  2  0
  2  4  1  0
  4  5  1  0
  5  6  1  0
  6  7  1  0
  7  8  1  0
  8  9  1  0
  9 10  1  0
 10 11  2  0
 11 12  1  0
 12 13  1  0
  7 14  1  0
 14  5  1  0
 13  9  2  0
  1 15  1  0
  1 16  1  0
  4 17  1  0
  5 18  1  0
  6 19  1  0
  6 20  1  0
  8 21  1  0
  8 22  1  0
 12 23  1  0
 14 24  1  0
 14 25  1  0
M  END
$$$$

     RDKit          3D

 25 26  0  0  0  0  0  0  0  0999 V2000
    4.7447   -0.1882    0.7168 N   0  0  0  0  0  0  0  0  0  0  0  0
    3.3920    0.2226    0.7299 C   0  0  0  0  0  0  0  0  0  0  0  0
    2.9612    1.1022    1.5505 O   0  0  0  0  0  0  0  0  0  0  0  0
    2.4154   -0.3061   -0.1603 N   0  0  0  0  0  0  0  0  0  0  0  0
    1.0499    0.1300   -0.1238 C   0  0  0  0  0  0  0  0  0  0  0  0
    0.4467    0.5613   -1.4215 C   0  0  0  0  0  0  0  0  0  0  0  0
   -0.7892   -0.0905   -1.0232 N   0  0  0  0  0  0  0  0  0  0  0  0
   -1.6615    0.8573   -0.3873 C   0  0  0  0  0  0  0  0  0  0  0  0
   -2.9446    0.2513    0.0441 C   0  0  0  0  0  0  0  0  0  0  0  0
   -4.0988    0.1375   -0.6323 N   0  0  0  0  0  0  0  0  0  0  0  0
   -4.9967   -0.4736    0.1312 N   0  0  0  0  0  0  0  0  0  0  0  0
   -4.4243   -0.7510    1.2902 N   0  0  0  0  0  0  0  0  0  0  0  0
   -3.1676   -0.3115    1.2477 N   0  0  0  0  0  0  0  0  0  0  0  0
   -0.0010   -0.9209   -0.1307 C   0  0  0  0  0  0  0  0  0  0  0  0
    5.3554   -0.1686    1.5564 H   0  0  0  0  0  0  0  0  0  0  0  0
    5.1563   -0.5283   -0.1743 H   0  0  0  0  0  0  0  0  0  0  0  0
    2.6995   -1.0334   -0.8619 H   0  0  0  0  0  0  0  0  0  0  0  0
    0.8849    0.8949    0.6571 H   0  0  0  0  0  0  0  0  0  0  0  0
    0.8351    0.0834   -2.3348 H   0  0  0  0  0  0  0  0  0  0  0  0
    0.3473    1.6733   -1.5136 H   0  0  0  0  0  0  0  0  0  0  0  0
   -1.9363    1.6209   -1.1731 H   0  0  0  0  0  0  0  0  0  0  0  0
   -1.1736    1.4374    0.4205 H   0  0  0  0  0  0  0  0  0  0  0  0
   -4.8327   -1.2267    2.1255 H   0  0  0  0  0  0  0  0  0  0  0  0
   -0.5204   -1.1099    0.8305 H   0  0  0  0  0  0  0  0  0  0  0  0
    0.2587   -1.8632   -0.6505 H   0  0  0  0  0  0  0  0  0  0  0  0
  1  2  1  0
  2  3  2  0
  2  4  1  0
  4  5  1  0
  5  6  1  0
  6  7  1  0
  7  8  1  0
  8  9  1  0
  9 10  1  0
 10 11  2  0
 11 12  1  0
 12 13  1  0
  7 14  1  0
 14  5  1  0
 13  9  2  0
  1 15  1  0
  1 16  1  0
  4 17  1  0
  5 18  1  0
  6 19  1  0
  6 20  1  0
  8 21  1  0
  8 22  1  0
 12 23  1  0
 14 24  1  0
 14 25  1  0
M  END
$$$$

     RDKit          3D

 25 26  0  0  0  0  0  0  0  0999 V2000
   -4.0746    0.4497    1.6389 N   0  0  0  0  0  0  0  0  0  0  0  0
   -3.3847    0.0304    0.4670 C   0  0  0  0  0  0  0  0  0  0  0  0
   -4.0492   -0.1251   -0.5865 O   0  0  0  0  0  0  0  0  0  0  0  0
   -1.9824   -0.2144    0.4554 N   0  0  0  0  0  0  0  0  0  0  0  0
   -1.2953   -0.6410   -0.7468 C   0  0  0  0  0  0  0  0  0  0  0  0
   -0.0199    0.1751   -0.9221 C   0  0  0  0  0  0  0  0  0  0  0  0
    0.5862   -0.7212    0.0467 N   0  0  0  0  0  0  0  0  0  0  0  0
    1.9912   -0.9525   -0.1238 C   0  0  0  0  0  0  0  0  0  0  0  0
    2.7433    0.3252   -0.0216 C   0  0  0  0  0  0  0  0  0  0  0  0
    4.0749    0.4123   -0.1410 N   0  0  0  0  0  0  0  0  0  0  0  0
    4.4537    1.6856   -0.0026 N   0  0  0  0  0  0  0  0  0  0  0  0
    3.3644    2.3956    0.2030 N   0  0  0  0  0  0  0  0  0  0  0  0
    2.3039    1.5765    0.1945 N   0  0  0  0  0  0  0  0  0  0  0  0
   -0.2875   -1.7608   -0.4780 C   0  0  0  0  0  0  0  0  0  0  0  0
   -4.8288    1.1818    1.5453 H   0  0  0  0  0  0  0  0  0  0  0  0
   -3.8580    0.0537    2.5987 H   0  0  0  0  0  0  0  0  0  0  0  0
   -1.4421   -0.0818    1.3362 H   0  0  0  0  0  0  0  0  0  0  0  0
   -1.9086   -0.7628   -1.6337 H   0  0  0  0  0  0  0  0  0  0  0  0
    0.3873   -0.0097   -1.9268 H   0  0  0  0  0  0  0  0  0  0  0  0
   -0.1032    1.2250   -0.6002 H   0  0  0  0  0  0  0  0  0  0  0  0
    2.1566   -1.4070   -1.1199 H   0  0  0  0  0  0  0  0  0  0  0  0
    2.3318   -1.5989    0.7004 H   0  0  0  0  0  0  0  0  0  0  0  0
    3.3716    3.4216    0.3439 H   0  0  0  0  0  0  0  0  0  0  0  0
   -0.6136   -2.5192    0.2331 H   0  0  0  0  0  0  0  0  0  0  0  0
    0.0832   -2.1381   -1.4603 H   0  0  0  0  0  0  0  0  0  0  0  0
  1  2  1  0
  2  3  2  0
  2  4  1  0
  4  5  1  0
  5  6  1  0
  6  7  1  0
  7  8  1  0
  8  9  1  0
  9 10  1  0
 10 11  2  0
 11 12  1  0
 12 13  1  0
  7 14  1  0
 14  5  1  0
 13  9  2  0
  1 15  1  0
  1 16  1  0
  4 17  1  0
  5 18  1  0
  6 19  1  0
  6 20  1  0
  8 21  1  0
  8 22  1  0
 12 23  1  0
 14 24  1  0
 14 25  1  0
M  END
$$$$

     RDKit          3D

 25 26  0  0  0  0  0  0  0  0999 V2000
    4.7908    0.2995    0.1494 N   0  0  0  0  0  0  0  0  0  0  0  0
    3.5751    0.1010   -0.5588 C   0  0  0  0  0  0  0  0  0  0  0  0
    3.5657    0.1312   -1.8143 O   0  0  0  0  0  0  0  0  0  0  0  0
    2.3272   -0.1370    0.0658 N   0  0  0  0  0  0  0  0  0  0  0  0
    1.0939   -0.3400   -0.5915 C   0  0  0  0  0  0  0  0  0  0  0  0
   -0.1152    0.3928   -0.1550 C   0  0  0  0  0  0  0  0  0  0  0  0
   -0.8833   -0.7818   -0.5538 N   0  0  0  0  0  0  0  0  0  0  0  0
   -2.0408   -1.0441    0.2771 C   0  0  0  0  0  0  0  0  0  0  0  0
   -2.9675    0.1418    0.2135 C   0  0  0  0  0  0  0  0  0  0  0  0
   -3.9688    0.3410   -0.6595 N   0  0  0  0  0  0  0  0  0  0  0  0
   -4.5231    1.5022   -0.3619 N   0  0  0  0  0  0  0  0  0  0  0  0
   -3.8972    2.0319    0.6699 N   0  0  0  0  0  0  0  0  0  0  0  0
   -2.9456    1.2021    1.0236 N   0  0  0  0  0  0  0  0  0  0  0  0
    0.2954   -1.5636   -0.2084 C   0  0  0  0  0  0  0  0  0  0  0  0
    5.1207    1.2808    0.2629 H   0  0  0  0  0  0  0  0  0  0  0  0
    5.3685   -0.4611    0.5584 H   0  0  0  0  0  0  0  0  0  0  0  0
    2.3362   -0.1622    1.1205 H   0  0  0  0  0  0  0  0  0  0  0  0
    1.1963   -0.2936   -1.6982 H   0  0  0  0  0  0  0  0  0  0  0  0
   -0.2807    0.5640    0.9064 H   0  0  0  0  0  0  0  0  0  0  0  0
   -0.3111    1.2760   -0.8004 H   0  0  0  0  0  0  0  0  0  0  0  0
   -1.7550   -1.2725    1.3080 H   0  0  0  0  0  0  0  0  0  0  0  0
   -2.5782   -1.8966   -0.1899 H   0  0  0  0  0  0  0  0  0  0  0  0
   -4.1357    2.9727    1.1258 H   0  0  0  0  0  0  0  0  0  0  0  0
    0.3400   -1.8749    0.8327 H   0  0  0  0  0  0  0  0  0  0  0  0
    0.3922   -2.4096   -0.9223 H   0  0  0  0  0  0  0  0  0  0  0  0
  1  2  1  0
  2  3  2  0
  2  4  1  0
  4  5  1  0
  5  6  1  0
  6  7  1  0
  7  8  1  0
  8  9  1  0
  9 10  1  0
 10 11  2  0
 11 12  1  0
 12 13  1  0
  7 14  1  0
 14  5  1  0
 13  9  2  0
  1 15  1  0
  1 16  1  0
  4 17  1  0
  5 18  1  0
  6 19  1  0
  6 20  1  0
  8 21  1  0
  8 22  1  0
 12 23  1  0
 14 24  1  0
 14 25  1  0
M  END
$$$$
