
     RDKit          3D

 28 29  0  0  0  0  0  0  0  0999 V2000
   -2.8441   -1.2596   -0.3476 C   0  0  0  0  0  0  0  0  0  0  0  0
   -2.2413   -0.3785    0.6977 C   0  0  2  0  0  0  0  0  0  0  0  0
   -2.5996    1.0496    0.3772 C   0  0  0  0  0  0  0  0  0  0  0  0
   -1.9182    1.5582   -0.7103 O   0  0  0  0  0  0  0  0  0  0  0  0
   -0.6469    1.0217   -0.8635 C   0  0  0  0  0  0  0  0  0  0  0  0
   -0.1573    0.6426    0.5211 C   0  0  2  0  0  0  0  0  0  0  0  0
    1.3003    0.5624    0.6036 C   0  0  0  0  0  0  0  0  0  0  0  0
    2.0927    1.4977    1.1572 N   0  0  0  0  0  0  0  0  0  0  0  0
    3.3415    1.1422    1.0789 N   0  0  0  0  0  0  0  0  0  0  0  0
    3.4058   -0.0457    0.4671 C   0  0  0  0  0  0  0  0  0  0  0  0
    4.4750   -0.7115    0.2123 N   0  0  0  0  0  0  0  0  0  0  0  0
    2.1469   -0.3976    0.1770 N   0  0  0  0  0  0  0  0  0  0  0  0
    1.7082   -1.5441   -0.4562 N   0  0  0  0  0  0  0  0  0  0  0  0
   -0.8298   -0.5864    0.8785 N   0  0  0  0  0  0  0  0  0  0  0  0
   -3.8456   -1.6103   -0.0248 H   0  0  0  0  0  0  0  0  0  0  0  0
   -3.0350   -0.6701   -1.2912 H   0  0  0  0  0  0  0  0  0  0  0  0
   -2.2453   -2.1640   -0.5605 H   0  0  0  0  0  0  0  0  0  0  0  0
   -2.7450   -0.6157    1.6728 H   0  0  0  0  0  0  0  0  0  0  0  0
   -2.5436    1.7210    1.2576 H   0  0  0  0  0  0  0  0  0  0  0  0
   -3.6890    1.0376    0.0880 H   0  0  0  0  0  0  0  0  0  0  0  0
   -0.7461    0.1421   -1.5327 H   0  0  0  0  0  0  0  0  0  0  0  0
    0.0575    1.7292   -1.3502 H   0  0  0  0  0  0  0  0  0  0  0  0
   -0.5267    1.4188    1.2110 H   0  0  0  0  0  0  0  0  0  0  0  0
    4.1829    1.6863    1.4334 H   0  0  0  0  0  0  0  0  0  0  0  0
    5.4113   -0.3628    0.4733 H   0  0  0  0  0  0  0  0  0  0  0  0
    1.1521   -2.2538    0.0464 H   0  0  0  0  0  0  0  0  0  0  0  0
    1.9395   -1.6965   -1.4507 H   0  0  0  0  0  0  0  0  0  0  0  0
   -0.6003   -0.9128    1.8408 H   0  0  0  0  0  0  0  0  0  0  0  0
  1  2  1  0
  2  3  1  0
  3  4  1  0
  4  5  1  0
  5  6  1  0
  6  7  1  0
  7  8  2  0
  8  9  1  0
  9 10  1  0
 10 11  2  3
 10 12  1  0
 12 13  1  0
  6 14  1  0
 14  2  1  0
 12  7  1  0
  1 15  1  0
  1 16  1  0
  1 17  1  0
  2 18  1  1
  3 19  1  0
  3 20  1  0
  5 21  1  0
  5 22  1  0
  6 23  1  1
  9 24  1  0
 11 25  1  0
 13 26  1  0
 13 27  1  0
 14 28  1  0
M  END
$$$$

     RDKit          3D

 28 29  0  0  0  0  0  0  0  0999 V2000
    3.2509    0.6390    0.9917 C   0  0  0  0  0  0  0  0  0  0  0  0
    2.2682   -0.1904    0.2037 C   0  0  2  0  0  0  0  0  0  0  0  0
    1.6868    0.5938   -0.9565 C   0  0  0  0  0  0  0  0  0  0  0  0
    0.9357   -0.2275   -1.7477 O   0  0  0  0  0  0  0  0  0  0  0  0
    0.4369   -1.3499   -1.1223 C   0  0  0  0  0  0  0  0  0  0  0  0
    0.0929   -1.1868    0.3033 C   0  0  2  0  0  0  0  0  0  0  0  0
   -1.1243   -0.4139    0.5703 C   0  0  0  0  0  0  0  0  0  0  0  0
   -1.4664   -0.0162    1.8251 N   0  0  0  0  0  0  0  0  0  0  0  0
   -2.6023    0.6569    1.7595 N   0  0  0  0  0  0  0  0  0  0  0  0
   -3.0217    0.7139    0.4842 C   0  0  0  0  0  0  0  0  0  0  0  0
   -4.0923    1.2939    0.0665 N   0  0  0  0  0  0  0  0  0  0  0  0
   -2.0933    0.0475   -0.2233 N   0  0  0  0  0  0  0  0  0  0  0  0
   -2.1308   -0.1401   -1.5946 N   0  0  0  0  0  0  0  0  0  0  0  0
    1.1770   -0.5708    1.0570 N   0  0  0  0  0  0  0  0  0  0  0  0
    4.1827    0.0852    1.2285 H   0  0  0  0  0  0  0  0  0  0  0  0
    3.5422    1.5444    0.4194 H   0  0  0  0  0  0  0  0  0  0  0  0
    2.8082    1.0092    1.9513 H   0  0  0  0  0  0  0  0  0  0  0  0
    2.7849   -1.0883   -0.1483 H   0  0  0  0  0  0  0  0  0  0  0  0
    0.9833    1.3534   -0.5060 H   0  0  0  0  0  0  0  0  0  0  0  0
    2.5124    1.1028   -1.4638 H   0  0  0  0  0  0  0  0  0  0  0  0
   -0.4085   -1.7795   -1.6756 H   0  0  0  0  0  0  0  0  0  0  0  0
    1.2542   -2.1284   -1.1846 H   0  0  0  0  0  0  0  0  0  0  0  0
   -0.0493   -2.1976    0.7518 H   0  0  0  0  0  0  0  0  0  0  0  0
   -3.0924    1.0771    2.5796 H   0  0  0  0  0  0  0  0  0  0  0  0
   -4.4015    1.3307   -0.9084 H   0  0  0  0  0  0  0  0  0  0  0  0
   -2.6357   -0.9543   -2.0042 H   0  0  0  0  0  0  0  0  0  0  0  0
   -1.6638    0.5169   -2.2356 H   0  0  0  0  0  0  0  0  0  0  0  0
    0.8660    0.2791    1.5789 H   0  0  0  0  0  0  0  0  0  0  0  0
  1  2  1  0
  2  3  1  0
  3  4  1  0
  4  5  1  0
  5  6  1  0
  6  7  1  0
  7  8  2  0
  8  9  1  0
  9 10  1  0
 10 11  2  3
 10 12  1  0
 12 13  1  0
  6 14  1  0
 14  2  1  0
 12  7  1  0
  1 15  1  0
  1 16  1  0
  1 17  1  0
  2 18  1  6
  3 19  1  0
  3 20  1  0
  5 21  1  0
  5 22  1  0
  6 23  1  1
  9 24  1  0
 11 25  1  0
 13 26  1  0
 13 27  1  0
 14 28  1  0
M  END
$$$$

     RDKit          3D

 28 29  0  0  0  0  0  0  0  0999 V2000
   -3.4626    0.7036   -1.1778 C   0  0  0  0  0  0  0  0  0  0  0  0
   -2.3419   -0.0210   -0.4827 C   0  0  2  0  0  0  0  0  0  0  0  0
   -2.6211   -0.2388    0.9863 C   0  0  0  0  0  0  0  0  0  0  0  0
   -1.4049   -0.3890    1.6522 O   0  0  0  0  0  0  0  0  0  0  0  0
   -0.4888   -1.1132    0.8892 C   0  0  0  0  0  0  0  0  0  0  0  0
   -0.0503   -0.2929   -0.3133 C   0  0  2  0  0  0  0  0  0  0  0  0
    1.2569    0.2931   -0.0270 C   0  0  0  0  0  0  0  0  0  0  0  0
    1.6098    1.3267    0.7579 N   0  0  0  0  0  0  0  0  0  0  0  0
    2.9035    1.5001    0.7133 N   0  0  0  0  0  0  0  0  0  0  0  0
    3.4381    0.5757   -0.1100 C   0  0  0  0  0  0  0  0  0  0  0  0
    4.7001    0.4225   -0.4141 N   0  0  0  0  0  0  0  0  0  0  0  0
    2.4083   -0.1588   -0.5566 N   0  0  0  0  0  0  0  0  0  0  0  0
    2.5446   -1.2474   -1.4557 N   0  0  0  0  0  0  0  0  0  0  0  0
   -1.0797    0.6900   -0.5812 N   0  0  0  0  0  0  0  0  0  0  0  0
   -4.2430    0.9815   -0.4264 H   0  0  0  0  0  0  0  0  0  0  0  0
   -3.9472    0.0751   -1.9543 H   0  0  0  0  0  0  0  0  0  0  0  0
   -3.1374    1.6360   -1.6666 H   0  0  0  0  0  0  0  0  0  0  0  0
   -2.2357   -1.0184   -0.9575 H   0  0  0  0  0  0  0  0  0  0  0  0
   -3.2321   -1.1599    1.0711 H   0  0  0  0  0  0  0  0  0  0  0  0
   -3.1597    0.6684    1.3519 H   0  0  0  0  0  0  0  0  0  0  0  0
   -0.9037   -2.0920    0.5798 H   0  0  0  0  0  0  0  0  0  0  0  0
    0.3835   -1.3226    1.5350 H   0  0  0  0  0  0  0  0  0  0  0  0
   -0.0178   -0.9622   -1.1862 H   0  0  0  0  0  0  0  0  0  0  0  0
    3.5076    2.2151    1.2049 H   0  0  0  0  0  0  0  0  0  0  0  0
    5.3859    1.0744    0.0148 H   0  0  0  0  0  0  0  0  0  0  0  0
    2.1603   -1.1303   -2.4170 H   0  0  0  0  0  0  0  0  0  0  0  0
    2.9996   -2.1337   -1.2027 H   0  0  0  0  0  0  0  0  0  0  0  0
   -0.9722    1.1182   -1.5335 H   0  0  0  0  0  0  0  0  0  0  0  0
  1  2  1  0
  2  3  1  0
  3  4  1  0
  4  5  1  0
  5  6  1  0
  6  7  1  0
  7  8  2  0
  8  9  1  0
  9 10  1  0
 10 11  2  3
 10 12  1  0
 12 13  1  0
  6 14  1  0
 14  2  1  0
 12  7  1  0
  1 15  1  0
  1 16  1  0
  1 17  1  0
  2 18  1  6
  3 19  1  0
  3 20  1  0
  5 21  1  0
  5 22  1  0
  6 23  1  6
  9 24  1  0
 11 25  1  0
 13 26  1  0
 13 27  1  0
 14 28  1  0
M  END
$$$$

     RDKit          3D

 28 29  0  0  0  0  0  0  0  0999 V2000
   -3.2248   -0.8414   -0.8753 C   0  0  0  0  0  0  0  0  0  0  0  0
   -2.4017   -0.2907    0.2486 C   0  0  2  0  0  0  0  0  0  0  0  0
   -2.3140    1.2124    0.0579 C   0  0  0  0  0  0  0  0  0  0  0  0
   -1.6141    1.5540   -1.0914 O   0  0  0  0  0  0  0  0  0  0  0  0
   -0.6062    0.6453   -1.3858 C   0  0  0  0  0  0  0  0  0  0  0  0
   -0.1222    0.0927   -0.0456 C   0  0  2  0  0  0  0  0  0  0  0  0
    1.2238   -0.4514   -0.2171 C   0  0  0  0  0  0  0  0  0  0  0  0
    1.6460   -1.5776   -0.8252 N   0  0  0  0  0  0  0  0  0  0  0  0
    2.9615   -1.6793   -0.7450 N   0  0  0  0  0  0  0  0  0  0  0  0
    3.3996   -0.6174   -0.0833 C   0  0  0  0  0  0  0  0  0  0  0  0
    4.6202   -0.3445    0.2039 N   0  0  0  0  0  0  0  0  0  0  0  0
    2.3382    0.1543    0.2517 N   0  0  0  0  0  0  0  0  0  0  0  0
    2.4273    1.3557    0.9574 N   0  0  0  0  0  0  0  0  0  0  0  0
   -1.0957   -0.8995    0.3591 N   0  0  0  0  0  0  0  0  0  0  0  0
   -4.2463   -1.0641   -0.4690 H   0  0  0  0  0  0  0  0  0  0  0  0
   -2.7877   -1.7338   -1.3580 H   0  0  0  0  0  0  0  0  0  0  0  0
   -3.4159   -0.0745   -1.6824 H   0  0  0  0  0  0  0  0  0  0  0  0
   -2.9095   -0.4407    1.2363 H   0  0  0  0  0  0  0  0  0  0  0  0
   -1.9605    1.7289    0.9625 H   0  0  0  0  0  0  0  0  0  0  0  0
   -3.3716    1.5564   -0.1098 H   0  0  0  0  0  0  0  0  0  0  0  0
   -1.0341   -0.2011   -1.9499 H   0  0  0  0  0  0  0  0  0  0  0  0
    0.2137    1.0932   -1.9676 H   0  0  0  0  0  0  0  0  0  0  0  0
   -0.1208    0.8811    0.7206 H   0  0  0  0  0  0  0  0  0  0  0  0
    3.5862   -2.4485   -1.1247 H   0  0  0  0  0  0  0  0  0  0  0  0
    4.8820    0.5210    0.7332 H   0  0  0  0  0  0  0  0  0  0  0  0
    2.1149    1.4260    1.9439 H   0  0  0  0  0  0  0  0  0  0  0  0
    2.8105    2.2051    0.5037 H   0  0  0  0  0  0  0  0  0  0  0  0
   -0.9991   -1.7616   -0.2211 H   0  0  0  0  0  0  0  0  0  0  0  0
  1  2  1  0
  2  3  1  0
  3  4  1  0
  4  5  1  0
  5  6  1  0
  6  7  1  0
  7  8  2  0
  8  9  1  0
  9 10  1  0
 10 11  2  3
 10 12  1  0
 12 13  1  0
  6 14  1  0
 14  2  1  0
 12  7  1  0
  1 15  1  0
  1 16  1  0
  1 17  1  0
  2 18  1  1
  3 19  1  0
  3 20  1  0
  5 21  1  0
  5 22  1  0
  6 23  1  1
  9 24  1  0
 11 25  1  0
 13 26  1  0
 13 27  1  0
 14 28  1  0
M  END
$$$$

     RDKit          3D

 28 29  0  0  0  0  0  0  0  0999 V2000
   -3.5785    0.2900   -0.8946 C   0  0  0  0  0  0  0  0  0  0  0  0
   -2.3503   -0.1155   -0.1229 C   0  0  2  0  0  0  0  0  0  0  0  0
   -2.1767    0.6920    1.1482 C   0  0  0  0  0  0  0  0  0  0  0  0
   -1.2082    0.0868    1.9051 O   0  0  0  0  0  0  0  0  0  0  0  0
   -0.5031   -0.9040    1.2819 C   0  0  0  0  0  0  0  0  0  0  0  0
   -0.0810   -0.5824   -0.1240 C   0  0  2  0  0  0  0  0  0  0  0  0
    1.1664    0.2061   -0.0943 C   0  0  0  0  0  0  0  0  0  0  0  0
    1.3166    1.5107    0.1255 N   0  0  0  0  0  0  0  0  0  0  0  0
    2.5911    1.8544    0.0735 N   0  0  0  0  0  0  0  0  0  0  0  0
    3.2584    0.7360   -0.1858 C   0  0  0  0  0  0  0  0  0  0  0  0
    4.5352    0.6049   -0.3229 N   0  0  0  0  0  0  0  0  0  0  0  0
    2.3868   -0.3130   -0.2957 N   0  0  0  0  0  0  0  0  0  0  0  0
    2.7149   -1.6450   -0.5630 N   0  0  0  0  0  0  0  0  0  0  0  0
   -1.1302    0.0840   -0.8841 N   0  0  0  0  0  0  0  0  0  0  0  0
   -3.5586   -0.2585   -1.8535 H   0  0  0  0  0  0  0  0  0  0  0  0
   -4.4568   -0.1170   -0.3327 H   0  0  0  0  0  0  0  0  0  0  0  0
   -3.7073    1.3662   -1.0047 H   0  0  0  0  0  0  0  0  0  0  0  0
   -2.4353   -1.2033    0.0849 H   0  0  0  0  0  0  0  0  0  0  0  0
   -1.8001    1.7080    0.8371 H   0  0  0  0  0  0  0  0  0  0  0  0
   -3.1541    0.7941    1.6193 H   0  0  0  0  0  0  0  0  0  0  0  0
   -0.9976   -1.9146    1.3454 H   0  0  0  0  0  0  0  0  0  0  0  0
    0.4538   -1.0436    1.8695 H   0  0  0  0  0  0  0  0  0  0  0  0
    0.0844   -1.5631   -0.6583 H   0  0  0  0  0  0  0  0  0  0  0  0
    3.0001    2.7964    0.2054 H   0  0  0  0  0  0  0  0  0  0  0  0
    5.1461    1.4211   -0.2314 H   0  0  0  0  0  0  0  0  0  0  0  0
    2.6667   -2.3675    0.1820 H   0  0  0  0  0  0  0  0  0  0  0  0
    3.0090   -1.8961   -1.5271 H   0  0  0  0  0  0  0  0  0  0  0  0
   -1.1916   -0.2271   -1.8602 H   0  0  0  0  0  0  0  0  0  0  0  0
  1  2  1  0
  2  3  1  0
  3  4  1  0
  4  5  1  0
  5  6  1  0
  6  7  1  0
  7  8  2  0
  8  9  1  0
  9 10  1  0
 10 11  2  3
 10 12  1  0
 12 13  1  0
  6 14  1  0
 14  2  1  0
 12  7  1  0
  1 15  1  0
  1 16  1  0
  1 17  1  0
  2 18  1  1
  3 19  1  0
  3 20  1  0
  5 21  1  0
  5 22  1  0
  6 23  1  6
  9 24  1  0
 11 25  1  0
 13 26  1  0
 13 27  1  0
 14 28  1  0
M  END
$$$$

     RDKit          3D

 28 29  0  0  0  0  0  0  0  0999 V2000
   -3.0585    1.4167    0.5679 C   0  0  0  0  0  0  0  0  0  0  0  0
   -2.1954    0.4595   -0.1767 C   0  0  2  0  0  0  0  0  0  0  0  0
   -2.7060   -0.9553   -0.1264 C   0  0  0  0  0  0  0  0  0  0  0  0
   -1.6963   -1.8176    0.3151 O   0  0  0  0  0  0  0  0  0  0  0  0
   -0.6474   -1.7292   -0.5870 C   0  0  0  0  0  0  0  0  0  0  0  0
   -0.0726   -0.3448   -0.6668 C   0  0  2  0  0  0  0  0  0  0  0  0
    1.3675   -0.3875   -0.4006 C   0  0  0  0  0  0  0  0  0  0  0  0
    2.1176   -1.5019   -0.4204 N   0  0  0  0  0  0  0  0  0  0  0  0
    3.3743   -1.2123   -0.1407 N   0  0  0  0  0  0  0  0  0  0  0  0
    3.4602    0.0950    0.0653 C   0  0  0  0  0  0  0  0  0  0  0  0
    4.5284    0.7811    0.3669 N   0  0  0  0  0  0  0  0  0  0  0  0
    2.2279    0.6026   -0.0941 N   0  0  0  0  0  0  0  0  0  0  0  0
    1.8680    1.9454    0.0326 N   0  0  0  0  0  0  0  0  0  0  0  0
   -0.8012    0.4778    0.2817 N   0  0  0  0  0  0  0  0  0  0  0  0
   -3.2450    2.3443   -0.0493 H   0  0  0  0  0  0  0  0  0  0  0  0
   -2.7423    1.6467    1.5839 H   0  0  0  0  0  0  0  0  0  0  0  0
   -4.0827    0.9450    0.6456 H   0  0  0  0  0  0  0  0  0  0  0  0
   -2.1561    0.7674   -1.2600 H   0  0  0  0  0  0  0  0  0  0  0  0
   -3.0176   -1.3205   -1.1283 H   0  0  0  0  0  0  0  0  0  0  0  0
   -3.5736   -1.0248    0.5712 H   0  0  0  0  0  0  0  0  0  0  0  0
   -1.0341   -2.0827   -1.5746 H   0  0  0  0  0  0  0  0  0  0  0  0
    0.1132   -2.4778   -0.2672 H   0  0  0  0  0  0  0  0  0  0  0  0
   -0.2882    0.0670   -1.6776 H   0  0  0  0  0  0  0  0  0  0  0  0
    4.1996   -1.8784   -0.0812 H   0  0  0  0  0  0  0  0  0  0  0  0
    5.4399    0.2706    0.4652 H   0  0  0  0  0  0  0  0  0  0  0  0
    2.5242    2.7196   -0.2047 H   0  0  0  0  0  0  0  0  0  0  0  0
    0.9194    2.2206    0.3728 H   0  0  0  0  0  0  0  0  0  0  0  0
   -0.8231   -0.0264    1.2126 H   0  0  0  0  0  0  0  0  0  0  0  0
  1  2  1  0
  2  3  1  0
  3  4  1  0
  4  5  1  0
  5  6  1  0
  6  7  1  0
  7  8  2  0
  8  9  1  0
  9 10  1  0
 10 11  2  3
 10 12  1  0
 12 13  1  0
  6 14  1  0
 14  2  1  0
 12  7  1  0
  1 15  1  0
  1 16  1  0
  1 17  1  0
  2 18  1  6
  3 19  1  0
  3 20  1  0
  5 21  1  0
  5 22  1  0
  6 23  1  6
  9 24  1  0
 11 25  1  0
 13 26  1  0
 13 27  1  0
 14 28  1  0
M  END
$$$$

     RDKit          3D

 28 29  0  0  0  0  0  0  0  0999 V2000
   -2.9469   -0.3943   -1.5322 C   0  0  0  0  0  0  0  0  0  0  0  0
   -2.5082   -0.4097   -0.0841 C   0  0  2  0  0  0  0  0  0  0  0  0
   -2.6193    0.9647    0.5395 C   0  0  0  0  0  0  0  0  0  0  0  0
   -1.6992    1.7840   -0.0773 O   0  0  0  0  0  0  0  0  0  0  0  0
   -0.3774    1.3870    0.1148 C   0  0  0  0  0  0  0  0  0  0  0  0
   -0.2408   -0.0067    0.6029 C   0  0  2  0  0  0  0  0  0  0  0  0
    1.1186   -0.5666    0.3856 C   0  0  0  0  0  0  0  0  0  0  0  0
    1.4791   -1.8817    0.5163 N   0  0  0  0  0  0  0  0  0  0  0  0
    2.7640   -2.0246    0.2538 N   0  0  0  0  0  0  0  0  0  0  0  0
    3.2790   -0.8250   -0.0528 C   0  0  0  0  0  0  0  0  0  0  0  0
    4.4930   -0.5652   -0.3641 N   0  0  0  0  0  0  0  0  0  0  0  0
    2.2452    0.0660    0.0342 N   0  0  0  0  0  0  0  0  0  0  0  0
    2.3914    1.4322   -0.2132 N   0  0  0  0  0  0  0  0  0  0  0  0
   -1.1675   -0.9311   -0.0108 N   0  0  0  0  0  0  0  0  0  0  0  0
   -2.0960   -0.2336   -2.2326 H   0  0  0  0  0  0  0  0  0  0  0  0
   -3.7276    0.3903   -1.7222 H   0  0  0  0  0  0  0  0  0  0  0  0
   -3.4207   -1.3636   -1.8309 H   0  0  0  0  0  0  0  0  0  0  0  0
   -3.1825   -1.1030    0.4558 H   0  0  0  0  0  0  0  0  0  0  0  0
   -3.6261    1.3491    0.2699 H   0  0  0  0  0  0  0  0  0  0  0  0
   -2.5081    0.9045    1.6266 H   0  0  0  0  0  0  0  0  0  0  0  0
    0.0535    2.1204    0.8247 H   0  0  0  0  0  0  0  0  0  0  0  0
    0.1296    1.5768   -0.8714 H   0  0  0  0  0  0  0  0  0  0  0  0
   -0.4462   -0.0236    1.6939 H   0  0  0  0  0  0  0  0  0  0  0  0
    3.3377   -2.9185    0.2696 H   0  0  0  0  0  0  0  0  0  0  0  0
    5.1941   -1.3332   -0.3969 H   0  0  0  0  0  0  0  0  0  0  0  0
    2.4212    2.1636    0.5367 H   0  0  0  0  0  0  0  0  0  0  0  0
    2.4830    1.7872   -1.2046 H   0  0  0  0  0  0  0  0  0  0  0  0
   -0.8229   -1.3455   -0.8938 H   0  0  0  0  0  0  0  0  0  0  0  0
  1  2  1  0
  2  3  1  0
  3  4  1  0
  4  5  1  0
  5  6  1  0
  6  7  1  0
  7  8  2  0
  8  9  1  0
  9 10  1  0
 10 11  2  3
 10 12  1  0
 12 13  1  0
  6 14  1  0
 14  2  1  0
 12  7  1  0
  1 15  1  0
  1 16  1  0
  1 17  1  0
  2 18  1  1
  3 19  1  0
  3 20  1  0
  5 21  1  0
  5 22  1  0
  6 23  1  1
  9 24  1  0
 11 25  1  0
 13 26  1  0
 13 27  1  0
 14 28  1  0
M  END
$$$$

     RDKit          3D

 28 29  0  0  0  0  0  0  0  0999 V2000
    2.9529    1.7825    0.2721 C   0  0  0  0  0  0  0  0  0  0  0  0
    2.2260    0.4675    0.3173 C   0  0  2  0  0  0  0  0  0  0  0  0
    2.6364   -0.4848   -0.7580 C   0  0  0  0  0  0  0  0  0  0  0  0
    1.6111   -0.8585   -1.6056 O   0  0  0  0  0  0  0  0  0  0  0  0
    0.5303   -1.4145   -0.9514 C   0  0  0  0  0  0  0  0  0  0  0  0
    0.2111   -0.7050    0.3435 C   0  0  2  0  0  0  0  0  0  0  0  0
   -1.2396   -0.6678    0.6330 C   0  0  0  0  0  0  0  0  0  0  0  0
   -1.8992   -1.4008    1.5481 N   0  0  0  0  0  0  0  0  0  0  0  0
   -3.1871   -1.1020    1.5276 N   0  0  0  0  0  0  0  0  0  0  0  0
   -3.3501   -0.1740    0.5949 C   0  0  0  0  0  0  0  0  0  0  0  0
   -4.4429    0.4183    0.2236 N   0  0  0  0  0  0  0  0  0  0  0  0
   -2.1481    0.1097    0.0264 N   0  0  0  0  0  0  0  0  0  0  0  0
   -1.8718    1.0212   -0.9885 N   0  0  0  0  0  0  0  0  0  0  0  0
    0.7692    0.6507    0.2181 N   0  0  0  0  0  0  0  0  0  0  0  0
    3.9504    1.6322    0.7444 H   0  0  0  0  0  0  0  0  0  0  0  0
    3.0031    2.2261   -0.7312 H   0  0  0  0  0  0  0  0  0  0  0  0
    2.3975    2.4757    0.9622 H   0  0  0  0  0  0  0  0  0  0  0  0
    2.4070    0.0135    1.3147 H   0  0  0  0  0  0  0  0  0  0  0  0
    3.1784   -1.3625   -0.3222 H   0  0  0  0  0  0  0  0  0  0  0  0
    3.3972    0.0400   -1.3914 H   0  0  0  0  0  0  0  0  0  0  0  0
    0.6473   -2.4998   -0.7639 H   0  0  0  0  0  0  0  0  0  0  0  0
   -0.3558   -1.2786   -1.6182 H   0  0  0  0  0  0  0  0  0  0  0  0
    0.7870   -1.2062    1.1395 H   0  0  0  0  0  0  0  0  0  0  0  0
   -3.9661   -1.4944    2.1140 H   0  0  0  0  0  0  0  0  0  0  0  0
   -5.3272    0.1467    0.7076 H   0  0  0  0  0  0  0  0  0  0  0  0
   -1.9928    0.7565   -1.9846 H   0  0  0  0  0  0  0  0  0  0  0  0
   -1.5404    1.9804   -0.7743 H   0  0  0  0  0  0  0  0  0  0  0  0
    0.6162    0.9278   -0.7977 H   0  0  0  0  0  0  0  0  0  0  0  0
  1  2  1  0
  2  3  1  0
  3  4  1  0
  4  5  1  0
  5  6  1  0
  6  7  1  0
  7  8  2  0
  8  9  1  0
  9 10  1  0
 10 11  2  3
 10 12  1  0
 12 13  1  0
  6 14  1  0
 14  2  1  0
 12  7  1  0
  1 15  1  0
  1 16  1  0
  1 17  1  0
  2 18  1  1
  3 19  1  0
  3 20  1  0
  5 21  1  0
  5 22  1  0
  6 23  1  1
  9 24  1  0
 11 25  1  0
 13 26  1  0
 13 27  1  0
 14 28  1  0
M  END
$$$$
