
     RDKit          3D

 25 26  0  0  0  0  0  0  0  0999 V2000
   -1.0430    2.4268   -1.3243 C   0  0  0  0  0  0  0  0  0  0  0  0
   -1.4495    1.4983   -0.4015 O   0  0  0  0  0  0  0  0  0  0  0  0
   -0.4880    0.6339   -0.0272 N   0  0  0  0  0  0  0  0  0  0  0  0
    0.8065    1.0803    0.2156 C   0  0  0  0  0  0  0  0  0  0  0  0
    0.9956    2.3477    0.0562 O   0  0  0  0  0  0  0  0  0  0  0  0
    1.9293    0.2589    0.6220 C   0  0  0  0  0  0  0  0  0  0  0  0
    2.0782   -1.0385    0.8685 N   0  0  0  0  0  0  0  0  0  0  0  0
    3.3538   -1.3237    1.2253 C   0  0  0  0  0  0  0  0  0  0  0  0
    4.0138   -0.1605    1.1974 N   0  0  0  0  0  0  0  0  0  0  0  0
    3.1717    0.7745    0.8409 N   0  0  0  0  0  0  0  0  0  0  0  0
   -0.8628   -0.7419    0.1047 C   0  0  0  0  0  0  0  0  0  0  0  0
   -1.7441   -1.2236   -1.0558 C   0  0  0  0  0  0  0  0  0  0  0  0
   -2.4136   -2.0745   -0.0584 N   0  0  0  0  0  0  0  0  0  0  0  0
   -2.1613   -0.9653    0.8758 C   0  0  0  0  0  0  0  0  0  0  0  0
   -1.9114    2.6186   -2.0211 H   0  0  0  0  0  0  0  0  0  0  0  0
   -0.8853    3.4261   -0.8235 H   0  0  0  0  0  0  0  0  0  0  0  0
   -0.1977    2.1193   -1.9406 H   0  0  0  0  0  0  0  0  0  0  0  0
    3.7822   -2.2829    1.4850 H   0  0  0  0  0  0  0  0  0  0  0  0
    5.0345   -0.0725    1.4316 H   0  0  0  0  0  0  0  0  0  0  0  0
   -0.1107   -1.4733    0.4065 H   0  0  0  0  0  0  0  0  0  0  0  0
   -2.3825   -0.4060   -1.3906 H   0  0  0  0  0  0  0  0  0  0  0  0
   -1.1502   -1.7647   -1.7903 H   0  0  0  0  0  0  0  0  0  0  0  0
   -3.4116   -2.2269   -0.2273 H   0  0  0  0  0  0  0  0  0  0  0  0
   -2.9185   -0.1685    0.6766 H   0  0  0  0  0  0  0  0  0  0  0  0
   -2.0352   -1.2615    1.9192 H   0  0  0  0  0  0  0  0  0  0  0  0
  1  2  1  0
  2  3  1  0
  3  4  1  0
  4  5  2  0
  4  6  1  0
  6  7  1  0
  7  8  2  0
  8  9  1  0
  9 10  1  0
  3 11  1  0
 11 12  1  0
 12 13  1  0
 13 14  1  0
 10  6  2  0
 14 11  1  0
  1 15  1  0
  1 16  1  0
  1 17  1  0
  8 18  1  0
  9 19  1  0
 11 20  1  0
 12 21  1  0
 12 22  1  0
 13 23  1  0
 14 24  1  0
 14 25  1  0
M  END
$$$$

     RDKit          3D

 25 26  0  0  0  0  0  0  0  0999 V2000
    0.1139    1.9475   -1.1250 C   0  0  0  0  0  0  0  0  0  0  0  0
    0.2632    0.5722   -1.2228 O   0  0  0  0  0  0  0  0  0  0  0  0
   -0.3505   -0.0768   -0.1776 N   0  0  0  0  0  0  0  0  0  0  0  0
    0.5020   -0.5566    0.8317 C   0  0  0  0  0  0  0  0  0  0  0  0
   -0.0298   -1.1614    1.8213 O   0  0  0  0  0  0  0  0  0  0  0  0
    1.9506   -0.3908    0.7896 C   0  0  0  0  0  0  0  0  0  0  0  0
    2.5737    0.2363   -0.2301 N   0  0  0  0  0  0  0  0  0  0  0  0
    3.8963    0.2585   -0.0242 C   0  0  0  0  0  0  0  0  0  0  0  0
    4.1037   -0.3792    1.1649 N   0  0  0  0  0  0  0  0  0  0  0  0
    2.9163   -0.7546    1.6243 N   0  0  0  0  0  0  0  0  0  0  0  0
   -1.7646   -0.1951   -0.2384 C   0  0  0  0  0  0  0  0  0  0  0  0
   -2.5603    0.1371    0.9950 C   0  0  0  0  0  0  0  0  0  0  0  0
   -3.5310   -0.8616    0.5267 N   0  0  0  0  0  0  0  0  0  0  0  0
   -2.3507   -1.5742    0.0033 C   0  0  0  0  0  0  0  0  0  0  0  0
   -0.2469    2.2912   -0.1584 H   0  0  0  0  0  0  0  0  0  0  0  0
    1.1236    2.3647   -1.3718 H   0  0  0  0  0  0  0  0  0  0  0  0
   -0.5850    2.3142   -1.9272 H   0  0  0  0  0  0  0  0  0  0  0  0
    4.7208    0.6581   -0.5972 H   0  0  0  0  0  0  0  0  0  0  0  0
    5.0334   -0.5328    1.6124 H   0  0  0  0  0  0  0  0  0  0  0  0
   -2.2196    0.3042   -1.1471 H   0  0  0  0  0  0  0  0  0  0  0  0
   -2.1333   -0.1764    1.9576 H   0  0  0  0  0  0  0  0  0  0  0  0
   -2.9381    1.1750    0.9925 H   0  0  0  0  0  0  0  0  0  0  0  0
   -4.0503   -1.3582    1.2665 H   0  0  0  0  0  0  0  0  0  0  0  0
   -1.8649   -2.0746    0.8269 H   0  0  0  0  0  0  0  0  0  0  0  0
   -2.5725   -2.1668   -0.8956 H   0  0  0  0  0  0  0  0  0  0  0  0
  1  2  1  0
  2  3  1  0
  3  4  1  0
  4  5  2  0
  4  6  1  0
  6  7  1  0
  7  8  2  0
  8  9  1  0
  9 10  1  0
  3 11  1  0
 11 12  1  0
 12 13  1  0
 13 14  1  0
 10  6  2  0
 14 11  1  0
  1 15  1  0
  1 16  1  0
  1 17  1  0
  8 18  1  0
  9 19  1  0
 11 20  1  0
 12 21  1  0
 12 22  1  0
 13 23  1  0
 14 24  1  0
 14 25  1  0
M  END
$$$$

     RDKit          3D

 25 26  0  0  0  0  0  0  0  0999 V2000
   -1.5395    2.5089   -0.8882 C   0  0  0  0  0  0  0  0  0  0  0  0
   -1.7081    1.2104   -0.5260 O   0  0  0  0  0  0  0  0  0  0  0  0
   -0.5956    0.4830   -0.3125 N   0  0  0  0  0  0  0  0  0  0  0  0
    0.6822    0.8906   -0.7193 C   0  0  0  0  0  0  0  0  0  0  0  0
    0.8300    2.0074   -1.3523 O   0  0  0  0  0  0  0  0  0  0  0  0
    1.9384    0.1819   -0.5067 C   0  0  0  0  0  0  0  0  0  0  0  0
    2.1887   -0.9844    0.0951 N   0  0  0  0  0  0  0  0  0  0  0  0
    3.5047   -1.2588    0.0886 C   0  0  0  0  0  0  0  0  0  0  0  0
    4.0880   -0.2421   -0.5320 N   0  0  0  0  0  0  0  0  0  0  0  0
    3.1681    0.6198   -0.8911 N   0  0  0  0  0  0  0  0  0  0  0  0
   -0.8199   -0.7862    0.3413 C   0  0  0  0  0  0  0  0  0  0  0  0
   -1.5561   -0.5610    1.6762 C   0  0  0  0  0  0  0  0  0  0  0  0
   -2.4243   -1.6606    1.3290 N   0  0  0  0  0  0  0  0  0  0  0  0
   -2.1371   -1.4144   -0.0731 C   0  0  0  0  0  0  0  0  0  0  0  0
   -2.5524    3.0049   -0.7396 H   0  0  0  0  0  0  0  0  0  0  0  0
   -0.8539    3.0064   -0.1587 H   0  0  0  0  0  0  0  0  0  0  0  0
   -1.2766    2.6970   -1.9387 H   0  0  0  0  0  0  0  0  0  0  0  0
    4.0026   -2.1446    0.5140 H   0  0  0  0  0  0  0  0  0  0  0  0
    5.0999   -0.1287   -0.7100 H   0  0  0  0  0  0  0  0  0  0  0  0
    0.0331   -1.4533    0.4675 H   0  0  0  0  0  0  0  0  0  0  0  0
   -0.9456   -0.7803    2.5717 H   0  0  0  0  0  0  0  0  0  0  0  0
   -2.0944    0.3877    1.6657 H   0  0  0  0  0  0  0  0  0  0  0  0
   -2.1364   -2.5863    1.6826 H   0  0  0  0  0  0  0  0  0  0  0  0
   -2.8526   -0.6481   -0.4649 H   0  0  0  0  0  0  0  0  0  0  0  0
   -2.0431   -2.3493   -0.6188 H   0  0  0  0  0  0  0  0  0  0  0  0
  1  2  1  0
  2  3  1  0
  3  4  1  0
  4  5  2  0
  4  6  1  0
  6  7  1  0
  7  8  2  0
  8  9  1  0
  9 10  1  0
  3 11  1  0
 11 12  1  0
 12 13  1  0
 13 14  1  0
 10  6  2  0
 14 11  1  0
  1 15  1  0
  1 16  1  0
  1 17  1  0
  8 18  1  0
  9 19  1  0
 11 20  1  0
 12 21  1  0
 12 22  1  0
 13 23  1  0
 14 24  1  0
 14 25  1  0
M  END
$$$$

     RDKit          3D

 25 26  0  0  0  0  0  0  0  0999 V2000
   -0.1379    2.1537    0.8442 C   0  0  0  0  0  0  0  0  0  0  0  0
    0.2154    0.8807    1.2316 O   0  0  0  0  0  0  0  0  0  0  0  0
   -0.3312    0.0120    0.3169 N   0  0  0  0  0  0  0  0  0  0  0  0
    0.5757   -0.7515   -0.4445 C   0  0  0  0  0  0  0  0  0  0  0  0
    0.1467   -1.5564   -1.2913 O   0  0  0  0  0  0  0  0  0  0  0  0
    2.0179   -0.6289   -0.2731 C   0  0  0  0  0  0  0  0  0  0  0  0
    2.6678    0.1779    0.5822 N   0  0  0  0  0  0  0  0  0  0  0  0
    3.9849   -0.0019    0.4356 C   0  0  0  0  0  0  0  0  0  0  0  0
    4.1776   -0.9188   -0.5086 N   0  0  0  0  0  0  0  0  0  0  0  0
    2.9800   -1.2917   -0.9302 N   0  0  0  0  0  0  0  0  0  0  0  0
   -1.7443   -0.0163    0.2494 C   0  0  0  0  0  0  0  0  0  0  0  0
   -2.4012    0.0455   -1.1098 C   0  0  0  0  0  0  0  0  0  0  0  0
   -3.4672   -0.7916   -0.5232 N   0  0  0  0  0  0  0  0  0  0  0  0
   -2.3876   -1.4050    0.2694 C   0  0  0  0  0  0  0  0  0  0  0  0
   -0.9311    2.1597    0.0769 H   0  0  0  0  0  0  0  0  0  0  0  0
    0.7168    2.7424    0.4436 H   0  0  0  0  0  0  0  0  0  0  0  0
   -0.5021    2.7322    1.7229 H   0  0  0  0  0  0  0  0  0  0  0  0
    4.7440    0.5281    1.0059 H   0  0  0  0  0  0  0  0  0  0  0  0
    5.1172   -1.2782   -0.8534 H   0  0  0  0  0  0  0  0  0  0  0  0
   -2.2869    0.6656    0.9424 H   0  0  0  0  0  0  0  0  0  0  0  0
   -1.7951   -0.4557   -1.8556 H   0  0  0  0  0  0  0  0  0  0  0  0
   -2.7890    1.0388   -1.4033 H   0  0  0  0  0  0  0  0  0  0  0  0
   -4.0031   -0.1588    0.1416 H   0  0  0  0  0  0  0  0  0  0  0  0
   -1.8756   -2.1485   -0.3481 H   0  0  0  0  0  0  0  0  0  0  0  0
   -2.6919   -1.7335    1.2782 H   0  0  0  0  0  0  0  0  0  0  0  0
  1  2  1  0
  2  3  1  0
  3  4  1  0
  4  5  2  0
  4  6  1  0
  6  7  1  0
  7  8  2  0
  8  9  1  0
  9 10  1  0
  3 11  1  0
 11 12  1  0
 12 13  1  0
 13 14  1  0
 10  6  2  0
 14 11  1  0
  1 15  1  0
  1 16  1  0
  1 17  1  0
  8 18  1  0
  9 19  1  0
 11 20  1  0
 12 21  1  0
 12 22  1  0
 13 23  1  0
 14 24  1  0
 14 25  1  0
M  END
$$$$

     RDKit          3D

 25 26  0  0  0  0  0  0  0  0999 V2000
   -1.3644    2.5122   -0.7639 C   0  0  0  0  0  0  0  0  0  0  0  0
   -1.4550    1.1798   -1.0455 O   0  0  0  0  0  0  0  0  0  0  0  0
   -0.4114    0.4289   -0.5578 N   0  0  0  0  0  0  0  0  0  0  0  0
    0.8867    0.6203   -0.9779 C   0  0  0  0  0  0  0  0  0  0  0  0
    1.1080    1.5288   -1.8537 O   0  0  0  0  0  0  0  0  0  0  0  0
    2.0357   -0.1231   -0.5119 C   0  0  0  0  0  0  0  0  0  0  0  0
    3.3368    0.0750   -0.9380 N   0  0  0  0  0  0  0  0  0  0  0  0
    4.1615   -0.7695   -0.3200 C   0  0  0  0  0  0  0  0  0  0  0  0
    3.4105   -1.5150    0.5047 N   0  0  0  0  0  0  0  0  0  0  0  0
    2.1684   -1.1155    0.3731 N   0  0  0  0  0  0  0  0  0  0  0  0
   -0.7923   -0.5566    0.4077 C   0  0  0  0  0  0  0  0  0  0  0  0
   -1.8328   -0.1000    1.4226 C   0  0  0  0  0  0  0  0  0  0  0  0
   -2.3912   -1.4576    1.3084 N   0  0  0  0  0  0  0  0  0  0  0  0
   -1.9894   -1.3723   -0.1070 C   0  0  0  0  0  0  0  0  0  0  0  0
   -1.6139    2.7577    0.3029 H   0  0  0  0  0  0  0  0  0  0  0  0
   -2.1544    3.0180   -1.3970 H   0  0  0  0  0  0  0  0  0  0  0  0
   -0.4373    3.0213   -1.0136 H   0  0  0  0  0  0  0  0  0  0  0  0
    5.2278   -0.8618   -0.4363 H   0  0  0  0  0  0  0  0  0  0  0  0
    3.7810   -2.2851    1.1402 H   0  0  0  0  0  0  0  0  0  0  0  0
   -0.0092   -1.1959    0.8489 H   0  0  0  0  0  0  0  0  0  0  0  0
   -2.4936    0.6852    1.0549 H   0  0  0  0  0  0  0  0  0  0  0  0
   -1.4099    0.0745    2.4160 H   0  0  0  0  0  0  0  0  0  0  0  0
   -3.4429   -1.4815    1.4102 H   0  0  0  0  0  0  0  0  0  0  0  0
   -1.6683   -2.3210   -0.5465 H   0  0  0  0  0  0  0  0  0  0  0  0
   -2.6505   -0.7469   -0.7203 H   0  0  0  0  0  0  0  0  0  0  0  0
  1  2  1  0
  2  3  1  0
  3  4  1  0
  4  5  2  0
  4  6  1  0
  6  7  1  0
  7  8  2  0
  8  9  1  0
  9 10  1  0
  3 11  1  0
 11 12  1  0
 12 13  1  0
 13 14  1  0
 10  6  2  0
 14 11  1  0
  1 15  1  0
  1 16  1  0
  1 17  1  0
  8 18  1  0
  9 19  1  0
 11 20  1  0
 12 21  1  0
 12 22  1  0
 13 23  1  0
 14 24  1  0
 14 25  1  0
M  END
$$$$

     RDKit          3D

 25 26  0  0  0  0  0  0  0  0999 V2000
   -0.9602    2.1653   -1.8284 C   0  0  0  0  0  0  0  0  0  0  0  0
   -1.1552    0.8141   -1.6908 O   0  0  0  0  0  0  0  0  0  0  0  0
   -0.3223    0.2432   -0.7556 N   0  0  0  0  0  0  0  0  0  0  0  0
    1.0757    0.3451   -0.8832 C   0  0  0  0  0  0  0  0  0  0  0  0
    1.5104    0.9925   -1.9012 O   0  0  0  0  0  0  0  0  0  0  0  0
    2.0435   -0.2083    0.0201 C   0  0  0  0  0  0  0  0  0  0  0  0
    3.3932   -0.0944   -0.1284 N   0  0  0  0  0  0  0  0  0  0  0  0
    4.0347   -0.7068    0.8560 C   0  0  0  0  0  0  0  0  0  0  0  0
    3.0827   -1.2322    1.6652 N   0  0  0  0  0  0  0  0  0  0  0  0
    1.9159   -0.9240    1.1494 N   0  0  0  0  0  0  0  0  0  0  0  0
   -1.0123   -0.4322    0.3161 C   0  0  0  0  0  0  0  0  0  0  0  0
   -2.2271    0.3468    0.8427 C   0  0  0  0  0  0  0  0  0  0  0  0
   -2.8615   -0.9544    1.0212 N   0  0  0  0  0  0  0  0  0  0  0  0
   -2.0906   -1.3946   -0.1531 C   0  0  0  0  0  0  0  0  0  0  0  0
   -0.3410    2.6291   -1.0466 H   0  0  0  0  0  0  0  0  0  0  0  0
   -1.9804    2.6421   -1.7495 H   0  0  0  0  0  0  0  0  0  0  0  0
   -0.6222    2.3827   -2.8665 H   0  0  0  0  0  0  0  0  0  0  0  0
    5.1054   -0.7967    1.0226 H   0  0  0  0  0  0  0  0  0  0  0  0
    3.3130   -1.7703    2.5220 H   0  0  0  0  0  0  0  0  0  0  0  0
   -0.4200   -0.9013    1.0993 H   0  0  0  0  0  0  0  0  0  0  0  0
   -2.6866    0.9830    0.0647 H   0  0  0  0  0  0  0  0  0  0  0  0
   -2.0216    0.9052    1.7630 H   0  0  0  0  0  0  0  0  0  0  0  0
   -2.4179   -1.4073    1.8583 H   0  0  0  0  0  0  0  0  0  0  0  0
   -1.8026   -2.4516   -0.0775 H   0  0  0  0  0  0  0  0  0  0  0  0
   -2.5532   -1.1749   -1.1198 H   0  0  0  0  0  0  0  0  0  0  0  0
  1  2  1  0
  2  3  1  0
  3  4  1  0
  4  5  2  0
  4  6  1  0
  6  7  1  0
  7  8  2  0
  8  9  1  0
  9 10  1  0
  3 11  1  0
 11 12  1  0
 12 13  1  0
 13 14  1  0
 10  6  2  0
 14 11  1  0
  1 15  1  0
  1 16  1  0
  1 17  1  0
  8 18  1  0
  9 19  1  0
 11 20  1  0
 12 21  1  0
 12 22  1  0
 13 23  1  0
 14 24  1  0
 14 25  1  0
M  END
$$$$

     RDKit          3D

 25 26  0  0  0  0  0  0  0  0999 V2000
   -1.2938   -2.6348   -0.4564 C   0  0  0  0  0  0  0  0  0  0  0  0
   -1.3998   -1.6067    0.4471 O   0  0  0  0  0  0  0  0  0  0  0  0
   -0.4324   -0.6504    0.3126 N   0  0  0  0  0  0  0  0  0  0  0  0
    0.9110   -1.0021    0.5787 C   0  0  0  0  0  0  0  0  0  0  0  0
    1.1737   -2.2026    0.9402 O   0  0  0  0  0  0  0  0  0  0  0  0
    2.0354   -0.0918    0.4734 C   0  0  0  0  0  0  0  0  0  0  0  0
    3.3353   -0.4151    0.7271 N   0  0  0  0  0  0  0  0  0  0  0  0
    4.1212    0.6561    0.5363 C   0  0  0  0  0  0  0  0  0  0  0  0
    3.3183    1.6722    0.1571 N   0  0  0  0  0  0  0  0  0  0  0  0
    2.0925    1.2032    0.1280 N   0  0  0  0  0  0  0  0  0  0  0  0
   -0.9153    0.6269   -0.0915 C   0  0  0  0  0  0  0  0  0  0  0  0
   -2.0054    0.5762   -1.1333 C   0  0  0  0  0  0  0  0  0  0  0  0
   -2.6156    1.7131   -0.4223 N   0  0  0  0  0  0  0  0  0  0  0  0
   -2.0945    1.0777    0.8006 C   0  0  0  0  0  0  0  0  0  0  0  0
   -1.7830   -2.4236   -1.4536 H   0  0  0  0  0  0  0  0  0  0  0  0
   -1.8070   -3.5370   -0.0584 H   0  0  0  0  0  0  0  0  0  0  0  0
   -0.2641   -2.8959   -0.7075 H   0  0  0  0  0  0  0  0  0  0  0  0
    5.2022    0.7355    0.6539 H   0  0  0  0  0  0  0  0  0  0  0  0
    3.6731    2.6307   -0.0575 H   0  0  0  0  0  0  0  0  0  0  0  0
   -0.1979    1.4487   -0.2375 H   0  0  0  0  0  0  0  0  0  0  0  0
   -1.7279    0.7783   -2.1655 H   0  0  0  0  0  0  0  0  0  0  0  0
   -2.6916   -0.2981   -0.9633 H   0  0  0  0  0  0  0  0  0  0  0  0
   -2.1340    2.6193   -0.5939 H   0  0  0  0  0  0  0  0  0  0  0  0
   -1.7827    1.7913    1.5646 H   0  0  0  0  0  0  0  0  0  0  0  0
   -2.7177    0.2287    1.0782 H   0  0  0  0  0  0  0  0  0  0  0  0
  1  2  1  0
  2  3  1  0
  3  4  1  0
  4  5  2  0
  4  6  1  0
  6  7  1  0
  7  8  2  0
  8  9  1  0
  9 10  1  0
  3 11  1  0
 11 12  1  0
 12 13  1  0
 13 14  1  0
 10  6  2  0
 14 11  1  0
  1 15  1  0
  1 16  1  0
  1 17  1  0
  8 18  1  0
  9 19  1  0
 11 20  1  0
 12 21  1  0
 12 22  1  0
 13 23  1  0
 14 24  1  0
 14 25  1  0
M  END
$$$$

     RDKit          3D

 25 26  0  0  0  0  0  0  0  0999 V2000
   -0.3024   -1.8154    0.7010 C   0  0  0  0  0  0  0  0  0  0  0  0
   -0.0417   -0.4543    0.9509 O   0  0  0  0  0  0  0  0  0  0  0  0
   -0.3378    0.3064   -0.1294 N   0  0  0  0  0  0  0  0  0  0  0  0
    0.7397    0.6797   -0.9566 C   0  0  0  0  0  0  0  0  0  0  0  0
    0.5294    1.3641   -1.9754 O   0  0  0  0  0  0  0  0  0  0  0  0
    2.0994    0.2843   -0.6563 C   0  0  0  0  0  0  0  0  0  0  0  0
    3.2290    0.5633   -1.3617 N   0  0  0  0  0  0  0  0  0  0  0  0
    4.2981    0.0471   -0.7365 C   0  0  0  0  0  0  0  0  0  0  0  0
    3.8489   -0.5668    0.3709 N   0  0  0  0  0  0  0  0  0  0  0  0
    2.5488   -0.4162    0.4032 N   0  0  0  0  0  0  0  0  0  0  0  0
   -1.6724    0.7523   -0.4428 C   0  0  0  0  0  0  0  0  0  0  0  0
   -2.1643    1.5511    0.7736 C   0  0  0  0  0  0  0  0  0  0  0  0
   -2.6013    0.2848    1.3248 N   0  0  0  0  0  0  0  0  0  0  0  0
   -2.8209   -0.1239   -0.0750 C   0  0  0  0  0  0  0  0  0  0  0  0
    0.5930   -2.4375    0.9398 H   0  0  0  0  0  0  0  0  0  0  0  0
   -1.0958   -2.1490    1.3840 H   0  0  0  0  0  0  0  0  0  0  0  0
   -0.4934   -1.9725   -0.3824 H   0  0  0  0  0  0  0  0  0  0  0  0
    5.3404    0.0917   -1.0341 H   0  0  0  0  0  0  0  0  0  0  0  0
    4.4868   -1.0514    1.0563 H   0  0  0  0  0  0  0  0  0  0  0  0
   -1.7745    1.3680   -1.3349 H   0  0  0  0  0  0  0  0  0  0  0  0
   -3.0279    2.1860    0.4913 H   0  0  0  0  0  0  0  0  0  0  0  0
   -1.3673    2.0666    1.3326 H   0  0  0  0  0  0  0  0  0  0  0  0
   -3.4974    0.3032    1.8487 H   0  0  0  0  0  0  0  0  0  0  0  0
   -2.7494   -1.1964   -0.1571 H   0  0  0  0  0  0  0  0  0  0  0  0
   -3.7670    0.3347   -0.4547 H   0  0  0  0  0  0  0  0  0  0  0  0
  1  2  1  0
  2  3  1  0
  3  4  1  0
  4  5  2  0
  4  6  1  0
  6  7  1  0
  7  8  2  0
  8  9  1  0
  9 10  1  0
  3 11  1  0
 11 12  1  0
 12 13  1  0
 13 14  1  0
 10  6  2  0
 14 11  1  0
  1 15  1  0
  1 16  1  0
  1 17  1  0
  8 18  1  0
  9 19  1  0
 11 20  1  0
 12 21  1  0
 12 22  1  0
 13 23  1  0
 14 24  1  0
 14 25  1  0
M  END
$$$$
