
     RDKit          3D

 31 31  0  0  0  0  0  0  0  0999 V2000
   -4.5336    0.1489    0.7109 C   0  0  0  0  0  0  0  0  0  0  0  0
   -3.3571    0.6866   -0.0280 C   0  0  2  0  0  0  0  0  0  0  0  0
   -3.6162    1.0957   -1.3681 N   0  0  0  0  0  0  0  0  0  0  0  0
   -2.2555   -0.3772   -0.0151 C   0  0  2  0  0  0  0  0  0  0  0  0
   -1.8222   -0.7387    1.3870 C   0  0  0  0  0  0  0  0  0  0  0  0
   -0.8877    0.0062    0.4105 C   0  0  1  0  0  0  0  0  0  0  0  0
    0.2355   -0.8228   -0.1253 C   0  0  0  0  0  0  0  0  0  0  0  0
    0.0586   -2.0501   -0.3187 O   0  0  0  0  0  0  0  0  0  0  0  0
    1.5082   -0.2853   -0.4305 N   0  0  0  0  0  0  0  0  0  0  0  0
    2.6021   -1.0748   -0.9487 C   0  0  0  0  0  0  0  0  0  0  0  0
    3.8388   -0.2792   -1.1893 C   0  0  0  0  0  0  0  0  0  0  0  0
    4.3503    0.3602    0.0407 C   0  0  0  0  0  0  0  0  0  0  0  0
    5.5250    1.1482   -0.0492 N   0  0  0  0  0  0  0  0  0  0  0  0
    3.7917    0.2360    1.1572 O   0  0  0  0  0  0  0  0  0  0  0  0
   -4.3265   -0.8323    1.2013 H   0  0  0  0  0  0  0  0  0  0  0  0
   -4.8455    0.8258    1.5577 H   0  0  0  0  0  0  0  0  0  0  0  0
   -5.4358    0.0034    0.0846 H   0  0  0  0  0  0  0  0  0  0  0  0
   -2.9631    1.5629    0.5568 H   0  0  0  0  0  0  0  0  0  0  0  0
   -4.4060    0.6352   -1.8366 H   0  0  0  0  0  0  0  0  0  0  0  0
   -3.6088    2.1455   -1.4830 H   0  0  0  0  0  0  0  0  0  0  0  0
   -2.3976   -1.1543   -0.7693 H   0  0  0  0  0  0  0  0  0  0  0  0
   -1.6288   -1.8356    1.5039 H   0  0  0  0  0  0  0  0  0  0  0  0
   -2.1633   -0.1562    2.2436 H   0  0  0  0  0  0  0  0  0  0  0  0
   -0.7087    1.0694    0.5697 H   0  0  0  0  0  0  0  0  0  0  0  0
    1.6582    0.7325   -0.2712 H   0  0  0  0  0  0  0  0  0  0  0  0
    2.3421   -1.6202   -1.8773 H   0  0  0  0  0  0  0  0  0  0  0  0
    2.8043   -1.8681   -0.1846 H   0  0  0  0  0  0  0  0  0  0  0  0
    4.6206   -0.9574   -1.5682 H   0  0  0  0  0  0  0  0  0  0  0  0
    3.6455    0.4605   -1.9987 H   0  0  0  0  0  0  0  0  0  0  0  0
    5.7156    1.7622   -0.8922 H   0  0  0  0  0  0  0  0  0  0  0  0
    6.2599    1.1731    0.6923 H   0  0  0  0  0  0  0  0  0  0  0  0
  1  2  1  0
  2  3  1  0
  2  4  1  0
  4  5  1  0
  5  6  1  0
  6  7  1  0
  7  8  2  0
  7  9  1  0
  9 10  1  0
 10 11  1  0
 11 12  1  0
 12 13  1  0
 12 14  2  0
  6  4  1  0
  1 15  1  0
  1 16  1  0
  1 17  1  0
  2 18  1  1
  3 19  1  0
  3 20  1  0
  4 21  1  6
  5 22  1  0
  5 23  1  0
  6 24  1  1
  9 25  1  0
 10 26  1  0
 10 27  1  0
 11 28  1  0
 11 29  1  0
 13 30  1  0
 13 31  1  0
M  END
$$$$

     RDKit          3D

 31 31  0  0  0  0  0  0  0  0999 V2000
   -3.9464   -0.7817   -0.0777 C   0  0  0  0  0  0  0  0  0  0  0  0
   -3.3315    0.2473    0.8585 C   0  0  2  0  0  0  0  0  0  0  0  0
   -4.1849    1.4218    0.7907 N   0  0  0  0  0  0  0  0  0  0  0  0
   -1.9574    0.6633    0.4420 C   0  0  2  0  0  0  0  0  0  0  0  0
   -1.8985    1.2918   -0.9402 C   0  0  0  0  0  0  0  0  0  0  0  0
   -1.1911   -0.0153   -0.6079 C   0  0  1  0  0  0  0  0  0  0  0  0
    0.3082    0.1280   -0.5603 C   0  0  0  0  0  0  0  0  0  0  0  0
    0.8379    1.1827   -0.1261 O   0  0  0  0  0  0  0  0  0  0  0  0
    1.1758   -0.9048   -0.9964 N   0  0  0  0  0  0  0  0  0  0  0  0
    2.6119   -0.8036   -0.9658 C   0  0  0  0  0  0  0  0  0  0  0  0
    3.1615   -0.5848    0.4188 C   0  0  0  0  0  0  0  0  0  0  0  0
    4.6413   -0.5002    0.3000 C   0  0  0  0  0  0  0  0  0  0  0  0
    5.4100   -0.2936    1.4782 N   0  0  0  0  0  0  0  0  0  0  0  0
    5.2487   -0.6018   -0.7869 O   0  0  0  0  0  0  0  0  0  0  0  0
   -4.9502   -1.0249    0.3743 H   0  0  0  0  0  0  0  0  0  0  0  0
   -3.3540   -1.6959   -0.1490 H   0  0  0  0  0  0  0  0  0  0  0  0
   -4.1767   -0.3144   -1.0550 H   0  0  0  0  0  0  0  0  0  0  0  0
   -3.3826   -0.1122    1.9077 H   0  0  0  0  0  0  0  0  0  0  0  0
   -3.8322    2.0046   -0.0009 H   0  0  0  0  0  0  0  0  0  0  0  0
   -4.0592    1.9692    1.6587 H   0  0  0  0  0  0  0  0  0  0  0  0
   -1.3720    1.1578    1.2474 H   0  0  0  0  0  0  0  0  0  0  0  0
   -1.3065    2.2122   -1.0151 H   0  0  0  0  0  0  0  0  0  0  0  0
   -2.7714    1.1904   -1.6115 H   0  0  0  0  0  0  0  0  0  0  0  0
   -1.5999   -0.9571   -0.9961 H   0  0  0  0  0  0  0  0  0  0  0  0
    0.7323   -1.7749   -1.3545 H   0  0  0  0  0  0  0  0  0  0  0  0
    3.0757   -1.7023   -1.3781 H   0  0  0  0  0  0  0  0  0  0  0  0
    2.9832    0.0561   -1.5888 H   0  0  0  0  0  0  0  0  0  0  0  0
    2.9240   -1.3974    1.1106 H   0  0  0  0  0  0  0  0  0  0  0  0
    2.8152    0.3687    0.8697 H   0  0  0  0  0  0  0  0  0  0  0  0
    6.4308   -0.1221    1.4755 H   0  0  0  0  0  0  0  0  0  0  0  0
    4.9581   -0.3069    2.4344 H   0  0  0  0  0  0  0  0  0  0  0  0
  1  2  1  0
  2  3  1  0
  2  4  1  0
  4  5  1  0
  5  6  1  0
  6  7  1  0
  7  8  2  0
  7  9  1  0
  9 10  1  0
 10 11  1  0
 11 12  1  0
 12 13  1  0
 12 14  2  0
  6  4  1  0
  1 15  1  0
  1 16  1  0
  1 17  1  0
  2 18  1  1
  3 19  1  0
  3 20  1  0
  4 21  1  1
  5 22  1  0
  5 23  1  0
  6 24  1  6
  9 25  1  0
 10 26  1  0
 10 27  1  0
 11 28  1  0
 11 29  1  0
 13 30  1  0
 13 31  1  0
M  END
$$$$

     RDKit          3D

 31 31  0  0  0  0  0  0  0  0999 V2000
   -4.0340    1.4395    0.3667 C   0  0  0  0  0  0  0  0  0  0  0  0
   -3.5788    0.1864   -0.3287 C   0  0  2  0  0  0  0  0  0  0  0  0
   -4.0002   -0.9521    0.4652 N   0  0  0  0  0  0  0  0  0  0  0  0
   -2.0844    0.1957   -0.5499 C   0  0  2  0  0  0  0  0  0  0  0  0
   -1.5423   -1.0271   -1.2432 C   0  0  0  0  0  0  0  0  0  0  0  0
   -1.2022   -0.7250    0.1929 C   0  0  1  0  0  0  0  0  0  0  0  0
    0.2172   -0.3672    0.4186 C   0  0  0  0  0  0  0  0  0  0  0  0
    0.8025   -0.7685    1.4296 O   0  0  0  0  0  0  0  0  0  0  0  0
    0.9206    0.4373   -0.5184 N   0  0  0  0  0  0  0  0  0  0  0  0
    2.2783    0.8290   -0.3852 C   0  0  0  0  0  0  0  0  0  0  0  0
    3.2643   -0.2919   -0.3159 C   0  0  0  0  0  0  0  0  0  0  0  0
    4.6172    0.2757   -0.1797 C   0  0  0  0  0  0  0  0  0  0  0  0
    5.7514   -0.5635   -0.0913 N   0  0  0  0  0  0  0  0  0  0  0  0
    4.7726    1.5102   -0.1412 O   0  0  0  0  0  0  0  0  0  0  0  0
   -5.1299    1.5666    0.2110 H   0  0  0  0  0  0  0  0  0  0  0  0
   -3.8060    1.4235    1.4421 H   0  0  0  0  0  0  0  0  0  0  0  0
   -3.4939    2.3078   -0.0808 H   0  0  0  0  0  0  0  0  0  0  0  0
   -4.0618    0.1064   -1.3207 H   0  0  0  0  0  0  0  0  0  0  0  0
   -3.6715   -1.8564    0.0756 H   0  0  0  0  0  0  0  0  0  0  0  0
   -3.7458   -0.8414    1.4694 H   0  0  0  0  0  0  0  0  0  0  0  0
   -1.6872    1.1779   -0.8823 H   0  0  0  0  0  0  0  0  0  0  0  0
   -2.2113   -1.8798   -1.4669 H   0  0  0  0  0  0  0  0  0  0  0  0
   -0.7671   -0.8730   -2.0206 H   0  0  0  0  0  0  0  0  0  0  0  0
   -1.6902   -1.3517    0.9577 H   0  0  0  0  0  0  0  0  0  0  0  0
    0.3754    0.7457   -1.3508 H   0  0  0  0  0  0  0  0  0  0  0  0
    2.4548    1.4990    0.5032 H   0  0  0  0  0  0  0  0  0  0  0  0
    2.5689    1.4579   -1.2533 H   0  0  0  0  0  0  0  0  0  0  0  0
    3.2561   -0.8773   -1.2672 H   0  0  0  0  0  0  0  0  0  0  0  0
    3.1095   -0.9657    0.5507 H   0  0  0  0  0  0  0  0  0  0  0  0
    6.6944   -0.2854   -0.3900 H   0  0  0  0  0  0  0  0  0  0  0  0
    5.6233   -1.5324    0.3044 H   0  0  0  0  0  0  0  0  0  0  0  0
  1  2  1  0
  2  3  1  0
  2  4  1  0
  4  5  1  0
  5  6  1  0
  6  7  1  0
  7  8  2  0
  7  9  1  0
  9 10  1  0
 10 11  1  0
 11 12  1  0
 12 13  1  0
 12 14  2  0
  6  4  1  0
  1 15  1  0
  1 16  1  0
  1 17  1  0
  2 18  1  6
  3 19  1  0
  3 20  1  0
  4 21  1  6
  5 22  1  0
  5 23  1  0
  6 24  1  1
  9 25  1  0
 10 26  1  0
 10 27  1  0
 11 28  1  0
 11 29  1  0
 13 30  1  0
 13 31  1  0
M  END
$$$$

     RDKit          3D

 31 31  0  0  0  0  0  0  0  0999 V2000
   -4.1439    0.8714    1.6884 C   0  0  0  0  0  0  0  0  0  0  0  0
   -3.1571    0.4338    0.6286 C   0  0  2  0  0  0  0  0  0  0  0  0
   -3.6768   -0.6854   -0.1339 N   0  0  0  0  0  0  0  0  0  0  0  0
   -1.8984   -0.0426    1.3210 C   0  0  2  0  0  0  0  0  0  0  0  0
   -1.1094    0.8420    2.1904 C   0  0  0  0  0  0  0  0  0  0  0  0
   -0.5888    0.5202    0.8440 C   0  0  1  0  0  0  0  0  0  0  0  0
    0.5418   -0.4602    0.6890 C   0  0  0  0  0  0  0  0  0  0  0  0
    0.7233   -1.3317    1.5714 O   0  0  0  0  0  0  0  0  0  0  0  0
    1.3920   -0.4099   -0.4282 N   0  0  0  0  0  0  0  0  0  0  0  0
    2.4720   -1.3445   -0.5789 C   0  0  0  0  0  0  0  0  0  0  0  0
    3.2444   -1.0922   -1.8563 C   0  0  0  0  0  0  0  0  0  0  0  0
    3.8138    0.2792   -1.8421 C   0  0  0  0  0  0  0  0  0  0  0  0
    4.5746    0.7456   -2.9240 N   0  0  0  0  0  0  0  0  0  0  0  0
    3.6119    1.0337   -0.8471 O   0  0  0  0  0  0  0  0  0  0  0  0
   -4.9066    1.4858    1.1947 H   0  0  0  0  0  0  0  0  0  0  0  0
   -4.6124   -0.0234    2.1545 H   0  0  0  0  0  0  0  0  0  0  0  0
   -3.6673    1.4382    2.4982 H   0  0  0  0  0  0  0  0  0  0  0  0
   -2.8873    1.2916   -0.0024 H   0  0  0  0  0  0  0  0  0  0  0  0
   -3.1112   -0.8619   -0.9691 H   0  0  0  0  0  0  0  0  0  0  0  0
   -4.6968   -0.5625   -0.3667 H   0  0  0  0  0  0  0  0  0  0  0  0
   -1.9251   -1.1240    1.6124 H   0  0  0  0  0  0  0  0  0  0  0  0
   -0.5382    0.3864    3.0363 H   0  0  0  0  0  0  0  0  0  0  0  0
   -1.4856    1.8750    2.3695 H   0  0  0  0  0  0  0  0  0  0  0  0
   -0.6748    1.2607    0.0098 H   0  0  0  0  0  0  0  0  0  0  0  0
    1.1891    0.3515   -1.1443 H   0  0  0  0  0  0  0  0  0  0  0  0
    2.0150   -2.3635   -0.6817 H   0  0  0  0  0  0  0  0  0  0  0  0
    3.1188   -1.3161    0.3128 H   0  0  0  0  0  0  0  0  0  0  0  0
    2.5527   -1.2497   -2.7012 H   0  0  0  0  0  0  0  0  0  0  0  0
    4.1020   -1.7900   -1.9414 H   0  0  0  0  0  0  0  0  0  0  0  0
    4.8265    0.1144   -3.7017 H   0  0  0  0  0  0  0  0  0  0  0  0
    4.9017    1.7283   -2.9716 H   0  0  0  0  0  0  0  0  0  0  0  0
  1  2  1  0
  2  3  1  0
  2  4  1  0
  4  5  1  0
  5  6  1  0
  6  7  1  0
  7  8  2  0
  7  9  1  0
  9 10  1  0
 10 11  1  0
 11 12  1  0
 12 13  1  0
 12 14  2  0
  6  4  1  0
  1 15  1  0
  1 16  1  0
  1 17  1  0
  2 18  1  6
  3 19  1  0
  3 20  1  0
  4 21  1  1
  5 22  1  0
  5 23  1  0
  6 24  1  6
  9 25  1  0
 10 26  1  0
 10 27  1  0
 11 28  1  0
 11 29  1  0
 13 30  1  0
 13 31  1  0
M  END
$$$$

     RDKit          3D

 31 31  0  0  0  0  0  0  0  0999 V2000
   -4.1731   -0.4979   -1.2496 C   0  0  0  0  0  0  0  0  0  0  0  0
   -3.7726    0.1589    0.0374 C   0  0  2  0  0  0  0  0  0  0  0  0
   -3.7712    1.5864   -0.0938 N   0  0  0  0  0  0  0  0  0  0  0  0
   -2.4863   -0.3912    0.6025 C   0  0  2  0  0  0  0  0  0  0  0  0
   -2.0795    0.2765    1.9106 C   0  0  0  0  0  0  0  0  0  0  0  0
   -1.2402    0.3722    0.6127 C   0  0  1  0  0  0  0  0  0  0  0  0
    0.0295   -0.4209    0.6704 C   0  0  0  0  0  0  0  0  0  0  0  0
    0.0463   -1.5864    1.1506 O   0  0  0  0  0  0  0  0  0  0  0  0
    1.2667    0.0946    0.1920 N   0  0  0  0  0  0  0  0  0  0  0  0
    2.4993   -0.6428    0.2345 C   0  0  0  0  0  0  0  0  0  0  0  0
    3.6230    0.1754   -0.3454 C   0  0  0  0  0  0  0  0  0  0  0  0
    4.8640   -0.6180   -0.2820 C   0  0  0  0  0  0  0  0  0  0  0  0
    6.0551   -0.0201   -0.7845 N   0  0  0  0  0  0  0  0  0  0  0  0
    4.8855   -1.7707    0.1911 O   0  0  0  0  0  0  0  0  0  0  0  0
   -4.6267    0.2789   -1.9261 H   0  0  0  0  0  0  0  0  0  0  0  0
   -3.3268   -0.9797   -1.7674 H   0  0  0  0  0  0  0  0  0  0  0  0
   -4.9793   -1.2578   -1.1089 H   0  0  0  0  0  0  0  0  0  0  0  0
   -4.5713   -0.0937    0.7944 H   0  0  0  0  0  0  0  0  0  0  0  0
   -3.2085    1.9553   -0.8644 H   0  0  0  0  0  0  0  0  0  0  0  0
   -3.7418    2.1110    0.7846 H   0  0  0  0  0  0  0  0  0  0  0  0
   -2.4223   -1.4937    0.5532 H   0  0  0  0  0  0  0  0  0  0  0  0
   -1.7256   -0.4189    2.6879 H   0  0  0  0  0  0  0  0  0  0  0  0
   -2.5660    1.2275    2.1983 H   0  0  0  0  0  0  0  0  0  0  0  0
   -1.1286    1.3745    0.1729 H   0  0  0  0  0  0  0  0  0  0  0  0
    1.2736    1.0537   -0.2077 H   0  0  0  0  0  0  0  0  0  0  0  0
    2.4380   -1.6430   -0.1892 H   0  0  0  0  0  0  0  0  0  0  0  0
    2.7378   -0.7848    1.3282 H   0  0  0  0  0  0  0  0  0  0  0  0
    3.4002    0.4725   -1.4038 H   0  0  0  0  0  0  0  0  0  0  0  0
    3.7586    1.1267    0.2024 H   0  0  0  0  0  0  0  0  0  0  0  0
    6.9463   -0.2568   -0.3045 H   0  0  0  0  0  0  0  0  0  0  0  0
    5.9959    0.6122   -1.5881 H   0  0  0  0  0  0  0  0  0  0  0  0
  1  2  1  0
  2  3  1  0
  2  4  1  0
  4  5  1  0
  5  6  1  0
  6  7  1  0
  7  8  2  0
  7  9  1  0
  9 10  1  0
 10 11  1  0
 11 12  1  0
 12 13  1  0
 12 14  2  0
  6  4  1  0
  1 15  1  0
  1 16  1  0
  1 17  1  0
  2 18  1  1
  3 19  1  0
  3 20  1  0
  4 21  1  1
  5 22  1  0
  5 23  1  0
  6 24  1  6
  9 25  1  0
 10 26  1  0
 10 27  1  0
 11 28  1  0
 11 29  1  0
 13 30  1  0
 13 31  1  0
M  END
$$$$

     RDKit          3D

 31 31  0  0  0  0  0  0  0  0999 V2000
   -4.4463   -0.1372   -1.0164 C   0  0  0  0  0  0  0  0  0  0  0  0
   -3.1086    0.4289   -0.5936 C   0  0  2  0  0  0  0  0  0  0  0  0
   -2.7185    1.4614   -1.5373 N   0  0  0  0  0  0  0  0  0  0  0  0
   -2.0254   -0.5914   -0.5494 C   0  0  2  0  0  0  0  0  0  0  0  0
   -2.0821   -1.7839    0.3220 C   0  0  0  0  0  0  0  0  0  0  0  0
   -1.2510   -0.6522    0.7731 C   0  0  1  0  0  0  0  0  0  0  0  0
    0.2419   -0.7035    0.6060 C   0  0  0  0  0  0  0  0  0  0  0  0
    0.7748   -1.3362   -0.3213 O   0  0  0  0  0  0  0  0  0  0  0  0
    1.0654   -0.0133    1.5283 N   0  0  0  0  0  0  0  0  0  0  0  0
    2.5084   -0.0301    1.4122 C   0  0  0  0  0  0  0  0  0  0  0  0
    3.0174    0.5371    0.1251 C   0  0  0  0  0  0  0  0  0  0  0  0
    4.4916    0.4700    0.1173 C   0  0  0  0  0  0  0  0  0  0  0  0
    5.2076    0.9461   -0.9934 N   0  0  0  0  0  0  0  0  0  0  0  0
    5.1112   -0.0069    1.0908 O   0  0  0  0  0  0  0  0  0  0  0  0
   -4.9178   -0.7073   -0.1834 H   0  0  0  0  0  0  0  0  0  0  0  0
   -5.1050    0.7256   -1.2499 H   0  0  0  0  0  0  0  0  0  0  0  0
   -4.3706   -0.7389   -1.9373 H   0  0  0  0  0  0  0  0  0  0  0  0
   -3.2750    0.8811    0.4142 H   0  0  0  0  0  0  0  0  0  0  0  0
   -2.3517    0.9698   -2.3903 H   0  0  0  0  0  0  0  0  0  0  0  0
   -1.9041    1.9645   -1.1204 H   0  0  0  0  0  0  0  0  0  0  0  0
   -1.4366   -0.6879   -1.4948 H   0  0  0  0  0  0  0  0  0  0  0  0
   -1.5804   -2.7022   -0.0469 H   0  0  0  0  0  0  0  0  0  0  0  0
   -3.0082   -2.0081    0.8964 H   0  0  0  0  0  0  0  0  0  0  0  0
   -1.6372   -0.0658    1.6255 H   0  0  0  0  0  0  0  0  0  0  0  0
    0.6070    0.5204    2.3119 H   0  0  0  0  0  0  0  0  0  0  0  0
    2.9052   -1.0835    1.4829 H   0  0  0  0  0  0  0  0  0  0  0  0
    2.9606    0.5014    2.2682 H   0  0  0  0  0  0  0  0  0  0  0  0
    2.6390   -0.0095   -0.7599 H   0  0  0  0  0  0  0  0  0  0  0  0
    2.7480    1.6103    0.0031 H   0  0  0  0  0  0  0  0  0  0  0  0
    5.3819    0.3239   -1.7989 H   0  0  0  0  0  0  0  0  0  0  0  0
    5.5587    1.9174   -1.0028 H   0  0  0  0  0  0  0  0  0  0  0  0
  1  2  1  0
  2  3  1  0
  2  4  1  0
  4  5  1  0
  5  6  1  0
  6  7  1  0
  7  8  2  0
  7  9  1  0
  9 10  1  0
 10 11  1  0
 11 12  1  0
 12 13  1  0
 12 14  2  0
  6  4  1  0
  1 15  1  0
  1 16  1  0
  1 17  1  0
  2 18  1  1
  3 19  1  0
  3 20  1  0
  4 21  1  6
  5 22  1  0
  5 23  1  0
  6 24  1  1
  9 25  1  0
 10 26  1  0
 10 27  1  0
 11 28  1  0
 11 29  1  0
 13 30  1  0
 13 31  1  0
M  END
$$$$

     RDKit          3D

 31 31  0  0  0  0  0  0  0  0999 V2000
    3.6487    1.4029    0.6403 C   0  0  0  0  0  0  0  0  0  0  0  0
    3.3032   -0.0603    0.5730 C   0  0  2  0  0  0  0  0  0  0  0  0
    4.1028   -0.6793   -0.4611 N   0  0  0  0  0  0  0  0  0  0  0  0
    1.8533   -0.2999    0.2341 C   0  0  2  0  0  0  0  0  0  0  0  0
    1.3163    0.2076   -1.0371 C   0  0  0  0  0  0  0  0  0  0  0  0
    0.8554    0.7642    0.3118 C   0  0  1  0  0  0  0  0  0  0  0  0
   -0.5794    0.5000    0.6031 C   0  0  0  0  0  0  0  0  0  0  0  0
   -1.3345    1.3138    1.1353 O   0  0  0  0  0  0  0  0  0  0  0  0
   -1.0838   -0.7786    0.2339 N   0  0  0  0  0  0  0  0  0  0  0  0
   -2.4148   -1.2556    0.3676 C   0  0  0  0  0  0  0  0  0  0  0  0
   -3.4485   -0.7458   -0.5208 C   0  0  0  0  0  0  0  0  0  0  0  0
   -3.6821    0.6669   -0.6063 C   0  0  0  0  0  0  0  0  0  0  0  0
   -4.9312    1.1837   -0.0859 N   0  0  0  0  0  0  0  0  0  0  0  0
   -2.8848    1.5092   -1.1134 O   0  0  0  0  0  0  0  0  0  0  0  0
    4.7472    1.5312    0.5484 H   0  0  0  0  0  0  0  0  0  0  0  0
    3.2008    1.9884   -0.1874 H   0  0  0  0  0  0  0  0  0  0  0  0
    3.3082    1.8823    1.5855 H   0  0  0  0  0  0  0  0  0  0  0  0
    3.5622   -0.5213    1.5415 H   0  0  0  0  0  0  0  0  0  0  0  0
    5.0153   -1.0221   -0.1231 H   0  0  0  0  0  0  0  0  0  0  0  0
    4.1168   -0.1649   -1.3482 H   0  0  0  0  0  0  0  0  0  0  0  0
    1.5156   -1.3236    0.5393 H   0  0  0  0  0  0  0  0  0  0  0  0
    0.6217   -0.4102   -1.6269 H   0  0  0  0  0  0  0  0  0  0  0  0
    1.8375    0.9698   -1.6467 H   0  0  0  0  0  0  0  0  0  0  0  0
    1.1872    1.7634    0.6179 H   0  0  0  0  0  0  0  0  0  0  0  0
   -0.3719   -1.4737   -0.2042 H   0  0  0  0  0  0  0  0  0  0  0  0
   -2.3593   -2.3963    0.2091 H   0  0  0  0  0  0  0  0  0  0  0  0
   -2.7351   -1.1488    1.4667 H   0  0  0  0  0  0  0  0  0  0  0  0
   -4.4313   -1.2825   -0.2517 H   0  0  0  0  0  0  0  0  0  0  0  0
   -3.2084   -1.1348   -1.5814 H   0  0  0  0  0  0  0  0  0  0  0  0
   -5.7526    1.2214   -0.7094 H   0  0  0  0  0  0  0  0  0  0  0  0
   -4.9745    1.5030    0.8960 H   0  0  0  0  0  0  0  0  0  0  0  0
  1  2  1  0
  2  3  1  0
  2  4  1  0
  4  5  1  0
  5  6  1  0
  6  7  1  0
  7  8  2  0
  7  9  1  0
  9 10  1  0
 10 11  1  0
 11 12  1  0
 12 13  1  0
 12 14  2  0
  6  4  1  0
  1 15  1  0
  1 16  1  0
  1 17  1  0
  2 18  1  1
  3 19  1  0
  3 20  1  0
  4 21  1  1
  5 22  1  0
  5 23  1  0
  6 24  1  6
  9 25  1  0
 10 26  1  0
 10 27  1  0
 11 28  1  0
 11 29  1  0
 13 30  1  0
 13 31  1  0
M  END
$$$$

     RDKit          3D

 31 31  0  0  0  0  0  0  0  0999 V2000
   -4.0309   -0.5130   -1.2669 C   0  0  0  0  0  0  0  0  0  0  0  0
   -3.2383   -1.1208   -0.1494 C   0  0  2  0  0  0  0  0  0  0  0  0
   -3.8870   -0.7112    1.1020 N   0  0  0  0  0  0  0  0  0  0  0  0
   -1.8281   -0.5714   -0.0880 C   0  0  2  0  0  0  0  0  0  0  0  0
   -1.7335    0.8815    0.1211 C   0  0  0  0  0  0  0  0  0  0  0  0
   -1.3343    0.2415   -1.2251 C   0  0  1  0  0  0  0  0  0  0  0  0
    0.0876    0.3559   -1.5430 C   0  0  0  0  0  0  0  0  0  0  0  0
    0.4500    0.5733   -2.7237 O   0  0  0  0  0  0  0  0  0  0  0  0
    1.0977    0.2292   -0.5534 N   0  0  0  0  0  0  0  0  0  0  0  0
    2.5109    0.3425   -0.8667 C   0  0  0  0  0  0  0  0  0  0  0  0
    3.2906    0.1580    0.4034 C   0  0  0  0  0  0  0  0  0  0  0  0
    4.7524    0.2579    0.1804 C   0  0  0  0  0  0  0  0  0  0  0  0
    5.6307    0.1071    1.2781 N   0  0  0  0  0  0  0  0  0  0  0  0
    5.2153    0.4730   -0.9615 O   0  0  0  0  0  0  0  0  0  0  0  0
   -5.0973   -0.7534   -1.1269 H   0  0  0  0  0  0  0  0  0  0  0  0
   -3.6792   -0.8666   -2.2608 H   0  0  0  0  0  0  0  0  0  0  0  0
   -3.9010    0.5967   -1.2000 H   0  0  0  0  0  0  0  0  0  0  0  0
   -3.2543   -2.2117   -0.2357 H   0  0  0  0  0  0  0  0  0  0  0  0
   -4.9189   -0.8605    1.0547 H   0  0  0  0  0  0  0  0  0  0  0  0
   -3.7455    0.3121    1.2145 H   0  0  0  0  0  0  0  0  0  0  0  0
   -1.1019   -1.2318    0.3897 H   0  0  0  0  0  0  0  0  0  0  0  0
   -2.5817    1.5641    0.0428 H   0  0  0  0  0  0  0  0  0  0  0  0
   -0.9060    1.2559    0.7682 H   0  0  0  0  0  0  0  0  0  0  0  0
   -2.0518    0.3544   -2.0621 H   0  0  0  0  0  0  0  0  0  0  0  0
    0.7683    0.0489    0.4188 H   0  0  0  0  0  0  0  0  0  0  0  0
    2.6468    1.3600   -1.3027 H   0  0  0  0  0  0  0  0  0  0  0  0
    2.7805   -0.4129   -1.6069 H   0  0  0  0  0  0  0  0  0  0  0  0
    3.0247    0.9236    1.1592 H   0  0  0  0  0  0  0  0  0  0  0  0
    3.0579   -0.8744    0.7726 H   0  0  0  0  0  0  0  0  0  0  0  0
    5.7749   -0.8106    1.7778 H   0  0  0  0  0  0  0  0  0  0  0  0
    6.2013    0.9025    1.6713 H   0  0  0  0  0  0  0  0  0  0  0  0
  1  2  1  0
  2  3  1  0
  2  4  1  0
  4  5  1  0
  5  6  1  0
  6  7  1  0
  7  8  2  0
  7  9  1  0
  9 10  1  0
 10 11  1  0
 11 12  1  0
 12 13  1  0
 12 14  2  0
  6  4  1  0
  1 15  1  0
  1 16  1  0
  1 17  1  0
  2 18  1  6
  3 19  1  0
  3 20  1  0
  4 21  1  1
  5 22  1  0
  5 23  1  0
  6 24  1  6
  9 25  1  0
 10 26  1  0
 10 27  1  0
 11 28  1  0
 11 29  1  0
 13 30  1  0
 13 31  1  0
M  END
$$$$
