
     RDKit          3D

 25 26  0  0  0  0  0  0  0  0999 V2000
    2.8004   -1.5587    0.4158 C   0  0  0  0  0  0  0  0  0  0  0  0
    1.8608   -0.4687    0.1511 N   0  0  0  0  0  0  0  0  0  0  0  0
    0.5793   -0.4310    0.5080 N   0  0  0  0  0  0  0  0  0  0  0  0
    0.0257    0.7236    0.0983 C   0  0  0  0  0  0  0  0  0  0  0  0
   -1.1883    1.1315    0.2520 N   0  0  0  0  0  0  0  0  0  0  0  0
   -2.1165    0.2874    0.9422 C   0  0  2  0  0  0  0  0  0  0  0  0
   -2.5218   -0.9811    0.1947 C   0  0  0  0  0  0  0  0  0  0  0  0
   -3.5245    0.1412    0.5394 C   0  0  2  0  0  0  0  0  0  0  0  0
   -4.0685    0.7873   -0.6208 N   0  0  0  0  0  0  0  0  0  0  0  0
    1.0275    1.3999   -0.5303 N   0  0  0  0  0  0  0  0  0  0  0  0
    2.1466    0.6725   -0.4979 C   0  0  0  0  0  0  0  0  0  0  0  0
    3.4587    0.9907   -1.0401 C   0  0  0  0  0  0  0  0  0  0  0  0
    4.4300    0.2007   -0.9335 O   0  0  0  0  0  0  0  0  0  0  0  0
    3.6821    2.1935   -1.7014 O   0  0  0  0  0  0  0  0  0  0  0  0
    3.6794   -1.1916    0.9866 H   0  0  0  0  0  0  0  0  0  0  0  0
    2.3289   -2.3381    1.0240 H   0  0  0  0  0  0  0  0  0  0  0  0
    3.1374   -1.9505   -0.5626 H   0  0  0  0  0  0  0  0  0  0  0  0
    0.0531   -1.1681    1.0273 H   0  0  0  0  0  0  0  0  0  0  0  0
   -1.8861    0.1563    2.0219 H   0  0  0  0  0  0  0  0  0  0  0  0
   -2.2221   -1.1059   -0.8478 H   0  0  0  0  0  0  0  0  0  0  0  0
   -2.6267   -1.9241    0.7879 H   0  0  0  0  0  0  0  0  0  0  0  0
   -4.2623   -0.1134    1.3406 H   0  0  0  0  0  0  0  0  0  0  0  0
   -4.4980    1.6869   -0.3369 H   0  0  0  0  0  0  0  0  0  0  0  0
   -4.8670    0.1860   -0.9844 H   0  0  0  0  0  0  0  0  0  0  0  0
    4.5718    2.6737   -1.5846 H   0  0  0  0  0  0  0  0  0  0  0  0
  1  2  1  0
  2  3  1  0
  3  4  1  0
  4  5  2  3
  5  6  1  0
  6  7  1  0
  7  8  1  0
  8  9  1  0
  4 10  1  0
 10 11  2  0
 11 12  1  0
 12 13  2  0
 12 14  1  0
 11  2  1  0
  8  6  1  0
  1 15  1  0
  1 16  1  0
  1 17  1  0
  3 18  1  0
  6 19  1  1
  7 20  1  0
  7 21  1  0
  8 22  1  1
  9 23  1  0
  9 24  1  0
 14 25  1  0
M  END
$$$$

     RDKit          3D

 25 26  0  0  0  0  0  0  0  0999 V2000
    2.3934    0.8197    1.8220 C   0  0  0  0  0  0  0  0  0  0  0  0
    1.6080    0.0954    0.8156 N   0  0  0  0  0  0  0  0  0  0  0  0
    0.3207   -0.1378    0.7968 N   0  0  0  0  0  0  0  0  0  0  0  0
   -0.0480   -0.8373   -0.2908 C   0  0  0  0  0  0  0  0  0  0  0  0
   -1.1786   -1.2557   -0.6727 N   0  0  0  0  0  0  0  0  0  0  0  0
   -2.4383   -1.1029   -0.0393 C   0  0  2  0  0  0  0  0  0  0  0  0
   -3.5282   -0.5682   -0.9946 C   0  0  0  0  0  0  0  0  0  0  0  0
   -3.0883    0.1785    0.2336 C   0  0  2  0  0  0  0  0  0  0  0  0
   -2.4102    1.4475    0.0599 N   0  0  0  0  0  0  0  0  0  0  0  0
    1.0953   -1.0392   -0.9737 N   0  0  0  0  0  0  0  0  0  0  0  0
    2.1137   -0.4698   -0.3004 C   0  0  0  0  0  0  0  0  0  0  0  0
    3.5254   -0.4391   -0.6642 C   0  0  0  0  0  0  0  0  0  0  0  0
    3.8660   -1.0042   -1.7318 O   0  0  0  0  0  0  0  0  0  0  0  0
    4.4752    0.1795    0.1142 O   0  0  0  0  0  0  0  0  0  0  0  0
    3.0335    1.5840    1.3008 H   0  0  0  0  0  0  0  0  0  0  0  0
    1.7284    1.4098    2.4847 H   0  0  0  0  0  0  0  0  0  0  0  0
    3.0205    0.1634    2.4212 H   0  0  0  0  0  0  0  0  0  0  0  0
   -0.3537    0.1717    1.5252 H   0  0  0  0  0  0  0  0  0  0  0  0
   -2.7738   -1.9899    0.5491 H   0  0  0  0  0  0  0  0  0  0  0  0
   -4.4887   -1.1019   -1.0182 H   0  0  0  0  0  0  0  0  0  0  0  0
   -3.2134   -0.1157   -1.9375 H   0  0  0  0  0  0  0  0  0  0  0  0
   -3.8586    0.2039    1.0351 H   0  0  0  0  0  0  0  0  0  0  0  0
   -2.1399    1.7636    1.0311 H   0  0  0  0  0  0  0  0  0  0  0  0
   -3.1084    2.1399   -0.2751 H   0  0  0  0  0  0  0  0  0  0  0  0
    5.4479   -0.0954    0.1073 H   0  0  0  0  0  0  0  0  0  0  0  0
  1  2  1  0
  2  3  1  0
  3  4  1  0
  4  5  2  3
  5  6  1  0
  6  7  1  0
  7  8  1  0
  8  9  1  0
  4 10  1  0
 10 11  2  0
 11 12  1  0
 12 13  2  0
 12 14  1  0
 11  2  1  0
  8  6  1  0
  1 15  1  0
  1 16  1  0
  1 17  1  0
  3 18  1  0
  6 19  1  1
  7 20  1  0
  7 21  1  0
  8 22  1  1
  9 23  1  0
  9 24  1  0
 14 25  1  0
M  END
$$$$

     RDKit          3D

 25 26  0  0  0  0  0  0  0  0999 V2000
   -3.3531    0.6894    1.2031 C   0  0  0  0  0  0  0  0  0  0  0  0
   -2.0499    0.2980    0.6779 N   0  0  0  0  0  0  0  0  0  0  0  0
   -0.8578    0.4441    1.2183 N   0  0  0  0  0  0  0  0  0  0  0  0
    0.0458   -0.0704    0.3615 C   0  0  0  0  0  0  0  0  0  0  0  0
    1.3023   -0.0860    0.5877 N   0  0  0  0  0  0  0  0  0  0  0  0
    2.2470   -0.6419   -0.3443 C   0  0  2  0  0  0  0  0  0  0  0  0
    3.5598   -1.1083    0.1815 C   0  0  0  0  0  0  0  0  0  0  0  0
    3.4611    0.1868   -0.6008 C   0  0  2  0  0  0  0  0  0  0  0  0
    3.5835    1.4442    0.0785 N   0  0  0  0  0  0  0  0  0  0  0  0
   -0.5821   -0.5424   -0.7231 N   0  0  0  0  0  0  0  0  0  0  0  0
   -1.8938   -0.3140   -0.5297 C   0  0  0  0  0  0  0  0  0  0  0  0
   -2.9381   -0.6758   -1.4765 C   0  0  0  0  0  0  0  0  0  0  0  0
   -2.6544   -1.2380   -2.5570 O   0  0  0  0  0  0  0  0  0  0  0  0
   -4.2736   -0.4076   -1.2074 O   0  0  0  0  0  0  0  0  0  0  0  0
   -3.9120   -0.2108    1.4613 H   0  0  0  0  0  0  0  0  0  0  0  0
   -3.2216    1.3928    2.0578 H   0  0  0  0  0  0  0  0  0  0  0  0
   -3.9296    1.2612    0.4257 H   0  0  0  0  0  0  0  0  0  0  0  0
   -0.6981    0.8866    2.1472 H   0  0  0  0  0  0  0  0  0  0  0  0
    1.8038   -1.2630   -1.1424 H   0  0  0  0  0  0  0  0  0  0  0  0
    4.0622   -1.9739   -0.3078 H   0  0  0  0  0  0  0  0  0  0  0  0
    3.6989   -1.0075    1.2807 H   0  0  0  0  0  0  0  0  0  0  0  0
    3.8234    0.1590   -1.6482 H   0  0  0  0  0  0  0  0  0  0  0  0
    4.2875    2.0775   -0.3092 H   0  0  0  0  0  0  0  0  0  0  0  0
    3.5225    1.3898    1.0981 H   0  0  0  0  0  0  0  0  0  0  0  0
   -5.0336   -0.6899   -1.8360 H   0  0  0  0  0  0  0  0  0  0  0  0
  1  2  1  0
  2  3  1  0
  3  4  1  0
  4  5  2  3
  5  6  1  0
  6  7  1  0
  7  8  1  0
  8  9  1  0
  4 10  1  0
 10 11  2  0
 11 12  1  0
 12 13  2  0
 12 14  1  0
 11  2  1  0
  8  6  1  0
  1 15  1  0
  1 16  1  0
  1 17  1  0
  3 18  1  0
  6 19  1  6
  7 20  1  0
  7 21  1  0
  8 22  1  6
  9 23  1  0
  9 24  1  0
 14 25  1  0
M  END
$$$$

     RDKit          3D

 25 26  0  0  0  0  0  0  0  0999 V2000
   -3.2230   -1.1020    0.5488 C   0  0  0  0  0  0  0  0  0  0  0  0
   -1.8742   -0.8129    0.0826 N   0  0  0  0  0  0  0  0  0  0  0  0
   -0.7855   -1.5372    0.2735 N   0  0  0  0  0  0  0  0  0  0  0  0
    0.2594   -0.9231   -0.3186 C   0  0  0  0  0  0  0  0  0  0  0  0
    1.4566   -1.3592   -0.3221 N   0  0  0  0  0  0  0  0  0  0  0  0
    2.5387   -0.6608   -0.9722 C   0  0  2  0  0  0  0  0  0  0  0  0
    3.7760   -0.3985   -0.1710 C   0  0  0  0  0  0  0  0  0  0  0  0
    2.8759    0.7372   -0.4737 C   0  0  2  0  0  0  0  0  0  0  0  0
    2.0157    1.2993    0.5293 N   0  0  0  0  0  0  0  0  0  0  0  0
   -0.2297    0.1985   -0.8758 N   0  0  0  0  0  0  0  0  0  0  0  0
   -1.5486    0.2812   -0.6364 C   0  0  0  0  0  0  0  0  0  0  0  0
   -2.4071    1.3541   -1.0841 C   0  0  0  0  0  0  0  0  0  0  0  0
   -1.9236    2.2968   -1.7481 O   0  0  0  0  0  0  0  0  0  0  0  0
   -3.7417    1.3389   -0.7832 O   0  0  0  0  0  0  0  0  0  0  0  0
   -3.9009   -1.1907   -0.3466 H   0  0  0  0  0  0  0  0  0  0  0  0
   -3.2218   -2.0760    1.0818 H   0  0  0  0  0  0  0  0  0  0  0  0
   -3.5933   -0.3090    1.2271 H   0  0  0  0  0  0  0  0  0  0  0  0
   -0.7106   -2.4545    0.8003 H   0  0  0  0  0  0  0  0  0  0  0  0
    2.6237   -0.8533   -2.0605 H   0  0  0  0  0  0  0  0  0  0  0  0
    4.7683   -0.3923   -0.6402 H   0  0  0  0  0  0  0  0  0  0  0  0
    3.7854   -0.8510    0.8510 H   0  0  0  0  0  0  0  0  0  0  0  0
    3.2049    1.4361   -1.2762 H   0  0  0  0  0  0  0  0  0  0  0  0
    1.5310    2.1403    0.1134 H   0  0  0  0  0  0  0  0  0  0  0  0
    2.6517    1.6557    1.3017 H   0  0  0  0  0  0  0  0  0  0  0  0
   -4.3274    2.1821   -0.8644 H   0  0  0  0  0  0  0  0  0  0  0  0
  1  2  1  0
  2  3  1  0
  3  4  1  0
  4  5  2  3
  5  6  1  0
  6  7  1  0
  7  8  1  0
  8  9  1  0
  4 10  1  0
 10 11  2  0
 11 12  1  0
 12 13  2  0
 12 14  1  0
 11  2  1  0
  8  6  1  0
  1 15  1  0
  1 16  1  0
  1 17  1  0
  3 18  1  0
  6 19  1  6
  7 20  1  0
  7 21  1  0
  8 22  1  6
  9 23  1  0
  9 24  1  0
 14 25  1  0
M  END
$$$$

     RDKit          3D

 25 26  0  0  0  0  0  0  0  0999 V2000
    3.2562   -1.5415   -0.7616 C   0  0  0  0  0  0  0  0  0  0  0  0
    2.0105   -0.8065   -0.5545 N   0  0  0  0  0  0  0  0  0  0  0  0
    0.8065   -1.1635   -0.9603 N   0  0  0  0  0  0  0  0  0  0  0  0
   -0.1040   -0.2292   -0.5835 C   0  0  0  0  0  0  0  0  0  0  0  0
   -1.3855   -0.2521   -0.8128 N   0  0  0  0  0  0  0  0  0  0  0  0
   -2.1576    0.8430   -0.3213 C   0  0  2  0  0  0  0  0  0  0  0  0
   -2.7718    0.5898    1.0602 C   0  0  0  0  0  0  0  0  0  0  0  0
   -3.6149    0.8144   -0.1689 C   0  0  2  0  0  0  0  0  0  0  0  0
   -4.4131   -0.3024   -0.6279 N   0  0  0  0  0  0  0  0  0  0  0  0
    0.6212    0.6996    0.0662 N   0  0  0  0  0  0  0  0  0  0  0  0
    1.9234    0.3695    0.0985 C   0  0  0  0  0  0  0  0  0  0  0  0
    3.0341    1.0975    0.6994 C   0  0  0  0  0  0  0  0  0  0  0  0
    2.8605    2.1896    1.2900 O   0  0  0  0  0  0  0  0  0  0  0  0
    4.3209    0.5910    0.6291 O   0  0  0  0  0  0  0  0  0  0  0  0
    4.0101   -0.8287   -1.2013 H   0  0  0  0  0  0  0  0  0  0  0  0
    3.6153   -1.9358    0.1934 H   0  0  0  0  0  0  0  0  0  0  0  0
    3.1035   -2.3517   -1.5127 H   0  0  0  0  0  0  0  0  0  0  0  0
    0.5552   -2.0272   -1.4931 H   0  0  0  0  0  0  0  0  0  0  0  0
   -1.6694    1.8407   -0.4803 H   0  0  0  0  0  0  0  0  0  0  0  0
   -2.6189    1.4019    1.7794 H   0  0  0  0  0  0  0  0  0  0  0  0
   -2.7655   -0.4473    1.4481 H   0  0  0  0  0  0  0  0  0  0  0  0
   -4.1373    1.7942   -0.1794 H   0  0  0  0  0  0  0  0  0  0  0  0
   -5.4192   -0.1195   -0.3830 H   0  0  0  0  0  0  0  0  0  0  0  0
   -4.1568   -1.1832   -0.0916 H   0  0  0  0  0  0  0  0  0  0  0  0
    5.0964    0.9573    1.2011 H   0  0  0  0  0  0  0  0  0  0  0  0
  1  2  1  0
  2  3  1  0
  3  4  1  0
  4  5  2  3
  5  6  1  0
  6  7  1  0
  7  8  1  0
  8  9  1  0
  4 10  1  0
 10 11  2  0
 11 12  1  0
 12 13  2  0
 12 14  1  0
 11  2  1  0
  8  6  1  0
  1 15  1  0
  1 16  1  0
  1 17  1  0
  3 18  1  0
  6 19  1  1
  7 20  1  0
  7 21  1  0
  8 22  1  1
  9 23  1  0
  9 24  1  0
 14 25  1  0
M  END
$$$$

     RDKit          3D

 25 26  0  0  0  0  0  0  0  0999 V2000
   -3.4538   -1.5666    0.2930 C   0  0  0  0  0  0  0  0  0  0  0  0
   -2.1910   -0.8727    0.1423 N   0  0  0  0  0  0  0  0  0  0  0  0
   -1.0068   -1.4557   -0.1035 N   0  0  0  0  0  0  0  0  0  0  0  0
   -0.0833   -0.4849   -0.1745 C   0  0  0  0  0  0  0  0  0  0  0  0
    1.1927   -0.6319   -0.3986 N   0  0  0  0  0  0  0  0  0  0  0  0
    2.0892    0.5059   -0.4510 C   0  0  2  0  0  0  0  0  0  0  0  0
    3.2251    0.4879   -1.4034 C   0  0  0  0  0  0  0  0  0  0  0  0
    3.4551    0.4216    0.1173 C   0  0  2  0  0  0  0  0  0  0  0  0
    3.9594   -0.8381    0.6078 N   0  0  0  0  0  0  0  0  0  0  0  0
   -0.7129    0.6776    0.0283 N   0  0  0  0  0  0  0  0  0  0  0  0
   -2.0447    0.4513    0.2300 C   0  0  0  0  0  0  0  0  0  0  0  0
   -3.0334    1.4849    0.4815 C   0  0  0  0  0  0  0  0  0  0  0  0
   -4.2240    1.1431    0.6502 O   0  0  0  0  0  0  0  0  0  0  0  0
   -2.7092    2.8236    0.5409 O   0  0  0  0  0  0  0  0  0  0  0  0
   -4.2696   -1.0213   -0.2308 H   0  0  0  0  0  0  0  0  0  0  0  0
   -3.3623   -2.5434   -0.2314 H   0  0  0  0  0  0  0  0  0  0  0  0
   -3.7065   -1.7145    1.3629 H   0  0  0  0  0  0  0  0  0  0  0  0
   -0.7929   -2.4642   -0.2243 H   0  0  0  0  0  0  0  0  0  0  0  0
    1.5828    1.4932   -0.3076 H   0  0  0  0  0  0  0  0  0  0  0  0
    3.4353   -0.4327   -1.9809 H   0  0  0  0  0  0  0  0  0  0  0  0
    3.4745    1.4263   -1.9213 H   0  0  0  0  0  0  0  0  0  0  0  0
    3.9347    1.3263    0.5278 H   0  0  0  0  0  0  0  0  0  0  0  0
    5.0103   -0.7968    0.6322 H   0  0  0  0  0  0  0  0  0  0  0  0
    3.6033   -0.9774    1.5647 H   0  0  0  0  0  0  0  0  0  0  0  0
   -3.3719    3.5584    0.2484 H   0  0  0  0  0  0  0  0  0  0  0  0
  1  2  1  0
  2  3  1  0
  3  4  1  0
  4  5  2  3
  5  6  1  0
  6  7  1  0
  7  8  1  0
  8  9  1  0
  4 10  1  0
 10 11  2  0
 11 12  1  0
 12 13  2  0
 12 14  1  0
 11  2  1  0
  8  6  1  0
  1 15  1  0
  1 16  1  0
  1 17  1  0
  3 18  1  0
  6 19  1  1
  7 20  1  0
  7 21  1  0
  8 22  1  1
  9 23  1  0
  9 24  1  0
 14 25  1  0
M  END
$$$$

     RDKit          3D

 25 26  0  0  0  0  0  0  0  0999 V2000
    2.9320   -1.7210   -0.4606 C   0  0  0  0  0  0  0  0  0  0  0  0
    1.9439   -0.7217   -0.0557 N   0  0  0  0  0  0  0  0  0  0  0  0
    0.6184   -0.8697   -0.1077 N   0  0  0  0  0  0  0  0  0  0  0  0
   -0.0050    0.2210    0.3318 C   0  0  0  0  0  0  0  0  0  0  0  0
   -1.2730    0.4741    0.4398 N   0  0  0  0  0  0  0  0  0  0  0  0
   -2.2837   -0.4737    0.0664 C   0  0  2  0  0  0  0  0  0  0  0  0
   -3.1659   -0.2788   -1.0919 C   0  0  0  0  0  0  0  0  0  0  0  0
   -3.7087    0.0451    0.2507 C   0  0  2  0  0  0  0  0  0  0  0  0
   -3.8889    1.4413    0.5921 N   0  0  0  0  0  0  0  0  0  0  0  0
    0.9643    1.0937    0.6754 N   0  0  0  0  0  0  0  0  0  0  0  0
    2.1531    0.5126    0.4366 C   0  0  0  0  0  0  0  0  0  0  0  0
    3.4698    1.1278    0.6754 C   0  0  0  0  0  0  0  0  0  0  0  0
    4.5367    0.5433    0.4360 O   0  0  0  0  0  0  0  0  0  0  0  0
    3.5414    2.4147    1.1894 O   0  0  0  0  0  0  0  0  0  0  0  0
    3.7681   -1.1902   -0.9463 H   0  0  0  0  0  0  0  0  0  0  0  0
    2.4778   -2.3844   -1.2525 H   0  0  0  0  0  0  0  0  0  0  0  0
    3.2550   -2.3551    0.3820 H   0  0  0  0  0  0  0  0  0  0  0  0
    0.1117   -1.7272   -0.4477 H   0  0  0  0  0  0  0  0  0  0  0  0
   -2.0590   -1.5128    0.3589 H   0  0  0  0  0  0  0  0  0  0  0  0
   -3.5724   -1.1849   -1.5895 H   0  0  0  0  0  0  0  0  0  0  0  0
   -2.9972    0.5513   -1.8166 H   0  0  0  0  0  0  0  0  0  0  0  0
   -4.3628   -0.6688    0.7808 H   0  0  0  0  0  0  0  0  0  0  0  0
   -3.4130    2.0642   -0.1010 H   0  0  0  0  0  0  0  0  0  0  0  0
   -3.3975    1.5869    1.5099 H   0  0  0  0  0  0  0  0  0  0  0  0
    4.3550    3.0122    0.9873 H   0  0  0  0  0  0  0  0  0  0  0  0
  1  2  1  0
  2  3  1  0
  3  4  1  0
  4  5  2  3
  5  6  1  0
  6  7  1  0
  7  8  1  0
  8  9  1  0
  4 10  1  0
 10 11  2  0
 11 12  1  0
 12 13  2  0
 12 14  1  0
 11  2  1  0
  8  6  1  0
  1 15  1  0
  1 16  1  0
  1 17  1  0
  3 18  1  0
  6 19  1  1
  7 20  1  0
  7 21  1  0
  8 22  1  1
  9 23  1  0
  9 24  1  0
 14 25  1  0
M  END
$$$$

     RDKit          3D

 25 26  0  0  0  0  0  0  0  0999 V2000
   -3.1283   -1.2213   -1.1697 C   0  0  0  0  0  0  0  0  0  0  0  0
   -1.8995   -0.7441   -0.5707 N   0  0  0  0  0  0  0  0  0  0  0  0
   -0.8203   -1.4936   -0.3570 N   0  0  0  0  0  0  0  0  0  0  0  0
    0.1287   -0.7358    0.2097 C   0  0  0  0  0  0  0  0  0  0  0  0
    1.2965   -1.1776    0.5397 N   0  0  0  0  0  0  0  0  0  0  0  0
    2.2298   -0.2723    1.1397 C   0  0  2  0  0  0  0  0  0  0  0  0
    2.2391    1.1176    0.5089 C   0  0  0  0  0  0  0  0  0  0  0  0
    3.4381    0.2010    0.4313 C   0  0  2  0  0  0  0  0  0  0  0  0
    3.7517   -0.4275   -0.8217 N   0  0  0  0  0  0  0  0  0  0  0  0
   -0.3667    0.5122    0.3531 N   0  0  0  0  0  0  0  0  0  0  0  0
   -1.6215    0.4955   -0.1328 C   0  0  0  0  0  0  0  0  0  0  0  0
   -2.5681    1.6294   -0.1929 C   0  0  0  0  0  0  0  0  0  0  0  0
   -2.2373    2.7572    0.2354 O   0  0  0  0  0  0  0  0  0  0  0  0
   -3.8248    1.4701   -0.7177 O   0  0  0  0  0  0  0  0  0  0  0  0
   -4.0004   -0.8566   -0.5810 H   0  0  0  0  0  0  0  0  0  0  0  0
   -3.1535   -2.3410   -1.1229 H   0  0  0  0  0  0  0  0  0  0  0  0
   -3.1897   -0.8853   -2.2336 H   0  0  0  0  0  0  0  0  0  0  0  0
   -0.7044   -2.5198   -0.5867 H   0  0  0  0  0  0  0  0  0  0  0  0
    2.2680   -0.3309    2.2463 H   0  0  0  0  0  0  0  0  0  0  0  0
    1.7382    1.2862   -0.4434 H   0  0  0  0  0  0  0  0  0  0  0  0
    2.2439    1.9646    1.2247 H   0  0  0  0  0  0  0  0  0  0  0  0
    4.2847    0.5357    1.0765 H   0  0  0  0  0  0  0  0  0  0  0  0
    4.1596   -1.3681   -0.7331 H   0  0  0  0  0  0  0  0  0  0  0  0
    4.1790    0.1873   -1.5243 H   0  0  0  0  0  0  0  0  0  0  0  0
   -4.4428    2.2172   -1.0042 H   0  0  0  0  0  0  0  0  0  0  0  0
  1  2  1  0
  2  3  1  0
  3  4  1  0
  4  5  2  3
  5  6  1  0
  6  7  1  0
  7  8  1  0
  8  9  1  0
  4 10  1  0
 10 11  2  0
 11 12  1  0
 12 13  2  0
 12 14  1  0
 11  2  1  0
  8  6  1  0
  1 15  1  0
  1 16  1  0
  1 17  1  0
  3 18  1  0
  6 19  1  1
  7 20  1  0
  7 21  1  0
  8 22  1  1
  9 23  1  0
  9 24  1  0
 14 25  1  0
M  END
$$$$
