
     RDKit          3D

 25 26  0  0  0  0  0  0  0  0999 V2000
   -1.2519   -1.5159    1.1164 C   0  0  0  0  0  0  0  0  0  0  0  0
   -1.0292   -0.0973    0.6885 C   0  0  2  0  0  0  0  0  0  0  0  0
   -2.3941    0.5130    0.3615 C   0  0  0  0  0  0  0  0  0  0  0  0
   -2.3298    1.8602    0.1213 O   0  0  0  0  0  0  0  0  0  0  0  0
   -1.1721    2.3082   -0.4557 C   0  0  0  0  0  0  0  0  0  0  0  0
   -0.4541    1.2512   -1.2372 C   0  0  0  0  0  0  0  0  0  0  0  0
   -0.0589    1.4157   -2.4090 O   0  0  0  0  0  0  0  0  0  0  0  0
   -0.2556    0.0223   -0.5225 N   0  0  0  0  0  0  0  0  0  0  0  0
    0.6522   -0.9628   -1.0274 C   0  0  0  0  0  0  0  0  0  0  0  0
    1.9926   -0.6826   -0.4585 C   0  0  0  0  0  0  0  0  0  0  0  0
    2.9022    0.1187   -1.0230 N   0  0  0  0  0  0  0  0  0  0  0  0
    3.9979    0.1518   -0.2534 N   0  0  0  0  0  0  0  0  0  0  0  0
    3.7461   -0.6393    0.7882 N   0  0  0  0  0  0  0  0  0  0  0  0
    2.5363   -1.1585    0.6890 N   0  0  0  0  0  0  0  0  0  0  0  0
   -0.3423   -1.9803    1.5280 H   0  0  0  0  0  0  0  0  0  0  0  0
   -2.0013   -1.4911    1.9460 H   0  0  0  0  0  0  0  0  0  0  0  0
   -1.7236   -2.0929    0.3025 H   0  0  0  0  0  0  0  0  0  0  0  0
   -0.5829    0.5100    1.4753 H   0  0  0  0  0  0  0  0  0  0  0  0
   -3.1047    0.2422    1.1369 H   0  0  0  0  0  0  0  0  0  0  0  0
   -2.7361    0.0260   -0.5976 H   0  0  0  0  0  0  0  0  0  0  0  0
   -0.4940    2.7174    0.3456 H   0  0  0  0  0  0  0  0  0  0  0  0
   -1.3724    3.1405   -1.1377 H   0  0  0  0  0  0  0  0  0  0  0  0
    0.3364   -2.0028   -0.8073 H   0  0  0  0  0  0  0  0  0  0  0  0
    0.7082   -0.8486   -2.1292 H   0  0  0  0  0  0  0  0  0  0  0  0
    4.4311   -0.8051    1.5593 H   0  0  0  0  0  0  0  0  0  0  0  0
  1  2  1  0
  2  3  1  0
  3  4  1  0
  4  5  1  0
  5  6  1  0
  6  7  2  0
  6  8  1  0
  8  9  1  0
  9 10  1  0
 10 11  1  0
 11 12  2  0
 12 13  1  0
 13 14  1  0
  8  2  1  0
 14 10  2  0
  1 15  1  0
  1 16  1  0
  1 17  1  0
  2 18  1  1
  3 19  1  0
  3 20  1  0
  5 21  1  0
  5 22  1  0
  9 23  1  0
  9 24  1  0
 13 25  1  0
M  END
$$$$

     RDKit          3D

 25 26  0  0  0  0  0  0  0  0999 V2000
   -1.7574   -1.4612    0.6508 C   0  0  0  0  0  0  0  0  0  0  0  0
   -1.2139   -0.0571    0.6501 C   0  0  2  0  0  0  0  0  0  0  0  0
   -2.3682    0.8496    0.1972 C   0  0  0  0  0  0  0  0  0  0  0  0
   -1.9729    2.1479    0.4305 O   0  0  0  0  0  0  0  0  0  0  0  0
   -0.8350    2.5229   -0.2335 C   0  0  0  0  0  0  0  0  0  0  0  0
   -0.1880    1.4178   -0.9871 C   0  0  0  0  0  0  0  0  0  0  0  0
    0.3476    1.5845   -2.1157 O   0  0  0  0  0  0  0  0  0  0  0  0
   -0.1906    0.1264   -0.3793 N   0  0  0  0  0  0  0  0  0  0  0  0
    0.7377   -0.8832   -0.7621 C   0  0  0  0  0  0  0  0  0  0  0  0
    1.9988   -0.8347    0.0497 C   0  0  0  0  0  0  0  0  0  0  0  0
    2.3242    0.0106    1.0398 N   0  0  0  0  0  0  0  0  0  0  0  0
    3.5326   -0.3190    1.4652 N   0  0  0  0  0  0  0  0  0  0  0  0
    3.9930   -1.3401    0.7879 N   0  0  0  0  0  0  0  0  0  0  0  0
    3.0513   -1.6608   -0.0850 N   0  0  0  0  0  0  0  0  0  0  0  0
   -2.0205   -1.7284   -0.3927 H   0  0  0  0  0  0  0  0  0  0  0  0
   -2.6745   -1.4437    1.2865 H   0  0  0  0  0  0  0  0  0  0  0  0
   -1.0834   -2.2025    1.0700 H   0  0  0  0  0  0  0  0  0  0  0  0
   -0.8819    0.2808    1.6382 H   0  0  0  0  0  0  0  0  0  0  0  0
   -2.5145    0.7103   -0.9031 H   0  0  0  0  0  0  0  0  0  0  0  0
   -3.2901    0.6281    0.7296 H   0  0  0  0  0  0  0  0  0  0  0  0
   -0.0745    2.9035    0.4792 H   0  0  0  0  0  0  0  0  0  0  0  0
   -1.0738    3.3676   -0.9119 H   0  0  0  0  0  0  0  0  0  0  0  0
    0.9735   -0.8797   -1.8505 H   0  0  0  0  0  0  0  0  0  0  0  0
    0.2798   -1.8809   -0.5342 H   0  0  0  0  0  0  0  0  0  0  0  0
    4.9007   -1.8586    0.8536 H   0  0  0  0  0  0  0  0  0  0  0  0
  1  2  1  0
  2  3  1  0
  3  4  1  0
  4  5  1  0
  5  6  1  0
  6  7  2  0
  6  8  1  0
  8  9  1  0
  9 10  1  0
 10 11  1  0
 11 12  2  0
 12 13  1  0
 13 14  1  0
  8  2  1  0
 14 10  2  0
  1 15  1  0
  1 16  1  0
  1 17  1  0
  2 18  1  1
  3 19  1  0
  3 20  1  0
  5 21  1  0
  5 22  1  0
  9 23  1  0
  9 24  1  0
 13 25  1  0
M  END
$$$$

     RDKit          3D

 25 26  0  0  0  0  0  0  0  0999 V2000
   -0.3962   -0.1915    1.9152 C   0  0  0  0  0  0  0  0  0  0  0  0
   -0.9786    0.6576    0.7958 C   0  0  2  0  0  0  0  0  0  0  0  0
   -2.4381    0.3163    0.6976 C   0  0  0  0  0  0  0  0  0  0  0  0
   -2.9569    0.3758   -0.5690 O   0  0  0  0  0  0  0  0  0  0  0  0
   -2.3863   -0.5585   -1.4317 C   0  0  0  0  0  0  0  0  0  0  0  0
   -0.9065   -0.2972   -1.4619 C   0  0  0  0  0  0  0  0  0  0  0  0
   -0.2128   -0.7609   -2.3840 O   0  0  0  0  0  0  0  0  0  0  0  0
   -0.2684    0.4757   -0.4524 N   0  0  0  0  0  0  0  0  0  0  0  0
    1.0345    1.0731   -0.6297 C   0  0  0  0  0  0  0  0  0  0  0  0
    2.1265    0.1612   -0.2065 C   0  0  0  0  0  0  0  0  0  0  0  0
    2.0147   -1.0896    0.2703 N   0  0  0  0  0  0  0  0  0  0  0  0
    3.2108   -1.5877    0.5401 N   0  0  0  0  0  0  0  0  0  0  0  0
    4.0767   -0.6420    0.2300 N   0  0  0  0  0  0  0  0  0  0  0  0
    3.4434    0.4250   -0.2237 N   0  0  0  0  0  0  0  0  0  0  0  0
    0.5613    0.1933    2.2881 H   0  0  0  0  0  0  0  0  0  0  0  0
   -0.3985   -1.2693    1.6740 H   0  0  0  0  0  0  0  0  0  0  0  0
   -1.1152   -0.0898    2.7810 H   0  0  0  0  0  0  0  0  0  0  0  0
   -0.8378    1.7179    1.1154 H   0  0  0  0  0  0  0  0  0  0  0  0
   -2.6520   -0.6782    1.1880 H   0  0  0  0  0  0  0  0  0  0  0  0
   -2.9878    1.0561    1.3216 H   0  0  0  0  0  0  0  0  0  0  0  0
   -2.7583   -0.3208   -2.4503 H   0  0  0  0  0  0  0  0  0  0  0  0
   -2.6059   -1.5916   -1.1521 H   0  0  0  0  0  0  0  0  0  0  0  0
    1.0852    2.0450   -0.0648 H   0  0  0  0  0  0  0  0  0  0  0  0
    1.2392    1.3437   -1.6891 H   0  0  0  0  0  0  0  0  0  0  0  0
    5.1071   -0.7639    0.3436 H   0  0  0  0  0  0  0  0  0  0  0  0
  1  2  1  0
  2  3  1  0
  3  4  1  0
  4  5  1  0
  5  6  1  0
  6  7  2  0
  6  8  1  0
  8  9  1  0
  9 10  1  0
 10 11  1  0
 11 12  2  0
 12 13  1  0
 13 14  1  0
  8  2  1  0
 14 10  2  0
  1 15  1  0
  1 16  1  0
  1 17  1  0
  2 18  1  1
  3 19  1  0
  3 20  1  0
  5 21  1  0
  5 22  1  0
  9 23  1  0
  9 24  1  0
 13 25  1  0
M  END
$$$$

     RDKit          3D

 25 26  0  0  0  0  0  0  0  0999 V2000
   -1.7966   -1.6242   -0.4539 C   0  0  0  0  0  0  0  0  0  0  0  0
   -1.0438   -0.5898    0.3317 C   0  0  2  0  0  0  0  0  0  0  0  0
   -1.9493    0.3768    1.0587 C   0  0  0  0  0  0  0  0  0  0  0  0
   -2.5255    1.3180    0.2377 O   0  0  0  0  0  0  0  0  0  0  0  0
   -1.6062    2.1658   -0.3628 C   0  0  0  0  0  0  0  0  0  0  0  0
   -0.3989    1.4624   -0.8333 C   0  0  0  0  0  0  0  0  0  0  0  0
    0.4138    2.0883   -1.5551 O   0  0  0  0  0  0  0  0  0  0  0  0
   -0.0988    0.1113   -0.5168 N   0  0  0  0  0  0  0  0  0  0  0  0
    1.0488   -0.6184   -0.9585 C   0  0  0  0  0  0  0  0  0  0  0  0
    2.2046   -0.5155   -0.0501 C   0  0  0  0  0  0  0  0  0  0  0  0
    3.3751   -1.1334   -0.2968 N   0  0  0  0  0  0  0  0  0  0  0  0
    4.2028   -0.8507    0.6913 N   0  0  0  0  0  0  0  0  0  0  0  0
    3.6012   -0.0731    1.5613 N   0  0  0  0  0  0  0  0  0  0  0  0
    2.3656    0.1374    1.1079 N   0  0  0  0  0  0  0  0  0  0  0  0
   -2.7514   -1.8284    0.0945 H   0  0  0  0  0  0  0  0  0  0  0  0
   -1.9737   -1.3365   -1.5105 H   0  0  0  0  0  0  0  0  0  0  0  0
   -1.1919   -2.5630   -0.4477 H   0  0  0  0  0  0  0  0  0  0  0  0
   -0.4402   -1.1087    1.1122 H   0  0  0  0  0  0  0  0  0  0  0  0
   -2.7692   -0.2191    1.5097 H   0  0  0  0  0  0  0  0  0  0  0  0
   -1.3654    0.8142    1.8954 H   0  0  0  0  0  0  0  0  0  0  0  0
   -1.3977    3.0220    0.2946 H   0  0  0  0  0  0  0  0  0  0  0  0
   -2.1085    2.5862   -1.2763 H   0  0  0  0  0  0  0  0  0  0  0  0
    0.7869   -1.6895   -1.0676 H   0  0  0  0  0  0  0  0  0  0  0  0
    1.3715   -0.2178   -1.9436 H   0  0  0  0  0  0  0  0  0  0  0  0
    4.0466    0.2859    2.4272 H   0  0  0  0  0  0  0  0  0  0  0  0
  1  2  1  0
  2  3  1  0
  3  4  1  0
  4  5  1  0
  5  6  1  0
  6  7  2  0
  6  8  1  0
  8  9  1  0
  9 10  1  0
 10 11  1  0
 11 12  2  0
 12 13  1  0
 13 14  1  0
  8  2  1  0
 14 10  2  0
  1 15  1  0
  1 16  1  0
  1 17  1  0
  2 18  1  1
  3 19  1  0
  3 20  1  0
  5 21  1  0
  5 22  1  0
  9 23  1  0
  9 24  1  0
 13 25  1  0
M  END
$$$$

     RDKit          3D

 25 26  0  0  0  0  0  0  0  0999 V2000
   -1.5291    1.5343   -0.6678 C   0  0  0  0  0  0  0  0  0  0  0  0
   -1.0641    0.0926   -0.6156 C   0  0  2  0  0  0  0  0  0  0  0  0
   -2.3099   -0.7654   -0.6097 C   0  0  0  0  0  0  0  0  0  0  0  0
   -2.0876   -2.0907   -0.4468 O   0  0  0  0  0  0  0  0  0  0  0  0
   -1.1090   -2.4867    0.4059 C   0  0  0  0  0  0  0  0  0  0  0  0
   -0.4102   -1.4484    1.1537 C   0  0  0  0  0  0  0  0  0  0  0  0
    0.0439   -1.6337    2.2999 O   0  0  0  0  0  0  0  0  0  0  0  0
   -0.2411   -0.1737    0.5486 N   0  0  0  0  0  0  0  0  0  0  0  0
    0.6633    0.8275    1.0066 C   0  0  0  0  0  0  0  0  0  0  0  0
    2.0063    0.7330    0.3951 C   0  0  0  0  0  0  0  0  0  0  0  0
    2.4978   -0.1298   -0.5052 N   0  0  0  0  0  0  0  0  0  0  0  0
    3.7513    0.1990   -0.7353 N   0  0  0  0  0  0  0  0  0  0  0  0
    4.0613    1.2368   -0.0111 N   0  0  0  0  0  0  0  0  0  0  0  0
    3.0094    1.5790    0.6870 N   0  0  0  0  0  0  0  0  0  0  0  0
   -0.7694    2.2048   -1.1126 H   0  0  0  0  0  0  0  0  0  0  0  0
   -1.8639    1.8420    0.3262 H   0  0  0  0  0  0  0  0  0  0  0  0
   -2.4044    1.5550   -1.3493 H   0  0  0  0  0  0  0  0  0  0  0  0
   -0.4795   -0.1462   -1.5289 H   0  0  0  0  0  0  0  0  0  0  0  0
   -2.9953   -0.3066    0.1556 H   0  0  0  0  0  0  0  0  0  0  0  0
   -2.8126   -0.6028   -1.5895 H   0  0  0  0  0  0  0  0  0  0  0  0
   -1.5813   -3.1772    1.1647 H   0  0  0  0  0  0  0  0  0  0  0  0
   -0.4110   -3.1589   -0.1627 H   0  0  0  0  0  0  0  0  0  0  0  0
    0.2663    1.8422    0.7434 H   0  0  0  0  0  0  0  0  0  0  0  0
    0.7939    0.7111    2.1006 H   0  0  0  0  0  0  0  0  0  0  0  0
    4.9749    1.7627    0.0551 H   0  0  0  0  0  0  0  0  0  0  0  0
  1  2  1  0
  2  3  1  0
  3  4  1  0
  4  5  1  0
  5  6  1  0
  6  7  2  0
  6  8  1  0
  8  9  1  0
  9 10  1  0
 10 11  1  0
 11 12  2  0
 12 13  1  0
 13 14  1  0
  8  2  1  0
 14 10  2  0
  1 15  1  0
  1 16  1  0
  1 17  1  0
  2 18  1  6
  3 19  1  0
  3 20  1  0
  5 21  1  0
  5 22  1  0
  9 23  1  0
  9 24  1  0
 13 25  1  0
M  END
$$$$

     RDKit          3D

 25 26  0  0  0  0  0  0  0  0999 V2000
   -0.2867    1.8169    0.0090 C   0  0  0  0  0  0  0  0  0  0  0  0
   -0.9931    0.5836   -0.4519 C   0  0  2  0  0  0  0  0  0  0  0  0
   -2.3387    0.5494    0.2818 C   0  0  0  0  0  0  0  0  0  0  0  0
   -2.9893   -0.6375    0.0554 O   0  0  0  0  0  0  0  0  0  0  0  0
   -2.3517   -1.6203    0.8436 C   0  0  0  0  0  0  0  0  0  0  0  0
   -0.8904   -1.6744    0.4924 C   0  0  0  0  0  0  0  0  0  0  0  0
   -0.2612   -2.6856    0.8940 O   0  0  0  0  0  0  0  0  0  0  0  0
   -0.2664   -0.6418   -0.2481 N   0  0  0  0  0  0  0  0  0  0  0  0
    1.0543   -0.8064   -0.7870 C   0  0  0  0  0  0  0  0  0  0  0  0
    2.1337   -0.3807    0.1402 C   0  0  0  0  0  0  0  0  0  0  0  0
    2.7875   -1.0679    1.0947 N   0  0  0  0  0  0  0  0  0  0  0  0
    3.6882   -0.2584    1.6767 N   0  0  0  0  0  0  0  0  0  0  0  0
    3.6082    0.9215    1.1028 N   0  0  0  0  0  0  0  0  0  0  0  0
    2.6699    0.8518    0.1736 N   0  0  0  0  0  0  0  0  0  0  0  0
    0.1466    1.7089    1.0208 H   0  0  0  0  0  0  0  0  0  0  0  0
    0.4152    2.2314   -0.7390 H   0  0  0  0  0  0  0  0  0  0  0  0
   -1.0798    2.6132    0.1240 H   0  0  0  0  0  0  0  0  0  0  0  0
   -1.2332    0.7133   -1.5295 H   0  0  0  0  0  0  0  0  0  0  0  0
   -2.9341    1.3859   -0.1507 H   0  0  0  0  0  0  0  0  0  0  0  0
   -2.1217    0.7298    1.3671 H   0  0  0  0  0  0  0  0  0  0  0  0
   -2.4526   -1.3934    1.9192 H   0  0  0  0  0  0  0  0  0  0  0  0
   -2.8623   -2.5726    0.6191 H   0  0  0  0  0  0  0  0  0  0  0  0
    1.2603   -1.8847   -1.0604 H   0  0  0  0  0  0  0  0  0  0  0  0
    1.1495   -0.2768   -1.7818 H   0  0  0  0  0  0  0  0  0  0  0  0
    4.1477    1.7949    1.2893 H   0  0  0  0  0  0  0  0  0  0  0  0
  1  2  1  0
  2  3  1  0
  3  4  1  0
  4  5  1  0
  5  6  1  0
  6  7  2  0
  6  8  1  0
  8  9  1  0
  9 10  1  0
 10 11  1  0
 11 12  2  0
 12 13  1  0
 13 14  1  0
  8  2  1  0
 14 10  2  0
  1 15  1  0
  1 16  1  0
  1 17  1  0
  2 18  1  6
  3 19  1  0
  3 20  1  0
  5 21  1  0
  5 22  1  0
  9 23  1  0
  9 24  1  0
 13 25  1  0
M  END
$$$$

     RDKit          3D

 25 26  0  0  0  0  0  0  0  0999 V2000
   -1.0769    1.1967    1.2576 C   0  0  0  0  0  0  0  0  0  0  0  0
   -1.4384    0.3591    0.0508 C   0  0  2  0  0  0  0  0  0  0  0  0
   -2.2540   -0.8050    0.5053 C   0  0  0  0  0  0  0  0  0  0  0  0
   -2.2524   -1.8692   -0.3825 O   0  0  0  0  0  0  0  0  0  0  0  0
   -1.0080   -2.3895   -0.6273 C   0  0  0  0  0  0  0  0  0  0  0  0
   -0.1668   -1.3378   -1.2524 C   0  0  0  0  0  0  0  0  0  0  0  0
    0.6134   -1.6089   -2.2268 O   0  0  0  0  0  0  0  0  0  0  0  0
   -0.2725   -0.0284   -0.7177 N   0  0  0  0  0  0  0  0  0  0  0  0
    0.7894    0.9170   -0.9442 C   0  0  0  0  0  0  0  0  0  0  0  0
    1.7846    0.8032    0.1636 C   0  0  0  0  0  0  0  0  0  0  0  0
    1.7538   -0.0266    1.2291 N   0  0  0  0  0  0  0  0  0  0  0  0
    2.8379    0.2075    1.9632 N   0  0  0  0  0  0  0  0  0  0  0  0
    3.5573    1.1575    1.4018 N   0  0  0  0  0  0  0  0  0  0  0  0
    2.9145    1.5170    0.3087 N   0  0  0  0  0  0  0  0  0  0  0  0
   -0.2784    1.9255    1.0524 H   0  0  0  0  0  0  0  0  0  0  0  0
   -1.9855    1.7997    1.5102 H   0  0  0  0  0  0  0  0  0  0  0  0
   -0.8661    0.5609    2.1173 H   0  0  0  0  0  0  0  0  0  0  0  0
   -2.0532    1.0362   -0.6111 H   0  0  0  0  0  0  0  0  0  0  0  0
   -1.8924   -1.1258    1.5230 H   0  0  0  0  0  0  0  0  0  0  0  0
   -3.3061   -0.4649    0.6031 H   0  0  0  0  0  0  0  0  0  0  0  0
   -1.1090   -3.2025   -1.3610 H   0  0  0  0  0  0  0  0  0  0  0  0
   -0.4903   -2.7629    0.2774 H   0  0  0  0  0  0  0  0  0  0  0  0
    1.3087    0.6340   -1.8688 H   0  0  0  0  0  0  0  0  0  0  0  0
    0.4315    1.9685   -1.0216 H   0  0  0  0  0  0  0  0  0  0  0  0
    4.4591    1.5390    1.7660 H   0  0  0  0  0  0  0  0  0  0  0  0
  1  2  1  0
  2  3  1  0
  3  4  1  0
  4  5  1  0
  5  6  1  0
  6  7  2  0
  6  8  1  0
  8  9  1  0
  9 10  1  0
 10 11  1  0
 11 12  2  0
 12 13  1  0
 13 14  1  0
  8  2  1  0
 14 10  2  0
  1 15  1  0
  1 16  1  0
  1 17  1  0
  2 18  1  6
  3 19  1  0
  3 20  1  0
  5 21  1  0
  5 22  1  0
  9 23  1  0
  9 24  1  0
 13 25  1  0
M  END
$$$$

     RDKit          3D

 25 26  0  0  0  0  0  0  0  0999 V2000
   -2.1019   -1.5068   -0.0401 C   0  0  0  0  0  0  0  0  0  0  0  0
   -1.0158   -0.6543    0.6027 C   0  0  2  0  0  0  0  0  0  0  0  0
   -1.6465    0.3968    1.4547 C   0  0  0  0  0  0  0  0  0  0  0  0
   -2.3345    1.3635    0.7532 O   0  0  0  0  0  0  0  0  0  0  0  0
   -1.6081    2.0528   -0.1721 C   0  0  0  0  0  0  0  0  0  0  0  0
   -0.4894    1.2913   -0.7652 C   0  0  0  0  0  0  0  0  0  0  0  0
    0.2125    1.8909   -1.6296 O   0  0  0  0  0  0  0  0  0  0  0  0
   -0.1778   -0.0496   -0.4146 N   0  0  0  0  0  0  0  0  0  0  0  0
    0.9075   -0.7889   -1.0232 C   0  0  0  0  0  0  0  0  0  0  0  0
    2.1862   -0.6247   -0.2874 C   0  0  0  0  0  0  0  0  0  0  0  0
    2.6944   -1.3454    0.7183 N   0  0  0  0  0  0  0  0  0  0  0  0
    3.8577   -0.8040    1.0320 N   0  0  0  0  0  0  0  0  0  0  0  0
    4.1035    0.2274    0.2660 N   0  0  0  0  0  0  0  0  0  0  0  0
    3.0740    0.3437   -0.5518 N   0  0  0  0  0  0  0  0  0  0  0  0
   -1.6812   -2.1293   -0.8293 H   0  0  0  0  0  0  0  0  0  0  0  0
   -2.9349   -0.8801   -0.3818 H   0  0  0  0  0  0  0  0  0  0  0  0
   -2.4867   -2.1746    0.7812 H   0  0  0  0  0  0  0  0  0  0  0  0
   -0.3636   -1.2727    1.2587 H   0  0  0  0  0  0  0  0  0  0  0  0
   -2.3922   -0.1133    2.1145 H   0  0  0  0  0  0  0  0  0  0  0  0
   -0.8912    0.8331    2.1584 H   0  0  0  0  0  0  0  0  0  0  0  0
   -2.2839    2.3486   -1.0027 H   0  0  0  0  0  0  0  0  0  0  0  0
   -1.1656    3.0115    0.2153 H   0  0  0  0  0  0  0  0  0  0  0  0
    0.6179   -1.8593   -1.0656 H   0  0  0  0  0  0  0  0  0  0  0  0
    0.9997   -0.4300   -2.0695 H   0  0  0  0  0  0  0  0  0  0  0  0
    4.9200    0.8735    0.2447 H   0  0  0  0  0  0  0  0  0  0  0  0
  1  2  1  0
  2  3  1  0
  3  4  1  0
  4  5  1  0
  5  6  1  0
  6  7  2  0
  6  8  1  0
  8  9  1  0
  9 10  1  0
 10 11  1  0
 11 12  2  0
 12 13  1  0
 13 14  1  0
  8  2  1  0
 14 10  2  0
  1 15  1  0
  1 16  1  0
  1 17  1  0
  2 18  1  1
  3 19  1  0
  3 20  1  0
  5 21  1  0
  5 22  1  0
  9 23  1  0
  9 24  1  0
 13 25  1  0
M  END
$$$$
