
     RDKit          3D

 26 25  0  0  0  0  0  0  0  0999 V2000
   -2.1670   -1.5591    0.0953 C   0  0  0  0  0  0  0  0  0  0  0  0
   -1.9423   -0.0707    0.3976 C   0  0  2  0  0  0  0  0  0  0  0  0
   -3.0841    0.6277   -0.1016 N   0  0  0  0  0  0  0  0  0  0  0  0
   -3.9823    1.2777    0.7884 C   0  0  0  0  0  0  0  0  0  0  0  0
   -3.7395    1.2175    2.0192 O   0  0  0  0  0  0  0  0  0  0  0  0
   -0.6710    0.3487   -0.2231 C   0  0  0  0  0  0  0  0  0  0  0  0
   -0.6385    1.2413   -1.1057 O   0  0  0  0  0  0  0  0  0  0  0  0
    0.5596   -0.2439    0.1576 N   0  0  0  0  0  0  0  0  0  0  0  0
    1.7788    0.2057   -0.4842 C   0  0  2  0  0  0  0  0  0  0  0  0
    2.3748   -0.9573   -1.2887 C   0  0  0  0  0  0  0  0  0  0  0  0
    2.8092    0.6096    0.4873 C   0  0  0  0  0  0  0  0  0  0  0  0
    4.0693    1.0777    0.0378 N   0  0  0  0  0  0  0  0  0  0  0  0
    2.6084    0.5533    1.7236 O   0  0  0  0  0  0  0  0  0  0  0  0
   -1.9016   -1.7518   -0.9650 H   0  0  0  0  0  0  0  0  0  0  0  0
   -3.2561   -1.7379    0.2077 H   0  0  0  0  0  0  0  0  0  0  0  0
   -1.6000   -2.1962    0.8006 H   0  0  0  0  0  0  0  0  0  0  0  0
   -1.8992   -0.0113    1.5097 H   0  0  0  0  0  0  0  0  0  0  0  0
   -3.3063    0.6915   -1.1181 H   0  0  0  0  0  0  0  0  0  0  0  0
   -4.8548    1.8167    0.4738 H   0  0  0  0  0  0  0  0  0  0  0  0
    0.6079   -1.0065    0.8993 H   0  0  0  0  0  0  0  0  0  0  0  0
    1.5585    0.9969   -1.2257 H   0  0  0  0  0  0  0  0  0  0  0  0
    1.6483   -1.3112   -2.0326 H   0  0  0  0  0  0  0  0  0  0  0  0
    3.2857   -0.5532   -1.7691 H   0  0  0  0  0  0  0  0  0  0  0  0
    2.6845   -1.7213   -0.5584 H   0  0  0  0  0  0  0  0  0  0  0  0
    4.7695    0.3756   -0.2980 H   0  0  0  0  0  0  0  0  0  0  0  0
    4.2881    2.0806    0.0422 H   0  0  0  0  0  0  0  0  0  0  0  0
  1  2  1  0
  2  3  1  0
  3  4  1  0
  4  5  2  0
  2  6  1  0
  6  7  2  0
  6  8  1  0
  8  9  1  0
  9 10  1  0
  9 11  1  0
 11 12  1  0
 11 13  2  0
  1 14  1  0
  1 15  1  0
  1 16  1  0
  2 17  1  1
  3 18  1  0
  4 19  1  0
  8 20  1  0
  9 21  1  6
 10 22  1  0
 10 23  1  0
 10 24  1  0
 12 25  1  0
 12 26  1  0
M  END
$$$$

     RDKit          3D

 26 25  0  0  0  0  0  0  0  0999 V2000
   -2.0532   -0.9348    1.2334 C   0  0  0  0  0  0  0  0  0  0  0  0
   -2.0398   -0.2225   -0.1276 C   0  0  2  0  0  0  0  0  0  0  0  0
   -2.9096   -0.8951   -1.0624 N   0  0  0  0  0  0  0  0  0  0  0  0
   -3.9580   -0.1611   -1.6643 C   0  0  0  0  0  0  0  0  0  0  0  0
   -4.1561    1.0608   -1.4100 O   0  0  0  0  0  0  0  0  0  0  0  0
   -0.6112   -0.2891   -0.5829 C   0  0  0  0  0  0  0  0  0  0  0  0
   -0.3562   -0.8738   -1.6371 O   0  0  0  0  0  0  0  0  0  0  0  0
    0.4429    0.2980    0.1620 N   0  0  0  0  0  0  0  0  0  0  0  0
    1.8319    0.2598   -0.2356 C   0  0  2  0  0  0  0  0  0  0  0  0
    2.5439   -0.6031    0.8180 C   0  0  0  0  0  0  0  0  0  0  0  0
    2.4595    1.5738   -0.3440 C   0  0  0  0  0  0  0  0  0  0  0  0
    3.8077    1.7060   -0.7210 N   0  0  0  0  0  0  0  0  0  0  0  0
    1.8349    2.6227   -0.1100 O   0  0  0  0  0  0  0  0  0  0  0  0
   -1.2608   -0.4455    1.8374 H   0  0  0  0  0  0  0  0  0  0  0  0
   -3.0493   -0.9008    1.6953 H   0  0  0  0  0  0  0  0  0  0  0  0
   -1.7191   -1.9893    1.0516 H   0  0  0  0  0  0  0  0  0  0  0  0
   -2.3408    0.8168   -0.0187 H   0  0  0  0  0  0  0  0  0  0  0  0
   -2.7927   -1.9096   -1.3122 H   0  0  0  0  0  0  0  0  0  0  0  0
   -4.6371   -0.6332   -2.3762 H   0  0  0  0  0  0  0  0  0  0  0  0
    0.1655    0.7793    1.0460 H   0  0  0  0  0  0  0  0  0  0  0  0
    1.9795   -0.2827   -1.1927 H   0  0  0  0  0  0  0  0  0  0  0  0
    3.4549   -0.9878    0.3592 H   0  0  0  0  0  0  0  0  0  0  0  0
    1.9061   -1.4438    1.1395 H   0  0  0  0  0  0  0  0  0  0  0  0
    2.7766   -0.0015    1.7262 H   0  0  0  0  0  0  0  0  0  0  0  0
    4.1854    2.4131   -1.3863 H   0  0  0  0  0  0  0  0  0  0  0  0
    4.4952    1.0433   -0.3032 H   0  0  0  0  0  0  0  0  0  0  0  0
  1  2  1  0
  2  3  1  0
  3  4  1  0
  4  5  2  0
  2  6  1  0
  6  7  2  0
  6  8  1  0
  8  9  1  0
  9 10  1  0
  9 11  1  0
 11 12  1  0
 11 13  2  0
  1 14  1  0
  1 15  1  0
  1 16  1  0
  2 17  1  1
  3 18  1  0
  4 19  1  0
  8 20  1  0
  9 21  1  6
 10 22  1  0
 10 23  1  0
 10 24  1  0
 12 25  1  0
 12 26  1  0
M  END
$$$$

     RDKit          3D

 26 25  0  0  0  0  0  0  0  0999 V2000
    2.2596   -1.5612    0.0720 C   0  0  0  0  0  0  0  0  0  0  0  0
    2.0070   -0.1221   -0.3610 C   0  0  2  0  0  0  0  0  0  0  0  0
    3.0352    0.7667    0.1244 N   0  0  0  0  0  0  0  0  0  0  0  0
    3.8721    1.4781   -0.7961 C   0  0  0  0  0  0  0  0  0  0  0  0
    3.7335    1.3475   -2.0342 O   0  0  0  0  0  0  0  0  0  0  0  0
    0.6836    0.3252    0.1471 C   0  0  0  0  0  0  0  0  0  0  0  0
    0.5683    1.3363    0.8836 O   0  0  0  0  0  0  0  0  0  0  0  0
   -0.5109   -0.3707   -0.1773 N   0  0  0  0  0  0  0  0  0  0  0  0
   -1.7710    0.0617    0.3111 C   0  0  2  0  0  0  0  0  0  0  0  0
   -2.4856   -0.9261    1.1849 C   0  0  0  0  0  0  0  0  0  0  0  0
   -2.6922    0.5118   -0.7923 C   0  0  0  0  0  0  0  0  0  0  0  0
   -3.9869    0.9692   -0.4331 N   0  0  0  0  0  0  0  0  0  0  0  0
   -2.3668    0.4987   -1.9922 O   0  0  0  0  0  0  0  0  0  0  0  0
    3.0215   -1.5248    0.8700 H   0  0  0  0  0  0  0  0  0  0  0  0
    1.3158   -2.0063    0.4720 H   0  0  0  0  0  0  0  0  0  0  0  0
    2.6064   -2.1839   -0.7848 H   0  0  0  0  0  0  0  0  0  0  0  0
    2.0210   -0.1202   -1.4835 H   0  0  0  0  0  0  0  0  0  0  0  0
    3.1412    0.8672    1.1495 H   0  0  0  0  0  0  0  0  0  0  0  0
    4.6178    2.1233   -0.3623 H   0  0  0  0  0  0  0  0  0  0  0  0
   -0.4354   -1.2307   -0.8005 H   0  0  0  0  0  0  0  0  0  0  0  0
   -1.6141    0.9685    0.9343 H   0  0  0  0  0  0  0  0  0  0  0  0
   -3.5794   -0.7660    1.0596 H   0  0  0  0  0  0  0  0  0  0  0  0
   -2.2013   -0.7809    2.2298 H   0  0  0  0  0  0  0  0  0  0  0  0
   -2.2924   -1.9800    0.9248 H   0  0  0  0  0  0  0  0  0  0  0  0
   -4.7847    0.3285   -0.2519 H   0  0  0  0  0  0  0  0  0  0  0  0
   -4.1625    1.9902   -0.3426 H   0  0  0  0  0  0  0  0  0  0  0  0
  1  2  1  0
  2  3  1  0
  3  4  1  0
  4  5  2  0
  2  6  1  0
  6  7  2  0
  6  8  1  0
  8  9  1  0
  9 10  1  0
  9 11  1  0
 11 12  1  0
 11 13  2  0
  1 14  1  0
  1 15  1  0
  1 16  1  0
  2 17  1  6
  3 18  1  0
  4 19  1  0
  8 20  1  0
  9 21  1  1
 10 22  1  0
 10 23  1  0
 10 24  1  0
 12 25  1  0
 12 26  1  0
M  END
$$$$

     RDKit          3D

 26 25  0  0  0  0  0  0  0  0999 V2000
    2.2415   -1.0200   -0.9347 C   0  0  0  0  0  0  0  0  0  0  0  0
    1.9882    0.2766   -0.1926 C   0  0  2  0  0  0  0  0  0  0  0  0
    3.0291    0.4985    0.7670 N   0  0  0  0  0  0  0  0  0  0  0  0
    3.8675    1.6293    0.6848 C   0  0  0  0  0  0  0  0  0  0  0  0
    3.7065    2.4627   -0.2432 O   0  0  0  0  0  0  0  0  0  0  0  0
    0.6668    0.1416    0.4786 C   0  0  0  0  0  0  0  0  0  0  0  0
    0.5612    0.2233    1.7254 O   0  0  0  0  0  0  0  0  0  0  0  0
   -0.5270   -0.0847   -0.2595 N   0  0  0  0  0  0  0  0  0  0  0  0
   -1.8313   -0.2214    0.3602 C   0  0  2  0  0  0  0  0  0  0  0  0
   -2.3501   -1.6099    0.0440 C   0  0  0  0  0  0  0  0  0  0  0  0
   -2.7649    0.8344   -0.1058 C   0  0  0  0  0  0  0  0  0  0  0  0
   -4.0902    0.8453    0.4058 N   0  0  0  0  0  0  0  0  0  0  0  0
   -2.4299    1.7185   -0.9346 O   0  0  0  0  0  0  0  0  0  0  0  0
    1.2836   -1.5237   -1.1652 H   0  0  0  0  0  0  0  0  0  0  0  0
    2.8351   -0.8456   -1.8669 H   0  0  0  0  0  0  0  0  0  0  0  0
    2.8598   -1.6708   -0.2562 H   0  0  0  0  0  0  0  0  0  0  0  0
    1.9831    1.0869   -0.9261 H   0  0  0  0  0  0  0  0  0  0  0  0
    3.2055   -0.1726    1.5663 H   0  0  0  0  0  0  0  0  0  0  0  0
    4.6595    1.8199    1.3954 H   0  0  0  0  0  0  0  0  0  0  0  0
   -0.4274   -0.1509   -1.2944 H   0  0  0  0  0  0  0  0  0  0  0  0
   -1.7390   -0.1234    1.4571 H   0  0  0  0  0  0  0  0  0  0  0  0
   -3.4630   -1.5584    0.0991 H   0  0  0  0  0  0  0  0  0  0  0  0
   -2.0583   -1.9334   -0.9780 H   0  0  0  0  0  0  0  0  0  0  0  0
   -2.0337   -2.3253    0.8142 H   0  0  0  0  0  0  0  0  0  0  0  0
   -4.3267    0.3158    1.2825 H   0  0  0  0  0  0  0  0  0  0  0  0
   -4.8460    1.3873   -0.0942 H   0  0  0  0  0  0  0  0  0  0  0  0
  1  2  1  0
  2  3  1  0
  3  4  1  0
  4  5  2  0
  2  6  1  0
  6  7  2  0
  6  8  1  0
  8  9  1  0
  9 10  1  0
  9 11  1  0
 11 12  1  0
 11 13  2  0
  1 14  1  0
  1 15  1  0
  1 16  1  0
  2 17  1  6
  3 18  1  0
  4 19  1  0
  8 20  1  0
  9 21  1  1
 10 22  1  0
 10 23  1  0
 10 24  1  0
 12 25  1  0
 12 26  1  0
M  END
$$$$

     RDKit          3D

 26 25  0  0  0  0  0  0  0  0999 V2000
   -2.2812    0.1465    1.0643 C   0  0  0  0  0  0  0  0  0  0  0  0
   -2.0249   -0.2822   -0.3743 C   0  0  2  0  0  0  0  0  0  0  0  0
   -2.7621   -1.4515   -0.7416 N   0  0  0  0  0  0  0  0  0  0  0  0
   -3.6873   -1.4044   -1.8215 C   0  0  0  0  0  0  0  0  0  0  0  0
   -3.8914   -0.3488   -2.4869 O   0  0  0  0  0  0  0  0  0  0  0  0
   -0.5670   -0.5860   -0.4644 C   0  0  0  0  0  0  0  0  0  0  0  0
   -0.1613   -1.7056   -0.8124 O   0  0  0  0  0  0  0  0  0  0  0  0
    0.4026    0.4231   -0.1465 N   0  0  0  0  0  0  0  0  0  0  0  0
    1.8120    0.2126   -0.2076 C   0  0  2  0  0  0  0  0  0  0  0  0
    2.4051    0.2700    1.2059 C   0  0  0  0  0  0  0  0  0  0  0  0
    2.5265    1.1720   -1.0592 C   0  0  0  0  0  0  0  0  0  0  0  0
    3.9285    1.1018   -1.2272 N   0  0  0  0  0  0  0  0  0  0  0  0
    1.9130    2.0804   -1.6611 O   0  0  0  0  0  0  0  0  0  0  0  0
   -3.3367    0.1339    1.3288 H   0  0  0  0  0  0  0  0  0  0  0  0
   -1.9069    1.2040    1.1334 H   0  0  0  0  0  0  0  0  0  0  0  0
   -1.6615   -0.4508    1.7672 H   0  0  0  0  0  0  0  0  0  0  0  0
   -2.2871    0.5815   -1.0281 H   0  0  0  0  0  0  0  0  0  0  0  0
   -2.6033   -2.3309   -0.2001 H   0  0  0  0  0  0  0  0  0  0  0  0
   -4.2573   -2.2795   -2.1173 H   0  0  0  0  0  0  0  0  0  0  0  0
    0.0039    1.3488    0.1410 H   0  0  0  0  0  0  0  0  0  0  0  0
    1.9709   -0.8550   -0.5401 H   0  0  0  0  0  0  0  0  0  0  0  0
    1.7491    0.8881    1.8602 H   0  0  0  0  0  0  0  0  0  0  0  0
    2.4833   -0.7179    1.6569 H   0  0  0  0  0  0  0  0  0  0  0  0
    3.4001    0.7297    1.1385 H   0  0  0  0  0  0  0  0  0  0  0  0
    4.4778    1.9646   -1.2597 H   0  0  0  0  0  0  0  0  0  0  0  0
    4.3553    0.1557   -1.3130 H   0  0  0  0  0  0  0  0  0  0  0  0
  1  2  1  0
  2  3  1  0
  3  4  1  0
  4  5  2  0
  2  6  1  0
  6  7  2  0
  6  8  1  0
  8  9  1  0
  9 10  1  0
  9 11  1  0
 11 12  1  0
 11 13  2  0
  1 14  1  0
  1 15  1  0
  1 16  1  0
  2 17  1  6
  3 18  1  0
  4 19  1  0
  8 20  1  0
  9 21  1  6
 10 22  1  0
 10 23  1  0
 10 24  1  0
 12 25  1  0
 12 26  1  0
M  END
$$$$

     RDKit          3D

 26 25  0  0  0  0  0  0  0  0999 V2000
   -2.1104    1.6175    0.3416 C   0  0  0  0  0  0  0  0  0  0  0  0
   -2.0457    0.1498   -0.0050 C   0  0  2  0  0  0  0  0  0  0  0  0
   -2.9271   -0.6614    0.7667 N   0  0  0  0  0  0  0  0  0  0  0  0
   -3.9510   -1.4253    0.1324 C   0  0  0  0  0  0  0  0  0  0  0  0
   -4.0441   -1.3555   -1.1206 O   0  0  0  0  0  0  0  0  0  0  0  0
   -0.6481   -0.2844    0.2615 C   0  0  0  0  0  0  0  0  0  0  0  0
   -0.4239   -1.2279    1.0608 O   0  0  0  0  0  0  0  0  0  0  0  0
    0.4746    0.3265   -0.3554 N   0  0  0  0  0  0  0  0  0  0  0  0
    1.7959   -0.1489   -0.0474 C   0  0  2  0  0  0  0  0  0  0  0  0
    2.5942    0.9872    0.5666 C   0  0  0  0  0  0  0  0  0  0  0  0
    2.5009   -0.6758   -1.2435 C   0  0  0  0  0  0  0  0  0  0  0  0
    3.8087   -1.1736   -1.0747 N   0  0  0  0  0  0  0  0  0  0  0  0
    1.9401   -0.6701   -2.3504 O   0  0  0  0  0  0  0  0  0  0  0  0
   -1.7599    2.2481   -0.4927 H   0  0  0  0  0  0  0  0  0  0  0  0
   -1.4580    1.8560    1.2136 H   0  0  0  0  0  0  0  0  0  0  0  0
   -3.1263    1.9544    0.6139 H   0  0  0  0  0  0  0  0  0  0  0  0
   -2.2819    0.0844   -1.1040 H   0  0  0  0  0  0  0  0  0  0  0  0
   -2.8133   -0.6891    1.8043 H   0  0  0  0  0  0  0  0  0  0  0  0
   -4.6047   -2.0306    0.7363 H   0  0  0  0  0  0  0  0  0  0  0  0
    0.2930    1.1024   -1.0129 H   0  0  0  0  0  0  0  0  0  0  0  0
    1.7376   -0.9815    0.6780 H   0  0  0  0  0  0  0  0  0  0  0  0
    3.2544    1.3809   -0.2357 H   0  0  0  0  0  0  0  0  0  0  0  0
    3.2431    0.5623    1.3355 H   0  0  0  0  0  0  0  0  0  0  0  0
    1.9314    1.7868    0.9726 H   0  0  0  0  0  0  0  0  0  0  0  0
    4.6046   -0.5527   -0.8089 H   0  0  0  0  0  0  0  0  0  0  0  0
    4.0160   -2.1794   -1.2116 H   0  0  0  0  0  0  0  0  0  0  0  0
  1  2  1  0
  2  3  1  0
  3  4  1  0
  4  5  2  0
  2  6  1  0
  6  7  2  0
  6  8  1  0
  8  9  1  0
  9 10  1  0
  9 11  1  0
 11 12  1  0
 11 13  2  0
  1 14  1  0
  1 15  1  0
  1 16  1  0
  2 17  1  6
  3 18  1  0
  4 19  1  0
  8 20  1  0
  9 21  1  1
 10 22  1  0
 10 23  1  0
 10 24  1  0
 12 25  1  0
 12 26  1  0
M  END
$$$$

     RDKit          3D

 26 25  0  0  0  0  0  0  0  0999 V2000
    2.5148   -1.2518    0.3799 C   0  0  0  0  0  0  0  0  0  0  0  0
    1.8412   -0.4523   -0.6655 C   0  0  2  0  0  0  0  0  0  0  0  0
    2.0901    0.9593   -0.4489 N   0  0  0  0  0  0  0  0  0  0  0  0
    3.0453    1.7853   -1.0092 C   0  0  0  0  0  0  0  0  0  0  0  0
    3.8463    1.2724   -1.8679 O   0  0  0  0  0  0  0  0  0  0  0  0
    0.3585   -0.6114   -0.7219 C   0  0  0  0  0  0  0  0  0  0  0  0
   -0.2877   -0.7481   -1.7993 O   0  0  0  0  0  0  0  0  0  0  0  0
   -0.3497   -0.5777    0.4718 N   0  0  0  0  0  0  0  0  0  0  0  0
   -1.7821   -0.6729    0.5861 C   0  0  2  0  0  0  0  0  0  0  0  0
   -2.5539   -0.7878   -0.6488 C   0  0  0  0  0  0  0  0  0  0  0  0
   -2.1294    0.5662    1.3520 C   0  0  0  0  0  0  0  0  0  0  0  0
   -3.0374    1.5167    0.9673 N   0  0  0  0  0  0  0  0  0  0  0  0
   -1.5033    0.7564    2.4409 O   0  0  0  0  0  0  0  0  0  0  0  0
    3.3130   -0.6757    0.9151 H   0  0  0  0  0  0  0  0  0  0  0  0
    3.0037   -2.1512   -0.0819 H   0  0  0  0  0  0  0  0  0  0  0  0
    1.7902   -1.5825    1.1395 H   0  0  0  0  0  0  0  0  0  0  0  0
    2.3456   -0.6765   -1.6720 H   0  0  0  0  0  0  0  0  0  0  0  0
    1.4145    1.4141    0.2630 H   0  0  0  0  0  0  0  0  0  0  0  0
    3.1440    2.8274   -0.7664 H   0  0  0  0  0  0  0  0  0  0  0  0
    0.1974   -0.4626    1.3533 H   0  0  0  0  0  0  0  0  0  0  0  0
   -1.9801   -1.5952    1.1571 H   0  0  0  0  0  0  0  0  0  0  0  0
   -2.4651   -0.0562   -1.4010 H   0  0  0  0  0  0  0  0  0  0  0  0
   -3.6670   -0.7962   -0.3390 H   0  0  0  0  0  0  0  0  0  0  0  0
   -2.4351   -1.8489   -1.0301 H   0  0  0  0  0  0  0  0  0  0  0  0
   -3.9393    1.7284    1.3461 H   0  0  0  0  0  0  0  0  0  0  0  0
   -2.7745    2.1209    0.0798 H   0  0  0  0  0  0  0  0  0  0  0  0
  1  2  1  0
  2  3  1  0
  3  4  1  0
  4  5  2  0
  2  6  1  0
  6  7  2  0
  6  8  1  0
  8  9  1  0
  9 10  1  0
  9 11  1  0
 11 12  1  0
 11 13  2  0
  1 14  1  0
  1 15  1  0
  1 16  1  0
  2 17  1  6
  3 18  1  0
  4 19  1  0
  8 20  1  0
  9 21  1  1
 10 22  1  0
 10 23  1  0
 10 24  1  0
 12 25  1  0
 12 26  1  0
M  END
$$$$

     RDKit          3D

 26 25  0  0  0  0  0  0  0  0999 V2000
    2.1308   -0.9591   -1.2408 C   0  0  0  0  0  0  0  0  0  0  0  0
    1.9923    0.0000   -0.0730 C   0  0  2  0  0  0  0  0  0  0  0  0
    3.0325   -0.2238    0.9025 N   0  0  0  0  0  0  0  0  0  0  0  0
    3.9774    0.7850    1.1993 C   0  0  0  0  0  0  0  0  0  0  0  0
    3.8692    1.8806    0.5765 O   0  0  0  0  0  0  0  0  0  0  0  0
    0.6461   -0.1522    0.5661 C   0  0  0  0  0  0  0  0  0  0  0  0
    0.5282   -0.4339    1.7768 O   0  0  0  0  0  0  0  0  0  0  0  0
   -0.5178    0.0286   -0.2259 N   0  0  0  0  0  0  0  0  0  0  0  0
   -1.8558   -0.1114    0.3607 C   0  0  2  0  0  0  0  0  0  0  0  0
   -2.6089   -1.1406   -0.4528 C   0  0  0  0  0  0  0  0  0  0  0  0
   -2.5280    1.2068    0.2138 C   0  0  0  0  0  0  0  0  0  0  0  0
   -3.8529    1.3613    0.7015 N   0  0  0  0  0  0  0  0  0  0  0  0
   -1.9730    2.2045   -0.3284 O   0  0  0  0  0  0  0  0  0  0  0  0
    2.7762   -1.8372   -0.9608 H   0  0  0  0  0  0  0  0  0  0  0  0
    1.1079   -1.2914   -1.5114 H   0  0  0  0  0  0  0  0  0  0  0  0
    2.5596   -0.4714   -2.1403 H   0  0  0  0  0  0  0  0  0  0  0  0
    2.0920    1.0237   -0.4874 H   0  0  0  0  0  0  0  0  0  0  0  0
    3.1124   -1.1311    1.4101 H   0  0  0  0  0  0  0  0  0  0  0  0
    4.7801    0.6815    1.9184 H   0  0  0  0  0  0  0  0  0  0  0  0
   -0.3830    0.2618   -1.2278 H   0  0  0  0  0  0  0  0  0  0  0  0
   -1.7797   -0.3577    1.4213 H   0  0  0  0  0  0  0  0  0  0  0  0
   -1.9606   -1.6332   -1.2047 H   0  0  0  0  0  0  0  0  0  0  0  0
   -3.0288   -1.8758    0.2379 H   0  0  0  0  0  0  0  0  0  0  0  0
   -3.4402   -0.6556   -1.0140 H   0  0  0  0  0  0  0  0  0  0  0  0
   -4.0752    1.3196    1.7156 H   0  0  0  0  0  0  0  0  0  0  0  0
   -4.6006    1.5211   -0.0239 H   0  0  0  0  0  0  0  0  0  0  0  0
  1  2  1  0
  2  3  1  0
  3  4  1  0
  4  5  2  0
  2  6  1  0
  6  7  2  0
  6  8  1  0
  8  9  1  0
  9 10  1  0
  9 11  1  0
 11 12  1  0
 11 13  2  0
  1 14  1  0
  1 15  1  0
  1 16  1  0
  2 17  1  6
  3 18  1  0
  4 19  1  0
  8 20  1  0
  9 21  1  1
 10 22  1  0
 10 23  1  0
 10 24  1  0
 12 25  1  0
 12 26  1  0
M  END
$$$$
