
     RDKit          3D

 28 29  0  0  0  0  0  0  0  0999 V2000
    3.5807    0.4139    1.3583 C   0  0  0  0  0  0  0  0  0  0  0  0
    2.4928   -0.0667    0.6483 O   0  0  0  0  0  0  0  0  0  0  0  0
    2.7487   -1.2521   -0.0063 C   0  0  0  0  0  0  0  0  0  0  0  0
    1.5137   -1.6540   -0.7215 C   0  0  0  0  0  0  0  0  0  0  0  0
    1.5476   -2.7228   -1.3851 O   0  0  0  0  0  0  0  0  0  0  0  0
    0.3265   -0.8770   -0.6727 N   0  0  0  0  0  0  0  0  0  0  0  0
   -0.9976   -1.0039   -1.2471 C   0  0  0  0  0  0  0  0  0  0  0  0
   -1.4531    0.1009   -0.3499 C   0  0  0  0  0  0  0  0  0  0  0  0
   -2.1495    1.2549   -0.9727 C   0  0  0  0  0  0  0  0  0  0  0  0
   -2.6416    1.9831    0.1991 N   0  0  0  0  0  0  0  0  0  0  0  0
   -2.8704    1.0350    1.2343 C   0  0  0  0  0  0  0  0  0  0  0  0
   -3.4295    1.2869    2.3281 O   0  0  0  0  0  0  0  0  0  0  0  0
   -2.3395   -0.2829    0.7983 C   0  0  0  0  0  0  0  0  0  0  0  0
   -0.0093    0.3619   -0.0140 C   0  0  0  0  0  0  0  0  0  0  0  0
    3.2377    1.3744    1.8381 H   0  0  0  0  0  0  0  0  0  0  0  0
    4.4818    0.5411    0.7510 H   0  0  0  0  0  0  0  0  0  0  0  0
    3.7607   -0.3031    2.2102 H   0  0  0  0  0  0  0  0  0  0  0  0
    3.5507   -1.1545   -0.7689 H   0  0  0  0  0  0  0  0  0  0  0  0
    3.0244   -2.0807    0.6927 H   0  0  0  0  0  0  0  0  0  0  0  0
   -1.0400   -0.7939   -2.3373 H   0  0  0  0  0  0  0  0  0  0  0  0
   -1.5192   -1.9580   -0.9841 H   0  0  0  0  0  0  0  0  0  0  0  0
   -3.0656    0.9493   -1.5373 H   0  0  0  0  0  0  0  0  0  0  0  0
   -1.4833    1.8916   -1.5868 H   0  0  0  0  0  0  0  0  0  0  0  0
   -2.8097    2.9982    0.3077 H   0  0  0  0  0  0  0  0  0  0  0  0
   -3.1837   -0.8910    0.3791 H   0  0  0  0  0  0  0  0  0  0  0  0
   -1.8084   -0.8126    1.6145 H   0  0  0  0  0  0  0  0  0  0  0  0
    0.3511    1.2492   -0.6006 H   0  0  0  0  0  0  0  0  0  0  0  0
    0.1842    0.4130    1.0592 H   0  0  0  0  0  0  0  0  0  0  0  0
  1  2  1  0
  2  3  1  0
  3  4  1  0
  4  5  2  0
  4  6  1  0
  6  7  1  0
  7  8  1  0
  8  9  1  0
  9 10  1  0
 10 11  1  0
 11 12  2  0
 11 13  1  0
  8 14  1  0
 14  6  1  0
 13  8  1  0
  1 15  1  0
  1 16  1  0
  1 17  1  0
  3 18  1  0
  3 19  1  0
  7 20  1  0
  7 21  1  0
  9 22  1  0
  9 23  1  0
 10 24  1  0
 13 25  1  0
 13 26  1  0
 14 27  1  0
 14 28  1  0
M  END
$$$$

     RDKit          3D

 28 29  0  0  0  0  0  0  0  0999 V2000
    4.8649   -0.0193   -0.6603 C   0  0  0  0  0  0  0  0  0  0  0  0
    3.8297    0.8536   -0.3655 O   0  0  0  0  0  0  0  0  0  0  0  0
    2.6692    0.1449   -0.0629 C   0  0  0  0  0  0  0  0  0  0  0  0
    1.5661    1.0738    0.2512 C   0  0  0  0  0  0  0  0  0  0  0  0
    1.7675    2.3082    0.2172 O   0  0  0  0  0  0  0  0  0  0  0  0
    0.3017    0.5796    0.5854 N   0  0  0  0  0  0  0  0  0  0  0  0
   -1.0217    1.0631    0.9518 C   0  0  0  0  0  0  0  0  0  0  0  0
   -1.5914   -0.2033    0.4084 C   0  0  0  0  0  0  0  0  0  0  0  0
   -2.0436   -0.1985   -1.0068 C   0  0  0  0  0  0  0  0  0  0  0  0
   -3.4817    0.0639   -0.8966 N   0  0  0  0  0  0  0  0  0  0  0  0
   -3.9152   -0.2424    0.4217 C   0  0  0  0  0  0  0  0  0  0  0  0
   -5.0678   -0.0943    0.9010 O   0  0  0  0  0  0  0  0  0  0  0  0
   -2.7620   -0.7784    1.1610 C   0  0  0  0  0  0  0  0  0  0  0  0
   -0.2513   -0.7658    0.7127 C   0  0  0  0  0  0  0  0  0  0  0  0
    4.6370   -0.6637   -1.5214 H   0  0  0  0  0  0  0  0  0  0  0  0
    5.7556    0.5843   -0.9460 H   0  0  0  0  0  0  0  0  0  0  0  0
    5.1397   -0.6353    0.2221 H   0  0  0  0  0  0  0  0  0  0  0  0
    2.8669   -0.5840    0.7435 H   0  0  0  0  0  0  0  0  0  0  0  0
    2.3653   -0.3978   -1.0012 H   0  0  0  0  0  0  0  0  0  0  0  0
   -1.3621    1.9608    0.4072 H   0  0  0  0  0  0  0  0  0  0  0  0
   -1.1218    1.1974    2.0446 H   0  0  0  0  0  0  0  0  0  0  0  0
   -1.9683   -1.2343   -1.4113 H   0  0  0  0  0  0  0  0  0  0  0  0
   -1.5737    0.5571   -1.6466 H   0  0  0  0  0  0  0  0  0  0  0  0
   -4.0978    0.4173   -1.6528 H   0  0  0  0  0  0  0  0  0  0  0  0
   -2.7543   -0.5244    2.2345 H   0  0  0  0  0  0  0  0  0  0  0  0
   -2.7141   -1.8829    1.0476 H   0  0  0  0  0  0  0  0  0  0  0  0
   -0.1699   -1.0869    1.7840 H   0  0  0  0  0  0  0  0  0  0  0  0
    0.1330   -1.4928   -0.0222 H   0  0  0  0  0  0  0  0  0  0  0  0
  1  2  1  0
  2  3  1  0
  3  4  1  0
  4  5  2  0
  4  6  1  0
  6  7  1  0
  7  8  1  0
  8  9  1  0
  9 10  1  0
 10 11  1  0
 11 12  2  0
 11 13  1  0
  8 14  1  0
 14  6  1  0
 13  8  1  0
  1 15  1  0
  1 16  1  0
  1 17  1  0
  3 18  1  0
  3 19  1  0
  7 20  1  0
  7 21  1  0
  9 22  1  0
  9 23  1  0
 10 24  1  0
 13 25  1  0
 13 26  1  0
 14 27  1  0
 14 28  1  0
M  END
$$$$

     RDKit          3D

 28 29  0  0  0  0  0  0  0  0999 V2000
    4.5243    0.5012    1.0895 C   0  0  0  0  0  0  0  0  0  0  0  0
    3.7816   -0.6258    0.9335 O   0  0  0  0  0  0  0  0  0  0  0  0
    2.5881   -0.5356    0.2900 C   0  0  0  0  0  0  0  0  0  0  0  0
    1.5659    0.3237    0.9251 C   0  0  0  0  0  0  0  0  0  0  0  0
    1.7674    0.9075    2.0148 O   0  0  0  0  0  0  0  0  0  0  0  0
    0.3114    0.5030    0.2926 N   0  0  0  0  0  0  0  0  0  0  0  0
   -0.9315    1.2210    0.5377 C   0  0  0  0  0  0  0  0  0  0  0  0
   -1.6257    0.1733   -0.2698 C   0  0  0  0  0  0  0  0  0  0  0  0
   -2.1347   -1.0244    0.4431 C   0  0  0  0  0  0  0  0  0  0  0  0
   -3.2093   -1.5066   -0.3998 N   0  0  0  0  0  0  0  0  0  0  0  0
   -3.3295   -0.6956   -1.5616 C   0  0  0  0  0  0  0  0  0  0  0  0
   -3.8466   -0.9600   -2.6766 O   0  0  0  0  0  0  0  0  0  0  0  0
   -2.6938    0.6064   -1.2021 C   0  0  0  0  0  0  0  0  0  0  0  0
   -0.2732    0.0107   -0.9310 C   0  0  0  0  0  0  0  0  0  0  0  0
    3.9782    1.2591    1.6698 H   0  0  0  0  0  0  0  0  0  0  0  0
    4.9300    0.9238    0.1477 H   0  0  0  0  0  0  0  0  0  0  0  0
    5.4473    0.2368    1.6874 H   0  0  0  0  0  0  0  0  0  0  0  0
    2.1943   -1.5974    0.2145 H   0  0  0  0  0  0  0  0  0  0  0  0
    2.6743   -0.2265   -0.7780 H   0  0  0  0  0  0  0  0  0  0  0  0
   -0.9576    2.2043    0.0235 H   0  0  0  0  0  0  0  0  0  0  0  0
   -1.2136    1.2928    1.6029 H   0  0  0  0  0  0  0  0  0  0  0  0
   -2.5180   -0.8323    1.4630 H   0  0  0  0  0  0  0  0  0  0  0  0
   -1.3867   -1.8537    0.4995 H   0  0  0  0  0  0  0  0  0  0  0  0
   -3.8414   -2.3337   -0.2249 H   0  0  0  0  0  0  0  0  0  0  0  0
   -3.4530    1.2565   -0.7258 H   0  0  0  0  0  0  0  0  0  0  0  0
   -2.2160    1.0768   -2.0913 H   0  0  0  0  0  0  0  0  0  0  0  0
   -0.0058   -1.0241   -1.2127 H   0  0  0  0  0  0  0  0  0  0  0  0
   -0.1263    0.7187   -1.7610 H   0  0  0  0  0  0  0  0  0  0  0  0
  1  2  1  0
  2  3  1  0
  3  4  1  0
  4  5  2  0
  4  6  1  0
  6  7  1  0
  7  8  1  0
  8  9  1  0
  9 10  1  0
 10 11  1  0
 11 12  2  0
 11 13  1  0
  8 14  1  0
 14  6  1  0
 13  8  1  0
  1 15  1  0
  1 16  1  0
  1 17  1  0
  3 18  1  0
  3 19  1  0
  7 20  1  0
  7 21  1  0
  9 22  1  0
  9 23  1  0
 10 24  1  0
 13 25  1  0
 13 26  1  0
 14 27  1  0
 14 28  1  0
M  END
$$$$

     RDKit          3D

 28 29  0  0  0  0  0  0  0  0999 V2000
    4.6633   -0.0500    0.6619 C   0  0  0  0  0  0  0  0  0  0  0  0
    4.0739    0.3025   -0.5315 O   0  0  0  0  0  0  0  0  0  0  0  0
    2.7709   -0.0860   -0.6418 C   0  0  0  0  0  0  0  0  0  0  0  0
    1.8141    0.5101    0.3077 C   0  0  0  0  0  0  0  0  0  0  0  0
    2.1825    1.3826    1.1328 O   0  0  0  0  0  0  0  0  0  0  0  0
    0.4465    0.0838    0.2838 N   0  0  0  0  0  0  0  0  0  0  0  0
   -0.3687   -0.8512   -0.4661 C   0  0  0  0  0  0  0  0  0  0  0  0
   -1.5845   -0.1488    0.0425 C   0  0  0  0  0  0  0  0  0  0  0  0
   -2.2908    0.7728   -0.8790 C   0  0  0  0  0  0  0  0  0  0  0  0
   -3.5460    1.0239   -0.1700 N   0  0  0  0  0  0  0  0  0  0  0  0
   -3.7900   -0.0270    0.7533 C   0  0  0  0  0  0  0  0  0  0  0  0
   -4.7687   -0.1393    1.5306 O   0  0  0  0  0  0  0  0  0  0  0  0
   -2.6631   -0.9853    0.6339 C   0  0  0  0  0  0  0  0  0  0  0  0
   -0.6939    0.4824    1.0785 C   0  0  0  0  0  0  0  0  0  0  0  0
    4.1524    0.3982    1.5067 H   0  0  0  0  0  0  0  0  0  0  0  0
    5.7669    0.1818    0.6627 H   0  0  0  0  0  0  0  0  0  0  0  0
    4.5526   -1.1686    0.8146 H   0  0  0  0  0  0  0  0  0  0  0  0
    2.7521   -1.2070   -0.5420 H   0  0  0  0  0  0  0  0  0  0  0  0
    2.3683    0.0755   -1.6892 H   0  0  0  0  0  0  0  0  0  0  0  0
   -0.2211   -0.8429   -1.5579 H   0  0  0  0  0  0  0  0  0  0  0  0
   -0.2524   -1.8734   -0.0031 H   0  0  0  0  0  0  0  0  0  0  0  0
   -2.5282    0.2413   -1.8271 H   0  0  0  0  0  0  0  0  0  0  0  0
   -1.7288    1.7143   -1.0427 H   0  0  0  0  0  0  0  0  0  0  0  0
   -4.1462    1.8568   -0.3400 H   0  0  0  0  0  0  0  0  0  0  0  0
   -3.0061   -1.7997   -0.0546 H   0  0  0  0  0  0  0  0  0  0  0  0
   -2.3942   -1.4440    1.6053 H   0  0  0  0  0  0  0  0  0  0  0  0
   -0.8085    1.5944    1.1155 H   0  0  0  0  0  0  0  0  0  0  0  0
   -0.7523    0.0029    2.0808 H   0  0  0  0  0  0  0  0  0  0  0  0
  1  2  1  0
  2  3  1  0
  3  4  1  0
  4  5  2  0
  4  6  1  0
  6  7  1  0
  7  8  1  0
  8  9  1  0
  9 10  1  0
 10 11  1  0
 11 12  2  0
 11 13  1  0
  8 14  1  0
 14  6  1  0
 13  8  1  0
  1 15  1  0
  1 16  1  0
  1 17  1  0
  3 18  1  0
  3 19  1  0
  7 20  1  0
  7 21  1  0
  9 22  1  0
  9 23  1  0
 10 24  1  0
 13 25  1  0
 13 26  1  0
 14 27  1  0
 14 28  1  0
M  END
$$$$

     RDKit          3D

 28 29  0  0  0  0  0  0  0  0999 V2000
    4.9758    0.0732    0.1782 C   0  0  0  0  0  0  0  0  0  0  0  0
    3.9079    0.9460   -0.1315 O   0  0  0  0  0  0  0  0  0  0  0  0
    2.7536    0.1658   -0.0676 C   0  0  0  0  0  0  0  0  0  0  0  0
    1.5908    1.0352   -0.3861 C   0  0  0  0  0  0  0  0  0  0  0  0
    1.7281    2.2416   -0.6511 O   0  0  0  0  0  0  0  0  0  0  0  0
    0.3072    0.4492   -0.3803 N   0  0  0  0  0  0  0  0  0  0  0  0
   -1.0195    0.9782   -0.6366 C   0  0  0  0  0  0  0  0  0  0  0  0
   -1.5965   -0.2650   -0.0555 C   0  0  0  0  0  0  0  0  0  0  0  0
   -2.2462   -0.1549    1.2894 C   0  0  0  0  0  0  0  0  0  0  0  0
   -3.5942    0.2578    0.9382 N   0  0  0  0  0  0  0  0  0  0  0  0
   -3.8903   -0.1815   -0.3797 C   0  0  0  0  0  0  0  0  0  0  0  0
   -4.9647   -0.0287   -1.0085 O   0  0  0  0  0  0  0  0  0  0  0  0
   -2.6847   -0.8708   -0.9059 C   0  0  0  0  0  0  0  0  0  0  0  0
   -0.2585   -0.8898   -0.1280 C   0  0  0  0  0  0  0  0  0  0  0  0
    5.9421    0.5916    0.1558 H   0  0  0  0  0  0  0  0  0  0  0  0
    4.9081   -0.7359   -0.5936 H   0  0  0  0  0  0  0  0  0  0  0  0
    4.7202   -0.3855    1.1453 H   0  0  0  0  0  0  0  0  0  0  0  0
    2.5940   -0.1843    0.9841 H   0  0  0  0  0  0  0  0  0  0  0  0
    2.8145   -0.7280   -0.6996 H   0  0  0  0  0  0  0  0  0  0  0  0
   -1.2327    1.9020   -0.0271 H   0  0  0  0  0  0  0  0  0  0  0  0
   -1.1722    1.1129   -1.7284 H   0  0  0  0  0  0  0  0  0  0  0  0
   -1.7492    0.5560    1.9655 H   0  0  0  0  0  0  0  0  0  0  0  0
   -2.3391   -1.1697    1.7348 H   0  0  0  0  0  0  0  0  0  0  0  0
   -4.2312    0.7908    1.5635 H   0  0  0  0  0  0  0  0  0  0  0  0
   -2.5335   -0.7032   -1.9905 H   0  0  0  0  0  0  0  0  0  0  0  0
   -2.8133   -1.9549   -0.6841 H   0  0  0  0  0  0  0  0  0  0  0  0
   -0.0350   -1.5082   -1.0367 H   0  0  0  0  0  0  0  0  0  0  0  0
    0.1186   -1.3399    0.8274 H   0  0  0  0  0  0  0  0  0  0  0  0
  1  2  1  0
  2  3  1  0
  3  4  1  0
  4  5  2  0
  4  6  1  0
  6  7  1  0
  7  8  1  0
  8  9  1  0
  9 10  1  0
 10 11  1  0
 11 12  2  0
 11 13  1  0
  8 14  1  0
 14  6  1  0
 13  8  1  0
  1 15  1  0
  1 16  1  0
  1 17  1  0
  3 18  1  0
  3 19  1  0
  7 20  1  0
  7 21  1  0
  9 22  1  0
  9 23  1  0
 10 24  1  0
 13 25  1  0
 13 26  1  0
 14 27  1  0
 14 28  1  0
M  END
$$$$

     RDKit          3D

 28 29  0  0  0  0  0  0  0  0999 V2000
    3.5647    1.1700   -0.0659 C   0  0  0  0  0  0  0  0  0  0  0  0
    2.4153    0.3790   -0.0213 O   0  0  0  0  0  0  0  0  0  0  0  0
    2.7379   -0.8510    0.5426 C   0  0  0  0  0  0  0  0  0  0  0  0
    1.5344   -1.6859    0.5920 C   0  0  0  0  0  0  0  0  0  0  0  0
    1.5728   -2.8478    1.0507 O   0  0  0  0  0  0  0  0  0  0  0  0
    0.3035   -1.1872    0.1184 N   0  0  0  0  0  0  0  0  0  0  0  0
   -0.1213    0.0736   -0.4594 C   0  0  0  0  0  0  0  0  0  0  0  0
   -1.5295   -0.3028   -0.1505 C   0  0  0  0  0  0  0  0  0  0  0  0
   -2.0813    0.4246    1.0341 C   0  0  0  0  0  0  0  0  0  0  0  0
   -2.4326    1.6993    0.4470 N   0  0  0  0  0  0  0  0  0  0  0  0
   -2.7682    1.4726   -0.9117 C   0  0  0  0  0  0  0  0  0  0  0  0
   -3.2025    2.3086   -1.7393 O   0  0  0  0  0  0  0  0  0  0  0  0
   -2.5206    0.0342   -1.2325 C   0  0  0  0  0  0  0  0  0  0  0  0
   -1.0684   -1.6767   -0.0179 C   0  0  0  0  0  0  0  0  0  0  0  0
    3.3104    2.1407   -0.5109 H   0  0  0  0  0  0  0  0  0  0  0  0
    4.3382    0.6864   -0.6974 H   0  0  0  0  0  0  0  0  0  0  0  0
    3.9170    1.3273    0.9864 H   0  0  0  0  0  0  0  0  0  0  0  0
    3.4369   -1.3598   -0.1806 H   0  0  0  0  0  0  0  0  0  0  0  0
    3.2170   -0.7365    1.5387 H   0  0  0  0  0  0  0  0  0  0  0  0
    0.1896    0.9928    0.1047 H   0  0  0  0  0  0  0  0  0  0  0  0
    0.0394    0.1216   -1.5533 H   0  0  0  0  0  0  0  0  0  0  0  0
   -2.9924   -0.0760    1.4617 H   0  0  0  0  0  0  0  0  0  0  0  0
   -1.3676    0.5140    1.8737 H   0  0  0  0  0  0  0  0  0  0  0  0
   -2.4333    2.6051    0.9447 H   0  0  0  0  0  0  0  0  0  0  0  0
   -3.4415   -0.5539   -1.1324 H   0  0  0  0  0  0  0  0  0  0  0  0
   -2.0720   -0.1205   -2.2099 H   0  0  0  0  0  0  0  0  0  0  0  0
   -1.1228   -2.2364   -0.9936 H   0  0  0  0  0  0  0  0  0  0  0  0
   -1.4229   -2.3156    0.7879 H   0  0  0  0  0  0  0  0  0  0  0  0
  1  2  1  0
  2  3  1  0
  3  4  1  0
  4  5  2  0
  4  6  1  0
  6  7  1  0
  7  8  1  0
  8  9  1  0
  9 10  1  0
 10 11  1  0
 11 12  2  0
 11 13  1  0
  8 14  1  0
 14  6  1  0
 13  8  1  0
  1 15  1  0
  1 16  1  0
  1 17  1  0
  3 18  1  0
  3 19  1  0
  7 20  1  0
  7 21  1  0
  9 22  1  0
  9 23  1  0
 10 24  1  0
 13 25  1  0
 13 26  1  0
 14 27  1  0
 14 28  1  0
M  END
$$$$

     RDKit          3D

 28 29  0  0  0  0  0  0  0  0999 V2000
    3.9032    0.8754   -0.3808 C   0  0  0  0  0  0  0  0  0  0  0  0
    2.6464    0.2774   -0.3682 O   0  0  0  0  0  0  0  0  0  0  0  0
    2.7293   -1.0673   -0.0209 C   0  0  0  0  0  0  0  0  0  0  0  0
    1.4217   -1.7234    0.0007 C   0  0  0  0  0  0  0  0  0  0  0  0
    1.3596   -2.9374    0.2825 O   0  0  0  0  0  0  0  0  0  0  0  0
    0.2493   -1.0110   -0.2893 N   0  0  0  0  0  0  0  0  0  0  0  0
   -0.0515    0.3604   -0.6356 C   0  0  0  0  0  0  0  0  0  0  0  0
   -1.4225    0.1501   -0.0238 C   0  0  0  0  0  0  0  0  0  0  0  0
   -1.5523    0.4465    1.4247 C   0  0  0  0  0  0  0  0  0  0  0  0
   -2.9774    0.6821    1.5903 N   0  0  0  0  0  0  0  0  0  0  0  0
   -3.5790    0.9350    0.3382 C   0  0  0  0  0  0  0  0  0  0  0  0
   -4.7877    1.1826    0.1503 O   0  0  0  0  0  0  0  0  0  0  0  0
   -2.5506    0.8607   -0.7220 C   0  0  0  0  0  0  0  0  0  0  0  0
   -1.1850   -1.2684   -0.3953 C   0  0  0  0  0  0  0  0  0  0  0  0
    4.5197    0.3185   -1.1422 H   0  0  0  0  0  0  0  0  0  0  0  0
    3.8462    1.9084   -0.7479 H   0  0  0  0  0  0  0  0  0  0  0  0
    4.3408    0.7907    0.6372 H   0  0  0  0  0  0  0  0  0  0  0  0
    3.2296   -1.1186    0.9904 H   0  0  0  0  0  0  0  0  0  0  0  0
    3.4163   -1.5188   -0.7959 H   0  0  0  0  0  0  0  0  0  0  0  0
   -0.1865    0.4686   -1.7516 H   0  0  0  0  0  0  0  0  0  0  0  0
    0.5394    1.1451   -0.1705 H   0  0  0  0  0  0  0  0  0  0  0  0
   -1.2987   -0.4413    2.0467 H   0  0  0  0  0  0  0  0  0  0  0  0
   -0.9504    1.3387    1.6952 H   0  0  0  0  0  0  0  0  0  0  0  0
   -3.4797    0.6670    2.4946 H   0  0  0  0  0  0  0  0  0  0  0  0
   -2.2030    1.8902   -1.0265 H   0  0  0  0  0  0  0  0  0  0  0  0
   -2.8680    0.2881   -1.6057 H   0  0  0  0  0  0  0  0  0  0  0  0
   -1.5865   -1.9606    0.3658 H   0  0  0  0  0  0  0  0  0  0  0  0
   -1.5225   -1.5385   -1.4055 H   0  0  0  0  0  0  0  0  0  0  0  0
  1  2  1  0
  2  3  1  0
  3  4  1  0
  4  5  2  0
  4  6  1  0
  6  7  1  0
  7  8  1  0
  8  9  1  0
  9 10  1  0
 10 11  1  0
 11 12  2  0
 11 13  1  0
  8 14  1  0
 14  6  1  0
 13  8  1  0
  1 15  1  0
  1 16  1  0
  1 17  1  0
  3 18  1  0
  3 19  1  0
  7 20  1  0
  7 21  1  0
  9 22  1  0
  9 23  1  0
 10 24  1  0
 13 25  1  0
 13 26  1  0
 14 27  1  0
 14 28  1  0
M  END
$$$$

     RDKit          3D

 28 29  0  0  0  0  0  0  0  0999 V2000
    3.7534   -0.6167   -1.3777 C   0  0  0  0  0  0  0  0  0  0  0  0
    2.5877   -0.1870   -0.7808 O   0  0  0  0  0  0  0  0  0  0  0  0
    2.8742    0.9822   -0.0794 C   0  0  0  0  0  0  0  0  0  0  0  0
    1.6465    1.5160    0.6031 C   0  0  0  0  0  0  0  0  0  0  0  0
    1.7530    2.5549    1.2659 O   0  0  0  0  0  0  0  0  0  0  0  0
    0.4294    0.7953    0.4482 N   0  0  0  0  0  0  0  0  0  0  0  0
   -0.0143   -0.3868   -0.2200 C   0  0  0  0  0  0  0  0  0  0  0  0
   -1.4302   -0.1242    0.2044 C   0  0  0  0  0  0  0  0  0  0  0  0
   -2.0529   -1.2322    1.0041 C   0  0  0  0  0  0  0  0  0  0  0  0
   -3.3557   -1.4435    0.4382 N   0  0  0  0  0  0  0  0  0  0  0  0
   -3.5682   -0.5673   -0.6485 C   0  0  0  0  0  0  0  0  0  0  0  0
   -4.6140   -0.5208   -1.3313 O   0  0  0  0  0  0  0  0  0  0  0  0
   -2.3847    0.2915   -0.8724 C   0  0  0  0  0  0  0  0  0  0  0  0
   -0.9032    1.0403    0.9666 C   0  0  0  0  0  0  0  0  0  0  0  0
    4.1639    0.1475   -2.0879 H   0  0  0  0  0  0  0  0  0  0  0  0
    3.6442   -1.5762   -1.9163 H   0  0  0  0  0  0  0  0  0  0  0  0
    4.5650   -0.7581   -0.6186 H   0  0  0  0  0  0  0  0  0  0  0  0
    3.6268    0.7395    0.6767 H   0  0  0  0  0  0  0  0  0  0  0  0
    3.2476    1.7847   -0.7279 H   0  0  0  0  0  0  0  0  0  0  0  0
    0.3838   -1.2906    0.3084 H   0  0  0  0  0  0  0  0  0  0  0  0
    0.1545   -0.4252   -1.3132 H   0  0  0  0  0  0  0  0  0  0  0  0
   -2.0890   -1.0084    2.0924 H   0  0  0  0  0  0  0  0  0  0  0  0
   -1.4661   -2.1593    0.8381 H   0  0  0  0  0  0  0  0  0  0  0  0
   -4.0450   -2.1396    0.7768 H   0  0  0  0  0  0  0  0  0  0  0  0
   -2.7101    1.3462   -0.7133 H   0  0  0  0  0  0  0  0  0  0  0  0
   -1.9607    0.1720   -1.8892 H   0  0  0  0  0  0  0  0  0  0  0  0
   -1.2448    2.0471    0.5961 H   0  0  0  0  0  0  0  0  0  0  0  0
   -0.9915    1.0185    2.0640 H   0  0  0  0  0  0  0  0  0  0  0  0
  1  2  1  0
  2  3  1  0
  3  4  1  0
  4  5  2  0
  4  6  1  0
  6  7  1  0
  7  8  1  0
  8  9  1  0
  9 10  1  0
 10 11  1  0
 11 12  2  0
 11 13  1  0
  8 14  1  0
 14  6  1  0
 13  8  1  0
  1 15  1  0
  1 16  1  0
  1 17  1  0
  3 18  1  0
  3 19  1  0
  7 20  1  0
  7 21  1  0
  9 22  1  0
  9 23  1  0
 10 24  1  0
 13 25  1  0
 13 26  1  0
 14 27  1  0
 14 28  1  0
M  END
$$$$
