
     RDKit          3D

 20 20  0  0  0  0  0  0  0  0999 V2000
   -2.6413   -0.8905   -0.2890 N   0  0  0  0  0  0  0  0  0  0  0  0
   -1.2659   -0.8068    0.1390 C   0  0  1  0  0  0  0  0  0  0  0  0
   -0.2866   -1.3849   -0.7975 C   0  0  0  0  0  0  0  0  0  0  0  0
   -0.2249   -2.3450   -1.5861 O   0  0  0  0  0  0  0  0  0  0  0  0
    0.6090   -0.3556   -0.4298 N   0  0  0  0  0  0  0  0  0  0  0  0
    2.3152   -0.2445   -0.2943 S   0  0  0  0  0  6  0  0  0  0  0  0
    2.6573   -0.0747    1.1621 O   0  0  0  0  0  0  0  0  0  0  0  0
    2.8028    0.8879   -1.1183 O   0  0  0  0  0  0  0  0  0  0  0  0
    3.0354   -1.6690   -0.8253 O   0  0  0  0  0  0  0  0  0  0  0  0
   -0.5601    0.4844   -0.2475 C   0  0  2  0  0  0  0  0  0  0  0  0
   -0.4911    1.4510    0.8895 C   0  0  0  0  0  0  0  0  0  0  0  0
    0.6085    2.2909    0.6565 O   0  0  0  0  0  0  0  0  0  0  0  0
   -2.8347   -0.0974   -0.9168 H   0  0  0  0  0  0  0  0  0  0  0  0
   -3.2290   -0.8486    0.5699 H   0  0  0  0  0  0  0  0  0  0  0  0
   -1.0597   -1.0889    1.1808 H   0  0  0  0  0  0  0  0  0  0  0  0
    2.9175   -2.3531   -0.1388 H   0  0  0  0  0  0  0  0  0  0  0  0
   -0.9583    0.8902   -1.1952 H   0  0  0  0  0  0  0  0  0  0  0  0
   -0.2760    0.9198    1.8348 H   0  0  0  0  0  0  0  0  0  0  0  0
   -1.4479    1.9969    0.9661 H   0  0  0  0  0  0  0  0  0  0  0  0
    0.3297    3.2380    0.5936 H   0  0  0  0  0  0  0  0  0  0  0  0
  1  2  1  0
  2  3  1  0
  3  4  2  0
  3  5  1  0
  5  6  1  0
  6  7  2  0
  6  8  2  0
  6  9  1  0
  5 10  1  0
 10 11  1  0
 11 12  1  0
 10  2  1  0
  1 13  1  0
  1 14  1  0
  2 15  1  1
  9 16  1  0
 10 17  1  6
 11 18  1  0
 11 19  1  0
 12 20  1  0
M  END
$$$$

     RDKit          3D

 20 20  0  0  0  0  0  0  0  0999 V2000
   -1.7571    2.0340    0.3743 N   0  0  0  0  0  0  0  0  0  0  0  0
   -1.1226    0.9664   -0.3779 C   0  0  1  0  0  0  0  0  0  0  0  0
    0.3210    1.2704   -0.6799 C   0  0  0  0  0  0  0  0  0  0  0  0
    0.9690    2.1399   -1.3144 O   0  0  0  0  0  0  0  0  0  0  0  0
    0.7129    0.1216    0.0768 N   0  0  0  0  0  0  0  0  0  0  0  0
    2.2051   -0.6456    0.4601 S   0  0  0  0  0  6  0  0  0  0  0  0
    2.3743   -1.9130   -0.3400 O   0  0  0  0  0  0  0  0  0  0  0  0
    2.2388   -0.9750    1.9237 O   0  0  0  0  0  0  0  0  0  0  0  0
    3.4568    0.4262    0.0926 O   0  0  0  0  0  0  0  0  0  0  0  0
   -0.6634   -0.1965    0.4326 C   0  0  2  0  0  0  0  0  0  0  0  0
   -1.0632   -1.5688   -0.0425 C   0  0  0  0  0  0  0  0  0  0  0  0
   -2.3763   -1.8713    0.2937 O   0  0  0  0  0  0  0  0  0  0  0  0
   -1.1408    2.1934    1.2110 H   0  0  0  0  0  0  0  0  0  0  0  0
   -1.7786    2.9065   -0.1939 H   0  0  0  0  0  0  0  0  0  0  0  0
   -1.6742    0.7086   -1.2901 H   0  0  0  0  0  0  0  0  0  0  0  0
    4.2990   -0.0515   -0.1344 H   0  0  0  0  0  0  0  0  0  0  0  0
   -0.7668   -0.0796    1.5329 H   0  0  0  0  0  0  0  0  0  0  0  0
   -0.9502   -1.6122   -1.1276 H   0  0  0  0  0  0  0  0  0  0  0  0
   -0.3480   -2.2865    0.4436 H   0  0  0  0  0  0  0  0  0  0  0  0
   -2.9357   -1.5669   -0.4653 H   0  0  0  0  0  0  0  0  0  0  0  0
  1  2  1  0
  2  3  1  0
  3  4  2  0
  3  5  1  0
  5  6  1  0
  6  7  2  0
  6  8  2  0
  6  9  1  0
  5 10  1  0
 10 11  1  0
 11 12  1  0
 10  2  1  0
  1 13  1  0
  1 14  1  0
  2 15  1  6
  9 16  1  0
 10 17  1  1
 11 18  1  0
 11 19  1  0
 12 20  1  0
M  END
$$$$

     RDKit          3D

 20 20  0  0  0  0  0  0  0  0999 V2000
   -2.6336   -1.0317   -0.1811 N   0  0  0  0  0  0  0  0  0  0  0  0
   -1.3405   -0.6552    0.2882 C   0  0  1  0  0  0  0  0  0  0  0  0
   -0.2701   -1.5394   -0.3127 C   0  0  0  0  0  0  0  0  0  0  0  0
   -0.0944   -2.6907   -0.7277 O   0  0  0  0  0  0  0  0  0  0  0  0
    0.5728   -0.3961   -0.2065 N   0  0  0  0  0  0  0  0  0  0  0  0
    2.2450   -0.2288    0.1320 S   0  0  0  0  0  6  0  0  0  0  0  0
    2.4434    0.3822    1.5121 O   0  0  0  0  0  0  0  0  0  0  0  0
    2.9153    0.6991   -0.8628 O   0  0  0  0  0  0  0  0  0  0  0  0
    3.0548   -1.6822    0.1226 O   0  0  0  0  0  0  0  0  0  0  0  0
   -0.5848    0.3901   -0.5060 C   0  0  2  0  0  0  0  0  0  0  0  0
   -0.6264    1.7675    0.0936 C   0  0  0  0  0  0  0  0  0  0  0  0
    0.4753    2.5619   -0.3006 O   0  0  0  0  0  0  0  0  0  0  0  0
   -2.8360   -2.0628   -0.1349 H   0  0  0  0  0  0  0  0  0  0  0  0
   -3.3817   -0.6289    0.4752 H   0  0  0  0  0  0  0  0  0  0  0  0
   -1.2338   -0.6058    1.3894 H   0  0  0  0  0  0  0  0  0  0  0  0
    3.6877   -1.7754   -0.6140 H   0  0  0  0  0  0  0  0  0  0  0  0
   -0.8905    0.3810   -1.5563 H   0  0  0  0  0  0  0  0  0  0  0  0
   -1.5115    2.3504   -0.3257 H   0  0  0  0  0  0  0  0  0  0  0  0
   -0.7524    1.7412    1.1726 H   0  0  0  0  0  0  0  0  0  0  0  0
    0.7614    3.0239    0.5426 H   0  0  0  0  0  0  0  0  0  0  0  0
  1  2  1  0
  2  3  1  0
  3  4  2  0
  3  5  1  0
  5  6  1  0
  6  7  2  0
  6  8  2  0
  6  9  1  0
  5 10  1  0
 10 11  1  0
 11 12  1  0
 10  2  1  0
  1 13  1  0
  1 14  1  0
  2 15  1  1
  9 16  1  0
 10 17  1  6
 11 18  1  0
 11 19  1  0
 12 20  1  0
M  END
$$$$

     RDKit          3D

 20 20  0  0  0  0  0  0  0  0999 V2000
   -1.6890   -2.1373   -0.1378 N   0  0  0  0  0  0  0  0  0  0  0  0
   -1.0835   -0.9602    0.4583 C   0  0  1  0  0  0  0  0  0  0  0  0
    0.2676   -1.2189    1.0109 C   0  0  0  0  0  0  0  0  0  0  0  0
    0.7626   -2.1100    1.7787 O   0  0  0  0  0  0  0  0  0  0  0  0
    0.7427   -0.0711    0.3256 N   0  0  0  0  0  0  0  0  0  0  0  0
    2.1365    0.9302    0.5012 S   0  0  0  0  0  6  0  0  0  0  0  0
    2.5399    0.9223    1.9471 O   0  0  0  0  0  0  0  0  0  0  0  0
    1.8403    2.3451    0.0700 O   0  0  0  0  0  0  0  0  0  0  0  0
    3.4099    0.3042   -0.4337 O   0  0  0  0  0  0  0  0  0  0  0  0
   -0.4006   -0.1029   -0.5520 C   0  0  2  0  0  0  0  0  0  0  0  0
   -1.0007    1.2659   -0.7764 C   0  0  0  0  0  0  0  0  0  0  0  0
   -1.4274    1.8376    0.4157 O   0  0  0  0  0  0  0  0  0  0  0  0
   -1.2233   -2.3332   -1.0721 H   0  0  0  0  0  0  0  0  0  0  0  0
   -1.5494   -2.9640    0.5131 H   0  0  0  0  0  0  0  0  0  0  0  0
   -1.7516   -0.4381    1.1596 H   0  0  0  0  0  0  0  0  0  0  0  0
    2.9973    0.0111   -1.2825 H   0  0  0  0  0  0  0  0  0  0  0  0
   -0.2252   -0.5903   -1.5313 H   0  0  0  0  0  0  0  0  0  0  0  0
   -1.8106    1.1946   -1.5359 H   0  0  0  0  0  0  0  0  0  0  0  0
   -0.2108    1.9000   -1.2280 H   0  0  0  0  0  0  0  0  0  0  0  0
   -2.3247    2.2151    0.3693 H   0  0  0  0  0  0  0  0  0  0  0  0
  1  2  1  0
  2  3  1  0
  3  4  2  0
  3  5  1  0
  5  6  1  0
  6  7  2  0
  6  8  2  0
  6  9  1  0
  5 10  1  0
 10 11  1  0
 11 12  1  0
 10  2  1  0
  1 13  1  0
  1 14  1  0
  2 15  1  1
  9 16  1  0
 10 17  1  6
 11 18  1  0
 11 19  1  0
 12 20  1  0
M  END
$$$$

     RDKit          3D

 20 20  0  0  0  0  0  0  0  0999 V2000
   -1.8500    1.9129    0.0670 N   0  0  0  0  0  0  0  0  0  0  0  0
   -0.8696    1.0032   -0.4472 C   0  0  1  0  0  0  0  0  0  0  0  0
    0.5394    1.4137   -0.2913 C   0  0  0  0  0  0  0  0  0  0  0  0
    1.2137    2.4603   -0.3003 O   0  0  0  0  0  0  0  0  0  0  0  0
    0.8636    0.0493   -0.1152 N   0  0  0  0  0  0  0  0  0  0  0  0
    2.1820   -0.9935   -0.5002 S   0  0  0  0  0  6  0  0  0  0  0  0
    2.0369   -2.3135    0.2097 O   0  0  0  0  0  0  0  0  0  0  0  0
    2.2256   -1.2081   -1.9848 O   0  0  0  0  0  0  0  0  0  0  0  0
    3.5934   -0.2433    0.0121 O   0  0  0  0  0  0  0  0  0  0  0  0
   -0.4268   -0.0825    0.5455 C   0  0  2  0  0  0  0  0  0  0  0  0
   -1.1141   -1.4058    0.3318 C   0  0  0  0  0  0  0  0  0  0  0  0
   -2.3284   -1.3793    1.0387 O   0  0  0  0  0  0  0  0  0  0  0  0
   -1.4022    2.7862    0.4074 H   0  0  0  0  0  0  0  0  0  0  0  0
   -2.5249    2.1599   -0.7198 H   0  0  0  0  0  0  0  0  0  0  0  0
   -1.1015    0.6018   -1.4546 H   0  0  0  0  0  0  0  0  0  0  0  0
    3.4898    0.7158   -0.1276 H   0  0  0  0  0  0  0  0  0  0  0  0
   -0.3822    0.3027    1.5579 H   0  0  0  0  0  0  0  0  0  0  0  0
   -0.4592   -2.2187    0.6822 H   0  0  0  0  0  0  0  0  0  0  0  0
   -1.3609   -1.5793   -0.7363 H   0  0  0  0  0  0  0  0  0  0  0  0
   -2.3246   -1.9818    1.8250 H   0  0  0  0  0  0  0  0  0  0  0  0
  1  2  1  0
  2  3  1  0
  3  4  2  0
  3  5  1  0
  5  6  1  0
  6  7  2  0
  6  8  2  0
  6  9  1  0
  5 10  1  0
 10 11  1  0
 11 12  1  0
 10  2  1  0
  1 13  1  0
  1 14  1  0
  2 15  1  6
  9 16  1  0
 10 17  1  1
 11 18  1  0
 11 19  1  0
 12 20  1  0
M  END
$$$$

     RDKit          3D

 20 20  0  0  0  0  0  0  0  0999 V2000
   -0.5706   -2.1871   -0.8071 N   0  0  0  0  0  0  0  0  0  0  0  0
   -1.1486   -0.9758   -0.2526 C   0  0  1  0  0  0  0  0  0  0  0  0
   -0.4848   -0.5351    1.0017 C   0  0  0  0  0  0  0  0  0  0  0  0
   -0.7468   -0.5662    2.2292 O   0  0  0  0  0  0  0  0  0  0  0  0
    0.5851   -0.0593    0.1967 N   0  0  0  0  0  0  0  0  0  0  0  0
    2.2880    0.0737    0.3807 S   0  0  0  0  0  6  0  0  0  0  0  0
    2.9255   -0.8217   -0.6543 O   0  0  0  0  0  0  0  0  0  0  0  0
    2.6735    1.4976    0.2232 O   0  0  0  0  0  0  0  0  0  0  0  0
    2.7363   -0.5336    1.8818 O   0  0  0  0  0  0  0  0  0  0  0  0
   -0.4164    0.2457   -0.8141 C   0  0  2  0  0  0  0  0  0  0  0  0
   -1.1208    1.5225   -0.4703 C   0  0  0  0  0  0  0  0  0  0  0  0
   -2.0949    1.8693   -1.4044 O   0  0  0  0  0  0  0  0  0  0  0  0
   -1.1841   -2.9928   -0.6402 H   0  0  0  0  0  0  0  0  0  0  0  0
    0.3880   -2.2678   -0.4080 H   0  0  0  0  0  0  0  0  0  0  0  0
   -2.2330   -0.9104   -0.2450 H   0  0  0  0  0  0  0  0  0  0  0  0
    3.1206    0.1578    2.4711 H   0  0  0  0  0  0  0  0  0  0  0  0
   -0.0884    0.1397   -1.8504 H   0  0  0  0  0  0  0  0  0  0  0  0
   -0.3676    2.3458   -0.3437 H   0  0  0  0  0  0  0  0  0  0  0  0
   -1.6124    1.4048    0.5161 H   0  0  0  0  0  0  0  0  0  0  0  0
   -2.6487    2.5929   -1.0103 H   0  0  0  0  0  0  0  0  0  0  0  0
  1  2  1  0
  2  3  1  0
  3  4  2  0
  3  5  1  0
  5  6  1  0
  6  7  2  0
  6  8  2  0
  6  9  1  0
  5 10  1  0
 10 11  1  0
 11 12  1  0
 10  2  1  0
  1 13  1  0
  1 14  1  0
  2 15  1  1
  9 16  1  0
 10 17  1  6
 11 18  1  0
 11 19  1  0
 12 20  1  0
M  END
$$$$

     RDKit          3D

 20 20  0  0  0  0  0  0  0  0999 V2000
   -1.6440   -2.0906    0.0227 N   0  0  0  0  0  0  0  0  0  0  0  0
   -1.3270   -0.8629    0.6850 C   0  0  1  0  0  0  0  0  0  0  0  0
    0.0230   -0.8769    1.3295 C   0  0  0  0  0  0  0  0  0  0  0  0
    0.4524   -1.3342    2.4303 O   0  0  0  0  0  0  0  0  0  0  0  0
    0.6044   -0.1887    0.2337 N   0  0  0  0  0  0  0  0  0  0  0  0
    2.2218    0.0731   -0.2716 S   0  0  0  0  0  6  0  0  0  0  0  0
    2.6181   -1.0003   -1.2731 O   0  0  0  0  0  0  0  0  0  0  0  0
    2.3289    1.4212   -0.9334 O   0  0  0  0  0  0  0  0  0  0  0  0
    3.2612    0.0111    1.0602 O   0  0  0  0  0  0  0  0  0  0  0  0
   -0.7083    0.1728   -0.2416 C   0  0  2  0  0  0  0  0  0  0  0  0
   -1.1451    1.5776    0.1579 C   0  0  0  0  0  0  0  0  0  0  0  0
   -0.2825    2.5484   -0.3346 O   0  0  0  0  0  0  0  0  0  0  0  0
   -1.0432   -2.8905    0.3062 H   0  0  0  0  0  0  0  0  0  0  0  0
   -2.6304   -2.3416   -0.0258 H   0  0  0  0  0  0  0  0  0  0  0  0
   -2.1233   -0.4813    1.3322 H   0  0  0  0  0  0  0  0  0  0  0  0
    4.0991   -0.4850    0.8069 H   0  0  0  0  0  0  0  0  0  0  0  0
   -0.8818   -0.0178   -1.3126 H   0  0  0  0  0  0  0  0  0  0  0  0
   -1.1811    1.6604    1.2730 H   0  0  0  0  0  0  0  0  0  0  0  0
   -2.1854    1.7272   -0.1983 H   0  0  0  0  0  0  0  0  0  0  0  0
   -0.4569    3.3779    0.2112 H   0  0  0  0  0  0  0  0  0  0  0  0
  1  2  1  0
  2  3  1  0
  3  4  2  0
  3  5  1  0
  5  6  1  0
  6  7  2  0
  6  8  2  0
  6  9  1  0
  5 10  1  0
 10 11  1  0
 11 12  1  0
 10  2  1  0
  1 13  1  0
  1 14  1  0
  2 15  1  1
  9 16  1  0
 10 17  1  6
 11 18  1  0
 11 19  1  0
 12 20  1  0
M  END
$$$$

     RDKit          3D

 20 20  0  0  0  0  0  0  0  0999 V2000
   -1.9874   -1.7616   -0.1797 N   0  0  0  0  0  0  0  0  0  0  0  0
   -0.7227   -1.1400   -0.0550 C   0  0  1  0  0  0  0  0  0  0  0  0
    0.2081   -1.1959   -1.2131 C   0  0  0  0  0  0  0  0  0  0  0  0
    0.5031   -1.8673   -2.2052 O   0  0  0  0  0  0  0  0  0  0  0  0
    0.7399    0.0156   -0.6928 N   0  0  0  0  0  0  0  0  0  0  0  0
    2.3386    0.5570   -0.5486 S   0  0  0  0  0  6  0  0  0  0  0  0
    2.4656    2.0213   -0.3181 O   0  0  0  0  0  0  0  0  0  0  0  0
    3.1411    0.1595   -1.7551 O   0  0  0  0  0  0  0  0  0  0  0  0
    3.0805   -0.2076    0.7818 O   0  0  0  0  0  0  0  0  0  0  0  0
   -0.6521    0.3619   -0.4192 C   0  0  2  0  0  0  0  0  0  0  0  0
   -0.9065    1.2813    0.7202 C   0  0  0  0  0  0  0  0  0  0  0  0
   -2.2950    1.4721    0.7963 O   0  0  0  0  0  0  0  0  0  0  0  0
   -2.7269   -1.0560   -0.3140 H   0  0  0  0  0  0  0  0  0  0  0  0
   -2.1901   -2.2413    0.7438 H   0  0  0  0  0  0  0  0  0  0  0  0
   -0.1709   -1.2543    0.9017 H   0  0  0  0  0  0  0  0  0  0  0  0
    4.0487   -0.1300    0.6521 H   0  0  0  0  0  0  0  0  0  0  0  0
   -1.1775    0.5477   -1.3718 H   0  0  0  0  0  0  0  0  0  0  0  0
   -0.3670    2.2478    0.5806 H   0  0  0  0  0  0  0  0  0  0  0  0
   -0.6015    0.7831    1.6567 H   0  0  0  0  0  0  0  0  0  0  0  0
   -2.7279    1.4065   -0.0898 H   0  0  0  0  0  0  0  0  0  0  0  0
  1  2  1  0
  2  3  1  0
  3  4  2  0
  3  5  1  0
  5  6  1  0
  6  7  2  0
  6  8  2  0
  6  9  1  0
  5 10  1  0
 10 11  1  0
 11 12  1  0
 10  2  1  0
  1 13  1  0
  1 14  1  0
  2 15  1  1
  9 16  1  0
 10 17  1  6
 11 18  1  0
 11 19  1  0
 12 20  1  0
M  END
$$$$
