
     RDKit          3D

 23 23  0  0  0  0  0  0  0  0999 V2000
   -2.5378   -0.2075   -1.3519 O   0  0  0  0  0  0  0  0  0  0  0  0
   -2.5611   -0.3174    0.1481 P   0  0  0  0  0  5  0  0  0  0  0  0
   -3.5239    0.9510    0.7356 O   0  0  0  0  0  0  0  0  0  0  0  0
   -3.2144   -1.7600    0.6808 O   0  0  0  0  0  0  0  0  0  0  0  0
   -0.8848   -0.0460    0.7699 C   0  0  2  0  0  0  0  0  0  0  0  0
   -0.3975    1.2454    0.1602 C   0  0  0  0  0  0  0  0  0  0  0  0
    1.0523    0.8950   -0.1278 C   0  0  1  0  0  0  0  0  0  0  0  0
    1.7427    0.9431    1.0748 O   0  0  0  0  0  0  0  0  0  0  0  0
    0.8597   -0.5767   -0.5208 C   0  0  1  0  0  0  0  0  0  0  0  0
    2.2103   -1.2139   -0.5022 C   0  0  0  0  0  0  0  0  0  0  0  0
    2.8720   -1.0292    0.7109 O   0  0  0  0  0  0  0  0  0  0  0  0
   -0.0107   -1.0398    0.4282 O   0  0  0  0  0  0  0  0  0  0  0  0
   -2.9972    1.8099    0.6754 H   0  0  0  0  0  0  0  0  0  0  0  0
   -2.7741   -2.5611    0.3232 H   0  0  0  0  0  0  0  0  0  0  0  0
   -0.8740    0.0968    1.8709 H   0  0  0  0  0  0  0  0  0  0  0  0
   -0.8803    1.3611   -0.8488 H   0  0  0  0  0  0  0  0  0  0  0  0
   -0.5177    2.1181    0.7944 H   0  0  0  0  0  0  0  0  0  0  0  0
    1.4925    1.4845   -0.9290 H   0  0  0  0  0  0  0  0  0  0  0  0
    1.8848    1.9111    1.2918 H   0  0  0  0  0  0  0  0  0  0  0  0
    0.4208   -0.6679   -1.5138 H   0  0  0  0  0  0  0  0  0  0  0  0
    2.8209   -0.7316   -1.2972 H   0  0  0  0  0  0  0  0  0  0  0  0
    2.1972   -2.2948   -0.7139 H   0  0  0  0  0  0  0  0  0  0  0  0
    3.6204   -0.3702    0.6091 H   0  0  0  0  0  0  0  0  0  0  0  0
  1  2  2  0
  2  3  1  0
  2  4  1  0
  2  5  1  0
  5  6  1  0
  6  7  1  0
  7  8  1  0
  7  9  1  0
  9 10  1  0
 10 11  1  0
  9 12  1  0
 12  5  1  0
  3 13  1  0
  4 14  1  0
  5 15  1  1
  6 16  1  0
  6 17  1  0
  7 18  1  6
  8 19  1  0
  9 20  1  6
 10 21  1  0
 10 22  1  0
 11 23  1  0
M  END
$$$$

     RDKit          3D

 23 23  0  0  0  0  0  0  0  0999 V2000
    3.3331   -1.0386   -0.6323 O   0  0  0  0  0  0  0  0  0  0  0  0
    2.4847   -0.3618    0.4207 P   0  0  0  0  0  5  0  0  0  0  0  0
    2.9132   -1.0083    1.9148 O   0  0  0  0  0  0  0  0  0  0  0  0
    2.8271    1.2909    0.3660 O   0  0  0  0  0  0  0  0  0  0  0  0
    0.7610   -0.6927    0.0323 C   0  0  2  0  0  0  0  0  0  0  0  0
    0.4251    0.0419   -1.2508 C   0  0  0  0  0  0  0  0  0  0  0  0
   -1.0841    0.1186   -1.0735 C   0  0  1  0  0  0  0  0  0  0  0  0
   -1.5680   -1.1740   -1.2843 O   0  0  0  0  0  0  0  0  0  0  0  0
   -1.1038    0.4821    0.4133 C   0  0  1  0  0  0  0  0  0  0  0  0
   -2.4880    0.2142    0.9359 C   0  0  0  0  0  0  0  0  0  0  0  0
   -3.3553    1.0793    0.2303 O   0  0  0  0  0  0  0  0  0  0  0  0
   -0.1223   -0.2766    0.9917 O   0  0  0  0  0  0  0  0  0  0  0  0
    3.8860   -1.2136    1.9109 H   0  0  0  0  0  0  0  0  0  0  0  0
    2.9982    1.5164   -0.5997 H   0  0  0  0  0  0  0  0  0  0  0  0
    0.6785   -1.7889   -0.1996 H   0  0  0  0  0  0  0  0  0  0  0  0
    0.7231   -0.4920   -2.1532 H   0  0  0  0  0  0  0  0  0  0  0  0
    0.8145    1.0961   -1.2186 H   0  0  0  0  0  0  0  0  0  0  0  0
   -1.5608    0.8687   -1.6915 H   0  0  0  0  0  0  0  0  0  0  0  0
   -1.4332   -1.7551   -0.4980 H   0  0  0  0  0  0  0  0  0  0  0  0
   -0.8376    1.5410    0.4838 H   0  0  0  0  0  0  0  0  0  0  0  0
   -2.6077    0.4267    1.9954 H   0  0  0  0  0  0  0  0  0  0  0  0
   -2.8173   -0.8090    0.6633 H   0  0  0  0  0  0  0  0  0  0  0  0
   -2.8664    1.9344    0.0084 H   0  0  0  0  0  0  0  0  0  0  0  0
  1  2  2  0
  2  3  1  0
  2  4  1  0
  2  5  1  0
  5  6  1  0
  6  7  1  0
  7  8  1  0
  7  9  1  0
  9 10  1  0
 10 11  1  0
  9 12  1  0
 12  5  1  0
  3 13  1  0
  4 14  1  0
  5 15  1  6
  6 16  1  0
  6 17  1  0
  7 18  1  6
  8 19  1  0
  9 20  1  6
 10 21  1  0
 10 22  1  0
 11 23  1  0
M  END
$$$$

     RDKit          3D

 23 23  0  0  0  0  0  0  0  0999 V2000
    2.4768    2.1524    0.9224 O   0  0  0  0  0  0  0  0  0  0  0  0
    2.3932    0.7544    0.3465 P   0  0  0  0  0  5  0  0  0  0  0  0
    2.9696    0.8302   -1.2385 O   0  0  0  0  0  0  0  0  0  0  0  0
    3.3068   -0.2914    1.2780 O   0  0  0  0  0  0  0  0  0  0  0  0
    0.6660    0.2403    0.4119 C   0  0  2  0  0  0  0  0  0  0  0  0
    0.3990   -1.0460   -0.2963 C   0  0  0  0  0  0  0  0  0  0  0  0
   -0.7779   -0.7051   -1.1824 C   0  0  1  0  0  0  0  0  0  0  0  0
   -1.7934   -1.6532   -1.0907 O   0  0  0  0  0  0  0  0  0  0  0  0
   -1.2780    0.5780   -0.6019 C   0  0  1  0  0  0  0  0  0  0  0  0
   -2.1710    0.3254    0.6071 C   0  0  0  0  0  0  0  0  0  0  0  0
   -2.5120    1.5144    1.2232 O   0  0  0  0  0  0  0  0  0  0  0  0
   -0.1333    1.2146   -0.1691 O   0  0  0  0  0  0  0  0  0  0  0  0
    3.9654    0.7389   -1.1731 H   0  0  0  0  0  0  0  0  0  0  0  0
    2.7701   -0.6263    2.0186 H   0  0  0  0  0  0  0  0  0  0  0  0
    0.4072    0.1038    1.4866 H   0  0  0  0  0  0  0  0  0  0  0  0
    1.2545   -1.4255   -0.8804 H   0  0  0  0  0  0  0  0  0  0  0  0
    0.0606   -1.8571    0.3899 H   0  0  0  0  0  0  0  0  0  0  0  0
   -0.4532   -0.5513   -2.2298 H   0  0  0  0  0  0  0  0  0  0  0  0
   -1.4996   -2.4530   -1.5869 H   0  0  0  0  0  0  0  0  0  0  0  0
   -1.8178    1.1879   -1.3284 H   0  0  0  0  0  0  0  0  0  0  0  0
   -1.6674   -0.3081    1.3565 H   0  0  0  0  0  0  0  0  0  0  0  0
   -3.0969   -0.2278    0.3069 H   0  0  0  0  0  0  0  0  0  0  0  0
   -3.4686    1.5046    1.4299 H   0  0  0  0  0  0  0  0  0  0  0  0
  1  2  2  0
  2  3  1  0
  2  4  1  0
  2  5  1  0
  5  6  1  0
  6  7  1  0
  7  8  1  0
  7  9  1  0
  9 10  1  0
 10 11  1  0
  9 12  1  0
 12  5  1  0
  3 13  1  0
  4 14  1  0
  5 15  1  1
  6 16  1  0
  6 17  1  0
  7 18  1  6
  8 19  1  0
  9 20  1  6
 10 21  1  0
 10 22  1  0
 11 23  1  0
M  END
$$$$

     RDKit          3D

 23 23  0  0  0  0  0  0  0  0999 V2000
    2.3851    1.8386   -1.5750 O   0  0  0  0  0  0  0  0  0  0  0  0
    2.3612    0.5513   -0.8154 P   0  0  0  0  0  5  0  0  0  0  0  0
    3.5772    0.6138    0.3670 O   0  0  0  0  0  0  0  0  0  0  0  0
    2.6622   -0.7837   -1.7934 O   0  0  0  0  0  0  0  0  0  0  0  0
    0.7804    0.4243    0.0421 C   0  0  2  0  0  0  0  0  0  0  0  0
    0.6599   -0.8636    0.8207 C   0  0  0  0  0  0  0  0  0  0  0  0
   -0.8697   -0.8977    0.9750 C   0  0  1  0  0  0  0  0  0  0  0  0
   -1.2169    0.0109    1.9676 O   0  0  0  0  0  0  0  0  0  0  0  0
   -1.2380   -0.4280   -0.4012 C   0  0  1  0  0  0  0  0  0  0  0  0
   -2.6568    0.0127   -0.5409 C   0  0  0  0  0  0  0  0  0  0  0  0
   -3.0008    1.1149    0.1822 O   0  0  0  0  0  0  0  0  0  0  0  0
   -0.3075    0.5048   -0.7836 O   0  0  0  0  0  0  0  0  0  0  0  0
    3.2130    1.0194    1.2003 H   0  0  0  0  0  0  0  0  0  0  0  0
    3.6569   -0.8216   -1.9292 H   0  0  0  0  0  0  0  0  0  0  0  0
    0.7423    1.2630    0.7789 H   0  0  0  0  0  0  0  0  0  0  0  0
    1.1667   -0.8518    1.7814 H   0  0  0  0  0  0  0  0  0  0  0  0
    0.9039   -1.7177    0.1655 H   0  0  0  0  0  0  0  0  0  0  0  0
   -1.2148   -1.9005    1.2260 H   0  0  0  0  0  0  0  0  0  0  0  0
   -1.1476    0.9451    1.6535 H   0  0  0  0  0  0  0  0  0  0  0  0
   -1.1062   -1.3155   -1.0846 H   0  0  0  0  0  0  0  0  0  0  0  0
   -2.8446    0.2202   -1.6118 H   0  0  0  0  0  0  0  0  0  0  0  0
   -3.3020   -0.8556   -0.2497 H   0  0  0  0  0  0  0  0  0  0  0  0
   -3.2038    1.9169   -0.3754 H   0  0  0  0  0  0  0  0  0  0  0  0
  1  2  2  0
  2  3  1  0
  2  4  1  0
  2  5  1  0
  5  6  1  0
  6  7  1  0
  7  8  1  0
  7  9  1  0
  9 10  1  0
 10 11  1  0
  9 12  1  0
 12  5  1  0
  3 13  1  0
  4 14  1  0
  5 15  1  1
  6 16  1  0
  6 17  1  0
  7 18  1  1
  8 19  1  0
  9 20  1  6
 10 21  1  0
 10 22  1  0
 11 23  1  0
M  END
$$$$

     RDKit          3D

 23 23  0  0  0  0  0  0  0  0999 V2000
    3.3932    0.6919   -1.0233 O   0  0  0  0  0  0  0  0  0  0  0  0
    2.5172    0.6222    0.2123 P   0  0  0  0  0  5  0  0  0  0  0  0
    2.5011    2.1465    0.9405 O   0  0  0  0  0  0  0  0  0  0  0  0
    3.1884   -0.4707    1.2922 O   0  0  0  0  0  0  0  0  0  0  0  0
    0.8158    0.1988   -0.2291 C   0  0  2  0  0  0  0  0  0  0  0  0
   -0.1852    0.8742    0.6560 C   0  0  0  0  0  0  0  0  0  0  0  0
   -1.1515   -0.2483    0.9445 C   0  0  1  0  0  0  0  0  0  0  0  0
   -2.4717    0.1920    0.8645 O   0  0  0  0  0  0  0  0  0  0  0  0
   -0.8079   -1.2337   -0.1332 C   0  0  1  0  0  0  0  0  0  0  0  0
   -1.4216   -0.8923   -1.4696 C   0  0  0  0  0  0  0  0  0  0  0  0
   -2.8290   -0.9875   -1.3677 O   0  0  0  0  0  0  0  0  0  0  0  0
    0.5776   -1.1537   -0.1955 O   0  0  0  0  0  0  0  0  0  0  0  0
    2.1567    2.7859    0.2439 H   0  0  0  0  0  0  0  0  0  0  0  0
    4.1562   -0.2721    1.3502 H   0  0  0  0  0  0  0  0  0  0  0  0
    0.6858    0.5753   -1.2875 H   0  0  0  0  0  0  0  0  0  0  0  0
   -0.7225    1.7105    0.1540 H   0  0  0  0  0  0  0  0  0  0  0  0
    0.2442    1.2058    1.6224 H   0  0  0  0  0  0  0  0  0  0  0  0
   -0.9918   -0.7288    1.9200 H   0  0  0  0  0  0  0  0  0  0  0  0
   -3.0061   -0.1309    1.6161 H   0  0  0  0  0  0  0  0  0  0  0  0
   -1.1576   -2.2510    0.1438 H   0  0  0  0  0  0  0  0  0  0  0  0
   -1.2263    0.1330   -1.8045 H   0  0  0  0  0  0  0  0  0  0  0  0
   -1.1131   -1.6672   -2.1949 H   0  0  0  0  0  0  0  0  0  0  0  0
   -3.1518   -1.1000   -2.2991 H   0  0  0  0  0  0  0  0  0  0  0  0
  1  2  2  0
  2  3  1  0
  2  4  1  0
  2  5  1  0
  5  6  1  0
  6  7  1  0
  7  8  1  0
  7  9  1  0
  9 10  1  0
 10 11  1  0
  9 12  1  0
 12  5  1  0
  3 13  1  0
  4 14  1  0
  5 15  1  6
  6 16  1  0
  6 17  1  0
  7 18  1  1
  8 19  1  0
  9 20  1  1
 10 21  1  0
 10 22  1  0
 11 23  1  0
M  END
$$$$

     RDKit          3D

 23 23  0  0  0  0  0  0  0  0999 V2000
    1.1671    1.2446   -1.4225 O   0  0  0  0  0  0  0  0  0  0  0  0
    1.9906    0.6462   -0.3224 P   0  0  0  0  0  5  0  0  0  0  0  0
    3.2436   -0.2388   -1.0772 O   0  0  0  0  0  0  0  0  0  0  0  0
    2.6697    1.8414    0.6495 O   0  0  0  0  0  0  0  0  0  0  0  0
    1.0725   -0.5104    0.7045 C   0  0  2  0  0  0  0  0  0  0  0  0
    0.3755   -1.5074   -0.2157 C   0  0  0  0  0  0  0  0  0  0  0  0
   -0.8126   -0.6859   -0.6805 C   0  0  1  0  0  0  0  0  0  0  0  0
   -1.9258   -1.5196   -0.6336 O   0  0  0  0  0  0  0  0  0  0  0  0
   -0.9149    0.3902    0.3743 C   0  0  1  0  0  0  0  0  0  0  0  0
   -2.3453    0.4309    0.8716 C   0  0  0  0  0  0  0  0  0  0  0  0
   -3.1348    0.7741   -0.2515 O   0  0  0  0  0  0  0  0  0  0  0  0
   -0.0056    0.0681    1.3495 O   0  0  0  0  0  0  0  0  0  0  0  0
    3.7430    0.4187   -1.6282 H   0  0  0  0  0  0  0  0  0  0  0  0
    3.1642    2.4693    0.0637 H   0  0  0  0  0  0  0  0  0  0  0  0
    1.7698   -0.9993    1.3866 H   0  0  0  0  0  0  0  0  0  0  0  0
    1.0652   -1.7600   -1.0205 H   0  0  0  0  0  0  0  0  0  0  0  0
    0.0784   -2.3980    0.3514 H   0  0  0  0  0  0  0  0  0  0  0  0
   -0.6236   -0.2416   -1.6559 H   0  0  0  0  0  0  0  0  0  0  0  0
   -1.7841   -2.2094    0.0719 H   0  0  0  0  0  0  0  0  0  0  0  0
   -0.6835    1.3976   -0.0026 H   0  0  0  0  0  0  0  0  0  0  0  0
   -2.4911    1.2396    1.6041 H   0  0  0  0  0  0  0  0  0  0  0  0
   -2.7130   -0.5548    1.2048 H   0  0  0  0  0  0  0  0  0  0  0  0
   -2.9054    1.7045   -0.5575 H   0  0  0  0  0  0  0  0  0  0  0  0
  1  2  2  0
  2  3  1  0
  2  4  1  0
  2  5  1  0
  5  6  1  0
  6  7  1  0
  7  8  1  0
  7  9  1  0
  9 10  1  0
 10 11  1  0
  9 12  1  0
 12  5  1  0
  3 13  1  0
  4 14  1  0
  5 15  1  1
  6 16  1  0
  6 17  1  0
  7 18  1  6
  8 19  1  0
  9 20  1  6
 10 21  1  0
 10 22  1  0
 11 23  1  0
M  END
$$$$

     RDKit          3D

 23 23  0  0  0  0  0  0  0  0999 V2000
    2.2139    1.2005   -1.6182 O   0  0  0  0  0  0  0  0  0  0  0  0
    2.3284    0.8937   -0.1365 P   0  0  0  0  0  5  0  0  0  0  0  0
    2.3358    2.3718    0.7165 O   0  0  0  0  0  0  0  0  0  0  0  0
    3.7484    0.0578    0.2032 O   0  0  0  0  0  0  0  0  0  0  0  0
    0.9331   -0.0800    0.4379 C   0  0  2  0  0  0  0  0  0  0  0  0
    0.5582   -1.1857   -0.5285 C   0  0  0  0  0  0  0  0  0  0  0  0
   -0.9688   -1.1401   -0.3623 C   0  0  1  0  0  0  0  0  0  0  0  0
   -1.2315   -1.7162    0.8784 O   0  0  0  0  0  0  0  0  0  0  0  0
   -1.1123    0.3665   -0.3296 C   0  0  1  0  0  0  0  0  0  0  0  0
   -2.4979    0.8098    0.0190 C   0  0  0  0  0  0  0  0  0  0  0  0
   -2.9613    0.3056    1.2123 O   0  0  0  0  0  0  0  0  0  0  0  0
   -0.1622    0.7282    0.5919 O   0  0  0  0  0  0  0  0  0  0  0  0
    2.7542    2.2724    1.6088 H   0  0  0  0  0  0  0  0  0  0  0  0
    3.5618   -0.9070    0.0290 H   0  0  0  0  0  0  0  0  0  0  0  0
    1.2326   -0.5945    1.3908 H   0  0  0  0  0  0  0  0  0  0  0  0
    0.7547   -0.8717   -1.5700 H   0  0  0  0  0  0  0  0  0  0  0  0
    0.9696   -2.1556   -0.2550 H   0  0  0  0  0  0  0  0  0  0  0  0
   -1.4878   -1.6160   -1.1885 H   0  0  0  0  0  0  0  0  0  0  0  0
   -0.5056   -2.3679    1.1163 H   0  0  0  0  0  0  0  0  0  0  0  0
   -0.8599    0.7405   -1.3273 H   0  0  0  0  0  0  0  0  0  0  0  0
   -3.1575    0.5229   -0.8479 H   0  0  0  0  0  0  0  0  0  0  0  0
   -2.4938    1.9174    0.0384 H   0  0  0  0  0  0  0  0  0  0  0  0
   -3.9523    0.4474    1.2271 H   0  0  0  0  0  0  0  0  0  0  0  0
  1  2  2  0
  2  3  1  0
  2  4  1  0
  2  5  1  0
  5  6  1  0
  6  7  1  0
  7  8  1  0
  7  9  1  0
  9 10  1  0
 10 11  1  0
  9 12  1  0
 12  5  1  0
  3 13  1  0
  4 14  1  0
  5 15  1  1
  6 16  1  0
  6 17  1  0
  7 18  1  6
  8 19  1  0
  9 20  1  6
 10 21  1  0
 10 22  1  0
 11 23  1  0
M  END
$$$$

     RDKit          3D

 23 23  0  0  0  0  0  0  0  0999 V2000
    2.4556   -0.5904    1.3092 O   0  0  0  0  0  0  0  0  0  0  0  0
    2.4982   -0.2055   -0.1580 P   0  0  0  0  0  5  0  0  0  0  0  0
    3.4049    1.2059   -0.2980 O   0  0  0  0  0  0  0  0  0  0  0  0
    3.1157   -1.4806   -1.0363 O   0  0  0  0  0  0  0  0  0  0  0  0
    0.7832    0.1994   -0.6626 C   0  0  2  0  0  0  0  0  0  0  0  0
    0.1466    0.8510    0.5482 C   0  0  0  0  0  0  0  0  0  0  0  0
   -0.7388   -0.2758    1.0289 C   0  0  1  0  0  0  0  0  0  0  0  0
   -1.7971    0.1482    1.7915 O   0  0  0  0  0  0  0  0  0  0  0  0
   -1.1519   -0.8644   -0.3025 C   0  0  1  0  0  0  0  0  0  0  0  0
   -2.1147    0.0673   -1.0401 C   0  0  0  0  0  0  0  0  0  0  0  0
   -3.3261    0.1386   -0.3995 O   0  0  0  0  0  0  0  0  0  0  0  0
    0.0643   -0.9229   -0.9642 O   0  0  0  0  0  0  0  0  0  0  0  0
    2.8293    1.9511    0.0618 H   0  0  0  0  0  0  0  0  0  0  0  0
    3.7223   -2.0047   -0.4551 H   0  0  0  0  0  0  0  0  0  0  0  0
    0.8028    0.8704   -1.5401 H   0  0  0  0  0  0  0  0  0  0  0  0
   -0.4126    1.7395    0.2217 H   0  0  0  0  0  0  0  0  0  0  0  0
    0.8805    1.1600    1.3095 H   0  0  0  0  0  0  0  0  0  0  0  0
   -0.0874   -1.0141    1.5189 H   0  0  0  0  0  0  0  0  0  0  0  0
   -2.1142   -0.6355    2.3287 H   0  0  0  0  0  0  0  0  0  0  0  0
   -1.5920   -1.8530   -0.1748 H   0  0  0  0  0  0  0  0  0  0  0  0
   -2.2941   -0.4301   -2.0341 H   0  0  0  0  0  0  0  0  0  0  0  0
   -1.6354    1.0289   -1.2482 H   0  0  0  0  0  0  0  0  0  0  0  0
   -3.4392    0.9166    0.1952 H   0  0  0  0  0  0  0  0  0  0  0  0
  1  2  2  0
  2  3  1  0
  2  4  1  0
  2  5  1  0
  5  6  1  0
  6  7  1  0
  7  8  1  0
  7  9  1  0
  9 10  1  0
 10 11  1  0
  9 12  1  0
 12  5  1  0
  3 13  1  0
  4 14  1  0
  5 15  1  6
  6 16  1  0
  6 17  1  0
  7 18  1  1
  8 19  1  0
  9 20  1  1
 10 21  1  0
 10 22  1  0
 11 23  1  0
M  END
$$$$
