
     RDKit          3D

 28 29  0  0  0  0  0  0  0  0999 V2000
   -4.2333   -0.5085    1.8736 O   0  0  0  0  0  0  0  0  0  0  0  0
   -3.5826   -0.2702    0.8452 C   0  0  0  0  0  0  0  0  0  0  0  0
   -3.2046   -1.2615   -0.2048 C   0  0  0  0  0  0  0  0  0  0  0  0
   -2.0156   -0.5877   -0.8414 C   0  0  2  0  0  0  0  0  0  0  0  0
   -0.8399   -0.7918    0.0206 C   0  0  0  0  0  0  0  0  0  0  0  0
   -0.9339   -1.4408    1.0919 O   0  0  0  0  0  0  0  0  0  0  0  0
    0.4488   -0.2756   -0.3024 N   0  0  0  0  0  0  0  0  0  0  0  0
    1.5996   -0.4997    0.5830 C   0  0  0  0  0  0  0  0  0  0  0  0
    2.8237    0.1476    0.0072 C   0  0  0  0  0  0  0  0  0  0  0  0
    3.2265   -0.2956   -1.2468 O   0  0  0  0  0  0  0  0  0  0  0  0
    3.9175    0.4196    1.0082 C   0  0  0  0  0  0  0  0  0  0  0  0
    3.1142    1.5874    0.3756 C   0  0  0  0  0  0  0  0  0  0  0  0
   -2.4571    0.8601   -0.8705 C   0  0  0  0  0  0  0  0  0  0  0  0
   -3.0639    0.9946    0.4560 N   0  0  0  0  0  0  0  0  0  0  0  0
   -2.9100   -2.2284    0.2118 H   0  0  0  0  0  0  0  0  0  0  0  0
   -3.9913   -1.3427   -0.9840 H   0  0  0  0  0  0  0  0  0  0  0  0
   -1.8510   -0.9187   -1.8871 H   0  0  0  0  0  0  0  0  0  0  0  0
    0.5297    0.2625   -1.1892 H   0  0  0  0  0  0  0  0  0  0  0  0
    1.3667   -0.1699    1.5977 H   0  0  0  0  0  0  0  0  0  0  0  0
    1.7787   -1.6091    0.6004 H   0  0  0  0  0  0  0  0  0  0  0  0
    3.6014   -1.2199   -1.2074 H   0  0  0  0  0  0  0  0  0  0  0  0
    3.7250    0.2089    2.0739 H   0  0  0  0  0  0  0  0  0  0  0  0
    4.9621    0.2918    0.6572 H   0  0  0  0  0  0  0  0  0  0  0  0
    2.3410    2.0591    1.0138 H   0  0  0  0  0  0  0  0  0  0  0  0
    3.6612    2.2095   -0.3726 H   0  0  0  0  0  0  0  0  0  0  0  0
   -1.6399    1.5603   -1.0325 H   0  0  0  0  0  0  0  0  0  0  0  0
   -3.2869    0.9287   -1.5945 H   0  0  0  0  0  0  0  0  0  0  0  0
   -3.0860    1.8898    0.9850 H   0  0  0  0  0  0  0  0  0  0  0  0
  1  2  2  0
  2  3  1  0
  3  4  1  0
  4  5  1  0
  5  6  2  0
  5  7  1  0
  7  8  1  0
  8  9  1  0
  9 10  1  0
  9 11  1  0
 11 12  1  0
  4 13  1  0
 13 14  1  0
 14  2  1  0
 12  9  1  0
  3 15  1  0
  3 16  1  0
  4 17  1  6
  7 18  1  0
  8 19  1  0
  8 20  1  0
 10 21  1  0
 11 22  1  0
 11 23  1  0
 12 24  1  0
 12 25  1  0
 13 26  1  0
 13 27  1  0
 14 28  1  0
M  END
$$$$

     RDKit          3D

 28 29  0  0  0  0  0  0  0  0999 V2000
   -5.3274    0.9072   -0.5051 O   0  0  0  0  0  0  0  0  0  0  0  0
   -4.1440    0.6590   -0.1810 C   0  0  0  0  0  0  0  0  0  0  0  0
   -3.1406   -0.0312   -1.0302 C   0  0  0  0  0  0  0  0  0  0  0  0
   -1.8616    0.3310   -0.3451 C   0  0  2  0  0  0  0  0  0  0  0  0
   -0.7381   -0.5485   -0.6559 C   0  0  0  0  0  0  0  0  0  0  0  0
   -0.8564   -1.5280   -1.4402 O   0  0  0  0  0  0  0  0  0  0  0  0
    0.5284   -0.2929   -0.0557 N   0  0  0  0  0  0  0  0  0  0  0  0
    1.6915   -1.1143   -0.3096 C   0  0  0  0  0  0  0  0  0  0  0  0
    2.8591   -0.5749    0.4752 C   0  0  0  0  0  0  0  0  0  0  0  0
    2.6384   -0.5646    1.8578 O   0  0  0  0  0  0  0  0  0  0  0  0
    3.3921    0.7608   -0.0495 C   0  0  0  0  0  0  0  0  0  0  0  0
    4.2122   -0.5001   -0.0878 C   0  0  0  0  0  0  0  0  0  0  0  0
   -2.2500    0.3461    1.1072 C   0  0  0  0  0  0  0  0  0  0  0  0
   -3.5508    0.9969    1.0641 N   0  0  0  0  0  0  0  0  0  0  0  0
   -3.2966   -1.1311   -0.9424 H   0  0  0  0  0  0  0  0  0  0  0  0
   -3.1786    0.2826   -2.0849 H   0  0  0  0  0  0  0  0  0  0  0  0
   -1.5885    1.3753   -0.6181 H   0  0  0  0  0  0  0  0  0  0  0  0
    0.6028    0.5341    0.5984 H   0  0  0  0  0  0  0  0  0  0  0  0
    1.9202   -1.0609   -1.3994 H   0  0  0  0  0  0  0  0  0  0  0  0
    1.4842   -2.1763   -0.0134 H   0  0  0  0  0  0  0  0  0  0  0  0
    2.3284    0.3483    2.0939 H   0  0  0  0  0  0  0  0  0  0  0  0
    2.9731    1.1507   -0.9942 H   0  0  0  0  0  0  0  0  0  0  0  0
    3.6738    1.5379    0.6725 H   0  0  0  0  0  0  0  0  0  0  0  0
    4.3999   -0.9444   -1.0808 H   0  0  0  0  0  0  0  0  0  0  0  0
    5.0560   -0.5761    0.6224 H   0  0  0  0  0  0  0  0  0  0  0  0
   -2.3868   -0.6936    1.5112 H   0  0  0  0  0  0  0  0  0  0  0  0
   -1.5110    0.9161    1.6920 H   0  0  0  0  0  0  0  0  0  0  0  0
   -3.9298    1.5910    1.8328 H   0  0  0  0  0  0  0  0  0  0  0  0
  1  2  2  0
  2  3  1  0
  3  4  1  0
  4  5  1  0
  5  6  2  0
  5  7  1  0
  7  8  1  0
  8  9  1  0
  9 10  1  0
  9 11  1  0
 11 12  1  0
  4 13  1  0
 13 14  1  0
 14  2  1  0
 12  9  1  0
  3 15  1  0
  3 16  1  0
  4 17  1  6
  7 18  1  0
  8 19  1  0
  8 20  1  0
 10 21  1  0
 11 22  1  0
 11 23  1  0
 12 24  1  0
 12 25  1  0
 13 26  1  0
 13 27  1  0
 14 28  1  0
M  END
$$$$

     RDKit          3D

 28 29  0  0  0  0  0  0  0  0999 V2000
   -4.2959    2.1148    0.3718 O   0  0  0  0  0  0  0  0  0  0  0  0
   -3.5743    1.1814   -0.0244 C   0  0  0  0  0  0  0  0  0  0  0  0
   -3.3667   -0.0972    0.7063 C   0  0  0  0  0  0  0  0  0  0  0  0
   -2.1347   -0.6428   -0.0159 C   0  0  2  0  0  0  0  0  0  0  0  0
   -0.9468    0.0763    0.5221 C   0  0  0  0  0  0  0  0  0  0  0  0
   -1.0508    0.9688    1.4222 O   0  0  0  0  0  0  0  0  0  0  0  0
    0.3183   -0.2828   -0.0199 N   0  0  0  0  0  0  0  0  0  0  0  0
    1.4876    0.4090    0.4938 C   0  0  0  0  0  0  0  0  0  0  0  0
    2.7228   -0.0980   -0.1905 C   0  0  0  0  0  0  0  0  0  0  0  0
    2.7196    0.0821   -1.5720 O   0  0  0  0  0  0  0  0  0  0  0  0
    3.9843    0.0105    0.5789 C   0  0  0  0  0  0  0  0  0  0  0  0
    3.4182   -1.3335    0.3019 C   0  0  0  0  0  0  0  0  0  0  0  0
   -2.3765   -0.1852   -1.4250 C   0  0  0  0  0  0  0  0  0  0  0  0
   -2.8321    1.1842   -1.2371 N   0  0  0  0  0  0  0  0  0  0  0  0
   -3.0882    0.0507    1.7552 H   0  0  0  0  0  0  0  0  0  0  0  0
   -4.2239   -0.7887    0.5862 H   0  0  0  0  0  0  0  0  0  0  0  0
   -2.0488   -1.7404    0.0887 H   0  0  0  0  0  0  0  0  0  0  0  0
    0.3909   -1.0051   -0.7467 H   0  0  0  0  0  0  0  0  0  0  0  0
    1.4012    1.4991    0.3210 H   0  0  0  0  0  0  0  0  0  0  0  0
    1.5436    0.2367    1.6046 H   0  0  0  0  0  0  0  0  0  0  0  0
    3.4758    0.6529   -1.8761 H   0  0  0  0  0  0  0  0  0  0  0  0
    3.9755    0.3471    1.6265 H   0  0  0  0  0  0  0  0  0  0  0  0
    4.8739    0.3044   -0.0080 H   0  0  0  0  0  0  0  0  0  0  0  0
    2.8620   -1.8978    1.0714 H   0  0  0  0  0  0  0  0  0  0  0  0
    3.9397   -1.9983   -0.4272 H   0  0  0  0  0  0  0  0  0  0  0  0
   -3.1135   -0.8181   -1.9360 H   0  0  0  0  0  0  0  0  0  0  0  0
   -1.4117   -0.2300   -1.9778 H   0  0  0  0  0  0  0  0  0  0  0  0
   -2.6493    1.9997   -1.8664 H   0  0  0  0  0  0  0  0  0  0  0  0
  1  2  2  0
  2  3  1  0
  3  4  1  0
  4  5  1  0
  5  6  2  0
  5  7  1  0
  7  8  1  0
  8  9  1  0
  9 10  1  0
  9 11  1  0
 11 12  1  0
  4 13  1  0
 13 14  1  0
 14  2  1  0
 12  9  1  0
  3 15  1  0
  3 16  1  0
  4 17  1  6
  7 18  1  0
  8 19  1  0
  8 20  1  0
 10 21  1  0
 11 22  1  0
 11 23  1  0
 12 24  1  0
 12 25  1  0
 13 26  1  0
 13 27  1  0
 14 28  1  0
M  END
$$$$

     RDKit          3D

 28 29  0  0  0  0  0  0  0  0999 V2000
    3.8876    0.5317   -1.9322 O   0  0  0  0  0  0  0  0  0  0  0  0
    3.4113    0.2144   -0.8002 C   0  0  0  0  0  0  0  0  0  0  0  0
    2.6034   -1.0068   -0.4677 C   0  0  0  0  0  0  0  0  0  0  0  0
    1.9940   -0.6287    0.8629 C   0  0  2  0  0  0  0  0  0  0  0  0
    0.7871    0.1924    0.7281 C   0  0  0  0  0  0  0  0  0  0  0  0
    0.7654    1.3391    1.2429 O   0  0  0  0  0  0  0  0  0  0  0  0
   -0.3812   -0.2313    0.0410 N   0  0  0  0  0  0  0  0  0  0  0  0
   -1.5174    0.6328   -0.0441 C   0  0  0  0  0  0  0  0  0  0  0  0
   -2.6683    0.0508   -0.7962 C   0  0  0  0  0  0  0  0  0  0  0  0
   -2.5130   -0.3170   -2.1229 O   0  0  0  0  0  0  0  0  0  0  0  0
   -3.7709   -0.6629    0.0081 C   0  0  0  0  0  0  0  0  0  0  0  0
   -4.0050    0.7255   -0.5079 C   0  0  0  0  0  0  0  0  0  0  0  0
    3.1020    0.1943    1.4810 C   0  0  0  0  0  0  0  0  0  0  0  0
    3.5790    1.0028    0.3741 N   0  0  0  0  0  0  0  0  0  0  0  0
    1.8775   -1.2581   -1.2369 H   0  0  0  0  0  0  0  0  0  0  0  0
    3.3543   -1.8061   -0.2662 H   0  0  0  0  0  0  0  0  0  0  0  0
    1.8290   -1.5642    1.4380 H   0  0  0  0  0  0  0  0  0  0  0  0
   -0.3839   -1.1712   -0.3895 H   0  0  0  0  0  0  0  0  0  0  0  0
   -1.8696    0.8125    1.0096 H   0  0  0  0  0  0  0  0  0  0  0  0
   -1.2416    1.6337   -0.4309 H   0  0  0  0  0  0  0  0  0  0  0  0
   -2.6032   -1.2927   -2.2455 H   0  0  0  0  0  0  0  0  0  0  0  0
   -3.6319   -0.7413    1.1011 H   0  0  0  0  0  0  0  0  0  0  0  0
   -4.3359   -1.4664   -0.5054 H   0  0  0  0  0  0  0  0  0  0  0  0
   -4.0365    1.5508    0.2236 H   0  0  0  0  0  0  0  0  0  0  0  0
   -4.7278    0.8506   -1.3344 H   0  0  0  0  0  0  0  0  0  0  0  0
    2.6306    0.8612    2.2308 H   0  0  0  0  0  0  0  0  0  0  0  0
    3.8941   -0.4171    1.9311 H   0  0  0  0  0  0  0  0  0  0  0  0
    3.9710    1.9713    0.4076 H   0  0  0  0  0  0  0  0  0  0  0  0
  1  2  2  0
  2  3  1  0
  3  4  1  0
  4  5  1  0
  5  6  2  0
  5  7  1  0
  7  8  1  0
  8  9  1  0
  9 10  1  0
  9 11  1  0
 11 12  1  0
  4 13  1  0
 13 14  1  0
 14  2  1  0
 12  9  1  0
  3 15  1  0
  3 16  1  0
  4 17  1  1
  7 18  1  0
  8 19  1  0
  8 20  1  0
 10 21  1  0
 11 22  1  0
 11 23  1  0
 12 24  1  0
 12 25  1  0
 13 26  1  0
 13 27  1  0
 14 28  1  0
M  END
$$$$

     RDKit          3D

 28 29  0  0  0  0  0  0  0  0999 V2000
   -3.8819   -1.8484   -1.3873 O   0  0  0  0  0  0  0  0  0  0  0  0
   -3.3668   -0.9844   -0.6380 C   0  0  0  0  0  0  0  0  0  0  0  0
   -2.5049    0.1108   -1.1167 C   0  0  0  0  0  0  0  0  0  0  0  0
   -2.1346    0.9113    0.1109 C   0  0  2  0  0  0  0  0  0  0  0  0
   -0.8456    0.4716    0.6771 C   0  0  0  0  0  0  0  0  0  0  0  0
   -0.7781    0.0275    1.8737 O   0  0  0  0  0  0  0  0  0  0  0  0
    0.3796    0.5069   -0.0409 N   0  0  0  0  0  0  0  0  0  0  0  0
    1.6016    0.0627    0.5722 C   0  0  0  0  0  0  0  0  0  0  0  0
    2.7959    0.1606   -0.3036 C   0  0  0  0  0  0  0  0  0  0  0  0
    3.1140    1.4384   -0.7611 O   0  0  0  0  0  0  0  0  0  0  0  0
    4.0053   -0.6384    0.2259 C   0  0  0  0  0  0  0  0  0  0  0  0
    3.3466   -0.9809   -1.0557 C   0  0  0  0  0  0  0  0  0  0  0  0
   -3.2318    0.5244    1.0774 C   0  0  0  0  0  0  0  0  0  0  0  0
   -3.4801   -0.8565    0.7692 N   0  0  0  0  0  0  0  0  0  0  0  0
   -1.5555   -0.2545   -1.5577 H   0  0  0  0  0  0  0  0  0  0  0  0
   -3.0898    0.7420   -1.8438 H   0  0  0  0  0  0  0  0  0  0  0  0
   -2.1975    2.0009   -0.0595 H   0  0  0  0  0  0  0  0  0  0  0  0
    0.3267    0.8731   -1.0293 H   0  0  0  0  0  0  0  0  0  0  0  0
    1.4296   -0.9586    0.9656 H   0  0  0  0  0  0  0  0  0  0  0  0
    1.7467    0.7043    1.4884 H   0  0  0  0  0  0  0  0  0  0  0  0
    3.5164    2.0032   -0.0280 H   0  0  0  0  0  0  0  0  0  0  0  0
    3.8500   -1.3313    1.0526 H   0  0  0  0  0  0  0  0  0  0  0  0
    4.9829   -0.1094    0.2611 H   0  0  0  0  0  0  0  0  0  0  0  0
    2.7914   -1.9375   -1.1518 H   0  0  0  0  0  0  0  0  0  0  0  0
    3.9365   -0.7441   -1.9672 H   0  0  0  0  0  0  0  0  0  0  0  0
   -4.1574    1.1145    0.9313 H   0  0  0  0  0  0  0  0  0  0  0  0
   -2.8947    0.6402    2.1408 H   0  0  0  0  0  0  0  0  0  0  0  0
   -3.7045   -1.6484    1.4218 H   0  0  0  0  0  0  0  0  0  0  0  0
  1  2  2  0
  2  3  1  0
  3  4  1  0
  4  5  1  0
  5  6  2  0
  5  7  1  0
  7  8  1  0
  8  9  1  0
  9 10  1  0
  9 11  1  0
 11 12  1  0
  4 13  1  0
 13 14  1  0
 14  2  1  0
 12  9  1  0
  3 15  1  0
  3 16  1  0
  4 17  1  6
  7 18  1  0
  8 19  1  0
  8 20  1  0
 10 21  1  0
 11 22  1  0
 11 23  1  0
 12 24  1  0
 12 25  1  0
 13 26  1  0
 13 27  1  0
 14 28  1  0
M  END
$$$$

     RDKit          3D

 28 29  0  0  0  0  0  0  0  0999 V2000
    3.0346    2.4288    0.6707 O   0  0  0  0  0  0  0  0  0  0  0  0
    2.9027    1.2044    0.3569 C   0  0  0  0  0  0  0  0  0  0  0  0
    2.7869    0.6447   -1.0391 C   0  0  0  0  0  0  0  0  0  0  0  0
    1.9700   -0.5965   -0.7635 C   0  0  2  0  0  0  0  0  0  0  0  0
    0.6213   -0.1935   -0.2878 C   0  0  0  0  0  0  0  0  0  0  0  0
    0.2927    1.0137   -0.1623 O   0  0  0  0  0  0  0  0  0  0  0  0
   -0.3622   -1.1655    0.0483 N   0  0  0  0  0  0  0  0  0  0  0  0
   -1.6825   -0.8714    0.5129 C   0  0  0  0  0  0  0  0  0  0  0  0
   -2.5086   -0.0578   -0.4640 C   0  0  0  0  0  0  0  0  0  0  0  0
   -2.6802   -0.6915   -1.6907 O   0  0  0  0  0  0  0  0  0  0  0  0
   -3.7660    0.5238    0.2013 C   0  0  0  0  0  0  0  0  0  0  0  0
   -2.6941    1.3865   -0.3493 C   0  0  0  0  0  0  0  0  0  0  0  0
    2.7076   -1.1330    0.4687 C   0  0  0  0  0  0  0  0  0  0  0  0
    2.8346    0.0903    1.2397 N   0  0  0  0  0  0  0  0  0  0  0  0
    2.2715    1.3565   -1.7052 H   0  0  0  0  0  0  0  0  0  0  0  0
    3.7741    0.3362   -1.3943 H   0  0  0  0  0  0  0  0  0  0  0  0
    1.9522   -1.3105   -1.5791 H   0  0  0  0  0  0  0  0  0  0  0  0
   -0.0472   -2.1757   -0.0705 H   0  0  0  0  0  0  0  0  0  0  0  0
   -1.6946   -0.3928    1.5189 H   0  0  0  0  0  0  0  0  0  0  0  0
   -2.2265   -1.8296    0.6424 H   0  0  0  0  0  0  0  0  0  0  0  0
   -2.5034   -0.0673   -2.4378 H   0  0  0  0  0  0  0  0  0  0  0  0
   -4.6822    0.3014   -0.3421 H   0  0  0  0  0  0  0  0  0  0  0  0
   -3.8693    0.4668    1.2957 H   0  0  0  0  0  0  0  0  0  0  0  0
   -2.1923    2.0432    0.3665 H   0  0  0  0  0  0  0  0  0  0  0  0
   -2.9462    1.9110   -1.3169 H   0  0  0  0  0  0  0  0  0  0  0  0
    2.1084   -1.8986    0.9752 H   0  0  0  0  0  0  0  0  0  0  0  0
    3.7282   -1.4710    0.1868 H   0  0  0  0  0  0  0  0  0  0  0  0
    2.8706    0.1472    2.2798 H   0  0  0  0  0  0  0  0  0  0  0  0
  1  2  2  0
  2  3  1  0
  3  4  1  0
  4  5  1  0
  5  6  2  0
  5  7  1  0
  7  8  1  0
  8  9  1  0
  9 10  1  0
  9 11  1  0
 11 12  1  0
  4 13  1  0
 13 14  1  0
 14  2  1  0
 12  9  1  0
  3 15  1  0
  3 16  1  0
  4 17  1  6
  7 18  1  0
  8 19  1  0
  8 20  1  0
 10 21  1  0
 11 22  1  0
 11 23  1  0
 12 24  1  0
 12 25  1  0
 13 26  1  0
 13 27  1  0
 14 28  1  0
M  END
$$$$

     RDKit          3D

 28 29  0  0  0  0  0  0  0  0999 V2000
   -4.9805    0.5747    1.3986 O   0  0  0  0  0  0  0  0  0  0  0  0
   -3.8235    0.6079    0.9184 C   0  0  0  0  0  0  0  0  0  0  0  0
   -2.9301   -0.5829    0.8262 C   0  0  0  0  0  0  0  0  0  0  0  0
   -2.0238   -0.2205   -0.3300 C   0  0  2  0  0  0  0  0  0  0  0  0
   -0.6558   -0.8119   -0.1395 C   0  0  0  0  0  0  0  0  0  0  0  0
   -0.3781   -1.5000    0.8647 O   0  0  0  0  0  0  0  0  0  0  0  0
    0.3188   -0.5722   -1.1273 N   0  0  0  0  0  0  0  0  0  0  0  0
    1.6597   -1.0633   -1.0790 C   0  0  0  0  0  0  0  0  0  0  0  0
    2.4459   -0.5628    0.0885 C   0  0  0  0  0  0  0  0  0  0  0  0
    2.0353   -0.8296    1.3685 O   0  0  0  0  0  0  0  0  0  0  0  0
    3.1388    0.7799   -0.1764 C   0  0  0  0  0  0  0  0  0  0  0  0
    3.9598   -0.4478   -0.1651 C   0  0  0  0  0  0  0  0  0  0  0  0
   -1.9709    1.2857   -0.3639 C   0  0  0  0  0  0  0  0  0  0  0  0
   -3.1466    1.7164    0.3880 N   0  0  0  0  0  0  0  0  0  0  0  0
   -2.2838   -0.6752    1.7189 H   0  0  0  0  0  0  0  0  0  0  0  0
   -3.4834   -1.5004    0.6203 H   0  0  0  0  0  0  0  0  0  0  0  0
   -2.4846   -0.5834   -1.2720 H   0  0  0  0  0  0  0  0  0  0  0  0
    0.0415    0.0143   -1.9687 H   0  0  0  0  0  0  0  0  0  0  0  0
    1.6990   -2.1781   -1.1443 H   0  0  0  0  0  0  0  0  0  0  0  0
    2.1936   -0.7276   -2.0126 H   0  0  0  0  0  0  0  0  0  0  0  0
    1.9946    0.0133    1.9132 H   0  0  0  0  0  0  0  0  0  0  0  0
    3.1835    1.4533    0.7178 H   0  0  0  0  0  0  0  0  0  0  0  0
    2.9412    1.2958   -1.1180 H   0  0  0  0  0  0  0  0  0  0  0  0
    4.6061   -0.6366    0.7158 H   0  0  0  0  0  0  0  0  0  0  0  0
    4.3383   -0.8566   -1.1158 H   0  0  0  0  0  0  0  0  0  0  0  0
   -1.0360    1.5957    0.1515 H   0  0  0  0  0  0  0  0  0  0  0  0
   -1.9617    1.6889   -1.3844 H   0  0  0  0  0  0  0  0  0  0  0  0
   -3.3971    2.7231    0.4826 H   0  0  0  0  0  0  0  0  0  0  0  0
  1  2  2  0
  2  3  1  0
  3  4  1  0
  4  5  1  0
  5  6  2  0
  5  7  1  0
  7  8  1  0
  8  9  1  0
  9 10  1  0
  9 11  1  0
 11 12  1  0
  4 13  1  0
 13 14  1  0
 14  2  1  0
 12  9  1  0
  3 15  1  0
  3 16  1  0
  4 17  1  6
  7 18  1  0
  8 19  1  0
  8 20  1  0
 10 21  1  0
 11 22  1  0
 11 23  1  0
 12 24  1  0
 12 25  1  0
 13 26  1  0
 13 27  1  0
 14 28  1  0
M  END
$$$$

     RDKit          3D

 28 29  0  0  0  0  0  0  0  0999 V2000
   -3.5385    2.3913   -0.3694 O   0  0  0  0  0  0  0  0  0  0  0  0
   -3.1764    1.2215   -0.1083 C   0  0  0  0  0  0  0  0  0  0  0  0
   -2.6278    0.7211    1.1834 C   0  0  0  0  0  0  0  0  0  0  0  0
   -1.7494   -0.4186    0.7120 C   0  0  2  0  0  0  0  0  0  0  0  0
   -0.5134    0.1193    0.0700 C   0  0  0  0  0  0  0  0  0  0  0  0
   -0.3662    1.3737    0.0057 O   0  0  0  0  0  0  0  0  0  0  0  0
    0.4307   -0.8099   -0.4341 N   0  0  0  0  0  0  0  0  0  0  0  0
    1.6442   -0.4283   -1.0383 C   0  0  0  0  0  0  0  0  0  0  0  0
    2.7088    0.2111   -0.2480 C   0  0  0  0  0  0  0  0  0  0  0  0
    3.8075    0.6181   -1.0539 O   0  0  0  0  0  0  0  0  0  0  0  0
    3.1798   -0.4143    1.0332 C   0  0  0  0  0  0  0  0  0  0  0  0
    2.4400    0.9092    1.0556 C   0  0  0  0  0  0  0  0  0  0  0  0
   -2.6396   -1.0608   -0.3314 C   0  0  0  0  0  0  0  0  0  0  0  0
   -3.2092    0.1039   -0.9936 N   0  0  0  0  0  0  0  0  0  0  0  0
   -2.0304    1.4912    1.7073 H   0  0  0  0  0  0  0  0  0  0  0  0
   -3.4280    0.3253    1.8349 H   0  0  0  0  0  0  0  0  0  0  0  0
   -1.5003   -1.1178    1.5355 H   0  0  0  0  0  0  0  0  0  0  0  0
    0.1831   -1.8402   -0.3363 H   0  0  0  0  0  0  0  0  0  0  0  0
    1.4408    0.2835   -1.9156 H   0  0  0  0  0  0  0  0  0  0  0  0
    2.0535   -1.3312   -1.6071 H   0  0  0  0  0  0  0  0  0  0  0  0
    4.4618   -0.1098   -1.1506 H   0  0  0  0  0  0  0  0  0  0  0  0
    2.6801   -1.3091    1.4321 H   0  0  0  0  0  0  0  0  0  0  0  0
    4.2383   -0.3355    1.2742 H   0  0  0  0  0  0  0  0  0  0  0  0
    1.5198    0.8601    1.6211 H   0  0  0  0  0  0  0  0  0  0  0  0
    3.0496    1.8387    1.2107 H   0  0  0  0  0  0  0  0  0  0  0  0
   -3.4131   -1.6648    0.1916 H   0  0  0  0  0  0  0  0  0  0  0  0
   -2.0684   -1.7051   -1.0144 H   0  0  0  0  0  0  0  0  0  0  0  0
   -3.5775    0.0770   -1.9798 H   0  0  0  0  0  0  0  0  0  0  0  0
  1  2  2  0
  2  3  1  0
  3  4  1  0
  4  5  1  0
  5  6  2  0
  5  7  1  0
  7  8  1  0
  8  9  1  0
  9 10  1  0
  9 11  1  0
 11 12  1  0
  4 13  1  0
 13 14  1  0
 14  2  1  0
 12  9  1  0
  3 15  1  0
  3 16  1  0
  4 17  1  1
  7 18  1  0
  8 19  1  0
  8 20  1  0
 10 21  1  0
 11 22  1  0
 11 23  1  0
 12 24  1  0
 12 25  1  0
 13 26  1  0
 13 27  1  0
 14 28  1  0
M  END
$$$$
