
     RDKit          3D

 25 25  0  0  0  0  0  0  0  0999 V2000
    3.5395    0.8219    0.7912 O   0  0  0  0  0  0  0  0  0  0  0  0
    2.4538    1.2486    0.3489 C   0  0  0  0  0  0  0  0  0  0  0  0
    2.4161    2.5039   -0.2188 O   0  0  0  0  0  0  0  0  0  0  0  0
    1.2491    0.4461    0.4262 C   0  0  2  0  0  0  0  0  0  0  0  0
    1.3751   -0.9155   -0.2186 C   0  0  0  0  0  0  0  0  0  0  0  0
    0.2714   -1.7560    0.3994 C   0  0  2  0  0  0  0  0  0  0  0  0
    0.2063   -3.0218   -0.1613 O   0  0  0  0  0  0  0  0  0  0  0  0
   -1.0334   -1.0497    0.2545 C   0  0  2  0  0  0  0  0  0  0  0  0
   -1.6061   -1.4396   -0.9584 O   0  0  0  0  0  0  0  0  0  0  0  0
   -0.9842    0.4205    0.4419 C   0  0  2  0  0  0  0  0  0  0  0  0
   -2.2784    1.0194   -0.0662 C   0  0  0  0  0  0  0  0  0  0  0  0
   -2.3656    2.3701    0.2525 O   0  0  0  0  0  0  0  0  0  0  0  0
    0.1208    1.0426   -0.1017 O   0  0  0  0  0  0  0  0  0  0  0  0
    3.0832    3.2381   -0.0168 H   0  0  0  0  0  0  0  0  0  0  0  0
    1.0213    0.2615    1.5161 H   0  0  0  0  0  0  0  0  0  0  0  0
    2.3636   -1.3612   -0.1301 H   0  0  0  0  0  0  0  0  0  0  0  0
    1.1536   -0.7626   -1.3139 H   0  0  0  0  0  0  0  0  0  0  0  0
    0.5213   -1.8264    1.4962 H   0  0  0  0  0  0  0  0  0  0  0  0
   -0.2087   -3.6139    0.5169 H   0  0  0  0  0  0  0  0  0  0  0  0
   -1.7204   -1.4668    1.0488 H   0  0  0  0  0  0  0  0  0  0  0  0
   -1.1057   -1.0725   -1.7102 H   0  0  0  0  0  0  0  0  0  0  0  0
   -0.9597    0.6321    1.5502 H   0  0  0  0  0  0  0  0  0  0  0  0
   -2.4033    0.8479   -1.1546 H   0  0  0  0  0  0  0  0  0  0  0  0
   -3.1110    0.5018    0.4507 H   0  0  0  0  0  0  0  0  0  0  0  0
   -1.9986    2.9313   -0.4840 H   0  0  0  0  0  0  0  0  0  0  0  0
  1  2  2  0
  2  3  1  0
  2  4  1  0
  4  5  1  0
  5  6  1  0
  6  7  1  0
  6  8  1  0
  8  9  1  0
  8 10  1  0
 10 11  1  0
 11 12  1  0
 10 13  1  0
 13  4  1  0
  3 14  1  0
  4 15  1  1
  5 16  1  0
  5 17  1  0
  6 18  1  1
  7 19  1  0
  8 20  1  1
  9 21  1  0
 10 22  1  1
 11 23  1  0
 11 24  1  0
 12 25  1  0
M  END
$$$$

     RDKit          3D

 25 25  0  0  0  0  0  0  0  0999 V2000
    3.0120    0.6900   -1.0180 O   0  0  0  0  0  0  0  0  0  0  0  0
    2.7255    0.1653    0.0803 C   0  0  0  0  0  0  0  0  0  0  0  0
    3.7610   -0.3384    0.8725 O   0  0  0  0  0  0  0  0  0  0  0  0
    1.3097    0.0986    0.4957 C   0  0  2  0  0  0  0  0  0  0  0  0
    0.9084   -1.3564    0.5718 C   0  0  0  0  0  0  0  0  0  0  0  0
   -0.5471   -1.5916    0.3985 C   0  0  2  0  0  0  0  0  0  0  0  0
   -0.7566   -2.2971   -0.8072 O   0  0  0  0  0  0  0  0  0  0  0  0
   -1.4087   -0.3893    0.4410 C   0  0  2  0  0  0  0  0  0  0  0  0
   -2.5331   -0.6343   -0.3814 O   0  0  0  0  0  0  0  0  0  0  0  0
   -0.7326    0.8877    0.0403 C   0  0  2  0  0  0  0  0  0  0  0  0
   -1.5162    1.6710   -0.9936 C   0  0  0  0  0  0  0  0  0  0  0  0
   -0.8138    2.8727   -1.1928 O   0  0  0  0  0  0  0  0  0  0  0  0
    0.5345    0.6787   -0.5000 O   0  0  0  0  0  0  0  0  0  0  0  0
    4.6652    0.1410    0.7392 H   0  0  0  0  0  0  0  0  0  0  0  0
    1.1701    0.6104    1.4800 H   0  0  0  0  0  0  0  0  0  0  0  0
    1.2992   -1.7280    1.5637 H   0  0  0  0  0  0  0  0  0  0  0  0
    1.5007   -1.9022   -0.1918 H   0  0  0  0  0  0  0  0  0  0  0  0
   -0.8700   -2.3169    1.2015 H   0  0  0  0  0  0  0  0  0  0  0  0
   -1.7304   -2.4751   -0.9196 H   0  0  0  0  0  0  0  0  0  0  0  0
   -1.8187   -0.2570    1.4642 H   0  0  0  0  0  0  0  0  0  0  0  0
   -3.3345   -0.1658   -0.0492 H   0  0  0  0  0  0  0  0  0  0  0  0
   -0.5911    1.5698    0.9101 H   0  0  0  0  0  0  0  0  0  0  0  0
   -1.5014    1.1429   -1.9733 H   0  0  0  0  0  0  0  0  0  0  0  0
   -2.5562    1.8677   -0.6688 H   0  0  0  0  0  0  0  0  0  0  0  0
   -0.1758    3.0564   -0.4569 H   0  0  0  0  0  0  0  0  0  0  0  0
  1  2  2  0
  2  3  1  0
  2  4  1  0
  4  5  1  0
  5  6  1  0
  6  7  1  0
  6  8  1  0
  8  9  1  0
  8 10  1  0
 10 11  1  0
 11 12  1  0
 10 13  1  0
 13  4  1  0
  3 14  1  0
  4 15  1  1
  5 16  1  0
  5 17  1  0
  6 18  1  1
  7 19  1  0
  8 20  1  1
  9 21  1  0
 10 22  1  1
 11 23  1  0
 11 24  1  0
 12 25  1  0
M  END
$$$$

     RDKit          3D

 25 25  0  0  0  0  0  0  0  0999 V2000
    1.8979   -2.6441    0.8169 O   0  0  0  0  0  0  0  0  0  0  0  0
    2.1452   -1.6288    0.1244 C   0  0  0  0  0  0  0  0  0  0  0  0
    3.4358   -1.4267   -0.3150 O   0  0  0  0  0  0  0  0  0  0  0  0
    1.0802   -0.6863   -0.2040 C   0  0  2  0  0  0  0  0  0  0  0  0
    1.3678    0.7181    0.3117 C   0  0  0  0  0  0  0  0  0  0  0  0
    0.3049    1.6339   -0.2654 C   0  0  2  0  0  0  0  0  0  0  0  0
    0.4976    2.9478    0.0799 O   0  0  0  0  0  0  0  0  0  0  0  0
   -1.0735    1.1134    0.0550 C   0  0  2  0  0  0  0  0  0  0  0  0
   -1.4458    1.3201    1.3642 O   0  0  0  0  0  0  0  0  0  0  0  0
   -1.1212   -0.3252   -0.3647 C   0  0  2  0  0  0  0  0  0  0  0  0
   -2.4912   -0.9384   -0.2402 C   0  0  0  0  0  0  0  0  0  0  0  0
   -2.4019   -2.2282   -0.7766 O   0  0  0  0  0  0  0  0  0  0  0  0
   -0.1564   -1.0520    0.3241 O   0  0  0  0  0  0  0  0  0  0  0  0
    4.2566   -1.7516    0.2173 H   0  0  0  0  0  0  0  0  0  0  0  0
    0.9292   -0.5936   -1.3053 H   0  0  0  0  0  0  0  0  0  0  0  0
    2.3472    1.0140   -0.0772 H   0  0  0  0  0  0  0  0  0  0  0  0
    1.2710    0.7532    1.4072 H   0  0  0  0  0  0  0  0  0  0  0  0
    0.4125    1.5502   -1.3858 H   0  0  0  0  0  0  0  0  0  0  0  0
    1.2696    3.2822   -0.4706 H   0  0  0  0  0  0  0  0  0  0  0  0
   -1.7960    1.6899   -0.5810 H   0  0  0  0  0  0  0  0  0  0  0  0
   -0.7962    1.7824    1.9199 H   0  0  0  0  0  0  0  0  0  0  0  0
   -0.8529   -0.3626   -1.4474 H   0  0  0  0  0  0  0  0  0  0  0  0
   -3.1643   -0.3707   -0.9095 H   0  0  0  0  0  0  0  0  0  0  0  0
   -2.8431   -0.9612    0.8102 H   0  0  0  0  0  0  0  0  0  0  0  0
   -3.0731   -2.8357   -0.3815 H   0  0  0  0  0  0  0  0  0  0  0  0
  1  2  2  0
  2  3  1  0
  2  4  1  0
  4  5  1  0
  5  6  1  0
  6  7  1  0
  6  8  1  0
  8  9  1  0
  8 10  1  0
 10 11  1  0
 11 12  1  0
 10 13  1  0
 13  4  1  0
  3 14  1  0
  4 15  1  6
  5 16  1  0
  5 17  1  0
  6 18  1  6
  7 19  1  0
  8 20  1  6
  9 21  1  0
 10 22  1  6
 11 23  1  0
 11 24  1  0
 12 25  1  0
M  END
$$$$

     RDKit          3D

 25 25  0  0  0  0  0  0  0  0999 V2000
    2.6550    1.3067   -1.8926 O   0  0  0  0  0  0  0  0  0  0  0  0
    2.5921    0.8226   -0.7260 C   0  0  0  0  0  0  0  0  0  0  0  0
    3.7545    0.6756    0.0176 O   0  0  0  0  0  0  0  0  0  0  0  0
    1.3227    0.4073   -0.1258 C   0  0  2  0  0  0  0  0  0  0  0  0
    1.3071   -1.0208    0.3336 C   0  0  0  0  0  0  0  0  0  0  0  0
    0.0255   -1.3360    1.0274 C   0  0  2  0  0  0  0  0  0  0  0  0
   -0.1016   -2.7275    1.1215 O   0  0  0  0  0  0  0  0  0  0  0  0
   -1.1937   -0.7858    0.3670 C   0  0  2  0  0  0  0  0  0  0  0  0
   -1.7575   -1.6374   -0.5741 O   0  0  0  0  0  0  0  0  0  0  0  0
   -0.9032    0.5806   -0.1617 C   0  0  2  0  0  0  0  0  0  0  0  0
   -2.0679    1.2059   -0.8879 C   0  0  0  0  0  0  0  0  0  0  0  0
   -1.7116    2.5225   -1.1814 O   0  0  0  0  0  0  0  0  0  0  0  0
    0.2374    0.6035   -0.9646 O   0  0  0  0  0  0  0  0  0  0  0  0
    4.5871    1.2171   -0.1728 H   0  0  0  0  0  0  0  0  0  0  0  0
    1.1448    1.0457    0.7786 H   0  0  0  0  0  0  0  0  0  0  0  0
    1.5076   -1.7289   -0.4971 H   0  0  0  0  0  0  0  0  0  0  0  0
    2.1339   -1.1189    1.0931 H   0  0  0  0  0  0  0  0  0  0  0  0
    0.0788   -0.9613    2.0755 H   0  0  0  0  0  0  0  0  0  0  0  0
   -0.5845   -3.0214    1.9158 H   0  0  0  0  0  0  0  0  0  0  0  0
   -1.9753   -0.6626    1.1724 H   0  0  0  0  0  0  0  0  0  0  0  0
   -2.7635   -1.5928   -0.5396 H   0  0  0  0  0  0  0  0  0  0  0  0
   -0.6743    1.2325    0.7189 H   0  0  0  0  0  0  0  0  0  0  0  0
   -2.9728    1.1367   -0.2569 H   0  0  0  0  0  0  0  0  0  0  0  0
   -2.2929    0.6590   -1.8319 H   0  0  0  0  0  0  0  0  0  0  0  0
   -2.3479    3.1777   -0.8091 H   0  0  0  0  0  0  0  0  0  0  0  0
  1  2  2  0
  2  3  1  0
  2  4  1  0
  4  5  1  0
  5  6  1  0
  6  7  1  0
  6  8  1  0
  8  9  1  0
  8 10  1  0
 10 11  1  0
 11 12  1  0
 10 13  1  0
 13  4  1  0
  3 14  1  0
  4 15  1  1
  5 16  1  0
  5 17  1  0
  6 18  1  1
  7 19  1  0
  8 20  1  1
  9 21  1  0
 10 22  1  1
 11 23  1  0
 11 24  1  0
 12 25  1  0
M  END
$$$$

     RDKit          3D

 25 25  0  0  0  0  0  0  0  0999 V2000
    2.4113    1.4711   -2.1244 O   0  0  0  0  0  0  0  0  0  0  0  0
    2.4507    0.8230   -1.0565 C   0  0  0  0  0  0  0  0  0  0  0  0
    3.6786    0.4036   -0.5608 O   0  0  0  0  0  0  0  0  0  0  0  0
    1.2558    0.4636   -0.2669 C   0  0  2  0  0  0  0  0  0  0  0  0
    1.1636   -1.0461   -0.0323 C   0  0  0  0  0  0  0  0  0  0  0  0
    0.0577   -1.2326    0.9854 C   0  0  2  0  0  0  0  0  0  0  0  0
   -0.1215   -2.5422    1.3575 O   0  0  0  0  0  0  0  0  0  0  0  0
   -1.2040   -0.6292    0.3562 C   0  0  2  0  0  0  0  0  0  0  0  0
   -1.4522   -1.3446   -0.8088 O   0  0  0  0  0  0  0  0  0  0  0  0
   -0.9087    0.8143    0.1283 C   0  0  2  0  0  0  0  0  0  0  0  0
   -2.1233    1.6489   -0.1555 C   0  0  0  0  0  0  0  0  0  0  0  0
   -2.7523    1.3368   -1.3340 O   0  0  0  0  0  0  0  0  0  0  0  0
    0.0753    0.9277   -0.8441 O   0  0  0  0  0  0  0  0  0  0  0  0
    4.5507    0.8625   -0.8119 H   0  0  0  0  0  0  0  0  0  0  0  0
    1.3001    0.9154    0.7525 H   0  0  0  0  0  0  0  0  0  0  0  0
    0.8844   -1.5840   -0.9572 H   0  0  0  0  0  0  0  0  0  0  0  0
    2.1438   -1.3663    0.3688 H   0  0  0  0  0  0  0  0  0  0  0  0
    0.2913   -0.5599    1.8512 H   0  0  0  0  0  0  0  0  0  0  0  0
    0.2336   -2.6429    2.2827 H   0  0  0  0  0  0  0  0  0  0  0  0
   -2.0348   -0.7569    1.0644 H   0  0  0  0  0  0  0  0  0  0  0  0
   -1.2705   -2.3107   -0.6102 H   0  0  0  0  0  0  0  0  0  0  0  0
   -0.4588    1.2148    1.0757 H   0  0  0  0  0  0  0  0  0  0  0  0
   -2.7899    1.5912    0.7142 H   0  0  0  0  0  0  0  0  0  0  0  0
   -1.7794    2.7125   -0.2169 H   0  0  0  0  0  0  0  0  0  0  0  0
   -3.6013    0.8300   -1.1578 H   0  0  0  0  0  0  0  0  0  0  0  0
  1  2  2  0
  2  3  1  0
  2  4  1  0
  4  5  1  0
  5  6  1  0
  6  7  1  0
  6  8  1  0
  8  9  1  0
  8 10  1  0
 10 11  1  0
 11 12  1  0
 10 13  1  0
 13  4  1  0
  3 14  1  0
  4 15  1  1
  5 16  1  0
  5 17  1  0
  6 18  1  1
  7 19  1  0
  8 20  1  1
  9 21  1  0
 10 22  1  1
 11 23  1  0
 11 24  1  0
 12 25  1  0
M  END
$$$$

     RDKit          3D

 25 25  0  0  0  0  0  0  0  0999 V2000
    1.6973    2.8132   -1.3776 O   0  0  0  0  0  0  0  0  0  0  0  0
    2.0872    1.9050   -0.5953 C   0  0  0  0  0  0  0  0  0  0  0  0
    3.4426    1.8819   -0.3013 O   0  0  0  0  0  0  0  0  0  0  0  0
    1.1511    0.9091   -0.0153 C   0  0  2  0  0  0  0  0  0  0  0  0
    1.5387   -0.5032   -0.3576 C   0  0  0  0  0  0  0  0  0  0  0  0
    0.3543   -1.3936   -0.0661 C   0  0  2  0  0  0  0  0  0  0  0  0
   -0.3549   -1.6746   -1.2160 O   0  0  0  0  0  0  0  0  0  0  0  0
   -0.5702   -0.7971    0.9731 C   0  0  2  0  0  0  0  0  0  0  0  0
   -1.6606   -1.6574    1.1005 O   0  0  0  0  0  0  0  0  0  0  0  0
   -0.9972    0.5744    0.5043 C   0  0  2  0  0  0  0  0  0  0  0  0
   -2.4458    0.5508    0.0341 C   0  0  0  0  0  0  0  0  0  0  0  0
   -2.6013   -0.1899   -1.1076 O   0  0  0  0  0  0  0  0  0  0  0  0
   -0.1554    1.1170   -0.4424 O   0  0  0  0  0  0  0  0  0  0  0  0
    3.9762    2.7532   -0.1568 H   0  0  0  0  0  0  0  0  0  0  0  0
    1.2144    1.0126    1.0917 H   0  0  0  0  0  0  0  0  0  0  0  0
    1.8129   -0.6072   -1.4468 H   0  0  0  0  0  0  0  0  0  0  0  0
    2.4365   -0.8021    0.2476 H   0  0  0  0  0  0  0  0  0  0  0  0
    0.7242   -2.3521    0.3496 H   0  0  0  0  0  0  0  0  0  0  0  0
    0.0429   -2.4206   -1.7306 H   0  0  0  0  0  0  0  0  0  0  0  0
   -0.0689   -0.7721    1.9622 H   0  0  0  0  0  0  0  0  0  0  0  0
   -1.3599   -2.4908    1.5179 H   0  0  0  0  0  0  0  0  0  0  0  0
   -0.9614    1.2672    1.3940 H   0  0  0  0  0  0  0  0  0  0  0  0
   -3.0385    0.0446    0.8410 H   0  0  0  0  0  0  0  0  0  0  0  0
   -2.8431    1.5787   -0.0828 H   0  0  0  0  0  0  0  0  0  0  0  0
   -3.4210   -0.7470   -1.1200 H   0  0  0  0  0  0  0  0  0  0  0  0
  1  2  2  0
  2  3  1  0
  2  4  1  0
  4  5  1  0
  5  6  1  0
  6  7  1  0
  6  8  1  0
  8  9  1  0
  8 10  1  0
 10 11  1  0
 11 12  1  0
 10 13  1  0
 13  4  1  0
  3 14  1  0
  4 15  1  1
  5 16  1  0
  5 17  1  0
  6 18  1  1
  7 19  1  0
  8 20  1  1
  9 21  1  0
 10 22  1  1
 11 23  1  0
 11 24  1  0
 12 25  1  0
M  END
$$$$

     RDKit          3D

 25 25  0  0  0  0  0  0  0  0999 V2000
    2.1327    2.2646   -1.2898 O   0  0  0  0  0  0  0  0  0  0  0  0
    2.3130    1.5161   -0.2982 C   0  0  0  0  0  0  0  0  0  0  0  0
    3.5799    1.5129    0.2619 O   0  0  0  0  0  0  0  0  0  0  0  0
    1.2051    0.7096    0.1984 C   0  0  2  0  0  0  0  0  0  0  0  0
    1.4718   -0.7666    0.1978 C   0  0  0  0  0  0  0  0  0  0  0  0
    0.2637   -1.6201    0.1171 C   0  0  2  0  0  0  0  0  0  0  0  0
    0.3180   -2.3601   -1.0880 O   0  0  0  0  0  0  0  0  0  0  0  0
   -1.0387   -0.9393    0.2882 C   0  0  2  0  0  0  0  0  0  0  0  0
   -1.9210   -1.4552   -0.6912 O   0  0  0  0  0  0  0  0  0  0  0  0
   -1.0035    0.5471    0.2296 C   0  0  2  0  0  0  0  0  0  0  0  0
   -2.2544    1.1751   -0.3143 C   0  0  0  0  0  0  0  0  0  0  0  0
   -3.3773    0.8523    0.4140 O   0  0  0  0  0  0  0  0  0  0  0  0
    0.0692    0.9338   -0.5737 O   0  0  0  0  0  0  0  0  0  0  0  0
    4.4182    1.7277   -0.2826 H   0  0  0  0  0  0  0  0  0  0  0  0
    0.9661    1.0570    1.2402 H   0  0  0  0  0  0  0  0  0  0  0  0
    2.0920   -0.9753    1.1192 H   0  0  0  0  0  0  0  0  0  0  0  0
    2.1807   -0.9655   -0.6550 H   0  0  0  0  0  0  0  0  0  0  0  0
    0.3528   -2.4083    0.9227 H   0  0  0  0  0  0  0  0  0  0  0  0
    1.0705   -3.0171   -0.9520 H   0  0  0  0  0  0  0  0  0  0  0  0
   -1.5310   -1.2185    1.2668 H   0  0  0  0  0  0  0  0  0  0  0  0
   -2.1295   -2.4057   -0.5038 H   0  0  0  0  0  0  0  0  0  0  0  0
   -0.8544    0.9339    1.2546 H   0  0  0  0  0  0  0  0  0  0  0  0
   -2.1202    2.2843   -0.2285 H   0  0  0  0  0  0  0  0  0  0  0  0
   -2.3803    0.9789   -1.4074 H   0  0  0  0  0  0  0  0  0  0  0  0
   -3.8237    1.6386    0.8310 H   0  0  0  0  0  0  0  0  0  0  0  0
  1  2  2  0
  2  3  1  0
  2  4  1  0
  4  5  1  0
  5  6  1  0
  6  7  1  0
  6  8  1  0
  8  9  1  0
  8 10  1  0
 10 11  1  0
 11 12  1  0
 10 13  1  0
 13  4  1  0
  3 14  1  0
  4 15  1  1
  5 16  1  0
  5 17  1  0
  6 18  1  1
  7 19  1  0
  8 20  1  1
  9 21  1  0
 10 22  1  1
 11 23  1  0
 11 24  1  0
 12 25  1  0
M  END
$$$$

     RDKit          3D

 25 25  0  0  0  0  0  0  0  0999 V2000
    3.6878   -0.2469    0.2491 O   0  0  0  0  0  0  0  0  0  0  0  0
    2.7123    0.4656   -0.0355 C   0  0  0  0  0  0  0  0  0  0  0  0
    2.9449    1.7171   -0.5985 O   0  0  0  0  0  0  0  0  0  0  0  0
    1.3174    0.0423    0.1974 C   0  0  2  0  0  0  0  0  0  0  0  0
    0.9807   -1.2615   -0.4958 C   0  0  0  0  0  0  0  0  0  0  0  0
   -0.3149   -1.7470    0.1579 C   0  0  2  0  0  0  0  0  0  0  0  0
   -0.7188   -2.9609   -0.3404 O   0  0  0  0  0  0  0  0  0  0  0  0
   -1.3505   -0.6752    0.0197 C   0  0  2  0  0  0  0  0  0  0  0  0
   -1.8980   -0.6388   -1.2609 O   0  0  0  0  0  0  0  0  0  0  0  0
   -0.8199    0.6555    0.4327 C   0  0  2  0  0  0  0  0  0  0  0  0
   -1.7969    1.7629    0.1068 C   0  0  0  0  0  0  0  0  0  0  0  0
   -1.3509    2.9918    0.5676 O   0  0  0  0  0  0  0  0  0  0  0  0
    0.3874    0.9750   -0.1864 O   0  0  0  0  0  0  0  0  0  0  0  0
    3.8096    2.2249   -0.4709 H   0  0  0  0  0  0  0  0  0  0  0  0
    1.1779   -0.1327    1.2942 H   0  0  0  0  0  0  0  0  0  0  0  0
    0.7680   -1.0964   -1.5842 H   0  0  0  0  0  0  0  0  0  0  0  0
    1.7665   -2.0241   -0.3901 H   0  0  0  0  0  0  0  0  0  0  0  0
   -0.0715   -1.8269    1.2562 H   0  0  0  0  0  0  0  0  0  0  0  0
   -0.4186   -3.6940    0.2516 H   0  0  0  0  0  0  0  0  0  0  0  0
   -2.1881   -0.9308    0.7226 H   0  0  0  0  0  0  0  0  0  0  0  0
   -2.8810   -0.6922   -1.2450 H   0  0  0  0  0  0  0  0  0  0  0  0
   -0.6308    0.6346    1.5405 H   0  0  0  0  0  0  0  0  0  0  0  0
   -2.7991    1.5718    0.5313 H   0  0  0  0  0  0  0  0  0  0  0  0
   -1.8922    1.7913   -1.0009 H   0  0  0  0  0  0  0  0  0  0  0  0
   -0.4213    3.0945    0.2811 H   0  0  0  0  0  0  0  0  0  0  0  0
  1  2  2  0
  2  3  1  0
  2  4  1  0
  4  5  1  0
  5  6  1  0
  6  7  1  0
  6  8  1  0
  8  9  1  0
  8 10  1  0
 10 11  1  0
 11 12  1  0
 10 13  1  0
 13  4  1  0
  3 14  1  0
  4 15  1  1
  5 16  1  0
  5 17  1  0
  6 18  1  1
  7 19  1  0
  8 20  1  1
  9 21  1  0
 10 22  1  1
 11 23  1  0
 11 24  1  0
 12 25  1  0
M  END
$$$$
