
     RDKit          3D

 23 23  0  0  0  0  0  0  0  0999 V2000
    2.4812   -0.3970   -0.9397 C   0  0  0  0  0  0  0  0  0  0  0  0
    1.6441    0.0206    0.2417 C   0  0  1  0  0  0  0  0  0  0  0  0
    1.8403    1.4679    0.3881 N   0  0  0  0  0  0  0  0  0  0  0  0
    0.2453   -0.1978    0.0380 N   0  0  0  0  0  0  0  0  0  0  0  0
   -0.4748    0.3194   -1.1088 C   0  0  0  0  0  0  0  0  0  0  0  0
   -1.8155    0.7744   -0.6431 C   0  0  0  0  0  0  0  0  0  0  0  0
   -2.5751   -0.1774    0.0918 N   0  0  0  0  0  0  0  0  0  0  0  0
   -1.8825   -1.3411    0.5330 C   0  0  0  0  0  0  0  0  0  0  0  0
   -0.5181   -0.9507    0.9759 C   0  0  0  0  0  0  0  0  0  0  0  0
   -0.0719   -1.2684    2.1088 O   0  0  0  0  0  0  0  0  0  0  0  0
    2.6663   -1.4859   -0.9844 H   0  0  0  0  0  0  0  0  0  0  0  0
    2.0055   -0.0507   -1.8863 H   0  0  0  0  0  0  0  0  0  0  0  0
    3.4840    0.0783   -0.8152 H   0  0  0  0  0  0  0  0  0  0  0  0
    2.0058   -0.4454    1.1595 H   0  0  0  0  0  0  0  0  0  0  0  0
    1.9181    1.8658   -0.5508 H   0  0  0  0  0  0  0  0  0  0  0  0
    1.1046    1.8882    0.9940 H   0  0  0  0  0  0  0  0  0  0  0  0
   -0.5785   -0.4860   -1.8652 H   0  0  0  0  0  0  0  0  0  0  0  0
    0.0525    1.1844   -1.5453 H   0  0  0  0  0  0  0  0  0  0  0  0
   -2.4270    1.0567   -1.5506 H   0  0  0  0  0  0  0  0  0  0  0  0
   -1.6753    1.7427   -0.1003 H   0  0  0  0  0  0  0  0  0  0  0  0
   -3.2050    0.2445    0.8070 H   0  0  0  0  0  0  0  0  0  0  0  0
   -2.4086   -1.7890    1.3995 H   0  0  0  0  0  0  0  0  0  0  0  0
   -1.8156   -2.0535   -0.3245 H   0  0  0  0  0  0  0  0  0  0  0  0
  1  2  1  0
  2  3  1  0
  2  4  1  0
  4  5  1  0
  5  6  1  0
  6  7  1  0
  7  8  1  0
  8  9  1  0
  9 10  2  0
  9  4  1  0
  1 11  1  0
  1 12  1  0
  1 13  1  0
  2 14  1  1
  3 15  1  0
  3 16  1  0
  5 17  1  0
  5 18  1  0
  6 19  1  0
  6 20  1  0
  7 21  1  0
  8 22  1  0
  8 23  1  0
M  END
$$$$

     RDKit          3D

 23 23  0  0  0  0  0  0  0  0999 V2000
   -2.4634   -0.6268   -0.5660 C   0  0  0  0  0  0  0  0  0  0  0  0
   -1.5207    0.4192   -0.0655 C   0  0  1  0  0  0  0  0  0  0  0  0
   -1.8745    0.8831    1.2748 N   0  0  0  0  0  0  0  0  0  0  0  0
   -0.1356    0.0915   -0.1741 N   0  0  0  0  0  0  0  0  0  0  0  0
    0.8081    0.8499   -1.0139 C   0  0  0  0  0  0  0  0  0  0  0  0
    2.0550    1.0233   -0.1999 C   0  0  0  0  0  0  0  0  0  0  0  0
    2.6745   -0.1901    0.2131 N   0  0  0  0  0  0  0  0  0  0  0  0
    1.8327   -1.3440    0.2092 C   0  0  0  0  0  0  0  0  0  0  0  0
    0.4298   -1.0011    0.5296 C   0  0  0  0  0  0  0  0  0  0  0  0
   -0.3008   -1.5842    1.3610 O   0  0  0  0  0  0  0  0  0  0  0  0
   -3.4895   -0.3401   -0.2011 H   0  0  0  0  0  0  0  0  0  0  0  0
   -2.2785   -1.6373   -0.2111 H   0  0  0  0  0  0  0  0  0  0  0  0
   -2.5317   -0.6405   -1.6712 H   0  0  0  0  0  0  0  0  0  0  0  0
   -1.6811    1.3082   -0.7169 H   0  0  0  0  0  0  0  0  0  0  0  0
   -2.8301    1.3173    1.1879 H   0  0  0  0  0  0  0  0  0  0  0  0
   -1.8839    0.1116    1.9660 H   0  0  0  0  0  0  0  0  0  0  0  0
    0.4088    1.8384   -1.2657 H   0  0  0  0  0  0  0  0  0  0  0  0
    1.0348    0.2096   -1.8664 H   0  0  0  0  0  0  0  0  0  0  0  0
    1.8254    1.6377    0.7148 H   0  0  0  0  0  0  0  0  0  0  0  0
    2.8012    1.6273   -0.7695 H   0  0  0  0  0  0  0  0  0  0  0  0
    3.0547   -0.0847    1.2004 H   0  0  0  0  0  0  0  0  0  0  0  0
    1.8406   -1.7543   -0.8373 H   0  0  0  0  0  0  0  0  0  0  0  0
    2.2242   -2.1139    0.9018 H   0  0  0  0  0  0  0  0  0  0  0  0
  1  2  1  0
  2  3  1  0
  2  4  1  0
  4  5  1  0
  5  6  1  0
  6  7  1  0
  7  8  1  0
  8  9  1  0
  9 10  2  0
  9  4  1  0
  1 11  1  0
  1 12  1  0
  1 13  1  0
  2 14  1  6
  3 15  1  0
  3 16  1  0
  5 17  1  0
  5 18  1  0
  6 19  1  0
  6 20  1  0
  7 21  1  0
  8 22  1  0
  8 23  1  0
M  END
$$$$

     RDKit          3D

 23 23  0  0  0  0  0  0  0  0999 V2000
   -2.3977   -0.7746   -0.7751 C   0  0  0  0  0  0  0  0  0  0  0  0
   -1.6912    0.2934    0.0455 C   0  0  1  0  0  0  0  0  0  0  0  0
   -2.1161    0.2403    1.4130 N   0  0  0  0  0  0  0  0  0  0  0  0
   -0.2563    0.1856   -0.1067 N   0  0  0  0  0  0  0  0  0  0  0  0
    0.4167   -1.0101    0.3652 C   0  0  0  0  0  0  0  0  0  0  0  0
    1.8844   -0.9750    0.0173 C   0  0  0  0  0  0  0  0  0  0  0  0
    2.4080    0.2956    0.3886 N   0  0  0  0  0  0  0  0  0  0  0  0
    1.9731    1.3941   -0.3933 C   0  0  0  0  0  0  0  0  0  0  0  0
    0.5302    1.2095   -0.7038 C   0  0  0  0  0  0  0  0  0  0  0  0
   -0.0392    1.9850   -1.5305 O   0  0  0  0  0  0  0  0  0  0  0  0
   -2.0905   -1.7496   -0.3535 H   0  0  0  0  0  0  0  0  0  0  0  0
   -3.4849   -0.6222   -0.6884 H   0  0  0  0  0  0  0  0  0  0  0  0
   -2.0321   -0.6913   -1.8343 H   0  0  0  0  0  0  0  0  0  0  0  0
   -2.0184    1.2767   -0.3747 H   0  0  0  0  0  0  0  0  0  0  0  0
   -1.6181   -0.4490    1.9918 H   0  0  0  0  0  0  0  0  0  0  0  0
   -2.1287    1.1824    1.8800 H   0  0  0  0  0  0  0  0  0  0  0  0
    0.3359   -1.0997    1.4631 H   0  0  0  0  0  0  0  0  0  0  0  0
   -0.0580   -1.8993   -0.1232 H   0  0  0  0  0  0  0  0  0  0  0  0
    2.0632   -1.2566   -1.0304 H   0  0  0  0  0  0  0  0  0  0  0  0
    2.3943   -1.7490    0.6440 H   0  0  0  0  0  0  0  0  0  0  0  0
    3.3445    0.3212    0.7659 H   0  0  0  0  0  0  0  0  0  0  0  0
    2.5564    1.5746   -1.3138 H   0  0  0  0  0  0  0  0  0  0  0  0
    2.0244    2.3179    0.2532 H   0  0  0  0  0  0  0  0  0  0  0  0
  1  2  1  0
  2  3  1  0
  2  4  1  0
  4  5  1  0
  5  6  1  0
  6  7  1  0
  7  8  1  0
  8  9  1  0
  9 10  2  0
  9  4  1  0
  1 11  1  0
  1 12  1  0
  1 13  1  0
  2 14  1  6
  3 15  1  0
  3 16  1  0
  5 17  1  0
  5 18  1  0
  6 19  1  0
  6 20  1  0
  7 21  1  0
  8 22  1  0
  8 23  1  0
M  END
$$$$

     RDKit          3D

 23 23  0  0  0  0  0  0  0  0999 V2000
    2.2865   -0.1283   -1.1567 C   0  0  0  0  0  0  0  0  0  0  0  0
    1.5797   -0.3209    0.1807 C   0  0  1  0  0  0  0  0  0  0  0  0
    2.0570    0.7065    1.1001 N   0  0  0  0  0  0  0  0  0  0  0  0
    0.1512   -0.2458    0.0239 N   0  0  0  0  0  0  0  0  0  0  0  0
   -0.4151    0.9809   -0.4731 C   0  0  0  0  0  0  0  0  0  0  0  0
   -1.9016    1.0321   -0.4446 C   0  0  0  0  0  0  0  0  0  0  0  0
   -2.4882    0.0452    0.3988 N   0  0  0  0  0  0  0  0  0  0  0  0
   -2.0929   -1.2945    0.1438 C   0  0  0  0  0  0  0  0  0  0  0  0
   -0.6186   -1.3909    0.3702 C   0  0  0  0  0  0  0  0  0  0  0  0
   -0.0555   -2.3954    0.8328 O   0  0  0  0  0  0  0  0  0  0  0  0
    1.9857    0.8379   -1.6023 H   0  0  0  0  0  0  0  0  0  0  0  0
    2.0331   -0.9885   -1.8108 H   0  0  0  0  0  0  0  0  0  0  0  0
    3.3677   -0.1981   -0.9497 H   0  0  0  0  0  0  0  0  0  0  0  0
    1.9055   -1.2988    0.5655 H   0  0  0  0  0  0  0  0  0  0  0  0
    2.0646    1.6524    0.6420 H   0  0  0  0  0  0  0  0  0  0  0  0
    3.0525    0.4276    1.3341 H   0  0  0  0  0  0  0  0  0  0  0  0
    0.0675    1.8252    0.0846 H   0  0  0  0  0  0  0  0  0  0  0  0
   -0.0594    1.0918   -1.5363 H   0  0  0  0  0  0  0  0  0  0  0  0
   -2.3218    1.0371   -1.4855 H   0  0  0  0  0  0  0  0  0  0  0  0
   -2.1910    2.0386   -0.0256 H   0  0  0  0  0  0  0  0  0  0  0  0
   -3.4666    0.2056    0.6317 H   0  0  0  0  0  0  0  0  0  0  0  0
   -2.3375   -1.6613   -0.8729 H   0  0  0  0  0  0  0  0  0  0  0  0
   -2.6028   -1.9584    0.8632 H   0  0  0  0  0  0  0  0  0  0  0  0
  1  2  1  0
  2  3  1  0
  2  4  1  0
  4  5  1  0
  5  6  1  0
  6  7  1  0
  7  8  1  0
  8  9  1  0
  9 10  2  0
  9  4  1  0
  1 11  1  0
  1 12  1  0
  1 13  1  0
  2 14  1  1
  3 15  1  0
  3 16  1  0
  5 17  1  0
  5 18  1  0
  6 19  1  0
  6 20  1  0
  7 21  1  0
  8 22  1  0
  8 23  1  0
M  END
$$$$

     RDKit          3D

 23 23  0  0  0  0  0  0  0  0999 V2000
    2.2874   -0.9628   -0.4160 C   0  0  0  0  0  0  0  0  0  0  0  0
    1.6058    0.0118    0.5225 C   0  0  1  0  0  0  0  0  0  0  0  0
    2.1841    1.3420    0.4286 N   0  0  0  0  0  0  0  0  0  0  0  0
    0.1837    0.0395    0.2510 N   0  0  0  0  0  0  0  0  0  0  0  0
   -0.7317   -0.3677    1.2782 C   0  0  0  0  0  0  0  0  0  0  0  0
   -2.1747   -0.2349    0.8609 C   0  0  0  0  0  0  0  0  0  0  0  0
   -2.3777   -0.4933   -0.5409 N   0  0  0  0  0  0  0  0  0  0  0  0
   -1.7285    0.5283   -1.3113 C   0  0  0  0  0  0  0  0  0  0  0  0
   -0.2576    0.4697   -1.0256 C   0  0  0  0  0  0  0  0  0  0  0  0
    0.5224    0.8048   -1.9307 O   0  0  0  0  0  0  0  0  0  0  0  0
    3.1566   -1.4466    0.0619 H   0  0  0  0  0  0  0  0  0  0  0  0
    2.5751   -0.4102   -1.3343 H   0  0  0  0  0  0  0  0  0  0  0  0
    1.5835   -1.7442   -0.7116 H   0  0  0  0  0  0  0  0  0  0  0  0
    1.8073   -0.3440    1.5558 H   0  0  0  0  0  0  0  0  0  0  0  0
    2.3359    1.6242   -0.5749 H   0  0  0  0  0  0  0  0  0  0  0  0
    1.4601    2.0320    0.7860 H   0  0  0  0  0  0  0  0  0  0  0  0
   -0.5777    0.2660    2.1835 H   0  0  0  0  0  0  0  0  0  0  0  0
   -0.4689   -1.4298    1.5499 H   0  0  0  0  0  0  0  0  0  0  0  0
   -2.7701   -0.9536    1.4595 H   0  0  0  0  0  0  0  0  0  0  0  0
   -2.5251    0.7757    1.0777 H   0  0  0  0  0  0  0  0  0  0  0  0
   -2.0893   -1.4595   -0.8211 H   0  0  0  0  0  0  0  0  0  0  0  0
   -1.9071    0.4431   -2.3961 H   0  0  0  0  0  0  0  0  0  0  0  0
   -2.0935    1.5093   -0.9533 H   0  0  0  0  0  0  0  0  0  0  0  0
  1  2  1  0
  2  3  1  0
  2  4  1  0
  4  5  1  0
  5  6  1  0
  6  7  1  0
  7  8  1  0
  8  9  1  0
  9 10  2  0
  9  4  1  0
  1 11  1  0
  1 12  1  0
  1 13  1  0
  2 14  1  1
  3 15  1  0
  3 16  1  0
  5 17  1  0
  5 18  1  0
  6 19  1  0
  6 20  1  0
  7 21  1  0
  8 22  1  0
  8 23  1  0
M  END
$$$$

     RDKit          3D

 23 23  0  0  0  0  0  0  0  0999 V2000
    2.4063    0.0049    0.8677 C   0  0  0  0  0  0  0  0  0  0  0  0
    1.5109    0.6610   -0.1511 C   0  0  1  0  0  0  0  0  0  0  0  0
    2.0166    0.2873   -1.4659 N   0  0  0  0  0  0  0  0  0  0  0  0
    0.1240    0.2976    0.0082 N   0  0  0  0  0  0  0  0  0  0  0  0
   -0.2451   -1.0799   -0.0767 C   0  0  0  0  0  0  0  0  0  0  0  0
   -1.7217   -1.3185   -0.1413 C   0  0  0  0  0  0  0  0  0  0  0  0
   -2.5222   -0.3016    0.4546 N   0  0  0  0  0  0  0  0  0  0  0  0
   -2.2576    1.0277   -0.0015 C   0  0  0  0  0  0  0  0  0  0  0  0
   -0.8269    1.3240    0.2440 C   0  0  0  0  0  0  0  0  0  0  0  0
   -0.3887    2.4287    0.6499 O   0  0  0  0  0  0  0  0  0  0  0  0
    2.2717   -1.0837    0.8947 H   0  0  0  0  0  0  0  0  0  0  0  0
    2.2401    0.4743    1.8572 H   0  0  0  0  0  0  0  0  0  0  0  0
    3.4543    0.2320    0.5821 H   0  0  0  0  0  0  0  0  0  0  0  0
    1.6646    1.7678   -0.0630 H   0  0  0  0  0  0  0  0  0  0  0  0
    2.5207   -0.6271   -1.3919 H   0  0  0  0  0  0  0  0  0  0  0  0
    1.2970    0.3228   -2.1969 H   0  0  0  0  0  0  0  0  0  0  0  0
    0.2155   -1.6113    0.7839 H   0  0  0  0  0  0  0  0  0  0  0  0
    0.2754   -1.5001   -0.9884 H   0  0  0  0  0  0  0  0  0  0  0  0
   -1.9401   -2.2753    0.3769 H   0  0  0  0  0  0  0  0  0  0  0  0
   -2.0660   -1.4516   -1.1963 H   0  0  0  0  0  0  0  0  0  0  0  0
   -2.6418   -0.3878    1.4813 H   0  0  0  0  0  0  0  0  0  0  0  0
   -2.9285    1.7154    0.5545 H   0  0  0  0  0  0  0  0  0  0  0  0
   -2.4583    1.0934   -1.0818 H   0  0  0  0  0  0  0  0  0  0  0  0
  1  2  1  0
  2  3  1  0
  2  4  1  0
  4  5  1  0
  5  6  1  0
  6  7  1  0
  7  8  1  0
  8  9  1  0
  9 10  2  0
  9  4  1  0
  1 11  1  0
  1 12  1  0
  1 13  1  0
  2 14  1  6
  3 15  1  0
  3 16  1  0
  5 17  1  0
  5 18  1  0
  6 19  1  0
  6 20  1  0
  7 21  1  0
  8 22  1  0
  8 23  1  0
M  END
$$$$

     RDKit          3D

 23 23  0  0  0  0  0  0  0  0999 V2000
   -2.4320    0.3896    1.1038 C   0  0  0  0  0  0  0  0  0  0  0  0
   -1.5820   -0.3895    0.1216 C   0  0  1  0  0  0  0  0  0  0  0  0
   -1.9995   -0.0762   -1.2394 N   0  0  0  0  0  0  0  0  0  0  0  0
   -0.1805   -0.1671    0.3222 N   0  0  0  0  0  0  0  0  0  0  0  0
    0.3957    1.1637    0.1890 C   0  0  0  0  0  0  0  0  0  0  0  0
    1.8171    1.0422   -0.3078 C   0  0  0  0  0  0  0  0  0  0  0  0
    2.5583    0.1906    0.5687 N   0  0  0  0  0  0  0  0  0  0  0  0
    2.1513   -1.1745    0.5658 C   0  0  0  0  0  0  0  0  0  0  0  0
    0.6659   -1.2430    0.6540 C   0  0  0  0  0  0  0  0  0  0  0  0
    0.1815   -2.3425    1.0517 O   0  0  0  0  0  0  0  0  0  0  0  0
   -3.3533   -0.1901    1.2976 H   0  0  0  0  0  0  0  0  0  0  0  0
   -2.6724    1.4038    0.6768 H   0  0  0  0  0  0  0  0  0  0  0  0
   -1.8539    0.4806    2.0458 H   0  0  0  0  0  0  0  0  0  0  0  0
   -1.8018   -1.4630    0.2709 H   0  0  0  0  0  0  0  0  0  0  0  0
   -3.0204    0.0386   -1.2991 H   0  0  0  0  0  0  0  0  0  0  0  0
   -1.7182   -0.8204   -1.9208 H   0  0  0  0  0  0  0  0  0  0  0  0
   -0.1861    1.6984   -0.6061 H   0  0  0  0  0  0  0  0  0  0  0  0
    0.3165    1.6799    1.1478 H   0  0  0  0  0  0  0  0  0  0  0  0
    1.8245    0.7317   -1.3581 H   0  0  0  0  0  0  0  0  0  0  0  0
    2.2733    2.0603   -0.2487 H   0  0  0  0  0  0  0  0  0  0  0  0
    3.5585    0.3664    0.6324 H   0  0  0  0  0  0  0  0  0  0  0  0
    2.5936   -1.6642    1.4610 H   0  0  0  0  0  0  0  0  0  0  0  0
    2.4641   -1.7155   -0.3681 H   0  0  0  0  0  0  0  0  0  0  0  0
  1  2  1  0
  2  3  1  0
  2  4  1  0
  4  5  1  0
  5  6  1  0
  6  7  1  0
  7  8  1  0
  8  9  1  0
  9 10  2  0
  9  4  1  0
  1 11  1  0
  1 12  1  0
  1 13  1  0
  2 14  1  1
  3 15  1  0
  3 16  1  0
  5 17  1  0
  5 18  1  0
  6 19  1  0
  6 20  1  0
  7 21  1  0
  8 22  1  0
  8 23  1  0
M  END
$$$$

     RDKit          3D

 23 23  0  0  0  0  0  0  0  0999 V2000
   -2.3469   -0.6813   -0.8479 C   0  0  0  0  0  0  0  0  0  0  0  0
   -1.6002    0.3549   -0.0353 C   0  0  1  0  0  0  0  0  0  0  0  0
   -2.0099    0.3305    1.3710 N   0  0  0  0  0  0  0  0  0  0  0  0
   -0.1655    0.1879   -0.1408 N   0  0  0  0  0  0  0  0  0  0  0  0
    0.5129   -1.0008    0.2871 C   0  0  0  0  0  0  0  0  0  0  0  0
    1.9460   -0.8143    0.6329 C   0  0  0  0  0  0  0  0  0  0  0  0
    2.6693    0.0851   -0.1891 N   0  0  0  0  0  0  0  0  0  0  0  0
    2.0401    1.3671   -0.2958 C   0  0  0  0  0  0  0  0  0  0  0  0
    0.6137    1.2397   -0.6901 C   0  0  0  0  0  0  0  0  0  0  0  0
    0.1248    2.0700   -1.5056 O   0  0  0  0  0  0  0  0  0  0  0  0
   -1.5971   -1.3414   -1.3234 H   0  0  0  0  0  0  0  0  0  0  0  0
   -2.9765   -0.2303   -1.6389 H   0  0  0  0  0  0  0  0  0  0  0  0
   -2.9918   -1.2523   -0.1466 H   0  0  0  0  0  0  0  0  0  0  0  0
   -1.9019    1.3447   -0.4243 H   0  0  0  0  0  0  0  0  0  0  0  0
   -1.9404   -0.6071    1.7822 H   0  0  0  0  0  0  0  0  0  0  0  0
   -2.9316    0.7885    1.4708 H   0  0  0  0  0  0  0  0  0  0  0  0
    0.4012   -1.7618   -0.5128 H   0  0  0  0  0  0  0  0  0  0  0  0
   -0.0025   -1.4379    1.1819 H   0  0  0  0  0  0  0  0  0  0  0  0
    2.4406   -1.8115    0.6066 H   0  0  0  0  0  0  0  0  0  0  0  0
    1.9897   -0.4221    1.6885 H   0  0  0  0  0  0  0  0  0  0  0  0
    3.0576   -0.2894   -1.0586 H   0  0  0  0  0  0  0  0  0  0  0  0
    2.0633    1.8341    0.7311 H   0  0  0  0  0  0  0  0  0  0  0  0
    2.6051    2.0479   -0.9429 H   0  0  0  0  0  0  0  0  0  0  0  0
  1  2  1  0
  2  3  1  0
  2  4  1  0
  4  5  1  0
  5  6  1  0
  6  7  1  0
  7  8  1  0
  8  9  1  0
  9 10  2  0
  9  4  1  0
  1 11  1  0
  1 12  1  0
  1 13  1  0
  2 14  1  6
  3 15  1  0
  3 16  1  0
  5 17  1  0
  5 18  1  0
  6 19  1  0
  6 20  1  0
  7 21  1  0
  8 22  1  0
  8 23  1  0
M  END
$$$$
