
     RDKit          3D

 19 19  0  0  0  0  0  0  0  0999 V2000
    3.1173   -0.0738    0.3713 N   0  0  0  0  0  0  0  0  0  0  0  0
    1.7191   -0.4108    0.5712 C   0  0  0  0  0  0  0  0  0  0  0  0
    0.8667    0.2487   -0.5020 C   0  0  0  0  0  0  0  0  0  0  0  0
   -0.5280   -0.0570   -0.3448 N   0  0  0  0  0  0  0  0  0  0  0  0
   -1.3995    0.6820    0.3928 C   0  0  0  0  0  0  0  0  0  0  0  0
   -1.1501    1.8378    1.1216 O   0  0  0  0  0  0  0  0  0  0  0  0
   -2.6113    0.0369    0.2685 C   0  0  0  0  0  0  0  0  0  0  0  0
   -2.4780   -1.0608   -0.5212 N   0  0  0  0  0  0  0  0  0  0  0  0
   -1.1865   -1.1083   -0.8941 C   0  0  0  0  0  0  0  0  0  0  0  0
   -0.7102   -2.0179   -1.6448 O   0  0  0  0  0  0  0  0  0  0  0  0
    3.2141    0.2331   -0.6262 H   0  0  0  0  0  0  0  0  0  0  0  0
    3.3316    0.7368    0.9944 H   0  0  0  0  0  0  0  0  0  0  0  0
    1.5986   -1.5267    0.4971 H   0  0  0  0  0  0  0  0  0  0  0  0
    1.4161   -0.0922    1.5898 H   0  0  0  0  0  0  0  0  0  0  0  0
    1.0387    1.3446   -0.4208 H   0  0  0  0  0  0  0  0  0  0  0  0
    1.2333   -0.0644   -1.4798 H   0  0  0  0  0  0  0  0  0  0  0  0
   -0.7411    2.6795    0.6974 H   0  0  0  0  0  0  0  0  0  0  0  0
   -3.5140    0.3649    0.7318 H   0  0  0  0  0  0  0  0  0  0  0  0
   -3.2166   -1.7525   -0.8021 H   0  0  0  0  0  0  0  0  0  0  0  0
  1  2  1  0
  2  3  1  0
  3  4  1  0
  4  5  1  0
  5  6  1  0
  5  7  2  0
  7  8  1  0
  8  9  1  0
  9 10  2  0
  9  4  1  0
  1 11  1  0
  1 12  1  0
  2 13  1  0
  2 14  1  0
  3 15  1  0
  3 16  1  0
  6 17  1  0
  7 18  1  0
  8 19  1  0
M  END
$$$$

     RDKit          3D

 19 19  0  0  0  0  0  0  0  0999 V2000
    2.2582   -0.6956    0.5342 N   0  0  0  0  0  0  0  0  0  0  0  0
    1.7722    0.6486    0.6861 C   0  0  0  0  0  0  0  0  0  0  0  0
    0.7917    1.0279   -0.4307 C   0  0  0  0  0  0  0  0  0  0  0  0
   -0.3392    0.1198   -0.3928 N   0  0  0  0  0  0  0  0  0  0  0  0
   -1.4591    0.3493    0.3350 C   0  0  0  0  0  0  0  0  0  0  0  0
   -1.7082    1.4546    1.1417 O   0  0  0  0  0  0  0  0  0  0  0  0
   -2.3475   -0.7026    0.1578 C   0  0  0  0  0  0  0  0  0  0  0  0
   -1.7218   -1.5450   -0.6856 N   0  0  0  0  0  0  0  0  0  0  0  0
   -0.5112   -1.0477   -1.0165 C   0  0  0  0  0  0  0  0  0  0  0  0
    0.3537   -1.5605   -1.7837 O   0  0  0  0  0  0  0  0  0  0  0  0
    2.7252   -0.8249   -0.3907 H   0  0  0  0  0  0  0  0  0  0  0  0
    1.5181   -1.4028    0.7287 H   0  0  0  0  0  0  0  0  0  0  0  0
    1.2344    0.7080    1.6640 H   0  0  0  0  0  0  0  0  0  0  0  0
    2.5997    1.3655    0.7297 H   0  0  0  0  0  0  0  0  0  0  0  0
    1.3565    0.9418   -1.3759 H   0  0  0  0  0  0  0  0  0  0  0  0
    0.4477    2.0602   -0.2187 H   0  0  0  0  0  0  0  0  0  0  0  0
   -1.5600    2.3882    0.7758 H   0  0  0  0  0  0  0  0  0  0  0  0
   -3.3409   -0.8269    0.6029 H   0  0  0  0  0  0  0  0  0  0  0  0
   -2.0696   -2.4578   -1.0613 H   0  0  0  0  0  0  0  0  0  0  0  0
  1  2  1  0
  2  3  1  0
  3  4  1  0
  4  5  1  0
  5  6  1  0
  5  7  2  0
  7  8  1  0
  8  9  1  0
  9 10  2  0
  9  4  1  0
  1 11  1  0
  1 12  1  0
  2 13  1  0
  2 14  1  0
  3 15  1  0
  3 16  1  0
  6 17  1  0
  7 18  1  0
  8 19  1  0
M  END
$$$$

     RDKit          3D

 19 19  0  0  0  0  0  0  0  0999 V2000
    3.0908   -0.0309    0.2865 N   0  0  0  0  0  0  0  0  0  0  0  0
    1.7033   -0.3807    0.5372 C   0  0  0  0  0  0  0  0  0  0  0  0
    0.8756    0.3493   -0.4885 C   0  0  0  0  0  0  0  0  0  0  0  0
   -0.5412    0.0886   -0.3533 N   0  0  0  0  0  0  0  0  0  0  0  0
   -1.4382    0.7557    0.3756 C   0  0  0  0  0  0  0  0  0  0  0  0
   -1.1043    1.8645    1.1535 O   0  0  0  0  0  0  0  0  0  0  0  0
   -2.6858    0.1817    0.2285 C   0  0  0  0  0  0  0  0  0  0  0  0
   -2.5029   -0.8477   -0.6108 N   0  0  0  0  0  0  0  0  0  0  0  0
   -1.2285   -0.9163   -0.9668 C   0  0  0  0  0  0  0  0  0  0  0  0
   -0.6564   -1.7497   -1.7470 O   0  0  0  0  0  0  0  0  0  0  0  0
    3.1708    0.8151   -0.3160 H   0  0  0  0  0  0  0  0  0  0  0  0
    3.6395   -0.8265   -0.0613 H   0  0  0  0  0  0  0  0  0  0  0  0
    1.5645   -1.4598    0.4878 H   0  0  0  0  0  0  0  0  0  0  0  0
    1.4572    0.0595    1.5417 H   0  0  0  0  0  0  0  0  0  0  0  0
    1.1265    1.4181   -0.4977 H   0  0  0  0  0  0  0  0  0  0  0  0
    1.2104   -0.0488   -1.4886 H   0  0  0  0  0  0  0  0  0  0  0  0
   -0.8144    1.6741    2.1193 H   0  0  0  0  0  0  0  0  0  0  0  0
   -3.5901    0.5319    0.7142 H   0  0  0  0  0  0  0  0  0  0  0  0
   -3.2767   -1.4781   -0.9143 H   0  0  0  0  0  0  0  0  0  0  0  0
  1  2  1  0
  2  3  1  0
  3  4  1  0
  4  5  1  0
  5  6  1  0
  5  7  2  0
  7  8  1  0
  8  9  1  0
  9 10  2  0
  9  4  1  0
  1 11  1  0
  1 12  1  0
  2 13  1  0
  2 14  1  0
  3 15  1  0
  3 16  1  0
  6 17  1  0
  7 18  1  0
  8 19  1  0
M  END
$$$$

     RDKit          3D

 19 19  0  0  0  0  0  0  0  0999 V2000
   -2.2119   -0.8284    0.4415 N   0  0  0  0  0  0  0  0  0  0  0  0
   -1.7562    0.5434    0.6176 C   0  0  0  0  0  0  0  0  0  0  0  0
   -0.7666    0.9271   -0.4489 C   0  0  0  0  0  0  0  0  0  0  0  0
    0.4087    0.1172   -0.4716 N   0  0  0  0  0  0  0  0  0  0  0  0
    1.5281    0.4002    0.2373 C   0  0  0  0  0  0  0  0  0  0  0  0
    1.7360    1.4920    1.0890 O   0  0  0  0  0  0  0  0  0  0  0  0
    2.4513   -0.5875   -0.0239 C   0  0  0  0  0  0  0  0  0  0  0  0
    1.8659   -1.4589   -0.8958 N   0  0  0  0  0  0  0  0  0  0  0  0
    0.6239   -1.0174   -1.1590 C   0  0  0  0  0  0  0  0  0  0  0  0
   -0.2378   -1.5352   -1.9125 O   0  0  0  0  0  0  0  0  0  0  0  0
   -3.0061   -0.9220   -0.1981 H   0  0  0  0  0  0  0  0  0  0  0  0
   -2.4104   -1.3038    1.3270 H   0  0  0  0  0  0  0  0  0  0  0  0
   -2.6563    1.1806    0.4861 H   0  0  0  0  0  0  0  0  0  0  0  0
   -1.3589    0.7414    1.6111 H   0  0  0  0  0  0  0  0  0  0  0  0
   -0.5043    1.9929   -0.2835 H   0  0  0  0  0  0  0  0  0  0  0  0
   -1.3198    0.9029   -1.4219 H   0  0  0  0  0  0  0  0  0  0  0  0
    1.8872    2.3824    0.6225 H   0  0  0  0  0  0  0  0  0  0  0  0
    3.4577   -0.7071    0.3542 H   0  0  0  0  0  0  0  0  0  0  0  0
    2.2695   -2.3198   -1.3073 H   0  0  0  0  0  0  0  0  0  0  0  0
  1  2  1  0
  2  3  1  0
  3  4  1  0
  4  5  1  0
  5  6  1  0
  5  7  2  0
  7  8  1  0
  8  9  1  0
  9 10  2  0
  9  4  1  0
  1 11  1  0
  1 12  1  0
  2 13  1  0
  2 14  1  0
  3 15  1  0
  3 16  1  0
  6 17  1  0
  7 18  1  0
  8 19  1  0
M  END
$$$$

     RDKit          3D

 19 19  0  0  0  0  0  0  0  0999 V2000
    1.9929   -0.7463    0.8737 N   0  0  0  0  0  0  0  0  0  0  0  0
    1.8183    0.6197    0.3605 C   0  0  0  0  0  0  0  0  0  0  0  0
    0.9336    0.5744   -0.8579 C   0  0  0  0  0  0  0  0  0  0  0  0
   -0.3792    0.0135   -0.5179 N   0  0  0  0  0  0  0  0  0  0  0  0
   -1.4501    0.7061   -0.1067 C   0  0  0  0  0  0  0  0  0  0  0  0
   -1.5349    2.0941    0.0808 O   0  0  0  0  0  0  0  0  0  0  0  0
   -2.4653   -0.2013    0.1011 C   0  0  0  0  0  0  0  0  0  0  0  0
   -2.0183   -1.4361   -0.1804 N   0  0  0  0  0  0  0  0  0  0  0  0
   -0.7430   -1.2720   -0.5551 C   0  0  0  0  0  0  0  0  0  0  0  0
    0.0526   -2.2022   -0.9088 O   0  0  0  0  0  0  0  0  0  0  0  0
    2.4378   -0.6957    1.8257 H   0  0  0  0  0  0  0  0  0  0  0  0
    2.6766   -1.2250    0.2136 H   0  0  0  0  0  0  0  0  0  0  0  0
    1.4332    1.2677    1.1582 H   0  0  0  0  0  0  0  0  0  0  0  0
    2.7969    1.0282    0.0455 H   0  0  0  0  0  0  0  0  0  0  0  0
    1.3952   -0.1405   -1.5730 H   0  0  0  0  0  0  0  0  0  0  0  0
    0.8572    1.5517   -1.3232 H   0  0  0  0  0  0  0  0  0  0  0  0
   -1.7292    2.4148    1.0353 H   0  0  0  0  0  0  0  0  0  0  0  0
   -3.4868   -0.0219    0.4373 H   0  0  0  0  0  0  0  0  0  0  0  0
   -2.5874   -2.3292   -0.1087 H   0  0  0  0  0  0  0  0  0  0  0  0
  1  2  1  0
  2  3  1  0
  3  4  1  0
  4  5  1  0
  5  6  1  0
  5  7  2  0
  7  8  1  0
  8  9  1  0
  9 10  2  0
  9  4  1  0
  1 11  1  0
  1 12  1  0
  2 13  1  0
  2 14  1  0
  3 15  1  0
  3 16  1  0
  6 17  1  0
  7 18  1  0
  8 19  1  0
M  END
$$$$

     RDKit          3D

 19 19  0  0  0  0  0  0  0  0999 V2000
    3.0856   -0.1873    0.5577 N   0  0  0  0  0  0  0  0  0  0  0  0
    1.7350   -0.6485    0.1930 C   0  0  0  0  0  0  0  0  0  0  0  0
    0.8385    0.5314    0.2924 C   0  0  0  0  0  0  0  0  0  0  0  0
   -0.5356    0.2761   -0.0295 N   0  0  0  0  0  0  0  0  0  0  0  0
   -1.4471   -0.1048    0.8832 C   0  0  0  0  0  0  0  0  0  0  0  0
   -1.2860   -0.3236    2.2448 O   0  0  0  0  0  0  0  0  0  0  0  0
   -2.6489   -0.2594    0.2363 C   0  0  0  0  0  0  0  0  0  0  0  0
   -2.4739    0.0228   -1.0518 N   0  0  0  0  0  0  0  0  0  0  0  0
   -1.1816    0.3485   -1.2049 C   0  0  0  0  0  0  0  0  0  0  0  0
   -0.6041    0.6816   -2.2716 O   0  0  0  0  0  0  0  0  0  0  0  0
    3.7973   -0.7519    0.0431 H   0  0  0  0  0  0  0  0  0  0  0  0
    3.1765    0.7999    0.2238 H   0  0  0  0  0  0  0  0  0  0  0  0
    1.4947   -1.4365    0.9445 H   0  0  0  0  0  0  0  0  0  0  0  0
    1.8253   -1.0873   -0.8002 H   0  0  0  0  0  0  0  0  0  0  0  0
    1.2500    1.3414   -0.3653 H   0  0  0  0  0  0  0  0  0  0  0  0
    0.8860    0.9364    1.3222 H   0  0  0  0  0  0  0  0  0  0  0  0
   -1.1085    0.4205    2.8767 H   0  0  0  0  0  0  0  0  0  0  0  0
   -3.6155   -0.5625    0.6673 H   0  0  0  0  0  0  0  0  0  0  0  0
   -3.1876    0.0033   -1.8210 H   0  0  0  0  0  0  0  0  0  0  0  0
  1  2  1  0
  2  3  1  0
  3  4  1  0
  4  5  1  0
  5  6  1  0
  5  7  2  0
  7  8  1  0
  8  9  1  0
  9 10  2  0
  9  4  1  0
  1 11  1  0
  1 12  1  0
  2 13  1  0
  2 14  1  0
  3 15  1  0
  3 16  1  0
  6 17  1  0
  7 18  1  0
  8 19  1  0
M  END
$$$$

     RDKit          3D

 19 19  0  0  0  0  0  0  0  0999 V2000
   -2.1228    0.3412    0.8602 N   0  0  0  0  0  0  0  0  0  0  0  0
   -1.8907    0.1316   -0.5464 C   0  0  0  0  0  0  0  0  0  0  0  0
   -0.7810   -0.8649   -0.7239 C   0  0  0  0  0  0  0  0  0  0  0  0
    0.4630   -0.4486   -0.1385 N   0  0  0  0  0  0  0  0  0  0  0  0
    1.4777    0.2559   -0.6734 C   0  0  0  0  0  0  0  0  0  0  0  0
    1.5128    0.7388   -1.9638 O   0  0  0  0  0  0  0  0  0  0  0  0
    2.4732    0.4204    0.2631 C   0  0  0  0  0  0  0  0  0  0  0  0
    2.0606   -0.1925    1.3862 N   0  0  0  0  0  0  0  0  0  0  0  0
    0.8529   -0.7071    1.1242 C   0  0  0  0  0  0  0  0  0  0  0  0
    0.1789   -1.3593    1.9906 O   0  0  0  0  0  0  0  0  0  0  0  0
   -3.1485    0.3002    1.0947 H   0  0  0  0  0  0  0  0  0  0  0  0
   -1.7930    1.3079    1.1219 H   0  0  0  0  0  0  0  0  0  0  0  0
   -1.7419    1.0779   -1.0596 H   0  0  0  0  0  0  0  0  0  0  0  0
   -2.8147   -0.3340   -0.9592 H   0  0  0  0  0  0  0  0  0  0  0  0
   -0.6788   -1.1411   -1.8093 H   0  0  0  0  0  0  0  0  0  0  0  0
   -1.1043   -1.8063   -0.2167 H   0  0  0  0  0  0  0  0  0  0  0  0
    1.0512    1.6099   -2.2305 H   0  0  0  0  0  0  0  0  0  0  0  0
    3.4300    0.9377    0.1666 H   0  0  0  0  0  0  0  0  0  0  0  0
    2.5752   -0.2674    2.3139 H   0  0  0  0  0  0  0  0  0  0  0  0
  1  2  1  0
  2  3  1  0
  3  4  1  0
  4  5  1  0
  5  6  1  0
  5  7  2  0
  7  8  1  0
  8  9  1  0
  9 10  2  0
  9  4  1  0
  1 11  1  0
  1 12  1  0
  2 13  1  0
  2 14  1  0
  3 15  1  0
  3 16  1  0
  6 17  1  0
  7 18  1  0
  8 19  1  0
M  END
$$$$

     RDKit          3D

 19 19  0  0  0  0  0  0  0  0999 V2000
    1.8650    0.1797    1.0216 N   0  0  0  0  0  0  0  0  0  0  0  0
    1.9627   -0.2535   -0.3562 C   0  0  0  0  0  0  0  0  0  0  0  0
    0.8240    0.4510   -1.1076 C   0  0  0  0  0  0  0  0  0  0  0  0
   -0.4287    0.0172   -0.4718 N   0  0  0  0  0  0  0  0  0  0  0  0
   -1.0778    0.5666    0.5438 C   0  0  0  0  0  0  0  0  0  0  0  0
   -0.6645    1.7223    1.2314 O   0  0  0  0  0  0  0  0  0  0  0  0
   -2.2175   -0.1607    0.8275 C   0  0  0  0  0  0  0  0  0  0  0  0
   -2.2189   -1.1669   -0.0630 N   0  0  0  0  0  0  0  0  0  0  0  0
   -1.1386   -1.0707   -0.8577 C   0  0  0  0  0  0  0  0  0  0  0  0
   -0.8345   -1.8574   -1.8025 O   0  0  0  0  0  0  0  0  0  0  0  0
    2.3676    1.0453    1.2300 H   0  0  0  0  0  0  0  0  0  0  0  0
    2.0023   -0.5943    1.6999 H   0  0  0  0  0  0  0  0  0  0  0  0
    2.9283   -0.0565   -0.8197 H   0  0  0  0  0  0  0  0  0  0  0  0
    1.8001   -1.3488   -0.3558 H   0  0  0  0  0  0  0  0  0  0  0  0
    0.8983    1.5468   -0.9912 H   0  0  0  0  0  0  0  0  0  0  0  0
    0.8666    0.1878   -2.1662 H   0  0  0  0  0  0  0  0  0  0  0  0
   -1.0648    2.6305    0.9583 H   0  0  0  0  0  0  0  0  0  0  0  0
   -2.9246    0.0718    1.6095 H   0  0  0  0  0  0  0  0  0  0  0  0
   -2.9450   -1.9102   -0.1304 H   0  0  0  0  0  0  0  0  0  0  0  0
  1  2  1  0
  2  3  1  0
  3  4  1  0
  4  5  1  0
  5  6  1  0
  5  7  2  0
  7  8  1  0
  8  9  1  0
  9 10  2  0
  9  4  1  0
  1 11  1  0
  1 12  1  0
  2 13  1  0
  2 14  1  0
  3 15  1  0
  3 16  1  0
  6 17  1  0
  7 18  1  0
  8 19  1  0
M  END
$$$$
