
     RDKit          3D

 25 26  0  0  0  0  0  0  0  0999 V2000
   -2.7680   -0.1267   -0.0115 C   0  0  0  0  0  0  0  0  0  0  0  0
   -1.8811   -1.3316   -0.1253 C   0  0  0  0  0  0  0  0  0  0  0  0
   -0.7561   -1.1317   -0.8940 O   0  0  0  0  0  0  0  0  0  0  0  0
    0.0271   -0.0740   -0.4824 C   0  0  0  0  0  0  0  0  0  0  0  0
   -0.8689    1.1517   -0.4158 C   0  0  0  0  0  0  0  0  0  0  0  0
   -1.9579    0.9794    0.5231 N   0  0  0  0  0  0  0  0  0  0  0  0
    0.5966   -0.4194    0.8714 C   0  0  0  0  0  0  0  0  0  0  0  0
    1.5378    0.6337    1.2170 N   0  0  0  0  0  0  0  0  0  0  0  0
    2.6949    0.4163    0.3342 C   0  0  0  0  0  0  0  0  0  0  0  0
    2.2859   -0.0917   -1.0047 C   0  0  0  0  0  0  0  0  0  0  0  0
    1.0086    0.1941   -1.3814 O   0  0  0  0  0  0  0  0  0  0  0  0
   -3.5946   -0.3706    0.6642 H   0  0  0  0  0  0  0  0  0  0  0  0
   -3.1508    0.2376   -0.9841 H   0  0  0  0  0  0  0  0  0  0  0  0
   -1.6920   -1.7125    0.8832 H   0  0  0  0  0  0  0  0  0  0  0  0
   -2.4859   -2.1243   -0.6463 H   0  0  0  0  0  0  0  0  0  0  0  0
   -1.3568    1.2115   -1.4336 H   0  0  0  0  0  0  0  0  0  0  0  0
   -0.3196    2.0849   -0.2916 H   0  0  0  0  0  0  0  0  0  0  0  0
   -1.6477    0.7447    1.4708 H   0  0  0  0  0  0  0  0  0  0  0  0
   -0.1418   -0.6213    1.6359 H   0  0  0  0  0  0  0  0  0  0  0  0
    1.1974   -1.3482    0.7321 H   0  0  0  0  0  0  0  0  0  0  0  0
    1.1623    1.5863    1.0186 H   0  0  0  0  0  0  0  0  0  0  0  0
    3.3312    1.3056    0.3261 H   0  0  0  0  0  0  0  0  0  0  0  0
    3.2953   -0.3841    0.8583 H   0  0  0  0  0  0  0  0  0  0  0  0
    2.9725    0.3817   -1.7684 H   0  0  0  0  0  0  0  0  0  0  0  0
    2.5115   -1.1913   -1.0955 H   0  0  0  0  0  0  0  0  0  0  0  0
  1  2  1  0
  2  3  1  0
  3  4  1  0
  4  5  1  0
  5  6  1  0
  4  7  1  0
  7  8  1  0
  8  9  1  0
  9 10  1  0
 10 11  1  0
  6  1  1  0
 11  4  1  0
  1 12  1  0
  1 13  1  0
  2 14  1  0
  2 15  1  0
  5 16  1  0
  5 17  1  0
  6 18  1  0
  7 19  1  0
  7 20  1  0
  8 21  1  0
  9 22  1  0
  9 23  1  0
 10 24  1  0
 10 25  1  0
M  END
$$$$

     RDKit          3D

 25 26  0  0  0  0  0  0  0  0999 V2000
    2.7526    0.4134   -0.2210 C   0  0  0  0  0  0  0  0  0  0  0  0
    1.6821    1.4267    0.0936 C   0  0  0  0  0  0  0  0  0  0  0  0
    0.4934    1.1171   -0.5517 O   0  0  0  0  0  0  0  0  0  0  0  0
   -0.0568   -0.0870   -0.1217 C   0  0  0  0  0  0  0  0  0  0  0  0
    1.0034   -1.1960   -0.1521 C   0  0  0  0  0  0  0  0  0  0  0  0
    2.1728   -0.7515   -0.9051 N   0  0  0  0  0  0  0  0  0  0  0  0
   -1.1236   -0.4793   -1.0890 C   0  0  0  0  0  0  0  0  0  0  0  0
   -2.3988    0.1021   -0.8595 N   0  0  0  0  0  0  0  0  0  0  0  0
   -2.5648    0.7064    0.4364 C   0  0  0  0  0  0  0  0  0  0  0  0
   -1.7804   -0.1377    1.4250 C   0  0  0  0  0  0  0  0  0  0  0  0
   -0.4538    0.0468    1.1734 O   0  0  0  0  0  0  0  0  0  0  0  0
    3.2820    0.0994    0.6900 H   0  0  0  0  0  0  0  0  0  0  0  0
    3.5107    0.8550   -0.9328 H   0  0  0  0  0  0  0  0  0  0  0  0
    1.5588    1.5523    1.1938 H   0  0  0  0  0  0  0  0  0  0  0  0
    2.0027    2.4181   -0.2880 H   0  0  0  0  0  0  0  0  0  0  0  0
    1.3644   -1.4359    0.8681 H   0  0  0  0  0  0  0  0  0  0  0  0
    0.6004   -2.1106   -0.5948 H   0  0  0  0  0  0  0  0  0  0  0  0
    2.8824   -1.5142   -0.7954 H   0  0  0  0  0  0  0  0  0  0  0  0
   -0.7788   -0.1333   -2.1086 H   0  0  0  0  0  0  0  0  0  0  0  0
   -1.1596   -1.5983   -1.1876 H   0  0  0  0  0  0  0  0  0  0  0  0
   -3.1189   -0.6800   -0.9170 H   0  0  0  0  0  0  0  0  0  0  0  0
   -3.6407    0.7324    0.6644 H   0  0  0  0  0  0  0  0  0  0  0  0
   -2.0926    1.7107    0.4430 H   0  0  0  0  0  0  0  0  0  0  0  0
   -2.1288   -1.1875    1.2726 H   0  0  0  0  0  0  0  0  0  0  0  0
   -2.0080    0.1309    2.4640 H   0  0  0  0  0  0  0  0  0  0  0  0
  1  2  1  0
  2  3  1  0
  3  4  1  0
  4  5  1  0
  5  6  1  0
  4  7  1  0
  7  8  1  0
  8  9  1  0
  9 10  1  0
 10 11  1  0
  6  1  1  0
 11  4  1  0
  1 12  1  0
  1 13  1  0
  2 14  1  0
  2 15  1  0
  5 16  1  0
  5 17  1  0
  6 18  1  0
  7 19  1  0
  7 20  1  0
  8 21  1  0
  9 22  1  0
  9 23  1  0
 10 24  1  0
 10 25  1  0
M  END
$$$$

     RDKit          3D

 25 26  0  0  0  0  0  0  0  0999 V2000
   -2.5607    0.6475   -0.2848 C   0  0  0  0  0  0  0  0  0  0  0  0
   -1.8101    1.3257    0.7861 C   0  0  0  0  0  0  0  0  0  0  0  0
   -0.5119    1.0394    0.9756 O   0  0  0  0  0  0  0  0  0  0  0  0
    0.0613    0.0181    0.3061 C   0  0  0  0  0  0  0  0  0  0  0  0
   -0.9681   -1.0404    0.0152 C   0  0  0  0  0  0  0  0  0  0  0  0
   -1.9755   -0.5218   -0.8377 N   0  0  0  0  0  0  0  0  0  0  0  0
    0.7610    0.5244   -0.9138 C   0  0  0  0  0  0  0  0  0  0  0  0
    2.1540    0.7043   -0.8069 N   0  0  0  0  0  0  0  0  0  0  0  0
    2.8873   -0.2367   -0.0480 C   0  0  0  0  0  0  0  0  0  0  0  0
    1.9084   -1.3120    0.4370 C   0  0  0  0  0  0  0  0  0  0  0  0
    0.9663   -0.6257    1.1866 O   0  0  0  0  0  0  0  0  0  0  0  0
   -2.7892    1.3392   -1.1508 H   0  0  0  0  0  0  0  0  0  0  0  0
   -3.5908    0.3621    0.0864 H   0  0  0  0  0  0  0  0  0  0  0  0
   -2.3453    1.1893    1.7739 H   0  0  0  0  0  0  0  0  0  0  0  0
   -1.9013    2.4396    0.6053 H   0  0  0  0  0  0  0  0  0  0  0  0
   -0.5396   -1.9580   -0.4082 H   0  0  0  0  0  0  0  0  0  0  0  0
   -1.4414   -1.3035    0.9927 H   0  0  0  0  0  0  0  0  0  0  0  0
   -2.6598   -1.2809   -1.0461 H   0  0  0  0  0  0  0  0  0  0  0  0
    0.5443   -0.1264   -1.8085 H   0  0  0  0  0  0  0  0  0  0  0  0
    0.3038    1.5152   -1.1927 H   0  0  0  0  0  0  0  0  0  0  0  0
    2.5136    1.6627   -0.8378 H   0  0  0  0  0  0  0  0  0  0  0  0
    3.4238    0.2024    0.8197 H   0  0  0  0  0  0  0  0  0  0  0  0
    3.6535   -0.7431   -0.6751 H   0  0  0  0  0  0  0  0  0  0  0  0
    2.4144   -2.0439    1.0911 H   0  0  0  0  0  0  0  0  0  0  0  0
    1.5021   -1.7775   -0.4736 H   0  0  0  0  0  0  0  0  0  0  0  0
  1  2  1  0
  2  3  1  0
  3  4  1  0
  4  5  1  0
  5  6  1  0
  4  7  1  0
  7  8  1  0
  8  9  1  0
  9 10  1  0
 10 11  1  0
  6  1  1  0
 11  4  1  0
  1 12  1  0
  1 13  1  0
  2 14  1  0
  2 15  1  0
  5 16  1  0
  5 17  1  0
  6 18  1  0
  7 19  1  0
  7 20  1  0
  8 21  1  0
  9 22  1  0
  9 23  1  0
 10 24  1  0
 10 25  1  0
M  END
$$$$

     RDKit          3D

 25 26  0  0  0  0  0  0  0  0999 V2000
   -2.6140   -0.6047   -0.1966 C   0  0  0  0  0  0  0  0  0  0  0  0
   -2.2980    0.6234   -0.9669 C   0  0  0  0  0  0  0  0  0  0  0  0
   -1.0205    0.9899   -1.0644 O   0  0  0  0  0  0  0  0  0  0  0  0
   -0.0585    0.2976   -0.3934 C   0  0  0  0  0  0  0  0  0  0  0  0
   -0.4790   -0.3374    0.8895 C   0  0  0  0  0  0  0  0  0  0  0  0
   -1.8582   -0.6361    1.0081 N   0  0  0  0  0  0  0  0  0  0  0  0
    0.9803    1.3748   -0.0369 C   0  0  0  0  0  0  0  0  0  0  0  0
    2.0966    0.7853    0.6139 N   0  0  0  0  0  0  0  0  0  0  0  0
    2.5246   -0.4632    0.1049 C   0  0  0  0  0  0  0  0  0  0  0  0
    1.7522   -1.0386   -1.0094 C   0  0  0  0  0  0  0  0  0  0  0  0
    0.4902   -0.6375   -1.2140 O   0  0  0  0  0  0  0  0  0  0  0  0
   -2.5098   -1.5457   -0.7489 H   0  0  0  0  0  0  0  0  0  0  0  0
   -3.7039   -0.5449    0.0970 H   0  0  0  0  0  0  0  0  0  0  0  0
   -2.7273    0.4907   -2.0032 H   0  0  0  0  0  0  0  0  0  0  0  0
   -2.8996    1.4818   -0.5444 H   0  0  0  0  0  0  0  0  0  0  0  0
   -0.1963    0.2885    1.7860 H   0  0  0  0  0  0  0  0  0  0  0  0
    0.1014   -1.2913    1.0414 H   0  0  0  0  0  0  0  0  0  0  0  0
   -2.3328   -0.1875    1.8228 H   0  0  0  0  0  0  0  0  0  0  0  0
    1.2068    2.0186   -0.8845 H   0  0  0  0  0  0  0  0  0  0  0  0
    0.4469    2.0269    0.7164 H   0  0  0  0  0  0  0  0  0  0  0  0
    2.8480    1.5040    0.7143 H   0  0  0  0  0  0  0  0  0  0  0  0
    3.6048   -0.3461   -0.2083 H   0  0  0  0  0  0  0  0  0  0  0  0
    2.5834   -1.1825    0.9748 H   0  0  0  0  0  0  0  0  0  0  0  0
    1.7400   -2.1627   -0.8746 H   0  0  0  0  0  0  0  0  0  0  0  0
    2.3225   -0.9037   -1.9770 H   0  0  0  0  0  0  0  0  0  0  0  0
  1  2  1  0
  2  3  1  0
  3  4  1  0
  4  5  1  0
  5  6  1  0
  4  7  1  0
  7  8  1  0
  8  9  1  0
  9 10  1  0
 10 11  1  0
  6  1  1  0
 11  4  1  0
  1 12  1  0
  1 13  1  0
  2 14  1  0
  2 15  1  0
  5 16  1  0
  5 17  1  0
  6 18  1  0
  7 19  1  0
  7 20  1  0
  8 21  1  0
  9 22  1  0
  9 23  1  0
 10 24  1  0
 10 25  1  0
M  END
$$$$

     RDKit          3D

 25 26  0  0  0  0  0  0  0  0999 V2000
    2.7516    0.3437   -0.2316 C   0  0  0  0  0  0  0  0  0  0  0  0
    1.7227    1.2082   -0.8638 C   0  0  0  0  0  0  0  0  0  0  0  0
    0.6221    0.4525   -1.1849 O   0  0  0  0  0  0  0  0  0  0  0  0
    0.0196   -0.1782   -0.1321 C   0  0  0  0  0  0  0  0  0  0  0  0
    0.9333   -0.8601    0.8192 C   0  0  0  0  0  0  0  0  0  0  0  0
    2.3089   -0.6380    0.6629 N   0  0  0  0  0  0  0  0  0  0  0  0
   -0.8735    0.8551    0.5633 C   0  0  0  0  0  0  0  0  0  0  0  0
   -2.1129    1.0517   -0.1617 N   0  0  0  0  0  0  0  0  0  0  0  0
   -2.9249   -0.1549   -0.1528 C   0  0  0  0  0  0  0  0  0  0  0  0
   -1.9607   -1.2981    0.1898 C   0  0  0  0  0  0  0  0  0  0  0  0
   -0.8705   -1.1318   -0.6816 O   0  0  0  0  0  0  0  0  0  0  0  0
    3.3348   -0.1550   -1.0574 H   0  0  0  0  0  0  0  0  0  0  0  0
    3.4969    1.0017    0.2779 H   0  0  0  0  0  0  0  0  0  0  0  0
    1.5243    2.0826   -0.2358 H   0  0  0  0  0  0  0  0  0  0  0  0
    2.1446    1.5999   -1.8239 H   0  0  0  0  0  0  0  0  0  0  0  0
    0.7508   -1.9765    0.8183 H   0  0  0  0  0  0  0  0  0  0  0  0
    0.6392   -0.5523    1.8666 H   0  0  0  0  0  0  0  0  0  0  0  0
    2.8669   -1.5151    0.5795 H   0  0  0  0  0  0  0  0  0  0  0  0
   -1.0188    0.6243    1.6272 H   0  0  0  0  0  0  0  0  0  0  0  0
   -0.3484    1.8516    0.5391 H   0  0  0  0  0  0  0  0  0  0  0  0
   -1.8852    1.3912   -1.1030 H   0  0  0  0  0  0  0  0  0  0  0  0
   -3.7620   -0.0942    0.5421 H   0  0  0  0  0  0  0  0  0  0  0  0
   -3.2529   -0.3779   -1.2091 H   0  0  0  0  0  0  0  0  0  0  0  0
   -2.4461   -2.2572   -0.0160 H   0  0  0  0  0  0  0  0  0  0  0  0
   -1.6597   -1.2732    1.2398 H   0  0  0  0  0  0  0  0  0  0  0  0
  1  2  1  0
  2  3  1  0
  3  4  1  0
  4  5  1  0
  5  6  1  0
  4  7  1  0
  7  8  1  0
  8  9  1  0
  9 10  1  0
 10 11  1  0
  6  1  1  0
 11  4  1  0
  1 12  1  0
  1 13  1  0
  2 14  1  0
  2 15  1  0
  5 16  1  0
  5 17  1  0
  6 18  1  0
  7 19  1  0
  7 20  1  0
  8 21  1  0
  9 22  1  0
  9 23  1  0
 10 24  1  0
 10 25  1  0
M  END
$$$$

     RDKit          3D

 25 26  0  0  0  0  0  0  0  0999 V2000
   -2.8140    0.2707    0.2917 C   0  0  0  0  0  0  0  0  0  0  0  0
   -1.7309    0.0443    1.3537 C   0  0  0  0  0  0  0  0  0  0  0  0
   -0.6518    0.8537    0.9602 O   0  0  0  0  0  0  0  0  0  0  0  0
    0.0201    0.1456   -0.0531 C   0  0  0  0  0  0  0  0  0  0  0  0
   -0.9371   -0.5873   -0.9459 C   0  0  0  0  0  0  0  0  0  0  0  0
   -2.1770    0.1513   -0.9829 N   0  0  0  0  0  0  0  0  0  0  0  0
    0.9867   -0.7841    0.6568 C   0  0  0  0  0  0  0  0  0  0  0  0
    2.0794    0.0659    1.1416 N   0  0  0  0  0  0  0  0  0  0  0  0
    2.8298    0.5107   -0.0059 C   0  0  0  0  0  0  0  0  0  0  0  0
    1.9402    0.5080   -1.2488 C   0  0  0  0  0  0  0  0  0  0  0  0
    0.7152    1.0602   -0.8360 O   0  0  0  0  0  0  0  0  0  0  0  0
   -3.5828   -0.5176    0.3759 H   0  0  0  0  0  0  0  0  0  0  0  0
   -3.2413    1.2909    0.4798 H   0  0  0  0  0  0  0  0  0  0  0  0
   -2.0814    0.2943    2.3589 H   0  0  0  0  0  0  0  0  0  0  0  0
   -1.4774   -1.0387    1.2788 H   0  0  0  0  0  0  0  0  0  0  0  0
   -0.5369   -0.5780   -1.9947 H   0  0  0  0  0  0  0  0  0  0  0  0
   -1.0485   -1.6389   -0.6684 H   0  0  0  0  0  0  0  0  0  0  0  0
   -2.7956   -0.0899   -1.7644 H   0  0  0  0  0  0  0  0  0  0  0  0
    0.5322   -1.2238    1.5782 H   0  0  0  0  0  0  0  0  0  0  0  0
    1.3469   -1.5958    0.0110 H   0  0  0  0  0  0  0  0  0  0  0  0
    1.5992    0.8597    1.6460 H   0  0  0  0  0  0  0  0  0  0  0  0
    3.6677   -0.1878   -0.1476 H   0  0  0  0  0  0  0  0  0  0  0  0
    3.1371    1.5542    0.1856 H   0  0  0  0  0  0  0  0  0  0  0  0
    2.4011    1.1466   -2.0172 H   0  0  0  0  0  0  0  0  0  0  0  0
    1.8190   -0.5143   -1.6532 H   0  0  0  0  0  0  0  0  0  0  0  0
  1  2  1  0
  2  3  1  0
  3  4  1  0
  4  5  1  0
  5  6  1  0
  4  7  1  0
  7  8  1  0
  8  9  1  0
  9 10  1  0
 10 11  1  0
  6  1  1  0
 11  4  1  0
  1 12  1  0
  1 13  1  0
  2 14  1  0
  2 15  1  0
  5 16  1  0
  5 17  1  0
  6 18  1  0
  7 19  1  0
  7 20  1  0
  8 21  1  0
  9 22  1  0
  9 23  1  0
 10 24  1  0
 10 25  1  0
M  END
$$$$

     RDKit          3D

 25 26  0  0  0  0  0  0  0  0999 V2000
   -2.5863    0.7861    0.2168 C   0  0  0  0  0  0  0  0  0  0  0  0
   -2.2338   -0.4976    0.8711 C   0  0  0  0  0  0  0  0  0  0  0  0
   -1.0777   -1.0750    0.5864 O   0  0  0  0  0  0  0  0  0  0  0  0
   -0.0823   -0.4169   -0.0606 C   0  0  0  0  0  0  0  0  0  0  0  0
   -0.4910    0.6892   -0.9659 C   0  0  0  0  0  0  0  0  0  0  0  0
   -1.8671    1.0276   -0.9595 N   0  0  0  0  0  0  0  0  0  0  0  0
    0.8643    0.1002    1.0014 C   0  0  0  0  0  0  0  0  0  0  0  0
    2.1460    0.4832    0.5080 N   0  0  0  0  0  0  0  0  0  0  0  0
    2.4385    0.0479   -0.8192 C   0  0  0  0  0  0  0  0  0  0  0  0
    1.8534   -1.3154   -0.9866 C   0  0  0  0  0  0  0  0  0  0  0  0
    0.5170   -1.4114   -0.8547 O   0  0  0  0  0  0  0  0  0  0  0  0
   -2.4313    1.6480    0.9299 H   0  0  0  0  0  0  0  0  0  0  0  0
   -3.6885    0.8341   -0.0171 H   0  0  0  0  0  0  0  0  0  0  0  0
   -2.3193   -0.3400    1.9876 H   0  0  0  0  0  0  0  0  0  0  0  0
   -3.0690   -1.2287    0.6499 H   0  0  0  0  0  0  0  0  0  0  0  0
    0.0785    1.6254   -0.7048 H   0  0  0  0  0  0  0  0  0  0  0  0
   -0.2042    0.5010   -2.0437 H   0  0  0  0  0  0  0  0  0  0  0  0
   -2.3550    1.0451   -1.8457 H   0  0  0  0  0  0  0  0  0  0  0  0
    0.9686   -0.6235    1.8416 H   0  0  0  0  0  0  0  0  0  0  0  0
    0.3841    1.0109    1.4276 H   0  0  0  0  0  0  0  0  0  0  0  0
    2.9034    0.1216    1.1473 H   0  0  0  0  0  0  0  0  0  0  0  0
    3.5582   -0.0680   -0.9138 H   0  0  0  0  0  0  0  0  0  0  0  0
    2.1424    0.7613   -1.6123 H   0  0  0  0  0  0  0  0  0  0  0  0
    2.4102   -1.9964   -0.2776 H   0  0  0  0  0  0  0  0  0  0  0  0
    2.1408   -1.7086   -2.0059 H   0  0  0  0  0  0  0  0  0  0  0  0
  1  2  1  0
  2  3  1  0
  3  4  1  0
  4  5  1  0
  5  6  1  0
  4  7  1  0
  7  8  1  0
  8  9  1  0
  9 10  1  0
 10 11  1  0
  6  1  1  0
 11  4  1  0
  1 12  1  0
  1 13  1  0
  2 14  1  0
  2 15  1  0
  5 16  1  0
  5 17  1  0
  6 18  1  0
  7 19  1  0
  7 20  1  0
  8 21  1  0
  9 22  1  0
  9 23  1  0
 10 24  1  0
 10 25  1  0
M  END
$$$$

     RDKit          3D

 25 26  0  0  0  0  0  0  0  0999 V2000
   -2.6574    0.3887   -0.0077 C   0  0  0  0  0  0  0  0  0  0  0  0
   -1.6594    1.0586    0.8605 C   0  0  0  0  0  0  0  0  0  0  0  0
   -0.3613    0.8821    0.5804 O   0  0  0  0  0  0  0  0  0  0  0  0
    0.0523   -0.1872   -0.1157 C   0  0  0  0  0  0  0  0  0  0  0  0
   -1.0128   -1.1118   -0.6259 C   0  0  0  0  0  0  0  0  0  0  0  0
   -2.0890   -0.2942   -1.1515 N   0  0  0  0  0  0  0  0  0  0  0  0
    0.9863   -1.0560    0.7367 C   0  0  0  0  0  0  0  0  0  0  0  0
    2.2307   -0.4201    1.0069 N   0  0  0  0  0  0  0  0  0  0  0  0
    2.8199    0.0667   -0.2133 C   0  0  0  0  0  0  0  0  0  0  0  0
    1.8209    1.0302   -0.8372 C   0  0  0  0  0  0  0  0  0  0  0  0
    0.7437    0.2755   -1.2622 O   0  0  0  0  0  0  0  0  0  0  0  0
   -3.2040   -0.3836    0.5962 H   0  0  0  0  0  0  0  0  0  0  0  0
   -3.4602    1.0630   -0.3945 H   0  0  0  0  0  0  0  0  0  0  0  0
   -1.8350    0.7949    1.9451 H   0  0  0  0  0  0  0  0  0  0  0  0
   -1.8886    2.1661    0.8249 H   0  0  0  0  0  0  0  0  0  0  0  0
   -1.3296   -1.7578    0.2053 H   0  0  0  0  0  0  0  0  0  0  0  0
   -0.5847   -1.7474   -1.4169 H   0  0  0  0  0  0  0  0  0  0  0  0
   -2.8031   -0.8658   -1.6118 H   0  0  0  0  0  0  0  0  0  0  0  0
    0.4149   -1.3295    1.6320 H   0  0  0  0  0  0  0  0  0  0  0  0
    1.1651   -1.9683    0.1360 H   0  0  0  0  0  0  0  0  0  0  0  0
    2.2030    0.3430    1.6884 H   0  0  0  0  0  0  0  0  0  0  0  0
    2.9152   -0.8102   -0.9165 H   0  0  0  0  0  0  0  0  0  0  0  0
    3.8158    0.5153   -0.0805 H   0  0  0  0  0  0  0  0  0  0  0  0
    1.4588    1.6697    0.0154 H   0  0  0  0  0  0  0  0  0  0  0  0
    2.2584    1.6781   -1.5942 H   0  0  0  0  0  0  0  0  0  0  0  0
  1  2  1  0
  2  3  1  0
  3  4  1  0
  4  5  1  0
  5  6  1  0
  4  7  1  0
  7  8  1  0
  8  9  1  0
  9 10  1  0
 10 11  1  0
  6  1  1  0
 11  4  1  0
  1 12  1  0
  1 13  1  0
  2 14  1  0
  2 15  1  0
  5 16  1  0
  5 17  1  0
  6 18  1  0
  7 19  1  0
  7 20  1  0
  8 21  1  0
  9 22  1  0
  9 23  1  0
 10 24  1  0
 10 25  1  0
M  END
$$$$
