
     RDKit          3D

 20 20  0  0  0  0  0  0  0  0999 V2000
    2.7402    1.0142   -0.0430 O   0  0  0  0  0  0  0  0  0  0  0  0
    2.1143    0.0865    0.7660 C   0  0  0  0  0  0  0  0  0  0  0  0
    1.1445   -0.7864    0.0357 C   0  0  0  0  0  0  0  0  0  0  0  0
    0.0560    0.0523   -0.5959 C   0  0  0  0  0  0  0  0  0  0  0  0
   -0.9001   -0.7433   -1.3092 N   0  0  0  0  0  0  0  0  0  0  0  0
   -2.1835   -0.5733   -0.6721 C   0  0  0  0  0  0  0  0  0  0  0  0
   -2.0426    0.8442   -0.1016 C   0  0  0  0  0  0  0  0  0  0  0  0
   -0.6753    0.8123    0.3893 N   0  0  0  0  0  0  0  0  0  0  0  0
    3.5405    0.5577   -0.4462 H   0  0  0  0  0  0  0  0  0  0  0  0
    2.8757   -0.5949    1.2365 H   0  0  0  0  0  0  0  0  0  0  0  0
    1.6191    0.6467    1.5912 H   0  0  0  0  0  0  0  0  0  0  0  0
    0.7324   -1.5144    0.7734 H   0  0  0  0  0  0  0  0  0  0  0  0
    1.6691   -1.3433   -0.7386 H   0  0  0  0  0  0  0  0  0  0  0  0
    0.5354    0.7469   -1.3003 H   0  0  0  0  0  0  0  0  0  0  0  0
   -0.6258   -1.7198   -1.4655 H   0  0  0  0  0  0  0  0  0  0  0  0
   -3.0346   -0.6156   -1.3838 H   0  0  0  0  0  0  0  0  0  0  0  0
   -2.3492   -1.2326    0.1799 H   0  0  0  0  0  0  0  0  0  0  0  0
   -2.7764    1.0305    0.6887 H   0  0  0  0  0  0  0  0  0  0  0  0
   -2.0873    1.5481   -0.9387 H   0  0  0  0  0  0  0  0  0  0  0  0
   -0.3524    1.7844    0.4661 H   0  0  0  0  0  0  0  0  0  0  0  0
  1  2  1  0
  2  3  1  0
  3  4  1  0
  4  5  1  0
  5  6  1  0
  6  7  1  0
  7  8  1  0
  8  4  1  0
  1  9  1  0
  2 10  1  0
  2 11  1  0
  3 12  1  0
  3 13  1  0
  4 14  1  0
  5 15  1  0
  6 16  1  0
  6 17  1  0
  7 18  1  0
  7 19  1  0
  8 20  1  0
M  END
$$$$

     RDKit          3D

 20 20  0  0  0  0  0  0  0  0999 V2000
    3.4180    0.0431    0.1688 O   0  0  0  0  0  0  0  0  0  0  0  0
    2.1727    0.4486   -0.2640 C   0  0  0  0  0  0  0  0  0  0  0  0
    1.1743   -0.7068   -0.1700 C   0  0  0  0  0  0  0  0  0  0  0  0
   -0.1398   -0.1619   -0.6616 C   0  0  0  0  0  0  0  0  0  0  0  0
   -0.5221    0.9571    0.2024 N   0  0  0  0  0  0  0  0  0  0  0  0
   -1.9816    0.9264   -0.0040 C   0  0  0  0  0  0  0  0  0  0  0  0
   -2.2169   -0.5548    0.3114 C   0  0  0  0  0  0  0  0  0  0  0  0
   -1.1880   -1.1440   -0.5341 N   0  0  0  0  0  0  0  0  0  0  0  0
    3.9459    0.8182    0.4187 H   0  0  0  0  0  0  0  0  0  0  0  0
    2.2052    0.8046   -1.3136 H   0  0  0  0  0  0  0  0  0  0  0  0
    1.7450    1.2471    0.4053 H   0  0  0  0  0  0  0  0  0  0  0  0
    1.0254   -0.9542    0.9161 H   0  0  0  0  0  0  0  0  0  0  0  0
    1.4861   -1.5742   -0.7647 H   0  0  0  0  0  0  0  0  0  0  0  0
   -0.0754    0.2623   -1.6850 H   0  0  0  0  0  0  0  0  0  0  0  0
   -0.3949    0.5963    1.1860 H   0  0  0  0  0  0  0  0  0  0  0  0
   -2.1351    1.0914   -1.0748 H   0  0  0  0  0  0  0  0  0  0  0  0
   -2.5124    1.5909    0.6677 H   0  0  0  0  0  0  0  0  0  0  0  0
   -3.2246   -0.8600    0.0561 H   0  0  0  0  0  0  0  0  0  0  0  0
   -1.9161   -0.7677    1.3566 H   0  0  0  0  0  0  0  0  0  0  0  0
   -0.8658   -2.0627   -0.2030 H   0  0  0  0  0  0  0  0  0  0  0  0
  1  2  1  0
  2  3  1  0
  3  4  1  0
  4  5  1  0
  5  6  1  0
  6  7  1  0
  7  8  1  0
  8  4  1  0
  1  9  1  0
  2 10  1  0
  2 11  1  0
  3 12  1  0
  3 13  1  0
  4 14  1  0
  5 15  1  0
  6 16  1  0
  6 17  1  0
  7 18  1  0
  7 19  1  0
  8 20  1  0
M  END
$$$$

     RDKit          3D

 20 20  0  0  0  0  0  0  0  0999 V2000
   -2.5895    0.9874    1.0209 O   0  0  0  0  0  0  0  0  0  0  0  0
   -2.2946   -0.2941    0.5416 C   0  0  0  0  0  0  0  0  0  0  0  0
   -1.3536   -0.2626   -0.6133 C   0  0  0  0  0  0  0  0  0  0  0  0
   -0.0283    0.3779   -0.2635 C   0  0  0  0  0  0  0  0  0  0  0  0
    0.8428    0.3807   -1.4201 N   0  0  0  0  0  0  0  0  0  0  0  0
    2.1557    0.0225   -0.9688 C   0  0  0  0  0  0  0  0  0  0  0  0
    2.0541    0.1531    0.5567 C   0  0  0  0  0  0  0  0  0  0  0  0
    0.6818   -0.3370    0.7540 N   0  0  0  0  0  0  0  0  0  0  0  0
   -2.6190    1.5782    0.2256 H   0  0  0  0  0  0  0  0  0  0  0  0
   -3.2453   -0.7476    0.1980 H   0  0  0  0  0  0  0  0  0  0  0  0
   -1.9235   -0.9555    1.3723 H   0  0  0  0  0  0  0  0  0  0  0  0
   -1.1388   -1.2985   -0.9178 H   0  0  0  0  0  0  0  0  0  0  0  0
   -1.8139    0.2575   -1.4488 H   0  0  0  0  0  0  0  0  0  0  0  0
   -0.1516    1.4287    0.0655 H   0  0  0  0  0  0  0  0  0  0  0  0
    0.4735   -0.2646   -2.1341 H   0  0  0  0  0  0  0  0  0  0  0  0
    2.9674    0.6353   -1.3723 H   0  0  0  0  0  0  0  0  0  0  0  0
    2.3603   -1.0702   -1.1504 H   0  0  0  0  0  0  0  0  0  0  0  0
    2.1084    1.2318    0.8382 H   0  0  0  0  0  0  0  0  0  0  0  0
    2.7945   -0.4707    1.0642 H   0  0  0  0  0  0  0  0  0  0  0  0
    0.7195   -1.3524    0.4615 H   0  0  0  0  0  0  0  0  0  0  0  0
  1  2  1  0
  2  3  1  0
  3  4  1  0
  4  5  1  0
  5  6  1  0
  6  7  1  0
  7  8  1  0
  8  4  1  0
  1  9  1  0
  2 10  1  0
  2 11  1  0
  3 12  1  0
  3 13  1  0
  4 14  1  0
  5 15  1  0
  6 16  1  0
  6 17  1  0
  7 18  1  0
  7 19  1  0
  8 20  1  0
M  END
$$$$

     RDKit          3D

 20 20  0  0  0  0  0  0  0  0999 V2000
    2.3497    1.0828    0.8463 O   0  0  0  0  0  0  0  0  0  0  0  0
    2.4538   -0.0451    0.0698 C   0  0  0  0  0  0  0  0  0  0  0  0
    1.2452   -0.2908   -0.8056 C   0  0  0  0  0  0  0  0  0  0  0  0
   -0.0177   -0.4617   -0.0068 C   0  0  0  0  0  0  0  0  0  0  0  0
   -1.0976   -0.6896   -0.9574 N   0  0  0  0  0  0  0  0  0  0  0  0
   -2.2591   -0.0261   -0.4581 C   0  0  0  0  0  0  0  0  0  0  0  0
   -1.8438    0.4904    0.8903 C   0  0  0  0  0  0  0  0  0  0  0  0
   -0.4209    0.7556    0.6655 N   0  0  0  0  0  0  0  0  0  0  0  0
    2.7348    0.9368    1.7678 H   0  0  0  0  0  0  0  0  0  0  0  0
    2.6092   -0.9737    0.6651 H   0  0  0  0  0  0  0  0  0  0  0  0
    3.3121    0.1242   -0.6371 H   0  0  0  0  0  0  0  0  0  0  0  0
    1.0807    0.5230   -1.5400 H   0  0  0  0  0  0  0  0  0  0  0  0
    1.4266   -1.2489   -1.3361 H   0  0  0  0  0  0  0  0  0  0  0  0
    0.0289   -1.2745    0.7229 H   0  0  0  0  0  0  0  0  0  0  0  0
   -1.1887   -1.7073   -1.0921 H   0  0  0  0  0  0  0  0  0  0  0  0
   -3.1594   -0.6699   -0.4189 H   0  0  0  0  0  0  0  0  0  0  0  0
   -2.5082    0.8105   -1.1585 H   0  0  0  0  0  0  0  0  0  0  0  0
   -1.9615   -0.3035    1.6449 H   0  0  0  0  0  0  0  0  0  0  0  0
   -2.3807    1.4206    1.1833 H   0  0  0  0  0  0  0  0  0  0  0  0
   -0.4034    1.5472   -0.0454 H   0  0  0  0  0  0  0  0  0  0  0  0
  1  2  1  0
  2  3  1  0
  3  4  1  0
  4  5  1  0
  5  6  1  0
  6  7  1  0
  7  8  1  0
  8  4  1  0
  1  9  1  0
  2 10  1  0
  2 11  1  0
  3 12  1  0
  3 13  1  0
  4 14  1  0
  5 15  1  0
  6 16  1  0
  6 17  1  0
  7 18  1  0
  7 19  1  0
  8 20  1  0
M  END
$$$$

     RDKit          3D

 20 20  0  0  0  0  0  0  0  0999 V2000
    3.2925   -0.3928    0.5127 O   0  0  0  0  0  0  0  0  0  0  0  0
    2.2519    0.1846   -0.1897 C   0  0  0  0  0  0  0  0  0  0  0  0
    0.9939    0.1167    0.6366 C   0  0  0  0  0  0  0  0  0  0  0  0
   -0.1629    0.7581   -0.1435 C   0  0  0  0  0  0  0  0  0  0  0  0
   -0.3761    0.0616   -1.3833 N   0  0  0  0  0  0  0  0  0  0  0  0
   -1.7984   -0.2623   -1.4317 C   0  0  0  0  0  0  0  0  0  0  0  0
   -2.1004   -0.4642    0.0400 C   0  0  0  0  0  0  0  0  0  0  0  0
   -1.3930    0.6687    0.6173 N   0  0  0  0  0  0  0  0  0  0  0  0
    3.6225   -1.2269    0.0924 H   0  0  0  0  0  0  0  0  0  0  0  0
    2.1412   -0.3654   -1.1576 H   0  0  0  0  0  0  0  0  0  0  0  0
    2.5135    1.2278   -0.4636 H   0  0  0  0  0  0  0  0  0  0  0  0
    0.7913   -0.9640    0.8260 H   0  0  0  0  0  0  0  0  0  0  0  0
    1.1698    0.6572    1.5753 H   0  0  0  0  0  0  0  0  0  0  0  0
    0.1333    1.7859   -0.3693 H   0  0  0  0  0  0  0  0  0  0  0  0
    0.1429   -0.8589   -1.3619 H   0  0  0  0  0  0  0  0  0  0  0  0
   -2.3842    0.5700   -1.8248 H   0  0  0  0  0  0  0  0  0  0  0  0
   -1.9532   -1.2148   -1.9704 H   0  0  0  0  0  0  0  0  0  0  0  0
   -3.1949   -0.3656    0.1945 H   0  0  0  0  0  0  0  0  0  0  0  0
   -1.7219   -1.4321    0.3930 H   0  0  0  0  0  0  0  0  0  0  0  0
   -1.9679    1.5163    0.3449 H   0  0  0  0  0  0  0  0  0  0  0  0
  1  2  1  0
  2  3  1  0
  3  4  1  0
  4  5  1  0
  5  6  1  0
  6  7  1  0
  7  8  1  0
  8  4  1  0
  1  9  1  0
  2 10  1  0
  2 11  1  0
  3 12  1  0
  3 13  1  0
  4 14  1  0
  5 15  1  0
  6 16  1  0
  6 17  1  0
  7 18  1  0
  7 19  1  0
  8 20  1  0
M  END
$$$$

     RDKit          3D

 20 20  0  0  0  0  0  0  0  0999 V2000
    3.4138   -0.1901   -0.5635 O   0  0  0  0  0  0  0  0  0  0  0  0
    2.3096   -0.1537    0.2872 C   0  0  0  0  0  0  0  0  0  0  0  0
    1.1677    0.4473   -0.4839 C   0  0  0  0  0  0  0  0  0  0  0  0
   -0.0996    0.5450    0.3285 C   0  0  0  0  0  0  0  0  0  0  0  0
   -0.5696   -0.7231    0.7919 N   0  0  0  0  0  0  0  0  0  0  0  0
   -1.9229   -0.9008    0.3161 C   0  0  0  0  0  0  0  0  0  0  0  0
   -2.3557    0.5216    0.0243 C   0  0  0  0  0  0  0  0  0  0  0  0
   -1.1304    1.0683   -0.5709 N   0  0  0  0  0  0  0  0  0  0  0  0
    3.1727   -0.3769   -1.5017 H   0  0  0  0  0  0  0  0  0  0  0  0
    2.6041    0.5358    1.1319 H   0  0  0  0  0  0  0  0  0  0  0  0
    2.1224   -1.1559    0.6679 H   0  0  0  0  0  0  0  0  0  0  0  0
    0.9943   -0.1484   -1.3799 H   0  0  0  0  0  0  0  0  0  0  0  0
    1.4582    1.4772   -0.7762 H   0  0  0  0  0  0  0  0  0  0  0  0
    0.0202    1.2173    1.1998 H   0  0  0  0  0  0  0  0  0  0  0  0
    0.0100   -1.5378    0.4851 H   0  0  0  0  0  0  0  0  0  0  0  0
   -1.9125   -1.4261   -0.6739 H   0  0  0  0  0  0  0  0  0  0  0  0
   -2.5812   -1.4043    1.0416 H   0  0  0  0  0  0  0  0  0  0  0  0
   -2.5822    1.0624    0.9666 H   0  0  0  0  0  0  0  0  0  0  0  0
   -3.1347    0.5969   -0.7361 H   0  0  0  0  0  0  0  0  0  0  0  0
   -0.9844    0.5451   -1.4782 H   0  0  0  0  0  0  0  0  0  0  0  0
  1  2  1  0
  2  3  1  0
  3  4  1  0
  4  5  1  0
  5  6  1  0
  6  7  1  0
  7  8  1  0
  8  4  1  0
  1  9  1  0
  2 10  1  0
  2 11  1  0
  3 12  1  0
  3 13  1  0
  4 14  1  0
  5 15  1  0
  6 16  1  0
  6 17  1  0
  7 18  1  0
  7 19  1  0
  8 20  1  0
M  END
$$$$

     RDKit          3D

 20 20  0  0  0  0  0  0  0  0999 V2000
    2.6709   -0.0376   -1.1544 O   0  0  0  0  0  0  0  0  0  0  0  0
    2.2213   -0.8899   -0.1387 C   0  0  0  0  0  0  0  0  0  0  0  0
    1.2379   -0.1397    0.7513 C   0  0  0  0  0  0  0  0  0  0  0  0
    0.0783    0.3059   -0.1158 C   0  0  0  0  0  0  0  0  0  0  0  0
   -0.8824    1.0298    0.7131 N   0  0  0  0  0  0  0  0  0  0  0  0
   -2.1896    0.6113    0.3092 C   0  0  0  0  0  0  0  0  0  0  0  0
   -1.9339   -0.1615   -0.9689 C   0  0  0  0  0  0  0  0  0  0  0  0
   -0.6827   -0.8300   -0.6050 N   0  0  0  0  0  0  0  0  0  0  0  0
    3.1425    0.7220   -0.6908 H   0  0  0  0  0  0  0  0  0  0  0  0
    3.0728   -1.2543    0.4618 H   0  0  0  0  0  0  0  0  0  0  0  0
    1.7177   -1.7585   -0.6114 H   0  0  0  0  0  0  0  0  0  0  0  0
    1.7769    0.7343    1.1607 H   0  0  0  0  0  0  0  0  0  0  0  0
    0.9156   -0.7685    1.5804 H   0  0  0  0  0  0  0  0  0  0  0  0
    0.4029    0.8764   -0.9926 H   0  0  0  0  0  0  0  0  0  0  0  0
   -0.7199    2.0456    0.7004 H   0  0  0  0  0  0  0  0  0  0  0  0
   -2.8893    1.4520    0.1255 H   0  0  0  0  0  0  0  0  0  0  0  0
   -2.5846   -0.1117    1.0523 H   0  0  0  0  0  0  0  0  0  0  0  0
   -2.7294   -0.8877   -1.1995 H   0  0  0  0  0  0  0  0  0  0  0  0
   -1.6838    0.5049   -1.8225 H   0  0  0  0  0  0  0  0  0  0  0  0
   -0.9413   -1.4428    0.2226 H   0  0  0  0  0  0  0  0  0  0  0  0
  1  2  1  0
  2  3  1  0
  3  4  1  0
  4  5  1  0
  5  6  1  0
  6  7  1  0
  7  8  1  0
  8  4  1  0
  1  9  1  0
  2 10  1  0
  2 11  1  0
  3 12  1  0
  3 13  1  0
  4 14  1  0
  5 15  1  0
  6 16  1  0
  6 17  1  0
  7 18  1  0
  7 19  1  0
  8 20  1  0
M  END
$$$$

     RDKit          3D

 20 20  0  0  0  0  0  0  0  0999 V2000
    3.1421    0.9027   -0.2957 O   0  0  0  0  0  0  0  0  0  0  0  0
    1.7394    0.7821   -0.3370 C   0  0  0  0  0  0  0  0  0  0  0  0
    1.3907   -0.4647    0.3990 C   0  0  0  0  0  0  0  0  0  0  0  0
   -0.0802   -0.7536    0.4552 C   0  0  0  0  0  0  0  0  0  0  0  0
   -0.8460    0.2761    1.1004 N   0  0  0  0  0  0  0  0  0  0  0  0
   -1.6501    0.9098    0.0625 C   0  0  0  0  0  0  0  0  0  0  0  0
   -1.8556   -0.2052   -0.9232 C   0  0  0  0  0  0  0  0  0  0  0  0
   -0.6516   -1.0052   -0.8324 N   0  0  0  0  0  0  0  0  0  0  0  0
    3.5771    0.0099   -0.3100 H   0  0  0  0  0  0  0  0  0  0  0  0
    1.3844    0.8361   -1.3619 H   0  0  0  0  0  0  0  0  0  0  0  0
    1.3344    1.6959    0.1906 H   0  0  0  0  0  0  0  0  0  0  0  0
    1.8964   -1.3145   -0.0773 H   0  0  0  0  0  0  0  0  0  0  0  0
    1.7458   -0.3686    1.4436 H   0  0  0  0  0  0  0  0  0  0  0  0
   -0.2014   -1.6852    1.0679 H   0  0  0  0  0  0  0  0  0  0  0  0
   -1.4464   -0.0721    1.8716 H   0  0  0  0  0  0  0  0  0  0  0  0
   -1.1607    1.7923   -0.3710 H   0  0  0  0  0  0  0  0  0  0  0  0
   -2.6082    1.2109    0.5076 H   0  0  0  0  0  0  0  0  0  0  0  0
   -2.7386   -0.7729   -0.6278 H   0  0  0  0  0  0  0  0  0  0  0  0
   -1.9974    0.2401   -1.9177 H   0  0  0  0  0  0  0  0  0  0  0  0
   -0.9742   -2.0140   -0.9411 H   0  0  0  0  0  0  0  0  0  0  0  0
  1  2  1  0
  2  3  1  0
  3  4  1  0
  4  5  1  0
  5  6  1  0
  6  7  1  0
  7  8  1  0
  8  4  1  0
  1  9  1  0
  2 10  1  0
  2 11  1  0
  3 12  1  0
  3 13  1  0
  4 14  1  0
  5 15  1  0
  6 16  1  0
  6 17  1  0
  7 18  1  0
  7 19  1  0
  8 20  1  0
M  END
$$$$
