
     RDKit          3D

 24 24  0  0  0  0  0  0  0  0999 V2000
    2.1825    1.6806   -0.8154 C   0  0  0  0  0  0  0  0  0  0  0  0
    1.0452    1.1682   -0.2189 O   0  0  0  0  0  0  0  0  0  0  0  0
    0.6980   -0.0851   -0.6199 C   0  0  2  0  0  0  0  0  0  0  0  0
   -0.4948   -0.1954   -1.3198 O   0  0  0  0  0  0  0  0  0  0  0  0
   -1.5012    0.3085   -0.5006 C   0  0  2  0  0  0  0  0  0  0  0  0
   -1.3773    1.7668   -0.1930 C   0  0  0  0  0  0  0  0  0  0  0  0
   -1.5931   -0.5434    0.6984 C   0  0  0  0  0  0  0  0  0  0  0  0
   -2.4787   -0.3568    1.4994 O   0  0  0  0  0  0  0  0  0  0  0  0
   -0.5894   -1.6120    0.8883 C   0  0  2  0  0  0  0  0  0  0  0  0
   -0.5737   -1.9463    2.2533 O   0  0  0  0  0  0  0  0  0  0  0  0
    0.8061   -1.1358    0.4614 C   0  0  1  0  0  0  0  0  0  0  0  0
    1.4873   -2.2688    0.0295 O   0  0  0  0  0  0  0  0  0  0  0  0
    3.0894    1.0917   -0.6415 H   0  0  0  0  0  0  0  0  0  0  0  0
    2.3479    2.6988   -0.3637 H   0  0  0  0  0  0  0  0  0  0  0  0
    1.9831    1.8669   -1.8952 H   0  0  0  0  0  0  0  0  0  0  0  0
    1.4866   -0.3834   -1.3810 H   0  0  0  0  0  0  0  0  0  0  0  0
   -2.4890    0.1664   -1.0355 H   0  0  0  0  0  0  0  0  0  0  0  0
   -0.8448    2.2580   -1.0287 H   0  0  0  0  0  0  0  0  0  0  0  0
   -0.8838    1.9744    0.7801 H   0  0  0  0  0  0  0  0  0  0  0  0
   -2.4089    2.2017   -0.1758 H   0  0  0  0  0  0  0  0  0  0  0  0
   -0.8366   -2.5344    0.3263 H   0  0  0  0  0  0  0  0  0  0  0  0
   -1.2992   -2.5496    2.4881 H   0  0  0  0  0  0  0  0  0  0  0  0
    1.3188   -0.7645    1.3662 H   0  0  0  0  0  0  0  0  0  0  0  0
    0.9255   -2.8066   -0.6023 H   0  0  0  0  0  0  0  0  0  0  0  0
  1  2  1  0
  2  3  1  0
  3  4  1  0
  4  5  1  0
  5  6  1  0
  5  7  1  0
  7  8  2  0
  7  9  1  0
  9 10  1  0
  9 11  1  0
 11 12  1  0
 11  3  1  0
  1 13  1  0
  1 14  1  0
  1 15  1  0
  3 16  1  6
  5 17  1  6
  6 18  1  0
  6 19  1  0
  6 20  1  0
  9 21  1  6
 10 22  1  0
 11 23  1  1
 12 24  1  0
M  END
$$$$

     RDKit          3D

 24 24  0  0  0  0  0  0  0  0999 V2000
    3.0859   -0.2063   -0.3077 C   0  0  0  0  0  0  0  0  0  0  0  0
    2.0366   -0.0221   -1.2011 O   0  0  0  0  0  0  0  0  0  0  0  0
    0.8597   -0.0138   -0.5046 C   0  0  2  0  0  0  0  0  0  0  0  0
    0.0187   -1.0863   -0.8779 O   0  0  0  0  0  0  0  0  0  0  0  0
   -0.8904   -1.2336    0.1815 C   0  0  2  0  0  0  0  0  0  0  0  0
   -1.7015   -2.4903    0.0548 C   0  0  0  0  0  0  0  0  0  0  0  0
   -1.6994   -0.0099    0.2358 C   0  0  0  0  0  0  0  0  0  0  0  0
   -2.8899   -0.0480    0.1491 O   0  0  0  0  0  0  0  0  0  0  0  0
   -0.9992    1.2685    0.4007 C   0  0  2  0  0  0  0  0  0  0  0  0
   -1.8252    2.3765    0.3220 O   0  0  0  0  0  0  0  0  0  0  0  0
    0.1153    1.3145   -0.6407 C   0  0  1  0  0  0  0  0  0  0  0  0
    1.0017    2.3094   -0.2586 O   0  0  0  0  0  0  0  0  0  0  0  0
    2.9331   -1.1856    0.2127 H   0  0  0  0  0  0  0  0  0  0  0  0
    3.1274    0.6180    0.4172 H   0  0  0  0  0  0  0  0  0  0  0  0
    4.0463   -0.2501   -0.8493 H   0  0  0  0  0  0  0  0  0  0  0  0
    1.0477   -0.1543    0.5766 H   0  0  0  0  0  0  0  0  0  0  0  0
   -0.2420   -1.2951    1.1030 H   0  0  0  0  0  0  0  0  0  0  0  0
   -1.3043   -3.2494    0.7595 H   0  0  0  0  0  0  0  0  0  0  0  0
   -1.7083   -2.9031   -0.9823 H   0  0  0  0  0  0  0  0  0  0  0  0
   -2.7404   -2.2576    0.3858 H   0  0  0  0  0  0  0  0  0  0  0  0
   -0.4715    1.2375    1.3927 H   0  0  0  0  0  0  0  0  0  0  0  0
   -2.0058    2.6690    1.2564 H   0  0  0  0  0  0  0  0  0  0  0  0
   -0.2643    1.4676   -1.6572 H   0  0  0  0  0  0  0  0  0  0  0  0
    0.4698    3.1446   -0.1684 H   0  0  0  0  0  0  0  0  0  0  0  0
  1  2  1  0
  2  3  1  0
  3  4  1  0
  4  5  1  0
  5  6  1  0
  5  7  1  0
  7  8  2  0
  7  9  1  0
  9 10  1  0
  9 11  1  0
 11 12  1  0
 11  3  1  0
  1 13  1  0
  1 14  1  0
  1 15  1  0
  3 16  1  1
  5 17  1  1
  6 18  1  0
  6 19  1  0
  6 20  1  0
  9 21  1  1
 10 22  1  0
 11 23  1  6
 12 24  1  0
M  END
$$$$

     RDKit          3D

 24 24  0  0  0  0  0  0  0  0999 V2000
   -0.7456    2.8273    0.0921 C   0  0  0  0  0  0  0  0  0  0  0  0
   -0.1713    1.5642   -0.1338 O   0  0  0  0  0  0  0  0  0  0  0  0
   -0.5710    0.6448    0.8329 C   0  0  2  0  0  0  0  0  0  0  0  0
    0.5032    0.2209    1.5862 O   0  0  0  0  0  0  0  0  0  0  0  0
    1.4224   -0.5423    0.9017 C   0  0  2  0  0  0  0  0  0  0  0  0
    2.5166    0.2809    0.2611 C   0  0  0  0  0  0  0  0  0  0  0  0
    0.8410   -1.4114   -0.1229 C   0  0  0  0  0  0  0  0  0  0  0  0
    1.5668   -1.9174   -0.9571 O   0  0  0  0  0  0  0  0  0  0  0  0
   -0.5969   -1.6712   -0.1471 C   0  0  2  0  0  0  0  0  0  0  0  0
   -0.9564   -2.0794   -1.4503 O   0  0  0  0  0  0  0  0  0  0  0  0
   -1.3808   -0.4750    0.2390 C   0  0  1  0  0  0  0  0  0  0  0  0
   -2.4267   -0.8729    1.0714 O   0  0  0  0  0  0  0  0  0  0  0  0
   -1.8501    2.7955    0.0704 H   0  0  0  0  0  0  0  0  0  0  0  0
   -0.4033    3.1382    1.1215 H   0  0  0  0  0  0  0  0  0  0  0  0
   -0.3436    3.5812   -0.6035 H   0  0  0  0  0  0  0  0  0  0  0  0
   -1.2484    1.1909    1.5242 H   0  0  0  0  0  0  0  0  0  0  0  0
    1.9248   -1.1987    1.6580 H   0  0  0  0  0  0  0  0  0  0  0  0
    3.4545   -0.3264    0.2364 H   0  0  0  0  0  0  0  0  0  0  0  0
    2.2424    0.4599   -0.8042 H   0  0  0  0  0  0  0  0  0  0  0  0
    2.7424    1.2084    0.8060 H   0  0  0  0  0  0  0  0  0  0  0  0
   -0.8326   -2.5291    0.5218 H   0  0  0  0  0  0  0  0  0  0  0  0
   -1.0923   -3.0507   -1.5079 H   0  0  0  0  0  0  0  0  0  0  0  0
   -1.8803   -0.0456   -0.6772 H   0  0  0  0  0  0  0  0  0  0  0  0
   -2.7148   -1.7921    0.8747 H   0  0  0  0  0  0  0  0  0  0  0  0
  1  2  1  0
  2  3  1  0
  3  4  1  0
  4  5  1  0
  5  6  1  0
  5  7  1  0
  7  8  2  0
  7  9  1  0
  9 10  1  0
  9 11  1  0
 11 12  1  0
 11  3  1  0
  1 13  1  0
  1 14  1  0
  1 15  1  0
  3 16  1  1
  5 17  1  1
  6 18  1  0
  6 19  1  0
  6 20  1  0
  9 21  1  1
 10 22  1  0
 11 23  1  6
 12 24  1  0
M  END
$$$$

     RDKit          3D

 24 24  0  0  0  0  0  0  0  0999 V2000
    2.9346   -1.0744   -0.4479 C   0  0  0  0  0  0  0  0  0  0  0  0
    1.9675   -0.2491   -1.0395 O   0  0  0  0  0  0  0  0  0  0  0  0
    0.8230   -0.1789   -0.2637 C   0  0  2  0  0  0  0  0  0  0  0  0
   -0.2321   -0.7252   -0.9864 O   0  0  0  0  0  0  0  0  0  0  0  0
   -1.3466   -0.9133   -0.1441 C   0  0  2  0  0  0  0  0  0  0  0  0
   -2.4891   -1.4382   -0.9669 C   0  0  0  0  0  0  0  0  0  0  0  0
   -1.7364    0.3969    0.4751 C   0  0  0  0  0  0  0  0  0  0  0  0
   -2.8536    0.8537    0.4134 O   0  0  0  0  0  0  0  0  0  0  0  0
   -0.6211    1.1159    1.1911 C   0  0  2  0  0  0  0  0  0  0  0  0
   -1.0510    2.3239    1.6682 O   0  0  0  0  0  0  0  0  0  0  0  0
    0.4869    1.2393    0.1559 C   0  0  1  0  0  0  0  0  0  0  0  0
    1.5791    1.9279    0.6117 O   0  0  0  0  0  0  0  0  0  0  0  0
    3.8169   -1.0887   -1.1110 H   0  0  0  0  0  0  0  0  0  0  0  0
    3.1674   -0.6380    0.5451 H   0  0  0  0  0  0  0  0  0  0  0  0
    2.5219   -2.0908   -0.2630 H   0  0  0  0  0  0  0  0  0  0  0  0
    0.9617   -0.7972    0.6350 H   0  0  0  0  0  0  0  0  0  0  0  0
   -1.0863   -1.5795    0.7048 H   0  0  0  0  0  0  0  0  0  0  0  0
   -2.4507   -0.9770   -1.9739 H   0  0  0  0  0  0  0  0  0  0  0  0
   -2.2762   -2.5337   -1.1377 H   0  0  0  0  0  0  0  0  0  0  0  0
   -3.4600   -1.2666   -0.4936 H   0  0  0  0  0  0  0  0  0  0  0  0
   -0.2064    0.4512    1.9931 H   0  0  0  0  0  0  0  0  0  0  0  0
   -0.5821    3.1094    1.3481 H   0  0  0  0  0  0  0  0  0  0  0  0
    0.1017    1.7764   -0.7545 H   0  0  0  0  0  0  0  0  0  0  0  0
    2.0308    2.3560   -0.1593 H   0  0  0  0  0  0  0  0  0  0  0  0
  1  2  1  0
  2  3  1  0
  3  4  1  0
  4  5  1  0
  5  6  1  0
  5  7  1  0
  7  8  2  0
  7  9  1  0
  9 10  1  0
  9 11  1  0
 11 12  1  0
 11  3  1  0
  1 13  1  0
  1 14  1  0
  1 15  1  0
  3 16  1  1
  5 17  1  1
  6 18  1  0
  6 19  1  0
  6 20  1  0
  9 21  1  1
 10 22  1  0
 11 23  1  6
 12 24  1  0
M  END
$$$$

     RDKit          3D

 24 24  0  0  0  0  0  0  0  0999 V2000
    2.4767    1.9176    0.0043 C   0  0  0  0  0  0  0  0  0  0  0  0
    1.4977    1.1439    0.6184 O   0  0  0  0  0  0  0  0  0  0  0  0
    0.7024    0.4771   -0.3417 C   0  0  2  0  0  0  0  0  0  0  0  0
   -0.5565    0.9751   -0.2152 O   0  0  0  0  0  0  0  0  0  0  0  0
   -1.5840    0.1075   -0.4311 C   0  0  2  0  0  0  0  0  0  0  0  0
   -2.8891    0.8723   -0.1736 C   0  0  0  0  0  0  0  0  0  0  0  0
   -1.4604   -1.0256    0.5174 C   0  0  0  0  0  0  0  0  0  0  0  0
   -2.4541   -1.4665    1.0564 O   0  0  0  0  0  0  0  0  0  0  0  0
   -0.1335   -1.6034    0.7949 C   0  0  2  0  0  0  0  0  0  0  0  0
    0.2657   -1.4031    2.1058 O   0  0  0  0  0  0  0  0  0  0  0  0
    0.8417   -0.9961   -0.1989 C   0  0  1  0  0  0  0  0  0  0  0  0
    0.6826   -1.6412   -1.4114 O   0  0  0  0  0  0  0  0  0  0  0  0
    3.0498    2.4014    0.8221 H   0  0  0  0  0  0  0  0  0  0  0  0
    2.0762    2.7104   -0.6399 H   0  0  0  0  0  0  0  0  0  0  0  0
    3.2184    1.2713   -0.5406 H   0  0  0  0  0  0  0  0  0  0  0  0
    1.0687    0.7456   -1.3761 H   0  0  0  0  0  0  0  0  0  0  0  0
   -1.6025   -0.2903   -1.4743 H   0  0  0  0  0  0  0  0  0  0  0  0
   -3.3183    0.5682    0.8032 H   0  0  0  0  0  0  0  0  0  0  0  0
   -2.7093    1.9667   -0.1797 H   0  0  0  0  0  0  0  0  0  0  0  0
   -3.6179    0.6774   -0.9871 H   0  0  0  0  0  0  0  0  0  0  0  0
   -0.1253   -2.7070    0.6109 H   0  0  0  0  0  0  0  0  0  0  0  0
    1.2450   -1.2638    2.1089 H   0  0  0  0  0  0  0  0  0  0  0  0
    1.8773   -1.2141    0.1630 H   0  0  0  0  0  0  0  0  0  0  0  0
    1.4486   -2.2234   -1.6358 H   0  0  0  0  0  0  0  0  0  0  0  0
  1  2  1  0
  2  3  1  0
  3  4  1  0
  4  5  1  0
  5  6  1  0
  5  7  1  0
  7  8  2  0
  7  9  1  0
  9 10  1  0
  9 11  1  0
 11 12  1  0
 11  3  1  0
  1 13  1  0
  1 14  1  0
  1 15  1  0
  3 16  1  6
  5 17  1  6
  6 18  1  0
  6 19  1  0
  6 20  1  0
  9 21  1  6
 10 22  1  0
 11 23  1  1
 12 24  1  0
M  END
$$$$

     RDKit          3D

 24 24  0  0  0  0  0  0  0  0999 V2000
    2.9483   -1.2612   -0.5084 C   0  0  0  0  0  0  0  0  0  0  0  0
    1.7244   -0.9035   -1.0678 O   0  0  0  0  0  0  0  0  0  0  0  0
    0.8328   -0.4333   -0.0867 C   0  0  2  0  0  0  0  0  0  0  0  0
   -0.2918   -1.2042   -0.1570 O   0  0  0  0  0  0  0  0  0  0  0  0
   -1.3895   -0.7395    0.5015 C   0  0  2  0  0  0  0  0  0  0  0  0
   -2.5983   -1.5393   -0.0057 C   0  0  0  0  0  0  0  0  0  0  0  0
   -1.6808    0.6997    0.2653 C   0  0  0  0  0  0  0  0  0  0  0  0
   -2.7760    1.1232   -0.0510 O   0  0  0  0  0  0  0  0  0  0  0  0
   -0.5032    1.6266    0.4471 C   0  0  2  0  0  0  0  0  0  0  0  0
   -0.7724    2.8934   -0.0050 O   0  0  0  0  0  0  0  0  0  0  0  0
    0.6027    1.0256   -0.4016 C   0  0  1  0  0  0  0  0  0  0  0  0
    1.7607    1.7278   -0.1185 O   0  0  0  0  0  0  0  0  0  0  0  0
    3.4258   -0.3840   -0.0026 H   0  0  0  0  0  0  0  0  0  0  0  0
    2.7898   -2.0999    0.1927 H   0  0  0  0  0  0  0  0  0  0  0  0
    3.6147   -1.5250   -1.3556 H   0  0  0  0  0  0  0  0  0  0  0  0
    1.3499   -0.4707    0.9032 H   0  0  0  0  0  0  0  0  0  0  0  0
   -1.3789   -0.8910    1.6012 H   0  0  0  0  0  0  0  0  0  0  0  0
   -2.6371   -1.4603   -1.1269 H   0  0  0  0  0  0  0  0  0  0  0  0
   -2.3999   -2.6106    0.2299 H   0  0  0  0  0  0  0  0  0  0  0  0
   -3.5401   -1.1666    0.4120 H   0  0  0  0  0  0  0  0  0  0  0  0
   -0.2257    1.5627    1.5061 H   0  0  0  0  0  0  0  0  0  0  0  0
   -1.6008    3.2732    0.3526 H   0  0  0  0  0  0  0  0  0  0  0  0
    0.3046    1.0859   -1.4646 H   0  0  0  0  0  0  0  0  0  0  0  0
    2.4409    1.6710   -0.8369 H   0  0  0  0  0  0  0  0  0  0  0  0
  1  2  1  0
  2  3  1  0
  3  4  1  0
  4  5  1  0
  5  6  1  0
  5  7  1  0
  7  8  2  0
  7  9  1  0
  9 10  1  0
  9 11  1  0
 11 12  1  0
 11  3  1  0
  1 13  1  0
  1 14  1  0
  1 15  1  0
  3 16  1  1
  5 17  1  1
  6 18  1  0
  6 19  1  0
  6 20  1  0
  9 21  1  1
 10 22  1  0
 11 23  1  6
 12 24  1  0
M  END
$$$$

     RDKit          3D

 24 24  0  0  0  0  0  0  0  0999 V2000
    3.2308   -0.4754   -0.0039 C   0  0  0  0  0  0  0  0  0  0  0  0
    2.1942   -0.0172   -0.8057 O   0  0  0  0  0  0  0  0  0  0  0  0
    0.9654   -0.0475   -0.1491 C   0  0  2  0  0  0  0  0  0  0  0  0
    0.0864   -0.9374   -0.7532 O   0  0  0  0  0  0  0  0  0  0  0  0
   -1.0078   -1.0729    0.0987 C   0  0  2  0  0  0  0  0  0  0  0  0
   -1.8087   -2.3148   -0.1875 C   0  0  0  0  0  0  0  0  0  0  0  0
   -1.7964    0.1675   -0.0564 C   0  0  0  0  0  0  0  0  0  0  0  0
   -2.9998    0.1093   -0.0566 O   0  0  0  0  0  0  0  0  0  0  0  0
   -1.0721    1.4310   -0.2052 C   0  0  2  0  0  0  0  0  0  0  0  0
   -1.3767    2.0665   -1.4289 O   0  0  0  0  0  0  0  0  0  0  0  0
    0.4021    1.3324    0.0109 C   0  0  1  0  0  0  0  0  0  0  0  0
    0.7874    1.8657    1.2523 O   0  0  0  0  0  0  0  0  0  0  0  0
    3.1211   -1.4988    0.3437 H   0  0  0  0  0  0  0  0  0  0  0  0
    4.1958   -0.3311   -0.5212 H   0  0  0  0  0  0  0  0  0  0  0  0
    3.2557    0.2193    0.8853 H   0  0  0  0  0  0  0  0  0  0  0  0
    1.1637   -0.4437    0.8694 H   0  0  0  0  0  0  0  0  0  0  0  0
   -0.6697   -1.1159    1.1536 H   0  0  0  0  0  0  0  0  0  0  0  0
   -1.0978   -3.1348   -0.4027 H   0  0  0  0  0  0  0  0  0  0  0  0
   -2.4712   -2.1861   -1.0664 H   0  0  0  0  0  0  0  0  0  0  0  0
   -2.4399   -2.5494    0.6814 H   0  0  0  0  0  0  0  0  0  0  0  0
   -1.4696    2.1326    0.5856 H   0  0  0  0  0  0  0  0  0  0  0  0
   -2.0944    2.7335   -1.3245 H   0  0  0  0  0  0  0  0  0  0  0  0
    0.8867    1.9944   -0.7470 H   0  0  0  0  0  0  0  0  0  0  0  0
    0.0147    2.0728    1.8273 H   0  0  0  0  0  0  0  0  0  0  0  0
  1  2  1  0
  2  3  1  0
  3  4  1  0
  4  5  1  0
  5  6  1  0
  5  7  1  0
  7  8  2  0
  7  9  1  0
  9 10  1  0
  9 11  1  0
 11 12  1  0
 11  3  1  0
  1 13  1  0
  1 14  1  0
  1 15  1  0
  3 16  1  1
  5 17  1  1
  6 18  1  0
  6 19  1  0
  6 20  1  0
  9 21  1  1
 10 22  1  0
 11 23  1  6
 12 24  1  0
M  END
$$$$

     RDKit          3D

 24 24  0  0  0  0  0  0  0  0999 V2000
   -2.6081    2.0339   -0.1928 C   0  0  0  0  0  0  0  0  0  0  0  0
   -1.7111    1.2940   -0.9547 O   0  0  0  0  0  0  0  0  0  0  0  0
   -0.7930    0.6035   -0.1632 C   0  0  2  0  0  0  0  0  0  0  0  0
    0.4489    1.0476   -0.5463 O   0  0  0  0  0  0  0  0  0  0  0  0
    1.5035    0.4523    0.1156 C   0  0  2  0  0  0  0  0  0  0  0  0
    2.7807    0.9761   -0.5093 C   0  0  0  0  0  0  0  0  0  0  0  0
    1.4653   -1.0101   -0.0838 C   0  0  0  0  0  0  0  0  0  0  0  0
    2.4903   -1.6168   -0.2337 O   0  0  0  0  0  0  0  0  0  0  0  0
    0.1807   -1.7087   -0.0974 C   0  0  2  0  0  0  0  0  0  0  0  0
    0.2728   -2.7355   -1.0650 O   0  0  0  0  0  0  0  0  0  0  0  0
   -1.0094   -0.8671   -0.3813 C   0  0  1  0  0  0  0  0  0  0  0  0
   -2.0620   -1.3175    0.4183 O   0  0  0  0  0  0  0  0  0  0  0  0
   -3.1992    1.4067    0.4942 H   0  0  0  0  0  0  0  0  0  0  0  0
   -3.3191    2.4962   -0.9078 H   0  0  0  0  0  0  0  0  0  0  0  0
   -2.1020    2.8791    0.3314 H   0  0  0  0  0  0  0  0  0  0  0  0
   -0.9993    0.8119    0.9083 H   0  0  0  0  0  0  0  0  0  0  0  0
    1.4895    0.6674    1.2168 H   0  0  0  0  0  0  0  0  0  0  0  0
    3.3050    1.6342    0.2090 H   0  0  0  0  0  0  0  0  0  0  0  0
    2.5776    1.6087   -1.4101 H   0  0  0  0  0  0  0  0  0  0  0  0
    3.4364    0.1488   -0.8732 H   0  0  0  0  0  0  0  0  0  0  0  0
    0.0958   -2.2648    0.8819 H   0  0  0  0  0  0  0  0  0  0  0  0
    0.9117   -3.4210   -0.7104 H   0  0  0  0  0  0  0  0  0  0  0  0
   -1.3478   -1.0237   -1.4461 H   0  0  0  0  0  0  0  0  0  0  0  0
   -1.8070   -2.0953    0.9778 H   0  0  0  0  0  0  0  0  0  0  0  0
  1  2  1  0
  2  3  1  0
  3  4  1  0
  4  5  1  0
  5  6  1  0
  5  7  1  0
  7  8  2  0
  7  9  1  0
  9 10  1  0
  9 11  1  0
 11 12  1  0
 11  3  1  0
  1 13  1  0
  1 14  1  0
  1 15  1  0
  3 16  1  1
  5 17  1  1
  6 18  1  0
  6 19  1  0
  6 20  1  0
  9 21  1  1
 10 22  1  0
 11 23  1  6
 12 24  1  0
M  END
$$$$
