
     RDKit          3D

 19 19  0  0  0  0  0  0  0  0999 V2000
    2.7632    0.5173   -0.2208 C   0  0  0  0  0  0  0  0  0  0  0  0
    1.6224   -0.4270   -0.1691 C   0  0  0  0  0  0  0  0  0  0  0  0
    1.7102   -1.4406   -0.8334 O   0  0  0  0  0  0  0  0  0  0  0  0
    0.3964   -0.2181    0.6307 C   0  0  2  0  0  0  0  0  0  0  0  0
   -0.4788   -1.3376    0.4313 N   0  0  0  0  0  0  0  0  0  0  0  0
   -1.8586   -1.2254    0.1162 C   0  0  0  0  0  0  0  0  0  0  0  0
   -2.6420   -2.1539    0.3583 O   0  0  0  0  0  0  0  0  0  0  0  0
   -2.3304    0.0133   -0.5009 C   0  0  0  0  0  0  0  0  0  0  0  0
   -1.5319    1.1744   -0.1593 N   0  0  0  0  0  0  0  0  0  0  0  0
   -0.2395    1.0794    0.4106 C   0  0  0  0  0  0  0  0  0  0  0  0
    0.3588    2.1315    0.7273 O   0  0  0  0  0  0  0  0  0  0  0  0
    3.6310    0.1552    0.3856 H   0  0  0  0  0  0  0  0  0  0  0  0
    2.5009    1.5563   -0.0052 H   0  0  0  0  0  0  0  0  0  0  0  0
    3.1491    0.5141   -1.2827 H   0  0  0  0  0  0  0  0  0  0  0  0
    0.7378   -0.3029    1.7082 H   0  0  0  0  0  0  0  0  0  0  0  0
   -0.0480   -2.2941    0.5300 H   0  0  0  0  0  0  0  0  0  0  0  0
   -3.3776    0.2025   -0.1533 H   0  0  0  0  0  0  0  0  0  0  0  0
   -2.4072   -0.0527   -1.6197 H   0  0  0  0  0  0  0  0  0  0  0  0
   -1.9558    2.1084   -0.3539 H   0  0  0  0  0  0  0  0  0  0  0  0
  1  2  1  0
  2  3  2  0
  2  4  1  0
  4  5  1  0
  5  6  1  0
  6  7  2  0
  6  8  1  0
  8  9  1  0
  9 10  1  0
 10 11  2  0
 10  4  1  0
  1 12  1  0
  1 13  1  0
  1 14  1  0
  4 15  1  1
  5 16  1  0
  8 17  1  0
  8 18  1  0
  9 19  1  0
M  END
$$$$

     RDKit          3D

 19 19  0  0  0  0  0  0  0  0999 V2000
   -2.8048    0.3615   -0.2561 C   0  0  0  0  0  0  0  0  0  0  0  0
   -1.7286   -0.5592    0.1863 C   0  0  0  0  0  0  0  0  0  0  0  0
   -1.9219   -1.4748    0.9666 O   0  0  0  0  0  0  0  0  0  0  0  0
   -0.3642   -0.3621   -0.3379 C   0  0  2  0  0  0  0  0  0  0  0  0
    0.5595   -1.3462    0.1961 N   0  0  0  0  0  0  0  0  0  0  0  0
    1.9462   -1.0713    0.3261 C   0  0  0  0  0  0  0  0  0  0  0  0
    2.6866   -1.9414    0.8506 O   0  0  0  0  0  0  0  0  0  0  0  0
    2.4457    0.2358   -0.1678 C   0  0  0  0  0  0  0  0  0  0  0  0
    1.5143    1.2425    0.3055 N   0  0  0  0  0  0  0  0  0  0  0  0
    0.1340    0.9846    0.0664 C   0  0  0  0  0  0  0  0  0  0  0  0
   -0.6589    1.9647    0.2152 O   0  0  0  0  0  0  0  0  0  0  0  0
   -2.8907    1.1778    0.5088 H   0  0  0  0  0  0  0  0  0  0  0  0
   -2.5850    0.8118   -1.2348 H   0  0  0  0  0  0  0  0  0  0  0  0
   -3.8050   -0.1531   -0.2840 H   0  0  0  0  0  0  0  0  0  0  0  0
   -0.3502   -0.3692   -1.4600 H   0  0  0  0  0  0  0  0  0  0  0  0
    0.1448   -2.2762    0.4822 H   0  0  0  0  0  0  0  0  0  0  0  0
    2.3792    0.2142   -1.2925 H   0  0  0  0  0  0  0  0  0  0  0  0
    3.4837    0.4464    0.1336 H   0  0  0  0  0  0  0  0  0  0  0  0
    1.8155    2.1141    0.7958 H   0  0  0  0  0  0  0  0  0  0  0  0
  1  2  1  0
  2  3  2  0
  2  4  1  0
  4  5  1  0
  5  6  1  0
  6  7  2  0
  6  8  1  0
  8  9  1  0
  9 10  1  0
 10 11  2  0
 10  4  1  0
  1 12  1  0
  1 13  1  0
  1 14  1  0
  4 15  1  6
  5 16  1  0
  8 17  1  0
  8 18  1  0
  9 19  1  0
M  END
$$$$

     RDKit          3D

 19 19  0  0  0  0  0  0  0  0999 V2000
    2.8763   -0.1083   -0.1607 C   0  0  0  0  0  0  0  0  0  0  0  0
    1.6581    0.5578   -0.6734 C   0  0  0  0  0  0  0  0  0  0  0  0
    1.7331    1.7007   -1.1108 O   0  0  0  0  0  0  0  0  0  0  0  0
    0.3446   -0.1101   -0.6770 C   0  0  2  0  0  0  0  0  0  0  0  0
   -0.6803    0.7515   -1.2276 N   0  0  0  0  0  0  0  0  0  0  0  0
   -2.0611    0.5259   -0.9685 C   0  0  0  0  0  0  0  0  0  0  0  0
   -2.9616    1.1713   -1.5660 O   0  0  0  0  0  0  0  0  0  0  0  0
   -2.4063   -0.5095    0.0430 C   0  0  0  0  0  0  0  0  0  0  0  0
   -1.4338   -0.4001    1.1070 N   0  0  0  0  0  0  0  0  0  0  0  0
   -0.0604   -0.3796    0.7494 C   0  0  0  0  0  0  0  0  0  0  0  0
    0.7860   -0.5905    1.6500 O   0  0  0  0  0  0  0  0  0  0  0  0
    2.9626   -1.1661   -0.5092 H   0  0  0  0  0  0  0  0  0  0  0  0
    3.7772    0.4082   -0.5750 H   0  0  0  0  0  0  0  0  0  0  0  0
    2.9597   -0.1166    0.9311 H   0  0  0  0  0  0  0  0  0  0  0  0
    0.3985   -1.0827   -1.2117 H   0  0  0  0  0  0  0  0  0  0  0  0
   -0.4345    1.5722   -1.8373 H   0  0  0  0  0  0  0  0  0  0  0  0
   -2.2622   -1.5071   -0.4464 H   0  0  0  0  0  0  0  0  0  0  0  0
   -3.4480   -0.3777    0.4018 H   0  0  0  0  0  0  0  0  0  0  0  0
   -1.7481   -0.3393    2.0966 H   0  0  0  0  0  0  0  0  0  0  0  0
  1  2  1  0
  2  3  2  0
  2  4  1  0
  4  5  1  0
  5  6  1  0
  6  7  2  0
  6  8  1  0
  8  9  1  0
  9 10  1  0
 10 11  2  0
 10  4  1  0
  1 12  1  0
  1 13  1  0
  1 14  1  0
  4 15  1  6
  5 16  1  0
  8 17  1  0
  8 18  1  0
  9 19  1  0
M  END
$$$$

     RDKit          3D

 19 19  0  0  0  0  0  0  0  0999 V2000
    2.8237   -0.3966    0.2276 C   0  0  0  0  0  0  0  0  0  0  0  0
    1.7335    0.6129    0.3013 C   0  0  0  0  0  0  0  0  0  0  0  0
    1.9440    1.7065    0.7937 O   0  0  0  0  0  0  0  0  0  0  0  0
    0.4045    0.2671   -0.2287 C   0  0  2  0  0  0  0  0  0  0  0  0
   -0.5510    1.3485   -0.0867 N   0  0  0  0  0  0  0  0  0  0  0  0
   -1.9164    1.0664   -0.3808 C   0  0  0  0  0  0  0  0  0  0  0  0
   -2.7214    2.0343   -0.5012 O   0  0  0  0  0  0  0  0  0  0  0  0
   -2.3766   -0.3431   -0.5412 C   0  0  0  0  0  0  0  0  0  0  0  0
   -1.5873   -1.1344    0.3847 N   0  0  0  0  0  0  0  0  0  0  0  0
   -0.1870   -0.9189    0.4401 C   0  0  0  0  0  0  0  0  0  0  0  0
    0.5653   -1.7044    1.0397 O   0  0  0  0  0  0  0  0  0  0  0  0
    2.5870   -1.1773   -0.5207 H   0  0  0  0  0  0  0  0  0  0  0  0
    3.7658    0.1352   -0.0587 H   0  0  0  0  0  0  0  0  0  0  0  0
    2.9424   -0.8898    1.2201 H   0  0  0  0  0  0  0  0  0  0  0  0
    0.4287    0.0237   -1.3217 H   0  0  0  0  0  0  0  0  0  0  0  0
   -0.2809    2.3120    0.2182 H   0  0  0  0  0  0  0  0  0  0  0  0
   -3.4542   -0.4491   -0.3973 H   0  0  0  0  0  0  0  0  0  0  0  0
   -2.0497   -0.6550   -1.5710 H   0  0  0  0  0  0  0  0  0  0  0  0
   -2.0703   -1.8381    0.9824 H   0  0  0  0  0  0  0  0  0  0  0  0
  1  2  1  0
  2  3  2  0
  2  4  1  0
  4  5  1  0
  5  6  1  0
  6  7  2  0
  6  8  1  0
  8  9  1  0
  9 10  1  0
 10 11  2  0
 10  4  1  0
  1 12  1  0
  1 13  1  0
  1 14  1  0
  4 15  1  6
  5 16  1  0
  8 17  1  0
  8 18  1  0
  9 19  1  0
M  END
$$$$

     RDKit          3D

 19 19  0  0  0  0  0  0  0  0999 V2000
    2.6441    0.5311    0.2509 C   0  0  0  0  0  0  0  0  0  0  0  0
    1.5193    0.0498   -0.5926 C   0  0  0  0  0  0  0  0  0  0  0  0
    1.4958    0.3104   -1.7647 O   0  0  0  0  0  0  0  0  0  0  0  0
    0.4251   -0.7533    0.0155 C   0  0  2  0  0  0  0  0  0  0  0  0
   -0.5613   -1.1157   -0.9785 N   0  0  0  0  0  0  0  0  0  0  0  0
   -1.8157   -0.4476   -1.0722 C   0  0  0  0  0  0  0  0  0  0  0  0
   -2.6316   -0.8275   -1.9408 O   0  0  0  0  0  0  0  0  0  0  0  0
   -2.0886    0.6589   -0.1398 C   0  0  0  0  0  0  0  0  0  0  0  0
   -1.5170    0.3733    1.1614 N   0  0  0  0  0  0  0  0  0  0  0  0
   -0.1823   -0.1020    1.1887 C   0  0  0  0  0  0  0  0  0  0  0  0
    0.4946    0.0361    2.2359 O   0  0  0  0  0  0  0  0  0  0  0  0
    2.3922    1.5588    0.6364 H   0  0  0  0  0  0  0  0  0  0  0  0
    2.7456   -0.1241    1.1360 H   0  0  0  0  0  0  0  0  0  0  0  0
    3.5778    0.5360   -0.3245 H   0  0  0  0  0  0  0  0  0  0  0  0
    0.8895   -1.7051    0.3790 H   0  0  0  0  0  0  0  0  0  0  0  0
   -0.3605   -1.8710   -1.6356 H   0  0  0  0  0  0  0  0  0  0  0  0
   -1.7366    1.6360   -0.5466 H   0  0  0  0  0  0  0  0  0  0  0  0
   -3.1979    0.7335   -0.0334 H   0  0  0  0  0  0  0  0  0  0  0  0
   -2.0927    0.5226    2.0249 H   0  0  0  0  0  0  0  0  0  0  0  0
  1  2  1  0
  2  3  2  0
  2  4  1  0
  4  5  1  0
  5  6  1  0
  6  7  2  0
  6  8  1  0
  8  9  1  0
  9 10  1  0
 10 11  2  0
 10  4  1  0
  1 12  1  0
  1 13  1  0
  1 14  1  0
  4 15  1  1
  5 16  1  0
  8 17  1  0
  8 18  1  0
  9 19  1  0
M  END
$$$$

     RDKit          3D

 19 19  0  0  0  0  0  0  0  0999 V2000
    2.8248    0.2495    0.1244 C   0  0  0  0  0  0  0  0  0  0  0  0
    1.6911   -0.6292   -0.2689 C   0  0  0  0  0  0  0  0  0  0  0  0
    1.8879   -1.5523   -1.0452 O   0  0  0  0  0  0  0  0  0  0  0  0
    0.3602   -0.3492    0.2994 C   0  0  2  0  0  0  0  0  0  0  0  0
   -0.5960   -1.3311   -0.2104 N   0  0  0  0  0  0  0  0  0  0  0  0
   -1.9710   -0.9541   -0.3134 C   0  0  0  0  0  0  0  0  0  0  0  0
   -2.7974   -1.6423   -0.9692 O   0  0  0  0  0  0  0  0  0  0  0  0
   -2.3935    0.2873    0.3857 C   0  0  0  0  0  0  0  0  0  0  0  0
   -1.4639    1.3446   -0.0313 N   0  0  0  0  0  0  0  0  0  0  0  0
   -0.1013    0.9902   -0.2068 C   0  0  0  0  0  0  0  0  0  0  0  0
    0.6535    1.8098   -0.7754 O   0  0  0  0  0  0  0  0  0  0  0  0
    3.4454   -0.3371    0.8482 H   0  0  0  0  0  0  0  0  0  0  0  0
    2.4351    1.1749    0.5901 H   0  0  0  0  0  0  0  0  0  0  0  0
    3.4196    0.5320   -0.7698 H   0  0  0  0  0  0  0  0  0  0  0  0
    0.3332   -0.3283    1.3925 H   0  0  0  0  0  0  0  0  0  0  0  0
   -0.3385   -2.2863   -0.5028 H   0  0  0  0  0  0  0  0  0  0  0  0
   -3.4295    0.5642    0.1758 H   0  0  0  0  0  0  0  0  0  0  0  0
   -2.1875    0.1372    1.4740 H   0  0  0  0  0  0  0  0  0  0  0  0
   -1.7721    2.3203   -0.1967 H   0  0  0  0  0  0  0  0  0  0  0  0
  1  2  1  0
  2  3  2  0
  2  4  1  0
  4  5  1  0
  5  6  1  0
  6  7  2  0
  6  8  1  0
  8  9  1  0
  9 10  1  0
 10 11  2  0
 10  4  1  0
  1 12  1  0
  1 13  1  0
  1 14  1  0
  4 15  1  1
  5 16  1  0
  8 17  1  0
  8 18  1  0
  9 19  1  0
M  END
$$$$

     RDKit          3D

 19 19  0  0  0  0  0  0  0  0999 V2000
    2.7412   -0.4391    0.0165 C   0  0  0  0  0  0  0  0  0  0  0  0
    1.6277    0.4095   -0.5456 C   0  0  0  0  0  0  0  0  0  0  0  0
    1.7574    0.8720   -1.5506 O   0  0  0  0  0  0  0  0  0  0  0  0
    0.4841    0.5627    0.3097 C   0  0  2  0  0  0  0  0  0  0  0  0
   -0.1720   -0.5528    0.9024 N   0  0  0  0  0  0  0  0  0  0  0  0
   -1.5172   -0.9586    0.7927 C   0  0  0  0  0  0  0  0  0  0  0  0
   -2.1243   -1.5813    1.6592 O   0  0  0  0  0  0  0  0  0  0  0  0
   -2.1986   -0.5843   -0.4831 C   0  0  0  0  0  0  0  0  0  0  0  0
   -1.9427    0.8807   -0.4616 N   0  0  0  0  0  0  0  0  0  0  0  0
   -0.6138    1.3191   -0.4648 C   0  0  0  0  0  0  0  0  0  0  0  0
   -0.2966    2.3224   -1.0576 O   0  0  0  0  0  0  0  0  0  0  0  0
    2.4717   -1.5528   -0.1150 H   0  0  0  0  0  0  0  0  0  0  0  0
    3.6726   -0.3648   -0.5674 H   0  0  0  0  0  0  0  0  0  0  0  0
    2.9108   -0.2590    1.0786 H   0  0  0  0  0  0  0  0  0  0  0  0
    0.6911    1.3191    1.1205 H   0  0  0  0  0  0  0  0  0  0  0  0
    0.4406   -1.1412    1.5621 H   0  0  0  0  0  0  0  0  0  0  0  0
   -3.2902   -0.7462   -0.3575 H   0  0  0  0  0  0  0  0  0  0  0  0
   -1.8538   -1.0380   -1.3792 H   0  0  0  0  0  0  0  0  0  0  0  0
   -2.7881    1.5325   -0.4594 H   0  0  0  0  0  0  0  0  0  0  0  0
  1  2  1  0
  2  3  2  0
  2  4  1  0
  4  5  1  0
  5  6  1  0
  6  7  2  0
  6  8  1  0
  8  9  1  0
  9 10  1  0
 10 11  2  0
 10  4  1  0
  1 12  1  0
  1 13  1  0
  1 14  1  0
  4 15  1  1
  5 16  1  0
  8 17  1  0
  8 18  1  0
  9 19  1  0
M  END
$$$$

     RDKit          3D

 19 19  0  0  0  0  0  0  0  0999 V2000
   -2.8307   -0.2011    0.4158 C   0  0  0  0  0  0  0  0  0  0  0  0
   -1.6542    0.6918    0.3912 C   0  0  0  0  0  0  0  0  0  0  0  0
   -1.7763    1.9056    0.1876 O   0  0  0  0  0  0  0  0  0  0  0  0
   -0.3046    0.1467    0.6105 C   0  0  2  0  0  0  0  0  0  0  0  0
    0.7019    1.1882    0.5456 N   0  0  0  0  0  0  0  0  0  0  0  0
    2.0262    0.9448    0.0844 C   0  0  0  0  0  0  0  0  0  0  0  0
    2.8821    1.8600   -0.0266 O   0  0  0  0  0  0  0  0  0  0  0  0
    2.3986   -0.4466   -0.2762 C   0  0  0  0  0  0  0  0  0  0  0  0
    1.2661   -1.0385   -0.9558 N   0  0  0  0  0  0  0  0  0  0  0  0
   -0.0197   -0.9414   -0.3648 C   0  0  0  0  0  0  0  0  0  0  0  0
   -0.9077   -1.7667   -0.6629 O   0  0  0  0  0  0  0  0  0  0  0  0
   -3.6215    0.3112    1.0263 H   0  0  0  0  0  0  0  0  0  0  0  0
   -3.1652   -0.3265   -0.6418 H   0  0  0  0  0  0  0  0  0  0  0  0
   -2.5626   -1.1574    0.8754 H   0  0  0  0  0  0  0  0  0  0  0  0
   -0.2511   -0.3057    1.6181 H   0  0  0  0  0  0  0  0  0  0  0  0
    0.4138    2.1413    0.8556 H   0  0  0  0  0  0  0  0  0  0  0  0
    2.6818   -1.0131    0.6389 H   0  0  0  0  0  0  0  0  0  0  0  0
    3.3001   -0.4629   -0.9276 H   0  0  0  0  0  0  0  0  0  0  0  0
    1.4231   -1.5298   -1.8775 H   0  0  0  0  0  0  0  0  0  0  0  0
  1  2  1  0
  2  3  2  0
  2  4  1  0
  4  5  1  0
  5  6  1  0
  6  7  2  0
  6  8  1  0
  8  9  1  0
  9 10  1  0
 10 11  2  0
 10  4  1  0
  1 12  1  0
  1 13  1  0
  1 14  1  0
  4 15  1  1
  5 16  1  0
  8 17  1  0
  8 18  1  0
  9 19  1  0
M  END
$$$$
