
     RDKit          3D

 26 26  0  0  0  0  0  0  0  0999 V2000
    3.6022    0.3103   -0.6870 N   0  0  0  0  0  0  0  0  0  0  0  0
    2.7344   -1.0794   -0.1376 S   0  0  0  0  0  6  0  0  0  0  0  0
    1.9695   -1.7328   -1.2546 O   0  0  0  0  0  0  0  0  0  0  0  0
    3.6751   -2.0494    0.4925 O   0  0  0  0  0  0  0  0  0  0  0  0
    1.5018   -0.5805    1.0691 C   0  0  0  0  0  0  0  0  0  0  0  0
    0.5279    0.3849    0.4746 C   0  0  0  0  0  0  0  0  0  0  0  0
   -0.2126   -0.0867   -0.6381 N   0  0  0  0  0  0  0  0  0  0  0  0
   -1.1683   -1.1104   -0.4059 C   0  0  0  0  0  0  0  0  0  0  0  0
   -2.4214   -0.4428    0.1322 C   0  0  0  0  0  0  0  0  0  0  0  0
   -2.3283    0.9568   -0.3584 C   0  0  1  0  0  0  0  0  0  0  0  0
   -2.2561    1.8505    0.7158 O   0  0  0  0  0  0  0  0  0  0  0  0
   -1.0492    0.9953   -1.1370 C   0  0  0  0  0  0  0  0  0  0  0  0
    4.2318    0.6168    0.0750 H   0  0  0  0  0  0  0  0  0  0  0  0
    2.8815    1.0658   -0.8331 H   0  0  0  0  0  0  0  0  0  0  0  0
    2.0523   -0.0882    1.8954 H   0  0  0  0  0  0  0  0  0  0  0  0
    1.0783   -1.5097    1.4472 H   0  0  0  0  0  0  0  0  0  0  0  0
   -0.1447    0.7503    1.2794 H   0  0  0  0  0  0  0  0  0  0  0  0
    1.1054    1.2736    0.1454 H   0  0  0  0  0  0  0  0  0  0  0  0
   -0.9013   -1.9087    0.2673 H   0  0  0  0  0  0  0  0  0  0  0  0
   -1.4433   -1.5527   -1.3863 H   0  0  0  0  0  0  0  0  0  0  0  0
   -3.3526   -0.9172   -0.2258 H   0  0  0  0  0  0  0  0  0  0  0  0
   -2.4267   -0.4976    1.2604 H   0  0  0  0  0  0  0  0  0  0  0  0
   -3.2202    1.2258   -0.9596 H   0  0  0  0  0  0  0  0  0  0  0  0
   -2.5735    1.4263    1.5422 H   0  0  0  0  0  0  0  0  0  0  0  0
   -1.2852    0.7298   -2.1913 H   0  0  0  0  0  0  0  0  0  0  0  0
   -0.5767    1.9700   -1.0743 H   0  0  0  0  0  0  0  0  0  0  0  0
  1  2  1  0
  2  3  2  0
  2  4  2  0
  2  5  1  0
  5  6  1  0
  6  7  1  0
  7  8  1  0
  8  9  1  0
  9 10  1  0
 10 11  1  0
 10 12  1  0
 12  7  1  0
  1 13  1  0
  1 14  1  0
  5 15  1  0
  5 16  1  0
  6 17  1  0
  6 18  1  0
  8 19  1  0
  8 20  1  0
  9 21  1  0
  9 22  1  0
 10 23  1  6
 11 24  1  0
 12 25  1  0
 12 26  1  0
M  END
$$$$

     RDKit          3D

 26 26  0  0  0  0  0  0  0  0999 V2000
   -3.1047    1.4737    0.8513 N   0  0  0  0  0  0  0  0  0  0  0  0
   -3.1727   -0.1964    0.4976 S   0  0  0  0  0  6  0  0  0  0  0  0
   -3.4133   -1.0048    1.7480 O   0  0  0  0  0  0  0  0  0  0  0  0
   -4.3436   -0.4488   -0.4181 O   0  0  0  0  0  0  0  0  0  0  0  0
   -1.7327   -0.7708   -0.3570 C   0  0  0  0  0  0  0  0  0  0  0  0
   -0.4762   -0.5731    0.4140 C   0  0  0  0  0  0  0  0  0  0  0  0
    0.6948   -1.0365   -0.2843 N   0  0  0  0  0  0  0  0  0  0  0  0
    1.0384   -0.2687   -1.4362 C   0  0  0  0  0  0  0  0  0  0  0  0
    1.7567    0.9125   -0.8044 C   0  0  0  0  0  0  0  0  0  0  0  0
    2.7371    0.1498    0.0791 C   0  0  1  0  0  0  0  0  0  0  0  0
    3.2141    0.9539    1.1127 O   0  0  0  0  0  0  0  0  0  0  0  0
    1.8792   -0.9818    0.5588 C   0  0  0  0  0  0  0  0  0  0  0  0
   -4.0806    1.8390    0.9281 H   0  0  0  0  0  0  0  0  0  0  0  0
   -2.6403    1.7070    1.7579 H   0  0  0  0  0  0  0  0  0  0  0  0
   -1.6909   -0.2390   -1.3355 H   0  0  0  0  0  0  0  0  0  0  0  0
   -1.8670   -1.8813   -0.4825 H   0  0  0  0  0  0  0  0  0  0  0  0
   -0.5564   -1.2171    1.3419 H   0  0  0  0  0  0  0  0  0  0  0  0
   -0.3590    0.4612    0.8061 H   0  0  0  0  0  0  0  0  0  0  0  0
    0.1854    0.0206   -2.0634 H   0  0  0  0  0  0  0  0  0  0  0  0
    1.8221   -0.8437   -1.9951 H   0  0  0  0  0  0  0  0  0  0  0  0
    2.2868    1.5278   -1.5566 H   0  0  0  0  0  0  0  0  0  0  0  0
    1.1040    1.5066   -0.1538 H   0  0  0  0  0  0  0  0  0  0  0  0
    3.5585   -0.1898   -0.6110 H   0  0  0  0  0  0  0  0  0  0  0  0
    3.1022    1.9196    0.9038 H   0  0  0  0  0  0  0  0  0  0  0  0
    2.4471   -1.9410    0.4158 H   0  0  0  0  0  0  0  0  0  0  0  0
    1.6112   -0.8791    1.6323 H   0  0  0  0  0  0  0  0  0  0  0  0
  1  2  1  0
  2  3  2  0
  2  4  2  0
  2  5  1  0
  5  6  1  0
  6  7  1  0
  7  8  1  0
  8  9  1  0
  9 10  1  0
 10 11  1  0
 10 12  1  0
 12  7  1  0
  1 13  1  0
  1 14  1  0
  5 15  1  0
  5 16  1  0
  6 17  1  0
  6 18  1  0
  8 19  1  0
  8 20  1  0
  9 21  1  0
  9 22  1  0
 10 23  1  6
 11 24  1  0
 12 25  1  0
 12 26  1  0
M  END
$$$$

     RDKit          3D

 26 26  0  0  0  0  0  0  0  0999 V2000
    4.2940    0.4112   -0.5145 N   0  0  0  0  0  0  0  0  0  0  0  0
    2.7235   -0.2274   -0.8178 S   0  0  0  0  0  6  0  0  0  0  0  0
    2.6086   -1.4995   -0.0057 O   0  0  0  0  0  0  0  0  0  0  0  0
    2.5473   -0.6136   -2.2420 O   0  0  0  0  0  0  0  0  0  0  0  0
    1.4545    0.9411   -0.2908 C   0  0  0  0  0  0  0  0  0  0  0  0
    0.1425    0.2310   -0.6291 C   0  0  0  0  0  0  0  0  0  0  0  0
   -1.0223    0.9812   -0.2941 N   0  0  0  0  0  0  0  0  0  0  0  0
   -1.1344    1.0536    1.1490 C   0  0  0  0  0  0  0  0  0  0  0  0
   -1.4385   -0.4118    1.4979 C   0  0  0  0  0  0  0  0  0  0  0  0
   -2.0839   -0.9810    0.2750 C   0  0  1  0  0  0  0  0  0  0  0  0
   -3.3279   -1.5559    0.5451 O   0  0  0  0  0  0  0  0  0  0  0  0
   -2.2247    0.2414   -0.6135 C   0  0  0  0  0  0  0  0  0  0  0  0
    4.9445   -0.3238   -0.1045 H   0  0  0  0  0  0  0  0  0  0  0  0
    4.2075    1.1235    0.2656 H   0  0  0  0  0  0  0  0  0  0  0  0
    1.5824    1.8758   -0.8514 H   0  0  0  0  0  0  0  0  0  0  0  0
    1.5326    1.0107    0.7910 H   0  0  0  0  0  0  0  0  0  0  0  0
    0.2259   -0.7324   -0.0405 H   0  0  0  0  0  0  0  0  0  0  0  0
    0.2005    0.0235   -1.7229 H   0  0  0  0  0  0  0  0  0  0  0  0
   -0.2533    1.4441    1.6430 H   0  0  0  0  0  0  0  0  0  0  0  0
   -1.9982    1.6967    1.4182 H   0  0  0  0  0  0  0  0  0  0  0  0
   -0.5318   -0.9158    1.8396 H   0  0  0  0  0  0  0  0  0  0  0  0
   -2.2187   -0.3654    2.2958 H   0  0  0  0  0  0  0  0  0  0  0  0
   -1.5078   -1.7297   -0.2712 H   0  0  0  0  0  0  0  0  0  0  0  0
   -3.3292   -2.5377    0.3191 H   0  0  0  0  0  0  0  0  0  0  0  0
   -2.3234   -0.0176   -1.6853 H   0  0  0  0  0  0  0  0  0  0  0  0
   -3.0698    0.8778   -0.2373 H   0  0  0  0  0  0  0  0  0  0  0  0
  1  2  1  0
  2  3  2  0
  2  4  2  0
  2  5  1  0
  5  6  1  0
  6  7  1  0
  7  8  1  0
  8  9  1  0
  9 10  1  0
 10 11  1  0
 10 12  1  0
 12  7  1  0
  1 13  1  0
  1 14  1  0
  5 15  1  0
  5 16  1  0
  6 17  1  0
  6 18  1  0
  8 19  1  0
  8 20  1  0
  9 21  1  0
  9 22  1  0
 10 23  1  6
 11 24  1  0
 12 25  1  0
 12 26  1  0
M  END
$$$$

     RDKit          3D

 26 26  0  0  0  0  0  0  0  0999 V2000
    4.4013   -0.1530    0.8314 N   0  0  0  0  0  0  0  0  0  0  0  0
    3.0628    0.7050    0.1837 S   0  0  0  0  0  6  0  0  0  0  0  0
    2.6803    1.8199    1.1309 O   0  0  0  0  0  0  0  0  0  0  0  0
    3.3268    1.2255   -1.1820 O   0  0  0  0  0  0  0  0  0  0  0  0
    1.6717   -0.4259    0.0994 C   0  0  0  0  0  0  0  0  0  0  0  0
    0.4943    0.2844   -0.4721 C   0  0  0  0  0  0  0  0  0  0  0  0
   -0.6411   -0.6258   -0.5545 N   0  0  0  0  0  0  0  0  0  0  0  0
   -1.7411   -0.0622   -1.3025 C   0  0  0  0  0  0  0  0  0  0  0  0
   -2.8239    0.3446   -0.3511 C   0  0  0  0  0  0  0  0  0  0  0  0
   -2.1187    0.2969    0.9970 C   0  0  1  0  0  0  0  0  0  0  0  0
   -2.9796    0.0561    2.0302 O   0  0  0  0  0  0  0  0  0  0  0  0
   -1.1932   -0.8815    0.7610 C   0  0  0  0  0  0  0  0  0  0  0  0
    4.6959    0.1800    1.7752 H   0  0  0  0  0  0  0  0  0  0  0  0
    4.2611   -1.1676    0.8910 H   0  0  0  0  0  0  0  0  0  0  0  0
    1.5214   -0.8605    1.0946 H   0  0  0  0  0  0  0  0  0  0  0  0
    1.9758   -1.2483   -0.5867 H   0  0  0  0  0  0  0  0  0  0  0  0
    0.2549    1.1830    0.1603 H   0  0  0  0  0  0  0  0  0  0  0  0
    0.7192    0.6508   -1.4816 H   0  0  0  0  0  0  0  0  0  0  0  0
   -2.1065   -0.8732   -1.9769 H   0  0  0  0  0  0  0  0  0  0  0  0
   -1.3818    0.8187   -1.8573 H   0  0  0  0  0  0  0  0  0  0  0  0
   -3.6695   -0.3690   -0.3551 H   0  0  0  0  0  0  0  0  0  0  0  0
   -3.1805    1.3762   -0.5329 H   0  0  0  0  0  0  0  0  0  0  0  0
   -1.5290    1.2241    1.1144 H   0  0  0  0  0  0  0  0  0  0  0  0
   -3.4432   -0.7854    1.8381 H   0  0  0  0  0  0  0  0  0  0  0  0
   -1.8034   -1.7979    0.6906 H   0  0  0  0  0  0  0  0  0  0  0  0
   -0.4540   -0.9150    1.5702 H   0  0  0  0  0  0  0  0  0  0  0  0
  1  2  1  0
  2  3  2  0
  2  4  2  0
  2  5  1  0
  5  6  1  0
  6  7  1  0
  7  8  1  0
  8  9  1  0
  9 10  1  0
 10 11  1  0
 10 12  1  0
 12  7  1  0
  1 13  1  0
  1 14  1  0
  5 15  1  0
  5 16  1  0
  6 17  1  0
  6 18  1  0
  8 19  1  0
  8 20  1  0
  9 21  1  0
  9 22  1  0
 10 23  1  1
 11 24  1  0
 12 25  1  0
 12 26  1  0
M  END
$$$$

     RDKit          3D

 26 26  0  0  0  0  0  0  0  0999 V2000
    2.6167   -1.1340    0.0181 N   0  0  0  0  0  0  0  0  0  0  0  0
    2.8825    0.5641    0.0268 S   0  0  0  0  0  6  0  0  0  0  0  0
    4.1086    0.9390    0.7611 O   0  0  0  0  0  0  0  0  0  0  0  0
    3.0769    0.9639   -1.4320 O   0  0  0  0  0  0  0  0  0  0  0  0
    1.4602    1.4320    0.6453 C   0  0  0  0  0  0  0  0  0  0  0  0
    0.2428    1.1885   -0.1933 C   0  0  0  0  0  0  0  0  0  0  0  0
   -0.1707   -0.1803   -0.2888 N   0  0  0  0  0  0  0  0  0  0  0  0
   -0.6880   -0.6678    0.9360 C   0  0  0  0  0  0  0  0  0  0  0  0
   -1.9725   -1.3902    0.5914 C   0  0  0  0  0  0  0  0  0  0  0  0
   -2.4795   -0.5767   -0.5802 C   0  0  1  0  0  0  0  0  0  0  0  0
   -3.1245    0.5739   -0.1915 O   0  0  0  0  0  0  0  0  0  0  0  0
   -1.1649   -0.3038   -1.3244 C   0  0  0  0  0  0  0  0  0  0  0  0
    3.0996   -1.6161   -0.7928 H   0  0  0  0  0  0  0  0  0  0  0  0
    2.9389   -1.5662    0.9393 H   0  0  0  0  0  0  0  0  0  0  0  0
    1.6468    2.5448    0.6229 H   0  0  0  0  0  0  0  0  0  0  0  0
    1.2752    1.1984    1.6989 H   0  0  0  0  0  0  0  0  0  0  0  0
   -0.6071    1.8231    0.1960 H   0  0  0  0  0  0  0  0  0  0  0  0
    0.4296    1.5883   -1.2206 H   0  0  0  0  0  0  0  0  0  0  0  0
    0.0266   -1.3578    1.4495 H   0  0  0  0  0  0  0  0  0  0  0  0
   -0.9258    0.1249    1.6763 H   0  0  0  0  0  0  0  0  0  0  0  0
   -1.7914   -2.4213    0.2342 H   0  0  0  0  0  0  0  0  0  0  0  0
   -2.6833   -1.3680    1.4438 H   0  0  0  0  0  0  0  0  0  0  0  0
   -3.1813   -1.1418   -1.2303 H   0  0  0  0  0  0  0  0  0  0  0  0
   -2.7998    1.3988   -0.6377 H   0  0  0  0  0  0  0  0  0  0  0  0
   -0.9745   -1.2238   -1.9343 H   0  0  0  0  0  0  0  0  0  0  0  0
   -1.2413    0.6083   -1.9676 H   0  0  0  0  0  0  0  0  0  0  0  0
  1  2  1  0
  2  3  2  0
  2  4  2  0
  2  5  1  0
  5  6  1  0
  6  7  1  0
  7  8  1  0
  8  9  1  0
  9 10  1  0
 10 11  1  0
 10 12  1  0
 12  7  1  0
  1 13  1  0
  1 14  1  0
  5 15  1  0
  5 16  1  0
  6 17  1  0
  6 18  1  0
  8 19  1  0
  8 20  1  0
  9 21  1  0
  9 22  1  0
 10 23  1  6
 11 24  1  0
 12 25  1  0
 12 26  1  0
M  END
$$$$

     RDKit          3D

 26 26  0  0  0  0  0  0  0  0999 V2000
    3.4473    1.0579   -0.2954 N   0  0  0  0  0  0  0  0  0  0  0  0
    3.2117   -0.6287   -0.0349 S   0  0  0  0  0  6  0  0  0  0  0  0
    4.1058   -1.1353    1.0821 O   0  0  0  0  0  0  0  0  0  0  0  0
    3.4930   -1.3759   -1.2966 O   0  0  0  0  0  0  0  0  0  0  0  0
    1.5189   -0.9204    0.4329 C   0  0  0  0  0  0  0  0  0  0  0  0
    0.6171   -0.4477   -0.6662 C   0  0  0  0  0  0  0  0  0  0  0  0
   -0.7684   -0.6654   -0.3309 N   0  0  0  0  0  0  0  0  0  0  0  0
   -1.6183   -0.2221   -1.4268 C   0  0  0  0  0  0  0  0  0  0  0  0
   -2.9136    0.0831   -0.6561 C   0  0  0  0  0  0  0  0  0  0  0  0
   -2.3226    0.9499    0.4342 C   0  0  1  0  0  0  0  0  0  0  0  0
   -3.1972    1.1441    1.4874 O   0  0  0  0  0  0  0  0  0  0  0  0
   -1.1301    0.1016    0.8189 C   0  0  0  0  0  0  0  0  0  0  0  0
    3.1661    1.2892   -1.2747 H   0  0  0  0  0  0  0  0  0  0  0  0
    4.4761    1.2356   -0.1803 H   0  0  0  0  0  0  0  0  0  0  0  0
    1.3699   -0.4040    1.4001 H   0  0  0  0  0  0  0  0  0  0  0  0
    1.3620   -2.0032    0.6275 H   0  0  0  0  0  0  0  0  0  0  0  0
    0.8805   -1.0437   -1.5852 H   0  0  0  0  0  0  0  0  0  0  0  0
    0.7621    0.6310   -0.8756 H   0  0  0  0  0  0  0  0  0  0  0  0
   -1.7672   -0.9700   -2.2002 H   0  0  0  0  0  0  0  0  0  0  0  0
   -1.2288    0.7492   -1.7694 H   0  0  0  0  0  0  0  0  0  0  0  0
   -3.2266   -0.8869   -0.2226 H   0  0  0  0  0  0  0  0  0  0  0  0
   -3.6544    0.5774   -1.2709 H   0  0  0  0  0  0  0  0  0  0  0  0
   -1.9520    1.8875   -0.0070 H   0  0  0  0  0  0  0  0  0  0  0  0
   -2.8164    0.8985    2.3681 H   0  0  0  0  0  0  0  0  0  0  0  0
   -0.3105    0.7097    1.2475 H   0  0  0  0  0  0  0  0  0  0  0  0
   -1.5043   -0.6117    1.6112 H   0  0  0  0  0  0  0  0  0  0  0  0
  1  2  1  0
  2  3  2  0
  2  4  2  0
  2  5  1  0
  5  6  1  0
  6  7  1  0
  7  8  1  0
  8  9  1  0
  9 10  1  0
 10 11  1  0
 10 12  1  0
 12  7  1  0
  1 13  1  0
  1 14  1  0
  5 15  1  0
  5 16  1  0
  6 17  1  0
  6 18  1  0
  8 19  1  0
  8 20  1  0
  9 21  1  0
  9 22  1  0
 10 23  1  6
 11 24  1  0
 12 25  1  0
 12 26  1  0
M  END
$$$$

     RDKit          3D

 26 26  0  0  0  0  0  0  0  0999 V2000
    3.7626    0.6345    0.7532 N   0  0  0  0  0  0  0  0  0  0  0  0
    3.0805   -0.8454    0.1095 S   0  0  0  0  0  6  0  0  0  0  0  0
    4.1303   -1.4247   -0.7907 O   0  0  0  0  0  0  0  0  0  0  0  0
    2.7910   -1.7577    1.2342 O   0  0  0  0  0  0  0  0  0  0  0  0
    1.6060   -0.4249   -0.8071 C   0  0  0  0  0  0  0  0  0  0  0  0
    0.6160    0.2734    0.1132 C   0  0  0  0  0  0  0  0  0  0  0  0
   -0.5603    0.6589   -0.6375 N   0  0  0  0  0  0  0  0  0  0  0  0
   -1.4192    1.5239    0.1648 C   0  0  0  0  0  0  0  0  0  0  0  0
   -2.7447    0.8200    0.3182 C   0  0  0  0  0  0  0  0  0  0  0  0
   -2.2923   -0.6341    0.1379 C   0  0  1  0  0  0  0  0  0  0  0  0
   -3.3778   -1.4565   -0.1578 O   0  0  0  0  0  0  0  0  0  0  0  0
   -1.3818   -0.4562   -1.0505 C   0  0  0  0  0  0  0  0  0  0  0  0
    3.4807    1.4160    0.1019 H   0  0  0  0  0  0  0  0  0  0  0  0
    4.7929    0.5557    0.8729 H   0  0  0  0  0  0  0  0  0  0  0  0
    1.1750   -1.3175   -1.2597 H   0  0  0  0  0  0  0  0  0  0  0  0
    1.8695    0.3047   -1.5935 H   0  0  0  0  0  0  0  0  0  0  0  0
    0.3456   -0.5061    0.8904 H   0  0  0  0  0  0  0  0  0  0  0  0
    1.0749    1.1131    0.6432 H   0  0  0  0  0  0  0  0  0  0  0  0
   -1.5426    2.4504   -0.4380 H   0  0  0  0  0  0  0  0  0  0  0  0
   -0.9438    1.7514    1.1422 H   0  0  0  0  0  0  0  0  0  0  0  0
   -3.4171    1.0773   -0.5300 H   0  0  0  0  0  0  0  0  0  0  0  0
   -3.2244    0.9934    1.2993 H   0  0  0  0  0  0  0  0  0  0  0  0
   -1.7723   -0.9656    1.0432 H   0  0  0  0  0  0  0  0  0  0  0  0
   -3.1997   -2.3116    0.3167 H   0  0  0  0  0  0  0  0  0  0  0  0
   -0.8260   -1.3717   -1.3001 H   0  0  0  0  0  0  0  0  0  0  0  0
   -2.0230   -0.1009   -1.8840 H   0  0  0  0  0  0  0  0  0  0  0  0
  1  2  1  0
  2  3  2  0
  2  4  2  0
  2  5  1  0
  5  6  1  0
  6  7  1  0
  7  8  1  0
  8  9  1  0
  9 10  1  0
 10 11  1  0
 10 12  1  0
 12  7  1  0
  1 13  1  0
  1 14  1  0
  5 15  1  0
  5 16  1  0
  6 17  1  0
  6 18  1  0
  8 19  1  0
  8 20  1  0
  9 21  1  0
  9 22  1  0
 10 23  1  1
 11 24  1  0
 12 25  1  0
 12 26  1  0
M  END
$$$$

     RDKit          3D

 26 26  0  0  0  0  0  0  0  0999 V2000
    3.7517    0.1450    0.9467 N   0  0  0  0  0  0  0  0  0  0  0  0
    3.1169    0.2651   -0.6658 S   0  0  0  0  0  6  0  0  0  0  0  0
    3.8055    1.3633   -1.3830 O   0  0  0  0  0  0  0  0  0  0  0  0
    3.4245   -1.0336   -1.3641 O   0  0  0  0  0  0  0  0  0  0  0  0
    1.3533    0.5366   -0.5853 C   0  0  0  0  0  0  0  0  0  0  0  0
    0.6604   -0.6212    0.1223 C   0  0  0  0  0  0  0  0  0  0  0  0
   -0.6866   -0.4307    0.2150 N   0  0  0  0  0  0  0  0  0  0  0  0
   -1.2566    0.5623    1.0265 C   0  0  0  0  0  0  0  0  0  0  0  0
   -2.7186    0.5633    0.6170 C   0  0  0  0  0  0  0  0  0  0  0  0
   -2.7405   -0.2854   -0.6529 C   0  0  1  0  0  0  0  0  0  0  0  0
   -2.2183    0.4669   -1.6840 O   0  0  0  0  0  0  0  0  0  0  0  0
   -1.6547   -1.3097   -0.2813 C   0  0  0  0  0  0  0  0  0  0  0  0
    4.6627    0.6170    0.9636 H   0  0  0  0  0  0  0  0  0  0  0  0
    3.8797   -0.8482    1.2039 H   0  0  0  0  0  0  0  0  0  0  0  0
    1.1594    1.4930   -0.0976 H   0  0  0  0  0  0  0  0  0  0  0  0
    0.9997    0.6263   -1.6394 H   0  0  0  0  0  0  0  0  0  0  0  0
    1.1633   -0.8020    1.0701 H   0  0  0  0  0  0  0  0  0  0  0  0
    0.8678   -1.5150   -0.5423 H   0  0  0  0  0  0  0  0  0  0  0  0
   -0.8224    1.5651    0.9282 H   0  0  0  0  0  0  0  0  0  0  0  0
   -1.1874    0.2619    2.0877 H   0  0  0  0  0  0  0  0  0  0  0  0
   -3.3404    0.0093    1.3759 H   0  0  0  0  0  0  0  0  0  0  0  0
   -3.0998    1.5731    0.4096 H   0  0  0  0  0  0  0  0  0  0  0  0
   -3.6999   -0.7435   -0.8531 H   0  0  0  0  0  0  0  0  0  0  0  0
   -1.9369    1.3732   -1.3640 H   0  0  0  0  0  0  0  0  0  0  0  0
   -2.0971   -1.8963    0.5809 H   0  0  0  0  0  0  0  0  0  0  0  0
   -1.3855   -1.9356   -1.1188 H   0  0  0  0  0  0  0  0  0  0  0  0
  1  2  1  0
  2  3  2  0
  2  4  2  0
  2  5  1  0
  5  6  1  0
  6  7  1  0
  7  8  1  0
  8  9  1  0
  9 10  1  0
 10 11  1  0
 10 12  1  0
 12  7  1  0
  1 13  1  0
  1 14  1  0
  5 15  1  0
  5 16  1  0
  6 17  1  0
  6 18  1  0
  8 19  1  0
  8 20  1  0
  9 21  1  0
  9 22  1  0
 10 23  1  6
 11 24  1  0
 12 25  1  0
 12 26  1  0
M  END
$$$$
