
     RDKit          3D

 24 23  0  0  0  0  0  0  0  0999 V2000
    2.3897    1.6223   -1.9837 O   0  0  0  0  0  0  0  0  0  0  0  0
    2.0261    1.3905   -0.7249 C   0  0  0  0  0  0  0  0  0  0  0  0
    1.9143    2.4741    0.0749 O   0  0  0  0  0  0  0  0  0  0  0  0
    1.8035   -0.0133   -0.3944 C   0  0  0  0  0  0  0  0  0  0  0  0
    0.5059   -0.6192   -0.8002 C   0  0  1  0  0  0  0  0  0  0  0  0
    0.5880   -2.0864   -0.4038 C   0  0  0  0  0  0  0  0  0  0  0  0
    1.3451   -2.8800   -0.9890 O   0  0  0  0  0  0  0  0  0  0  0  0
   -0.2003   -2.5162    0.6322 O   0  0  0  0  0  0  0  0  0  0  0  0
   -0.6864   -0.1163   -0.2921 N   0  0  0  0  0  0  0  0  0  0  0  0
   -1.7504    0.0170   -1.2582 C   0  0  0  0  0  0  0  0  0  0  0  0
   -2.8860    0.4557   -0.6169 O   0  0  0  0  0  0  0  0  0  0  0  0
   -0.9794    0.1501    1.0170 C   0  0  0  0  0  0  0  0  0  0  0  0
   -0.2128    1.1429    1.6228 O   0  0  0  0  0  0  0  0  0  0  0  0
    2.0137    3.4101   -0.3014 H   0  0  0  0  0  0  0  0  0  0  0  0
    1.9750   -0.1108    0.7293 H   0  0  0  0  0  0  0  0  0  0  0  0
    2.6697   -0.5919   -0.8172 H   0  0  0  0  0  0  0  0  0  0  0  0
    0.4437   -0.5765   -1.9270 H   0  0  0  0  0  0  0  0  0  0  0  0
   -0.2339   -3.4184    1.0015 H   0  0  0  0  0  0  0  0  0  0  0  0
   -1.5023    0.7018   -2.0700 H   0  0  0  0  0  0  0  0  0  0  0  0
   -1.9315   -1.0317   -1.6379 H   0  0  0  0  0  0  0  0  0  0  0  0
   -3.5718    0.8226   -1.1980 H   0  0  0  0  0  0  0  0  0  0  0  0
   -2.0503    0.5179    1.0874 H   0  0  0  0  0  0  0  0  0  0  0  0
   -1.0080   -0.7685    1.6741 H   0  0  0  0  0  0  0  0  0  0  0  0
   -0.6616    2.0243    1.6340 H   0  0  0  0  0  0  0  0  0  0  0  0
  1  2  2  0
  2  3  1  0
  2  4  1  0
  4  5  1  0
  5  6  1  0
  6  7  2  0
  6  8  1  0
  5  9  1  0
  9 10  1  0
 10 11  1  0
  9 12  1  0
 12 13  1  0
  3 14  1  0
  4 15  1  0
  4 16  1  0
  5 17  1  6
  8 18  1  0
 10 19  1  0
 10 20  1  0
 11 21  1  0
 12 22  1  0
 12 23  1  0
 13 24  1  0
M  END
$$$$

     RDKit          3D

 24 23  0  0  0  0  0  0  0  0999 V2000
    3.4453   -1.4650   -0.2866 O   0  0  0  0  0  0  0  0  0  0  0  0
    2.4749   -0.8056    0.2523 C   0  0  0  0  0  0  0  0  0  0  0  0
    2.3503   -0.9406    1.6036 O   0  0  0  0  0  0  0  0  0  0  0  0
    1.6804   -0.0300   -0.6904 C   0  0  0  0  0  0  0  0  0  0  0  0
    0.3529    0.5451   -0.1607 C   0  0  1  0  0  0  0  0  0  0  0  0
   -0.2034    1.3248   -1.2758 C   0  0  0  0  0  0  0  0  0  0  0  0
   -0.8267    0.8043   -2.2024 O   0  0  0  0  0  0  0  0  0  0  0  0
   -0.0464    2.7282   -1.3235 O   0  0  0  0  0  0  0  0  0  0  0  0
   -0.4463   -0.5208    0.3252 N   0  0  0  0  0  0  0  0  0  0  0  0
   -0.8629   -0.3745    1.7007 C   0  0  0  0  0  0  0  0  0  0  0  0
   -1.6508    0.7734    1.8748 O   0  0  0  0  0  0  0  0  0  0  0  0
   -1.4685   -1.0558   -0.4841 C   0  0  0  0  0  0  0  0  0  0  0  0
   -2.5263   -0.2429   -0.7996 O   0  0  0  0  0  0  0  0  0  0  0  0
    3.1322   -0.7514    2.2132 H   0  0  0  0  0  0  0  0  0  0  0  0
    2.2895    0.7805   -1.1243 H   0  0  0  0  0  0  0  0  0  0  0  0
    1.4160   -0.6625   -1.6070 H   0  0  0  0  0  0  0  0  0  0  0  0
    0.6313    1.2181    0.6647 H   0  0  0  0  0  0  0  0  0  0  0  0
    0.1811    3.2321   -2.1505 H   0  0  0  0  0  0  0  0  0  0  0  0
   -0.0473   -0.4502    2.3883 H   0  0  0  0  0  0  0  0  0  0  0  0
   -1.5374   -1.2604    1.9001 H   0  0  0  0  0  0  0  0  0  0  0  0
   -1.9721    1.1146    1.0049 H   0  0  0  0  0  0  0  0  0  0  0  0
   -1.0678   -1.5017   -1.4269 H   0  0  0  0  0  0  0  0  0  0  0  0
   -1.8935   -1.9414    0.0651 H   0  0  0  0  0  0  0  0  0  0  0  0
   -3.4046   -0.5182   -0.4612 H   0  0  0  0  0  0  0  0  0  0  0  0
  1  2  2  0
  2  3  1  0
  2  4  1  0
  4  5  1  0
  5  6  1  0
  6  7  2  0
  6  8  1  0
  5  9  1  0
  9 10  1  0
 10 11  1  0
  9 12  1  0
 12 13  1  0
  3 14  1  0
  4 15  1  0
  4 16  1  0
  5 17  1  1
  8 18  1  0
 10 19  1  0
 10 20  1  0
 11 21  1  0
 12 22  1  0
 12 23  1  0
 13 24  1  0
M  END
$$$$

     RDKit          3D

 24 23  0  0  0  0  0  0  0  0999 V2000
    2.8702    0.0822    1.5354 O   0  0  0  0  0  0  0  0  0  0  0  0
    2.7887   -0.4351    0.4115 C   0  0  0  0  0  0  0  0  0  0  0  0
    3.9869   -0.9397   -0.1168 O   0  0  0  0  0  0  0  0  0  0  0  0
    1.5454   -0.5459   -0.3737 C   0  0  0  0  0  0  0  0  0  0  0  0
    0.3526    0.1560    0.2121 C   0  0  1  0  0  0  0  0  0  0  0  0
    0.6040    1.6015    0.3009 C   0  0  0  0  0  0  0  0  0  0  0  0
    1.6024    2.1225    0.8527 O   0  0  0  0  0  0  0  0  0  0  0  0
   -0.2899    2.5225   -0.2477 O   0  0  0  0  0  0  0  0  0  0  0  0
   -0.8794   -0.2467   -0.3271 N   0  0  0  0  0  0  0  0  0  0  0  0
   -1.2334   -1.6184   -0.1279 C   0  0  0  0  0  0  0  0  0  0  0  0
   -2.4834   -1.8917   -0.6900 O   0  0  0  0  0  0  0  0  0  0  0  0
   -1.9307    0.6404   -0.5346 C   0  0  0  0  0  0  0  0  0  0  0  0
   -2.3653    1.2743    0.6500 O   0  0  0  0  0  0  0  0  0  0  0  0
    4.7878   -1.1276    0.4638 H   0  0  0  0  0  0  0  0  0  0  0  0
    1.3765   -1.6288   -0.5716 H   0  0  0  0  0  0  0  0  0  0  0  0
    1.7962   -0.0840   -1.3799 H   0  0  0  0  0  0  0  0  0  0  0  0
    0.3321   -0.1989    1.3031 H   0  0  0  0  0  0  0  0  0  0  0  0
   -0.4031    3.4587    0.1182 H   0  0  0  0  0  0  0  0  0  0  0  0
   -0.5096   -2.2833   -0.6247 H   0  0  0  0  0  0  0  0  0  0  0  0
   -1.2362   -1.8258    0.9579 H   0  0  0  0  0  0  0  0  0  0  0  0
   -3.0120   -2.3870   -0.0242 H   0  0  0  0  0  0  0  0  0  0  0  0
   -1.8839    1.3659   -1.3451 H   0  0  0  0  0  0  0  0  0  0  0  0
   -2.8406   -0.0007   -0.8069 H   0  0  0  0  0  0  0  0  0  0  0  0
   -2.9755    1.9896    0.3647 H   0  0  0  0  0  0  0  0  0  0  0  0
  1  2  2  0
  2  3  1  0
  2  4  1  0
  4  5  1  0
  5  6  1  0
  6  7  2  0
  6  8  1  0
  5  9  1  0
  9 10  1  0
 10 11  1  0
  9 12  1  0
 12 13  1  0
  3 14  1  0
  4 15  1  0
  4 16  1  0
  5 17  1  1
  8 18  1  0
 10 19  1  0
 10 20  1  0
 11 21  1  0
 12 22  1  0
 12 23  1  0
 13 24  1  0
M  END
$$$$

     RDKit          3D

 24 23  0  0  0  0  0  0  0  0999 V2000
    2.9325   -2.1369    0.1819 O   0  0  0  0  0  0  0  0  0  0  0  0
    2.0624   -1.2605    0.4164 C   0  0  0  0  0  0  0  0  0  0  0  0
    1.5341   -1.2143    1.6978 O   0  0  0  0  0  0  0  0  0  0  0  0
    1.6595   -0.3422   -0.6774 C   0  0  0  0  0  0  0  0  0  0  0  0
    0.6179    0.6392   -0.2527 C   0  0  1  0  0  0  0  0  0  0  0  0
    0.2467    1.5288   -1.3710 C   0  0  0  0  0  0  0  0  0  0  0  0
    1.1254    2.1328   -2.0439 O   0  0  0  0  0  0  0  0  0  0  0  0
   -1.0708    1.7438   -1.7359 O   0  0  0  0  0  0  0  0  0  0  0  0
   -0.5221    0.0770    0.3605 N   0  0  0  0  0  0  0  0  0  0  0  0
   -1.3178   -0.8026   -0.4028 C   0  0  0  0  0  0  0  0  0  0  0  0
   -0.5111   -1.8934   -0.7939 O   0  0  0  0  0  0  0  0  0  0  0  0
   -1.2243    0.9393    1.2565 C   0  0  0  0  0  0  0  0  0  0  0  0
   -2.3163    0.2381    1.7718 O   0  0  0  0  0  0  0  0  0  0  0  0
    2.1668   -1.2758    2.5101 H   0  0  0  0  0  0  0  0  0  0  0  0
    2.5879    0.2586   -0.9102 H   0  0  0  0  0  0  0  0  0  0  0  0
    1.4394   -0.8945   -1.5930 H   0  0  0  0  0  0  0  0  0  0  0  0
    1.1103    1.3049    0.5180 H   0  0  0  0  0  0  0  0  0  0  0  0
   -1.3312    2.6688   -2.0668 H   0  0  0  0  0  0  0  0  0  0  0  0
   -1.8689   -0.3929   -1.2472 H   0  0  0  0  0  0  0  0  0  0  0  0
   -2.0834   -1.2579    0.2833 H   0  0  0  0  0  0  0  0  0  0  0  0
   -1.0565   -2.6448   -1.1022 H   0  0  0  0  0  0  0  0  0  0  0  0
   -1.5913    1.8778    0.7994 H   0  0  0  0  0  0  0  0  0  0  0  0
   -0.5413    1.2279    2.0695 H   0  0  0  0  0  0  0  0  0  0  0  0
   -2.0480   -0.5212    2.3318 H   0  0  0  0  0  0  0  0  0  0  0  0
  1  2  2  0
  2  3  1  0
  2  4  1  0
  4  5  1  0
  5  6  1  0
  6  7  2  0
  6  8  1  0
  5  9  1  0
  9 10  1  0
 10 11  1  0
  9 12  1  0
 12 13  1  0
  3 14  1  0
  4 15  1  0
  4 16  1  0
  5 17  1  1
  8 18  1  0
 10 19  1  0
 10 20  1  0
 11 21  1  0
 12 22  1  0
 12 23  1  0
 13 24  1  0
M  END
$$$$

     RDKit          3D

 24 23  0  0  0  0  0  0  0  0999 V2000
    2.7006    2.1042    0.9713 O   0  0  0  0  0  0  0  0  0  0  0  0
    2.0694    1.3625    0.1406 C   0  0  0  0  0  0  0  0  0  0  0  0
    1.7415    1.9749   -1.0508 O   0  0  0  0  0  0  0  0  0  0  0  0
    1.7856    0.0002    0.5452 C   0  0  0  0  0  0  0  0  0  0  0  0
    0.5206   -0.6201    0.0088 C   0  0  1  0  0  0  0  0  0  0  0  0
    0.5280   -2.0421    0.5677 C   0  0  0  0  0  0  0  0  0  0  0  0
   -0.2581   -2.4368    1.4504 O   0  0  0  0  0  0  0  0  0  0  0  0
    1.4555   -2.9438    0.0709 O   0  0  0  0  0  0  0  0  0  0  0  0
   -0.6958   -0.0702    0.5496 N   0  0  0  0  0  0  0  0  0  0  0  0
   -0.8792    1.3490    0.3347 C   0  0  0  0  0  0  0  0  0  0  0  0
   -2.1566    1.6261    0.8949 O   0  0  0  0  0  0  0  0  0  0  0  0
   -1.7910   -0.7229   -0.1752 C   0  0  0  0  0  0  0  0  0  0  0  0
   -3.0043   -0.2716    0.2849 O   0  0  0  0  0  0  0  0  0  0  0  0
    1.4808    2.9531   -1.0505 H   0  0  0  0  0  0  0  0  0  0  0  0
    1.8096   -0.1063    1.6633 H   0  0  0  0  0  0  0  0  0  0  0  0
    2.6261   -0.6501    0.1884 H   0  0  0  0  0  0  0  0  0  0  0  0
    0.5444   -0.7187   -1.0733 H   0  0  0  0  0  0  0  0  0  0  0  0
    1.8010   -3.6732    0.6567 H   0  0  0  0  0  0  0  0  0  0  0  0
   -0.1645    1.9883    0.8476 H   0  0  0  0  0  0  0  0  0  0  0  0
   -0.9485    1.6190   -0.7253 H   0  0  0  0  0  0  0  0  0  0  0  0
   -2.1170    1.5331    1.8769 H   0  0  0  0  0  0  0  0  0  0  0  0
   -1.7036   -0.4880   -1.2796 H   0  0  0  0  0  0  0  0  0  0  0  0
   -1.7235   -1.8130   -0.1212 H   0  0  0  0  0  0  0  0  0  0  0  0
   -3.6210    0.0466   -0.4235 H   0  0  0  0  0  0  0  0  0  0  0  0
  1  2  2  0
  2  3  1  0
  2  4  1  0
  4  5  1  0
  5  6  1  0
  6  7  2  0
  6  8  1  0
  5  9  1  0
  9 10  1  0
 10 11  1  0
  9 12  1  0
 12 13  1  0
  3 14  1  0
  4 15  1  0
  4 16  1  0
  5 17  1  6
  8 18  1  0
 10 19  1  0
 10 20  1  0
 11 21  1  0
 12 22  1  0
 12 23  1  0
 13 24  1  0
M  END
$$$$

     RDKit          3D

 24 23  0  0  0  0  0  0  0  0999 V2000
    2.7556   -0.8646    0.7366 O   0  0  0  0  0  0  0  0  0  0  0  0
    2.1705   -1.1336   -0.3433 C   0  0  0  0  0  0  0  0  0  0  0  0
    2.8993   -1.5454   -1.4518 O   0  0  0  0  0  0  0  0  0  0  0  0
    0.6721   -1.0020   -0.4298 C   0  0  0  0  0  0  0  0  0  0  0  0
    0.3453    0.3137    0.2013 C   0  0  1  0  0  0  0  0  0  0  0  0
    0.9969    1.4041   -0.5172 C   0  0  0  0  0  0  0  0  0  0  0  0
    2.1768    1.2828   -0.9156 O   0  0  0  0  0  0  0  0  0  0  0  0
    0.2611    2.5870   -0.7522 O   0  0  0  0  0  0  0  0  0  0  0  0
   -1.0119    0.5703    0.4951 N   0  0  0  0  0  0  0  0  0  0  0  0
   -1.5696   -0.3013    1.5132 C   0  0  0  0  0  0  0  0  0  0  0  0
   -0.8383   -0.0754    2.6839 O   0  0  0  0  0  0  0  0  0  0  0  0
   -1.8882    0.6591   -0.6416 C   0  0  0  0  0  0  0  0  0  0  0  0
   -1.9135   -0.4813   -1.4049 O   0  0  0  0  0  0  0  0  0  0  0  0
    3.8142   -1.1137   -1.6119 H   0  0  0  0  0  0  0  0  0  0  0  0
    0.3444   -1.0574   -1.4951 H   0  0  0  0  0  0  0  0  0  0  0  0
    0.2223   -1.8481    0.1259 H   0  0  0  0  0  0  0  0  0  0  0  0
    0.8603    0.2661    1.2311 H   0  0  0  0  0  0  0  0  0  0  0  0
    0.8019    3.4407   -0.8888 H   0  0  0  0  0  0  0  0  0  0  0  0
   -1.4729   -1.3409    1.1657 H   0  0  0  0  0  0  0  0  0  0  0  0
   -2.6396   -0.0135    1.6270 H   0  0  0  0  0  0  0  0  0  0  0  0
   -0.2331   -0.8496    2.8938 H   0  0  0  0  0  0  0  0  0  0  0  0
   -1.6881    1.5497   -1.2244 H   0  0  0  0  0  0  0  0  0  0  0  0
   -2.9210    0.7807   -0.1907 H   0  0  0  0  0  0  0  0  0  0  0  0
   -2.1445   -1.2276   -0.8063 H   0  0  0  0  0  0  0  0  0  0  0  0
  1  2  2  0
  2  3  1  0
  2  4  1  0
  4  5  1  0
  5  6  1  0
  6  7  2  0
  6  8  1  0
  5  9  1  0
  9 10  1  0
 10 11  1  0
  9 12  1  0
 12 13  1  0
  3 14  1  0
  4 15  1  0
  4 16  1  0
  5 17  1  1
  8 18  1  0
 10 19  1  0
 10 20  1  0
 11 21  1  0
 12 22  1  0
 12 23  1  0
 13 24  1  0
M  END
$$$$

     RDKit          3D

 24 23  0  0  0  0  0  0  0  0999 V2000
    3.5633   -1.4287   -1.0330 O   0  0  0  0  0  0  0  0  0  0  0  0
    2.6592   -0.9564   -0.2791 C   0  0  0  0  0  0  0  0  0  0  0  0
    3.0651   -0.4563    0.9392 O   0  0  0  0  0  0  0  0  0  0  0  0
    1.2644   -0.9672   -0.7232 C   0  0  0  0  0  0  0  0  0  0  0  0
    0.3659   -0.0336    0.0579 C   0  0  1  0  0  0  0  0  0  0  0  0
    0.8417    1.3427   -0.1200 C   0  0  0  0  0  0  0  0  0  0  0  0
    2.0464    1.7147    0.1336 O   0  0  0  0  0  0  0  0  0  0  0  0
    0.0336    2.3984   -0.5867 O   0  0  0  0  0  0  0  0  0  0  0  0
   -0.9854   -0.2124   -0.1391 N   0  0  0  0  0  0  0  0  0  0  0  0
   -1.5692   -1.4610    0.2261 C   0  0  0  0  0  0  0  0  0  0  0  0
   -1.3077   -1.6432    1.5927 O   0  0  0  0  0  0  0  0  0  0  0  0
   -1.9179    0.8003   -0.3099 C   0  0  0  0  0  0  0  0  0  0  0  0
   -2.0840    1.7248    0.7041 O   0  0  0  0  0  0  0  0  0  0  0  0
    4.0628   -0.3894    1.1548 H   0  0  0  0  0  0  0  0  0  0  0  0
    1.2123   -0.7099   -1.8075 H   0  0  0  0  0  0  0  0  0  0  0  0
    0.9089   -2.0217   -0.6620 H   0  0  0  0  0  0  0  0  0  0  0  0
    0.5951   -0.2912    1.1460 H   0  0  0  0  0  0  0  0  0  0  0  0
    0.4443    3.2771   -0.8746 H   0  0  0  0  0  0  0  0  0  0  0  0
   -2.6853   -1.3336    0.1648 H   0  0  0  0  0  0  0  0  0  0  0  0
   -1.2704   -2.3383   -0.3179 H   0  0  0  0  0  0  0  0  0  0  0  0
   -1.8906   -1.0742    2.1577 H   0  0  0  0  0  0  0  0  0  0  0  0
   -2.9387    0.2945   -0.3947 H   0  0  0  0  0  0  0  0  0  0  0  0
   -1.8167    1.2756   -1.3226 H   0  0  0  0  0  0  0  0  0  0  0  0
   -2.5973    2.4890    0.2936 H   0  0  0  0  0  0  0  0  0  0  0  0
  1  2  2  0
  2  3  1  0
  2  4  1  0
  4  5  1  0
  5  6  1  0
  6  7  2  0
  6  8  1  0
  5  9  1  0
  9 10  1  0
 10 11  1  0
  9 12  1  0
 12 13  1  0
  3 14  1  0
  4 15  1  0
  4 16  1  0
  5 17  1  1
  8 18  1  0
 10 19  1  0
 10 20  1  0
 11 21  1  0
 12 22  1  0
 12 23  1  0
 13 24  1  0
M  END
$$$$

     RDKit          3D

 24 23  0  0  0  0  0  0  0  0999 V2000
   -3.4432    0.2271    0.4747 O   0  0  0  0  0  0  0  0  0  0  0  0
   -2.5118    1.0728    0.3108 C   0  0  0  0  0  0  0  0  0  0  0  0
   -2.6649    2.3497    0.8300 O   0  0  0  0  0  0  0  0  0  0  0  0
   -1.2712    0.7482   -0.4114 C   0  0  0  0  0  0  0  0  0  0  0  0
   -0.2465   -0.0017    0.4301 C   0  0  1  0  0  0  0  0  0  0  0  0
   -0.9192   -1.2501    0.8531 C   0  0  0  0  0  0  0  0  0  0  0  0
   -1.7925   -1.2091    1.7781 O   0  0  0  0  0  0  0  0  0  0  0  0
   -0.6801   -2.4914    0.3169 O   0  0  0  0  0  0  0  0  0  0  0  0
    0.9186   -0.2033   -0.3069 N   0  0  0  0  0  0  0  0  0  0  0  0
    1.7333    0.8384   -0.7323 C   0  0  0  0  0  0  0  0  0  0  0  0
    1.2130    1.8238   -1.5397 O   0  0  0  0  0  0  0  0  0  0  0  0
    1.5058   -1.4832   -0.4107 C   0  0  0  0  0  0  0  0  0  0  0  0
    2.7698   -1.3428   -1.0574 O   0  0  0  0  0  0  0  0  0  0  0  0
   -3.6260    2.7055    0.9497 H   0  0  0  0  0  0  0  0  0  0  0  0
   -0.8646    1.6778   -0.8486 H   0  0  0  0  0  0  0  0  0  0  0  0
   -1.5511    0.1193   -1.3125 H   0  0  0  0  0  0  0  0  0  0  0  0
   -0.0891    0.6654    1.3375 H   0  0  0  0  0  0  0  0  0  0  0  0
   -0.6223   -3.2834    0.9625 H   0  0  0  0  0  0  0  0  0  0  0  0
    2.2775    1.3656    0.1178 H   0  0  0  0  0  0  0  0  0  0  0  0
    2.5982    0.4126   -1.3487 H   0  0  0  0  0  0  0  0  0  0  0  0
    1.2930    2.6860   -1.0675 H   0  0  0  0  0  0  0  0  0  0  0  0
    0.8802   -2.0840   -1.1282 H   0  0  0  0  0  0  0  0  0  0  0  0
    1.6070   -1.9327    0.5815 H   0  0  0  0  0  0  0  0  0  0  0  0
    3.4859   -1.4106   -0.3968 H   0  0  0  0  0  0  0  0  0  0  0  0
  1  2  2  0
  2  3  1  0
  2  4  1  0
  4  5  1  0
  5  6  1  0
  6  7  2  0
  6  8  1  0
  5  9  1  0
  9 10  1  0
 10 11  1  0
  9 12  1  0
 12 13  1  0
  3 14  1  0
  4 15  1  0
  4 16  1  0
  5 17  1  1
  8 18  1  0
 10 19  1  0
 10 20  1  0
 11 21  1  0
 12 22  1  0
 12 23  1  0
 13 24  1  0
M  END
$$$$
