
     RDKit          3D

 20 21  0  0  0  0  0  0  0  0999 V2000
    1.8605   -0.7511    1.0523 O   0  0  0  0  0  0  0  0  0  0  0  0
    1.3009   -0.6130   -0.1940 C   0  0  2  0  0  0  0  0  0  0  0  0
    1.3473    0.8035   -0.6480 C   0  0  1  0  0  0  0  0  0  0  0  0
    0.4110    1.1691   -1.6281 O   0  0  0  0  0  0  0  0  0  0  0  0
    0.2977    1.6673   -0.3408 C   0  0  1  0  0  0  0  0  0  0  0  0
   -0.8269    1.2388    0.5388 C   0  0  0  0  0  0  0  0  0  0  0  0
   -0.9596   -0.2193    0.7447 C   0  0  1  0  0  0  0  0  0  0  0  0
   -2.2900   -0.6795    0.6567 O   0  0  0  0  0  0  0  0  0  0  0  0
   -0.1330   -1.0762   -0.1504 C   0  0  1  0  0  0  0  0  0  0  0  0
   -0.6874   -1.2327   -1.4180 O   0  0  0  0  0  0  0  0  0  0  0  0
    1.4158   -1.4954    1.5231 H   0  0  0  0  0  0  0  0  0  0  0  0
    1.8197   -1.2451   -0.9596 H   0  0  0  0  0  0  0  0  0  0  0  0
    2.3992    1.1988   -0.7652 H   0  0  0  0  0  0  0  0  0  0  0  0
    0.4929    2.7798   -0.2883 H   0  0  0  0  0  0  0  0  0  0  0  0
   -1.8141    1.6199    0.1442 H   0  0  0  0  0  0  0  0  0  0  0  0
   -0.7054    1.7779    1.5176 H   0  0  0  0  0  0  0  0  0  0  0  0
   -0.6516   -0.4577    1.8043 H   0  0  0  0  0  0  0  0  0  0  0  0
   -2.7637   -0.2619   -0.0985 H   0  0  0  0  0  0  0  0  0  0  0  0
   -0.1139   -2.1075    0.3009 H   0  0  0  0  0  0  0  0  0  0  0  0
   -0.3994   -2.1158   -1.7916 H   0  0  0  0  0  0  0  0  0  0  0  0
  1  2  1  0
  2  3  1  0
  3  4  1  0
  4  5  1  0
  5  6  1  0
  6  7  1  0
  7  8  1  0
  7  9  1  0
  9 10  1  0
  9  2  1  0
  5  3  1  0
  1 11  1  0
  2 12  1  6
  3 13  1  6
  5 14  1  6
  6 15  1  0
  6 16  1  0
  7 17  1  1
  8 18  1  0
  9 19  1  1
 10 20  1  0
M  END
$$$$

     RDKit          3D

 20 21  0  0  0  0  0  0  0  0999 V2000
    2.1443    1.0391    0.8697 O   0  0  0  0  0  0  0  0  0  0  0  0
    1.0313    0.6227    0.1516 C   0  0  2  0  0  0  0  0  0  0  0  0
   -0.1482    1.5189    0.3078 C   0  0  1  0  0  0  0  0  0  0  0  0
   -0.8047    1.8200   -0.9354 O   0  0  0  0  0  0  0  0  0  0  0  0
   -1.4336    1.0255    0.0039 C   0  0  1  0  0  0  0  0  0  0  0  0
   -1.6473   -0.4262   -0.2424 C   0  0  0  0  0  0  0  0  0  0  0  0
   -0.4085   -1.2266   -0.4510 C   0  0  1  0  0  0  0  0  0  0  0  0
    0.1803   -1.0086   -1.6955 O   0  0  0  0  0  0  0  0  0  0  0  0
    0.6331   -0.7754    0.5842 C   0  0  1  0  0  0  0  0  0  0  0  0
    1.7030   -1.6615    0.5144 O   0  0  0  0  0  0  0  0  0  0  0  0
    2.9281    1.2289    0.2779 H   0  0  0  0  0  0  0  0  0  0  0  0
    1.3551    0.5181   -0.9252 H   0  0  0  0  0  0  0  0  0  0  0  0
   -0.0306    2.3846    1.0084 H   0  0  0  0  0  0  0  0  0  0  0  0
   -2.3255    1.5325    0.4741 H   0  0  0  0  0  0  0  0  0  0  0  0
   -2.1654   -0.8459    0.6628 H   0  0  0  0  0  0  0  0  0  0  0  0
   -2.3221   -0.5278   -1.1225 H   0  0  0  0  0  0  0  0  0  0  0  0
   -0.6449   -2.2978   -0.3084 H   0  0  0  0  0  0  0  0  0  0  0  0
   -0.2566   -0.2661   -2.1856 H   0  0  0  0  0  0  0  0  0  0  0  0
    0.1807   -0.7639    1.5967 H   0  0  0  0  0  0  0  0  0  0  0  0
    2.0314   -1.8905    1.4144 H   0  0  0  0  0  0  0  0  0  0  0  0
  1  2  1  0
  2  3  1  0
  3  4  1  0
  4  5  1  0
  5  6  1  0
  6  7  1  0
  7  8  1  0
  7  9  1  0
  9 10  1  0
  9  2  1  0
  5  3  1  0
  1 11  1  0
  2 12  1  6
  3 13  1  1
  5 14  1  1
  6 15  1  0
  6 16  1  0
  7 17  1  1
  8 18  1  0
  9 19  1  1
 10 20  1  0
M  END
$$$$

     RDKit          3D

 20 21  0  0  0  0  0  0  0  0999 V2000
    2.2453    0.7871   -0.6570 O   0  0  0  0  0  0  0  0  0  0  0  0
    1.3646    0.2762    0.3279 C   0  0  2  0  0  0  0  0  0  0  0  0
    1.2076   -1.1731    0.0622 C   0  0  1  0  0  0  0  0  0  0  0  0
    0.7862   -1.9913    1.1437 O   0  0  0  0  0  0  0  0  0  0  0  0
   -0.0636   -1.7781    0.0812 C   0  0  1  0  0  0  0  0  0  0  0  0
   -1.2740   -0.9097    0.2242 C   0  0  0  0  0  0  0  0  0  0  0  0
   -0.9793    0.3848   -0.5146 C   0  0  1  0  0  0  0  0  0  0  0  0
   -2.0797    1.1836   -0.6734 O   0  0  0  0  0  0  0  0  0  0  0  0
    0.1231    1.0862    0.2721 C   0  0  1  0  0  0  0  0  0  0  0  0
   -0.3490    1.4701    1.5393 O   0  0  0  0  0  0  0  0  0  0  0  0
    1.6496    0.9086   -1.4636 H   0  0  0  0  0  0  0  0  0  0  0  0
    1.8702    0.4730    1.3086 H   0  0  0  0  0  0  0  0  0  0  0  0
    2.0498   -1.6854   -0.4920 H   0  0  0  0  0  0  0  0  0  0  0  0
   -0.2517   -2.6810   -0.5710 H   0  0  0  0  0  0  0  0  0  0  0  0
   -2.1838   -1.3378   -0.2786 H   0  0  0  0  0  0  0  0  0  0  0  0
   -1.4923   -0.6955    1.2933 H   0  0  0  0  0  0  0  0  0  0  0  0
   -0.5162    0.1313   -1.5034 H   0  0  0  0  0  0  0  0  0  0  0  0
   -2.3917    1.1102   -1.6201 H   0  0  0  0  0  0  0  0  0  0  0  0
    0.2852    2.0629   -0.2741 H   0  0  0  0  0  0  0  0  0  0  0  0
   -0.0003    2.3778    1.7953 H   0  0  0  0  0  0  0  0  0  0  0  0
  1  2  1  0
  2  3  1  0
  3  4  1  0
  4  5  1  0
  5  6  1  0
  6  7  1  0
  7  8  1  0
  7  9  1  0
  9 10  1  0
  9  2  1  0
  5  3  1  0
  1 11  1  0
  2 12  1  1
  3 13  1  6
  5 14  1  6
  6 15  1  0
  6 16  1  0
  7 17  1  6
  8 18  1  0
  9 19  1  6
 10 20  1  0
M  END
$$$$

     RDKit          3D

 20 21  0  0  0  0  0  0  0  0999 V2000
    1.9029   -1.7323   -0.2826 O   0  0  0  0  0  0  0  0  0  0  0  0
    0.9606   -0.7280   -0.3787 C   0  0  2  0  0  0  0  0  0  0  0  0
    1.4900    0.6433   -0.1703 C   0  0  1  0  0  0  0  0  0  0  0  0
    1.0953    1.5816   -1.1497 O   0  0  0  0  0  0  0  0  0  0  0  0
    0.6016    1.6697    0.1564 C   0  0  1  0  0  0  0  0  0  0  0  0
   -0.8340    1.4017    0.4241 C   0  0  0  0  0  0  0  0  0  0  0  0
   -1.2847    0.0065    0.1469 C   0  0  1  0  0  0  0  0  0  0  0  0
   -1.3702   -0.1386   -1.2474 O   0  0  0  0  0  0  0  0  0  0  0  0
   -0.1775   -0.9342    0.6228 C   0  0  1  0  0  0  0  0  0  0  0  0
   -0.5945   -2.2456    0.6506 O   0  0  0  0  0  0  0  0  0  0  0  0
    2.4641   -1.7320   -1.0869 H   0  0  0  0  0  0  0  0  0  0  0  0
    0.4733   -0.8391   -1.3905 H   0  0  0  0  0  0  0  0  0  0  0  0
    2.5595    0.6783    0.1707 H   0  0  0  0  0  0  0  0  0  0  0  0
    0.9847    2.6016    0.6697 H   0  0  0  0  0  0  0  0  0  0  0  0
   -1.4999    2.0918   -0.1695 H   0  0  0  0  0  0  0  0  0  0  0  0
   -1.0418    1.6251    1.4861 H   0  0  0  0  0  0  0  0  0  0  0  0
   -2.2065   -0.2426    0.6654 H   0  0  0  0  0  0  0  0  0  0  0  0
   -2.0928   -0.7217   -1.5307 H   0  0  0  0  0  0  0  0  0  0  0  0
    0.1299   -0.6350    1.6353 H   0  0  0  0  0  0  0  0  0  0  0  0
   -1.5602   -2.3503    0.7786 H   0  0  0  0  0  0  0  0  0  0  0  0
  1  2  1  0
  2  3  1  0
  3  4  1  0
  4  5  1  0
  5  6  1  0
  6  7  1  0
  7  8  1  0
  7  9  1  0
  9 10  1  0
  9  2  1  0
  5  3  1  0
  1 11  1  0
  2 12  1  6
  3 13  1  1
  5 14  1  1
  6 15  1  0
  6 16  1  0
  7 17  1  1
  8 18  1  0
  9 19  1  1
 10 20  1  0
M  END
$$$$

     RDKit          3D

 20 21  0  0  0  0  0  0  0  0999 V2000
   -2.2851   -1.0950    0.2046 O   0  0  0  0  0  0  0  0  0  0  0  0
   -1.0257   -0.7019   -0.2660 C   0  0  2  0  0  0  0  0  0  0  0  0
   -0.0126   -1.6059    0.3660 C   0  0  1  0  0  0  0  0  0  0  0  0
    0.7408   -2.3346   -0.5715 O   0  0  0  0  0  0  0  0  0  0  0  0
    1.4045   -1.2852   -0.0105 C   0  0  1  0  0  0  0  0  0  0  0  0
    1.4055    0.0822   -0.6443 C   0  0  0  0  0  0  0  0  0  0  0  0
    0.6482    0.9831    0.3442 C   0  0  1  0  0  0  0  0  0  0  0  0
    0.9704    2.3098    0.1633 O   0  0  0  0  0  0  0  0  0  0  0  0
   -0.8264    0.7477    0.0229 C   0  0  1  0  0  0  0  0  0  0  0  0
   -1.0847    1.5473   -1.1158 O   0  0  0  0  0  0  0  0  0  0  0  0
   -2.2467   -1.2563    1.1813 H   0  0  0  0  0  0  0  0  0  0  0  0
   -1.0781   -0.8154   -1.3790 H   0  0  0  0  0  0  0  0  0  0  0  0
   -0.1959   -2.0253    1.3586 H   0  0  0  0  0  0  0  0  0  0  0  0
    2.2295   -1.4370    0.7128 H   0  0  0  0  0  0  0  0  0  0  0  0
    2.4201    0.4513   -0.7927 H   0  0  0  0  0  0  0  0  0  0  0  0
    0.8362    0.0808   -1.6086 H   0  0  0  0  0  0  0  0  0  0  0  0
    0.8415    0.6446    1.3916 H   0  0  0  0  0  0  0  0  0  0  0  0
    0.6961    2.8271    0.9369 H   0  0  0  0  0  0  0  0  0  0  0  0
   -1.4239    1.0616    0.8842 H   0  0  0  0  0  0  0  0  0  0  0  0
   -2.0136    1.8213   -1.1780 H   0  0  0  0  0  0  0  0  0  0  0  0
  1  2  1  0
  2  3  1  0
  3  4  1  0
  4  5  1  0
  5  6  1  0
  6  7  1  0
  7  8  1  0
  7  9  1  0
  9 10  1  0
  9  2  1  0
  5  3  1  0
  1 11  1  0
  2 12  1  6
  3 13  1  1
  5 14  1  1
  6 15  1  0
  6 16  1  0
  7 17  1  1
  8 18  1  0
  9 19  1  1
 10 20  1  0
M  END
$$$$

     RDKit          3D

 20 21  0  0  0  0  0  0  0  0999 V2000
    2.0222   -1.3827    0.5946 O   0  0  0  0  0  0  0  0  0  0  0  0
    1.1615   -0.5646   -0.1722 C   0  0  2  0  0  0  0  0  0  0  0  0
    1.3913    0.8436    0.2184 C   0  0  1  0  0  0  0  0  0  0  0  0
    1.1293    1.7861   -0.8467 O   0  0  0  0  0  0  0  0  0  0  0  0
    0.3075    1.7458    0.2982 C   0  0  1  0  0  0  0  0  0  0  0  0
   -1.0808    1.2310    0.1511 C   0  0  0  0  0  0  0  0  0  0  0  0
   -1.1281   -0.1638    0.7694 C   0  0  1  0  0  0  0  0  0  0  0  0
   -2.4049   -0.6844    0.7606 O   0  0  0  0  0  0  0  0  0  0  0  0
   -0.2420   -1.0462   -0.0586 C   0  0  1  0  0  0  0  0  0  0  0  0
   -0.8701   -1.2315   -1.2921 O   0  0  0  0  0  0  0  0  0  0  0  0
    2.7855   -1.7016    0.0883 H   0  0  0  0  0  0  0  0  0  0  0  0
    1.4969   -0.6941   -1.2306 H   0  0  0  0  0  0  0  0  0  0  0  0
    2.3592    1.0779    0.6990 H   0  0  0  0  0  0  0  0  0  0  0  0
    0.3981    2.6410    0.9699 H   0  0  0  0  0  0  0  0  0  0  0  0
   -1.8286    1.8742    0.6825 H   0  0  0  0  0  0  0  0  0  0  0  0
   -1.4259    1.1712   -0.8943 H   0  0  0  0  0  0  0  0  0  0  0  0
   -0.7546   -0.0749    1.8103 H   0  0  0  0  0  0  0  0  0  0  0  0
   -2.6876   -0.8214   -0.1747 H   0  0  0  0  0  0  0  0  0  0  0  0
   -0.2452   -2.0572    0.4321 H   0  0  0  0  0  0  0  0  0  0  0  0
   -0.3836   -1.9485   -1.7638 H   0  0  0  0  0  0  0  0  0  0  0  0
  1  2  1  0
  2  3  1  0
  3  4  1  0
  4  5  1  0
  5  6  1  0
  6  7  1  0
  7  8  1  0
  7  9  1  0
  9 10  1  0
  9  2  1  0
  5  3  1  0
  1 11  1  0
  2 12  1  6
  3 13  1  1
  5 14  1  1
  6 15  1  0
  6 16  1  0
  7 17  1  1
  8 18  1  0
  9 19  1  1
 10 20  1  0
M  END
$$$$

     RDKit          3D

 20 21  0  0  0  0  0  0  0  0999 V2000
    2.5430    0.0216    0.5306 O   0  0  0  0  0  0  0  0  0  0  0  0
    1.2759    0.0241    0.0163 C   0  0  2  0  0  0  0  0  0  0  0  0
    0.7394    1.4286   -0.2363 C   0  0  1  0  0  0  0  0  0  0  0  0
    0.2076    1.7418   -1.4584 O   0  0  0  0  0  0  0  0  0  0  0  0
   -0.6454    1.5480   -0.2960 C   0  0  1  0  0  0  0  0  0  0  0  0
   -1.5385    0.3773   -0.4061 C   0  0  0  0  0  0  0  0  0  0  0  0
   -0.9434   -0.9344   -0.0193 C   0  0  1  0  0  0  0  0  0  0  0  0
   -0.4198   -1.6279   -1.1195 O   0  0  0  0  0  0  0  0  0  0  0  0
    0.2526   -0.6518    0.8932 C   0  0  1  0  0  0  0  0  0  0  0  0
    0.7090   -1.7689    1.5328 O   0  0  0  0  0  0  0  0  0  0  0  0
    3.1453   -0.5529   -0.0319 H   0  0  0  0  0  0  0  0  0  0  0  0
    1.2603   -0.4815   -0.9887 H   0  0  0  0  0  0  0  0  0  0  0  0
    1.3496    2.1943    0.3275 H   0  0  0  0  0  0  0  0  0  0  0  0
   -1.1548    2.5085    0.0102 H   0  0  0  0  0  0  0  0  0  0  0  0
   -1.9817    0.3302   -1.4425 H   0  0  0  0  0  0  0  0  0  0  0  0
   -2.4411    0.5324    0.2566 H   0  0  0  0  0  0  0  0  0  0  0  0
   -1.6451   -1.5997    0.4974 H   0  0  0  0  0  0  0  0  0  0  0  0
   -0.6587   -1.2375   -1.9760 H   0  0  0  0  0  0  0  0  0  0  0  0
   -0.1253    0.1142    1.6285 H   0  0  0  0  0  0  0  0  0  0  0  0
    0.0713   -1.9664    2.2818 H   0  0  0  0  0  0  0  0  0  0  0  0
  1  2  1  0
  2  3  1  0
  3  4  1  0
  4  5  1  0
  5  6  1  0
  6  7  1  0
  7  8  1  0
  7  9  1  0
  9 10  1  0
  9  2  1  0
  5  3  1  0
  1 11  1  0
  2 12  1  6
  3 13  1  1
  5 14  1  1
  6 15  1  0
  6 16  1  0
  7 17  1  1
  8 18  1  0
  9 19  1  1
 10 20  1  0
M  END
$$$$

     RDKit          3D

 20 21  0  0  0  0  0  0  0  0999 V2000
    1.8559   -0.7207   -1.1969 O   0  0  0  0  0  0  0  0  0  0  0  0
    1.1843   -0.6226    0.0309 C   0  0  2  0  0  0  0  0  0  0  0  0
    0.1080   -1.6447    0.0557 C   0  0  1  0  0  0  0  0  0  0  0  0
   -0.5895   -1.8416    1.2306 O   0  0  0  0  0  0  0  0  0  0  0  0
   -1.2426   -1.2708    0.1248 C   0  0  1  0  0  0  0  0  0  0  0  0
   -1.6160    0.1735    0.1535 C   0  0  0  0  0  0  0  0  0  0  0  0
   -0.5567    0.9436   -0.6278 C   0  0  1  0  0  0  0  0  0  0  0  0
   -0.9667    2.2499   -0.7081 O   0  0  0  0  0  0  0  0  0  0  0  0
    0.7299    0.7869    0.1925 C   0  0  1  0  0  0  0  0  0  0  0  0
    0.3597    1.0082    1.5196 O   0  0  0  0  0  0  0  0  0  0  0  0
    2.7160   -0.2369   -1.0911 H   0  0  0  0  0  0  0  0  0  0  0  0
    1.9231   -0.8781    0.8295 H   0  0  0  0  0  0  0  0  0  0  0  0
    0.3941   -2.6113   -0.4543 H   0  0  0  0  0  0  0  0  0  0  0  0
   -2.0283   -1.9189   -0.3647 H   0  0  0  0  0  0  0  0  0  0  0  0
   -1.5189    0.5252    1.2224 H   0  0  0  0  0  0  0  0  0  0  0  0
   -2.6266    0.3883   -0.2488 H   0  0  0  0  0  0  0  0  0  0  0  0
   -0.4022    0.4940   -1.6376 H   0  0  0  0  0  0  0  0  0  0  0  0
   -0.3152    2.8674   -1.0794 H   0  0  0  0  0  0  0  0  0  0  0  0
    1.5005    1.4958   -0.0975 H   0  0  0  0  0  0  0  0  0  0  0  0
    1.0913    0.8128    2.1470 H   0  0  0  0  0  0  0  0  0  0  0  0
  1  2  1  0
  2  3  1  0
  3  4  1  0
  4  5  1  0
  5  6  1  0
  6  7  1  0
  7  8  1  0
  7  9  1  0
  9 10  1  0
  9  2  1  0
  5  3  1  0
  1 11  1  0
  2 12  1  1
  3 13  1  6
  5 14  1  6
  6 15  1  0
  6 16  1  0
  7 17  1  6
  8 18  1  0
  9 19  1  6
 10 20  1  0
M  END
$$$$
