
     RDKit          3D

 25 24  0  0  0  0  0  0  0  0999 V2000
   -1.8210    0.0114    1.1777 N   0  0  0  0  0  0  0  0  0  0  0  0
   -1.9736   -0.8418    0.0484 C   0  0  2  0  0  0  0  0  0  0  0  0
   -1.1263   -0.4419   -1.1313 C   0  0  0  0  0  0  0  0  0  0  0  0
    0.6052   -0.4314   -0.8247 S   0  0  0  0  0  4  0  0  0  0  0  0
    1.1285   -1.8261   -0.6401 O   0  0  0  0  0  0  0  0  0  0  0  0
    1.1213    0.6836    0.4691 C   0  0  0  0  0  0  0  0  0  0  0  0
    2.6186    0.6464    0.6841 C   0  0  0  0  0  0  0  0  0  0  0  0
    3.3911    1.0304   -0.5318 C   0  0  0  0  0  0  0  0  0  0  0  0
    3.0508    0.1109   -1.5502 O   0  0  0  0  0  0  0  0  0  0  0  0
   -3.3859   -0.8068   -0.3915 C   0  0  0  0  0  0  0  0  0  0  0  0
   -3.8204   -1.4649   -1.3712 O   0  0  0  0  0  0  0  0  0  0  0  0
   -4.2855   -0.0172    0.2968 O   0  0  0  0  0  0  0  0  0  0  0  0
   -1.9462   -0.4707    2.0911 H   0  0  0  0  0  0  0  0  0  0  0  0
   -2.3653    0.8962    1.1101 H   0  0  0  0  0  0  0  0  0  0  0  0
   -1.7737   -1.8815    0.3801 H   0  0  0  0  0  0  0  0  0  0  0  0
   -1.3364   -1.1688   -1.9432 H   0  0  0  0  0  0  0  0  0  0  0  0
   -1.4845    0.5421   -1.4907 H   0  0  0  0  0  0  0  0  0  0  0  0
    0.5872    0.4033    1.3995 H   0  0  0  0  0  0  0  0  0  0  0  0
    0.8615    1.7202    0.1919 H   0  0  0  0  0  0  0  0  0  0  0  0
    2.9274    1.2459    1.5622 H   0  0  0  0  0  0  0  0  0  0  0  0
    2.8843   -0.4155    0.9318 H   0  0  0  0  0  0  0  0  0  0  0  0
    4.4699    0.8737   -0.3271 H   0  0  0  0  0  0  0  0  0  0  0  0
    3.2623    2.0663   -0.8435 H   0  0  0  0  0  0  0  0  0  0  0  0
    3.5936   -0.7173   -1.3896 H   0  0  0  0  0  0  0  0  0  0  0  0
   -5.1830    0.2534   -0.0854 H   0  0  0  0  0  0  0  0  0  0  0  0
  1  2  1  0
  2  3  1  0
  4  3  1  1
  4  5  2  0
  4  6  1  0
  6  7  1  0
  7  8  1  0
  8  9  1  0
  2 10  1  0
 10 11  2  0
 10 12  1  0
  1 13  1  0
  1 14  1  0
  2 15  1  1
  3 16  1  0
  3 17  1  0
  6 18  1  0
  6 19  1  0
  7 20  1  0
  7 21  1  0
  8 22  1  0
  8 23  1  0
  9 24  1  0
 12 25  1  0
M  END
$$$$

     RDKit          3D

 25 24  0  0  0  0  0  0  0  0999 V2000
   -2.8102    1.1624   -0.5434 N   0  0  0  0  0  0  0  0  0  0  0  0
   -1.9730    0.6947    0.5501 C   0  0  2  0  0  0  0  0  0  0  0  0
   -0.6622    1.3972    0.6037 C   0  0  0  0  0  0  0  0  0  0  0  0
    0.3688    1.2680   -0.8147 S   0  0  0  0  0  4  0  0  0  0  0  0
    0.0364    2.1907   -1.9474 O   0  0  0  0  0  0  0  0  0  0  0  0
    0.8886   -0.3378   -1.2896 C   0  0  0  0  0  0  0  0  0  0  0  0
    1.6923   -1.0913   -0.2951 C   0  0  0  0  0  0  0  0  0  0  0  0
    2.9857   -0.4019    0.0793 C   0  0  0  0  0  0  0  0  0  0  0  0
    3.8290   -0.2004   -0.9854 O   0  0  0  0  0  0  0  0  0  0  0  0
   -1.9620   -0.7549    0.5696 C   0  0  0  0  0  0  0  0  0  0  0  0
   -1.4186   -1.4691    1.4518 O   0  0  0  0  0  0  0  0  0  0  0  0
   -2.5914   -1.4559   -0.4504 O   0  0  0  0  0  0  0  0  0  0  0  0
   -2.8296    2.1989   -0.5448 H   0  0  0  0  0  0  0  0  0  0  0  0
   -3.7808    0.8035   -0.3462 H   0  0  0  0  0  0  0  0  0  0  0  0
   -2.5305    1.0265    1.4819 H   0  0  0  0  0  0  0  0  0  0  0  0
   -0.8999    2.4934    0.7432 H   0  0  0  0  0  0  0  0  0  0  0  0
   -0.1278    1.1194    1.5404 H   0  0  0  0  0  0  0  0  0  0  0  0
    1.5120   -0.2448   -2.2205 H   0  0  0  0  0  0  0  0  0  0  0  0
    0.0412   -1.0175   -1.6003 H   0  0  0  0  0  0  0  0  0  0  0  0
    1.9116   -2.1103   -0.6860 H   0  0  0  0  0  0  0  0  0  0  0  0
    1.1463   -1.2448    0.6531 H   0  0  0  0  0  0  0  0  0  0  0  0
    2.7486    0.4988    0.6621 H   0  0  0  0  0  0  0  0  0  0  0  0
    3.5096   -1.1047    0.7883 H   0  0  0  0  0  0  0  0  0  0  0  0
    3.7931   -0.9873   -1.5745 H   0  0  0  0  0  0  0  0  0  0  0  0
   -2.8773   -2.4327   -0.3625 H   0  0  0  0  0  0  0  0  0  0  0  0
  1  2  1  0
  2  3  1  0
  4  3  1  1
  4  5  2  0
  4  6  1  0
  6  7  1  0
  7  8  1  0
  8  9  1  0
  2 10  1  0
 10 11  2  0
 10 12  1  0
  1 13  1  0
  1 14  1  0
  2 15  1  1
  3 16  1  0
  3 17  1  0
  6 18  1  0
  6 19  1  0
  7 20  1  0
  7 21  1  0
  8 22  1  0
  8 23  1  0
  9 24  1  0
 12 25  1  0
M  END
$$$$

     RDKit          3D

 25 24  0  0  0  0  0  0  0  0999 V2000
   -2.2450    0.9581   -1.3619 N   0  0  0  0  0  0  0  0  0  0  0  0
   -2.1872    0.7165    0.0478 C   0  0  2  0  0  0  0  0  0  0  0  0
   -1.1840   -0.3529    0.4126 C   0  0  0  0  0  0  0  0  0  0  0  0
    0.4834    0.0993   -0.1073 S   0  0  0  0  0  4  0  0  0  0  0  0
    0.5261    0.2307   -1.6203 O   0  0  0  0  0  0  0  0  0  0  0  0
    1.5884   -1.2173    0.3644 C   0  0  0  0  0  0  0  0  0  0  0  0
    3.0141   -0.9446   -0.0225 C   0  0  0  0  0  0  0  0  0  0  0  0
    3.5375    0.3177    0.6321 C   0  0  0  0  0  0  0  0  0  0  0  0
    2.8054    1.4330    0.2784 O   0  0  0  0  0  0  0  0  0  0  0  0
   -3.5059    0.2793    0.5384 C   0  0  0  0  0  0  0  0  0  0  0  0
   -3.6531    0.0199    1.7505 O   0  0  0  0  0  0  0  0  0  0  0  0
   -4.5563    0.1626   -0.3432 O   0  0  0  0  0  0  0  0  0  0  0  0
   -2.5713    1.9374   -1.5148 H   0  0  0  0  0  0  0  0  0  0  0  0
   -2.9803    0.3341   -1.7707 H   0  0  0  0  0  0  0  0  0  0  0  0
   -1.8601    1.6429    0.5751 H   0  0  0  0  0  0  0  0  0  0  0  0
   -1.4692   -1.2791   -0.1252 H   0  0  0  0  0  0  0  0  0  0  0  0
   -1.2244   -0.5321    1.4937 H   0  0  0  0  0  0  0  0  0  0  0  0
    1.2813   -2.1532   -0.1488 H   0  0  0  0  0  0  0  0  0  0  0  0
    1.5145   -1.3457    1.4769 H   0  0  0  0  0  0  0  0  0  0  0  0
    3.1094   -0.8636   -1.1078 H   0  0  0  0  0  0  0  0  0  0  0  0
    3.6347   -1.7867    0.3378 H   0  0  0  0  0  0  0  0  0  0  0  0
    4.6173    0.4103    0.3182 H   0  0  0  0  0  0  0  0  0  0  0  0
    3.5529    0.2253    1.7353 H   0  0  0  0  0  0  0  0  0  0  0  0
    3.2595    1.8384   -0.5157 H   0  0  0  0  0  0  0  0  0  0  0  0
   -5.4878   -0.1305   -0.0822 H   0  0  0  0  0  0  0  0  0  0  0  0
  1  2  1  0
  2  3  1  0
  4  3  1  6
  4  5  2  0
  4  6  1  0
  6  7  1  0
  7  8  1  0
  8  9  1  0
  2 10  1  0
 10 11  2  0
 10 12  1  0
  1 13  1  0
  1 14  1  0
  2 15  1  1
  3 16  1  0
  3 17  1  0
  6 18  1  0
  6 19  1  0
  7 20  1  0
  7 21  1  0
  8 22  1  0
  8 23  1  0
  9 24  1  0
 12 25  1  0
M  END
$$$$

     RDKit          3D

 25 24  0  0  0  0  0  0  0  0999 V2000
   -2.4427   -1.3932   -1.1312 N   0  0  0  0  0  0  0  0  0  0  0  0
   -2.5065   -0.1347   -0.4354 C   0  0  2  0  0  0  0  0  0  0  0  0
   -1.1123    0.2195    0.0866 C   0  0  0  0  0  0  0  0  0  0  0  0
   -0.0393    0.3298   -1.3474 S   0  0  0  0  0  4  0  0  0  0  0  0
   -0.0758   -0.9625   -2.1289 O   0  0  0  0  0  0  0  0  0  0  0  0
    1.6350    0.7457   -0.8273 C   0  0  0  0  0  0  0  0  0  0  0  0
    2.1920   -0.3189    0.1171 C   0  0  0  0  0  0  0  0  0  0  0  0
    3.6014    0.1477    0.4798 C   0  0  0  0  0  0  0  0  0  0  0  0
    3.5082    1.3769    1.0929 O   0  0  0  0  0  0  0  0  0  0  0  0
   -3.3926   -0.2058    0.7491 C   0  0  0  0  0  0  0  0  0  0  0  0
   -3.9832   -1.2650    1.0494 O   0  0  0  0  0  0  0  0  0  0  0  0
   -3.5586    0.9164    1.5201 O   0  0  0  0  0  0  0  0  0  0  0  0
   -3.3693   -1.8630   -1.2151 H   0  0  0  0  0  0  0  0  0  0  0  0
   -1.7091   -2.0255   -0.7235 H   0  0  0  0  0  0  0  0  0  0  0  0
   -2.8632    0.6795   -1.0993 H   0  0  0  0  0  0  0  0  0  0  0  0
   -1.1253    1.1911    0.6076 H   0  0  0  0  0  0  0  0  0  0  0  0
   -0.7316   -0.5742    0.7358 H   0  0  0  0  0  0  0  0  0  0  0  0
    1.5844    1.7040   -0.2707 H   0  0  0  0  0  0  0  0  0  0  0  0
    2.2949    0.8854   -1.6983 H   0  0  0  0  0  0  0  0  0  0  0  0
    2.2529   -1.2963   -0.3830 H   0  0  0  0  0  0  0  0  0  0  0  0
    1.6269   -0.3499    1.0594 H   0  0  0  0  0  0  0  0  0  0  0  0
    4.0759   -0.5864    1.1550 H   0  0  0  0  0  0  0  0  0  0  0  0
    4.1834    0.2238   -0.4780 H   0  0  0  0  0  0  0  0  0  0  0  0
    4.2801    1.5135    1.6948 H   0  0  0  0  0  0  0  0  0  0  0  0
   -4.3257    1.0421    2.1804 H   0  0  0  0  0  0  0  0  0  0  0  0
  1  2  1  0
  2  3  1  0
  4  3  1  1
  4  5  2  0
  4  6  1  0
  6  7  1  0
  7  8  1  0
  8  9  1  0
  2 10  1  0
 10 11  2  0
 10 12  1  0
  1 13  1  0
  1 14  1  0
  2 15  1  6
  3 16  1  0
  3 17  1  0
  6 18  1  0
  6 19  1  0
  7 20  1  0
  7 21  1  0
  8 22  1  0
  8 23  1  0
  9 24  1  0
 12 25  1  0
M  END
$$$$

     RDKit          3D

 25 24  0  0  0  0  0  0  0  0999 V2000
   -2.0550    0.5852   -1.3093 N   0  0  0  0  0  0  0  0  0  0  0  0
   -1.8786    0.2912    0.0900 C   0  0  2  0  0  0  0  0  0  0  0  0
   -1.5741   -1.1831    0.2870 C   0  0  0  0  0  0  0  0  0  0  0  0
   -0.0556   -1.5239   -0.6238 S   0  0  0  0  0  4  0  0  0  0  0  0
    0.2889   -2.9854   -0.6267 O   0  0  0  0  0  0  0  0  0  0  0  0
    1.2231   -0.4926    0.0554 C   0  0  0  0  0  0  0  0  0  0  0  0
    2.5601   -0.6778   -0.6206 C   0  0  0  0  0  0  0  0  0  0  0  0
    3.5322    0.2762    0.0824 C   0  0  0  0  0  0  0  0  0  0  0  0
    3.0834    1.5971   -0.0518 O   0  0  0  0  0  0  0  0  0  0  0  0
   -3.0300    0.7002    0.9219 C   0  0  0  0  0  0  0  0  0  0  0  0
   -2.9794    0.4916    2.1443 O   0  0  0  0  0  0  0  0  0  0  0  0
   -4.1635    1.3059    0.4000 O   0  0  0  0  0  0  0  0  0  0  0  0
   -2.0924    1.6095   -1.4466 H   0  0  0  0  0  0  0  0  0  0  0  0
   -2.8816    0.0742   -1.6952 H   0  0  0  0  0  0  0  0  0  0  0  0
   -1.0069    0.9140    0.4382 H   0  0  0  0  0  0  0  0  0  0  0  0
   -2.4301   -1.7604   -0.0827 H   0  0  0  0  0  0  0  0  0  0  0  0
   -1.4303   -1.3555    1.3810 H   0  0  0  0  0  0  0  0  0  0  0  0
    0.9261    0.5722   -0.1216 H   0  0  0  0  0  0  0  0  0  0  0  0
    1.3730   -0.6221    1.1456 H   0  0  0  0  0  0  0  0  0  0  0  0
    2.9042   -1.7058   -0.4362 H   0  0  0  0  0  0  0  0  0  0  0  0
    2.5311   -0.5018   -1.6927 H   0  0  0  0  0  0  0  0  0  0  0  0
    3.5279    0.0552    1.1685 H   0  0  0  0  0  0  0  0  0  0  0  0
    4.5328    0.2337   -0.3538 H   0  0  0  0  0  0  0  0  0  0  0  0
    3.8185    2.2424   -0.1026 H   0  0  0  0  0  0  0  0  0  0  0  0
   -4.7240    1.8598    1.0493 H   0  0  0  0  0  0  0  0  0  0  0  0
  1  2  1  0
  2  3  1  0
  4  3  1  1
  4  5  2  0
  4  6  1  0
  6  7  1  0
  7  8  1  0
  8  9  1  0
  2 10  1  0
 10 11  2  0
 10 12  1  0
  1 13  1  0
  1 14  1  0
  2 15  1  1
  3 16  1  0
  3 17  1  0
  6 18  1  0
  6 19  1  0
  7 20  1  0
  7 21  1  0
  8 22  1  0
  8 23  1  0
  9 24  1  0
 12 25  1  0
M  END
$$$$

     RDKit          3D

 25 24  0  0  0  0  0  0  0  0999 V2000
   -2.6622    1.5034   -0.7330 N   0  0  0  0  0  0  0  0  0  0  0  0
   -2.4194    0.4377    0.1986 C   0  0  2  0  0  0  0  0  0  0  0  0
   -1.0457   -0.1268   -0.0919 C   0  0  0  0  0  0  0  0  0  0  0  0
    0.1339    1.2136    0.1224 S   0  0  0  0  0  4  0  0  0  0  0  0
   -0.1888    2.3552   -0.8150 O   0  0  0  0  0  0  0  0  0  0  0  0
    1.8083    0.6882   -0.1903 C   0  0  0  0  0  0  0  0  0  0  0  0
    2.2232   -0.4388    0.7634 C   0  0  0  0  0  0  0  0  0  0  0  0
    3.6647   -0.8177    0.4181 C   0  0  0  0  0  0  0  0  0  0  0  0
    3.7150   -1.2467   -0.9064 O   0  0  0  0  0  0  0  0  0  0  0  0
   -3.4839   -0.5606    0.0989 C   0  0  0  0  0  0  0  0  0  0  0  0
   -4.4164   -0.3838   -0.7272 O   0  0  0  0  0  0  0  0  0  0  0  0
   -3.4838   -1.7117    0.9078 O   0  0  0  0  0  0  0  0  0  0  0  0
   -2.8295    2.4116   -0.2848 H   0  0  0  0  0  0  0  0  0  0  0  0
   -3.3321    1.2421   -1.4755 H   0  0  0  0  0  0  0  0  0  0  0  0
   -2.3917    0.8583    1.2413 H   0  0  0  0  0  0  0  0  0  0  0  0
   -0.7944   -0.8983    0.6934 H   0  0  0  0  0  0  0  0  0  0  0  0
   -1.0009   -0.5898   -1.0826 H   0  0  0  0  0  0  0  0  0  0  0  0
    1.9771    0.4025   -1.2366 H   0  0  0  0  0  0  0  0  0  0  0  0
    2.4715    1.5561    0.0134 H   0  0  0  0  0  0  0  0  0  0  0  0
    1.5987   -1.3132    0.5047 H   0  0  0  0  0  0  0  0  0  0  0  0
    2.1371   -0.1110    1.8047 H   0  0  0  0  0  0  0  0  0  0  0  0
    4.2897    0.0949    0.5588 H   0  0  0  0  0  0  0  0  0  0  0  0
    4.0437   -1.5885    1.0884 H   0  0  0  0  0  0  0  0  0  0  0  0
    4.3346   -0.7104   -1.4598 H   0  0  0  0  0  0  0  0  0  0  0  0
   -4.3487   -2.2662    0.8972 H   0  0  0  0  0  0  0  0  0  0  0  0
  1  2  1  0
  2  3  1  0
  4  3  1  6
  4  5  2  0
  4  6  1  0
  6  7  1  0
  7  8  1  0
  8  9  1  0
  2 10  1  0
 10 11  2  0
 10 12  1  0
  1 13  1  0
  1 14  1  0
  2 15  1  1
  3 16  1  0
  3 17  1  0
  6 18  1  0
  6 19  1  0
  7 20  1  0
  7 21  1  0
  8 22  1  0
  8 23  1  0
  9 24  1  0
 12 25  1  0
M  END
$$$$

     RDKit          3D

 25 24  0  0  0  0  0  0  0  0999 V2000
   -3.4049    0.5088    1.2661 N   0  0  0  0  0  0  0  0  0  0  0  0
   -2.4683   -0.1246    0.3559 C   0  0  2  0  0  0  0  0  0  0  0  0
   -1.0914    0.0414    0.9576 C   0  0  0  0  0  0  0  0  0  0  0  0
    0.1863   -0.6931   -0.0549 S   0  0  0  0  0  4  0  0  0  0  0  0
   -0.0504   -2.1745   -0.2905 O   0  0  0  0  0  0  0  0  0  0  0  0
    1.7482   -0.4092    0.7967 C   0  0  0  0  0  0  0  0  0  0  0  0
    2.9181   -0.9836    0.0429 C   0  0  0  0  0  0  0  0  0  0  0  0
    2.9746   -0.3190   -1.3185 C   0  0  0  0  0  0  0  0  0  0  0  0
    3.1370    1.0630   -1.1426 O   0  0  0  0  0  0  0  0  0  0  0  0
   -2.5977    0.5066   -0.9606 C   0  0  0  0  0  0  0  0  0  0  0  0
   -1.8861    0.1352   -1.9433 O   0  0  0  0  0  0  0  0  0  0  0  0
   -3.4921    1.5256   -1.1897 O   0  0  0  0  0  0  0  0  0  0  0  0
   -4.3694    0.5173    0.9104 H   0  0  0  0  0  0  0  0  0  0  0  0
   -3.0564    1.4784    1.4686 H   0  0  0  0  0  0  0  0  0  0  0  0
   -2.7541   -1.1955    0.3028 H   0  0  0  0  0  0  0  0  0  0  0  0
   -0.8910    1.1349    0.9963 H   0  0  0  0  0  0  0  0  0  0  0  0
   -1.0874   -0.4505    1.9306 H   0  0  0  0  0  0  0  0  0  0  0  0
    1.6500   -0.8888    1.8006 H   0  0  0  0  0  0  0  0  0  0  0  0
    1.8357    0.6816    0.9505 H   0  0  0  0  0  0  0  0  0  0  0  0
    3.8351   -0.6474    0.5872 H   0  0  0  0  0  0  0  0  0  0  0  0
    2.8981   -2.0659   -0.0425 H   0  0  0  0  0  0  0  0  0  0  0  0
    1.9928   -0.4592   -1.7936 H   0  0  0  0  0  0  0  0  0  0  0  0
    3.8227   -0.6995   -1.9189 H   0  0  0  0  0  0  0  0  0  0  0  0
    3.5017    1.2723   -0.2328 H   0  0  0  0  0  0  0  0  0  0  0  0
   -3.3513    2.2457   -1.9090 H   0  0  0  0  0  0  0  0  0  0  0  0
  1  2  1  0
  2  3  1  0
  4  3  1  1
  4  5  2  0
  4  6  1  0
  6  7  1  0
  7  8  1  0
  8  9  1  0
  2 10  1  0
 10 11  2  0
 10 12  1  0
  1 13  1  0
  1 14  1  0
  2 15  1  6
  3 16  1  0
  3 17  1  0
  6 18  1  0
  6 19  1  0
  7 20  1  0
  7 21  1  0
  8 22  1  0
  8 23  1  0
  9 24  1  0
 12 25  1  0
M  END
$$$$

     RDKit          3D

 25 24  0  0  0  0  0  0  0  0999 V2000
   -2.7759   -1.1478    1.0018 N   0  0  0  0  0  0  0  0  0  0  0  0
   -2.5401   -0.6548   -0.3257 C   0  0  2  0  0  0  0  0  0  0  0  0
   -1.3164    0.2037   -0.4324 C   0  0  0  0  0  0  0  0  0  0  0  0
    0.1661   -0.6967    0.0433 S   0  0  0  0  0  4  0  0  0  0  0  0
    0.0365   -1.0927    1.5090 O   0  0  0  0  0  0  0  0  0  0  0  0
    1.6099    0.3676   -0.0986 C   0  0  0  0  0  0  0  0  0  0  0  0
    2.8084   -0.4211    0.3049 C   0  0  0  0  0  0  0  0  0  0  0  0
    4.1004    0.3493    0.2345 C   0  0  0  0  0  0  0  0  0  0  0  0
    4.1368    1.4609    1.0348 O   0  0  0  0  0  0  0  0  0  0  0  0
   -3.7142    0.1618   -0.7347 C   0  0  0  0  0  0  0  0  0  0  0  0
   -4.7008    0.3312    0.0305 O   0  0  0  0  0  0  0  0  0  0  0  0
   -3.7830    0.7780   -1.9784 O   0  0  0  0  0  0  0  0  0  0  0  0
   -2.1601   -1.9139    1.3007 H   0  0  0  0  0  0  0  0  0  0  0  0
   -3.7616   -1.4602    1.1108 H   0  0  0  0  0  0  0  0  0  0  0  0
   -2.4596   -1.5400   -0.9982 H   0  0  0  0  0  0  0  0  0  0  0  0
   -1.1952    0.5036   -1.4906 H   0  0  0  0  0  0  0  0  0  0  0  0
   -1.4327    1.0951    0.2019 H   0  0  0  0  0  0  0  0  0  0  0  0
    1.4201    1.2563    0.5119 H   0  0  0  0  0  0  0  0  0  0  0  0
    1.6700    0.6547   -1.1896 H   0  0  0  0  0  0  0  0  0  0  0  0
    2.6402   -0.8929    1.2821 H   0  0  0  0  0  0  0  0  0  0  0  0
    2.9089   -1.2668   -0.4288 H   0  0  0  0  0  0  0  0  0  0  0  0
    4.3400    0.6117   -0.8078 H   0  0  0  0  0  0  0  0  0  0  0  0
    4.9047   -0.3519    0.5756 H   0  0  0  0  0  0  0  0  0  0  0  0
    3.3306    2.0055    1.0296 H   0  0  0  0  0  0  0  0  0  0  0  0
   -4.2333    1.6595   -2.1450 H   0  0  0  0  0  0  0  0  0  0  0  0
  1  2  1  0
  2  3  1  0
  4  3  1  1
  4  5  2  0
  4  6  1  0
  6  7  1  0
  7  8  1  0
  8  9  1  0
  2 10  1  0
 10 11  2  0
 10 12  1  0
  1 13  1  0
  1 14  1  0
  2 15  1  6
  3 16  1  0
  3 17  1  0
  6 18  1  0
  6 19  1  0
  7 20  1  0
  7 21  1  0
  8 22  1  0
  8 23  1  0
  9 24  1  0
 12 25  1  0
M  END
$$$$
