
     RDKit          3D

 25 25  0  0  0  0  0  0  0  0999 V2000
    3.1421   -0.0512    0.8102 N   0  0  0  0  0  0  0  0  0  0  0  0
    2.3084    0.2590   -0.2934 C   0  0  0  0  0  0  0  0  0  0  0  0
    2.8476    0.6175   -1.3659 O   0  0  0  0  0  0  0  0  0  0  0  0
    0.8603    0.1538   -0.1528 C   0  0  2  0  0  0  0  0  0  0  0  0
    0.4653   -1.2622    0.2045 C   0  0  0  0  0  0  0  0  0  0  0  0
   -1.0123   -1.4494    0.0797 C   0  0  0  0  0  0  0  0  0  0  0  0
   -1.7822   -0.1595    0.1491 C   0  0  1  0  0  0  0  0  0  0  0  0
   -1.7092    0.4323    1.4901 N   0  0  0  0  0  0  0  0  0  0  0  0
   -1.3544    0.8315   -0.8974 C   0  0  1  0  0  0  0  0  0  0  0  0
   -1.4424    2.1263   -0.3572 O   0  0  0  0  0  0  0  0  0  0  0  0
    0.0840    0.5790   -1.3520 C   0  0  0  0  0  0  0  0  0  0  0  0
    2.7979   -0.5817    1.6513 H   0  0  0  0  0  0  0  0  0  0  0  0
    4.1487    0.2413    0.8294 H   0  0  0  0  0  0  0  0  0  0  0  0
    0.5306    0.8100    0.7022 H   0  0  0  0  0  0  0  0  0  0  0  0
    0.8593   -1.4633    1.2196 H   0  0  0  0  0  0  0  0  0  0  0  0
    0.9985   -1.9495   -0.5153 H   0  0  0  0  0  0  0  0  0  0  0  0
   -1.3546   -2.0848    0.9178 H   0  0  0  0  0  0  0  0  0  0  0  0
   -1.2641   -1.9477   -0.8691 H   0  0  0  0  0  0  0  0  0  0  0  0
   -2.8569   -0.4110    0.0012 H   0  0  0  0  0  0  0  0  0  0  0  0
   -2.5813    0.9803    1.7022 H   0  0  0  0  0  0  0  0  0  0  0  0
   -1.6948   -0.3842    2.1547 H   0  0  0  0  0  0  0  0  0  0  0  0
   -2.0314    0.7871   -1.7725 H   0  0  0  0  0  0  0  0  0  0  0  0
   -0.5543    2.5952   -0.4464 H   0  0  0  0  0  0  0  0  0  0  0  0
    0.4838    1.5343   -1.7603 H   0  0  0  0  0  0  0  0  0  0  0  0
    0.1112   -0.2033   -2.1298 H   0  0  0  0  0  0  0  0  0  0  0  0
  1  2  1  0
  2  3  2  0
  2  4  1  0
  4  5  1  0
  5  6  1  0
  6  7  1  0
  7  8  1  0
  7  9  1  0
  9 10  1  0
  9 11  1  0
 11  4  1  0
  1 12  1  0
  1 13  1  0
  4 14  1  1
  5 15  1  0
  5 16  1  0
  6 17  1  0
  6 18  1  0
  7 19  1  6
  8 20  1  0
  8 21  1  0
  9 22  1  6
 10 23  1  0
 11 24  1  0
 11 25  1  0
M  END
$$$$

     RDKit          3D

 25 25  0  0  0  0  0  0  0  0999 V2000
   -3.1483    0.8933    0.0361 N   0  0  0  0  0  0  0  0  0  0  0  0
   -2.5130   -0.3617    0.1190 C   0  0  0  0  0  0  0  0  0  0  0  0
   -3.2228   -1.3861    0.2194 O   0  0  0  0  0  0  0  0  0  0  0  0
   -1.0519   -0.4767    0.0891 C   0  0  2  0  0  0  0  0  0  0  0  0
   -0.3810    0.2732    1.2349 C   0  0  0  0  0  0  0  0  0  0  0  0
    1.0696   -0.1825    1.2439 C   0  0  0  0  0  0  0  0  0  0  0  0
    1.6930    0.4015   -0.0283 C   0  0  1  0  0  0  0  0  0  0  0  0
    3.1167    0.2688   -0.0337 N   0  0  0  0  0  0  0  0  0  0  0  0
    1.0345   -0.3546   -1.1849 C   0  0  1  0  0  0  0  0  0  0  0  0
    1.0869   -1.7056   -0.8561 O   0  0  0  0  0  0  0  0  0  0  0  0
   -0.4343    0.0540   -1.1871 C   0  0  0  0  0  0  0  0  0  0  0  0
   -3.8973    1.1950    0.7095 H   0  0  0  0  0  0  0  0  0  0  0  0
   -2.8709    1.5632   -0.7247 H   0  0  0  0  0  0  0  0  0  0  0  0
   -0.7338   -1.5411    0.1997 H   0  0  0  0  0  0  0  0  0  0  0  0
   -0.4309    1.3556    0.9498 H   0  0  0  0  0  0  0  0  0  0  0  0
   -0.8873    0.1068    2.1932 H   0  0  0  0  0  0  0  0  0  0  0  0
    1.1091   -1.2945    1.1730 H   0  0  0  0  0  0  0  0  0  0  0  0
    1.6052    0.1487    2.1471 H   0  0  0  0  0  0  0  0  0  0  0  0
    1.3441    1.4501   -0.0866 H   0  0  0  0  0  0  0  0  0  0  0  0
    3.5400    1.1544   -0.3386 H   0  0  0  0  0  0  0  0  0  0  0  0
    3.4687    0.0791    0.9338 H   0  0  0  0  0  0  0  0  0  0  0  0
    1.5178   -0.1410   -2.1394 H   0  0  0  0  0  0  0  0  0  0  0  0
    0.4467   -2.2552   -1.3829 H   0  0  0  0  0  0  0  0  0  0  0  0
   -0.9579   -0.4094   -2.0431 H   0  0  0  0  0  0  0  0  0  0  0  0
   -0.5028    1.1647   -1.2430 H   0  0  0  0  0  0  0  0  0  0  0  0
  1  2  1  0
  2  3  2  0
  2  4  1  0
  4  5  1  0
  5  6  1  0
  6  7  1  0
  7  8  1  0
  7  9  1  0
  9 10  1  0
  9 11  1  0
 11  4  1  0
  1 12  1  0
  1 13  1  0
  4 14  1  1
  5 15  1  0
  5 16  1  0
  6 17  1  0
  6 18  1  0
  7 19  1  6
  8 20  1  0
  8 21  1  0
  9 22  1  6
 10 23  1  0
 11 24  1  0
 11 25  1  0
M  END
$$$$

     RDKit          3D

 25 25  0  0  0  0  0  0  0  0999 V2000
    3.5972    0.0082   -0.2333 N   0  0  0  0  0  0  0  0  0  0  0  0
    2.4446   -0.4995    0.4135 C   0  0  0  0  0  0  0  0  0  0  0  0
    2.5874   -1.0527    1.5275 O   0  0  0  0  0  0  0  0  0  0  0  0
    1.1025   -0.3839   -0.2033 C   0  0  2  0  0  0  0  0  0  0  0  0
    0.8062    1.0698   -0.3965 C   0  0  0  0  0  0  0  0  0  0  0  0
   -0.5567    1.1938   -1.0216 C   0  0  0  0  0  0  0  0  0  0  0  0
   -1.5639    0.6635   -0.0640 C   0  0  1  0  0  0  0  0  0  0  0  0
   -2.8731    0.7245   -0.7326 N   0  0  0  0  0  0  0  0  0  0  0  0
   -1.3136   -0.6987    0.4499 C   0  0  1  0  0  0  0  0  0  0  0  0
   -2.0668   -1.6004   -0.3397 O   0  0  0  0  0  0  0  0  0  0  0  0
    0.0876   -1.1254    0.5937 C   0  0  0  0  0  0  0  0  0  0  0  0
    4.1249   -0.6005   -0.8685 H   0  0  0  0  0  0  0  0  0  0  0  0
    3.8723    0.9907   -0.0407 H   0  0  0  0  0  0  0  0  0  0  0  0
    1.1692   -0.8430   -1.2224 H   0  0  0  0  0  0  0  0  0  0  0  0
    1.5859    1.5263   -0.9997 H   0  0  0  0  0  0  0  0  0  0  0  0
    0.7267    1.5311    0.6263 H   0  0  0  0  0  0  0  0  0  0  0  0
   -0.7564    2.3009   -1.1262 H   0  0  0  0  0  0  0  0  0  0  0  0
   -0.6269    0.7251   -2.0092 H   0  0  0  0  0  0  0  0  0  0  0  0
   -1.6488    1.4023    0.7796 H   0  0  0  0  0  0  0  0  0  0  0  0
   -2.8900   -0.0603   -1.4395 H   0  0  0  0  0  0  0  0  0  0  0  0
   -3.6096    0.5204   -0.0281 H   0  0  0  0  0  0  0  0  0  0  0  0
   -1.8030   -0.7607    1.4680 H   0  0  0  0  0  0  0  0  0  0  0  0
   -2.9896   -1.6891    0.0083 H   0  0  0  0  0  0  0  0  0  0  0  0
    0.4368   -1.1316    1.6673 H   0  0  0  0  0  0  0  0  0  0  0  0
    0.1572   -2.2108    0.2886 H   0  0  0  0  0  0  0  0  0  0  0  0
  1  2  1  0
  2  3  2  0
  2  4  1  0
  4  5  1  0
  5  6  1  0
  6  7  1  0
  7  8  1  0
  7  9  1  0
  9 10  1  0
  9 11  1  0
 11  4  1  0
  1 12  1  0
  1 13  1  0
  4 14  1  6
  5 15  1  0
  5 16  1  0
  6 17  1  0
  6 18  1  0
  7 19  1  1
  8 20  1  0
  8 21  1  0
  9 22  1  1
 10 23  1  0
 11 24  1  0
 11 25  1  0
M  END
$$$$

     RDKit          3D

 25 25  0  0  0  0  0  0  0  0999 V2000
    3.4905    0.2758   -0.2598 N   0  0  0  0  0  0  0  0  0  0  0  0
    2.4153   -0.6241   -0.0223 C   0  0  0  0  0  0  0  0  0  0  0  0
    2.6479   -1.7287    0.5185 O   0  0  0  0  0  0  0  0  0  0  0  0
    1.0404   -0.1952   -0.4387 C   0  0  2  0  0  0  0  0  0  0  0  0
    0.7206    1.0542    0.3102 C   0  0  0  0  0  0  0  0  0  0  0  0
   -0.7236    1.4117    0.3412 C   0  0  0  0  0  0  0  0  0  0  0  0
   -1.6485    0.3014    0.6582 C   0  0  1  0  0  0  0  0  0  0  0  0
   -2.7747    0.3741   -0.2824 N   0  0  0  0  0  0  0  0  0  0  0  0
   -1.0648   -1.0608    0.6259 C   0  0  1  0  0  0  0  0  0  0  0  0
   -2.1056   -1.9597    0.2923 O   0  0  0  0  0  0  0  0  0  0  0  0
    0.0348   -1.2736   -0.3421 C   0  0  0  0  0  0  0  0  0  0  0  0
    4.1242    0.0340   -1.0603 H   0  0  0  0  0  0  0  0  0  0  0  0
    3.6094    1.1124    0.3447 H   0  0  0  0  0  0  0  0  0  0  0  0
    1.1474    0.0769   -1.5304 H   0  0  0  0  0  0  0  0  0  0  0  0
    1.1614    0.9898    1.3272 H   0  0  0  0  0  0  0  0  0  0  0  0
    1.2690    1.8946   -0.1931 H   0  0  0  0  0  0  0  0  0  0  0  0
   -0.9665    1.9353   -0.6266 H   0  0  0  0  0  0  0  0  0  0  0  0
   -0.8470    2.2206    1.1195 H   0  0  0  0  0  0  0  0  0  0  0  0
   -2.1172    0.4430    1.6767 H   0  0  0  0  0  0  0  0  0  0  0  0
   -3.6848    0.3013    0.1815 H   0  0  0  0  0  0  0  0  0  0  0  0
   -2.7146    1.1987   -0.8914 H   0  0  0  0  0  0  0  0  0  0  0  0
   -0.7328   -1.3912    1.6483 H   0  0  0  0  0  0  0  0  0  0  0  0
   -2.4384   -1.6321   -0.5890 H   0  0  0  0  0  0  0  0  0  0  0  0
   -0.4154   -1.5374   -1.3437 H   0  0  0  0  0  0  0  0  0  0  0  0
    0.5730   -2.2209   -0.0414 H   0  0  0  0  0  0  0  0  0  0  0  0
  1  2  1  0
  2  3  2  0
  2  4  1  0
  4  5  1  0
  5  6  1  0
  6  7  1  0
  7  8  1  0
  7  9  1  0
  9 10  1  0
  9 11  1  0
 11  4  1  0
  1 12  1  0
  1 13  1  0
  4 14  1  6
  5 15  1  0
  5 16  1  0
  6 17  1  0
  6 18  1  0
  7 19  1  1
  8 20  1  0
  8 21  1  0
  9 22  1  1
 10 23  1  0
 11 24  1  0
 11 25  1  0
M  END
$$$$

     RDKit          3D

 25 25  0  0  0  0  0  0  0  0999 V2000
    3.3687    1.0985    0.2164 N   0  0  0  0  0  0  0  0  0  0  0  0
    2.3588    0.7077   -0.6808 C   0  0  0  0  0  0  0  0  0  0  0  0
    2.5416    0.9111   -1.9261 O   0  0  0  0  0  0  0  0  0  0  0  0
    1.0961    0.0708   -0.2283 C   0  0  2  0  0  0  0  0  0  0  0  0
    0.2145   -0.2332   -1.4047 C   0  0  0  0  0  0  0  0  0  0  0  0
   -1.2097   -0.4541   -1.1045 C   0  0  0  0  0  0  0  0  0  0  0  0
   -1.7554    0.0779    0.1511 C   0  0  1  0  0  0  0  0  0  0  0  0
   -2.8509   -0.7885    0.6152 N   0  0  0  0  0  0  0  0  0  0  0  0
   -0.7745    0.2826    1.2581 C   0  0  1  0  0  0  0  0  0  0  0  0
   -0.3308   -0.8923    1.8416 O   0  0  0  0  0  0  0  0  0  0  0  0
    0.3836    1.0614    0.6614 C   0  0  0  0  0  0  0  0  0  0  0  0
    4.1848    0.4562    0.4119 H   0  0  0  0  0  0  0  0  0  0  0  0
    3.3022    2.0374    0.6905 H   0  0  0  0  0  0  0  0  0  0  0  0
    1.3299   -0.8791    0.2981 H   0  0  0  0  0  0  0  0  0  0  0  0
    0.6669   -1.1205   -1.9175 H   0  0  0  0  0  0  0  0  0  0  0  0
    0.3561    0.6147   -2.1306 H   0  0  0  0  0  0  0  0  0  0  0  0
   -1.4208   -1.5587   -1.1585 H   0  0  0  0  0  0  0  0  0  0  0  0
   -1.8171   -0.0278   -1.9574 H   0  0  0  0  0  0  0  0  0  0  0  0
   -2.2461    1.0754   -0.0228 H   0  0  0  0  0  0  0  0  0  0  0  0
   -2.9831   -0.7377    1.6314 H   0  0  0  0  0  0  0  0  0  0  0  0
   -3.7195   -0.6189    0.0637 H   0  0  0  0  0  0  0  0  0  0  0  0
   -1.2743    0.8943    2.0429 H   0  0  0  0  0  0  0  0  0  0  0  0
   -0.3864   -1.6733    1.2628 H   0  0  0  0  0  0  0  0  0  0  0  0
   -0.0553    1.8366   -0.0246 H   0  0  0  0  0  0  0  0  0  0  0  0
    1.0207    1.5238    1.4108 H   0  0  0  0  0  0  0  0  0  0  0  0
  1  2  1  0
  2  3  2  0
  2  4  1  0
  4  5  1  0
  5  6  1  0
  6  7  1  0
  7  8  1  0
  7  9  1  0
  9 10  1  0
  9 11  1  0
 11  4  1  0
  1 12  1  0
  1 13  1  0
  4 14  1  1
  5 15  1  0
  5 16  1  0
  6 17  1  0
  6 18  1  0
  7 19  1  6
  8 20  1  0
  8 21  1  0
  9 22  1  1
 10 23  1  0
 11 24  1  0
 11 25  1  0
M  END
$$$$

     RDKit          3D

 25 25  0  0  0  0  0  0  0  0999 V2000
    3.2605    0.5039    0.8553 N   0  0  0  0  0  0  0  0  0  0  0  0
    2.4263    0.3712   -0.2869 C   0  0  0  0  0  0  0  0  0  0  0  0
    2.7351    0.8212   -1.4133 O   0  0  0  0  0  0  0  0  0  0  0  0
    1.1319   -0.3445   -0.0891 C   0  0  2  0  0  0  0  0  0  0  0  0
    0.3863   -0.3888   -1.3972 C   0  0  0  0  0  0  0  0  0  0  0  0
   -0.9571   -1.0427   -1.2186 C   0  0  0  0  0  0  0  0  0  0  0  0
   -1.7883   -0.2835   -0.2157 C   0  0  1  0  0  0  0  0  0  0  0  0
   -2.3282   -1.1814    0.7561 N   0  0  0  0  0  0  0  0  0  0  0  0
   -0.9841    0.8316    0.3713 C   0  0  1  0  0  0  0  0  0  0  0  0
   -1.7101    1.5232    1.3296 O   0  0  0  0  0  0  0  0  0  0  0  0
    0.3233    0.4015    0.9539 C   0  0  0  0  0  0  0  0  0  0  0  0
    3.2682    1.3618    1.4252 H   0  0  0  0  0  0  0  0  0  0  0  0
    3.8727   -0.3055    1.1017 H   0  0  0  0  0  0  0  0  0  0  0  0
    1.3606   -1.3745    0.2283 H   0  0  0  0  0  0  0  0  0  0  0  0
    0.9777   -1.0481   -2.0780 H   0  0  0  0  0  0  0  0  0  0  0  0
    0.3183    0.5954   -1.8892 H   0  0  0  0  0  0  0  0  0  0  0  0
   -1.4570   -1.0748   -2.1979 H   0  0  0  0  0  0  0  0  0  0  0  0
   -0.7888   -2.0789   -0.8517 H   0  0  0  0  0  0  0  0  0  0  0  0
   -2.6530    0.1838   -0.7551 H   0  0  0  0  0  0  0  0  0  0  0  0
   -3.0948   -0.6802    1.2856 H   0  0  0  0  0  0  0  0  0  0  0  0
   -2.7974   -1.9607    0.2568 H   0  0  0  0  0  0  0  0  0  0  0  0
   -0.7760    1.5623   -0.4623 H   0  0  0  0  0  0  0  0  0  0  0  0
   -1.7465    2.5011    1.1441 H   0  0  0  0  0  0  0  0  0  0  0  0
    0.1575   -0.2086    1.8659 H   0  0  0  0  0  0  0  0  0  0  0  0
    0.8630    1.3152    1.2813 H   0  0  0  0  0  0  0  0  0  0  0  0
  1  2  1  0
  2  3  2  0
  2  4  1  0
  4  5  1  0
  5  6  1  0
  6  7  1  0
  7  8  1  0
  7  9  1  0
  9 10  1  0
  9 11  1  0
 11  4  1  0
  1 12  1  0
  1 13  1  0
  4 14  1  1
  5 15  1  0
  5 16  1  0
  6 17  1  0
  6 18  1  0
  7 19  1  6
  8 20  1  0
  8 21  1  0
  9 22  1  6
 10 23  1  0
 11 24  1  0
 11 25  1  0
M  END
$$$$

     RDKit          3D

 25 25  0  0  0  0  0  0  0  0999 V2000
    3.3631   -0.2257   -0.5887 N   0  0  0  0  0  0  0  0  0  0  0  0
    2.1191    0.4526   -0.7145 C   0  0  0  0  0  0  0  0  0  0  0  0
    1.9000    1.2207   -1.6761 O   0  0  0  0  0  0  0  0  0  0  0  0
    1.0290    0.2642    0.3092 C   0  0  2  0  0  0  0  0  0  0  0  0
    0.6291   -1.1537    0.3738 C   0  0  0  0  0  0  0  0  0  0  0  0
   -0.6529   -1.5169   -0.2661 C   0  0  0  0  0  0  0  0  0  0  0  0
   -1.7386   -0.4841   -0.1161 C   0  0  1  0  0  0  0  0  0  0  0  0
   -2.1030   -0.2598    1.2605 N   0  0  0  0  0  0  0  0  0  0  0  0
   -1.2055    0.8019   -0.7071 C   0  0  1  0  0  0  0  0  0  0  0  0
   -2.2305    1.7592   -0.5726 O   0  0  0  0  0  0  0  0  0  0  0  0
   -0.0519    1.2570    0.1044 C   0  0  0  0  0  0  0  0  0  0  0  0
    3.4526   -1.2068   -0.8711 H   0  0  0  0  0  0  0  0  0  0  0  0
    4.1762    0.2963   -0.2049 H   0  0  0  0  0  0  0  0  0  0  0  0
    1.5314    0.5233    1.2890 H   0  0  0  0  0  0  0  0  0  0  0  0
    0.6035   -1.5301    1.4385 H   0  0  0  0  0  0  0  0  0  0  0  0
    1.4398   -1.7773   -0.1048 H   0  0  0  0  0  0  0  0  0  0  0  0
   -0.5307   -1.6922   -1.3630 H   0  0  0  0  0  0  0  0  0  0  0  0
   -1.0100   -2.4838    0.1600 H   0  0  0  0  0  0  0  0  0  0  0  0
   -2.6061   -0.8084   -0.7144 H   0  0  0  0  0  0  0  0  0  0  0  0
   -2.5273   -1.1349    1.6245 H   0  0  0  0  0  0  0  0  0  0  0  0
   -2.7947    0.5215    1.2730 H   0  0  0  0  0  0  0  0  0  0  0  0
   -0.9252    0.6815   -1.7615 H   0  0  0  0  0  0  0  0  0  0  0  0
   -1.8529    2.6654   -0.4843 H   0  0  0  0  0  0  0  0  0  0  0  0
    0.4016    2.1451   -0.4283 H   0  0  0  0  0  0  0  0  0  0  0  0
   -0.4158    1.6849    1.0800 H   0  0  0  0  0  0  0  0  0  0  0  0
  1  2  1  0
  2  3  2  0
  2  4  1  0
  4  5  1  0
  5  6  1  0
  6  7  1  0
  7  8  1  0
  7  9  1  0
  9 10  1  0
  9 11  1  0
 11  4  1  0
  1 12  1  0
  1 13  1  0
  4 14  1  1
  5 15  1  0
  5 16  1  0
  6 17  1  0
  6 18  1  0
  7 19  1  6
  8 20  1  0
  8 21  1  0
  9 22  1  6
 10 23  1  0
 11 24  1  0
 11 25  1  0
M  END
$$$$

     RDKit          3D

 25 25  0  0  0  0  0  0  0  0999 V2000
    3.2747    0.1306    0.2601 N   0  0  0  0  0  0  0  0  0  0  0  0
    2.2201   -0.8200    0.1891 C   0  0  0  0  0  0  0  0  0  0  0  0
    2.4809   -2.0187   -0.0344 O   0  0  0  0  0  0  0  0  0  0  0  0
    0.8100   -0.3247    0.3912 C   0  0  2  0  0  0  0  0  0  0  0  0
   -0.0915   -1.4954    0.2701 C   0  0  0  0  0  0  0  0  0  0  0  0
   -1.4525   -1.2078   -0.2539 C   0  0  0  0  0  0  0  0  0  0  0  0
   -1.8372    0.2476   -0.1458 C   0  0  1  0  0  0  0  0  0  0  0  0
   -2.0004    0.6819    1.2147 N   0  0  0  0  0  0  0  0  0  0  0  0
   -0.8369    1.0504   -0.9169 C   0  0  1  0  0  0  0  0  0  0  0  0
   -1.1456    2.4208   -0.7974 O   0  0  0  0  0  0  0  0  0  0  0  0
    0.5809    0.7692   -0.5866 C   0  0  0  0  0  0  0  0  0  0  0  0
    3.5346    0.5602    1.1768 H   0  0  0  0  0  0  0  0  0  0  0  0
    3.7600    0.3653   -0.6402 H   0  0  0  0  0  0  0  0  0  0  0  0
    0.8121    0.0804    1.4449 H   0  0  0  0  0  0  0  0  0  0  0  0
    0.3885   -2.2779   -0.3811 H   0  0  0  0  0  0  0  0  0  0  0  0
   -0.1864   -1.9843    1.2702 H   0  0  0  0  0  0  0  0  0  0  0  0
   -1.4785   -1.4537   -1.3526 H   0  0  0  0  0  0  0  0  0  0  0  0
   -2.2293   -1.8582    0.2013 H   0  0  0  0  0  0  0  0  0  0  0  0
   -2.8205    0.3572   -0.6756 H   0  0  0  0  0  0  0  0  0  0  0  0
   -3.0262    0.7900    1.4453 H   0  0  0  0  0  0  0  0  0  0  0  0
   -1.6133    0.0179    1.9029 H   0  0  0  0  0  0  0  0  0  0  0  0
   -0.9870    0.7919   -2.0063 H   0  0  0  0  0  0  0  0  0  0  0  0
   -0.3890    2.8857   -0.3424 H   0  0  0  0  0  0  0  0  0  0  0  0
    1.2160    0.5801   -1.4912 H   0  0  0  0  0  0  0  0  0  0  0  0
    1.0166    1.7116   -0.1422 H   0  0  0  0  0  0  0  0  0  0  0  0
  1  2  1  0
  2  3  2  0
  2  4  1  0
  4  5  1  0
  5  6  1  0
  6  7  1  0
  7  8  1  0
  7  9  1  0
  9 10  1  0
  9 11  1  0
 11  4  1  0
  1 12  1  0
  1 13  1  0
  4 14  1  1
  5 15  1  0
  5 16  1  0
  6 17  1  0
  6 18  1  0
  7 19  1  6
  8 20  1  0
  8 21  1  0
  9 22  1  6
 10 23  1  0
 11 24  1  0
 11 25  1  0
M  END
$$$$
