
     RDKit          3D

 23 23  0  0  0  0  0  0  0  0999 V2000
    3.1872   -0.3759   -0.0124 N   0  0  0  0  0  0  0  0  0  0  0  0
    2.0105    0.4240   -0.3127 C   0  0  0  0  0  0  0  0  0  0  0  0
    0.9063   -0.0408    0.6064 C   0  0  2  0  0  0  0  0  0  0  0  0
    0.6611   -1.3891    0.3700 O   0  0  0  0  0  0  0  0  0  0  0  0
   -0.3546    0.7645    0.2825 C   0  0  2  0  0  0  0  0  0  0  0  0
   -1.4463    0.2921    1.2069 C   0  0  0  0  0  0  0  0  0  0  0  0
   -2.1666   -0.7305    0.3896 C   0  0  0  0  0  0  0  0  0  0  0  0
   -2.1908   -0.1157   -0.9244 N   0  0  0  0  0  0  0  0  0  0  0  0
   -0.8759    0.4795   -1.0862 C   0  0  0  0  0  0  0  0  0  0  0  0
    3.4766   -0.1222    0.9693 H   0  0  0  0  0  0  0  0  0  0  0  0
    2.9934   -1.3922   -0.0890 H   0  0  0  0  0  0  0  0  0  0  0  0
    1.7314    0.2757   -1.3630 H   0  0  0  0  0  0  0  0  0  0  0  0
    2.2576    1.4674   -0.0725 H   0  0  0  0  0  0  0  0  0  0  0  0
    1.1441    0.1168    1.6619 H   0  0  0  0  0  0  0  0  0  0  0  0
    1.0171   -1.6683   -0.5124 H   0  0  0  0  0  0  0  0  0  0  0  0
   -0.1835    1.8389    0.4652 H   0  0  0  0  0  0  0  0  0  0  0  0
   -2.1161    1.1454    1.4311 H   0  0  0  0  0  0  0  0  0  0  0  0
   -1.0144   -0.1798    2.1090 H   0  0  0  0  0  0  0  0  0  0  0  0
   -3.2211   -0.8869    0.6903 H   0  0  0  0  0  0  0  0  0  0  0  0
   -1.6820   -1.7116    0.3892 H   0  0  0  0  0  0  0  0  0  0  0  0
   -2.9234    0.6414   -0.9221 H   0  0  0  0  0  0  0  0  0  0  0  0
   -0.9893    1.4009   -1.6724 H   0  0  0  0  0  0  0  0  0  0  0  0
   -0.2214   -0.2336   -1.6261 H   0  0  0  0  0  0  0  0  0  0  0  0
  1  2  1  0
  2  3  1  0
  3  4  1  0
  3  5  1  0
  5  6  1  0
  6  7  1  0
  7  8  1  0
  8  9  1  0
  9  5  1  0
  1 10  1  0
  1 11  1  0
  2 12  1  0
  2 13  1  0
  3 14  1  1
  4 15  1  0
  5 16  1  6
  6 17  1  0
  6 18  1  0
  7 19  1  0
  7 20  1  0
  8 21  1  0
  9 22  1  0
  9 23  1  0
M  END
$$$$

     RDKit          3D

 23 23  0  0  0  0  0  0  0  0999 V2000
    3.1520   -0.5153    0.0334 N   0  0  0  0  0  0  0  0  0  0  0  0
    1.6931   -0.6987    0.1118 C   0  0  0  0  0  0  0  0  0  0  0  0
    1.0834    0.6625    0.0804 C   0  0  2  0  0  0  0  0  0  0  0  0
    1.5503    1.3839    1.1574 O   0  0  0  0  0  0  0  0  0  0  0  0
   -0.4088    0.6696    0.0473 C   0  0  2  0  0  0  0  0  0  0  0  0
   -1.0354   -0.0071    1.2474 C   0  0  0  0  0  0  0  0  0  0  0  0
   -2.4619   -0.1859    0.7318 C   0  0  0  0  0  0  0  0  0  0  0  0
   -2.3903   -0.2220   -0.6949 N   0  0  0  0  0  0  0  0  0  0  0  0
   -1.0113   -0.0808   -1.0857 C   0  0  0  0  0  0  0  0  0  0  0  0
    3.2903    0.1798   -0.7607 H   0  0  0  0  0  0  0  0  0  0  0  0
    3.4109   -0.0279    0.9277 H   0  0  0  0  0  0  0  0  0  0  0  0
    1.5170   -1.2364    1.0716 H   0  0  0  0  0  0  0  0  0  0  0  0
    1.4368   -1.3340   -0.7620 H   0  0  0  0  0  0  0  0  0  0  0  0
    1.4394    1.1724   -0.8384 H   0  0  0  0  0  0  0  0  0  0  0  0
    1.4584    0.8511    1.9765 H   0  0  0  0  0  0  0  0  0  0  0  0
   -0.7604    1.7165    0.0544 H   0  0  0  0  0  0  0  0  0  0  0  0
   -0.6005   -1.0199    1.4195 H   0  0  0  0  0  0  0  0  0  0  0  0
   -1.0116    0.6067    2.1552 H   0  0  0  0  0  0  0  0  0  0  0  0
   -2.9601   -1.0450    1.1952 H   0  0  0  0  0  0  0  0  0  0  0  0
   -3.0613    0.7269    1.0214 H   0  0  0  0  0  0  0  0  0  0  0  0
   -2.8461   -1.0600   -1.1255 H   0  0  0  0  0  0  0  0  0  0  0  0
   -0.9630    0.5118   -2.0238 H   0  0  0  0  0  0  0  0  0  0  0  0
   -0.5210   -1.0481   -1.2565 H   0  0  0  0  0  0  0  0  0  0  0  0
  1  2  1  0
  2  3  1  0
  3  4  1  0
  3  5  1  0
  5  6  1  0
  6  7  1  0
  7  8  1  0
  8  9  1  0
  9  5  1  0
  1 10  1  0
  1 11  1  0
  2 12  1  0
  2 13  1  0
  3 14  1  6
  4 15  1  0
  5 16  1  6
  6 17  1  0
  6 18  1  0
  7 19  1  0
  7 20  1  0
  8 21  1  0
  9 22  1  0
  9 23  1  0
M  END
$$$$

     RDKit          3D

 23 23  0  0  0  0  0  0  0  0999 V2000
   -2.6387    0.5804    0.4796 N   0  0  0  0  0  0  0  0  0  0  0  0
   -1.9772    0.2801   -0.7744 C   0  0  0  0  0  0  0  0  0  0  0  0
   -0.8538   -0.7102   -0.5943 C   0  0  2  0  0  0  0  0  0  0  0  0
   -1.3986   -1.8830   -0.0725 O   0  0  0  0  0  0  0  0  0  0  0  0
    0.1939   -0.2215    0.3738 C   0  0  2  0  0  0  0  0  0  0  0  0
    0.8322    1.0612   -0.0656 C   0  0  0  0  0  0  0  0  0  0  0  0
    2.2869    0.6738   -0.3520 C   0  0  0  0  0  0  0  0  0  0  0  0
    2.4791   -0.3524    0.6853 N   0  0  0  0  0  0  0  0  0  0  0  0
    1.3339   -1.2051    0.4201 C   0  0  0  0  0  0  0  0  0  0  0  0
   -3.3138    1.3730    0.2635 H   0  0  0  0  0  0  0  0  0  0  0  0
   -1.9228    0.9943    1.1129 H   0  0  0  0  0  0  0  0  0  0  0  0
   -1.6385    1.2322   -1.2121 H   0  0  0  0  0  0  0  0  0  0  0  0
   -2.7386   -0.2074   -1.4224 H   0  0  0  0  0  0  0  0  0  0  0  0
   -0.3848   -0.9692   -1.5624 H   0  0  0  0  0  0  0  0  0  0  0  0
   -1.5744   -1.8453    0.8867 H   0  0  0  0  0  0  0  0  0  0  0  0
   -0.2577   -0.1646    1.3905 H   0  0  0  0  0  0  0  0  0  0  0  0
    0.8430    1.7532    0.7903 H   0  0  0  0  0  0  0  0  0  0  0  0
    0.4287    1.4909   -0.9790 H   0  0  0  0  0  0  0  0  0  0  0  0
    2.2831    0.1684   -1.3238 H   0  0  0  0  0  0  0  0  0  0  0  0
    2.9735    1.5094   -0.2486 H   0  0  0  0  0  0  0  0  0  0  0  0
    2.3530    0.0612    1.6309 H   0  0  0  0  0  0  0  0  0  0  0  0
    1.4942   -1.6296   -0.6064 H   0  0  0  0  0  0  0  0  0  0  0  0
    1.1973   -1.9898    1.1801 H   0  0  0  0  0  0  0  0  0  0  0  0
  1  2  1  0
  2  3  1  0
  3  4  1  0
  3  5  1  0
  5  6  1  0
  6  7  1  0
  7  8  1  0
  8  9  1  0
  9  5  1  0
  1 10  1  0
  1 11  1  0
  2 12  1  0
  2 13  1  0
  3 14  1  6
  4 15  1  0
  5 16  1  1
  6 17  1  0
  6 18  1  0
  7 19  1  0
  7 20  1  0
  8 21  1  0
  9 22  1  0
  9 23  1  0
M  END
$$$$

     RDKit          3D

 23 23  0  0  0  0  0  0  0  0999 V2000
    3.1189    0.4753   -0.9047 N   0  0  0  0  0  0  0  0  0  0  0  0
    1.7848   -0.0988   -1.0325 C   0  0  0  0  0  0  0  0  0  0  0  0
    1.0648    0.1281    0.2486 C   0  0  2  0  0  0  0  0  0  0  0  0
    1.7695   -0.4941    1.2695 O   0  0  0  0  0  0  0  0  0  0  0  0
   -0.3362   -0.4023    0.2683 C   0  0  2  0  0  0  0  0  0  0  0  0
   -1.2209    0.2181   -0.7948 C   0  0  0  0  0  0  0  0  0  0  0  0
   -2.5878   -0.1942   -0.2357 C   0  0  0  0  0  0  0  0  0  0  0  0
   -2.4480    0.2049    1.1494 N   0  0  0  0  0  0  0  0  0  0  0  0
   -1.0835   -0.0102    1.5253 C   0  0  0  0  0  0  0  0  0  0  0  0
    3.0430    1.3111   -0.2516 H   0  0  0  0  0  0  0  0  0  0  0  0
    3.7382   -0.2239   -0.3946 H   0  0  0  0  0  0  0  0  0  0  0  0
    1.9119   -1.1845   -1.2215 H   0  0  0  0  0  0  0  0  0  0  0  0
    1.2798    0.3798   -1.8960 H   0  0  0  0  0  0  0  0  0  0  0  0
    1.0148    1.2245    0.4555 H   0  0  0  0  0  0  0  0  0  0  0  0
    1.9968   -1.4067    0.9563 H   0  0  0  0  0  0  0  0  0  0  0  0
   -0.3970   -1.4930    0.1551 H   0  0  0  0  0  0  0  0  0  0  0  0
   -1.0569   -0.1807   -1.7933 H   0  0  0  0  0  0  0  0  0  0  0  0
   -1.1915    1.3266   -0.7338 H   0  0  0  0  0  0  0  0  0  0  0  0
   -3.4063    0.3126   -0.7570 H   0  0  0  0  0  0  0  0  0  0  0  0
   -2.6460   -1.3007   -0.2753 H   0  0  0  0  0  0  0  0  0  0  0  0
   -2.7600    1.2091    1.2520 H   0  0  0  0  0  0  0  0  0  0  0  0
   -0.9404   -0.7723    2.3127 H   0  0  0  0  0  0  0  0  0  0  0  0
   -0.6480    0.9713    1.8644 H   0  0  0  0  0  0  0  0  0  0  0  0
  1  2  1  0
  2  3  1  0
  3  4  1  0
  3  5  1  0
  5  6  1  0
  6  7  1  0
  7  8  1  0
  8  9  1  0
  9  5  1  0
  1 10  1  0
  1 11  1  0
  2 12  1  0
  2 13  1  0
  3 14  1  1
  4 15  1  0
  5 16  1  6
  6 17  1  0
  6 18  1  0
  7 19  1  0
  7 20  1  0
  8 21  1  0
  9 22  1  0
  9 23  1  0
M  END
$$$$

     RDKit          3D

 23 23  0  0  0  0  0  0  0  0999 V2000
    3.0624   -0.5628   -0.7773 N   0  0  0  0  0  0  0  0  0  0  0  0
    1.6466   -0.2468   -0.8407 C   0  0  0  0  0  0  0  0  0  0  0  0
    1.0748   -0.1761    0.5354 C   0  0  2  0  0  0  0  0  0  0  0  0
    1.2499   -1.4131    1.1548 O   0  0  0  0  0  0  0  0  0  0  0  0
   -0.3652    0.1784    0.6064 C   0  0  2  0  0  0  0  0  0  0  0  0
   -1.2755   -0.7705   -0.0994 C   0  0  0  0  0  0  0  0  0  0  0  0
   -2.4175    0.1136   -0.5358 C   0  0  0  0  0  0  0  0  0  0  0  0
   -2.1739    1.4292   -0.0110 N   0  0  0  0  0  0  0  0  0  0  0  0
   -0.7200    1.5026   -0.0075 C   0  0  0  0  0  0  0  0  0  0  0  0
    3.2070   -1.1811    0.0515 H   0  0  0  0  0  0  0  0  0  0  0  0
    3.6138    0.3351   -0.6876 H   0  0  0  0  0  0  0  0  0  0  0  0
    1.5411    0.6646   -1.4308 H   0  0  0  0  0  0  0  0  0  0  0  0
    1.1782   -1.0809   -1.4278 H   0  0  0  0  0  0  0  0  0  0  0  0
    1.6497    0.5631    1.1289 H   0  0  0  0  0  0  0  0  0  0  0  0
    1.0730   -2.1038    0.4560 H   0  0  0  0  0  0  0  0  0  0  0  0
   -0.6754    0.2177    1.6705 H   0  0  0  0  0  0  0  0  0  0  0  0
   -0.7991   -1.2552   -0.9606 H   0  0  0  0  0  0  0  0  0  0  0  0
   -1.6532   -1.5651    0.5790 H   0  0  0  0  0  0  0  0  0  0  0  0
   -2.4925    0.1301   -1.6480 H   0  0  0  0  0  0  0  0  0  0  0  0
   -3.3901   -0.2325   -0.1318 H   0  0  0  0  0  0  0  0  0  0  0  0
   -2.5339    1.5119    0.9732 H   0  0  0  0  0  0  0  0  0  0  0  0
   -0.3792    2.3628    0.6034 H   0  0  0  0  0  0  0  0  0  0  0  0
   -0.4212    1.5786   -1.0715 H   0  0  0  0  0  0  0  0  0  0  0  0
  1  2  1  0
  2  3  1  0
  3  4  1  0
  3  5  1  0
  5  6  1  0
  6  7  1  0
  7  8  1  0
  8  9  1  0
  9  5  1  0
  1 10  1  0
  1 11  1  0
  2 12  1  0
  2 13  1  0
  3 14  1  1
  4 15  1  0
  5 16  1  1
  6 17  1  0
  6 18  1  0
  7 19  1  0
  7 20  1  0
  8 21  1  0
  9 22  1  0
  9 23  1  0
M  END
$$$$

     RDKit          3D

 23 23  0  0  0  0  0  0  0  0999 V2000
    3.2863    0.4976   -0.4737 N   0  0  0  0  0  0  0  0  0  0  0  0
    1.8624    0.8296   -0.5737 C   0  0  0  0  0  0  0  0  0  0  0  0
    1.0689   -0.4139   -0.2384 C   0  0  2  0  0  0  0  0  0  0  0  0
    1.4230   -1.3922   -1.1585 O   0  0  0  0  0  0  0  0  0  0  0  0
   -0.3916   -0.0961   -0.4607 C   0  0  2  0  0  0  0  0  0  0  0  0
   -0.8350    1.0629    0.4383 C   0  0  0  0  0  0  0  0  0  0  0  0
   -2.3500    0.8169    0.3838 C   0  0  0  0  0  0  0  0  0  0  0  0
   -2.3794   -0.5866    0.7424 N   0  0  0  0  0  0  0  0  0  0  0  0
   -1.3063   -1.1963    0.0040 C   0  0  0  0  0  0  0  0  0  0  0  0
    3.4879    0.0567    0.4494 H   0  0  0  0  0  0  0  0  0  0  0  0
    3.4780   -0.2424   -1.1938 H   0  0  0  0  0  0  0  0  0  0  0  0
    1.6023    1.6047    0.1611 H   0  0  0  0  0  0  0  0  0  0  0  0
    1.6343    1.2084   -1.5699 H   0  0  0  0  0  0  0  0  0  0  0  0
    1.2047   -0.7446    0.7887 H   0  0  0  0  0  0  0  0  0  0  0  0
    1.0804   -2.2737   -0.8702 H   0  0  0  0  0  0  0  0  0  0  0  0
   -0.5802    0.2213   -1.4994 H   0  0  0  0  0  0  0  0  0  0  0  0
   -0.5342    0.8682    1.4754 H   0  0  0  0  0  0  0  0  0  0  0  0
   -0.5563    2.0345    0.0392 H   0  0  0  0  0  0  0  0  0  0  0  0
   -2.8889    1.4604    1.0810 H   0  0  0  0  0  0  0  0  0  0  0  0
   -2.6282    0.9482   -0.6772 H   0  0  0  0  0  0  0  0  0  0  0  0
   -3.3068   -1.0262    0.5612 H   0  0  0  0  0  0  0  0  0  0  0  0
   -0.7215   -1.8166    0.7349 H   0  0  0  0  0  0  0  0  0  0  0  0
   -1.6500   -1.8205   -0.8378 H   0  0  0  0  0  0  0  0  0  0  0  0
  1  2  1  0
  2  3  1  0
  3  4  1  0
  3  5  1  0
  5  6  1  0
  6  7  1  0
  7  8  1  0
  8  9  1  0
  9  5  1  0
  1 10  1  0
  1 11  1  0
  2 12  1  0
  2 13  1  0
  3 14  1  1
  4 15  1  0
  5 16  1  6
  6 17  1  0
  6 18  1  0
  7 19  1  0
  7 20  1  0
  8 21  1  0
  9 22  1  0
  9 23  1  0
M  END
$$$$

     RDKit          3D

 23 23  0  0  0  0  0  0  0  0999 V2000
    1.8416   -1.3580   -0.4189 N   0  0  0  0  0  0  0  0  0  0  0  0
    1.9162   -0.1060    0.2627 C   0  0  0  0  0  0  0  0  0  0  0  0
    1.0296    0.9723   -0.2096 C   0  0  2  0  0  0  0  0  0  0  0  0
    1.2730    2.1014    0.5980 O   0  0  0  0  0  0  0  0  0  0  0  0
   -0.4158    0.7282   -0.2851 C   0  0  2  0  0  0  0  0  0  0  0  0
   -1.1079    0.3628    0.9789 C   0  0  0  0  0  0  0  0  0  0  0  0
   -2.3293   -0.3359    0.4117 C   0  0  0  0  0  0  0  0  0  0  0  0
   -1.6420   -1.2853   -0.4849 N   0  0  0  0  0  0  0  0  0  0  0  0
   -0.8567   -0.3110   -1.2681 C   0  0  0  0  0  0  0  0  0  0  0  0
    2.3378   -1.3625   -1.3382 H   0  0  0  0  0  0  0  0  0  0  0  0
    2.2483   -2.0914    0.2040 H   0  0  0  0  0  0  0  0  0  0  0  0
    1.8377   -0.2963    1.3538 H   0  0  0  0  0  0  0  0  0  0  0  0
    2.9771    0.2630    0.1265 H   0  0  0  0  0  0  0  0  0  0  0  0
    1.3768    1.2844   -1.2339 H   0  0  0  0  0  0  0  0  0  0  0  0
    0.8213    1.8887    1.4724 H   0  0  0  0  0  0  0  0  0  0  0  0
   -0.9064    1.6967   -0.6203 H   0  0  0  0  0  0  0  0  0  0  0  0
   -0.5832   -0.3958    1.5869 H   0  0  0  0  0  0  0  0  0  0  0  0
   -1.4689    1.2260    1.5694 H   0  0  0  0  0  0  0  0  0  0  0  0
   -2.8889    0.3434   -0.2540 H   0  0  0  0  0  0  0  0  0  0  0  0
   -2.9252   -0.8488    1.1616 H   0  0  0  0  0  0  0  0  0  0  0  0
   -0.9281   -1.7578    0.1393 H   0  0  0  0  0  0  0  0  0  0  0  0
   -1.6020    0.0793   -2.0049 H   0  0  0  0  0  0  0  0  0  0  0  0
   -0.0051   -0.7974   -1.7474 H   0  0  0  0  0  0  0  0  0  0  0  0
  1  2  1  0
  2  3  1  0
  3  4  1  0
  3  5  1  0
  5  6  1  0
  6  7  1  0
  7  8  1  0
  8  9  1  0
  9  5  1  0
  1 10  1  0
  1 11  1  0
  2 12  1  0
  2 13  1  0
  3 14  1  6
  4 15  1  0
  5 16  1  6
  6 17  1  0
  6 18  1  0
  7 19  1  0
  7 20  1  0
  8 21  1  0
  9 22  1  0
  9 23  1  0
M  END
$$$$

     RDKit          3D

 23 23  0  0  0  0  0  0  0  0999 V2000
    3.1051    0.9656    0.1122 N   0  0  0  0  0  0  0  0  0  0  0  0
    1.8728    0.4956   -0.4982 C   0  0  0  0  0  0  0  0  0  0  0  0
    0.9804    0.0104    0.6137 C   0  0  2  0  0  0  0  0  0  0  0  0
    1.5962   -1.0210    1.3063 O   0  0  0  0  0  0  0  0  0  0  0  0
   -0.2987   -0.5191    0.0176 C   0  0  2  0  0  0  0  0  0  0  0  0
   -1.0440    0.5403   -0.7666 C   0  0  0  0  0  0  0  0  0  0  0  0
   -2.4539   -0.0239   -0.6797 C   0  0  0  0  0  0  0  0  0  0  0  0
   -2.5379   -0.2473    0.7679 N   0  0  0  0  0  0  0  0  0  0  0  0
   -1.2962   -0.9194    1.0648 C   0  0  0  0  0  0  0  0  0  0  0  0
    3.6964    0.1969    0.4455 H   0  0  0  0  0  0  0  0  0  0  0  0
    3.6038    1.6655   -0.4933 H   0  0  0  0  0  0  0  0  0  0  0  0
    2.1142   -0.3803   -1.1555 H   0  0  0  0  0  0  0  0  0  0  0  0
    1.3886    1.3186   -1.0538 H   0  0  0  0  0  0  0  0  0  0  0  0
    0.7331    0.8309    1.3109 H   0  0  0  0  0  0  0  0  0  0  0  0
    0.9130   -1.5172    1.8120 H   0  0  0  0  0  0  0  0  0  0  0  0
   -0.0980   -1.3504   -0.6896 H   0  0  0  0  0  0  0  0  0  0  0  0
   -1.0018    1.5031   -0.2003 H   0  0  0  0  0  0  0  0  0  0  0  0
   -0.6956    0.6319   -1.8055 H   0  0  0  0  0  0  0  0  0  0  0  0
   -2.4829   -1.0022   -1.1670 H   0  0  0  0  0  0  0  0  0  0  0  0
   -3.2111    0.6949   -1.0299 H   0  0  0  0  0  0  0  0  0  0  0  0
   -2.5047    0.7233    1.1877 H   0  0  0  0  0  0  0  0  0  0  0  0
   -0.8900   -0.5931    2.0529 H   0  0  0  0  0  0  0  0  0  0  0  0
   -1.4890   -2.0031    1.0363 H   0  0  0  0  0  0  0  0  0  0  0  0
  1  2  1  0
  2  3  1  0
  3  4  1  0
  3  5  1  0
  5  6  1  0
  6  7  1  0
  7  8  1  0
  8  9  1  0
  9  5  1  0
  1 10  1  0
  1 11  1  0
  2 12  1  0
  2 13  1  0
  3 14  1  1
  4 15  1  0
  5 16  1  6
  6 17  1  0
  6 18  1  0
  7 19  1  0
  7 20  1  0
  8 21  1  0
  9 22  1  0
  9 23  1  0
M  END
$$$$
