
     RDKit          3D

 17 17  0  0  0  0  0  0  0  0999 V2000
    2.9695   -0.9259   -0.4519 O   0  0  0  0  0  0  0  0  0  0  0  0
    2.2217    0.0358   -0.2237 C   0  0  0  0  0  0  0  0  0  0  0  0
    2.8093    1.2358    0.1432 O   0  0  0  0  0  0  0  0  0  0  0  0
    0.7661   -0.1317   -0.3490 C   0  0  1  0  0  0  0  0  0  0  0  0
    0.4532   -1.4344   -0.7297 O   0  0  0  0  0  0  0  0  0  0  0  0
    0.0257    0.1625    0.9419 C   0  0  0  0  0  0  0  0  0  0  0  0
   -1.3886   -0.0435    0.6657 N   0  0  0  0  0  0  0  0  0  0  0  0
   -2.3081    0.8281    0.2258 C   0  0  0  0  0  0  0  0  0  0  0  0
   -3.4751    0.1704    0.1240 N   0  0  0  0  0  0  0  0  0  0  0  0
   -3.2515   -1.0825    0.5005 N   0  0  0  0  0  0  0  0  0  0  0  0
   -1.9960   -1.2241    0.8297 N   0  0  0  0  0  0  0  0  0  0  0  0
    3.6314    1.2517    0.7615 H   0  0  0  0  0  0  0  0  0  0  0  0
    0.4149    0.6098   -1.1072 H   0  0  0  0  0  0  0  0  0  0  0  0
    0.6607   -2.0136    0.0393 H   0  0  0  0  0  0  0  0  0  0  0  0
    0.3388   -0.5101    1.7508 H   0  0  0  0  0  0  0  0  0  0  0  0
    0.2006    1.2070    1.2822 H   0  0  0  0  0  0  0  0  0  0  0  0
   -2.0727    1.8648    0.0122 H   0  0  0  0  0  0  0  0  0  0  0  0
  1  2  2  0
  2  3  1  0
  2  4  1  0
  4  5  1  0
  4  6  1  0
  6  7  1  0
  7  8  1  0
  8  9  2  0
  9 10  1  0
 10 11  2  0
 11  7  1  0
  3 12  1  0
  4 13  1  6
  5 14  1  0
  6 15  1  0
  6 16  1  0
  8 17  1  0
M  END
$$$$

     RDKit          3D

 17 17  0  0  0  0  0  0  0  0999 V2000
    0.2943    1.7601   -0.5774 O   0  0  0  0  0  0  0  0  0  0  0  0
    1.1827    0.9001   -0.5718 C   0  0  0  0  0  0  0  0  0  0  0  0
    2.4960    1.3373   -0.4055 O   0  0  0  0  0  0  0  0  0  0  0  0
    0.8617   -0.5182   -0.7337 C   0  0  1  0  0  0  0  0  0  0  0  0
    2.0613   -1.2605   -0.7179 O   0  0  0  0  0  0  0  0  0  0  0  0
   -0.0209   -1.0106    0.3695 C   0  0  0  0  0  0  0  0  0  0  0  0
   -1.2868   -0.3244    0.4620 N   0  0  0  0  0  0  0  0  0  0  0  0
   -1.5836    0.7615    1.1776 C   0  0  0  0  0  0  0  0  0  0  0  0
   -2.8783    1.0296    0.9426 N   0  0  0  0  0  0  0  0  0  0  0  0
   -3.3338    0.1246    0.1094 N   0  0  0  0  0  0  0  0  0  0  0  0
   -2.3709   -0.7244   -0.2037 N   0  0  0  0  0  0  0  0  0  0  0  0
    2.6535    2.2315    0.0366 H   0  0  0  0  0  0  0  0  0  0  0  0
    0.4314   -0.6679   -1.7307 H   0  0  0  0  0  0  0  0  0  0  0  0
    2.1219   -1.8931   -1.4493 H   0  0  0  0  0  0  0  0  0  0  0  0
    0.5428   -0.9621    1.3388 H   0  0  0  0  0  0  0  0  0  0  0  0
   -0.2195   -2.1124    0.2304 H   0  0  0  0  0  0  0  0  0  0  0  0
   -0.9518    1.3290    1.8193 H   0  0  0  0  0  0  0  0  0  0  0  0
  1  2  2  0
  2  3  1  0
  2  4  1  0
  4  5  1  0
  4  6  1  0
  6  7  1  0
  7  8  1  0
  8  9  2  0
  9 10  1  0
 10 11  2  0
 11  7  1  0
  3 12  1  0
  4 13  1  6
  5 14  1  0
  6 15  1  0
  6 16  1  0
  8 17  1  0
M  END
$$$$

     RDKit          3D

 17 17  0  0  0  0  0  0  0  0999 V2000
   -1.7814    1.5407   -1.1028 O   0  0  0  0  0  0  0  0  0  0  0  0
   -1.6095    0.9501   -0.0220 C   0  0  0  0  0  0  0  0  0  0  0  0
   -1.7563    1.6943    1.1457 O   0  0  0  0  0  0  0  0  0  0  0  0
   -1.2674   -0.4694    0.0031 C   0  0  1  0  0  0  0  0  0  0  0  0
   -1.1851   -0.9582   -1.2773 O   0  0  0  0  0  0  0  0  0  0  0  0
    0.0161   -0.7562    0.7501 C   0  0  0  0  0  0  0  0  0  0  0  0
    1.1543   -0.0990    0.1921 N   0  0  0  0  0  0  0  0  0  0  0  0
    1.9548   -0.5905   -0.7471 C   0  0  0  0  0  0  0  0  0  0  0  0
    2.9183    0.3169   -1.0181 N   0  0  0  0  0  0  0  0  0  0  0  0
    2.6888    1.3508   -0.2368 N   0  0  0  0  0  0  0  0  0  0  0  0
    1.6264    1.1071    0.4959 N   0  0  0  0  0  0  0  0  0  0  0  0
   -1.4280    2.6595    1.1897 H   0  0  0  0  0  0  0  0  0  0  0  0
   -2.0800   -1.0093    0.5676 H   0  0  0  0  0  0  0  0  0  0  0  0
   -1.1701   -1.9541   -1.2120 H   0  0  0  0  0  0  0  0  0  0  0  0
    0.1387   -1.8707    0.7516 H   0  0  0  0  0  0  0  0  0  0  0  0
   -0.1297   -0.3582    1.7831 H   0  0  0  0  0  0  0  0  0  0  0  0
    1.9101   -1.5539   -1.2627 H   0  0  0  0  0  0  0  0  0  0  0  0
  1  2  2  0
  2  3  1  0
  2  4  1  0
  4  5  1  0
  4  6  1  0
  6  7  1  0
  7  8  1  0
  8  9  2  0
  9 10  1  0
 10 11  2  0
 11  7  1  0
  3 12  1  0
  4 13  1  1
  5 14  1  0
  6 15  1  0
  6 16  1  0
  8 17  1  0
M  END
$$$$

     RDKit          3D

 17 17  0  0  0  0  0  0  0  0999 V2000
    2.8234    0.3725    0.4565 O   0  0  0  0  0  0  0  0  0  0  0  0
    1.6585    0.3216   -0.0098 C   0  0  0  0  0  0  0  0  0  0  0  0
    1.0559    1.5344   -0.3049 O   0  0  0  0  0  0  0  0  0  0  0  0
    0.9138   -0.9219   -0.2553 C   0  0  1  0  0  0  0  0  0  0  0  0
    1.7574   -1.9859    0.1303 O   0  0  0  0  0  0  0  0  0  0  0  0
   -0.3260   -1.0566    0.5804 C   0  0  0  0  0  0  0  0  0  0  0  0
   -1.2858   -0.0264    0.3884 N   0  0  0  0  0  0  0  0  0  0  0  0
   -1.4035    1.1454    1.0339 C   0  0  0  0  0  0  0  0  0  0  0  0
   -2.4579    1.8129    0.5258 N   0  0  0  0  0  0  0  0  0  0  0  0
   -2.9620    1.0488   -0.4103 N   0  0  0  0  0  0  0  0  0  0  0  0
   -2.2664   -0.0475   -0.4950 N   0  0  0  0  0  0  0  0  0  0  0  0
    1.5998    2.3873   -0.3059 H   0  0  0  0  0  0  0  0  0  0  0  0
    0.7056   -1.0767   -1.3269 H   0  0  0  0  0  0  0  0  0  0  0  0
    1.7904   -1.9186    1.1353 H   0  0  0  0  0  0  0  0  0  0  0  0
   -0.0446   -1.0855    1.6507 H   0  0  0  0  0  0  0  0  0  0  0  0
   -0.7814   -2.0419    0.3258 H   0  0  0  0  0  0  0  0  0  0  0  0
   -0.7774    1.5379    1.8405 H   0  0  0  0  0  0  0  0  0  0  0  0
  1  2  2  0
  2  3  1  0
  2  4  1  0
  4  5  1  0
  4  6  1  0
  6  7  1  0
  7  8  1  0
  8  9  2  0
  9 10  1  0
 10 11  2  0
 11  7  1  0
  3 12  1  0
  4 13  1  6
  5 14  1  0
  6 15  1  0
  6 16  1  0
  8 17  1  0
M  END
$$$$

     RDKit          3D

 17 17  0  0  0  0  0  0  0  0999 V2000
   -3.0422   -0.0521   -1.0828 O   0  0  0  0  0  0  0  0  0  0  0  0
   -2.2428   -0.2345   -0.1314 C   0  0  0  0  0  0  0  0  0  0  0  0
   -2.7722   -0.0920    1.1532 O   0  0  0  0  0  0  0  0  0  0  0  0
   -0.8221   -0.5806   -0.3762 C   0  0  1  0  0  0  0  0  0  0  0  0
   -0.6334   -0.6417   -1.7537 O   0  0  0  0  0  0  0  0  0  0  0  0
    0.0360    0.5752    0.1358 C   0  0  0  0  0  0  0  0  0  0  0  0
    1.4310    0.2885   -0.0788 N   0  0  0  0  0  0  0  0  0  0  0  0
    2.1984   -0.3559    0.8424 C   0  0  0  0  0  0  0  0  0  0  0  0
    3.4317   -0.4550    0.3231 N   0  0  0  0  0  0  0  0  0  0  0  0
    3.3811    0.1174   -0.8692 N   0  0  0  0  0  0  0  0  0  0  0  0
    2.1835    0.5714   -1.1289 N   0  0  0  0  0  0  0  0  0  0  0  0
   -3.4827    0.5688    1.3738 H   0  0  0  0  0  0  0  0  0  0  0  0
   -0.5263   -1.5213    0.1263 H   0  0  0  0  0  0  0  0  0  0  0  0
   -0.6703    0.3008   -2.0815 H   0  0  0  0  0  0  0  0  0  0  0  0
   -0.2233    1.4816   -0.4227 H   0  0  0  0  0  0  0  0  0  0  0  0
   -0.1395    0.7527    1.2169 H   0  0  0  0  0  0  0  0  0  0  0  0
    1.8933   -0.7233    1.8079 H   0  0  0  0  0  0  0  0  0  0  0  0
  1  2  2  0
  2  3  1  0
  2  4  1  0
  4  5  1  0
  4  6  1  0
  6  7  1  0
  7  8  1  0
  8  9  2  0
  9 10  1  0
 10 11  2  0
 11  7  1  0
  3 12  1  0
  4 13  1  1
  5 14  1  0
  6 15  1  0
  6 16  1  0
  8 17  1  0
M  END
$$$$

     RDKit          3D

 17 17  0  0  0  0  0  0  0  0999 V2000
   -2.9054   -1.1732   -0.9492 O   0  0  0  0  0  0  0  0  0  0  0  0
   -2.1885   -0.2695   -0.4570 C   0  0  0  0  0  0  0  0  0  0  0  0
   -2.7083    1.0108   -0.3523 O   0  0  0  0  0  0  0  0  0  0  0  0
   -0.8030   -0.4950    0.0241 C   0  0  1  0  0  0  0  0  0  0  0  0
   -0.4840   -1.8332   -0.1718 O   0  0  0  0  0  0  0  0  0  0  0  0
    0.1708    0.4232   -0.6815 C   0  0  0  0  0  0  0  0  0  0  0  0
    1.5167    0.2466   -0.2555 N   0  0  0  0  0  0  0  0  0  0  0  0
    2.1422    0.8802    0.7456 C   0  0  0  0  0  0  0  0  0  0  0  0
    3.4040    0.4007    0.7927 N   0  0  0  0  0  0  0  0  0  0  0  0
    3.5184   -0.5000   -0.1650 N   0  0  0  0  0  0  0  0  0  0  0  0
    2.3732   -0.5978   -0.8058 N   0  0  0  0  0  0  0  0  0  0  0  0
   -3.7187    1.1564   -0.4089 H   0  0  0  0  0  0  0  0  0  0  0  0
   -0.8108   -0.3224    1.1225 H   0  0  0  0  0  0  0  0  0  0  0  0
   -1.1373   -2.2803   -0.7751 H   0  0  0  0  0  0  0  0  0  0  0  0
    0.0505    0.2659   -1.7674 H   0  0  0  0  0  0  0  0  0  0  0  0
   -0.1412    1.4654   -0.4563 H   0  0  0  0  0  0  0  0  0  0  0  0
    1.7214    1.6222    1.3831 H   0  0  0  0  0  0  0  0  0  0  0  0
  1  2  2  0
  2  3  1  0
  2  4  1  0
  4  5  1  0
  4  6  1  0
  6  7  1  0
  7  8  1  0
  8  9  2  0
  9 10  1  0
 10 11  2  0
 11  7  1  0
  3 12  1  0
  4 13  1  1
  5 14  1  0
  6 15  1  0
  6 16  1  0
  8 17  1  0
M  END
$$$$

     RDKit          3D

 17 17  0  0  0  0  0  0  0  0999 V2000
   -2.1229    1.2167    0.3388 O   0  0  0  0  0  0  0  0  0  0  0  0
   -1.7332    0.1418   -0.1605 C   0  0  0  0  0  0  0  0  0  0  0  0
   -2.0886   -0.2155   -1.4375 O   0  0  0  0  0  0  0  0  0  0  0  0
   -0.8765   -0.7433    0.6563 C   0  0  1  0  0  0  0  0  0  0  0  0
   -0.5569   -1.8613   -0.0609 O   0  0  0  0  0  0  0  0  0  0  0  0
    0.3088   -0.0051    1.2091 C   0  0  0  0  0  0  0  0  0  0  0  0
    1.1590    0.5546    0.2088 N   0  0  0  0  0  0  0  0  0  0  0  0
    2.2139   -0.0350   -0.3773 C   0  0  0  0  0  0  0  0  0  0  0  0
    2.7755    0.7915   -1.2712 N   0  0  0  0  0  0  0  0  0  0  0  0
    2.0344    1.9021   -1.2147 N   0  0  0  0  0  0  0  0  0  0  0  0
    1.0726    1.7625   -0.3348 N   0  0  0  0  0  0  0  0  0  0  0  0
   -2.6821    0.4188   -1.9603 H   0  0  0  0  0  0  0  0  0  0  0  0
   -1.5152   -1.0774    1.5205 H   0  0  0  0  0  0  0  0  0  0  0  0
   -1.2657   -2.0219   -0.7310 H   0  0  0  0  0  0  0  0  0  0  0  0
   -0.1062    0.8564    1.8100 H   0  0  0  0  0  0  0  0  0  0  0  0
    0.8322   -0.6427    1.9514 H   0  0  0  0  0  0  0  0  0  0  0  0
    2.5509   -1.0423   -0.1467 H   0  0  0  0  0  0  0  0  0  0  0  0
  1  2  2  0
  2  3  1  0
  2  4  1  0
  4  5  1  0
  4  6  1  0
  6  7  1  0
  7  8  1  0
  8  9  2  0
  9 10  1  0
 10 11  2  0
 11  7  1  0
  3 12  1  0
  4 13  1  1
  5 14  1  0
  6 15  1  0
  6 16  1  0
  8 17  1  0
M  END
$$$$

     RDKit          3D

 17 17  0  0  0  0  0  0  0  0999 V2000
    2.7387    0.7193    0.8715 O   0  0  0  0  0  0  0  0  0  0  0  0
    1.6242    0.7336    0.2954 C   0  0  0  0  0  0  0  0  0  0  0  0
    0.8446    1.8590    0.3815 O   0  0  0  0  0  0  0  0  0  0  0  0
    1.1896   -0.4446   -0.4482 C   0  0  1  0  0  0  0  0  0  0  0  0
    2.1499   -1.4622   -0.3929 O   0  0  0  0  0  0  0  0  0  0  0  0
   -0.0983   -1.0466    0.0825 C   0  0  0  0  0  0  0  0  0  0  0  0
   -1.2027   -0.1324    0.0376 N   0  0  0  0  0  0  0  0  0  0  0  0
   -2.0526    0.0215   -0.9763 C   0  0  0  0  0  0  0  0  0  0  0  0
   -2.9243    0.9704   -0.6064 N   0  0  0  0  0  0  0  0  0  0  0  0
   -2.6174    1.3942    0.6142 N   0  0  0  0  0  0  0  0  0  0  0  0
   -1.5540    0.6985    0.9861 N   0  0  0  0  0  0  0  0  0  0  0  0
    1.2525    2.8023    0.4571 H   0  0  0  0  0  0  0  0  0  0  0  0
    0.9967   -0.2093   -1.5273 H   0  0  0  0  0  0  0  0  0  0  0  0
    1.9792   -2.0080    0.4347 H   0  0  0  0  0  0  0  0  0  0  0  0
   -0.2952   -1.9523   -0.5600 H   0  0  0  0  0  0  0  0  0  0  0  0
    0.0531   -1.4556    1.1102 H   0  0  0  0  0  0  0  0  0  0  0  0
   -2.0841   -0.4878   -1.9317 H   0  0  0  0  0  0  0  0  0  0  0  0
  1  2  2  0
  2  3  1  0
  2  4  1  0
  4  5  1  0
  4  6  1  0
  6  7  1  0
  7  8  1  0
  8  9  2  0
  9 10  1  0
 10 11  2  0
 11  7  1  0
  3 12  1  0
  4 13  1  6
  5 14  1  0
  6 15  1  0
  6 16  1  0
  8 17  1  0
M  END
$$$$
