
     RDKit          3D

 21 21  0  0  0  0  0  0  0  0999 V2000
    3.6453    0.4109    0.4024 C   0  0  0  0  0  0  0  0  0  0  0  0
    2.3092    0.1919   -0.1060 N   0  0  0  0  0  0  0  0  0  0  0  0
    1.9340    0.1633   -1.3613 N   0  0  0  0  0  0  0  0  0  0  0  0
    0.6411   -0.0629   -1.3709 N   0  0  0  0  0  0  0  0  0  0  0  0
    0.1886   -0.1791   -0.1242 C   0  0  0  0  0  0  0  0  0  0  0  0
   -1.2067   -0.4351    0.2624 C   0  0  1  0  0  0  0  0  0  0  0  0
   -2.0758    0.6989   -0.2483 C   0  0  0  0  0  0  0  0  0  0  0  0
   -1.6894    1.9723    0.2871 N   0  0  0  0  0  0  0  0  0  0  0  0
   -1.7108   -1.6922   -0.3878 C   0  0  0  0  0  0  0  0  0  0  0  0
   -2.6942   -1.7015   -1.1642 O   0  0  0  0  0  0  0  0  0  0  0  0
   -1.0468   -2.8697   -0.1019 O   0  0  0  0  0  0  0  0  0  0  0  0
    1.2467   -0.0178    0.6871 N   0  0  0  0  0  0  0  0  0  0  0  0
    4.3481    0.4685   -0.4518 H   0  0  0  0  0  0  0  0  0  0  0  0
    3.6671    1.3637    0.9886 H   0  0  0  0  0  0  0  0  0  0  0  0
    3.9672   -0.4478    1.0292 H   0  0  0  0  0  0  0  0  0  0  0  0
   -1.3358   -0.4901    1.3620 H   0  0  0  0  0  0  0  0  0  0  0  0
   -2.0189    0.7746   -1.3566 H   0  0  0  0  0  0  0  0  0  0  0  0
   -3.1470    0.5274    0.0311 H   0  0  0  0  0  0  0  0  0  0  0  0
   -0.9843    2.4602   -0.2975 H   0  0  0  0  0  0  0  0  0  0  0  0
   -2.5000    2.6057    0.4651 H   0  0  0  0  0  0  0  0  0  0  0  0
   -1.5376   -3.7411   -0.1801 H   0  0  0  0  0  0  0  0  0  0  0  0
  1  2  1  0
  2  3  1  0
  3  4  2  0
  4  5  1  0
  5  6  1  0
  6  7  1  0
  7  8  1  0
  6  9  1  0
  9 10  2  0
  9 11  1  0
  5 12  2  0
 12  2  1  0
  1 13  1  0
  1 14  1  0
  1 15  1  0
  6 16  1  1
  7 17  1  0
  7 18  1  0
  8 19  1  0
  8 20  1  0
 11 21  1  0
M  END
$$$$

     RDKit          3D

 21 21  0  0  0  0  0  0  0  0999 V2000
    3.4215    0.2597    0.1097 C   0  0  0  0  0  0  0  0  0  0  0  0
    2.1121    0.0377   -0.4745 N   0  0  0  0  0  0  0  0  0  0  0  0
    1.8321   -0.4235   -1.6810 N   0  0  0  0  0  0  0  0  0  0  0  0
    0.5010   -0.4696   -1.8052 N   0  0  0  0  0  0  0  0  0  0  0  0
   -0.0246   -0.0341   -0.6682 C   0  0  0  0  0  0  0  0  0  0  0  0
   -1.4802    0.0834   -0.3649 C   0  0  1  0  0  0  0  0  0  0  0  0
   -1.7986   -0.8631    0.7854 C   0  0  0  0  0  0  0  0  0  0  0  0
   -1.4502   -2.2006    0.3215 N   0  0  0  0  0  0  0  0  0  0  0  0
   -1.8190    1.4758    0.0142 C   0  0  0  0  0  0  0  0  0  0  0  0
   -2.6579    2.0909   -0.6873 O   0  0  0  0  0  0  0  0  0  0  0  0
   -1.2353    2.0835    1.1019 O   0  0  0  0  0  0  0  0  0  0  0  0
    0.9851    0.2817    0.1603 N   0  0  0  0  0  0  0  0  0  0  0  0
    3.4835    1.2485    0.6134 H   0  0  0  0  0  0  0  0  0  0  0  0
    4.2279    0.2392   -0.6698 H   0  0  0  0  0  0  0  0  0  0  0  0
    3.6512   -0.5861    0.7927 H   0  0  0  0  0  0  0  0  0  0  0  0
   -2.0705   -0.2488   -1.2346 H   0  0  0  0  0  0  0  0  0  0  0  0
   -2.8459   -0.7890    1.0988 H   0  0  0  0  0  0  0  0  0  0  0  0
   -1.1449   -0.6412    1.6445 H   0  0  0  0  0  0  0  0  0  0  0  0
   -0.4881   -2.1065   -0.1132 H   0  0  0  0  0  0  0  0  0  0  0  0
   -2.0799   -2.5262   -0.4376 H   0  0  0  0  0  0  0  0  0  0  0  0
   -1.1192    3.0886    1.1444 H   0  0  0  0  0  0  0  0  0  0  0  0
  1  2  1  0
  2  3  1  0
  3  4  2  0
  4  5  1  0
  5  6  1  0
  6  7  1  0
  7  8  1  0
  6  9  1  0
  9 10  2  0
  9 11  1  0
  5 12  2  0
 12  2  1  0
  1 13  1  0
  1 14  1  0
  1 15  1  0
  6 16  1  6
  7 17  1  0
  7 18  1  0
  8 19  1  0
  8 20  1  0
 11 21  1  0
M  END
$$$$

     RDKit          3D

 21 21  0  0  0  0  0  0  0  0999 V2000
    3.9291   -0.1620    0.2266 C   0  0  0  0  0  0  0  0  0  0  0  0
    2.5124   -0.2696   -0.1309 N   0  0  0  0  0  0  0  0  0  0  0  0
    2.0418   -0.7941   -1.2362 N   0  0  0  0  0  0  0  0  0  0  0  0
    0.7022   -0.7053   -1.1896 N   0  0  0  0  0  0  0  0  0  0  0  0
    0.3479   -0.1159   -0.0348 C   0  0  0  0  0  0  0  0  0  0  0  0
   -1.0536    0.1830    0.4298 C   0  0  1  0  0  0  0  0  0  0  0  0
   -1.6354    1.1418   -0.5666 C   0  0  0  0  0  0  0  0  0  0  0  0
   -2.9807    1.5394   -0.2785 N   0  0  0  0  0  0  0  0  0  0  0  0
   -1.7567   -1.0900    0.5224 C   0  0  0  0  0  0  0  0  0  0  0  0
   -2.7799   -1.2910   -0.1627 O   0  0  0  0  0  0  0  0  0  0  0  0
   -1.3136   -2.0904    1.3590 O   0  0  0  0  0  0  0  0  0  0  0  0
    1.4878    0.1479    0.6106 N   0  0  0  0  0  0  0  0  0  0  0  0
    4.4375    0.4445   -0.5361 H   0  0  0  0  0  0  0  0  0  0  0  0
    4.3121   -1.2042    0.2851 H   0  0  0  0  0  0  0  0  0  0  0  0
    4.0085    0.2820    1.2270 H   0  0  0  0  0  0  0  0  0  0  0  0
   -1.0204    0.6722    1.4209 H   0  0  0  0  0  0  0  0  0  0  0  0
   -0.9706    2.0524   -0.5555 H   0  0  0  0  0  0  0  0  0  0  0  0
   -1.5886    0.7515   -1.6002 H   0  0  0  0  0  0  0  0  0  0  0  0
   -3.1473    2.4584   -0.7544 H   0  0  0  0  0  0  0  0  0  0  0  0
   -3.6222    0.8616   -0.7811 H   0  0  0  0  0  0  0  0  0  0  0  0
   -1.9102   -2.8121    1.7453 H   0  0  0  0  0  0  0  0  0  0  0  0
  1  2  1  0
  2  3  1  0
  3  4  2  0
  4  5  1  0
  5  6  1  0
  6  7  1  0
  7  8  1  0
  6  9  1  0
  9 10  2  0
  9 11  1  0
  5 12  2  0
 12  2  1  0
  1 13  1  0
  1 14  1  0
  1 15  1  0
  6 16  1  1
  7 17  1  0
  7 18  1  0
  8 19  1  0
  8 20  1  0
 11 21  1  0
M  END
$$$$

     RDKit          3D

 21 21  0  0  0  0  0  0  0  0999 V2000
    3.7552    0.4017   -0.3200 C   0  0  0  0  0  0  0  0  0  0  0  0
    2.3436    0.2369    0.0058 N   0  0  0  0  0  0  0  0  0  0  0  0
    1.8441    0.0014    1.2091 N   0  0  0  0  0  0  0  0  0  0  0  0
    0.5224   -0.0937    1.1506 N   0  0  0  0  0  0  0  0  0  0  0  0
    0.2052    0.0921   -0.1446 C   0  0  0  0  0  0  0  0  0  0  0  0
   -1.1975    0.0660   -0.6663 C   0  0  1  0  0  0  0  0  0  0  0  0
   -1.7793   -1.2972   -0.3916 C   0  0  0  0  0  0  0  0  0  0  0  0
   -1.7805   -1.5545    1.0234 N   0  0  0  0  0  0  0  0  0  0  0  0
   -1.9644    1.1421   -0.0043 C   0  0  0  0  0  0  0  0  0  0  0  0
   -2.9716    0.8254    0.6741 O   0  0  0  0  0  0  0  0  0  0  0  0
   -1.6335    2.4825   -0.0905 O   0  0  0  0  0  0  0  0  0  0  0  0
    1.3488    0.2952   -0.8360 N   0  0  0  0  0  0  0  0  0  0  0  0
    4.3290    0.4983    0.6152 H   0  0  0  0  0  0  0  0  0  0  0  0
    4.0891   -0.5255   -0.8182 H   0  0  0  0  0  0  0  0  0  0  0  0
    3.8915    1.3031   -0.9519 H   0  0  0  0  0  0  0  0  0  0  0  0
   -1.1312    0.2498   -1.7617 H   0  0  0  0  0  0  0  0  0  0  0  0
   -2.8262   -1.2758   -0.8109 H   0  0  0  0  0  0  0  0  0  0  0  0
   -1.1707   -2.0541   -0.9251 H   0  0  0  0  0  0  0  0  0  0  0  0
   -2.7035   -1.8684    1.3721 H   0  0  0  0  0  0  0  0  0  0  0  0
   -0.9916   -2.1512    1.3433 H   0  0  0  0  0  0  0  0  0  0  0  0
   -2.1789    3.2257    0.3272 H   0  0  0  0  0  0  0  0  0  0  0  0
  1  2  1  0
  2  3  1  0
  3  4  2  0
  4  5  1  0
  5  6  1  0
  6  7  1  0
  7  8  1  0
  6  9  1  0
  9 10  2  0
  9 11  1  0
  5 12  2  0
 12  2  1  0
  1 13  1  0
  1 14  1  0
  1 15  1  0
  6 16  1  6
  7 17  1  0
  7 18  1  0
  8 19  1  0
  8 20  1  0
 11 21  1  0
M  END
$$$$

     RDKit          3D

 21 21  0  0  0  0  0  0  0  0999 V2000
    3.7197   -0.1378   -0.7050 C   0  0  0  0  0  0  0  0  0  0  0  0
    2.3565   -0.0460   -0.2091 N   0  0  0  0  0  0  0  0  0  0  0  0
    1.9754    0.1496    1.0351 N   0  0  0  0  0  0  0  0  0  0  0  0
    0.6717    0.1800    1.1361 N   0  0  0  0  0  0  0  0  0  0  0  0
    0.1971   -0.0060   -0.1097 C   0  0  0  0  0  0  0  0  0  0  0  0
   -1.2355   -0.0468   -0.4813 C   0  0  1  0  0  0  0  0  0  0  0  0
   -1.8782   -1.2023    0.2167 C   0  0  0  0  0  0  0  0  0  0  0  0
   -1.7770   -1.0895    1.6438 N   0  0  0  0  0  0  0  0  0  0  0  0
   -1.8901    1.2461   -0.1846 C   0  0  0  0  0  0  0  0  0  0  0  0
   -2.8521    1.3790    0.5983 O   0  0  0  0  0  0  0  0  0  0  0  0
   -1.3823    2.3726   -0.8329 O   0  0  0  0  0  0  0  0  0  0  0  0
    1.2497   -0.1448   -0.9343 N   0  0  0  0  0  0  0  0  0  0  0  0
    4.4220    0.0116    0.1286 H   0  0  0  0  0  0  0  0  0  0  0  0
    3.9109    0.5869   -1.5040 H   0  0  0  0  0  0  0  0  0  0  0  0
    3.8749   -1.1686   -1.0900 H   0  0  0  0  0  0  0  0  0  0  0  0
   -1.3154   -0.2169   -1.5907 H   0  0  0  0  0  0  0  0  0  0  0  0
   -2.9255   -1.2730   -0.1408 H   0  0  0  0  0  0  0  0  0  0  0  0
   -1.3354   -2.1212   -0.0837 H   0  0  0  0  0  0  0  0  0  0  0  0
   -1.6799   -0.1192    1.9565 H   0  0  0  0  0  0  0  0  0  0  0  0
   -2.5140   -1.6458    2.1053 H   0  0  0  0  0  0  0  0  0  0  0  0
   -1.5925    3.2920   -0.4947 H   0  0  0  0  0  0  0  0  0  0  0  0
  1  2  1  0
  2  3  1  0
  3  4  2  0
  4  5  1  0
  5  6  1  0
  6  7  1  0
  7  8  1  0
  6  9  1  0
  9 10  2  0
  9 11  1  0
  5 12  2  0
 12  2  1  0
  1 13  1  0
  1 14  1  0
  1 15  1  0
  6 16  1  6
  7 17  1  0
  7 18  1  0
  8 19  1  0
  8 20  1  0
 11 21  1  0
M  END
$$$$

     RDKit          3D

 21 21  0  0  0  0  0  0  0  0999 V2000
    3.8171    0.3390    0.2015 C   0  0  0  0  0  0  0  0  0  0  0  0
    2.4401   -0.0389   -0.1182 N   0  0  0  0  0  0  0  0  0  0  0  0
    2.0297   -0.7299   -1.1682 N   0  0  0  0  0  0  0  0  0  0  0  0
    0.7165   -0.8906   -1.1434 N   0  0  0  0  0  0  0  0  0  0  0  0
    0.2629   -0.2807   -0.0362 C   0  0  0  0  0  0  0  0  0  0  0  0
   -1.1681   -0.1923    0.4259 C   0  0  1  0  0  0  0  0  0  0  0  0
   -1.9640    0.6133   -0.5969 C   0  0  0  0  0  0  0  0  0  0  0  0
   -1.3485    1.9386   -0.6633 N   0  0  0  0  0  0  0  0  0  0  0  0
   -1.7196   -1.5342    0.6197 C   0  0  0  0  0  0  0  0  0  0  0  0
   -0.9999   -2.5395    0.3982 O   0  0  0  0  0  0  0  0  0  0  0  0
   -3.0272   -1.7040    1.0449 O   0  0  0  0  0  0  0  0  0  0  0  0
    1.3416    0.2308    0.5698 N   0  0  0  0  0  0  0  0  0  0  0  0
    4.1063    1.2833   -0.2814 H   0  0  0  0  0  0  0  0  0  0  0  0
    3.9398    0.4835    1.3026 H   0  0  0  0  0  0  0  0  0  0  0  0
    4.4892   -0.4649   -0.1598 H   0  0  0  0  0  0  0  0  0  0  0  0
   -1.2318    0.3751    1.3765 H   0  0  0  0  0  0  0  0  0  0  0  0
   -1.9434    0.1150   -1.5729 H   0  0  0  0  0  0  0  0  0  0  0  0
   -2.9996    0.7091   -0.2110 H   0  0  0  0  0  0  0  0  0  0  0  0
   -1.1661    2.2349    0.3241 H   0  0  0  0  0  0  0  0  0  0  0  0
   -2.0144    2.5867   -1.1011 H   0  0  0  0  0  0  0  0  0  0  0  0
   -3.5606   -2.5343    0.7892 H   0  0  0  0  0  0  0  0  0  0  0  0
  1  2  1  0
  2  3  1  0
  3  4  2  0
  4  5  1  0
  5  6  1  0
  6  7  1  0
  7  8  1  0
  6  9  1  0
  9 10  2  0
  9 11  1  0
  5 12  2  0
 12  2  1  0
  1 13  1  0
  1 14  1  0
  1 15  1  0
  6 16  1  1
  7 17  1  0
  7 18  1  0
  8 19  1  0
  8 20  1  0
 11 21  1  0
M  END
$$$$

     RDKit          3D

 21 21  0  0  0  0  0  0  0  0999 V2000
    3.7490    0.4337   -0.1086 C   0  0  0  0  0  0  0  0  0  0  0  0
    2.3247    0.2126   -0.3867 N   0  0  0  0  0  0  0  0  0  0  0  0
    1.7423    0.1619   -1.5735 N   0  0  0  0  0  0  0  0  0  0  0  0
    0.4300   -0.0572   -1.4173 N   0  0  0  0  0  0  0  0  0  0  0  0
    0.1836   -0.1461   -0.0982 C   0  0  0  0  0  0  0  0  0  0  0  0
   -1.1611   -0.3871    0.5077 C   0  0  1  0  0  0  0  0  0  0  0  0
   -2.1317    0.7097    0.1378 C   0  0  0  0  0  0  0  0  0  0  0  0
   -1.6783    1.9962    0.5937 N   0  0  0  0  0  0  0  0  0  0  0  0
   -1.6935   -1.7021    0.0772 C   0  0  0  0  0  0  0  0  0  0  0  0
   -2.7623   -1.7469   -0.5464 O   0  0  0  0  0  0  0  0  0  0  0  0
   -1.0196   -2.8977    0.3572 O   0  0  0  0  0  0  0  0  0  0  0  0
    1.3691    0.0243    0.5048 N   0  0  0  0  0  0  0  0  0  0  0  0
    4.2734    0.7164   -1.0195 H   0  0  0  0  0  0  0  0  0  0  0  0
    3.7958    1.2557    0.6568 H   0  0  0  0  0  0  0  0  0  0  0  0
    4.1936   -0.4621    0.3623 H   0  0  0  0  0  0  0  0  0  0  0  0
   -1.1024   -0.4182    1.6149 H   0  0  0  0  0  0  0  0  0  0  0  0
   -3.1594    0.4619    0.4604 H   0  0  0  0  0  0  0  0  0  0  0  0
   -2.1877    0.7617   -0.9893 H   0  0  0  0  0  0  0  0  0  0  0  0
   -2.1066    2.7867    0.1012 H   0  0  0  0  0  0  0  0  0  0  0  0
   -1.6100    2.0719    1.6147 H   0  0  0  0  0  0  0  0  0  0  0  0
   -1.4489   -3.7754    0.0636 H   0  0  0  0  0  0  0  0  0  0  0  0
  1  2  1  0
  2  3  1  0
  3  4  2  0
  4  5  1  0
  5  6  1  0
  6  7  1  0
  7  8  1  0
  6  9  1  0
  9 10  2  0
  9 11  1  0
  5 12  2  0
 12  2  1  0
  1 13  1  0
  1 14  1  0
  1 15  1  0
  6 16  1  1
  7 17  1  0
  7 18  1  0
  8 19  1  0
  8 20  1  0
 11 21  1  0
M  END
$$$$

     RDKit          3D

 21 21  0  0  0  0  0  0  0  0999 V2000
    3.8010   -0.2213    0.3163 C   0  0  0  0  0  0  0  0  0  0  0  0
    2.3449   -0.1952    0.4656 N   0  0  0  0  0  0  0  0  0  0  0  0
    1.6561   -0.5490    1.5265 N   0  0  0  0  0  0  0  0  0  0  0  0
    0.3698   -0.3863    1.2807 N   0  0  0  0  0  0  0  0  0  0  0  0
    0.2334    0.0893    0.0152 C   0  0  0  0  0  0  0  0  0  0  0  0
   -1.0003    0.4273   -0.7125 C   0  0  1  0  0  0  0  0  0  0  0  0
   -1.7646   -0.8634   -0.9224 C   0  0  0  0  0  0  0  0  0  0  0  0
   -2.0693   -1.4409    0.3566 N   0  0  0  0  0  0  0  0  0  0  0  0
   -1.7878    1.4289    0.0245 C   0  0  0  0  0  0  0  0  0  0  0  0
   -1.3912    1.8857    1.1231 O   0  0  0  0  0  0  0  0  0  0  0  0
   -2.9822    1.8797   -0.4915 O   0  0  0  0  0  0  0  0  0  0  0  0
    1.4842    0.1935   -0.4553 N   0  0  0  0  0  0  0  0  0  0  0  0
    4.0956    0.2511   -0.6334 H   0  0  0  0  0  0  0  0  0  0  0  0
    4.2422    0.3869    1.1314 H   0  0  0  0  0  0  0  0  0  0  0  0
    4.1485   -1.2604    0.2942 H   0  0  0  0  0  0  0  0  0  0  0  0
   -0.7265    0.7870   -1.7249 H   0  0  0  0  0  0  0  0  0  0  0  0
   -2.6960   -0.6473   -1.4732 H   0  0  0  0  0  0  0  0  0  0  0  0
   -1.1453   -1.5276   -1.5304 H   0  0  0  0  0  0  0  0  0  0  0  0
   -1.9767   -0.7585    1.1330 H   0  0  0  0  0  0  0  0  0  0  0  0
   -1.4929   -2.2847    0.5479 H   0  0  0  0  0  0  0  0  0  0  0  0
   -3.3427    2.8052   -0.2713 H   0  0  0  0  0  0  0  0  0  0  0  0
  1  2  1  0
  2  3  1  0
  3  4  2  0
  4  5  1  0
  5  6  1  0
  6  7  1  0
  7  8  1  0
  6  9  1  0
  9 10  2  0
  9 11  1  0
  5 12  2  0
 12  2  1  0
  1 13  1  0
  1 14  1  0
  1 15  1  0
  6 16  1  6
  7 17  1  0
  7 18  1  0
  8 19  1  0
  8 20  1  0
 11 21  1  0
M  END
$$$$
