
     RDKit          3D

 21 21  0  0  0  0  0  0  0  0999 V2000
   -0.6588   -2.5197   -0.5637 N   0  0  0  0  0  0  0  0  0  0  0  0
   -0.9301   -1.1850   -1.0667 C   0  0  0  0  0  0  0  0  0  0  0  0
   -0.5708   -0.1837    0.0120 C   0  0  2  0  0  0  0  0  0  0  0  0
   -0.8883    1.1798   -0.5807 C   0  0  0  0  0  0  0  0  0  0  0  0
   -0.5936    2.2926    0.3207 C   0  0  0  0  0  0  0  0  0  0  0  0
    0.3852    3.0648    0.0394 O   0  0  0  0  0  0  0  0  0  0  0  0
   -1.3446    2.5081    1.4466 O   0  0  0  0  0  0  0  0  0  0  0  0
    0.8249   -0.3286    0.4477 C   0  0  0  0  0  0  0  0  0  0  0  0
    1.3150   -0.6783    1.6725 N   0  0  0  0  0  0  0  0  0  0  0  0
    2.6299   -0.7019    1.6521 N   0  0  0  0  0  0  0  0  0  0  0  0
    2.9741   -0.3672    0.4118 N   0  0  0  0  0  0  0  0  0  0  0  0
    1.9115   -0.1369   -0.3360 N   0  0  0  0  0  0  0  0  0  0  0  0
   -0.9608   -2.6583    0.4107 H   0  0  0  0  0  0  0  0  0  0  0  0
   -0.9948   -3.2753   -1.2075 H   0  0  0  0  0  0  0  0  0  0  0  0
   -0.2979   -0.9642   -1.9430 H   0  0  0  0  0  0  0  0  0  0  0  0
   -1.9908   -1.1630   -1.3455 H   0  0  0  0  0  0  0  0  0  0  0  0
   -1.2439   -0.3789    0.8988 H   0  0  0  0  0  0  0  0  0  0  0  0
   -1.9775    1.1875   -0.8271 H   0  0  0  0  0  0  0  0  0  0  0  0
   -0.3644    1.2641   -1.5585 H   0  0  0  0  0  0  0  0  0  0  0  0
   -1.2060    3.3582    2.0064 H   0  0  0  0  0  0  0  0  0  0  0  0
    3.9816   -0.3139    0.1099 H   0  0  0  0  0  0  0  0  0  0  0  0
  1  2  1  0
  2  3  1  0
  3  4  1  0
  4  5  1  0
  5  6  2  0
  5  7  1  0
  3  8  1  0
  8  9  1  0
  9 10  2  0
 10 11  1  0
 11 12  1  0
 12  8  2  0
  1 13  1  0
  1 14  1  0
  2 15  1  0
  2 16  1  0
  3 17  1  1
  4 18  1  0
  4 19  1  0
  7 20  1  0
 11 21  1  0
M  END
$$$$

     RDKit          3D

 21 21  0  0  0  0  0  0  0  0999 V2000
   -2.0406   -1.3865    0.0452 N   0  0  0  0  0  0  0  0  0  0  0  0
   -0.6450   -1.3102   -0.1868 C   0  0  0  0  0  0  0  0  0  0  0  0
    0.0811   -0.1309    0.3857 C   0  0  2  0  0  0  0  0  0  0  0  0
   -0.3500    1.2078   -0.0764 C   0  0  0  0  0  0  0  0  0  0  0  0
   -1.7341    1.6072    0.2067 C   0  0  0  0  0  0  0  0  0  0  0  0
   -2.5791    0.9751    0.8731 O   0  0  0  0  0  0  0  0  0  0  0  0
   -2.2137    2.8336   -0.3085 O   0  0  0  0  0  0  0  0  0  0  0  0
    1.5155   -0.3172    0.0352 C   0  0  0  0  0  0  0  0  0  0  0  0
    2.0704   -0.3211   -1.1812 N   0  0  0  0  0  0  0  0  0  0  0  0
    3.3759   -0.5206   -1.0266 N   0  0  0  0  0  0  0  0  0  0  0  0
    3.6564   -0.6420    0.2508 N   0  0  0  0  0  0  0  0  0  0  0  0
    2.4996   -0.5156    0.9113 N   0  0  0  0  0  0  0  0  0  0  0  0
   -2.6221   -1.1828   -0.8237 H   0  0  0  0  0  0  0  0  0  0  0  0
   -2.3169   -2.3584    0.3061 H   0  0  0  0  0  0  0  0  0  0  0  0
   -0.1748   -2.2132    0.3158 H   0  0  0  0  0  0  0  0  0  0  0  0
   -0.3712   -1.4774   -1.2693 H   0  0  0  0  0  0  0  0  0  0  0  0
   -0.0549   -0.1811    1.4993 H   0  0  0  0  0  0  0  0  0  0  0  0
   -0.0862    1.3698   -1.1612 H   0  0  0  0  0  0  0  0  0  0  0  0
    0.3074    1.9679    0.4526 H   0  0  0  0  0  0  0  0  0  0  0  0
   -2.8724    3.3980    0.2432 H   0  0  0  0  0  0  0  0  0  0  0  0
    4.5547   -0.8023    0.7216 H   0  0  0  0  0  0  0  0  0  0  0  0
  1  2  1  0
  2  3  1  0
  3  4  1  0
  4  5  1  0
  5  6  2  0
  5  7  1  0
  3  8  1  0
  8  9  1  0
  9 10  2  0
 10 11  1  0
 11 12  1  0
 12  8  2  0
  1 13  1  0
  1 14  1  0
  2 15  1  0
  2 16  1  0
  3 17  1  1
  4 18  1  0
  4 19  1  0
  7 20  1  0
 11 21  1  0
M  END
$$$$

     RDKit          3D

 21 21  0  0  0  0  0  0  0  0999 V2000
   -0.9956    2.0559   -0.6243 N   0  0  0  0  0  0  0  0  0  0  0  0
    0.1503    1.1724   -0.8217 C   0  0  0  0  0  0  0  0  0  0  0  0
    0.1094    0.1806    0.3115 C   0  0  2  0  0  0  0  0  0  0  0  0
    1.2269   -0.8201    0.2681 C   0  0  0  0  0  0  0  0  0  0  0  0
    2.5644   -0.2168    0.3368 C   0  0  0  0  0  0  0  0  0  0  0  0
    3.0613    0.2783   -0.7094 O   0  0  0  0  0  0  0  0  0  0  0  0
    3.3362   -0.1487    1.4898 O   0  0  0  0  0  0  0  0  0  0  0  0
   -1.1736   -0.5655    0.1734 C   0  0  0  0  0  0  0  0  0  0  0  0
   -1.4679   -1.3288   -0.8947 N   0  0  0  0  0  0  0  0  0  0  0  0
   -2.6726   -1.8631   -0.7263 N   0  0  0  0  0  0  0  0  0  0  0  0
   -3.1179   -1.4261    0.4471 N   0  0  0  0  0  0  0  0  0  0  0  0
   -2.2010   -0.6280    1.0061 N   0  0  0  0  0  0  0  0  0  0  0  0
   -0.7281    3.0117   -0.3436 H   0  0  0  0  0  0  0  0  0  0  0  0
   -1.7127    1.9741   -1.3546 H   0  0  0  0  0  0  0  0  0  0  0  0
   -0.0821    0.5986   -1.7614 H   0  0  0  0  0  0  0  0  0  0  0  0
    1.0708    1.7527   -0.8851 H   0  0  0  0  0  0  0  0  0  0  0  0
    0.1539    0.7410    1.2662 H   0  0  0  0  0  0  0  0  0  0  0  0
    1.0596   -1.5050    1.1493 H   0  0  0  0  0  0  0  0  0  0  0  0
    1.0975   -1.4880   -0.6308 H   0  0  0  0  0  0  0  0  0  0  0  0
    4.3671   -0.0873    1.4622 H   0  0  0  0  0  0  0  0  0  0  0  0
   -4.0457   -1.6879    0.8414 H   0  0  0  0  0  0  0  0  0  0  0  0
  1  2  1  0
  2  3  1  0
  3  4  1  0
  4  5  1  0
  5  6  2  0
  5  7  1  0
  3  8  1  0
  8  9  1  0
  9 10  2  0
 10 11  1  0
 11 12  1  0
 12  8  2  0
  1 13  1  0
  1 14  1  0
  2 15  1  0
  2 16  1  0
  3 17  1  1
  4 18  1  0
  4 19  1  0
  7 20  1  0
 11 21  1  0
M  END
$$$$

     RDKit          3D

 21 21  0  0  0  0  0  0  0  0999 V2000
    0.1427   -2.0345    0.9738 N   0  0  0  0  0  0  0  0  0  0  0  0
   -0.7196   -1.1943    0.1473 C   0  0  0  0  0  0  0  0  0  0  0  0
   -0.0729    0.1661    0.1150 C   0  0  2  0  0  0  0  0  0  0  0  0
   -0.8324    1.1726   -0.7050 C   0  0  0  0  0  0  0  0  0  0  0  0
   -2.1936    1.4001   -0.1833 C   0  0  0  0  0  0  0  0  0  0  0  0
   -3.0318    2.1264   -0.8192 O   0  0  0  0  0  0  0  0  0  0  0  0
   -2.6784    0.8705    1.0023 O   0  0  0  0  0  0  0  0  0  0  0  0
    1.3488    0.0607   -0.3331 C   0  0  0  0  0  0  0  0  0  0  0  0
    1.7384   -0.3026   -1.5663 N   0  0  0  0  0  0  0  0  0  0  0  0
    3.0730   -0.2817   -1.5879 N   0  0  0  0  0  0  0  0  0  0  0  0
    3.5379    0.0831   -0.4074 N   0  0  0  0  0  0  0  0  0  0  0  0
    2.4616    0.2919    0.3593 N   0  0  0  0  0  0  0  0  0  0  0  0
    0.0646   -1.6724    1.9485 H   0  0  0  0  0  0  0  0  0  0  0  0
   -0.2184   -3.0161    1.0065 H   0  0  0  0  0  0  0  0  0  0  0  0
   -1.6968   -1.1524    0.6527 H   0  0  0  0  0  0  0  0  0  0  0  0
   -0.8386   -1.6327   -0.8695 H   0  0  0  0  0  0  0  0  0  0  0  0
   -0.0693    0.5053    1.1984 H   0  0  0  0  0  0  0  0  0  0  0  0
   -0.3183    2.1721   -0.6961 H   0  0  0  0  0  0  0  0  0  0  0  0
   -0.8928    0.7933   -1.7534 H   0  0  0  0  0  0  0  0  0  0  0  0
   -3.3114    1.4366    1.5752 H   0  0  0  0  0  0  0  0  0  0  0  0
    4.5073    0.2077   -0.0577 H   0  0  0  0  0  0  0  0  0  0  0  0
  1  2  1  0
  2  3  1  0
  3  4  1  0
  4  5  1  0
  5  6  2  0
  5  7  1  0
  3  8  1  0
  8  9  1  0
  9 10  2  0
 10 11  1  0
 11 12  1  0
 12  8  2  0
  1 13  1  0
  1 14  1  0
  2 15  1  0
  2 16  1  0
  3 17  1  1
  4 18  1  0
  4 19  1  0
  7 20  1  0
 11 21  1  0
M  END
$$$$

     RDKit          3D

 21 21  0  0  0  0  0  0  0  0999 V2000
   -0.7995    1.3126    1.6619 N   0  0  0  0  0  0  0  0  0  0  0  0
   -0.4488    1.8286    0.3597 C   0  0  0  0  0  0  0  0  0  0  0  0
   -0.1084    0.6851   -0.5761 C   0  0  2  0  0  0  0  0  0  0  0  0
   -1.3110   -0.2003   -0.6855 C   0  0  0  0  0  0  0  0  0  0  0  0
   -1.0455   -1.3538   -1.5969 C   0  0  0  0  0  0  0  0  0  0  0  0
    0.0734   -1.4734   -2.1495 O   0  0  0  0  0  0  0  0  0  0  0  0
   -2.0024   -2.3007   -1.8519 O   0  0  0  0  0  0  0  0  0  0  0  0
    1.0694   -0.0565   -0.0549 C   0  0  0  0  0  0  0  0  0  0  0  0
    1.1418   -0.6954    1.1073 N   0  0  0  0  0  0  0  0  0  0  0  0
    2.3462   -1.2293    1.2130 N   0  0  0  0  0  0  0  0  0  0  0  0
    3.0663   -0.9408    0.1186 N   0  0  0  0  0  0  0  0  0  0  0  0
    2.2640   -0.2179   -0.6511 N   0  0  0  0  0  0  0  0  0  0  0  0
   -0.2221    1.6788    2.4279 H   0  0  0  0  0  0  0  0  0  0  0  0
   -1.7994    1.5114    1.8332 H   0  0  0  0  0  0  0  0  0  0  0  0
   -1.2304    2.4657   -0.0699 H   0  0  0  0  0  0  0  0  0  0  0  0
    0.4696    2.4574    0.4632 H   0  0  0  0  0  0  0  0  0  0  0  0
    0.0832    1.1271   -1.5636 H   0  0  0  0  0  0  0  0  0  0  0  0
   -1.6545   -0.5324    0.3166 H   0  0  0  0  0  0  0  0  0  0  0  0
   -2.1217    0.3885   -1.1726 H   0  0  0  0  0  0  0  0  0  0  0  0
   -1.8192   -3.2396   -2.1928 H   0  0  0  0  0  0  0  0  0  0  0  0
    4.0491   -1.2149   -0.1027 H   0  0  0  0  0  0  0  0  0  0  0  0
  1  2  1  0
  2  3  1  0
  3  4  1  0
  4  5  1  0
  5  6  2  0
  5  7  1  0
  3  8  1  0
  8  9  1  0
  9 10  2  0
 10 11  1  0
 11 12  1  0
 12  8  2  0
  1 13  1  0
  1 14  1  0
  2 15  1  0
  2 16  1  0
  3 17  1  6
  4 18  1  0
  4 19  1  0
  7 20  1  0
 11 21  1  0
M  END
$$$$

     RDKit          3D

 21 21  0  0  0  0  0  0  0  0999 V2000
    0.1682    2.3912    0.6313 N   0  0  0  0  0  0  0  0  0  0  0  0
   -0.1475    1.8425   -0.6479 C   0  0  0  0  0  0  0  0  0  0  0  0
   -0.2818    0.3368   -0.6576 C   0  0  2  0  0  0  0  0  0  0  0  0
   -1.3739   -0.0639    0.2789 C   0  0  0  0  0  0  0  0  0  0  0  0
   -1.5821   -1.5260    0.3385 C   0  0  0  0  0  0  0  0  0  0  0  0
   -0.8794   -2.2969   -0.3523 O   0  0  0  0  0  0  0  0  0  0  0  0
   -2.5508   -2.0770    1.1524 O   0  0  0  0  0  0  0  0  0  0  0  0
    1.0260   -0.2644   -0.3094 C   0  0  0  0  0  0  0  0  0  0  0  0
    1.7117   -0.1597    0.8408 N   0  0  0  0  0  0  0  0  0  0  0  0
    2.8349   -0.8388    0.7647 N   0  0  0  0  0  0  0  0  0  0  0  0
    2.8964   -1.4009   -0.4490 N   0  0  0  0  0  0  0  0  0  0  0  0
    1.8066   -1.0551   -1.0968 N   0  0  0  0  0  0  0  0  0  0  0  0
   -0.4207    3.2086    0.9036 H   0  0  0  0  0  0  0  0  0  0  0  0
    0.3634    1.7244    1.3795 H   0  0  0  0  0  0  0  0  0  0  0  0
    0.6908    2.1339   -1.3452 H   0  0  0  0  0  0  0  0  0  0  0  0
   -1.0911    2.3025   -1.0054 H   0  0  0  0  0  0  0  0  0  0  0  0
   -0.5704    0.0529   -1.6898 H   0  0  0  0  0  0  0  0  0  0  0  0
   -1.1418    0.3520    1.2915 H   0  0  0  0  0  0  0  0  0  0  0  0
   -2.3243    0.3814   -0.0827 H   0  0  0  0  0  0  0  0  0  0  0  0
   -2.8422   -3.0535    1.1160 H   0  0  0  0  0  0  0  0  0  0  0  0
    3.7078   -1.9900   -0.7309 H   0  0  0  0  0  0  0  0  0  0  0  0
  1  2  1  0
  2  3  1  0
  3  4  1  0
  4  5  1  0
  5  6  2  0
  5  7  1  0
  3  8  1  0
  8  9  1  0
  9 10  2  0
 10 11  1  0
 11 12  1  0
 12  8  2  0
  1 13  1  0
  1 14  1  0
  2 15  1  0
  2 16  1  0
  3 17  1  6
  4 18  1  0
  4 19  1  0
  7 20  1  0
 11 21  1  0
M  END
$$$$

     RDKit          3D

 21 21  0  0  0  0  0  0  0  0999 V2000
   -1.7644   -1.6959   -0.4452 N   0  0  0  0  0  0  0  0  0  0  0  0
   -1.4520   -1.0394    0.7850 C   0  0  0  0  0  0  0  0  0  0  0  0
   -0.4122    0.0483    0.6470 C   0  0  2  0  0  0  0  0  0  0  0  0
   -0.8923    1.1193   -0.3103 C   0  0  0  0  0  0  0  0  0  0  0  0
    0.1243    2.1913   -0.4505 C   0  0  0  0  0  0  0  0  0  0  0  0
    1.2012    2.0820    0.2088 O   0  0  0  0  0  0  0  0  0  0  0  0
   -0.0574    3.2880   -1.2614 O   0  0  0  0  0  0  0  0  0  0  0  0
    0.9039   -0.4974    0.2211 C   0  0  0  0  0  0  0  0  0  0  0  0
    1.1352   -1.1278   -0.9456 N   0  0  0  0  0  0  0  0  0  0  0  0
    2.4223   -1.4745   -0.9800 N   0  0  0  0  0  0  0  0  0  0  0  0
    3.0137   -1.0853    0.1245 N   0  0  0  0  0  0  0  0  0  0  0  0
    2.0849   -0.4882    0.8581 N   0  0  0  0  0  0  0  0  0  0  0  0
   -2.7650   -2.0457   -0.3830 H   0  0  0  0  0  0  0  0  0  0  0  0
   -1.1863   -2.5868   -0.4959 H   0  0  0  0  0  0  0  0  0  0  0  0
   -1.1855   -1.7640    1.5800 H   0  0  0  0  0  0  0  0  0  0  0  0
   -2.3796   -0.5240    1.1632 H   0  0  0  0  0  0  0  0  0  0  0  0
   -0.3049    0.5125    1.6514 H   0  0  0  0  0  0  0  0  0  0  0  0
   -1.8898    1.4866   -0.0755 H   0  0  0  0  0  0  0  0  0  0  0  0
   -0.9700    0.6411   -1.3309 H   0  0  0  0  0  0  0  0  0  0  0  0
    0.3607    4.1638   -0.9664 H   0  0  0  0  0  0  0  0  0  0  0  0
    4.0134   -1.2039    0.4056 H   0  0  0  0  0  0  0  0  0  0  0  0
  1  2  1  0
  2  3  1  0
  3  4  1  0
  4  5  1  0
  5  6  2  0
  5  7  1  0
  3  8  1  0
  8  9  1  0
  9 10  2  0
 10 11  1  0
 11 12  1  0
 12  8  2  0
  1 13  1  0
  1 14  1  0
  2 15  1  0
  2 16  1  0
  3 17  1  1
  4 18  1  0
  4 19  1  0
  7 20  1  0
 11 21  1  0
M  END
$$$$

     RDKit          3D

 21 21  0  0  0  0  0  0  0  0999 V2000
    0.7894    2.0132    0.8690 N   0  0  0  0  0  0  0  0  0  0  0  0
   -0.3386    1.0771    0.8002 C   0  0  0  0  0  0  0  0  0  0  0  0
   -0.0445    0.1503   -0.3510 C   0  0  2  0  0  0  0  0  0  0  0  0
   -1.1244   -0.8819   -0.5547 C   0  0  0  0  0  0  0  0  0  0  0  0
   -2.4374   -0.3025   -0.8405 C   0  0  0  0  0  0  0  0  0  0  0  0
   -2.6725    0.1858   -1.9719 O   0  0  0  0  0  0  0  0  0  0  0  0
   -3.4606   -0.2621    0.0903 O   0  0  0  0  0  0  0  0  0  0  0  0
    1.2564   -0.5063   -0.0678 C   0  0  0  0  0  0  0  0  0  0  0  0
    1.4240   -1.3754    0.9487 N   0  0  0  0  0  0  0  0  0  0  0  0
    2.6691   -1.7643    0.9217 N   0  0  0  0  0  0  0  0  0  0  0  0
    3.3265   -1.1735   -0.0868 N   0  0  0  0  0  0  0  0  0  0  0  0
    2.4332   -0.3907   -0.6965 N   0  0  0  0  0  0  0  0  0  0  0  0
    0.4985    2.9275    1.2762 H   0  0  0  0  0  0  0  0  0  0  0  0
    1.1760    2.1643   -0.0969 H   0  0  0  0  0  0  0  0  0  0  0  0
   -0.2972    0.5043    1.7491 H   0  0  0  0  0  0  0  0  0  0  0  0
   -1.2549    1.6658    0.6728 H   0  0  0  0  0  0  0  0  0  0  0  0
    0.1057    0.7875   -1.2428 H   0  0  0  0  0  0  0  0  0  0  0  0
   -1.1668   -1.5035    0.3852 H   0  0  0  0  0  0  0  0  0  0  0  0
   -0.7693   -1.5801   -1.3408 H   0  0  0  0  0  0  0  0  0  0  0  0
   -4.4423   -0.4018   -0.1634 H   0  0  0  0  0  0  0  0  0  0  0  0
    4.3298   -1.3337   -0.3003 H   0  0  0  0  0  0  0  0  0  0  0  0
  1  2  1  0
  2  3  1  0
  3  4  1  0
  4  5  1  0
  5  6  2  0
  5  7  1  0
  3  8  1  0
  8  9  1  0
  9 10  2  0
 10 11  1  0
 11 12  1  0
 12  8  2  0
  1 13  1  0
  1 14  1  0
  2 15  1  0
  2 16  1  0
  3 17  1  6
  4 18  1  0
  4 19  1  0
  7 20  1  0
 11 21  1  0
M  END
$$$$
