
     RDKit          3D

 26 26  0  0  0  0  0  0  0  0999 V2000
    0.2527    2.5010   -0.3431 C   0  0  0  0  0  0  0  0  0  0  0  0
   -0.0001    1.0987   -0.1040 N   0  0  0  0  0  0  0  0  0  0  0  0
   -1.0773    0.7859    0.7689 C   0  0  0  0  0  0  0  0  0  0  0  0
   -1.4537    1.7659    1.4645 O   0  0  0  0  0  0  0  0  0  0  0  0
   -1.7654   -0.5129    0.9325 C   0  0  0  0  0  0  0  0  0  0  0  0
   -2.1452   -1.1229   -0.3745 C   0  0  0  0  0  0  0  0  0  0  0  0
   -1.0942   -1.2510   -1.3183 N   0  0  0  0  0  0  0  0  0  0  0  0
    0.2241   -1.2320   -0.8016 C   0  0  0  0  0  0  0  0  0  0  0  0
    0.8567    0.1437   -0.7673 C   0  0  2  0  0  0  0  0  0  0  0  0
    2.1293    0.0229    0.0513 C   0  0  0  0  0  0  0  0  0  0  0  0
    1.8339   -0.4375    1.4093 N   0  0  0  0  0  0  0  0  0  0  0  0
    1.1448    2.8666    0.2007 H   0  0  0  0  0  0  0  0  0  0  0  0
   -0.6149    3.0802    0.0241 H   0  0  0  0  0  0  0  0  0  0  0  0
    0.3268    2.6950   -1.4442 H   0  0  0  0  0  0  0  0  0  0  0  0
   -2.7197   -0.2949    1.4858 H   0  0  0  0  0  0  0  0  0  0  0  0
   -1.1656   -1.1801    1.5724 H   0  0  0  0  0  0  0  0  0  0  0  0
   -2.6769   -2.0779   -0.1606 H   0  0  0  0  0  0  0  0  0  0  0  0
   -2.9312   -0.4544   -0.8317 H   0  0  0  0  0  0  0  0  0  0  0  0
   -1.2393   -2.1761   -1.8247 H   0  0  0  0  0  0  0  0  0  0  0  0
    0.2425   -1.7274    0.1810 H   0  0  0  0  0  0  0  0  0  0  0  0
    0.8785   -1.8448   -1.4816 H   0  0  0  0  0  0  0  0  0  0  0  0
    1.1298    0.4604   -1.7741 H   0  0  0  0  0  0  0  0  0  0  0  0
    2.5467    1.0522    0.1407 H   0  0  0  0  0  0  0  0  0  0  0  0
    2.8647   -0.6068   -0.4587 H   0  0  0  0  0  0  0  0  0  0  0  0
    2.6281   -0.0698    1.9987 H   0  0  0  0  0  0  0  0  0  0  0  0
    1.8248   -1.4841    1.4545 H   0  0  0  0  0  0  0  0  0  0  0  0
  1  2  1  0
  2  3  1  0
  3  4  2  0
  3  5  1  0
  5  6  1  0
  6  7  1  0
  7  8  1  0
  8  9  1  0
  9 10  1  0
 10 11  1  0
  9  2  1  0
  1 12  1  0
  1 13  1  0
  1 14  1  0
  5 15  1  0
  5 16  1  0
  6 17  1  0
  6 18  1  0
  7 19  1  0
  8 20  1  0
  8 21  1  0
  9 22  1  6
 10 23  1  0
 10 24  1  0
 11 25  1  0
 11 26  1  0
M  END
$$$$

     RDKit          3D

 26 26  0  0  0  0  0  0  0  0999 V2000
    0.8681    2.2934    0.0344 C   0  0  0  0  0  0  0  0  0  0  0  0
    0.0979    1.0363    0.0058 N   0  0  0  0  0  0  0  0  0  0  0  0
   -1.0747    0.9628    0.7537 C   0  0  0  0  0  0  0  0  0  0  0  0
   -1.0944    1.7431    1.7559 O   0  0  0  0  0  0  0  0  0  0  0  0
   -2.2748    0.1651    0.6038 C   0  0  0  0  0  0  0  0  0  0  0  0
   -2.1711   -1.1342   -0.0839 C   0  0  0  0  0  0  0  0  0  0  0  0
   -0.8672   -1.7002   -0.1788 N   0  0  0  0  0  0  0  0  0  0  0  0
   -0.1164   -1.0923   -1.2366 C   0  0  0  0  0  0  0  0  0  0  0  0
    0.7207    0.0572   -0.8288 C   0  0  2  0  0  0  0  0  0  0  0  0
    2.0629   -0.3827   -0.2259 C   0  0  0  0  0  0  0  0  0  0  0  0
    1.8703   -0.9597    1.0897 N   0  0  0  0  0  0  0  0  0  0  0  0
    1.6648    2.2721    0.7772 H   0  0  0  0  0  0  0  0  0  0  0  0
    1.3181    2.4691   -0.9597 H   0  0  0  0  0  0  0  0  0  0  0  0
    0.1890    3.1600    0.2430 H   0  0  0  0  0  0  0  0  0  0  0  0
   -2.6826   -0.0418    1.6392 H   0  0  0  0  0  0  0  0  0  0  0  0
   -3.1217    0.7373    0.1181 H   0  0  0  0  0  0  0  0  0  0  0  0
   -2.8322   -1.9154    0.3965 H   0  0  0  0  0  0  0  0  0  0  0  0
   -2.5762   -1.0682   -1.1365 H   0  0  0  0  0  0  0  0  0  0  0  0
   -0.3715   -1.8327    0.7019 H   0  0  0  0  0  0  0  0  0  0  0  0
    0.5038   -1.8340   -1.7426 H   0  0  0  0  0  0  0  0  0  0  0  0
   -0.8614   -0.7195   -1.9978 H   0  0  0  0  0  0  0  0  0  0  0  0
    1.0208    0.6017   -1.7755 H   0  0  0  0  0  0  0  0  0  0  0  0
    2.5257   -1.1595   -0.8534 H   0  0  0  0  0  0  0  0  0  0  0  0
    2.7417    0.4768   -0.1428 H   0  0  0  0  0  0  0  0  0  0  0  0
    2.0841   -0.2721    1.8268 H   0  0  0  0  0  0  0  0  0  0  0  0
    2.3760   -1.8623    1.2164 H   0  0  0  0  0  0  0  0  0  0  0  0
  1  2  1  0
  2  3  1  0
  3  4  2  0
  3  5  1  0
  5  6  1  0
  6  7  1  0
  7  8  1  0
  8  9  1  0
  9 10  1  0
 10 11  1  0
  9  2  1  0
  1 12  1  0
  1 13  1  0
  1 14  1  0
  5 15  1  0
  5 16  1  0
  6 17  1  0
  6 18  1  0
  7 19  1  0
  8 20  1  0
  8 21  1  0
  9 22  1  6
 10 23  1  0
 10 24  1  0
 11 25  1  0
 11 26  1  0
M  END
$$$$

     RDKit          3D

 26 26  0  0  0  0  0  0  0  0999 V2000
    0.4167    2.4280   -0.5169 C   0  0  0  0  0  0  0  0  0  0  0  0
    0.0034    1.0898   -0.1406 N   0  0  0  0  0  0  0  0  0  0  0  0
   -1.0293    0.9461    0.8054 C   0  0  0  0  0  0  0  0  0  0  0  0
   -1.2532    2.0160    1.4570 O   0  0  0  0  0  0  0  0  0  0  0  0
   -1.9061   -0.1665    1.2069 C   0  0  0  0  0  0  0  0  0  0  0  0
   -1.9680   -1.2778    0.1947 C   0  0  0  0  0  0  0  0  0  0  0  0
   -0.6700   -1.7760   -0.1311 N   0  0  0  0  0  0  0  0  0  0  0  0
   -0.2102   -1.0485   -1.3171 C   0  0  0  0  0  0  0  0  0  0  0  0
    0.7219    0.0280   -0.8010 C   0  0  2  0  0  0  0  0  0  0  0  0
    1.7122   -0.6549    0.1315 C   0  0  0  0  0  0  0  0  0  0  0  0
    2.6955    0.2650    0.6357 N   0  0  0  0  0  0  0  0  0  0  0  0
   -0.1922    3.2081   -0.0357 H   0  0  0  0  0  0  0  0  0  0  0  0
    1.4744    2.6340   -0.2492 H   0  0  0  0  0  0  0  0  0  0  0  0
    0.2378    2.5238   -1.6228 H   0  0  0  0  0  0  0  0  0  0  0  0
   -2.9484    0.2515    1.2817 H   0  0  0  0  0  0  0  0  0  0  0  0
   -1.6288   -0.4993    2.2098 H   0  0  0  0  0  0  0  0  0  0  0  0
   -2.5887   -2.0848    0.6347 H   0  0  0  0  0  0  0  0  0  0  0  0
   -2.4830   -0.9249   -0.7134 H   0  0  0  0  0  0  0  0  0  0  0  0
   -0.6010   -2.7950   -0.2366 H   0  0  0  0  0  0  0  0  0  0  0  0
    0.3237   -1.7282   -1.9789 H   0  0  0  0  0  0  0  0  0  0  0  0
   -1.0552   -0.5172   -1.8090 H   0  0  0  0  0  0  0  0  0  0  0  0
    1.3306    0.4114   -1.6644 H   0  0  0  0  0  0  0  0  0  0  0  0
    1.2210   -1.2499    0.9029 H   0  0  0  0  0  0  0  0  0  0  0  0
    2.2683   -1.3881   -0.5197 H   0  0  0  0  0  0  0  0  0  0  0  0
    3.6526   -0.1690    0.6291 H   0  0  0  0  0  0  0  0  0  0  0  0
    2.4760    0.4785    1.6471 H   0  0  0  0  0  0  0  0  0  0  0  0
  1  2  1  0
  2  3  1  0
  3  4  2  0
  3  5  1  0
  5  6  1  0
  6  7  1  0
  7  8  1  0
  8  9  1  0
  9 10  1  0
 10 11  1  0
  9  2  1  0
  1 12  1  0
  1 13  1  0
  1 14  1  0
  5 15  1  0
  5 16  1  0
  6 17  1  0
  6 18  1  0
  7 19  1  0
  8 20  1  0
  8 21  1  0
  9 22  1  6
 10 23  1  0
 10 24  1  0
 11 25  1  0
 11 26  1  0
M  END
$$$$

     RDKit          3D

 26 26  0  0  0  0  0  0  0  0999 V2000
    0.5214    2.1593   -0.8042 C   0  0  0  0  0  0  0  0  0  0  0  0
   -0.1195    0.9012   -0.5507 N   0  0  0  0  0  0  0  0  0  0  0  0
   -1.5340    0.8815   -0.6910 C   0  0  0  0  0  0  0  0  0  0  0  0
   -2.0514    1.9984   -0.9702 O   0  0  0  0  0  0  0  0  0  0  0  0
   -2.4721   -0.2775   -0.5517 C   0  0  0  0  0  0  0  0  0  0  0  0
   -2.2288   -0.9536    0.7597 C   0  0  0  0  0  0  0  0  0  0  0  0
   -0.9790   -1.6563    0.8089 N   0  0  0  0  0  0  0  0  0  0  0  0
    0.1465   -0.8033    1.0943 C   0  0  0  0  0  0  0  0  0  0  0  0
    0.6992   -0.2219   -0.1815 C   0  0  2  0  0  0  0  0  0  0  0  0
    2.1581    0.1209   -0.0806 C   0  0  0  0  0  0  0  0  0  0  0  0
    2.8528   -1.1163    0.3003 N   0  0  0  0  0  0  0  0  0  0  0  0
    1.1009    2.1193   -1.7722 H   0  0  0  0  0  0  0  0  0  0  0  0
   -0.2297    2.9538   -0.9521 H   0  0  0  0  0  0  0  0  0  0  0  0
    1.1634    2.4896    0.0393 H   0  0  0  0  0  0  0  0  0  0  0  0
   -3.5052    0.0596   -0.6293 H   0  0  0  0  0  0  0  0  0  0  0  0
   -2.2477   -1.0195   -1.3641 H   0  0  0  0  0  0  0  0  0  0  0  0
   -3.0429   -1.7237    0.8845 H   0  0  0  0  0  0  0  0  0  0  0  0
   -2.2671   -0.2464    1.6036 H   0  0  0  0  0  0  0  0  0  0  0  0
   -0.8193   -2.2673   -0.0084 H   0  0  0  0  0  0  0  0  0  0  0  0
    0.9131   -1.3982    1.6197 H   0  0  0  0  0  0  0  0  0  0  0  0
   -0.2040    0.0244    1.7628 H   0  0  0  0  0  0  0  0  0  0  0  0
    0.5616   -0.9956   -0.9761 H   0  0  0  0  0  0  0  0  0  0  0  0
    2.3449    0.9332    0.6244 H   0  0  0  0  0  0  0  0  0  0  0  0
    2.5398    0.3697   -1.0911 H   0  0  0  0  0  0  0  0  0  0  0  0
    2.9492   -1.1111    1.3332 H   0  0  0  0  0  0  0  0  0  0  0  0
    3.7498   -1.2201   -0.2075 H   0  0  0  0  0  0  0  0  0  0  0  0
  1  2  1  0
  2  3  1  0
  3  4  2  0
  3  5  1  0
  5  6  1  0
  6  7  1  0
  7  8  1  0
  8  9  1  0
  9 10  1  0
 10 11  1  0
  9  2  1  0
  1 12  1  0
  1 13  1  0
  1 14  1  0
  5 15  1  0
  5 16  1  0
  6 17  1  0
  6 18  1  0
  7 19  1  0
  8 20  1  0
  8 21  1  0
  9 22  1  6
 10 23  1  0
 10 24  1  0
 11 25  1  0
 11 26  1  0
M  END
$$$$

     RDKit          3D

 26 26  0  0  0  0  0  0  0  0999 V2000
    1.4528    1.9959   -0.0653 C   0  0  0  0  0  0  0  0  0  0  0  0
    0.3934    0.9775   -0.0774 N   0  0  0  0  0  0  0  0  0  0  0  0
   -0.7168    1.3936    0.6909 C   0  0  0  0  0  0  0  0  0  0  0  0
   -0.7213    2.5367    1.1786 O   0  0  0  0  0  0  0  0  0  0  0  0
   -1.9219    0.5954    0.9941 C   0  0  0  0  0  0  0  0  0  0  0  0
   -2.3360   -0.2141   -0.1904 C   0  0  0  0  0  0  0  0  0  0  0  0
   -1.4194   -1.2718   -0.3515 N   0  0  0  0  0  0  0  0  0  0  0  0
   -0.3428   -1.0921   -1.2229 C   0  0  0  0  0  0  0  0  0  0  0  0
    0.7297   -0.1624   -0.8440 C   0  0  2  0  0  0  0  0  0  0  0  0
    1.8706   -0.9027   -0.1362 C   0  0  0  0  0  0  0  0  0  0  0  0
    1.5238   -1.3314    1.1712 N   0  0  0  0  0  0  0  0  0  0  0  0
    1.0426    3.0147   -0.1331 H   0  0  0  0  0  0  0  0  0  0  0  0
    1.9058    1.9217    0.9638 H   0  0  0  0  0  0  0  0  0  0  0  0
    2.2199    1.8060   -0.8167 H   0  0  0  0  0  0  0  0  0  0  0  0
   -1.7198   -0.0689    1.8671 H   0  0  0  0  0  0  0  0  0  0  0  0
   -2.7693    1.2587    1.2672 H   0  0  0  0  0  0  0  0  0  0  0  0
   -2.3381    0.4186   -1.0977 H   0  0  0  0  0  0  0  0  0  0  0  0
   -3.3661   -0.6257   -0.0306 H   0  0  0  0  0  0  0  0  0  0  0  0
   -1.3970   -2.0070    0.3375 H   0  0  0  0  0  0  0  0  0  0  0  0
    0.1218   -2.1040   -1.4206 H   0  0  0  0  0  0  0  0  0  0  0  0
   -0.7647   -0.8027   -2.2326 H   0  0  0  0  0  0  0  0  0  0  0  0
    1.2163    0.2170   -1.7934 H   0  0  0  0  0  0  0  0  0  0  0  0
    2.7903   -0.2988   -0.1055 H   0  0  0  0  0  0  0  0  0  0  0  0
    2.0663   -1.8017   -0.7819 H   0  0  0  0  0  0  0  0  0  0  0  0
    0.5566   -1.1881    1.4659 H   0  0  0  0  0  0  0  0  0  0  0  0
    1.9232   -2.2645    1.3635 H   0  0  0  0  0  0  0  0  0  0  0  0
  1  2  1  0
  2  3  1  0
  3  4  2  0
  3  5  1  0
  5  6  1  0
  6  7  1  0
  7  8  1  0
  8  9  1  0
  9 10  1  0
 10 11  1  0
  9  2  1  0
  1 12  1  0
  1 13  1  0
  1 14  1  0
  5 15  1  0
  5 16  1  0
  6 17  1  0
  6 18  1  0
  7 19  1  0
  8 20  1  0
  8 21  1  0
  9 22  1  6
 10 23  1  0
 10 24  1  0
 11 25  1  0
 11 26  1  0
M  END
$$$$

     RDKit          3D

 26 26  0  0  0  0  0  0  0  0999 V2000
    0.9438    2.2088   -0.0914 C   0  0  0  0  0  0  0  0  0  0  0  0
    0.1075    1.0530   -0.2622 N   0  0  0  0  0  0  0  0  0  0  0  0
   -1.2620    1.3801   -0.4681 C   0  0  0  0  0  0  0  0  0  0  0  0
   -1.5252    2.5917   -0.5614 O   0  0  0  0  0  0  0  0  0  0  0  0
   -2.4478    0.4957   -0.5918 C   0  0  0  0  0  0  0  0  0  0  0  0
   -2.2462   -0.8320    0.1123 C   0  0  0  0  0  0  0  0  0  0  0  0
   -1.3127   -0.7636    1.1828 N   0  0  0  0  0  0  0  0  0  0  0  0
    0.0354   -1.1346    0.8344 C   0  0  0  0  0  0  0  0  0  0  0  0
    0.6484   -0.2663   -0.2203 C   0  0  2  0  0  0  0  0  0  0  0  0
    2.1450   -0.2952   -0.0439 C   0  0  0  0  0  0  0  0  0  0  0  0
    2.6033   -1.6730   -0.0128 N   0  0  0  0  0  0  0  0  0  0  0  0
    0.4303    2.9044    0.6349 H   0  0  0  0  0  0  0  0  0  0  0  0
    0.9912    2.7484   -1.0567 H   0  0  0  0  0  0  0  0  0  0  0  0
    1.9307    2.0120    0.3171 H   0  0  0  0  0  0  0  0  0  0  0  0
   -2.5684    0.2920   -1.6883 H   0  0  0  0  0  0  0  0  0  0  0  0
   -3.3235    1.0328   -0.2249 H   0  0  0  0  0  0  0  0  0  0  0  0
   -3.2518   -1.0850    0.5540 H   0  0  0  0  0  0  0  0  0  0  0  0
   -2.0425   -1.6454   -0.6134 H   0  0  0  0  0  0  0  0  0  0  0  0
   -1.6142   -1.4008    1.9537 H   0  0  0  0  0  0  0  0  0  0  0  0
    0.6467   -1.0345    1.7583 H   0  0  0  0  0  0  0  0  0  0  0  0
    0.1244   -2.1907    0.5175 H   0  0  0  0  0  0  0  0  0  0  0  0
    0.4424   -0.7533   -1.2137 H   0  0  0  0  0  0  0  0  0  0  0  0
    2.3596    0.1250    0.9617 H   0  0  0  0  0  0  0  0  0  0  0  0
    2.7014    0.2312   -0.8172 H   0  0  0  0  0  0  0  0  0  0  0  0
    1.9163   -2.2724   -0.5320 H   0  0  0  0  0  0  0  0  0  0  0  0
    3.5678   -1.7283   -0.4284 H   0  0  0  0  0  0  0  0  0  0  0  0
  1  2  1  0
  2  3  1  0
  3  4  2  0
  3  5  1  0
  5  6  1  0
  6  7  1  0
  7  8  1  0
  8  9  1  0
  9 10  1  0
 10 11  1  0
  9  2  1  0
  1 12  1  0
  1 13  1  0
  1 14  1  0
  5 15  1  0
  5 16  1  0
  6 17  1  0
  6 18  1  0
  7 19  1  0
  8 20  1  0
  8 21  1  0
  9 22  1  6
 10 23  1  0
 10 24  1  0
 11 25  1  0
 11 26  1  0
M  END
$$$$

     RDKit          3D

 26 26  0  0  0  0  0  0  0  0999 V2000
   -1.0100   -2.0532    0.3012 C   0  0  0  0  0  0  0  0  0  0  0  0
   -0.1006   -0.9844   -0.0356 N   0  0  0  0  0  0  0  0  0  0  0  0
    1.2430   -1.1194    0.3849 C   0  0  0  0  0  0  0  0  0  0  0  0
    1.3885   -2.0132    1.2863 O   0  0  0  0  0  0  0  0  0  0  0  0
    2.4911   -0.4177   -0.0296 C   0  0  0  0  0  0  0  0  0  0  0  0
    2.3014    1.0743   -0.0329 C   0  0  0  0  0  0  0  0  0  0  0  0
    0.9908    1.4012    0.5014 N   0  0  0  0  0  0  0  0  0  0  0  0
    0.0042    1.4239   -0.5334 C   0  0  0  0  0  0  0  0  0  0  0  0
   -0.6728    0.1028   -0.7663 C   0  0  2  0  0  0  0  0  0  0  0  0
   -2.1477    0.2906   -0.4989 C   0  0  0  0  0  0  0  0  0  0  0  0
   -2.4381    0.5584    0.8791 N   0  0  0  0  0  0  0  0  0  0  0  0
   -1.3177   -2.5412   -0.6540 H   0  0  0  0  0  0  0  0  0  0  0  0
   -1.8586   -1.7496    0.9141 H   0  0  0  0  0  0  0  0  0  0  0  0
   -0.4676   -2.8670    0.8661 H   0  0  0  0  0  0  0  0  0  0  0  0
    3.2787   -0.6440    0.7181 H   0  0  0  0  0  0  0  0  0  0  0  0
    2.8714   -0.7979   -1.0004 H   0  0  0  0  0  0  0  0  0  0  0  0
    2.3328    1.4465   -1.0652 H   0  0  0  0  0  0  0  0  0  0  0  0
    3.0628    1.6140    0.5532 H   0  0  0  0  0  0  0  0  0  0  0  0
    0.7570    0.8383    1.3257 H   0  0  0  0  0  0  0  0  0  0  0  0
   -0.7313    2.2475   -0.3106 H   0  0  0  0  0  0  0  0  0  0  0  0
    0.5118    1.7637   -1.4772 H   0  0  0  0  0  0  0  0  0  0  0  0
   -0.5959   -0.1685   -1.8603 H   0  0  0  0  0  0  0  0  0  0  0  0
   -2.7604   -0.5604   -0.8858 H   0  0  0  0  0  0  0  0  0  0  0  0
   -2.4639    1.1754   -1.0910 H   0  0  0  0  0  0  0  0  0  0  0  0
   -3.0464    1.4150    1.0060 H   0  0  0  0  0  0  0  0  0  0  0  0
   -1.6227    0.5648    1.5050 H   0  0  0  0  0  0  0  0  0  0  0  0
  1  2  1  0
  2  3  1  0
  3  4  2  0
  3  5  1  0
  5  6  1  0
  6  7  1  0
  7  8  1  0
  8  9  1  0
  9 10  1  0
 10 11  1  0
  9  2  1  0
  1 12  1  0
  1 13  1  0
  1 14  1  0
  5 15  1  0
  5 16  1  0
  6 17  1  0
  6 18  1  0
  7 19  1  0
  8 20  1  0
  8 21  1  0
  9 22  1  6
 10 23  1  0
 10 24  1  0
 11 25  1  0
 11 26  1  0
M  END
$$$$

     RDKit          3D

 26 26  0  0  0  0  0  0  0  0999 V2000
    0.8740    2.1682    0.5330 C   0  0  0  0  0  0  0  0  0  0  0  0
    0.0476    1.0501    0.0883 N   0  0  0  0  0  0  0  0  0  0  0  0
   -1.3207    1.0564    0.4780 C   0  0  0  0  0  0  0  0  0  0  0  0
   -1.6714    2.1518    0.9862 O   0  0  0  0  0  0  0  0  0  0  0  0
   -2.3832    0.0542    0.4044 C   0  0  0  0  0  0  0  0  0  0  0  0
   -1.9578   -1.3586    0.4901 C   0  0  0  0  0  0  0  0  0  0  0  0
   -0.6687   -1.6813    0.0120 N   0  0  0  0  0  0  0  0  0  0  0  0
   -0.2320   -1.0008   -1.1602 C   0  0  0  0  0  0  0  0  0  0  0  0
    0.7513    0.0732   -0.7027 C   0  0  2  0  0  0  0  0  0  0  0  0
    1.7630   -0.6479    0.1983 C   0  0  0  0  0  0  0  0  0  0  0  0
    2.6638    0.3495    0.7072 N   0  0  0  0  0  0  0  0  0  0  0  0
    1.2173    2.0291    1.5718 H   0  0  0  0  0  0  0  0  0  0  0  0
    1.6842    2.3234   -0.1897 H   0  0  0  0  0  0  0  0  0  0  0  0
    0.2370    3.0972    0.5278 H   0  0  0  0  0  0  0  0  0  0  0  0
   -3.0782    0.2424    1.2767 H   0  0  0  0  0  0  0  0  0  0  0  0
   -3.0530    0.2044   -0.4923 H   0  0  0  0  0  0  0  0  0  0  0  0
   -2.0414   -1.7642    1.5414 H   0  0  0  0  0  0  0  0  0  0  0  0
   -2.7028   -1.9843   -0.0857 H   0  0  0  0  0  0  0  0  0  0  0  0
   -0.5851   -2.7111   -0.1162 H   0  0  0  0  0  0  0  0  0  0  0  0
   -1.1201   -0.4690   -1.5963 H   0  0  0  0  0  0  0  0  0  0  0  0
    0.1923   -1.6440   -1.9457 H   0  0  0  0  0  0  0  0  0  0  0  0
    1.2613    0.4933   -1.5705 H   0  0  0  0  0  0  0  0  0  0  0  0
    1.2412   -1.2247    0.9862 H   0  0  0  0  0  0  0  0  0  0  0  0
    2.3501   -1.3704   -0.4320 H   0  0  0  0  0  0  0  0  0  0  0  0
    3.4225    0.4847   -0.0011 H   0  0  0  0  0  0  0  0  0  0  0  0
    3.1085    0.0784    1.6101 H   0  0  0  0  0  0  0  0  0  0  0  0
  1  2  1  0
  2  3  1  0
  3  4  2  0
  3  5  1  0
  5  6  1  0
  6  7  1  0
  7  8  1  0
  8  9  1  0
  9 10  1  0
 10 11  1  0
  9  2  1  0
  1 12  1  0
  1 13  1  0
  1 14  1  0
  5 15  1  0
  5 16  1  0
  6 17  1  0
  6 18  1  0
  7 19  1  0
  8 20  1  0
  8 21  1  0
  9 22  1  6
 10 23  1  0
 10 24  1  0
 11 25  1  0
 11 26  1  0
M  END
$$$$
