
     RDKit          3D

 28 29  0  0  0  0  0  0  0  0999 V2000
    0.6451    2.5345   -0.2892 O   0  0  0  0  0  0  0  0  0  0  0  0
    1.0931    1.3942   -0.0240 C   0  0  0  0  0  0  0  0  0  0  0  0
    2.4865    1.1593   -0.3191 N   0  0  0  0  0  0  0  0  0  0  0  0
    3.1318   -0.0547    0.1434 C   0  0  0  0  0  0  0  0  0  0  0  0
    2.1698   -1.1693   -0.1959 C   0  0  0  0  0  0  0  0  0  0  0  0
    2.6012   -2.3199   -0.4754 O   0  0  0  0  0  0  0  0  0  0  0  0
    0.7700   -0.9109   -0.1978 N   0  0  0  0  0  0  0  0  0  0  0  0
   -0.0885   -1.7935   -0.9093 C   0  0  0  0  0  0  0  0  0  0  0  0
   -1.5282   -1.4445   -0.9452 C   0  0  0  0  0  0  0  0  0  0  0  0
   -1.6894    0.0669   -0.7624 C   0  0  0  0  0  0  0  0  0  0  0  0
   -1.1204    0.3838    0.5873 C   0  0  2  0  0  0  0  0  0  0  0  0
   -1.6377    1.6348    1.1900 C   0  0  0  0  0  0  0  0  0  0  0  0
   -3.0431    1.5547    1.3577 O   0  0  0  0  0  0  0  0  0  0  0  0
    0.3534    0.2730    0.5540 C   0  0  2  0  0  0  0  0  0  0  0  0
    3.0394    1.8552   -0.8641 H   0  0  0  0  0  0  0  0  0  0  0  0
    4.0691   -0.2444   -0.3752 H   0  0  0  0  0  0  0  0  0  0  0  0
    3.2471    0.0154    1.2525 H   0  0  0  0  0  0  0  0  0  0  0  0
    0.0109   -2.8144   -0.4344 H   0  0  0  0  0  0  0  0  0  0  0  0
    0.2543   -1.9757   -1.9686 H   0  0  0  0  0  0  0  0  0  0  0  0
   -1.9717   -1.7076   -1.9069 H   0  0  0  0  0  0  0  0  0  0  0  0
   -2.0435   -1.9491   -0.1022 H   0  0  0  0  0  0  0  0  0  0  0  0
   -1.1587    0.5896   -1.5889 H   0  0  0  0  0  0  0  0  0  0  0  0
   -2.7766    0.2526   -0.7530 H   0  0  0  0  0  0  0  0  0  0  0  0
   -1.4790   -0.4585    1.2602 H   0  0  0  0  0  0  0  0  0  0  0  0
   -1.2266    1.8235    2.1954 H   0  0  0  0  0  0  0  0  0  0  0  0
   -1.5147    2.5385    0.5267 H   0  0  0  0  0  0  0  0  0  0  0  0
   -3.2998    0.5936    1.4213 H   0  0  0  0  0  0  0  0  0  0  0  0
    0.7063    0.1733    1.6232 H   0  0  0  0  0  0  0  0  0  0  0  0
  1  2  2  0
  2  3  1  0
  3  4  1  0
  4  5  1  0
  5  6  2  0
  5  7  1  0
  7  8  1  0
  8  9  1  0
  9 10  1  0
 10 11  1  0
 11 12  1  0
 12 13  1  0
 11 14  1  0
 14  2  1  0
 14  7  1  0
  3 15  1  0
  4 16  1  0
  4 17  1  0
  8 18  1  0
  8 19  1  0
  9 20  1  0
  9 21  1  0
 10 22  1  0
 10 23  1  0
 11 24  1  1
 12 25  1  0
 12 26  1  0
 13 27  1  0
 14 28  1  1
M  END
$$$$

     RDKit          3D

 28 29  0  0  0  0  0  0  0  0999 V2000
    1.0420   -2.6390   -0.3780 O   0  0  0  0  0  0  0  0  0  0  0  0
    1.2798   -1.4123   -0.5272 C   0  0  0  0  0  0  0  0  0  0  0  0
    2.6480   -1.0290   -0.4896 N   0  0  0  0  0  0  0  0  0  0  0  0
    3.1006    0.2633   -0.0427 C   0  0  0  0  0  0  0  0  0  0  0  0
    1.9062    1.0256    0.4695 C   0  0  0  0  0  0  0  0  0  0  0  0
    1.9964    1.8221    1.4444 O   0  0  0  0  0  0  0  0  0  0  0  0
    0.6512    0.8523   -0.1490 N   0  0  0  0  0  0  0  0  0  0  0  0
   -0.2595    1.9928   -0.1912 C   0  0  0  0  0  0  0  0  0  0  0  0
   -1.5571    1.5184    0.4239 C   0  0  0  0  0  0  0  0  0  0  0  0
   -2.0503    0.3684   -0.4363 C   0  0  0  0  0  0  0  0  0  0  0  0
   -1.1333   -0.8190   -0.3398 C   0  0  2  0  0  0  0  0  0  0  0  0
   -1.2513   -1.4245    1.0132 C   0  0  0  0  0  0  0  0  0  0  0  0
   -2.6042   -1.8138    1.1620 O   0  0  0  0  0  0  0  0  0  0  0  0
    0.2522   -0.3953   -0.7309 C   0  0  2  0  0  0  0  0  0  0  0  0
    3.4118   -1.7009   -0.7988 H   0  0  0  0  0  0  0  0  0  0  0  0
    3.5404    0.8477   -0.8982 H   0  0  0  0  0  0  0  0  0  0  0  0
    3.8468    0.2138    0.7735 H   0  0  0  0  0  0  0  0  0  0  0  0
   -0.3885    2.2800   -1.2602 H   0  0  0  0  0  0  0  0  0  0  0  0
    0.1589    2.8653    0.3323 H   0  0  0  0  0  0  0  0  0  0  0  0
   -2.3229    2.3199    0.4497 H   0  0  0  0  0  0  0  0  0  0  0  0
   -1.3211    1.2104    1.4599 H   0  0  0  0  0  0  0  0  0  0  0  0
   -3.0952    0.1001   -0.2118 H   0  0  0  0  0  0  0  0  0  0  0  0
   -2.0194    0.7298   -1.4915 H   0  0  0  0  0  0  0  0  0  0  0  0
   -1.4850   -1.5649   -1.0822 H   0  0  0  0  0  0  0  0  0  0  0  0
   -0.6756   -2.3515    1.1675 H   0  0  0  0  0  0  0  0  0  0  0  0
   -1.0357   -0.7644    1.8555 H   0  0  0  0  0  0  0  0  0  0  0  0
   -2.8425   -2.2852    0.3230 H   0  0  0  0  0  0  0  0  0  0  0  0
    0.2074   -0.2101   -1.8470 H   0  0  0  0  0  0  0  0  0  0  0  0
  1  2  2  0
  2  3  1  0
  3  4  1  0
  4  5  1  0
  5  6  2  0
  5  7  1  0
  7  8  1  0
  8  9  1  0
  9 10  1  0
 10 11  1  0
 11 12  1  0
 12 13  1  0
 11 14  1  0
 14  2  1  0
 14  7  1  0
  3 15  1  0
  4 16  1  0
  4 17  1  0
  8 18  1  0
  8 19  1  0
  9 20  1  0
  9 21  1  0
 10 22  1  0
 10 23  1  0
 11 24  1  6
 12 25  1  0
 12 26  1  0
 13 27  1  0
 14 28  1  6
M  END
$$$$

     RDKit          3D

 28 29  0  0  0  0  0  0  0  0999 V2000
    0.7619   -1.8712    1.5823 O   0  0  0  0  0  0  0  0  0  0  0  0
    1.2006   -1.1351    0.6812 C   0  0  0  0  0  0  0  0  0  0  0  0
    2.6035   -0.9055    0.6113 N   0  0  0  0  0  0  0  0  0  0  0  0
    3.1515    0.1409   -0.2732 C   0  0  0  0  0  0  0  0  0  0  0  0
    2.1269    1.2484   -0.2072 C   0  0  0  0  0  0  0  0  0  0  0  0
    2.5021    2.4679   -0.1952 O   0  0  0  0  0  0  0  0  0  0  0  0
    0.7342    0.9647   -0.1573 N   0  0  0  0  0  0  0  0  0  0  0  0
   -0.1935    2.0146    0.0783 C   0  0  0  0  0  0  0  0  0  0  0  0
   -1.5650    1.4695    0.4702 C   0  0  0  0  0  0  0  0  0  0  0  0
   -1.9011    0.4400   -0.5566 C   0  0  0  0  0  0  0  0  0  0  0  0
   -1.0110   -0.7826   -0.4816 C   0  0  2  0  0  0  0  0  0  0  0  0
   -1.6201   -1.7298    0.5193 C   0  0  0  0  0  0  0  0  0  0  0  0
   -2.9226   -2.0555    0.0556 O   0  0  0  0  0  0  0  0  0  0  0  0
    0.3927   -0.4516   -0.3566 C   0  0  2  0  0  0  0  0  0  0  0  0
    3.3011   -1.4490    1.1663 H   0  0  0  0  0  0  0  0  0  0  0  0
    4.1194    0.4939    0.0673 H   0  0  0  0  0  0  0  0  0  0  0  0
    3.1210   -0.2486   -1.2979 H   0  0  0  0  0  0  0  0  0  0  0  0
    0.0965    2.7060    0.8997 H   0  0  0  0  0  0  0  0  0  0  0  0
   -0.3082    2.6443   -0.8280 H   0  0  0  0  0  0  0  0  0  0  0  0
   -2.3050    2.2892    0.3807 H   0  0  0  0  0  0  0  0  0  0  0  0
   -1.5737    1.0883    1.5039 H   0  0  0  0  0  0  0  0  0  0  0  0
   -1.6906    0.9033   -1.5637 H   0  0  0  0  0  0  0  0  0  0  0  0
   -2.9738    0.1452   -0.5364 H   0  0  0  0  0  0  0  0  0  0  0  0
   -1.1916   -1.2967   -1.4814 H   0  0  0  0  0  0  0  0  0  0  0  0
   -1.1248   -2.7088    0.5923 H   0  0  0  0  0  0  0  0  0  0  0  0
   -1.7734   -1.1970    1.4706 H   0  0  0  0  0  0  0  0  0  0  0  0
   -2.8906   -2.5015   -0.8103 H   0  0  0  0  0  0  0  0  0  0  0  0
    0.9336   -0.6835   -1.3336 H   0  0  0  0  0  0  0  0  0  0  0  0
  1  2  2  0
  2  3  1  0
  3  4  1  0
  4  5  1  0
  5  6  2  0
  5  7  1  0
  7  8  1  0
  8  9  1  0
  9 10  1  0
 10 11  1  0
 11 12  1  0
 12 13  1  0
 11 14  1  0
 14  2  1  0
 14  7  1  0
  3 15  1  0
  4 16  1  0
  4 17  1  0
  8 18  1  0
  8 19  1  0
  9 20  1  0
  9 21  1  0
 10 22  1  0
 10 23  1  0
 11 24  1  6
 12 25  1  0
 12 26  1  0
 13 27  1  0
 14 28  1  6
M  END
$$$$

     RDKit          3D

 28 29  0  0  0  0  0  0  0  0999 V2000
    0.0723   -2.0683   -2.2060 O   0  0  0  0  0  0  0  0  0  0  0  0
    0.5718   -1.4108   -1.2612 C   0  0  0  0  0  0  0  0  0  0  0  0
    1.5876   -1.9768   -0.4553 N   0  0  0  0  0  0  0  0  0  0  0  0
    2.5476   -1.1626    0.2823 C   0  0  0  0  0  0  0  0  0  0  0  0
    1.9470    0.1078    0.7003 C   0  0  0  0  0  0  0  0  0  0  0  0
    2.2696    0.7189    1.7651 O   0  0  0  0  0  0  0  0  0  0  0  0
    0.9580    0.6988   -0.1073 N   0  0  0  0  0  0  0  0  0  0  0  0
    0.7316    2.1323   -0.0982 C   0  0  0  0  0  0  0  0  0  0  0  0
   -0.7090    2.3543    0.2585 C   0  0  0  0  0  0  0  0  0  0  0  0
   -1.4378    1.0764    0.6264 C   0  0  0  0  0  0  0  0  0  0  0  0
   -1.2901    0.0096   -0.4094 C   0  0  2  0  0  0  0  0  0  0  0  0
   -1.6273   -1.3157    0.2346 C   0  0  0  0  0  0  0  0  0  0  0  0
   -2.9084   -1.3617    0.7282 O   0  0  0  0  0  0  0  0  0  0  0  0
    0.0963   -0.0580   -1.0009 C   0  0  2  0  0  0  0  0  0  0  0  0
    1.6703   -3.0146   -0.3720 H   0  0  0  0  0  0  0  0  0  0  0  0
    2.9062   -1.7298    1.1578 H   0  0  0  0  0  0  0  0  0  0  0  0
    3.4375   -0.9587   -0.3604 H   0  0  0  0  0  0  0  0  0  0  0  0
    1.4326    2.6588    0.5775 H   0  0  0  0  0  0  0  0  0  0  0  0
    0.9271    2.5388   -1.1194 H   0  0  0  0  0  0  0  0  0  0  0  0
   -0.7327    3.0526    1.1164 H   0  0  0  0  0  0  0  0  0  0  0  0
   -1.2327    2.8674   -0.5729 H   0  0  0  0  0  0  0  0  0  0  0  0
   -1.1229    0.7944    1.6318 H   0  0  0  0  0  0  0  0  0  0  0  0
   -2.5250    1.3512    0.6691 H   0  0  0  0  0  0  0  0  0  0  0  0
   -2.0433    0.1917   -1.2036 H   0  0  0  0  0  0  0  0  0  0  0  0
   -0.9329   -1.5348    1.0870 H   0  0  0  0  0  0  0  0  0  0  0  0
   -1.5115   -2.1475   -0.4906 H   0  0  0  0  0  0  0  0  0  0  0  0
   -3.1820   -2.3120    0.7927 H   0  0  0  0  0  0  0  0  0  0  0  0
    0.1001    0.4983   -1.9704 H   0  0  0  0  0  0  0  0  0  0  0  0
  1  2  2  0
  2  3  1  0
  3  4  1  0
  4  5  1  0
  5  6  2  0
  5  7  1  0
  7  8  1  0
  8  9  1  0
  9 10  1  0
 10 11  1  0
 11 12  1  0
 12 13  1  0
 11 14  1  0
 14  2  1  0
 14  7  1  0
  3 15  1  0
  4 16  1  0
  4 17  1  0
  8 18  1  0
  8 19  1  0
  9 20  1  0
  9 21  1  0
 10 22  1  0
 10 23  1  0
 11 24  1  6
 12 25  1  0
 12 26  1  0
 13 27  1  0
 14 28  1  6
M  END
$$$$

     RDKit          3D

 28 29  0  0  0  0  0  0  0  0999 V2000
    0.7625    2.0133   -1.3856 O   0  0  0  0  0  0  0  0  0  0  0  0
    1.1450    1.2039   -0.5101 C   0  0  0  0  0  0  0  0  0  0  0  0
    2.5564    0.9855   -0.4052 N   0  0  0  0  0  0  0  0  0  0  0  0
    3.1175   -0.0281    0.4788 C   0  0  0  0  0  0  0  0  0  0  0  0
    2.1331   -1.1634    0.4736 C   0  0  0  0  0  0  0  0  0  0  0  0
    2.5183   -2.3648    0.6264 O   0  0  0  0  0  0  0  0  0  0  0  0
    0.7472   -0.9428    0.2996 N   0  0  0  0  0  0  0  0  0  0  0  0
   -0.1390   -2.0230    0.0250 C   0  0  0  0  0  0  0  0  0  0  0  0
   -1.3784   -1.6959   -0.7088 C   0  0  0  0  0  0  0  0  0  0  0  0
   -1.7244   -0.2568   -0.8578 C   0  0  0  0  0  0  0  0  0  0  0  0
   -1.1654    0.5762    0.2618 C   0  0  2  0  0  0  0  0  0  0  0  0
   -1.6076    1.9914    0.2716 C   0  0  0  0  0  0  0  0  0  0  0  0
   -3.0007    2.1225    0.3912 O   0  0  0  0  0  0  0  0  0  0  0  0
    0.3051    0.4554    0.4192 C   0  0  2  0  0  0  0  0  0  0  0  0
    3.2313    1.5623   -0.9742 H   0  0  0  0  0  0  0  0  0  0  0  0
    4.0503   -0.4341    0.0546 H   0  0  0  0  0  0  0  0  0  0  0  0
    3.2702    0.3562    1.5092 H   0  0  0  0  0  0  0  0  0  0  0  0
    0.3660   -2.8858   -0.4833 H   0  0  0  0  0  0  0  0  0  0  0  0
   -0.4277   -2.4545    1.0298 H   0  0  0  0  0  0  0  0  0  0  0  0
   -1.3060   -2.1169   -1.7567 H   0  0  0  0  0  0  0  0  0  0  0  0
   -2.2464   -2.2668   -0.2751 H   0  0  0  0  0  0  0  0  0  0  0  0
   -2.8328   -0.1606   -0.8103 H   0  0  0  0  0  0  0  0  0  0  0  0
   -1.4333    0.1414   -1.8512 H   0  0  0  0  0  0  0  0  0  0  0  0
   -1.6061    0.1159    1.2024 H   0  0  0  0  0  0  0  0  0  0  0  0
   -1.3182    2.6143   -0.5706 H   0  0  0  0  0  0  0  0  0  0  0  0
   -1.1802    2.4672    1.1881 H   0  0  0  0  0  0  0  0  0  0  0  0
   -3.4027    1.3996    0.8997 H   0  0  0  0  0  0  0  0  0  0  0  0
    0.5661    0.7885    1.4580 H   0  0  0  0  0  0  0  0  0  0  0  0
  1  2  2  0
  2  3  1  0
  3  4  1  0
  4  5  1  0
  5  6  2  0
  5  7  1  0
  7  8  1  0
  8  9  1  0
  9 10  1  0
 10 11  1  0
 11 12  1  0
 12 13  1  0
 11 14  1  0
 14  2  1  0
 14  7  1  0
  3 15  1  0
  4 16  1  0
  4 17  1  0
  8 18  1  0
  8 19  1  0
  9 20  1  0
  9 21  1  0
 10 22  1  0
 10 23  1  0
 11 24  1  1
 12 25  1  0
 12 26  1  0
 13 27  1  0
 14 28  1  1
M  END
$$$$

     RDKit          3D

 28 29  0  0  0  0  0  0  0  0999 V2000
    1.3529   -1.8444   -2.0264 O   0  0  0  0  0  0  0  0  0  0  0  0
    1.4204   -1.0470   -1.0666 C   0  0  0  0  0  0  0  0  0  0  0  0
    2.4432   -1.2507   -0.1074 N   0  0  0  0  0  0  0  0  0  0  0  0
    2.2666   -0.6595    1.2097 C   0  0  0  0  0  0  0  0  0  0  0  0
    1.7579    0.7156    1.0532 C   0  0  0  0  0  0  0  0  0  0  0  0
    2.2261    1.6943    1.7239 O   0  0  0  0  0  0  0  0  0  0  0  0
    0.7137    0.9417    0.1227 N   0  0  0  0  0  0  0  0  0  0  0  0
   -0.1401    2.0991    0.2478 C   0  0  0  0  0  0  0  0  0  0  0  0
   -1.5595    1.5616    0.3978 C   0  0  0  0  0  0  0  0  0  0  0  0
   -1.9256    0.6933   -0.7749 C   0  0  0  0  0  0  0  0  0  0  0  0
   -0.9827   -0.4278   -1.0221 C   0  0  2  0  0  0  0  0  0  0  0  0
   -1.2282   -1.6144   -0.1268 C   0  0  0  0  0  0  0  0  0  0  0  0
   -1.1074   -1.3212    1.2153 O   0  0  0  0  0  0  0  0  0  0  0  0
    0.4492    0.0489   -0.9798 C   0  0  2  0  0  0  0  0  0  0  0  0
    3.3135   -1.8037   -0.3037 H   0  0  0  0  0  0  0  0  0  0  0  0
    3.2579   -0.6048    1.7414 H   0  0  0  0  0  0  0  0  0  0  0  0
    1.5876   -1.2804    1.8294 H   0  0  0  0  0  0  0  0  0  0  0  0
    0.0881    2.7356    1.1012 H   0  0  0  0  0  0  0  0  0  0  0  0
   -0.1091    2.7025   -0.7020 H   0  0  0  0  0  0  0  0  0  0  0  0
   -1.6611    1.0711    1.3703 H   0  0  0  0  0  0  0  0  0  0  0  0
   -2.2263    2.4502    0.3659 H   0  0  0  0  0  0  0  0  0  0  0  0
   -1.9307    1.3572   -1.6775 H   0  0  0  0  0  0  0  0  0  0  0  0
   -2.9494    0.3146   -0.6014 H   0  0  0  0  0  0  0  0  0  0  0  0
   -1.1539   -0.7894   -2.0705 H   0  0  0  0  0  0  0  0  0  0  0  0
   -2.2769   -1.9368   -0.3025 H   0  0  0  0  0  0  0  0  0  0  0  0
   -0.5860   -2.4545   -0.4116 H   0  0  0  0  0  0  0  0  0  0  0  0
   -1.6279   -2.0224    1.7089 H   0  0  0  0  0  0  0  0  0  0  0  0
    0.5876    0.6715   -1.9143 H   0  0  0  0  0  0  0  0  0  0  0  0
  1  2  2  0
  2  3  1  0
  3  4  1  0
  4  5  1  0
  5  6  2  0
  5  7  1  0
  7  8  1  0
  8  9  1  0
  9 10  1  0
 10 11  1  0
 11 12  1  0
 12 13  1  0
 11 14  1  0
 14  2  1  0
 14  7  1  0
  3 15  1  0
  4 16  1  0
  4 17  1  0
  8 18  1  0
  8 19  1  0
  9 20  1  0
  9 21  1  0
 10 22  1  0
 10 23  1  0
 11 24  1  6
 12 25  1  0
 12 26  1  0
 13 27  1  0
 14 28  1  6
M  END
$$$$

     RDKit          3D

 28 29  0  0  0  0  0  0  0  0999 V2000
   -0.0878   -1.4843    2.0345 O   0  0  0  0  0  0  0  0  0  0  0  0
    0.6005   -1.1688    1.0544 C   0  0  0  0  0  0  0  0  0  0  0  0
    2.0086   -1.4549    1.1207 N   0  0  0  0  0  0  0  0  0  0  0  0
    2.9380   -0.8965    0.1439 C   0  0  0  0  0  0  0  0  0  0  0  0
    2.3811    0.3665   -0.4426 C   0  0  0  0  0  0  0  0  0  0  0  0
    3.1736    1.1995   -0.9611 O   0  0  0  0  0  0  0  0  0  0  0  0
    0.9688    0.6257   -0.4156 N   0  0  0  0  0  0  0  0  0  0  0  0
    0.5232    1.9745   -0.6130 C   0  0  0  0  0  0  0  0  0  0  0  0
   -0.9455    2.0793   -0.9113 C   0  0  0  0  0  0  0  0  0  0  0  0
   -1.6511    1.2147    0.1445 C   0  0  0  0  0  0  0  0  0  0  0  0
   -1.2983   -0.2149   -0.2585 C   0  0  2  0  0  0  0  0  0  0  0  0
   -2.2150   -1.1598    0.4689 C   0  0  0  0  0  0  0  0  0  0  0  0
   -1.9503   -2.4902    0.1500 O   0  0  0  0  0  0  0  0  0  0  0  0
    0.1336   -0.5254   -0.1873 C   0  0  2  0  0  0  0  0  0  0  0  0
    2.4246   -2.0638    1.8564 H   0  0  0  0  0  0  0  0  0  0  0  0
    3.8448   -0.5749    0.7232 H   0  0  0  0  0  0  0  0  0  0  0  0
    3.2500   -1.6132   -0.6118 H   0  0  0  0  0  0  0  0  0  0  0  0
    0.7118    2.6203    0.2939 H   0  0  0  0  0  0  0  0  0  0  0  0
    1.1215    2.4581   -1.4253 H   0  0  0  0  0  0  0  0  0  0  0  0
   -1.2598    3.1325   -0.8405 H   0  0  0  0  0  0  0  0  0  0  0  0
   -1.1189    1.6340   -1.9138 H   0  0  0  0  0  0  0  0  0  0  0  0
   -1.2495    1.4641    1.1467 H   0  0  0  0  0  0  0  0  0  0  0  0
   -2.7291    1.3627    0.0635 H   0  0  0  0  0  0  0  0  0  0  0  0
   -1.6117   -0.2748   -1.3457 H   0  0  0  0  0  0  0  0  0  0  0  0
   -3.2464   -0.9622    0.0453 H   0  0  0  0  0  0  0  0  0  0  0  0
   -2.3086   -0.9682    1.5420 H   0  0  0  0  0  0  0  0  0  0  0  0
   -2.7947   -3.0275    0.1545 H   0  0  0  0  0  0  0  0  0  0  0  0
    0.3864   -1.2525   -1.0158 H   0  0  0  0  0  0  0  0  0  0  0  0
  1  2  2  0
  2  3  1  0
  3  4  1  0
  4  5  1  0
  5  6  2  0
  5  7  1  0
  7  8  1  0
  8  9  1  0
  9 10  1  0
 10 11  1  0
 11 12  1  0
 12 13  1  0
 11 14  1  0
 14  2  1  0
 14  7  1  0
  3 15  1  0
  4 16  1  0
  4 17  1  0
  8 18  1  0
  8 19  1  0
  9 20  1  0
  9 21  1  0
 10 22  1  0
 10 23  1  0
 11 24  1  6
 12 25  1  0
 12 26  1  0
 13 27  1  0
 14 28  1  6
M  END
$$$$

     RDKit          3D

 28 29  0  0  0  0  0  0  0  0999 V2000
    1.4472    0.9914    2.5073 O   0  0  0  0  0  0  0  0  0  0  0  0
    1.2561    0.6352    1.3134 C   0  0  0  0  0  0  0  0  0  0  0  0
    2.1206    1.2252    0.3529 N   0  0  0  0  0  0  0  0  0  0  0  0
    2.3103    0.5601   -0.9191 C   0  0  0  0  0  0  0  0  0  0  0  0
    1.7849   -0.8196   -0.8972 C   0  0  0  0  0  0  0  0  0  0  0  0
    2.3858   -1.7315   -1.5452 O   0  0  0  0  0  0  0  0  0  0  0  0
    0.6371   -1.1243   -0.1717 N   0  0  0  0  0  0  0  0  0  0  0  0
   -0.2319   -2.2439   -0.4567 C   0  0  0  0  0  0  0  0  0  0  0  0
   -1.5528   -1.6915   -0.8613 C   0  0  0  0  0  0  0  0  0  0  0  0
   -1.9062   -0.3384   -0.4104 C   0  0  0  0  0  0  0  0  0  0  0  0
   -1.1471    0.2444    0.7306 C   0  0  2  0  0  0  0  0  0  0  0  0
   -1.1433    1.7546    0.5224 C   0  0  0  0  0  0  0  0  0  0  0  0
   -0.4870    2.4507    1.4820 O   0  0  0  0  0  0  0  0  0  0  0  0
    0.2094   -0.3233    0.9554 C   0  0  2  0  0  0  0  0  0  0  0  0
    2.6290    2.1393    0.5468 H   0  0  0  0  0  0  0  0  0  0  0  0
    1.7785    1.1864   -1.6776 H   0  0  0  0  0  0  0  0  0  0  0  0
    3.3832    0.6010   -1.2021 H   0  0  0  0  0  0  0  0  0  0  0  0
   -0.3687   -2.8672    0.4541 H   0  0  0  0  0  0  0  0  0  0  0  0
    0.1996   -2.8864   -1.2544 H   0  0  0  0  0  0  0  0  0  0  0  0
   -2.3351   -2.4476   -0.5468 H   0  0  0  0  0  0  0  0  0  0  0  0
   -1.5930   -1.7649   -1.9911 H   0  0  0  0  0  0  0  0  0  0  0  0
   -1.8672    0.3545   -1.3051 H   0  0  0  0  0  0  0  0  0  0  0  0
   -3.0089   -0.3338   -0.1515 H   0  0  0  0  0  0  0  0  0  0  0  0
   -1.7380    0.0904    1.6589 H   0  0  0  0  0  0  0  0  0  0  0  0
   -2.1777    2.1459    0.4410 H   0  0  0  0  0  0  0  0  0  0  0  0
   -0.6661    1.9910   -0.4742 H   0  0  0  0  0  0  0  0  0  0  0  0
   -0.0957    3.2705    1.0885 H   0  0  0  0  0  0  0  0  0  0  0  0
    0.1770   -1.0683    1.8112 H   0  0  0  0  0  0  0  0  0  0  0  0
  1  2  2  0
  2  3  1  0
  3  4  1  0
  4  5  1  0
  5  6  2  0
  5  7  1  0
  7  8  1  0
  8  9  1  0
  9 10  1  0
 10 11  1  0
 11 12  1  0
 12 13  1  0
 11 14  1  0
 14  2  1  0
 14  7  1  0
  3 15  1  0
  4 16  1  0
  4 17  1  0
  8 18  1  0
  8 19  1  0
  9 20  1  0
  9 21  1  0
 10 22  1  0
 10 23  1  0
 11 24  1  1
 12 25  1  0
 12 26  1  0
 13 27  1  0
 14 28  1  1
M  END
$$$$
