
     RDKit          3D

 26 26  0  0  0  0  0  0  0  0999 V2000
   -3.0771   -1.6939   -0.2132 N   0  0  0  0  0  0  0  0  0  0  0  0
   -1.7408   -1.6555    0.2753 C   0  0  0  0  0  0  0  0  0  0  0  0
   -1.1100   -0.2701    0.1848 C   0  0  1  0  0  0  0  0  0  0  0  0
    0.2644   -0.4097    0.7293 C   0  0  0  0  0  0  0  0  0  0  0  0
    1.1195    0.8018    0.7422 C   0  0  0  0  0  0  0  0  0  0  0  0
    2.4886    0.6004    1.3383 C   0  0  0  0  0  0  0  0  0  0  0  0
    2.9352    0.1044    0.0687 N   0  0  0  0  0  0  0  0  0  0  0  0
    1.9233    0.9271   -0.5581 C   0  0  0  0  0  0  0  0  0  0  0  0
   -1.2591    0.3544   -1.1169 C   0  0  0  0  0  0  0  0  0  0  0  0
   -0.9159    1.7141   -1.3520 N   0  0  0  0  0  0  0  0  0  0  0  0
   -1.7048   -0.2736   -2.1259 O   0  0  0  0  0  0  0  0  0  0  0  0
   -3.1811   -2.5071   -0.8541 H   0  0  0  0  0  0  0  0  0  0  0  0
   -3.4287   -0.8399   -0.6529 H   0  0  0  0  0  0  0  0  0  0  0  0
   -1.7222   -1.9289    1.3569 H   0  0  0  0  0  0  0  0  0  0  0  0
   -1.0429   -2.3462   -0.2563 H   0  0  0  0  0  0  0  0  0  0  0  0
   -1.7197    0.3465    0.9166 H   0  0  0  0  0  0  0  0  0  0  0  0
    0.8063   -1.2331    0.1763 H   0  0  0  0  0  0  0  0  0  0  0  0
    0.1726   -0.8045    1.7823 H   0  0  0  0  0  0  0  0  0  0  0  0
    0.6343    1.7639    0.9838 H   0  0  0  0  0  0  0  0  0  0  0  0
    2.5365   -0.1149    2.1807 H   0  0  0  0  0  0  0  0  0  0  0  0
    3.0044    1.5796    1.5486 H   0  0  0  0  0  0  0  0  0  0  0  0
    2.7897   -0.9189   -0.0259 H   0  0  0  0  0  0  0  0  0  0  0  0
    2.3192    1.9327   -0.7540 H   0  0  0  0  0  0  0  0  0  0  0  0
    1.4735    0.3976   -1.4325 H   0  0  0  0  0  0  0  0  0  0  0  0
   -0.2718    1.9913   -2.1408 H   0  0  0  0  0  0  0  0  0  0  0  0
   -1.2936    2.4826   -0.7472 H   0  0  0  0  0  0  0  0  0  0  0  0
  1  2  1  0
  2  3  1  0
  3  4  1  0
  4  5  1  0
  5  6  1  0
  6  7  1  0
  7  8  1  0
  3  9  1  0
  9 10  1  0
  9 11  2  0
  8  5  1  0
  1 12  1  0
  1 13  1  0
  2 14  1  0
  2 15  1  0
  3 16  1  1
  4 17  1  0
  4 18  1  0
  5 19  1  0
  6 20  1  0
  6 21  1  0
  7 22  1  0
  8 23  1  0
  8 24  1  0
 10 25  1  0
 10 26  1  0
M  END
$$$$

     RDKit          3D

 26 26  0  0  0  0  0  0  0  0999 V2000
    2.4948   -1.6931    0.7878 N   0  0  0  0  0  0  0  0  0  0  0  0
    1.3391   -0.8207    0.9871 C   0  0  0  0  0  0  0  0  0  0  0  0
    0.9692   -0.2582   -0.3685 C   0  0  1  0  0  0  0  0  0  0  0  0
   -0.2217    0.6644   -0.2817 C   0  0  0  0  0  0  0  0  0  0  0  0
   -1.4533   -0.0232    0.2514 C   0  0  0  0  0  0  0  0  0  0  0  0
   -2.5999    0.9759    0.3050 C   0  0  0  0  0  0  0  0  0  0  0  0
   -3.4791   -0.0509   -0.1898 N   0  0  0  0  0  0  0  0  0  0  0  0
   -2.3187   -0.7019   -0.7694 C   0  0  0  0  0  0  0  0  0  0  0  0
    2.0977    0.5245   -0.9005 C   0  0  0  0  0  0  0  0  0  0  0  0
    2.5957    1.6463   -0.2032 N   0  0  0  0  0  0  0  0  0  0  0  0
    2.6273    0.2005   -1.9799 O   0  0  0  0  0  0  0  0  0  0  0  0
    2.3748   -2.6096    1.2833 H   0  0  0  0  0  0  0  0  0  0  0  0
    2.6843   -1.8554   -0.2316 H   0  0  0  0  0  0  0  0  0  0  0  0
    1.6526   -0.0453    1.6942 H   0  0  0  0  0  0  0  0  0  0  0  0
    0.5211   -1.4524    1.3438 H   0  0  0  0  0  0  0  0  0  0  0  0
    0.7630   -1.0955   -1.0488 H   0  0  0  0  0  0  0  0  0  0  0  0
   -0.0020    1.5427    0.3235 H   0  0  0  0  0  0  0  0  0  0  0  0
   -0.4568    0.9849   -1.3219 H   0  0  0  0  0  0  0  0  0  0  0  0
   -1.3506   -0.5188    1.2242 H   0  0  0  0  0  0  0  0  0  0  0  0
   -2.4812    1.8026   -0.4537 H   0  0  0  0  0  0  0  0  0  0  0  0
   -2.7962    1.3578    1.3095 H   0  0  0  0  0  0  0  0  0  0  0  0
   -3.9771   -0.6059    0.5439 H   0  0  0  0  0  0  0  0  0  0  0  0
   -2.3912   -1.8133   -0.6764 H   0  0  0  0  0  0  0  0  0  0  0  0
   -2.1294   -0.3206   -1.7855 H   0  0  0  0  0  0  0  0  0  0  0  0
    3.5483    2.0422   -0.3574 H   0  0  0  0  0  0  0  0  0  0  0  0
    1.9894    2.1229    0.5145 H   0  0  0  0  0  0  0  0  0  0  0  0
  1  2  1  0
  2  3  1  0
  3  4  1  0
  4  5  1  0
  5  6  1  0
  6  7  1  0
  7  8  1  0
  3  9  1  0
  9 10  1  0
  9 11  2  0
  8  5  1  0
  1 12  1  0
  1 13  1  0
  2 14  1  0
  2 15  1  0
  3 16  1  6
  4 17  1  0
  4 18  1  0
  5 19  1  0
  6 20  1  0
  6 21  1  0
  7 22  1  0
  8 23  1  0
  8 24  1  0
 10 25  1  0
 10 26  1  0
M  END
$$$$

     RDKit          3D

 26 26  0  0  0  0  0  0  0  0999 V2000
    1.0153   -2.0056   -0.5876 N   0  0  0  0  0  0  0  0  0  0  0  0
    1.6932   -0.8758   -0.0405 C   0  0  0  0  0  0  0  0  0  0  0  0
    0.9848    0.4331   -0.1323 C   0  0  1  0  0  0  0  0  0  0  0  0
   -0.3323    0.5212    0.5467 C   0  0  0  0  0  0  0  0  0  0  0  0
   -1.3938   -0.4114    0.0905 C   0  0  0  0  0  0  0  0  0  0  0  0
   -2.6590   -0.1368    0.9269 C   0  0  0  0  0  0  0  0  0  0  0  0
   -3.4177   -0.3871   -0.2856 N   0  0  0  0  0  0  0  0  0  0  0  0
   -2.2860    0.1331   -1.0301 C   0  0  0  0  0  0  0  0  0  0  0  0
    1.8864    1.4364    0.4999 C   0  0  0  0  0  0  0  0  0  0  0  0
    3.1904    1.6838   -0.0158 N   0  0  0  0  0  0  0  0  0  0  0  0
    1.4688    2.0626    1.5033 O   0  0  0  0  0  0  0  0  0  0  0  0
    1.1439   -2.0181   -1.6245 H   0  0  0  0  0  0  0  0  0  0  0  0
    1.4803   -2.8667   -0.2209 H   0  0  0  0  0  0  0  0  0  0  0  0
    2.6597   -0.7693   -0.6055 H   0  0  0  0  0  0  0  0  0  0  0  0
    2.0030   -1.0159    1.0195 H   0  0  0  0  0  0  0  0  0  0  0  0
    0.7994    0.7116   -1.2184 H   0  0  0  0  0  0  0  0  0  0  0  0
   -0.1715    0.4194    1.6419 H   0  0  0  0  0  0  0  0  0  0  0  0
   -0.7112    1.5715    0.3973 H   0  0  0  0  0  0  0  0  0  0  0  0
   -1.1863   -1.4783    0.0245 H   0  0  0  0  0  0  0  0  0  0  0  0
   -2.7535    0.9197    1.2289 H   0  0  0  0  0  0  0  0  0  0  0  0
   -2.8438   -0.8874    1.7069 H   0  0  0  0  0  0  0  0  0  0  0  0
   -3.5408   -1.4124   -0.4020 H   0  0  0  0  0  0  0  0  0  0  0  0
   -2.2383    1.2215   -1.0579 H   0  0  0  0  0  0  0  0  0  0  0  0
   -2.1177   -0.4109   -1.9763 H   0  0  0  0  0  0  0  0  0  0  0  0
    3.7861    2.4005    0.4446 H   0  0  0  0  0  0  0  0  0  0  0  0
    3.5406    1.1611   -0.8337 H   0  0  0  0  0  0  0  0  0  0  0  0
  1  2  1  0
  2  3  1  0
  3  4  1  0
  4  5  1  0
  5  6  1  0
  6  7  1  0
  7  8  1  0
  3  9  1  0
  9 10  1  0
  9 11  2  0
  8  5  1  0
  1 12  1  0
  1 13  1  0
  2 14  1  0
  2 15  1  0
  3 16  1  6
  4 17  1  0
  4 18  1  0
  5 19  1  0
  6 20  1  0
  6 21  1  0
  7 22  1  0
  8 23  1  0
  8 24  1  0
 10 25  1  0
 10 26  1  0
M  END
$$$$

     RDKit          3D

 26 26  0  0  0  0  0  0  0  0999 V2000
   -2.4505    1.6173    0.4759 N   0  0  0  0  0  0  0  0  0  0  0  0
   -2.0318    0.9657   -0.7284 C   0  0  0  0  0  0  0  0  0  0  0  0
   -0.9100   -0.0466   -0.4463 C   0  0  1  0  0  0  0  0  0  0  0  0
    0.2869    0.6480    0.1541 C   0  0  0  0  0  0  0  0  0  0  0  0
    1.3736   -0.3270    0.4084 C   0  0  0  0  0  0  0  0  0  0  0  0
    2.6462    0.2787    1.0242 C   0  0  0  0  0  0  0  0  0  0  0  0
    3.3537   -0.7694    0.2728 N   0  0  0  0  0  0  0  0  0  0  0  0
    2.3433   -0.5248   -0.7710 C   0  0  0  0  0  0  0  0  0  0  0  0
   -1.4392   -1.1472    0.3884 C   0  0  0  0  0  0  0  0  0  0  0  0
   -2.4468   -1.9902   -0.1635 N   0  0  0  0  0  0  0  0  0  0  0  0
   -1.0191   -1.3398    1.5517 O   0  0  0  0  0  0  0  0  0  0  0  0
   -1.7865    2.3672    0.7245 H   0  0  0  0  0  0  0  0  0  0  0  0
   -3.3914    2.0307    0.3444 H   0  0  0  0  0  0  0  0  0  0  0  0
   -1.6838    1.7069   -1.4740 H   0  0  0  0  0  0  0  0  0  0  0  0
   -2.8778    0.3771   -1.1603 H   0  0  0  0  0  0  0  0  0  0  0  0
   -0.6690   -0.4875   -1.4393 H   0  0  0  0  0  0  0  0  0  0  0  0
    0.6760    1.4487   -0.4863 H   0  0  0  0  0  0  0  0  0  0  0  0
   -0.0657    1.1071    1.1210 H   0  0  0  0  0  0  0  0  0  0  0  0
    1.1641   -1.2836    0.8761 H   0  0  0  0  0  0  0  0  0  0  0  0
    2.7081    0.1951    2.1065 H   0  0  0  0  0  0  0  0  0  0  0  0
    2.9083    1.2594    0.5754 H   0  0  0  0  0  0  0  0  0  0  0  0
    4.3124   -0.5229   -0.0053 H   0  0  0  0  0  0  0  0  0  0  0  0
    2.5554    0.4432   -1.2455 H   0  0  0  0  0  0  0  0  0  0  0  0
    2.1211   -1.3775   -1.4051 H   0  0  0  0  0  0  0  0  0  0  0  0
   -2.5291   -2.1875   -1.1795 H   0  0  0  0  0  0  0  0  0  0  0  0
   -3.1485   -2.4411    0.4812 H   0  0  0  0  0  0  0  0  0  0  0  0
  1  2  1  0
  2  3  1  0
  3  4  1  0
  4  5  1  0
  5  6  1  0
  6  7  1  0
  7  8  1  0
  3  9  1  0
  9 10  1  0
  9 11  2  0
  8  5  1  0
  1 12  1  0
  1 13  1  0
  2 14  1  0
  2 15  1  0
  3 16  1  6
  4 17  1  0
  4 18  1  0
  5 19  1  0
  6 20  1  0
  6 21  1  0
  7 22  1  0
  8 23  1  0
  8 24  1  0
 10 25  1  0
 10 26  1  0
M  END
$$$$

     RDKit          3D

 26 26  0  0  0  0  0  0  0  0999 V2000
    0.7272    1.7617    0.8403 N   0  0  0  0  0  0  0  0  0  0  0  0
    1.4417    0.9318   -0.0698 C   0  0  0  0  0  0  0  0  0  0  0  0
    1.0450   -0.5038    0.0333 C   0  0  1  0  0  0  0  0  0  0  0  0
   -0.3531   -0.8635   -0.2630 C   0  0  0  0  0  0  0  0  0  0  0  0
   -1.4124   -0.2271    0.5734 C   0  0  0  0  0  0  0  0  0  0  0  0
   -2.8225   -0.7268    0.2036 C   0  0  0  0  0  0  0  0  0  0  0  0
   -3.2023    0.5705   -0.2098 N   0  0  0  0  0  0  0  0  0  0  0  0
   -1.8887    1.1261    0.0873 C   0  0  0  0  0  0  0  0  0  0  0  0
    2.0109   -1.2616   -0.8446 C   0  0  0  0  0  0  0  0  0  0  0  0
    3.3930   -1.1767   -0.5273 N   0  0  0  0  0  0  0  0  0  0  0  0
    1.6376   -1.9441   -1.8180 O   0  0  0  0  0  0  0  0  0  0  0  0
    0.5085    2.7136    0.4706 H   0  0  0  0  0  0  0  0  0  0  0  0
    1.2991    1.8976    1.6977 H   0  0  0  0  0  0  0  0  0  0  0  0
    1.3594    1.2850   -1.1309 H   0  0  0  0  0  0  0  0  0  0  0  0
    2.5464    0.9617    0.1748 H   0  0  0  0  0  0  0  0  0  0  0  0
    1.2434   -0.8056    1.1085 H   0  0  0  0  0  0  0  0  0  0  0  0
   -0.4767   -1.9890   -0.1607 H   0  0  0  0  0  0  0  0  0  0  0  0
   -0.6283   -0.7005   -1.3486 H   0  0  0  0  0  0  0  0  0  0  0  0
   -1.2490   -0.2765    1.6511 H   0  0  0  0  0  0  0  0  0  0  0  0
   -2.7809   -1.4957   -0.6055 H   0  0  0  0  0  0  0  0  0  0  0  0
   -3.3821   -1.0912    1.0842 H   0  0  0  0  0  0  0  0  0  0  0  0
   -3.4999    0.7047   -1.2051 H   0  0  0  0  0  0  0  0  0  0  0  0
   -1.3969    1.4739   -0.8394 H   0  0  0  0  0  0  0  0  0  0  0  0
   -1.9881    1.8949    0.8977 H   0  0  0  0  0  0  0  0  0  0  0  0
    4.0241   -0.5007   -1.0474 H   0  0  0  0  0  0  0  0  0  0  0  0
    3.8445   -1.7588    0.2128 H   0  0  0  0  0  0  0  0  0  0  0  0
  1  2  1  0
  2  3  1  0
  3  4  1  0
  4  5  1  0
  5  6  1  0
  6  7  1  0
  7  8  1  0
  3  9  1  0
  9 10  1  0
  9 11  2  0
  8  5  1  0
  1 12  1  0
  1 13  1  0
  2 14  1  0
  2 15  1  0
  3 16  1  1
  4 17  1  0
  4 18  1  0
  5 19  1  0
  6 20  1  0
  6 21  1  0
  7 22  1  0
  8 23  1  0
  8 24  1  0
 10 25  1  0
 10 26  1  0
M  END
$$$$

     RDKit          3D

 26 26  0  0  0  0  0  0  0  0999 V2000
   -3.2340   -0.5767   -0.5327 N   0  0  0  0  0  0  0  0  0  0  0  0
   -1.9964   -0.2624   -1.1979 C   0  0  0  0  0  0  0  0  0  0  0  0
   -0.7963   -0.4409   -0.2490 C   0  0  1  0  0  0  0  0  0  0  0  0
    0.4078   -0.0893   -1.0474 C   0  0  0  0  0  0  0  0  0  0  0  0
    1.7219   -0.1667   -0.4019 C   0  0  0  0  0  0  0  0  0  0  0  0
    2.0519    0.6475    0.7870 C   0  0  0  0  0  0  0  0  0  0  0  0
    2.8827   -0.4693    1.2680 N   0  0  0  0  0  0  0  0  0  0  0  0
    2.0101   -1.3353    0.4955 C   0  0  0  0  0  0  0  0  0  0  0  0
   -1.0768    0.4023    0.9075 C   0  0  0  0  0  0  0  0  0  0  0  0
   -1.2431    1.8129    0.8695 N   0  0  0  0  0  0  0  0  0  0  0  0
   -1.1834   -0.1451    2.0341 O   0  0  0  0  0  0  0  0  0  0  0  0
   -3.9042    0.2155   -0.5168 H   0  0  0  0  0  0  0  0  0  0  0  0
   -3.0962   -0.9850    0.4176 H   0  0  0  0  0  0  0  0  0  0  0  0
   -1.9052   -0.9130   -2.0792 H   0  0  0  0  0  0  0  0  0  0  0  0
   -2.0609    0.8003   -1.5325 H   0  0  0  0  0  0  0  0  0  0  0  0
   -0.8004   -1.4984    0.0235 H   0  0  0  0  0  0  0  0  0  0  0  0
    0.4203   -0.7800   -1.9338 H   0  0  0  0  0  0  0  0  0  0  0  0
    0.2404    0.9278   -1.5104 H   0  0  0  0  0  0  0  0  0  0  0  0
    2.5473   -0.0876   -1.1616 H   0  0  0  0  0  0  0  0  0  0  0  0
    2.6454    1.5567    0.5567 H   0  0  0  0  0  0  0  0  0  0  0  0
    1.3050    0.8734    1.5386 H   0  0  0  0  0  0  0  0  0  0  0  0
    3.8482   -0.3516    0.8508 H   0  0  0  0  0  0  0  0  0  0  0  0
    1.1635   -1.6953    1.1130 H   0  0  0  0  0  0  0  0  0  0  0  0
    2.6063   -2.1208    0.0031 H   0  0  0  0  0  0  0  0  0  0  0  0
   -0.5638    2.3834    1.4210 H   0  0  0  0  0  0  0  0  0  0  0  0
   -1.9900    2.2976    0.3327 H   0  0  0  0  0  0  0  0  0  0  0  0
  1  2  1  0
  2  3  1  0
  3  4  1  0
  4  5  1  0
  5  6  1  0
  6  7  1  0
  7  8  1  0
  3  9  1  0
  9 10  1  0
  9 11  2  0
  8  5  1  0
  1 12  1  0
  1 13  1  0
  2 14  1  0
  2 15  1  0
  3 16  1  1
  4 17  1  0
  4 18  1  0
  5 19  1  0
  6 20  1  0
  6 21  1  0
  7 22  1  0
  8 23  1  0
  8 24  1  0
 10 25  1  0
 10 26  1  0
M  END
$$$$

     RDKit          3D

 26 26  0  0  0  0  0  0  0  0999 V2000
   -2.7987    0.4930   -0.5989 N   0  0  0  0  0  0  0  0  0  0  0  0
   -2.0850   -0.6704   -1.0078 C   0  0  0  0  0  0  0  0  0  0  0  0
   -0.7023   -0.7728   -0.3216 C   0  0  1  0  0  0  0  0  0  0  0  0
    0.0317    0.4456   -0.7241 C   0  0  0  0  0  0  0  0  0  0  0  0
    1.3922    0.6765   -0.2630 C   0  0  0  0  0  0  0  0  0  0  0  0
    2.4547   -0.3682   -0.6475 C   0  0  0  0  0  0  0  0  0  0  0  0
    3.2097    0.2580    0.4613 N   0  0  0  0  0  0  0  0  0  0  0  0
    1.8653    0.3193    1.0942 C   0  0  0  0  0  0  0  0  0  0  0  0
   -0.9040   -0.9586    1.1304 C   0  0  0  0  0  0  0  0  0  0  0  0
   -1.4034    0.0737    1.9588 N   0  0  0  0  0  0  0  0  0  0  0  0
   -0.6330   -2.0604    1.6688 O   0  0  0  0  0  0  0  0  0  0  0  0
   -2.5300    1.3749   -1.0368 H   0  0  0  0  0  0  0  0  0  0  0  0
   -3.1177    0.5202    0.3705 H   0  0  0  0  0  0  0  0  0  0  0  0
   -1.8942   -0.5977   -2.0944 H   0  0  0  0  0  0  0  0  0  0  0  0
   -2.6983   -1.5615   -0.7602 H   0  0  0  0  0  0  0  0  0  0  0  0
   -0.2241   -1.6643   -0.7658 H   0  0  0  0  0  0  0  0  0  0  0  0
   -0.5947    1.3335   -0.3948 H   0  0  0  0  0  0  0  0  0  0  0  0
   -0.0419    0.5072   -1.8471 H   0  0  0  0  0  0  0  0  0  0  0  0
    1.8519    1.6726   -0.5579 H   0  0  0  0  0  0  0  0  0  0  0  0
    2.8954   -0.2278   -1.6304 H   0  0  0  0  0  0  0  0  0  0  0  0
    2.2023   -1.3969   -0.3320 H   0  0  0  0  0  0  0  0  0  0  0  0
    3.4251    1.2427    0.1546 H   0  0  0  0  0  0  0  0  0  0  0  0
    1.6468   -0.7028    1.4308 H   0  0  0  0  0  0  0  0  0  0  0  0
    1.8320    1.1050    1.8689 H   0  0  0  0  0  0  0  0  0  0  0  0
   -1.0324    1.0472    1.8862 H   0  0  0  0  0  0  0  0  0  0  0  0
   -2.1473   -0.0882    2.6626 H   0  0  0  0  0  0  0  0  0  0  0  0
  1  2  1  0
  2  3  1  0
  3  4  1  0
  4  5  1  0
  5  6  1  0
  6  7  1  0
  7  8  1  0
  3  9  1  0
  9 10  1  0
  9 11  2  0
  8  5  1  0
  1 12  1  0
  1 13  1  0
  2 14  1  0
  2 15  1  0
  3 16  1  6
  4 17  1  0
  4 18  1  0
  5 19  1  0
  6 20  1  0
  6 21  1  0
  7 22  1  0
  8 23  1  0
  8 24  1  0
 10 25  1  0
 10 26  1  0
M  END
$$$$

     RDKit          3D

 26 26  0  0  0  0  0  0  0  0999 V2000
   -2.8554    1.1697   -0.8704 N   0  0  0  0  0  0  0  0  0  0  0  0
   -1.8483    1.1785    0.1711 C   0  0  0  0  0  0  0  0  0  0  0  0
   -0.7105    0.2072   -0.1761 C   0  0  1  0  0  0  0  0  0  0  0  0
    0.3353    0.2108    0.8968 C   0  0  0  0  0  0  0  0  0  0  0  0
    1.4832   -0.6935    0.6535 C   0  0  0  0  0  0  0  0  0  0  0  0
    2.3004   -0.4544   -0.5838 C   0  0  0  0  0  0  0  0  0  0  0  0
    3.1308    0.4635    0.1609 N   0  0  0  0  0  0  0  0  0  0  0  0
    2.7467   -0.2238    1.3753 C   0  0  0  0  0  0  0  0  0  0  0  0
   -1.3482   -1.1261   -0.2688 C   0  0  0  0  0  0  0  0  0  0  0  0
   -2.3626   -1.4216   -1.2085 N   0  0  0  0  0  0  0  0  0  0  0  0
   -0.9791   -2.0303    0.5126 O   0  0  0  0  0  0  0  0  0  0  0  0
   -3.3658    2.0770   -0.7971 H   0  0  0  0  0  0  0  0  0  0  0  0
   -2.3626    1.1546   -1.7842 H   0  0  0  0  0  0  0  0  0  0  0  0
   -2.3345    0.9233    1.1125 H   0  0  0  0  0  0  0  0  0  0  0  0
   -1.4555    2.2127    0.2686 H   0  0  0  0  0  0  0  0  0  0  0  0
   -0.3091    0.5114   -1.1641 H   0  0  0  0  0  0  0  0  0  0  0  0
    0.7183    1.2626    1.0507 H   0  0  0  0  0  0  0  0  0  0  0  0
   -0.1086   -0.0595    1.8813 H   0  0  0  0  0  0  0  0  0  0  0  0
    1.2900   -1.7381    0.8898 H   0  0  0  0  0  0  0  0  0  0  0  0
    2.8867   -1.3646   -0.8275 H   0  0  0  0  0  0  0  0  0  0  0  0
    1.7721    0.0118   -1.4358 H   0  0  0  0  0  0  0  0  0  0  0  0
    2.8366    1.4542    0.1624 H   0  0  0  0  0  0  0  0  0  0  0  0
    2.5566    0.4013    2.2501 H   0  0  0  0  0  0  0  0  0  0  0  0
    3.4469   -1.0682    1.5695 H   0  0  0  0  0  0  0  0  0  0  0  0
   -2.2048   -1.2039   -2.2070 H   0  0  0  0  0  0  0  0  0  0  0  0
   -3.2585   -1.8547   -0.8897 H   0  0  0  0  0  0  0  0  0  0  0  0
  1  2  1  0
  2  3  1  0
  3  4  1  0
  4  5  1  0
  5  6  1  0
  6  7  1  0
  7  8  1  0
  3  9  1  0
  9 10  1  0
  9 11  2  0
  8  5  1  0
  1 12  1  0
  1 13  1  0
  2 14  1  0
  2 15  1  0
  3 16  1  6
  4 17  1  0
  4 18  1  0
  5 19  1  0
  6 20  1  0
  6 21  1  0
  7 22  1  0
  8 23  1  0
  8 24  1  0
 10 25  1  0
 10 26  1  0
M  END
$$$$
