
     RDKit          3D

 24 24  0  0  0  0  0  0  0  0999 V2000
   -0.8408   -1.8224   -0.3091 C   0  0  0  0  0  0  0  0  0  0  0  0
   -0.8065   -0.3159   -0.5804 C   0  0  1  0  0  0  0  0  0  0  0  0
   -2.2128    0.1526   -0.5554 C   0  0  0  0  0  0  0  0  0  0  0  0
   -2.3751    1.5564   -0.2990 N   0  0  0  0  0  0  0  0  0  0  0  0
   -1.4033    2.3235    0.3648 C   0  0  0  0  0  0  0  0  0  0  0  0
   -1.6779    3.5102    0.6732 O   0  0  0  0  0  0  0  0  0  0  0  0
   -0.1114    1.7299    0.6773 C   0  0  0  0  0  0  0  0  0  0  0  0
    0.7714    2.3998    1.2708 O   0  0  0  0  0  0  0  0  0  0  0  0
    0.0970    0.3770    0.2834 N   0  0  0  0  0  0  0  0  0  0  0  0
    1.2620   -0.3538    0.7571 C   0  0  0  0  0  0  0  0  0  0  0  0
    2.4193   -0.2273   -0.1247 C   0  0  0  0  0  0  0  0  0  0  0  0
    3.6258   -0.8763    0.1949 N   0  0  0  0  0  0  0  0  0  0  0  0
    2.3546    0.4509   -1.1624 O   0  0  0  0  0  0  0  0  0  0  0  0
   -1.7387   -2.2412   -0.8312 H   0  0  0  0  0  0  0  0  0  0  0  0
   -0.9455   -2.0441    0.7698 H   0  0  0  0  0  0  0  0  0  0  0  0
    0.0247   -2.3469   -0.6981 H   0  0  0  0  0  0  0  0  0  0  0  0
   -0.3817   -0.2315   -1.6234 H   0  0  0  0  0  0  0  0  0  0  0  0
   -2.8584   -0.3889    0.1731 H   0  0  0  0  0  0  0  0  0  0  0  0
   -2.6648   -0.0652   -1.5582 H   0  0  0  0  0  0  0  0  0  0  0  0
   -3.2578    2.0047   -0.6275 H   0  0  0  0  0  0  0  0  0  0  0  0
    0.9893   -1.4086    0.8323 H   0  0  0  0  0  0  0  0  0  0  0  0
    1.5292    0.1038    1.7350 H   0  0  0  0  0  0  0  0  0  0  0  0
    3.7303   -1.9099    0.0660 H   0  0  0  0  0  0  0  0  0  0  0  0
    4.4713   -0.3768    0.5717 H   0  0  0  0  0  0  0  0  0  0  0  0
  1  2  1  0
  2  3  1  0
  3  4  1  0
  4  5  1  0
  5  6  2  0
  5  7  1  0
  7  8  2  0
  7  9  1  0
  9 10  1  0
 10 11  1  0
 11 12  1  0
 11 13  2  0
  9  2  1  0
  1 14  1  0
  1 15  1  0
  1 16  1  0
  2 17  1  6
  3 18  1  0
  3 19  1  0
  4 20  1  0
 10 21  1  0
 10 22  1  0
 12 23  1  0
 12 24  1  0
M  END
$$$$

     RDKit          3D

 24 24  0  0  0  0  0  0  0  0999 V2000
   -1.5990   -1.0123    1.5141 C   0  0  0  0  0  0  0  0  0  0  0  0
   -0.7583   -0.8688    0.2343 C   0  0  1  0  0  0  0  0  0  0  0  0
   -1.7005   -0.8617   -0.9114 C   0  0  0  0  0  0  0  0  0  0  0  0
   -1.8263    0.3605   -1.6328 N   0  0  0  0  0  0  0  0  0  0  0  0
   -1.4947    1.5917   -1.0084 C   0  0  0  0  0  0  0  0  0  0  0  0
   -2.0732    2.6465   -1.3630 O   0  0  0  0  0  0  0  0  0  0  0  0
   -0.4749    1.5527    0.0342 C   0  0  0  0  0  0  0  0  0  0  0  0
   -0.1375    2.6123    0.6240 O   0  0  0  0  0  0  0  0  0  0  0  0
    0.1025    0.2898    0.3405 N   0  0  0  0  0  0  0  0  0  0  0  0
    1.4892    0.2563    0.7360 C   0  0  0  0  0  0  0  0  0  0  0  0
    2.4159    0.0968   -0.3950 C   0  0  0  0  0  0  0  0  0  0  0  0
    3.8083    0.0527   -0.1048 N   0  0  0  0  0  0  0  0  0  0  0  0
    2.0639   -0.0025   -1.5925 O   0  0  0  0  0  0  0  0  0  0  0  0
   -1.8691   -0.0053    1.9095 H   0  0  0  0  0  0  0  0  0  0  0  0
   -1.0445   -1.5794    2.2742 H   0  0  0  0  0  0  0  0  0  0  0  0
   -2.5057   -1.5972    1.2582 H   0  0  0  0  0  0  0  0  0  0  0  0
   -0.1754   -1.8166    0.1926 H   0  0  0  0  0  0  0  0  0  0  0  0
   -2.7480   -1.1558   -0.6010 H   0  0  0  0  0  0  0  0  0  0  0  0
   -1.4311   -1.6596   -1.6641 H   0  0  0  0  0  0  0  0  0  0  0  0
   -2.1710    0.3278   -2.6383 H   0  0  0  0  0  0  0  0  0  0  0  0
    1.6690   -0.5315    1.5231 H   0  0  0  0  0  0  0  0  0  0  0  0
    1.7319    1.2190    1.2305 H   0  0  0  0  0  0  0  0  0  0  0  0
    4.4892   -0.5256   -0.6489 H   0  0  0  0  0  0  0  0  0  0  0  0
    4.2392    0.6102    0.6887 H   0  0  0  0  0  0  0  0  0  0  0  0
  1  2  1  0
  2  3  1  0
  3  4  1  0
  4  5  1  0
  5  6  2  0
  5  7  1  0
  7  8  2  0
  7  9  1  0
  9 10  1  0
 10 11  1  0
 11 12  1  0
 11 13  2  0
  9  2  1  0
  1 14  1  0
  1 15  1  0
  1 16  1  0
  2 17  1  6
  3 18  1  0
  3 19  1  0
  4 20  1  0
 10 21  1  0
 10 22  1  0
 12 23  1  0
 12 24  1  0
M  END
$$$$

     RDKit          3D

 24 24  0  0  0  0  0  0  0  0999 V2000
   -0.4375   -2.0006    0.0144 C   0  0  0  0  0  0  0  0  0  0  0  0
   -0.9714   -0.6044   -0.1318 C   0  0  1  0  0  0  0  0  0  0  0  0
   -1.2501   -0.0969    1.2801 C   0  0  0  0  0  0  0  0  0  0  0  0
   -1.9081    1.1824    1.1848 N   0  0  0  0  0  0  0  0  0  0  0  0
   -1.2501    2.1936    0.4184 C   0  0  0  0  0  0  0  0  0  0  0  0
   -1.4509    3.4079    0.5902 O   0  0  0  0  0  0  0  0  0  0  0  0
   -0.3072    1.7049   -0.6009 C   0  0  0  0  0  0  0  0  0  0  0  0
    0.2778    2.5701   -1.2809 O   0  0  0  0  0  0  0  0  0  0  0  0
   -0.0832    0.2972   -0.7905 N   0  0  0  0  0  0  0  0  0  0  0  0
    1.0281   -0.1095   -1.6368 C   0  0  0  0  0  0  0  0  0  0  0  0
    2.2477   -0.2666   -0.8300 C   0  0  0  0  0  0  0  0  0  0  0  0
    2.2750   -0.0393    0.5727 N   0  0  0  0  0  0  0  0  0  0  0  0
    3.3250   -0.6153   -1.3757 O   0  0  0  0  0  0  0  0  0  0  0  0
    0.3022   -2.0838    0.8539 H   0  0  0  0  0  0  0  0  0  0  0  0
   -1.3075   -2.6344    0.3588 H   0  0  0  0  0  0  0  0  0  0  0  0
   -0.0882   -2.4533   -0.9178 H   0  0  0  0  0  0  0  0  0  0  0  0
   -1.9560   -0.6908   -0.6597 H   0  0  0  0  0  0  0  0  0  0  0  0
   -0.2684   -0.0512    1.7907 H   0  0  0  0  0  0  0  0  0  0  0  0
   -1.8621   -0.8483    1.8217 H   0  0  0  0  0  0  0  0  0  0  0  0
   -2.8244    1.4109    1.6363 H   0  0  0  0  0  0  0  0  0  0  0  0
    1.1849    0.6772   -2.4303 H   0  0  0  0  0  0  0  0  0  0  0  0
    0.7541   -1.0580   -2.1447 H   0  0  0  0  0  0  0  0  0  0  0  0
    1.8356    0.8114    1.0233 H   0  0  0  0  0  0  0  0  0  0  0  0
    2.7345   -0.7031    1.2537 H   0  0  0  0  0  0  0  0  0  0  0  0
  1  2  1  0
  2  3  1  0
  3  4  1  0
  4  5  1  0
  5  6  2  0
  5  7  1  0
  7  8  2  0
  7  9  1  0
  9 10  1  0
 10 11  1  0
 11 12  1  0
 11 13  2  0
  9  2  1  0
  1 14  1  0
  1 15  1  0
  1 16  1  0
  2 17  1  6
  3 18  1  0
  3 19  1  0
  4 20  1  0
 10 21  1  0
 10 22  1  0
 12 23  1  0
 12 24  1  0
M  END
$$$$

     RDKit          3D

 24 24  0  0  0  0  0  0  0  0999 V2000
   -0.7668   -1.6025    0.8114 C   0  0  0  0  0  0  0  0  0  0  0  0
   -0.8381   -0.6252   -0.3670 C   0  0  1  0  0  0  0  0  0  0  0  0
   -2.2432   -0.1792   -0.5219 C   0  0  0  0  0  0  0  0  0  0  0  0
   -2.4685    1.2163   -0.6775 N   0  0  0  0  0  0  0  0  0  0  0  0
   -1.6082    2.1534   -0.0571 C   0  0  0  0  0  0  0  0  0  0  0  0
   -2.0410    3.2820    0.2747 O   0  0  0  0  0  0  0  0  0  0  0  0
   -0.2313    1.7273    0.1605 C   0  0  0  0  0  0  0  0  0  0  0  0
    0.6197    2.4986    0.7114 O   0  0  0  0  0  0  0  0  0  0  0  0
    0.1440    0.4196   -0.2598 N   0  0  0  0  0  0  0  0  0  0  0  0
    1.5355    0.1371   -0.5863 C   0  0  0  0  0  0  0  0  0  0  0  0
    2.3204   -0.3176    0.5610 C   0  0  0  0  0  0  0  0  0  0  0  0
    3.6811   -0.6236    0.3716 N   0  0  0  0  0  0  0  0  0  0  0  0
    1.8385   -0.4494    1.7134 O   0  0  0  0  0  0  0  0  0  0  0  0
    0.0773   -2.3055    0.7107 H   0  0  0  0  0  0  0  0  0  0  0  0
   -0.8298   -1.1034    1.7763 H   0  0  0  0  0  0  0  0  0  0  0  0
   -1.6957   -2.2350    0.7011 H   0  0  0  0  0  0  0  0  0  0  0  0
   -0.5742   -1.2650   -1.2620 H   0  0  0  0  0  0  0  0  0  0  0  0
   -2.7494   -0.7090   -1.3839 H   0  0  0  0  0  0  0  0  0  0  0  0
   -2.8697   -0.5028    0.3629 H   0  0  0  0  0  0  0  0  0  0  0  0
   -3.2887    1.5478   -1.2628 H   0  0  0  0  0  0  0  0  0  0  0  0
    1.5883   -0.6328   -1.3805 H   0  0  0  0  0  0  0  0  0  0  0  0
    2.0436    1.0442   -1.0009 H   0  0  0  0  0  0  0  0  0  0  0  0
    4.3725    0.1302    0.2673 H   0  0  0  0  0  0  0  0  0  0  0  0
    3.9837   -1.6056    0.3375 H   0  0  0  0  0  0  0  0  0  0  0  0
  1  2  1  0
  2  3  1  0
  3  4  1  0
  4  5  1  0
  5  6  2  0
  5  7  1  0
  7  8  2  0
  7  9  1  0
  9 10  1  0
 10 11  1  0
 11 12  1  0
 11 13  2  0
  9  2  1  0
  1 14  1  0
  1 15  1  0
  1 16  1  0
  2 17  1  6
  3 18  1  0
  3 19  1  0
  4 20  1  0
 10 21  1  0
 10 22  1  0
 12 23  1  0
 12 24  1  0
M  END
$$$$

     RDKit          3D

 24 24  0  0  0  0  0  0  0  0999 V2000
   -0.2569    0.5479   -1.9415 C   0  0  0  0  0  0  0  0  0  0  0  0
   -0.9227    0.1687   -0.6527 C   0  0  1  0  0  0  0  0  0  0  0  0
   -1.8742   -0.9895   -0.8005 C   0  0  0  0  0  0  0  0  0  0  0  0
   -2.6750   -1.0263    0.4211 N   0  0  0  0  0  0  0  0  0  0  0  0
   -1.9693   -1.0058    1.6553 C   0  0  0  0  0  0  0  0  0  0  0  0
   -2.5231   -1.3504    2.7194 O   0  0  0  0  0  0  0  0  0  0  0  0
   -0.5762   -0.5667    1.6263 C   0  0  0  0  0  0  0  0  0  0  0  0
    0.1282   -0.5169    2.6763 O   0  0  0  0  0  0  0  0  0  0  0  0
    0.0169   -0.1821    0.3911 N   0  0  0  0  0  0  0  0  0  0  0  0
    1.4555   -0.1599    0.2414 C   0  0  0  0  0  0  0  0  0  0  0  0
    2.0471    1.1388    0.5951 C   0  0  0  0  0  0  0  0  0  0  0  0
    3.4585    1.2761    0.4854 N   0  0  0  0  0  0  0  0  0  0  0  0
    1.4001    2.1415    0.9884 O   0  0  0  0  0  0  0  0  0  0  0  0
   -1.0569    0.7518   -2.6791 H   0  0  0  0  0  0  0  0  0  0  0  0
    0.2556    1.5274   -1.7739 H   0  0  0  0  0  0  0  0  0  0  0  0
    0.3901   -0.2218   -2.3651 H   0  0  0  0  0  0  0  0  0  0  0  0
   -1.5221    1.0517   -0.3234 H   0  0  0  0  0  0  0  0  0  0  0  0
   -1.2775   -1.9328   -0.8617 H   0  0  0  0  0  0  0  0  0  0  0  0
   -2.4778   -0.8671   -1.7011 H   0  0  0  0  0  0  0  0  0  0  0  0
   -3.7252   -1.0662    0.3844 H   0  0  0  0  0  0  0  0  0  0  0  0
    1.7077   -0.4330   -0.8222 H   0  0  0  0  0  0  0  0  0  0  0  0
    1.9531   -0.9404    0.8577 H   0  0  0  0  0  0  0  0  0  0  0  0
    3.9822    2.0880    0.8939 H   0  0  0  0  0  0  0  0  0  0  0  0
    4.0616    0.5671   -0.0145 H   0  0  0  0  0  0  0  0  0  0  0  0
  1  2  1  0
  2  3  1  0
  3  4  1  0
  4  5  1  0
  5  6  2  0
  5  7  1  0
  7  8  2  0
  7  9  1  0
  9 10  1  0
 10 11  1  0
 11 12  1  0
 11 13  2  0
  9  2  1  0
  1 14  1  0
  1 15  1  0
  1 16  1  0
  2 17  1  1
  3 18  1  0
  3 19  1  0
  4 20  1  0
 10 21  1  0
 10 22  1  0
 12 23  1  0
 12 24  1  0
M  END
$$$$

     RDKit          3D

 24 24  0  0  0  0  0  0  0  0999 V2000
    0.0402   -1.8935    0.0279 C   0  0  0  0  0  0  0  0  0  0  0  0
   -0.8002   -0.6947   -0.3588 C   0  0  1  0  0  0  0  0  0  0  0  0
   -1.8382   -0.5022    0.6913 C   0  0  0  0  0  0  0  0  0  0  0  0
   -2.3820    0.8098    0.7781 N   0  0  0  0  0  0  0  0  0  0  0  0
   -1.6450    1.9962    0.4512 C   0  0  0  0  0  0  0  0  0  0  0  0
   -2.0187    3.1449    0.7841 O   0  0  0  0  0  0  0  0  0  0  0  0
   -0.4022    1.7605   -0.3137 C   0  0  0  0  0  0  0  0  0  0  0  0
    0.2630    2.7895   -0.6128 O   0  0  0  0  0  0  0  0  0  0  0  0
   -0.0123    0.4455   -0.6721 N   0  0  0  0  0  0  0  0  0  0  0  0
    1.2297    0.2705   -1.3809 C   0  0  0  0  0  0  0  0  0  0  0  0
    2.3902    0.0736   -0.4822 C   0  0  0  0  0  0  0  0  0  0  0  0
    2.3293    0.0534    0.9201 N   0  0  0  0  0  0  0  0  0  0  0  0
    3.5094   -0.0863   -1.0279 O   0  0  0  0  0  0  0  0  0  0  0  0
   -0.5499   -2.8478   -0.1037 H   0  0  0  0  0  0  0  0  0  0  0  0
    0.3217   -1.8884    1.1025 H   0  0  0  0  0  0  0  0  0  0  0  0
    0.9803   -1.9440   -0.5557 H   0  0  0  0  0  0  0  0  0  0  0  0
   -1.3434   -0.9896   -1.3038 H   0  0  0  0  0  0  0  0  0  0  0  0
   -1.3919   -0.7793    1.6903 H   0  0  0  0  0  0  0  0  0  0  0  0
   -2.6378   -1.2561    0.5240 H   0  0  0  0  0  0  0  0  0  0  0  0
   -3.3674    0.9468    1.0936 H   0  0  0  0  0  0  0  0  0  0  0  0
    1.4766    1.1450   -2.0260 H   0  0  0  0  0  0  0  0  0  0  0  0
    1.2147   -0.6055   -2.0756 H   0  0  0  0  0  0  0  0  0  0  0  0
    2.7082   -0.7914    1.4088 H   0  0  0  0  0  0  0  0  0  0  0  0
    1.9258    0.8431    1.4412 H   0  0  0  0  0  0  0  0  0  0  0  0
  1  2  1  0
  2  3  1  0
  3  4  1  0
  4  5  1  0
  5  6  2  0
  5  7  1  0
  7  8  2  0
  7  9  1  0
  9 10  1  0
 10 11  1  0
 11 12  1  0
 11 13  2  0
  9  2  1  0
  1 14  1  0
  1 15  1  0
  1 16  1  0
  2 17  1  6
  3 18  1  0
  3 19  1  0
  4 20  1  0
 10 21  1  0
 10 22  1  0
 12 23  1  0
 12 24  1  0
M  END
$$$$

     RDKit          3D

 24 24  0  0  0  0  0  0  0  0999 V2000
   -0.7772   -1.8378   -0.0213 C   0  0  0  0  0  0  0  0  0  0  0  0
   -0.9867   -0.3600   -0.1939 C   0  0  1  0  0  0  0  0  0  0  0  0
   -2.2060    0.0846    0.5829 C   0  0  0  0  0  0  0  0  0  0  0  0
   -2.4843    1.4579    0.1570 N   0  0  0  0  0  0  0  0  0  0  0  0
   -1.3949    2.3734    0.1900 C   0  0  0  0  0  0  0  0  0  0  0  0
   -1.5885    3.6005    0.1786 O   0  0  0  0  0  0  0  0  0  0  0  0
   -0.0292    1.8414    0.2381 C   0  0  0  0  0  0  0  0  0  0  0  0
    0.9826    2.5826    0.2692 O   0  0  0  0  0  0  0  0  0  0  0  0
    0.1307    0.4268    0.2491 N   0  0  0  0  0  0  0  0  0  0  0  0
    1.3612   -0.2023    0.6857 C   0  0  0  0  0  0  0  0  0  0  0  0
    2.2892   -0.3868   -0.4470 C   0  0  0  0  0  0  0  0  0  0  0  0
    3.5680   -0.9772   -0.3126 N   0  0  0  0  0  0  0  0  0  0  0  0
    1.9311   -0.0027   -1.5874 O   0  0  0  0  0  0  0  0  0  0  0  0
   -0.0259   -2.2439   -0.7016 H   0  0  0  0  0  0  0  0  0  0  0  0
   -0.6059   -2.0919    1.0450 H   0  0  0  0  0  0  0  0  0  0  0  0
   -1.7557   -2.3282   -0.2826 H   0  0  0  0  0  0  0  0  0  0  0  0
   -1.1305   -0.1652   -1.2907 H   0  0  0  0  0  0  0  0  0  0  0  0
   -3.0535   -0.5910    0.3480 H   0  0  0  0  0  0  0  0  0  0  0  0
   -1.9512    0.0759    1.6614 H   0  0  0  0  0  0  0  0  0  0  0  0
   -3.4233    1.7383   -0.1493 H   0  0  0  0  0  0  0  0  0  0  0  0
    1.8330    0.5079    1.4235 H   0  0  0  0  0  0  0  0  0  0  0  0
    1.2053   -1.1558    1.2026 H   0  0  0  0  0  0  0  0  0  0  0  0
    4.2714   -0.4660    0.2699 H   0  0  0  0  0  0  0  0  0  0  0  0
    3.8403   -1.8804   -0.7569 H   0  0  0  0  0  0  0  0  0  0  0  0
  1  2  1  0
  2  3  1  0
  3  4  1  0
  4  5  1  0
  5  6  2  0
  5  7  1  0
  7  8  2  0
  7  9  1  0
  9 10  1  0
 10 11  1  0
 11 12  1  0
 11 13  2  0
  9  2  1  0
  1 14  1  0
  1 15  1  0
  1 16  1  0
  2 17  1  6
  3 18  1  0
  3 19  1  0
  4 20  1  0
 10 21  1  0
 10 22  1  0
 12 23  1  0
 12 24  1  0
M  END
$$$$

     RDKit          3D

 24 24  0  0  0  0  0  0  0  0999 V2000
   -1.1215   -1.5120    0.8618 C   0  0  0  0  0  0  0  0  0  0  0  0
   -1.1874   -0.2760   -0.0103 C   0  0  1  0  0  0  0  0  0  0  0  0
   -1.3982    0.9019    0.8875 C   0  0  0  0  0  0  0  0  0  0  0  0
   -0.8417    2.1255    0.4154 N   0  0  0  0  0  0  0  0  0  0  0  0
   -0.2587    2.2830   -0.8703 C   0  0  0  0  0  0  0  0  0  0  0  0
   -0.1098    3.4217   -1.3899 O   0  0  0  0  0  0  0  0  0  0  0  0
    0.1583    1.0687   -1.5586 C   0  0  0  0  0  0  0  0  0  0  0  0
    0.6836    1.1388   -2.7034 O   0  0  0  0  0  0  0  0  0  0  0  0
   -0.0522   -0.1663   -0.8899 N   0  0  0  0  0  0  0  0  0  0  0  0
    0.8969   -1.2524   -1.1398 C   0  0  0  0  0  0  0  0  0  0  0  0
    2.0217   -1.2060   -0.1726 C   0  0  0  0  0  0  0  0  0  0  0  0
    2.1559   -0.2434    0.8495 N   0  0  0  0  0  0  0  0  0  0  0  0
    2.9159   -2.0847   -0.2712 O   0  0  0  0  0  0  0  0  0  0  0  0
   -0.2808   -1.4123    1.5824 H   0  0  0  0  0  0  0  0  0  0  0  0
   -1.1290   -2.4474    0.3073 H   0  0  0  0  0  0  0  0  0  0  0  0
   -2.0553   -1.4918    1.4862 H   0  0  0  0  0  0  0  0  0  0  0  0
   -2.1158   -0.4089   -0.6410 H   0  0  0  0  0  0  0  0  0  0  0  0
   -0.9836    0.7086    1.9203 H   0  0  0  0  0  0  0  0  0  0  0  0
   -2.4996    1.0414    1.0619 H   0  0  0  0  0  0  0  0  0  0  0  0
   -0.8749    2.9504    1.0759 H   0  0  0  0  0  0  0  0  0  0  0  0
    1.2859   -1.1423   -2.1945 H   0  0  0  0  0  0  0  0  0  0  0  0
    0.3802   -2.2096   -1.0444 H   0  0  0  0  0  0  0  0  0  0  0  0
    2.4402    0.7182    0.6093 H   0  0  0  0  0  0  0  0  0  0  0  0
    1.9699   -0.5049    1.8283 H   0  0  0  0  0  0  0  0  0  0  0  0
  1  2  1  0
  2  3  1  0
  3  4  1  0
  4  5  1  0
  5  6  2  0
  5  7  1  0
  7  8  2  0
  7  9  1  0
  9 10  1  0
 10 11  1  0
 11 12  1  0
 11 13  2  0
  9  2  1  0
  1 14  1  0
  1 15  1  0
  1 16  1  0
  2 17  1  6
  3 18  1  0
  3 19  1  0
  4 20  1  0
 10 21  1  0
 10 22  1  0
 12 23  1  0
 12 24  1  0
M  END
$$$$
