
     RDKit          3D

 26 27  0  0  0  0  0  0  0  0999 V2000
   -3.4795    0.7086   -0.5742 N   0  0  0  0  0  0  0  0  0  0  0  0
   -2.3364   -0.0111   -1.0598 C   0  0  0  0  0  0  0  0  0  0  0  0
   -1.1851    0.2305   -0.0969 C   0  0  1  0  0  0  0  0  0  0  0  0
   -1.4869   -0.2499    1.3134 C   0  0  0  0  0  0  0  0  0  0  0  0
   -0.3961   -1.2765    1.0279 C   0  0  0  0  0  0  0  0  0  0  0  0
   -0.1039   -0.7186   -0.2301 N   0  0  0  0  0  0  0  0  0  0  0  0
    1.1215   -0.0989   -0.5199 C   0  0  0  0  0  0  0  0  0  0  0  0
    2.3864   -0.9377   -0.4973 C   0  0  0  0  0  0  0  0  0  0  0  0
    3.2545    0.6271   -0.4110 S   0  0  0  0  0  6  0  0  0  0  0  0
    3.2086    1.4285   -1.6612 O   0  0  0  0  0  0  0  0  0  0  0  0
    4.4952    0.6333    0.3831 O   0  0  0  0  0  0  0  0  0  0  0  0
    1.7307    0.7893    0.5387 C   0  0  0  0  0  0  0  0  0  0  0  0
   -3.6695    1.4966   -1.2438 H   0  0  0  0  0  0  0  0  0  0  0  0
   -3.3169    1.1163    0.3706 H   0  0  0  0  0  0  0  0  0  0  0  0
   -2.5479   -1.1122   -0.9655 H   0  0  0  0  0  0  0  0  0  0  0  0
   -2.0676    0.2645   -2.0784 H   0  0  0  0  0  0  0  0  0  0  0  0
   -0.9125    1.2933   -0.0958 H   0  0  0  0  0  0  0  0  0  0  0  0
   -2.4967   -0.6879    1.4516 H   0  0  0  0  0  0  0  0  0  0  0  0
   -1.2287    0.4598    2.1224 H   0  0  0  0  0  0  0  0  0  0  0  0
    0.3501   -1.2508    1.8167 H   0  0  0  0  0  0  0  0  0  0  0  0
   -0.8099   -2.3225    0.9356 H   0  0  0  0  0  0  0  0  0  0  0  0
    1.0890    0.4651   -1.4755 H   0  0  0  0  0  0  0  0  0  0  0  0
    2.5647   -1.5571    0.3794 H   0  0  0  0  0  0  0  0  0  0  0  0
    2.6381   -1.4070   -1.4923 H   0  0  0  0  0  0  0  0  0  0  0  0
    1.9145    0.3376    1.5289 H   0  0  0  0  0  0  0  0  0  0  0  0
    1.2842    1.7796    0.5337 H   0  0  0  0  0  0  0  0  0  0  0  0
  1  2  1  0
  2  3  1  0
  3  4  1  0
  4  5  1  0
  5  6  1  0
  6  7  1  0
  7  8  1  0
  8  9  1  0
  9 10  2  0
  9 11  2  0
  9 12  1  0
  6  3  1  0
 12  7  1  0
  1 13  1  0
  1 14  1  0
  2 15  1  0
  2 16  1  0
  3 17  1  1
  4 18  1  0
  4 19  1  0
  5 20  1  0
  5 21  1  0
  7 22  1  0
  8 23  1  0
  8 24  1  0
 12 25  1  0
 12 26  1  0
M  END
$$$$

     RDKit          3D

 26 27  0  0  0  0  0  0  0  0999 V2000
   -3.0681    0.0274    1.3830 N   0  0  0  0  0  0  0  0  0  0  0  0
   -1.6100   -0.1636    1.2843 C   0  0  0  0  0  0  0  0  0  0  0  0
   -1.3389   -0.7408   -0.0535 C   0  0  1  0  0  0  0  0  0  0  0  0
   -1.8232    0.2099   -1.1400 C   0  0  0  0  0  0  0  0  0  0  0  0
   -0.4260    0.0261   -1.7022 C   0  0  0  0  0  0  0  0  0  0  0  0
   -0.0601   -0.7817   -0.5985 N   0  0  0  0  0  0  0  0  0  0  0  0
    1.0929   -0.4991    0.1445 C   0  0  0  0  0  0  0  0  0  0  0  0
    2.4144   -0.5818   -0.5979 C   0  0  0  0  0  0  0  0  0  0  0  0
    3.1800    0.4588    0.5881 S   0  0  0  0  0  6  0  0  0  0  0  0
    4.0543    1.5430    0.0480 O   0  0  0  0  0  0  0  0  0  0  0  0
    3.6313   -0.1953    1.8456 O   0  0  0  0  0  0  0  0  0  0  0  0
    1.4317    0.8802    0.5605 C   0  0  0  0  0  0  0  0  0  0  0  0
   -3.3413    0.8763    0.8362 H   0  0  0  0  0  0  0  0  0  0  0  0
   -3.5362   -0.7917    0.8876 H   0  0  0  0  0  0  0  0  0  0  0  0
   -1.1955    0.8748    1.3902 H   0  0  0  0  0  0  0  0  0  0  0  0
   -1.3460   -0.8065    2.1376 H   0  0  0  0  0  0  0  0  0  0  0  0
   -1.8835   -1.7220   -0.1645 H   0  0  0  0  0  0  0  0  0  0  0  0
   -2.5958   -0.2182   -1.8143 H   0  0  0  0  0  0  0  0  0  0  0  0
   -2.0463    1.2209   -0.7798 H   0  0  0  0  0  0  0  0  0  0  0  0
    0.0529    1.0124   -1.8183 H   0  0  0  0  0  0  0  0  0  0  0  0
   -0.4370   -0.5880   -2.6463 H   0  0  0  0  0  0  0  0  0  0  0  0
    1.1624   -1.1957    1.0329 H   0  0  0  0  0  0  0  0  0  0  0  0
    2.8351   -1.5956   -0.6728 H   0  0  0  0  0  0  0  0  0  0  0  0
    2.4102   -0.0972   -1.5939 H   0  0  0  0  0  0  0  0  0  0  0  0
    1.2748    1.6821   -0.1728 H   0  0  0  0  0  0  0  0  0  0  0  0
    1.1679    1.1654    1.6164 H   0  0  0  0  0  0  0  0  0  0  0  0
  1  2  1  0
  2  3  1  0
  3  4  1  0
  4  5  1  0
  5  6  1  0
  6  7  1  0
  7  8  1  0
  8  9  1  0
  9 10  2  0
  9 11  2  0
  9 12  1  0
  6  3  1  0
 12  7  1  0
  1 13  1  0
  1 14  1  0
  2 15  1  0
  2 16  1  0
  3 17  1  1
  4 18  1  0
  4 19  1  0
  5 20  1  0
  5 21  1  0
  7 22  1  0
  8 23  1  0
  8 24  1  0
 12 25  1  0
 12 26  1  0
M  END
$$$$

     RDKit          3D

 26 27  0  0  0  0  0  0  0  0999 V2000
   -2.2691    1.7717   -0.9960 N   0  0  0  0  0  0  0  0  0  0  0  0
   -2.4515    0.4592   -0.4367 C   0  0  0  0  0  0  0  0  0  0  0  0
   -1.1576    0.1047    0.2861 C   0  0  1  0  0  0  0  0  0  0  0  0
   -1.2799   -1.2557    0.9036 C   0  0  0  0  0  0  0  0  0  0  0  0
   -0.8343   -1.7401   -0.4674 C   0  0  0  0  0  0  0  0  0  0  0  0
   -0.2222   -0.4185   -0.6629 N   0  0  0  0  0  0  0  0  0  0  0  0
    1.1625   -0.3983   -0.4071 C   0  0  0  0  0  0  0  0  0  0  0  0
    1.9323    0.3134   -1.4955 C   0  0  0  0  0  0  0  0  0  0  0  0
    3.2775    0.4777   -0.3487 S   0  0  0  0  0  6  0  0  0  0  0  0
    3.9714    1.7828   -0.3719 O   0  0  0  0  0  0  0  0  0  0  0  0
    4.1089   -0.7451   -0.1681 O   0  0  0  0  0  0  0  0  0  0  0  0
    1.7561    0.4988    0.6031 C   0  0  0  0  0  0  0  0  0  0  0  0
   -2.1709    2.5201   -0.2702 H   0  0  0  0  0  0  0  0  0  0  0  0
   -2.9701    2.0205   -1.7290 H   0  0  0  0  0  0  0  0  0  0  0  0
   -3.3182    0.4373    0.2110 H   0  0  0  0  0  0  0  0  0  0  0  0
   -2.6659   -0.2334   -1.2881 H   0  0  0  0  0  0  0  0  0  0  0  0
   -0.8236    0.8756    0.9815 H   0  0  0  0  0  0  0  0  0  0  0  0
   -0.5735   -1.4902    1.7378 H   0  0  0  0  0  0  0  0  0  0  0  0
   -2.3160   -1.5892    1.1226 H   0  0  0  0  0  0  0  0  0  0  0  0
   -0.0964   -2.5807   -0.4119 H   0  0  0  0  0  0  0  0  0  0  0  0
   -1.6521   -1.9404   -1.1447 H   0  0  0  0  0  0  0  0  0  0  0  0
    1.5755   -1.4347   -0.2662 H   0  0  0  0  0  0  0  0  0  0  0  0
    1.5034    1.3070   -1.7438 H   0  0  0  0  0  0  0  0  0  0  0  0
    2.1188   -0.3091   -2.3796 H   0  0  0  0  0  0  0  0  0  0  0  0
    1.4004    1.5352    0.6546 H   0  0  0  0  0  0  0  0  0  0  0  0
    1.9944    0.0314    1.6042 H   0  0  0  0  0  0  0  0  0  0  0  0
  1  2  1  0
  2  3  1  0
  3  4  1  0
  4  5  1  0
  5  6  1  0
  6  7  1  0
  7  8  1  0
  8  9  1  0
  9 10  2  0
  9 11  2  0
  9 12  1  0
  6  3  1  0
 12  7  1  0
  1 13  1  0
  1 14  1  0
  2 15  1  0
  2 16  1  0
  3 17  1  1
  4 18  1  0
  4 19  1  0
  5 20  1  0
  5 21  1  0
  7 22  1  0
  8 23  1  0
  8 24  1  0
 12 25  1  0
 12 26  1  0
M  END
$$$$

     RDKit          3D

 26 27  0  0  0  0  0  0  0  0999 V2000
    2.6405    1.7601    0.5580 N   0  0  0  0  0  0  0  0  0  0  0  0
    2.4608    0.3464    0.3485 C   0  0  0  0  0  0  0  0  0  0  0  0
    1.2531   -0.0119   -0.4579 C   0  0  1  0  0  0  0  0  0  0  0  0
    1.1926   -1.5347   -0.5934 C   0  0  0  0  0  0  0  0  0  0  0  0
    0.3913   -1.4160    0.6832 C   0  0  0  0  0  0  0  0  0  0  0  0
   -0.0128   -0.0986    0.2473 N   0  0  0  0  0  0  0  0  0  0  0  0
   -1.1223   -0.1125   -0.6829 C   0  0  0  0  0  0  0  0  0  0  0  0
   -2.4097   -0.6724   -0.1520 C   0  0  0  0  0  0  0  0  0  0  0  0
   -2.6943    0.8758    0.6621 S   0  0  0  0  0  6  0  0  0  0  0  0
   -1.8792    1.1263    1.8697 O   0  0  0  0  0  0  0  0  0  0  0  0
   -4.1135    1.3082    0.7074 O   0  0  0  0  0  0  0  0  0  0  0  0
   -1.8305    1.2160   -0.8407 C   0  0  0  0  0  0  0  0  0  0  0  0
    3.6628    1.8809    0.8330 H   0  0  0  0  0  0  0  0  0  0  0  0
    2.1160    2.1007    1.4072 H   0  0  0  0  0  0  0  0  0  0  0  0
    3.3559    0.0171   -0.2592 H   0  0  0  0  0  0  0  0  0  0  0  0
    2.5442   -0.2150    1.2952 H   0  0  0  0  0  0  0  0  0  0  0  0
    1.2160    0.5110   -1.4240 H   0  0  0  0  0  0  0  0  0  0  0  0
    2.1661   -2.0396   -0.4261 H   0  0  0  0  0  0  0  0  0  0  0  0
    0.6103   -1.9067   -1.4411 H   0  0  0  0  0  0  0  0  0  0  0  0
    0.9459   -1.4325    1.6221 H   0  0  0  0  0  0  0  0  0  0  0  0
   -0.4016   -2.1828    0.6983 H   0  0  0  0  0  0  0  0  0  0  0  0
   -0.8459   -0.4992   -1.6714 H   0  0  0  0  0  0  0  0  0  0  0  0
   -2.3584   -1.4832    0.5634 H   0  0  0  0  0  0  0  0  0  0  0  0
   -3.1368   -0.7989   -0.9875 H   0  0  0  0  0  0  0  0  0  0  0  0
   -2.5469    1.1577   -1.6958 H   0  0  0  0  0  0  0  0  0  0  0  0
   -1.2036    2.1034   -0.8633 H   0  0  0  0  0  0  0  0  0  0  0  0
  1  2  1  0
  2  3  1  0
  3  4  1  0
  4  5  1  0
  5  6  1  0
  6  7  1  0
  7  8  1  0
  8  9  1  0
  9 10  2  0
  9 11  2  0
  9 12  1  0
  6  3  1  0
 12  7  1  0
  1 13  1  0
  1 14  1  0
  2 15  1  0
  2 16  1  0
  3 17  1  6
  4 18  1  0
  4 19  1  0
  5 20  1  0
  5 21  1  0
  7 22  1  0
  8 23  1  0
  8 24  1  0
 12 25  1  0
 12 26  1  0
M  END
$$$$

     RDKit          3D

 26 27  0  0  0  0  0  0  0  0999 V2000
    2.0417   -1.6194    0.0643 N   0  0  0  0  0  0  0  0  0  0  0  0
    1.9971   -0.2897   -0.5163 C   0  0  0  0  0  0  0  0  0  0  0  0
    1.4634    0.6581    0.5191 C   0  0  1  0  0  0  0  0  0  0  0  0
    1.4079    2.0636   -0.0694 C   0  0  0  0  0  0  0  0  0  0  0  0
   -0.0035    1.6343   -0.4170 C   0  0  0  0  0  0  0  0  0  0  0  0
    0.0710    0.7667    0.7062 N   0  0  0  0  0  0  0  0  0  0  0  0
   -0.7791   -0.3319    0.8458 C   0  0  0  0  0  0  0  0  0  0  0  0
   -2.2356    0.1509    0.9556 C   0  0  0  0  0  0  0  0  0  0  0  0
   -2.8273   -1.1336   -0.0748 S   0  0  0  0  0  6  0  0  0  0  0  0
   -3.6537   -0.6894   -1.2442 O   0  0  0  0  0  0  0  0  0  0  0  0
   -3.3917   -2.2729    0.7144 O   0  0  0  0  0  0  0  0  0  0  0  0
   -1.0832   -1.1909   -0.3520 C   0  0  0  0  0  0  0  0  0  0  0  0
    1.9357   -2.3641   -0.6573 H   0  0  0  0  0  0  0  0  0  0  0  0
    2.8648   -1.7656    0.6695 H   0  0  0  0  0  0  0  0  0  0  0  0
    1.4779   -0.2537   -1.4813 H   0  0  0  0  0  0  0  0  0  0  0  0
    3.0762   -0.0521   -0.7672 H   0  0  0  0  0  0  0  0  0  0  0  0
    2.0412    0.6194    1.4927 H   0  0  0  0  0  0  0  0  0  0  0  0
    2.0718    2.2559   -0.9106 H   0  0  0  0  0  0  0  0  0  0  0  0
    1.4061    2.8154    0.7496 H   0  0  0  0  0  0  0  0  0  0  0  0
   -0.7564    2.4472   -0.3677 H   0  0  0  0  0  0  0  0  0  0  0  0
    0.0114    1.1467   -1.4316 H   0  0  0  0  0  0  0  0  0  0  0  0
   -0.5711   -0.9402    1.7530 H   0  0  0  0  0  0  0  0  0  0  0  0
   -2.6176    0.1677    1.9916 H   0  0  0  0  0  0  0  0  0  0  0  0
   -2.3999    1.1483    0.4960 H   0  0  0  0  0  0  0  0  0  0  0  0
   -0.8530   -0.7502   -1.3458 H   0  0  0  0  0  0  0  0  0  0  0  0
   -0.6941   -2.2208   -0.2006 H   0  0  0  0  0  0  0  0  0  0  0  0
  1  2  1  0
  2  3  1  0
  3  4  1  0
  4  5  1  0
  5  6  1  0
  6  7  1  0
  7  8  1  0
  8  9  1  0
  9 10  2  0
  9 11  2  0
  9 12  1  0
  6  3  1  0
 12  7  1  0
  1 13  1  0
  1 14  1  0
  2 15  1  0
  2 16  1  0
  3 17  1  1
  4 18  1  0
  4 19  1  0
  5 20  1  0
  5 21  1  0
  7 22  1  0
  8 23  1  0
  8 24  1  0
 12 25  1  0
 12 26  1  0
M  END
$$$$

     RDKit          3D

 26 27  0  0  0  0  0  0  0  0999 V2000
   -3.0030    0.7179    1.2835 N   0  0  0  0  0  0  0  0  0  0  0  0
   -2.2067    0.6787    0.0636 C   0  0  0  0  0  0  0  0  0  0  0  0
   -1.3299   -0.5343    0.0256 C   0  0  1  0  0  0  0  0  0  0  0  0
   -1.5435   -1.4615   -1.1670 C   0  0  0  0  0  0  0  0  0  0  0  0
   -0.0459   -1.6749   -0.9488 C   0  0  0  0  0  0  0  0  0  0  0  0
   -0.0185   -0.2854   -0.5747 N   0  0  0  0  0  0  0  0  0  0  0  0
    0.9997    0.1473    0.3291 C   0  0  0  0  0  0  0  0  0  0  0  0
    1.6302    1.4133   -0.2458 C   0  0  0  0  0  0  0  0  0  0  0  0
    3.0677    1.0635    0.7050 S   0  0  0  0  0  6  0  0  0  0  0  0
    2.9352    1.3686    2.1503 O   0  0  0  0  0  0  0  0  0  0  0  0
    4.3725    1.3942    0.0659 O   0  0  0  0  0  0  0  0  0  0  0  0
    2.3579   -0.4933    0.1875 C   0  0  0  0  0  0  0  0  0  0  0  0
   -2.9492    1.6550    1.7588 H   0  0  0  0  0  0  0  0  0  0  0  0
   -3.9962    0.5027    1.0817 H   0  0  0  0  0  0  0  0  0  0  0  0
   -2.8354    0.7952   -0.8510 H   0  0  0  0  0  0  0  0  0  0  0  0
   -1.5125    1.5559    0.1210 H   0  0  0  0  0  0  0  0  0  0  0  0
   -1.2929   -1.1435    0.9474 H   0  0  0  0  0  0  0  0  0  0  0  0
   -2.1743   -2.3343   -0.9550 H   0  0  0  0  0  0  0  0  0  0  0  0
   -1.7450   -0.9193   -2.1155 H   0  0  0  0  0  0  0  0  0  0  0  0
    0.5183   -1.9660   -1.8436 H   0  0  0  0  0  0  0  0  0  0  0  0
    0.0780   -2.3337   -0.0558 H   0  0  0  0  0  0  0  0  0  0  0  0
    0.6723    0.2997    1.3853 H   0  0  0  0  0  0  0  0  0  0  0  0
    1.0601    2.3138    0.0053 H   0  0  0  0  0  0  0  0  0  0  0  0
    1.8122    1.2277   -1.3337 H   0  0  0  0  0  0  0  0  0  0  0  0
    2.5649   -0.6637   -0.8878 H   0  0  0  0  0  0  0  0  0  0  0  0
    2.5840   -1.3236    0.8688 H   0  0  0  0  0  0  0  0  0  0  0  0
  1  2  1  0
  2  3  1  0
  3  4  1  0
  4  5  1  0
  5  6  1  0
  6  7  1  0
  7  8  1  0
  8  9  1  0
  9 10  2  0
  9 11  2  0
  9 12  1  0
  6  3  1  0
 12  7  1  0
  1 13  1  0
  1 14  1  0
  2 15  1  0
  2 16  1  0
  3 17  1  1
  4 18  1  0
  4 19  1  0
  5 20  1  0
  5 21  1  0
  7 22  1  0
  8 23  1  0
  8 24  1  0
 12 25  1  0
 12 26  1  0
M  END
$$$$

     RDKit          3D

 26 27  0  0  0  0  0  0  0  0999 V2000
   -3.3793    1.3182    0.1525 N   0  0  0  0  0  0  0  0  0  0  0  0
   -2.1295    1.2747   -0.5977 C   0  0  0  0  0  0  0  0  0  0  0  0
   -1.1700    0.4048    0.1450 C   0  0  1  0  0  0  0  0  0  0  0  0
   -1.7555   -1.0109    0.2756 C   0  0  0  0  0  0  0  0  0  0  0  0
   -0.4027   -1.5306   -0.2376 C   0  0  0  0  0  0  0  0  0  0  0  0
   -0.0866   -0.1744   -0.5313 N   0  0  0  0  0  0  0  0  0  0  0  0
    1.2279    0.2792   -0.3766 C   0  0  0  0  0  0  0  0  0  0  0  0
    1.6980    0.1906    1.0600 C   0  0  0  0  0  0  0  0  0  0  0  0
    3.3647    0.0991    0.4333 S   0  0  0  0  0  6  0  0  0  0  0  0
    3.9196    1.3587   -0.1000 O   0  0  0  0  0  0  0  0  0  0  0  0
    4.2770   -0.7761    1.2115 O   0  0  0  0  0  0  0  0  0  0  0  0
    2.2840   -0.7899   -0.6909 C   0  0  0  0  0  0  0  0  0  0  0  0
   -3.2866    0.8535    1.0964 H   0  0  0  0  0  0  0  0  0  0  0  0
   -3.7329    2.2744    0.2952 H   0  0  0  0  0  0  0  0  0  0  0  0
   -2.3889    0.8472   -1.5886 H   0  0  0  0  0  0  0  0  0  0  0  0
   -1.7943    2.3073   -0.7449 H   0  0  0  0  0  0  0  0  0  0  0  0
   -0.8874    0.8326    1.1289 H   0  0  0  0  0  0  0  0  0  0  0  0
   -1.9872   -1.2576    1.3080 H   0  0  0  0  0  0  0  0  0  0  0  0
   -2.5655   -1.2214   -0.4628 H   0  0  0  0  0  0  0  0  0  0  0  0
    0.1395   -2.0222    0.5762 H   0  0  0  0  0  0  0  0  0  0  0  0
   -0.5120   -2.1717   -1.1327 H   0  0  0  0  0  0  0  0  0  0  0  0
    1.5405    1.2148   -0.8514 H   0  0  0  0  0  0  0  0  0  0  0  0
    1.4511   -0.7859    1.5313 H   0  0  0  0  0  0  0  0  0  0  0  0
    1.4946    1.0789    1.6821 H   0  0  0  0  0  0  0  0  0  0  0  0
    2.6252   -0.8099   -1.7334 H   0  0  0  0  0  0  0  0  0  0  0  0
    2.0561   -1.7836   -0.2331 H   0  0  0  0  0  0  0  0  0  0  0  0
  1  2  1  0
  2  3  1  0
  3  4  1  0
  4  5  1  0
  5  6  1  0
  6  7  1  0
  7  8  1  0
  8  9  1  0
  9 10  2  0
  9 11  2  0
  9 12  1  0
  6  3  1  0
 12  7  1  0
  1 13  1  0
  1 14  1  0
  2 15  1  0
  2 16  1  0
  3 17  1  1
  4 18  1  0
  4 19  1  0
  5 20  1  0
  5 21  1  0
  7 22  1  0
  8 23  1  0
  8 24  1  0
 12 25  1  0
 12 26  1  0
M  END
$$$$

     RDKit          3D

 26 27  0  0  0  0  0  0  0  0999 V2000
   -2.0167    2.0123    0.3778 N   0  0  0  0  0  0  0  0  0  0  0  0
   -2.2870    0.7038   -0.1523 C   0  0  0  0  0  0  0  0  0  0  0  0
   -1.3959   -0.3673    0.4463 C   0  0  1  0  0  0  0  0  0  0  0  0
   -1.8078   -1.7013   -0.2002 C   0  0  0  0  0  0  0  0  0  0  0  0
   -0.3271   -1.9842   -0.0625 C   0  0  0  0  0  0  0  0  0  0  0  0
   -0.1354   -0.5316   -0.1961 N   0  0  0  0  0  0  0  0  0  0  0  0
    1.0389   -0.0187    0.4116 C   0  0  0  0  0  0  0  0  0  0  0  0
    2.2984   -0.5873   -0.2214 C   0  0  0  0  0  0  0  0  0  0  0  0
    3.1116    0.9211    0.2104 S   0  0  0  0  0  6  0  0  0  0  0  0
    4.1472    1.4050   -0.7345 O   0  0  0  0  0  0  0  0  0  0  0  0
    3.4590    0.9399    1.6535 O   0  0  0  0  0  0  0  0  0  0  0  0
    1.4401    1.3282   -0.1901 C   0  0  0  0  0  0  0  0  0  0  0  0
   -1.6148    1.9914    1.3514 H   0  0  0  0  0  0  0  0  0  0  0  0
   -2.8489    2.6492    0.3271 H   0  0  0  0  0  0  0  0  0  0  0  0
   -3.3470    0.4602    0.0146 H   0  0  0  0  0  0  0  0  0  0  0  0
   -2.0702    0.7272   -1.2521 H   0  0  0  0  0  0  0  0  0  0  0  0
   -1.4371   -0.4687    1.5413 H   0  0  0  0  0  0  0  0  0  0  0  0
   -2.4764   -2.2964    0.4398 H   0  0  0  0  0  0  0  0  0  0  0  0
   -2.0750   -1.6050   -1.2574 H   0  0  0  0  0  0  0  0  0  0  0  0
   -0.0264   -2.3587    0.9315 H   0  0  0  0  0  0  0  0  0  0  0  0
    0.1215   -2.4934   -0.9279 H   0  0  0  0  0  0  0  0  0  0  0  0
    1.1145   -0.0520    1.5007 H   0  0  0  0  0  0  0  0  0  0  0  0
    2.6747   -1.4847    0.3040 H   0  0  0  0  0  0  0  0  0  0  0  0
    2.1558   -0.7018   -1.3119 H   0  0  0  0  0  0  0  0  0  0  0  0
    1.2919    1.3169   -1.2852 H   0  0  0  0  0  0  0  0  0  0  0  0
    1.0121    2.1957    0.3154 H   0  0  0  0  0  0  0  0  0  0  0  0
  1  2  1  0
  2  3  1  0
  3  4  1  0
  4  5  1  0
  5  6  1  0
  6  7  1  0
  7  8  1  0
  8  9  1  0
  9 10  2  0
  9 11  2  0
  9 12  1  0
  6  3  1  0
 12  7  1  0
  1 13  1  0
  1 14  1  0
  2 15  1  0
  2 16  1  0
  3 17  1  1
  4 18  1  0
  4 19  1  0
  5 20  1  0
  5 21  1  0
  7 22  1  0
  8 23  1  0
  8 24  1  0
 12 25  1  0
 12 26  1  0
M  END
$$$$
