
     RDKit          3D

 21 21  0  0  0  0  0  0  0  0999 V2000
   -2.8843    0.9513   -0.6058 O   0  0  0  0  0  0  0  0  0  0  0  0
   -1.8180    0.5047   -0.2202 C   0  0  0  0  0  0  0  0  0  0  0  0
   -1.5271   -0.9451   -0.4130 C   0  0  0  0  0  0  0  0  0  0  0  0
   -0.0631   -1.2551   -0.4062 C   0  0  2  0  0  0  0  0  0  0  0  0
    0.3181   -2.0666    0.6567 O   0  0  0  0  0  0  0  0  0  0  0  0
    0.7090    0.0460   -0.3663 C   0  0  2  0  0  0  0  0  0  0  0  0
    2.2038   -0.1813   -0.3999 C   0  0  0  0  0  0  0  0  0  0  0  0
    2.8046    1.0769   -0.3917 O   0  0  0  0  0  0  0  0  0  0  0  0
    0.3082    0.7396    0.7614 O   0  0  0  0  0  0  0  0  0  0  0  0
   -0.8651    1.4403    0.4239 C   0  0  2  0  0  0  0  0  0  0  0  0
   -1.3683    2.0269    1.5723 O   0  0  0  0  0  0  0  0  0  0  0  0
   -1.9630   -1.2152   -1.4046 H   0  0  0  0  0  0  0  0  0  0  0  0
   -2.0697   -1.5721    0.3517 H   0  0  0  0  0  0  0  0  0  0  0  0
    0.2397   -1.7610   -1.3665 H   0  0  0  0  0  0  0  0  0  0  0  0
   -0.3564   -2.1693    1.3479 H   0  0  0  0  0  0  0  0  0  0  0  0
    0.4049    0.6198   -1.2666 H   0  0  0  0  0  0  0  0  0  0  0  0
    2.5285   -0.7495    0.4760 H   0  0  0  0  0  0  0  0  0  0  0  0
    2.4776   -0.6596   -1.3507 H   0  0  0  0  0  0  0  0  0  0  0  0
    2.8033    1.4747    0.5158 H   0  0  0  0  0  0  0  0  0  0  0  0
   -0.5369    2.2400   -0.2794 H   0  0  0  0  0  0  0  0  0  0  0  0
   -1.3455    1.4546    2.3650 H   0  0  0  0  0  0  0  0  0  0  0  0
  1  2  2  0
  2  3  1  0
  3  4  1  0
  4  5  1  0
  4  6  1  0
  6  7  1  0
  7  8  1  0
  6  9  1  0
  9 10  1  0
 10 11  1  0
 10  2  1  0
  3 12  1  0
  3 13  1  0
  4 14  1  6
  5 15  1  0
  6 16  1  6
  7 17  1  0
  7 18  1  0
  8 19  1  0
 10 20  1  6
 11 21  1  0
M  END
$$$$

     RDKit          3D

 21 21  0  0  0  0  0  0  0  0999 V2000
   -3.1051   -0.3172   -0.7253 O   0  0  0  0  0  0  0  0  0  0  0  0
   -1.9181   -0.1638   -0.4877 C   0  0  0  0  0  0  0  0  0  0  0  0
   -1.0653   -1.3725   -0.4910 C   0  0  0  0  0  0  0  0  0  0  0  0
    0.3579   -1.1029   -0.1367 C   0  0  2  0  0  0  0  0  0  0  0  0
    0.7289   -1.6684    1.0838 O   0  0  0  0  0  0  0  0  0  0  0  0
    0.7027    0.3639   -0.0856 C   0  0  2  0  0  0  0  0  0  0  0  0
    1.9730    0.5723    0.7132 C   0  0  0  0  0  0  0  0  0  0  0  0
    3.0533   -0.1066    0.1581 O   0  0  0  0  0  0  0  0  0  0  0  0
   -0.2994    1.0990    0.5810 O   0  0  0  0  0  0  0  0  0  0  0  0
   -1.4367    1.2051   -0.2190 C   0  0  2  0  0  0  0  0  0  0  0  0
   -2.3556    1.9836    0.4720 O   0  0  0  0  0  0  0  0  0  0  0  0
   -1.1663   -1.8875   -1.4773 H   0  0  0  0  0  0  0  0  0  0  0  0
   -1.5161   -2.0868    0.2558 H   0  0  0  0  0  0  0  0  0  0  0  0
    1.0109   -1.5588   -0.9233 H   0  0  0  0  0  0  0  0  0  0  0  0
    0.1653   -2.4393    1.3182 H   0  0  0  0  0  0  0  0  0  0  0  0
    0.7780    0.7696   -1.1059 H   0  0  0  0  0  0  0  0  0  0  0  0
    2.1563    1.6621    0.8014 H   0  0  0  0  0  0  0  0  0  0  0  0
    1.7750    0.1291    1.7261 H   0  0  0  0  0  0  0  0  0  0  0  0
    3.3120    0.3204   -0.6961 H   0  0  0  0  0  0  0  0  0  0  0  0
   -1.1588    1.6751   -1.1978 H   0  0  0  0  0  0  0  0  0  0  0  0
   -1.9918    2.9237    0.4360 H   0  0  0  0  0  0  0  0  0  0  0  0
  1  2  2  0
  2  3  1  0
  3  4  1  0
  4  5  1  0
  4  6  1  0
  6  7  1  0
  7  8  1  0
  6  9  1  0
  9 10  1  0
 10 11  1  0
 10  2  1  0
  3 12  1  0
  3 13  1  0
  4 14  1  6
  5 15  1  0
  6 16  1  6
  7 17  1  0
  7 18  1  0
  8 19  1  0
 10 20  1  6
 11 21  1  0
M  END
$$$$

     RDKit          3D

 21 21  0  0  0  0  0  0  0  0999 V2000
    2.6922    1.4973    0.8068 O   0  0  0  0  0  0  0  0  0  0  0  0
    1.7234    1.0104    0.2477 C   0  0  0  0  0  0  0  0  0  0  0  0
    0.4477    1.7389    0.1558 C   0  0  0  0  0  0  0  0  0  0  0  0
   -0.7320    0.8494   -0.0936 C   0  0  2  0  0  0  0  0  0  0  0  0
   -1.4067    0.7204    1.1472 O   0  0  0  0  0  0  0  0  0  0  0  0
   -0.4557   -0.4686   -0.6750 C   0  0  2  0  0  0  0  0  0  0  0  0
   -1.3973   -1.4890   -0.0082 C   0  0  0  0  0  0  0  0  0  0  0  0
   -2.6734   -0.9662   -0.0073 O   0  0  0  0  0  0  0  0  0  0  0  0
    0.7619   -0.9904   -0.6649 O   0  0  0  0  0  0  0  0  0  0  0  0
    1.8565   -0.3264   -0.3358 C   0  0  2  0  0  0  0  0  0  0  0  0
    2.6294   -1.1035    0.5603 O   0  0  0  0  0  0  0  0  0  0  0  0
    0.5612    2.5026   -0.6583 H   0  0  0  0  0  0  0  0  0  0  0  0
    0.3377    2.3332    1.0937 H   0  0  0  0  0  0  0  0  0  0  0  0
   -1.4524    1.4376   -0.7138 H   0  0  0  0  0  0  0  0  0  0  0  0
   -1.8896    1.5698    1.3520 H   0  0  0  0  0  0  0  0  0  0  0  0
   -0.8142   -0.4620   -1.7507 H   0  0  0  0  0  0  0  0  0  0  0  0
   -1.3270   -2.4761   -0.5352 H   0  0  0  0  0  0  0  0  0  0  0  0
   -1.0298   -1.5982    1.0315 H   0  0  0  0  0  0  0  0  0  0  0  0
   -3.3470   -1.6458    0.2140 H   0  0  0  0  0  0  0  0  0  0  0  0
    2.5227   -0.2231   -1.2441 H   0  0  0  0  0  0  0  0  0  0  0  0
    2.9925   -1.9102    0.0779 H   0  0  0  0  0  0  0  0  0  0  0  0
  1  2  2  0
  2  3  1  0
  3  4  1  0
  4  5  1  0
  4  6  1  0
  6  7  1  0
  7  8  1  0
  6  9  1  0
  9 10  1  0
 10 11  1  0
 10  2  1  0
  3 12  1  0
  3 13  1  0
  4 14  1  6
  5 15  1  0
  6 16  1  6
  7 17  1  0
  7 18  1  0
  8 19  1  0
 10 20  1  6
 11 21  1  0
M  END
$$$$

     RDKit          3D

 21 21  0  0  0  0  0  0  0  0999 V2000
    3.1992    0.0187    0.4121 O   0  0  0  0  0  0  0  0  0  0  0  0
    1.9971    0.0219    0.3437 C   0  0  0  0  0  0  0  0  0  0  0  0
    1.3092   -1.0656   -0.3978 C   0  0  0  0  0  0  0  0  0  0  0  0
   -0.1559   -1.1054   -0.0277 C   0  0  2  0  0  0  0  0  0  0  0  0
   -0.8032   -1.9177   -0.9624 O   0  0  0  0  0  0  0  0  0  0  0  0
   -0.7805    0.2407    0.0946 C   0  0  2  0  0  0  0  0  0  0  0  0
   -1.8999    0.4257   -0.9358 C   0  0  0  0  0  0  0  0  0  0  0  0
   -2.5780    1.6007   -0.6785 O   0  0  0  0  0  0  0  0  0  0  0  0
    0.0986    1.2970    0.0214 O   0  0  0  0  0  0  0  0  0  0  0  0
    1.1222    1.0526    0.9570 C   0  0  2  0  0  0  0  0  0  0  0  0
    1.7821    2.1893    1.3348 O   0  0  0  0  0  0  0  0  0  0  0  0
    1.4240   -0.9619   -1.5064 H   0  0  0  0  0  0  0  0  0  0  0  0
    1.7503   -2.0333   -0.0886 H   0  0  0  0  0  0  0  0  0  0  0  0
   -0.2102   -1.6496    0.9575 H   0  0  0  0  0  0  0  0  0  0  0  0
   -1.0819   -2.7875   -0.5867 H   0  0  0  0  0  0  0  0  0  0  0  0
   -1.3007    0.3188    1.0939 H   0  0  0  0  0  0  0  0  0  0  0  0
   -1.4662    0.4469   -1.9628 H   0  0  0  0  0  0  0  0  0  0  0  0
   -2.5580   -0.4604   -0.8918 H   0  0  0  0  0  0  0  0  0  0  0  0
   -3.1986    1.4769    0.0582 H   0  0  0  0  0  0  0  0  0  0  0  0
    0.6769    0.5776    1.8695 H   0  0  0  0  0  0  0  0  0  0  0  0
    2.6735    2.3146    0.8954 H   0  0  0  0  0  0  0  0  0  0  0  0
  1  2  2  0
  2  3  1  0
  3  4  1  0
  4  5  1  0
  4  6  1  0
  6  7  1  0
  7  8  1  0
  6  9  1  0
  9 10  1  0
 10 11  1  0
 10  2  1  0
  3 12  1  0
  3 13  1  0
  4 14  1  1
  5 15  1  0
  6 16  1  1
  7 17  1  0
  7 18  1  0
  8 19  1  0
 10 20  1  1
 11 21  1  0
M  END
$$$$

     RDKit          3D

 21 21  0  0  0  0  0  0  0  0999 V2000
   -2.8402   -0.6196    1.0797 O   0  0  0  0  0  0  0  0  0  0  0  0
   -1.8282   -0.3651    0.4664 C   0  0  0  0  0  0  0  0  0  0  0  0
   -1.4541    1.0511    0.1852 C   0  0  0  0  0  0  0  0  0  0  0  0
    0.0485    1.2240    0.1699 C   0  0  2  0  0  0  0  0  0  0  0  0
    0.4583    2.0141   -0.9079 O   0  0  0  0  0  0  0  0  0  0  0  0
    0.7563   -0.1042    0.0300 C   0  0  2  0  0  0  0  0  0  0  0  0
    2.1706    0.0750   -0.4809 C   0  0  0  0  0  0  0  0  0  0  0  0
    2.8590   -1.1346   -0.4921 O   0  0  0  0  0  0  0  0  0  0  0  0
    0.0351   -0.9910   -0.7688 O   0  0  0  0  0  0  0  0  0  0  0  0
   -0.9832   -1.4972    0.0095 C   0  0  2  0  0  0  0  0  0  0  0  0
   -1.7618   -2.4410   -0.6439 O   0  0  0  0  0  0  0  0  0  0  0  0
   -1.8770    1.7431    0.9420 H   0  0  0  0  0  0  0  0  0  0  0  0
   -1.8721    1.3630   -0.7974 H   0  0  0  0  0  0  0  0  0  0  0  0
    0.3726    1.7080    1.0996 H   0  0  0  0  0  0  0  0  0  0  0  0
    0.2044    2.9517   -0.7963 H   0  0  0  0  0  0  0  0  0  0  0  0
    0.8630   -0.5158    1.0726 H   0  0  0  0  0  0  0  0  0  0  0  0
    2.7293    0.7829    0.1611 H   0  0  0  0  0  0  0  0  0  0  0  0
    2.1611    0.4707   -1.5314 H   0  0  0  0  0  0  0  0  0  0  0  0
    3.1112   -1.3312    0.4502 H   0  0  0  0  0  0  0  0  0  0  0  0
   -0.5034   -1.9452    0.9226 H   0  0  0  0  0  0  0  0  0  0  0  0
   -2.6493   -2.4386   -0.1700 H   0  0  0  0  0  0  0  0  0  0  0  0
  1  2  2  0
  2  3  1  0
  3  4  1  0
  4  5  1  0
  4  6  1  0
  6  7  1  0
  7  8  1  0
  6  9  1  0
  9 10  1  0
 10 11  1  0
 10  2  1  0
  3 12  1  0
  3 13  1  0
  4 14  1  1
  5 15  1  0
  6 16  1  1
  7 17  1  0
  7 18  1  0
  8 19  1  0
 10 20  1  1
 11 21  1  0
M  END
$$$$

     RDKit          3D

 21 21  0  0  0  0  0  0  0  0999 V2000
   -2.8860    0.1897   -1.5929 O   0  0  0  0  0  0  0  0  0  0  0  0
   -1.8697    0.1582   -0.8956 C   0  0  0  0  0  0  0  0  0  0  0  0
   -1.2934   -1.1116   -0.3908 C   0  0  0  0  0  0  0  0  0  0  0  0
    0.2346   -1.0934   -0.4289 C   0  0  2  0  0  0  0  0  0  0  0  0
    0.6639   -1.8236    0.6716 O   0  0  0  0  0  0  0  0  0  0  0  0
    0.7346    0.3035   -0.4626 C   0  0  2  0  0  0  0  0  0  0  0  0
    2.1060    0.4935    0.1103 C   0  0  0  0  0  0  0  0  0  0  0  0
    3.0975   -0.1948   -0.5371 O   0  0  0  0  0  0  0  0  0  0  0  0
   -0.1378    1.0834    0.3309 O   0  0  0  0  0  0  0  0  0  0  0  0
   -1.1891    1.4411   -0.5426 C   0  0  2  0  0  0  0  0  0  0  0  0
   -2.0332    2.3719    0.0034 O   0  0  0  0  0  0  0  0  0  0  0  0
   -1.6755   -1.2584    0.6335 H   0  0  0  0  0  0  0  0  0  0  0  0
   -1.7051   -1.9338   -1.0183 H   0  0  0  0  0  0  0  0  0  0  0  0
    0.5176   -1.6723   -1.3291 H   0  0  0  0  0  0  0  0  0  0  0  0
    0.1547   -2.6859    0.6486 H   0  0  0  0  0  0  0  0  0  0  0  0
    0.6923    0.6641   -1.5135 H   0  0  0  0  0  0  0  0  0  0  0  0
    2.0546    0.2870    1.2045 H   0  0  0  0  0  0  0  0  0  0  0  0
    2.3372    1.5883    0.0346 H   0  0  0  0  0  0  0  0  0  0  0  0
    2.8575   -1.0672   -0.8914 H   0  0  0  0  0  0  0  0  0  0  0  0
   -0.6790    1.8702   -1.4413 H   0  0  0  0  0  0  0  0  0  0  0  0
   -1.9818    2.3902    1.0008 H   0  0  0  0  0  0  0  0  0  0  0  0
  1  2  2  0
  2  3  1  0
  3  4  1  0
  4  5  1  0
  4  6  1  0
  6  7  1  0
  7  8  1  0
  6  9  1  0
  9 10  1  0
 10 11  1  0
 10  2  1  0
  3 12  1  0
  3 13  1  0
  4 14  1  6
  5 15  1  0
  6 16  1  6
  7 17  1  0
  7 18  1  0
  8 19  1  0
 10 20  1  6
 11 21  1  0
M  END
$$$$

     RDKit          3D

 21 21  0  0  0  0  0  0  0  0999 V2000
    3.0409   -0.7206   -0.6275 O   0  0  0  0  0  0  0  0  0  0  0  0
    1.9429   -0.2689   -0.4203 C   0  0  0  0  0  0  0  0  0  0  0  0
    0.9043   -0.0698   -1.4696 C   0  0  0  0  0  0  0  0  0  0  0  0
   -0.4046   -0.6898   -0.9737 C   0  0  2  0  0  0  0  0  0  0  0  0
   -1.4259   -0.0171   -1.6633 O   0  0  0  0  0  0  0  0  0  0  0  0
   -0.5295   -0.5288    0.5108 C   0  0  2  0  0  0  0  0  0  0  0  0
   -1.9687   -0.4351    0.9661 C   0  0  0  0  0  0  0  0  0  0  0  0
   -2.5907    0.7150    0.4630 O   0  0  0  0  0  0  0  0  0  0  0  0
    0.2178    0.5664    0.9371 O   0  0  0  0  0  0  0  0  0  0  0  0
    1.5585    0.1317    0.9760 C   0  0  2  0  0  0  0  0  0  0  0  0
    2.3969    1.0935    1.4856 O   0  0  0  0  0  0  0  0  0  0  0  0
    1.1871   -0.5177   -2.4389 H   0  0  0  0  0  0  0  0  0  0  0  0
    0.7657    1.0329   -1.6104 H   0  0  0  0  0  0  0  0  0  0  0  0
   -0.4203   -1.7582   -1.2403 H   0  0  0  0  0  0  0  0  0  0  0  0
   -2.0483   -0.6449   -2.1031 H   0  0  0  0  0  0  0  0  0  0  0  0
   -0.0987   -1.4257    1.0019 H   0  0  0  0  0  0  0  0  0  0  0  0
   -1.9978   -0.4438    2.0647 H   0  0  0  0  0  0  0  0  0  0  0  0
   -2.5618   -1.2999    0.6112 H   0  0  0  0  0  0  0  0  0  0  0  0
   -2.6478    1.4395    1.1132 H   0  0  0  0  0  0  0  0  0  0  0  0
    1.5737   -0.8125    1.5768 H   0  0  0  0  0  0  0  0  0  0  0  0
    3.1064    1.3268    0.8405 H   0  0  0  0  0  0  0  0  0  0  0  0
  1  2  2  0
  2  3  1  0
  3  4  1  0
  4  5  1  0
  4  6  1  0
  6  7  1  0
  7  8  1  0
  6  9  1  0
  9 10  1  0
 10 11  1  0
 10  2  1  0
  3 12  1  0
  3 13  1  0
  4 14  1  1
  5 15  1  0
  6 16  1  1
  7 17  1  0
  7 18  1  0
  8 19  1  0
 10 20  1  1
 11 21  1  0
M  END
$$$$

     RDKit          3D

 21 21  0  0  0  0  0  0  0  0999 V2000
   -1.2565   -0.8913   -2.1962 O   0  0  0  0  0  0  0  0  0  0  0  0
   -1.1835   -0.4482   -1.0814 C   0  0  0  0  0  0  0  0  0  0  0  0
   -0.9345    1.0080   -0.8450 C   0  0  0  0  0  0  0  0  0  0  0  0
   -0.0998    1.1313    0.3844 C   0  0  2  0  0  0  0  0  0  0  0  0
    0.8598    2.1103    0.1650 O   0  0  0  0  0  0  0  0  0  0  0  0
    0.5788   -0.1203    0.8218 C   0  0  2  0  0  0  0  0  0  0  0  0
    1.7724   -0.4947   -0.0205 C   0  0  0  0  0  0  0  0  0  0  0  0
    2.6233    0.6023   -0.1904 O   0  0  0  0  0  0  0  0  0  0  0  0
   -0.2260   -1.2108    0.9659 O   0  0  0  0  0  0  0  0  0  0  0  0
   -1.3267   -1.2631    0.1638 C   0  0  2  0  0  0  0  0  0  0  0  0
   -1.7235   -2.5485   -0.1799 O   0  0  0  0  0  0  0  0  0  0  0  0
   -1.9576    1.4529   -0.6679 H   0  0  0  0  0  0  0  0  0  0  0  0
   -0.5349    1.5171   -1.7283 H   0  0  0  0  0  0  0  0  0  0  0  0
   -0.7338    1.4936    1.2260 H   0  0  0  0  0  0  0  0  0  0  0  0
    0.3580    2.9517   -0.0335 H   0  0  0  0  0  0  0  0  0  0  0  0
    1.0016    0.0991    1.8494 H   0  0  0  0  0  0  0  0  0  0  0  0
    1.5061   -0.9463   -0.9877 H   0  0  0  0  0  0  0  0  0  0  0  0
    2.3456   -1.2560    0.5503 H   0  0  0  0  0  0  0  0  0  0  0  0
    3.3289    0.6058    0.5238 H   0  0  0  0  0  0  0  0  0  0  0  0
   -2.2055   -0.8106    0.7090 H   0  0  0  0  0  0  0  0  0  0  0  0
   -2.1924   -2.9823    0.5716 H   0  0  0  0  0  0  0  0  0  0  0  0
  1  2  2  0
  2  3  1  0
  3  4  1  0
  4  5  1  0
  4  6  1  0
  6  7  1  0
  7  8  1  0
  6  9  1  0
  9 10  1  0
 10 11  1  0
 10  2  1  0
  3 12  1  0
  3 13  1  0
  4 14  1  1
  5 15  1  0
  6 16  1  1
  7 17  1  0
  7 18  1  0
  8 19  1  0
 10 20  1  1
 11 21  1  0
M  END
$$$$
