
     RDKit          3D

 19 20  0  0  0  0  0  0  0  0999 V2000
    4.6741    1.0986    1.0695 N   0  0  0  0  0  0  0  0  0  0  0  0
    3.5671    0.7482    0.6825 C   0  0  0  0  0  0  0  0  0  0  0  0
    2.9982   -0.3344    0.1499 N   0  0  0  0  0  0  0  0  0  0  0  0
    1.7749   -0.4011   -0.1593 N   0  0  0  0  0  0  0  0  0  0  0  0
    0.9331    0.6111    0.0192 C   0  0  0  0  0  0  0  0  0  0  0  0
   -0.2933    0.8410   -0.1810 N   0  0  0  0  0  0  0  0  0  0  0  0
   -1.2468   -0.0558   -0.7344 C   0  0  0  0  0  0  0  0  0  0  0  0
   -2.4815   -0.1028    0.0867 C   0  0  0  0  0  0  0  0  0  0  0  0
   -2.6788    0.6143    1.2178 N   0  0  0  0  0  0  0  0  0  0  0  0
   -3.8949    0.3337    1.7032 N   0  0  0  0  0  0  0  0  0  0  0  0
   -4.4543   -0.5465    0.8900 N   0  0  0  0  0  0  0  0  0  0  0  0
   -3.5984   -0.8075   -0.0844 N   0  0  0  0  0  0  0  0  0  0  0  0
    2.1095    1.8450    0.7490 S   0  0  0  0  0  0  0  0  0  0  0  0
    5.4859    0.4840    1.0311 H   0  0  0  0  0  0  0  0  0  0  0  0
    3.6561   -1.2033   -0.0184 H   0  0  0  0  0  0  0  0  0  0  0  0
    1.3137   -1.3094   -0.6024 H   0  0  0  0  0  0  0  0  0  0  0  0
   -0.8820   -1.0985   -0.8334 H   0  0  0  0  0  0  0  0  0  0  0  0
   -1.5736    0.2409   -1.7657 H   0  0  0  0  0  0  0  0  0  0  0  0
   -5.4091   -0.9575    1.0079 H   0  0  0  0  0  0  0  0  0  0  0  0
  1  2  2  3
  2  3  1  0
  3  4  1  0
  4  5  1  0
  5  6  2  3
  6  7  1  0
  7  8  1  0
  8  9  1  0
  9 10  2  0
 10 11  1  0
 11 12  1  0
  5 13  1  0
 13  2  1  0
 12  8  2  0
  1 14  1  0
  3 15  1  0
  4 16  1  0
  7 17  1  0
  7 18  1  0
 11 19  1  0
M  END
$$$$

     RDKit          3D

 19 20  0  0  0  0  0  0  0  0999 V2000
   -4.5111   -0.3544    0.9737 N   0  0  0  0  0  0  0  0  0  0  0  0
   -3.3849   -0.2364    0.3458 C   0  0  0  0  0  0  0  0  0  0  0  0
   -3.0608    0.2328   -0.8650 N   0  0  0  0  0  0  0  0  0  0  0  0
   -1.8565    0.2394   -1.2535 N   0  0  0  0  0  0  0  0  0  0  0  0
   -0.8794   -0.2092   -0.4938 C   0  0  0  0  0  0  0  0  0  0  0  0
    0.3895   -0.2964   -0.6800 N   0  0  0  0  0  0  0  0  0  0  0  0
    1.2088   -0.8560    0.3910 C   0  0  0  0  0  0  0  0  0  0  0  0
    2.5407   -0.1909    0.3775 C   0  0  0  0  0  0  0  0  0  0  0  0
    3.6196   -0.5901   -0.3060 N   0  0  0  0  0  0  0  0  0  0  0  0
    4.6125    0.2665   -0.0574 N   0  0  0  0  0  0  0  0  0  0  0  0
    4.1832    1.2019    0.7712 N   0  0  0  0  0  0  0  0  0  0  0  0
    2.9190    0.9283    1.0405 N   0  0  0  0  0  0  0  0  0  0  0  0
   -1.7597   -0.7133    0.9720 S   0  0  0  0  0  0  0  0  0  0  0  0
   -5.3673   -0.0459    0.5084 H   0  0  0  0  0  0  0  0  0  0  0  0
   -3.8965    0.5966   -1.4677 H   0  0  0  0  0  0  0  0  0  0  0  0
   -1.5798    0.6178   -2.2347 H   0  0  0  0  0  0  0  0  0  0  0  0
    1.3216   -1.9552    0.2885 H   0  0  0  0  0  0  0  0  0  0  0  0
    0.7149   -0.6182    1.3695 H   0  0  0  0  0  0  0  0  0  0  0  0
    4.7861    1.9829    1.1092 H   0  0  0  0  0  0  0  0  0  0  0  0
  1  2  2  3
  2  3  1  0
  3  4  1  0
  4  5  1  0
  5  6  2  3
  6  7  1  0
  7  8  1  0
  8  9  1  0
  9 10  2  0
 10 11  1  0
 11 12  1  0
  5 13  1  0
 13  2  1  0
 12  8  2  0
  1 14  1  0
  3 15  1  0
  4 16  1  0
  7 17  1  0
  7 18  1  0
 11 19  1  0
M  END
$$$$

     RDKit          3D

 19 20  0  0  0  0  0  0  0  0999 V2000
    3.7982    1.6580   -0.2439 N   0  0  0  0  0  0  0  0  0  0  0  0
    2.9450    0.9155    0.2063 C   0  0  0  0  0  0  0  0  0  0  0  0
    2.7191    0.3245    1.3948 N   0  0  0  0  0  0  0  0  0  0  0  0
    1.7500   -0.4224    1.6448 N   0  0  0  0  0  0  0  0  0  0  0  0
    0.8405   -0.6936    0.7143 C   0  0  0  0  0  0  0  0  0  0  0  0
   -0.2796   -1.4371    0.6783 N   0  0  0  0  0  0  0  0  0  0  0  0
   -1.0406   -1.5089   -0.5210 C   0  0  0  0  0  0  0  0  0  0  0  0
   -2.1794   -0.5253   -0.5230 C   0  0  0  0  0  0  0  0  0  0  0  0
   -3.0684   -0.3601   -1.5153 N   0  0  0  0  0  0  0  0  0  0  0  0
   -3.9183    0.5880   -1.1649 N   0  0  0  0  0  0  0  0  0  0  0  0
   -3.5904    1.0419    0.0476 N   0  0  0  0  0  0  0  0  0  0  0  0
   -2.5241    0.3546    0.4336 N   0  0  0  0  0  0  0  0  0  0  0  0
    1.4830    0.2598   -0.6938 S   0  0  0  0  0  0  0  0  0  0  0  0
    3.9101    2.0742   -1.1676 H   0  0  0  0  0  0  0  0  0  0  0  0
    3.4768    0.5570    2.1525 H   0  0  0  0  0  0  0  0  0  0  0  0
    1.5915   -0.8920    2.6279 H   0  0  0  0  0  0  0  0  0  0  0  0
   -0.3705   -1.2033   -1.3743 H   0  0  0  0  0  0  0  0  0  0  0  0
   -1.4171   -2.5201   -0.7368 H   0  0  0  0  0  0  0  0  0  0  0  0
   -4.1260    1.7892    0.5146 H   0  0  0  0  0  0  0  0  0  0  0  0
  1  2  2  3
  2  3  1  0
  3  4  1  0
  4  5  1  0
  5  6  2  3
  6  7  1  0
  7  8  1  0
  8  9  1  0
  9 10  2  0
 10 11  1  0
 11 12  1  0
  5 13  1  0
 13  2  1  0
 12  8  2  0
  1 14  1  0
  3 15  1  0
  4 16  1  0
  7 17  1  0
  7 18  1  0
 11 19  1  0
M  END
$$$$

     RDKit          3D

 19 20  0  0  0  0  0  0  0  0999 V2000
    4.8596   -0.3413   -0.8272 N   0  0  0  0  0  0  0  0  0  0  0  0
    3.6233   -0.2954   -0.5112 C   0  0  0  0  0  0  0  0  0  0  0  0
    2.9600    0.3270    0.4737 N   0  0  0  0  0  0  0  0  0  0  0  0
    1.6960    0.2092    0.5719 N   0  0  0  0  0  0  0  0  0  0  0  0
    1.0001   -0.5156   -0.2742 C   0  0  0  0  0  0  0  0  0  0  0  0
   -0.2524   -0.7700   -0.3645 N   0  0  0  0  0  0  0  0  0  0  0  0
   -1.1395   -0.1975    0.5983 C   0  0  0  0  0  0  0  0  0  0  0  0
   -2.4968   -0.0729    0.0021 C   0  0  0  0  0  0  0  0  0  0  0  0
   -2.8607   -0.4362   -1.2501 N   0  0  0  0  0  0  0  0  0  0  0  0
   -4.1592   -0.1484   -1.3561 N   0  0  0  0  0  0  0  0  0  0  0  0
   -4.5885    0.3670   -0.2337 N   0  0  0  0  0  0  0  0  0  0  0  0
   -3.5709    0.4243    0.6282 N   0  0  0  0  0  0  0  0  0  0  0  0
    2.2790   -1.1175   -1.3572 S   0  0  0  0  0  0  0  0  0  0  0  0
    5.5327    0.1878   -0.2432 H   0  0  0  0  0  0  0  0  0  0  0  0
    3.5832    0.9187    1.1532 H   0  0  0  0  0  0  0  0  0  0  0  0
    1.1529    0.7126    1.3700 H   0  0  0  0  0  0  0  0  0  0  0  0
   -0.8233    0.8415    0.8651 H   0  0  0  0  0  0  0  0  0  0  0  0
   -1.2489   -0.7976    1.5207 H   0  0  0  0  0  0  0  0  0  0  0  0
   -5.5464    0.7043    0.0323 H   0  0  0  0  0  0  0  0  0  0  0  0
  1  2  2  3
  2  3  1  0
  3  4  1  0
  4  5  1  0
  5  6  2  3
  6  7  1  0
  7  8  1  0
  8  9  1  0
  9 10  2  0
 10 11  1  0
 11 12  1  0
  5 13  1  0
 13  2  1  0
 12  8  2  0
  1 14  1  0
  3 15  1  0
  4 16  1  0
  7 17  1  0
  7 18  1  0
 11 19  1  0
M  END
$$$$

     RDKit          3D

 19 20  0  0  0  0  0  0  0  0999 V2000
    4.9408   -0.5360   -0.1424 N   0  0  0  0  0  0  0  0  0  0  0  0
    3.6755   -0.3633   -0.1774 C   0  0  0  0  0  0  0  0  0  0  0  0
    2.8828    0.7153   -0.4821 N   0  0  0  0  0  0  0  0  0  0  0  0
    1.6266    0.6002   -0.4334 N   0  0  0  0  0  0  0  0  0  0  0  0
    1.0077   -0.5365   -0.0947 C   0  0  0  0  0  0  0  0  0  0  0  0
   -0.2139   -0.8365    0.0074 N   0  0  0  0  0  0  0  0  0  0  0  0
   -1.1872    0.1950   -0.2814 C   0  0  0  0  0  0  0  0  0  0  0  0
   -2.5379   -0.1665    0.2234 C   0  0  0  0  0  0  0  0  0  0  0  0
   -3.6033    0.6403    0.0692 N   0  0  0  0  0  0  0  0  0  0  0  0
   -4.6662    0.0634    0.6144 N   0  0  0  0  0  0  0  0  0  0  0  0
   -4.2733   -1.0980    1.1083 N   0  0  0  0  0  0  0  0  0  0  0  0
   -2.9731   -1.2396    0.8700 N   0  0  0  0  0  0  0  0  0  0  0  0
    2.4107   -1.5990    0.1979 S   0  0  0  0  0  0  0  0  0  0  0  0
    5.5411    0.2513   -0.3791 H   0  0  0  0  0  0  0  0  0  0  0  0
    3.3917    1.6607   -0.7638 H   0  0  0  0  0  0  0  0  0  0  0  0
    0.9741    1.4452   -0.6717 H   0  0  0  0  0  0  0  0  0  0  0  0
   -0.8879    1.1895    0.1282 H   0  0  0  0  0  0  0  0  0  0  0  0
   -1.1924    0.3232   -1.4007 H   0  0  0  0  0  0  0  0  0  0  0  0
   -4.9160   -1.7824    1.6079 H   0  0  0  0  0  0  0  0  0  0  0  0
  1  2  2  3
  2  3  1  0
  3  4  1  0
  4  5  1  0
  5  6  2  3
  6  7  1  0
  7  8  1  0
  8  9  1  0
  9 10  2  0
 10 11  1  0
 11 12  1  0
  5 13  1  0
 13  2  1  0
 12  8  2  0
  1 14  1  0
  3 15  1  0
  4 16  1  0
  7 17  1  0
  7 18  1  0
 11 19  1  0
M  END
$$$$

     RDKit          3D

 19 20  0  0  0  0  0  0  0  0999 V2000
    4.5230    1.1815    0.3908 N   0  0  0  0  0  0  0  0  0  0  0  0
    3.4749    0.5896    0.0509 C   0  0  0  0  0  0  0  0  0  0  0  0
    3.1803   -0.3098   -0.8729 N   0  0  0  0  0  0  0  0  0  0  0  0
    2.0179   -0.7796   -1.0389 N   0  0  0  0  0  0  0  0  0  0  0  0
    1.0006   -0.3643   -0.2505 C   0  0  0  0  0  0  0  0  0  0  0  0
   -0.2411   -0.6818   -0.2195 N   0  0  0  0  0  0  0  0  0  0  0  0
   -1.0994   -0.0617    0.7504 C   0  0  0  0  0  0  0  0  0  0  0  0
   -2.4846    0.0446    0.2875 C   0  0  0  0  0  0  0  0  0  0  0  0
   -3.0288    1.0642   -0.3901 N   0  0  0  0  0  0  0  0  0  0  0  0
   -4.3120    0.7657   -0.6177 N   0  0  0  0  0  0  0  0  0  0  0  0
   -4.5554   -0.4216   -0.0875 N   0  0  0  0  0  0  0  0  0  0  0  0
   -3.4436   -0.8748    0.4705 N   0  0  0  0  0  0  0  0  0  0  0  0
    1.8411    0.8201    0.8239 S   0  0  0  0  0  0  0  0  0  0  0  0
    4.4957    1.8690    1.1761 H   0  0  0  0  0  0  0  0  0  0  0  0
    4.0258   -0.6341   -1.5046 H   0  0  0  0  0  0  0  0  0  0  0  0
    1.7571   -1.5153   -1.7883 H   0  0  0  0  0  0  0  0  0  0  0  0
   -1.0156   -0.6827    1.6883 H   0  0  0  0  0  0  0  0  0  0  0  0
   -0.6663    0.9247    1.0315 H   0  0  0  0  0  0  0  0  0  0  0  0
   -5.4694   -0.9336   -0.0979 H   0  0  0  0  0  0  0  0  0  0  0  0
  1  2  2  3
  2  3  1  0
  3  4  1  0
  4  5  1  0
  5  6  2  3
  6  7  1  0
  7  8  1  0
  8  9  1  0
  9 10  2  0
 10 11  1  0
 11 12  1  0
  5 13  1  0
 13  2  1  0
 12  8  2  0
  1 14  1  0
  3 15  1  0
  4 16  1  0
  7 17  1  0
  7 18  1  0
 11 19  1  0
M  END
$$$$

     RDKit          3D

 19 20  0  0  0  0  0  0  0  0999 V2000
    4.6991   -0.0639   -0.4121 N   0  0  0  0  0  0  0  0  0  0  0  0
    3.5372   -0.1229    0.0736 C   0  0  0  0  0  0  0  0  0  0  0  0
    3.0006   -0.4628    1.2459 N   0  0  0  0  0  0  0  0  0  0  0  0
    1.7770   -0.4376    1.4923 N   0  0  0  0  0  0  0  0  0  0  0  0
    0.8532   -0.0459    0.5479 C   0  0  0  0  0  0  0  0  0  0  0  0
   -0.3862    0.0607    0.5516 N   0  0  0  0  0  0  0  0  0  0  0  0
   -1.1522    0.5120   -0.6149 C   0  0  0  0  0  0  0  0  0  0  0  0
   -2.4882   -0.1681   -0.6317 C   0  0  0  0  0  0  0  0  0  0  0  0
   -3.4332    0.0239   -1.5683 N   0  0  0  0  0  0  0  0  0  0  0  0
   -4.4641   -0.7405   -1.2519 N   0  0  0  0  0  0  0  0  0  0  0  0
   -4.2010   -1.4172   -0.1346 N   0  0  0  0  0  0  0  0  0  0  0  0
   -2.9873   -1.0607    0.2396 N   0  0  0  0  0  0  0  0  0  0  0  0
    1.9932    0.3143   -0.8452 S   0  0  0  0  0  0  0  0  0  0  0  0
    4.8963    0.2348   -1.3699 H   0  0  0  0  0  0  0  0  0  0  0  0
    3.7312   -0.7772    2.0065 H   0  0  0  0  0  0  0  0  0  0  0  0
    1.3464   -0.7217    2.4673 H   0  0  0  0  0  0  0  0  0  0  0  0
   -1.2863    1.6115   -0.6007 H   0  0  0  0  0  0  0  0  0  0  0  0
   -0.5666    0.2211   -1.5040 H   0  0  0  0  0  0  0  0  0  0  0  0
   -4.8692   -2.0861    0.3087 H   0  0  0  0  0  0  0  0  0  0  0  0
  1  2  2  3
  2  3  1  0
  3  4  1  0
  4  5  1  0
  5  6  2  3
  6  7  1  0
  7  8  1  0
  8  9  1  0
  9 10  2  0
 10 11  1  0
 11 12  1  0
  5 13  1  0
 13  2  1  0
 12  8  2  0
  1 14  1  0
  3 15  1  0
  4 16  1  0
  7 17  1  0
  7 18  1  0
 11 19  1  0
M  END
$$$$

     RDKit          3D

 19 20  0  0  0  0  0  0  0  0999 V2000
    4.0456    2.0897   -0.3228 N   0  0  0  0  0  0  0  0  0  0  0  0
    2.9836    1.3767   -0.4148 C   0  0  0  0  0  0  0  0  0  0  0  0
    1.7286    1.7229   -0.8462 N   0  0  0  0  0  0  0  0  0  0  0  0
    0.8232    0.8305   -0.8474 N   0  0  0  0  0  0  0  0  0  0  0  0
    1.0122   -0.4015   -0.4620 C   0  0  0  0  0  0  0  0  0  0  0  0
    0.3099   -1.4346   -0.3703 N   0  0  0  0  0  0  0  0  0  0  0  0
   -1.0595   -1.6043   -0.6924 C   0  0  0  0  0  0  0  0  0  0  0  0
   -1.9194   -1.2878    0.4950 C   0  0  0  0  0  0  0  0  0  0  0  0
   -3.2557   -1.3309    0.5862 N   0  0  0  0  0  0  0  0  0  0  0  0
   -3.5975   -0.9792    1.7986 N   0  0  0  0  0  0  0  0  0  0  0  0
   -2.5271   -0.7049    2.5120 N   0  0  0  0  0  0  0  0  0  0  0  0
   -1.4836   -0.8940    1.7102 N   0  0  0  0  0  0  0  0  0  0  0  0
    2.7796   -0.3163   -0.0099 S   0  0  0  0  0  0  0  0  0  0  0  0
    3.9835    3.0758   -0.6073 H   0  0  0  0  0  0  0  0  0  0  0  0
    1.6096    2.7579   -1.1593 H   0  0  0  0  0  0  0  0  0  0  0  0
   -0.1875    1.0930   -1.1904 H   0  0  0  0  0  0  0  0  0  0  0  0
   -1.4266   -0.9481   -1.5077 H   0  0  0  0  0  0  0  0  0  0  0  0
   -1.3210   -2.6443   -0.9922 H   0  0  0  0  0  0  0  0  0  0  0  0
   -2.4981   -0.4005    3.5048 H   0  0  0  0  0  0  0  0  0  0  0  0
  1  2  2  3
  2  3  1  0
  3  4  1  0
  4  5  1  0
  5  6  2  3
  6  7  1  0
  7  8  1  0
  8  9  1  0
  9 10  2  0
 10 11  1  0
 11 12  1  0
  5 13  1  0
 13  2  1  0
 12  8  2  0
  1 14  1  0
  3 15  1  0
  4 16  1  0
  7 17  1  0
  7 18  1  0
 11 19  1  0
M  END
$$$$
