
     RDKit          3D

 26 27  0  0  0  0  0  0  0  0999 V2000
    4.4350    0.3850    0.7657 C   0  0  0  0  0  0  0  0  0  0  0  0
    3.1839    0.2503    0.0081 N   0  0  0  0  0  0  0  0  0  0  0  0
    1.9553    0.2873    0.5654 C   0  0  0  0  0  0  0  0  0  0  0  0
    0.9915    0.1312   -0.4203 C   0  0  0  0  0  0  0  0  0  0  0  0
   -0.4284    0.1103   -0.2659 N   0  0  0  0  0  0  0  0  0  0  0  0
   -1.1220    0.2565    1.0105 C   0  0  0  0  0  0  0  0  0  0  0  0
   -2.5740    0.3100    0.6428 C   0  0  2  0  0  0  0  0  0  0  0  0
   -3.3167   -0.2571    1.6716 O   0  0  0  0  0  0  0  0  0  0  0  0
   -2.5965   -0.5833   -0.6029 C   0  0  1  0  0  0  0  0  0  0  0  0
   -3.7455   -0.4305   -1.3336 O   0  0  0  0  0  0  0  0  0  0  0  0
   -1.3656   -0.0561   -1.3352 C   0  0  0  0  0  0  0  0  0  0  0  0
    1.7056   -0.0007   -1.5926 C   0  0  0  0  0  0  0  0  0  0  0  0
    3.0291    0.0787   -1.2762 N   0  0  0  0  0  0  0  0  0  0  0  0
    4.2256    0.8255    1.7633 H   0  0  0  0  0  0  0  0  0  0  0  0
    4.9664   -0.5642    0.8568 H   0  0  0  0  0  0  0  0  0  0  0  0
    5.0345    1.1706    0.2241 H   0  0  0  0  0  0  0  0  0  0  0  0
    1.7085    0.4169    1.6169 H   0  0  0  0  0  0  0  0  0  0  0  0
   -0.7770    1.1788    1.5237 H   0  0  0  0  0  0  0  0  0  0  0  0
   -0.9267   -0.6024    1.6869 H   0  0  0  0  0  0  0  0  0  0  0  0
   -2.9051    1.3199    0.3659 H   0  0  0  0  0  0  0  0  0  0  0  0
   -3.3470   -1.2381    1.5957 H   0  0  0  0  0  0  0  0  0  0  0  0
   -2.3829   -1.6106   -0.2750 H   0  0  0  0  0  0  0  0  0  0  0  0
   -4.4189    0.0489   -0.7628 H   0  0  0  0  0  0  0  0  0  0  0  0
   -1.0093   -0.8232   -2.0577 H   0  0  0  0  0  0  0  0  0  0  0  0
   -1.5781    0.9191   -1.8066 H   0  0  0  0  0  0  0  0  0  0  0  0
    1.2584   -0.1405   -2.5686 H   0  0  0  0  0  0  0  0  0  0  0  0
  1  2  1  0
  2  3  1  0
  3  4  2  0
  4  5  1  0
  5  6  1  0
  6  7  1  0
  7  8  1  0
  7  9  1  0
  9 10  1  0
  9 11  1  0
  4 12  1  0
 12 13  2  0
 13  2  1  0
 11  5  1  0
  1 14  1  0
  1 15  1  0
  1 16  1  0
  3 17  1  0
  6 18  1  0
  6 19  1  0
  7 20  1  6
  8 21  1  0
  9 22  1  1
 10 23  1  0
 11 24  1  0
 11 25  1  0
 12 26  1  0
M  END
$$$$

     RDKit          3D

 26 27  0  0  0  0  0  0  0  0999 V2000
    4.2839   -0.8393   -0.0807 C   0  0  0  0  0  0  0  0  0  0  0  0
    3.0508   -0.0905    0.0200 N   0  0  0  0  0  0  0  0  0  0  0  0
    1.8277   -0.6393   -0.1479 C   0  0  0  0  0  0  0  0  0  0  0  0
    0.9015    0.3668    0.0197 C   0  0  0  0  0  0  0  0  0  0  0  0
   -0.5110    0.2565   -0.0657 N   0  0  0  0  0  0  0  0  0  0  0  0
   -1.2426   -0.9644   -0.3510 C   0  0  0  0  0  0  0  0  0  0  0  0
   -2.7061   -0.6088   -0.1833 C   0  0  2  0  0  0  0  0  0  0  0  0
   -3.2219   -0.3340   -1.4358 O   0  0  0  0  0  0  0  0  0  0  0  0
   -2.6407    0.5853    0.7122 C   0  0  1  0  0  0  0  0  0  0  0  0
   -2.2153    0.1501    1.9736 O   0  0  0  0  0  0  0  0  0  0  0  0
   -1.4485    1.3480    0.1193 C   0  0  0  0  0  0  0  0  0  0  0  0
    1.6208    1.5070    0.2878 C   0  0  0  0  0  0  0  0  0  0  0  0
    2.9450    1.2012    0.2830 N   0  0  0  0  0  0  0  0  0  0  0  0
    4.1207   -1.8026   -0.6091 H   0  0  0  0  0  0  0  0  0  0  0  0
    5.0181   -0.2443   -0.6722 H   0  0  0  0  0  0  0  0  0  0  0  0
    4.7144   -1.0077    0.9459 H   0  0  0  0  0  0  0  0  0  0  0  0
    1.5759   -1.6672   -0.3720 H   0  0  0  0  0  0  0  0  0  0  0  0
   -1.0528   -1.3170   -1.3922 H   0  0  0  0  0  0  0  0  0  0  0  0
   -0.9987   -1.7775    0.3641 H   0  0  0  0  0  0  0  0  0  0  0  0
   -3.2867   -1.4455    0.2551 H   0  0  0  0  0  0  0  0  0  0  0  0
   -3.8655    0.4122   -1.4551 H   0  0  0  0  0  0  0  0  0  0  0  0
   -3.5442    1.1884    0.7475 H   0  0  0  0  0  0  0  0  0  0  0  0
   -1.6753   -0.6591    1.9303 H   0  0  0  0  0  0  0  0  0  0  0  0
   -1.1337    2.0733    0.8734 H   0  0  0  0  0  0  0  0  0  0  0  0
   -1.7251    1.8046   -0.8543 H   0  0  0  0  0  0  0  0  0  0  0  0
    1.2091    2.5039    0.4761 H   0  0  0  0  0  0  0  0  0  0  0  0
  1  2  1  0
  2  3  1  0
  3  4  2  0
  4  5  1  0
  5  6  1  0
  6  7  1  0
  7  8  1  0
  7  9  1  0
  9 10  1  0
  9 11  1  0
  4 12  1  0
 12 13  2  0
 13  2  1  0
 11  5  1  0
  1 14  1  0
  1 15  1  0
  1 16  1  0
  3 17  1  0
  6 18  1  0
  6 19  1  0
  7 20  1  1
  8 21  1  0
  9 22  1  1
 10 23  1  0
 11 24  1  0
 11 25  1  0
 12 26  1  0
M  END
$$$$

     RDKit          3D

 26 27  0  0  0  0  0  0  0  0999 V2000
    4.3756   -0.4861   -0.3887 C   0  0  0  0  0  0  0  0  0  0  0  0
    2.9860   -0.7912   -0.0928 N   0  0  0  0  0  0  0  0  0  0  0  0
    1.9174   -0.0851   -0.4893 C   0  0  0  0  0  0  0  0  0  0  0  0
    0.7382   -0.6731   -0.0199 C   0  0  0  0  0  0  0  0  0  0  0  0
   -0.5834   -0.2506   -0.2112 N   0  0  0  0  0  0  0  0  0  0  0  0
   -1.7713   -0.8741    0.2823 C   0  0  0  0  0  0  0  0  0  0  0  0
   -2.4971    0.3323    0.8583 C   0  0  2  0  0  0  0  0  0  0  0  0
   -3.8339    0.0584    1.1069 O   0  0  0  0  0  0  0  0  0  0  0  0
   -2.3404    1.3026   -0.2979 C   0  0  1  0  0  0  0  0  0  0  0  0
   -2.3196    2.6240    0.1196 O   0  0  0  0  0  0  0  0  0  0  0  0
   -1.0190    0.8990   -0.9444 C   0  0  0  0  0  0  0  0  0  0  0  0
    1.2096   -1.7868    0.6872 C   0  0  0  0  0  0  0  0  0  0  0  0
    2.5484   -1.8177    0.6176 N   0  0  0  0  0  0  0  0  0  0  0  0
    5.0006   -0.5528    0.5156 H   0  0  0  0  0  0  0  0  0  0  0  0
    4.4311    0.5383   -0.8416 H   0  0  0  0  0  0  0  0  0  0  0  0
    4.8157   -1.1843   -1.1299 H   0  0  0  0  0  0  0  0  0  0  0  0
    1.9651    0.8000   -1.0797 H   0  0  0  0  0  0  0  0  0  0  0  0
   -1.6048   -1.6619    1.0267 H   0  0  0  0  0  0  0  0  0  0  0  0
   -2.3724   -1.2061   -0.5879 H   0  0  0  0  0  0  0  0  0  0  0  0
   -1.9433    0.6397    1.7561 H   0  0  0  0  0  0  0  0  0  0  0  0
   -4.0877    0.2575    2.0464 H   0  0  0  0  0  0  0  0  0  0  0  0
   -3.1979    1.1069   -0.9890 H   0  0  0  0  0  0  0  0  0  0  0  0
   -1.4938    3.0303   -0.2037 H   0  0  0  0  0  0  0  0  0  0  0  0
   -0.2895    1.7248   -0.9561 H   0  0  0  0  0  0  0  0  0  0  0  0
   -1.2515    0.5601   -1.9875 H   0  0  0  0  0  0  0  0  0  0  0  0
    0.6177   -2.5040    1.2028 H   0  0  0  0  0  0  0  0  0  0  0  0
  1  2  1  0
  2  3  1  0
  3  4  2  0
  4  5  1  0
  5  6  1  0
  6  7  1  0
  7  8  1  0
  7  9  1  0
  9 10  1  0
  9 11  1  0
  4 12  1  0
 12 13  2  0
 13  2  1  0
 11  5  1  0
  1 14  1  0
  1 15  1  0
  1 16  1  0
  3 17  1  0
  6 18  1  0
  6 19  1  0
  7 20  1  1
  8 21  1  0
  9 22  1  6
 10 23  1  0
 11 24  1  0
 11 25  1  0
 12 26  1  0
M  END
$$$$

     RDKit          3D

 26 27  0  0  0  0  0  0  0  0999 V2000
    4.4506    0.3679   -0.6118 C   0  0  0  0  0  0  0  0  0  0  0  0
    3.0704    0.5919   -0.1705 N   0  0  0  0  0  0  0  0  0  0  0  0
    2.0098   -0.2124   -0.2777 C   0  0  0  0  0  0  0  0  0  0  0  0
    0.9034    0.4194    0.2830 C   0  0  0  0  0  0  0  0  0  0  0  0
   -0.3987   -0.0780    0.3754 N   0  0  0  0  0  0  0  0  0  0  0  0
   -0.9157   -1.3514   -0.0796 C   0  0  0  0  0  0  0  0  0  0  0  0
   -2.4187   -1.2019   -0.1650 C   0  0  2  0  0  0  0  0  0  0  0  0
   -2.9533   -1.7351   -1.3113 O   0  0  0  0  0  0  0  0  0  0  0  0
   -2.6043    0.2993   -0.0715 C   0  0  1  0  0  0  0  0  0  0  0  0
   -3.8700    0.6354    0.3917 O   0  0  0  0  0  0  0  0  0  0  0  0
   -1.5251    0.6204    0.9714 C   0  0  0  0  0  0  0  0  0  0  0  0
    1.3774    1.6333    0.7216 C   0  0  0  0  0  0  0  0  0  0  0  0
    2.6978    1.7128    0.4336 N   0  0  0  0  0  0  0  0  0  0  0  0
    4.7530    1.2227   -1.2289 H   0  0  0  0  0  0  0  0  0  0  0  0
    4.4502   -0.5704   -1.2287 H   0  0  0  0  0  0  0  0  0  0  0  0
    5.0705    0.2516    0.3036 H   0  0  0  0  0  0  0  0  0  0  0  0
    2.0248   -1.1999   -0.7329 H   0  0  0  0  0  0  0  0  0  0  0  0
   -0.6392   -2.1059    0.6883 H   0  0  0  0  0  0  0  0  0  0  0  0
   -0.4920   -1.6357   -1.0701 H   0  0  0  0  0  0  0  0  0  0  0  0
   -2.9047   -1.6315    0.7517 H   0  0  0  0  0  0  0  0  0  0  0  0
   -3.4751   -2.5439   -1.0636 H   0  0  0  0  0  0  0  0  0  0  0  0
   -2.3261    0.8294   -0.9931 H   0  0  0  0  0  0  0  0  0  0  0  0
   -3.9059    1.5388    0.7423 H   0  0  0  0  0  0  0  0  0  0  0  0
   -1.3684    1.6881    1.0946 H   0  0  0  0  0  0  0  0  0  0  0  0
   -1.7725    0.0762    1.9073 H   0  0  0  0  0  0  0  0  0  0  0  0
    0.7618    2.3789    1.2137 H   0  0  0  0  0  0  0  0  0  0  0  0
  1  2  1  0
  2  3  1  0
  3  4  2  0
  4  5  1  0
  5  6  1  0
  6  7  1  0
  7  8  1  0
  7  9  1  0
  9 10  1  0
  9 11  1  0
  4 12  1  0
 12 13  2  0
 13  2  1  0
 11  5  1  0
  1 14  1  0
  1 15  1  0
  1 16  1  0
  3 17  1  0
  6 18  1  0
  6 19  1  0
  7 20  1  1
  8 21  1  0
  9 22  1  6
 10 23  1  0
 11 24  1  0
 11 25  1  0
 12 26  1  0
M  END
$$$$

     RDKit          3D

 26 27  0  0  0  0  0  0  0  0999 V2000
    4.3473    0.1816   -0.5857 C   0  0  0  0  0  0  0  0  0  0  0  0
    3.0169   -0.2062   -0.1756 N   0  0  0  0  0  0  0  0  0  0  0  0
    1.8475    0.2442   -0.6806 C   0  0  0  0  0  0  0  0  0  0  0  0
    0.8154   -0.3827   -0.0057 C   0  0  0  0  0  0  0  0  0  0  0  0
   -0.5670   -0.2003   -0.2197 N   0  0  0  0  0  0  0  0  0  0  0  0
   -1.6427   -0.8576    0.4878 C   0  0  0  0  0  0  0  0  0  0  0  0
   -2.8962   -0.0871    0.1661 C   0  0  2  0  0  0  0  0  0  0  0  0
   -3.6035   -0.7792   -0.8142 O   0  0  0  0  0  0  0  0  0  0  0  0
   -2.3572    1.2229   -0.4272 C   0  0  1  0  0  0  0  0  0  0  0  0
   -1.8815    1.9930    0.6196 O   0  0  0  0  0  0  0  0  0  0  0  0
   -1.1598    0.6949   -1.2050 C   0  0  0  0  0  0  0  0  0  0  0  0
    1.3977   -1.2134    0.9091 C   0  0  0  0  0  0  0  0  0  0  0  0
    2.7342   -1.0792    0.7763 N   0  0  0  0  0  0  0  0  0  0  0  0
    4.6892    1.0900   -0.0495 H   0  0  0  0  0  0  0  0  0  0  0  0
    5.0597   -0.6572   -0.4356 H   0  0  0  0  0  0  0  0  0  0  0  0
    4.3145    0.4559   -1.6672 H   0  0  0  0  0  0  0  0  0  0  0  0
    1.7072    0.9739   -1.4801 H   0  0  0  0  0  0  0  0  0  0  0  0
   -1.7132   -1.8923    0.1340 H   0  0  0  0  0  0  0  0  0  0  0  0
   -1.4258   -0.8352    1.5715 H   0  0  0  0  0  0  0  0  0  0  0  0
   -3.5046    0.1005    1.0668 H   0  0  0  0  0  0  0  0  0  0  0  0
   -3.1936   -1.6409   -0.9954 H   0  0  0  0  0  0  0  0  0  0  0  0
   -3.0927    1.7227   -1.0590 H   0  0  0  0  0  0  0  0  0  0  0  0
   -1.7742    1.4448    1.4353 H   0  0  0  0  0  0  0  0  0  0  0  0
   -0.4973    1.5075   -1.5073 H   0  0  0  0  0  0  0  0  0  0  0  0
   -1.5210    0.0635   -2.0257 H   0  0  0  0  0  0  0  0  0  0  0  0
    0.9008   -1.8640    1.6154 H   0  0  0  0  0  0  0  0  0  0  0  0
  1  2  1  0
  2  3  1  0
  3  4  2  0
  4  5  1  0
  5  6  1  0
  6  7  1  0
  7  8  1  0
  7  9  1  0
  9 10  1  0
  9 11  1  0
  4 12  1  0
 12 13  2  0
 13  2  1  0
 11  5  1  0
  1 14  1  0
  1 15  1  0
  1 16  1  0
  3 17  1  0
  6 18  1  0
  6 19  1  0
  7 20  1  1
  8 21  1  0
  9 22  1  6
 10 23  1  0
 11 24  1  0
 11 25  1  0
 12 26  1  0
M  END
$$$$

     RDKit          3D

 26 27  0  0  0  0  0  0  0  0999 V2000
    4.3387    0.6088   -0.3810 C   0  0  0  0  0  0  0  0  0  0  0  0
    3.0030    0.0591   -0.5961 N   0  0  0  0  0  0  0  0  0  0  0  0
    1.9085    0.2624    0.1757 C   0  0  0  0  0  0  0  0  0  0  0  0
    0.8280   -0.4171   -0.3388 C   0  0  0  0  0  0  0  0  0  0  0  0
   -0.5040   -0.4840    0.1447 N   0  0  0  0  0  0  0  0  0  0  0  0
   -1.6637   -1.1803   -0.3593 C   0  0  0  0  0  0  0  0  0  0  0  0
   -2.7978   -0.2113   -0.0887 C   0  0  2  0  0  0  0  0  0  0  0  0
   -3.2675    0.3641   -1.2622 O   0  0  0  0  0  0  0  0  0  0  0  0
   -2.2109    0.8868    0.7806 C   0  0  1  0  0  0  0  0  0  0  0  0
   -3.0805    1.2919    1.7789 O   0  0  0  0  0  0  0  0  0  0  0  0
   -0.9762    0.1949    1.3347 C   0  0  0  0  0  0  0  0  0  0  0  0
    1.3181   -1.0518   -1.4726 C   0  0  0  0  0  0  0  0  0  0  0  0
    2.6278   -0.7343   -1.5830 N   0  0  0  0  0  0  0  0  0  0  0  0
    4.9505   -0.1592    0.1342 H   0  0  0  0  0  0  0  0  0  0  0  0
    4.3055    1.5301    0.2296 H   0  0  0  0  0  0  0  0  0  0  0  0
    4.7777    0.9087   -1.3621 H   0  0  0  0  0  0  0  0  0  0  0  0
    1.8709    0.8647    1.0653 H   0  0  0  0  0  0  0  0  0  0  0  0
   -1.8294   -2.0621    0.3010 H   0  0  0  0  0  0  0  0  0  0  0  0
   -1.5793   -1.4521   -1.4260 H   0  0  0  0  0  0  0  0  0  0  0  0
   -3.6388   -0.7199    0.4658 H   0  0  0  0  0  0  0  0  0  0  0  0
   -3.2175   -0.3374   -1.9770 H   0  0  0  0  0  0  0  0  0  0  0  0
   -1.8482    1.7225    0.1588 H   0  0  0  0  0  0  0  0  0  0  0  0
   -2.5738    1.4482    2.6165 H   0  0  0  0  0  0  0  0  0  0  0  0
   -0.2455    0.9135    1.7402 H   0  0  0  0  0  0  0  0  0  0  0  0
   -1.2881   -0.5566    2.0889 H   0  0  0  0  0  0  0  0  0  0  0  0
    0.7926   -1.6894   -2.1681 H   0  0  0  0  0  0  0  0  0  0  0  0
  1  2  1  0
  2  3  1  0
  3  4  2  0
  4  5  1  0
  5  6  1  0
  6  7  1  0
  7  8  1  0
  7  9  1  0
  9 10  1  0
  9 11  1  0
  4 12  1  0
 12 13  2  0
 13  2  1  0
 11  5  1  0
  1 14  1  0
  1 15  1  0
  1 16  1  0
  3 17  1  0
  6 18  1  0
  6 19  1  0
  7 20  1  1
  8 21  1  0
  9 22  1  6
 10 23  1  0
 11 24  1  0
 11 25  1  0
 12 26  1  0
M  END
$$$$

     RDKit          3D

 26 27  0  0  0  0  0  0  0  0999 V2000
    4.4687    0.2647   -0.1406 C   0  0  0  0  0  0  0  0  0  0  0  0
    3.0810    0.6478   -0.3365 N   0  0  0  0  0  0  0  0  0  0  0  0
    2.0173   -0.0727    0.1081 C   0  0  0  0  0  0  0  0  0  0  0  0
    0.8457    0.5600   -0.2387 C   0  0  0  0  0  0  0  0  0  0  0  0
   -0.4992    0.1717    0.0169 N   0  0  0  0  0  0  0  0  0  0  0  0
   -0.8432   -1.0406    0.7350 C   0  0  0  0  0  0  0  0  0  0  0  0
   -2.3247   -1.1950    0.6503 C   0  0  2  0  0  0  0  0  0  0  0  0
   -2.5808   -2.4826    0.1248 O   0  0  0  0  0  0  0  0  0  0  0  0
   -2.7875   -0.1336   -0.3015 C   0  0  1  0  0  0  0  0  0  0  0  0
   -3.9910    0.4574    0.1384 O   0  0  0  0  0  0  0  0  0  0  0  0
   -1.6749    0.8842   -0.3768 C   0  0  0  0  0  0  0  0  0  0  0  0
    1.2483    1.7038   -0.9178 C   0  0  0  0  0  0  0  0  0  0  0  0
    2.5934    1.6982   -0.9423 N   0  0  0  0  0  0  0  0  0  0  0  0
    4.5746   -0.8328   -0.2758 H   0  0  0  0  0  0  0  0  0  0  0  0
    4.7797    0.4810    0.8958 H   0  0  0  0  0  0  0  0  0  0  0  0
    5.1268    0.7693   -0.8761 H   0  0  0  0  0  0  0  0  0  0  0  0
    2.0627   -1.0060    0.6545 H   0  0  0  0  0  0  0  0  0  0  0  0
   -0.4661   -0.9536    1.7770 H   0  0  0  0  0  0  0  0  0  0  0  0
   -0.2908   -1.8934    0.2805 H   0  0  0  0  0  0  0  0  0  0  0  0
   -2.7535   -1.0966    1.6682 H   0  0  0  0  0  0  0  0  0  0  0  0
   -2.6683   -3.1351    0.8656 H   0  0  0  0  0  0  0  0  0  0  0  0
   -2.9475   -0.6271   -1.3015 H   0  0  0  0  0  0  0  0  0  0  0  0
   -3.9912    1.3914   -0.2005 H   0  0  0  0  0  0  0  0  0  0  0  0
   -1.9183    1.7435    0.2467 H   0  0  0  0  0  0  0  0  0  0  0  0
   -1.6385    1.2354   -1.4329 H   0  0  0  0  0  0  0  0  0  0  0  0
    0.5772    2.4609   -1.3479 H   0  0  0  0  0  0  0  0  0  0  0  0
  1  2  1  0
  2  3  1  0
  3  4  2  0
  4  5  1  0
  5  6  1  0
  6  7  1  0
  7  8  1  0
  7  9  1  0
  9 10  1  0
  9 11  1  0
  4 12  1  0
 12 13  2  0
 13  2  1  0
 11  5  1  0
  1 14  1  0
  1 15  1  0
  1 16  1  0
  3 17  1  0
  6 18  1  0
  6 19  1  0
  7 20  1  1
  8 21  1  0
  9 22  1  6
 10 23  1  0
 11 24  1  0
 11 25  1  0
 12 26  1  0
M  END
$$$$

     RDKit          3D

 26 27  0  0  0  0  0  0  0  0999 V2000
    4.3671    0.7511   -0.3732 C   0  0  0  0  0  0  0  0  0  0  0  0
    3.1081    0.1499   -0.0230 N   0  0  0  0  0  0  0  0  0  0  0  0
    1.8958    0.4938   -0.4843 C   0  0  0  0  0  0  0  0  0  0  0  0
    0.9584   -0.3424    0.1127 C   0  0  0  0  0  0  0  0  0  0  0  0
   -0.4454   -0.3214   -0.0951 N   0  0  0  0  0  0  0  0  0  0  0  0
   -1.1479    0.5885   -0.9776 C   0  0  0  0  0  0  0  0  0  0  0  0
   -2.5678    0.5815   -0.4905 C   0  0  2  0  0  0  0  0  0  0  0  0
   -2.8418    1.8502    0.0339 O   0  0  0  0  0  0  0  0  0  0  0  0
   -2.6948   -0.4905    0.5459 C   0  0  1  0  0  0  0  0  0  0  0  0
   -3.7037   -1.3854    0.1793 O   0  0  0  0  0  0  0  0  0  0  0  0
   -1.3814   -1.2153    0.5521 C   0  0  0  0  0  0  0  0  0  0  0  0
    1.6791   -1.1786    0.9337 C   0  0  0  0  0  0  0  0  0  0  0  0
    2.9672   -0.8510    0.8242 N   0  0  0  0  0  0  0  0  0  0  0  0
    4.6504    1.5528    0.3370 H   0  0  0  0  0  0  0  0  0  0  0  0
    5.1393   -0.0348   -0.3466 H   0  0  0  0  0  0  0  0  0  0  0  0
    4.3639    1.1783   -1.3941 H   0  0  0  0  0  0  0  0  0  0  0  0
    1.7059    1.2895   -1.1986 H   0  0  0  0  0  0  0  0  0  0  0  0
   -1.0847    0.1873   -1.9924 H   0  0  0  0  0  0  0  0  0  0  0  0
   -0.6613    1.5863   -0.8618 H   0  0  0  0  0  0  0  0  0  0  0  0
   -3.2642    0.4234   -1.3448 H   0  0  0  0  0  0  0  0  0  0  0  0
   -3.3027    2.4049   -0.6225 H   0  0  0  0  0  0  0  0  0  0  0  0
   -2.9548   -0.0969    1.5547 H   0  0  0  0  0  0  0  0  0  0  0  0
   -3.5969   -1.5584   -0.7978 H   0  0  0  0  0  0  0  0  0  0  0  0
   -1.4138   -2.1776   -0.0276 H   0  0  0  0  0  0  0  0  0  0  0  0
   -1.0339   -1.4197    1.5911 H   0  0  0  0  0  0  0  0  0  0  0  0
    1.2600   -1.9657    1.5583 H   0  0  0  0  0  0  0  0  0  0  0  0
  1  2  1  0
  2  3  1  0
  3  4  2  0
  4  5  1  0
  5  6  1  0
  6  7  1  0
  7  8  1  0
  7  9  1  0
  9 10  1  0
  9 11  1  0
  4 12  1  0
 12 13  2  0
 13  2  1  0
 11  5  1  0
  1 14  1  0
  1 15  1  0
  1 16  1  0
  3 17  1  0
  6 18  1  0
  6 19  1  0
  7 20  1  6
  8 21  1  0
  9 22  1  1
 10 23  1  0
 11 24  1  0
 11 25  1  0
 12 26  1  0
M  END
$$$$
