
     RDKit          3D

 26 27  0  0  0  0  0  0  0  0999 V2000
   -1.1745    0.8423   -1.2653 C   0  0  0  0  0  0  0  0  0  0  0  0
   -1.0745    0.4429    0.2051 C   0  0  2  0  0  0  0  0  0  0  0  0
    0.1114    0.9393    0.7929 O   0  0  0  0  0  0  0  0  0  0  0  0
    1.3721    0.6078    0.3436 C   0  0  0  0  0  0  0  0  0  0  0  0
    2.4339    1.1344    0.9725 N   0  0  0  0  0  0  0  0  0  0  0  0
    3.6524    0.8501    0.5834 N   0  0  0  0  0  0  0  0  0  0  0  0
    3.8624    0.0299   -0.4478 C   0  0  0  0  0  0  0  0  0  0  0  0
    5.0602   -0.2610   -0.8445 N   0  0  0  0  0  0  0  0  0  0  0  0
    2.8137   -0.5074   -1.0905 N   0  0  0  0  0  0  0  0  0  0  0  0
    1.6045   -0.2098   -0.6850 N   0  0  0  0  0  0  0  0  0  0  0  0
   -1.1536   -1.0574    0.3090 C   0  0  0  0  0  0  0  0  0  0  0  0
   -2.3698   -1.3517    1.1315 C   0  0  0  0  0  0  0  0  0  0  0  0
   -3.1563   -0.1579    1.1617 N   0  0  0  0  0  0  0  0  0  0  0  0
   -2.2443    0.9608    0.9868 C   0  0  0  0  0  0  0  0  0  0  0  0
   -0.5727    0.1084   -1.8380 H   0  0  0  0  0  0  0  0  0  0  0  0
   -0.7379    1.8360   -1.4270 H   0  0  0  0  0  0  0  0  0  0  0  0
   -2.2499    0.8268   -1.5486 H   0  0  0  0  0  0  0  0  0  0  0  0
    5.8719    0.1422   -0.3630 H   0  0  0  0  0  0  0  0  0  0  0  0
    3.0142   -1.1443   -1.8922 H   0  0  0  0  0  0  0  0  0  0  0  0
   -1.2265   -1.5475   -0.6845 H   0  0  0  0  0  0  0  0  0  0  0  0
   -0.2507   -1.4870    0.7936 H   0  0  0  0  0  0  0  0  0  0  0  0
   -2.0480   -1.6680    2.1535 H   0  0  0  0  0  0  0  0  0  0  0  0
   -2.9424   -2.1863    0.6329 H   0  0  0  0  0  0  0  0  0  0  0  0
   -3.8584   -0.1883    0.3968 H   0  0  0  0  0  0  0  0  0  0  0  0
   -2.7787    1.7586    0.4328 H   0  0  0  0  0  0  0  0  0  0  0  0
   -1.9585    1.2871    2.0246 H   0  0  0  0  0  0  0  0  0  0  0  0
  1  2  1  0
  2  3  1  1
  3  4  1  0
  4  5  1  0
  5  6  2  0
  6  7  1  0
  7  8  2  3
  7  9  1  0
  9 10  1  0
  2 11  1  0
 11 12  1  0
 12 13  1  0
 13 14  1  0
 14  2  1  0
 10  4  2  0
  1 15  1  0
  1 16  1  0
  1 17  1  0
  8 18  1  0
  9 19  1  0
 11 20  1  0
 11 21  1  0
 12 22  1  0
 12 23  1  0
 13 24  1  0
 14 25  1  0
 14 26  1  0
M  END
$$$$

     RDKit          3D

 26 27  0  0  0  0  0  0  0  0999 V2000
   -1.0553   -0.9889   -1.6651 C   0  0  0  0  0  0  0  0  0  0  0  0
   -1.2006   -0.0544   -0.5010 C   0  0  2  0  0  0  0  0  0  0  0  0
   -0.1698    0.8773   -0.3864 O   0  0  0  0  0  0  0  0  0  0  0  0
    1.1576    0.6117   -0.2190 C   0  0  0  0  0  0  0  0  0  0  0  0
    1.9184    0.4730   -1.3401 N   0  0  0  0  0  0  0  0  0  0  0  0
    3.2024    0.2170   -1.2571 N   0  0  0  0  0  0  0  0  0  0  0  0
    3.7580    0.0931   -0.0413 C   0  0  0  0  0  0  0  0  0  0  0  0
    5.0252   -0.1591    0.0036 N   0  0  0  0  0  0  0  0  0  0  0  0
    3.0194    0.2275    1.0788 N   0  0  0  0  0  0  0  0  0  0  0  0
    1.7243    0.4856    1.0019 N   0  0  0  0  0  0  0  0  0  0  0  0
   -1.3363   -0.7724    0.8197 C   0  0  0  0  0  0  0  0  0  0  0  0
   -2.2645    0.1202    1.6237 C   0  0  0  0  0  0  0  0  0  0  0  0
   -2.4567    1.3226    0.7969 N   0  0  0  0  0  0  0  0  0  0  0  0
   -2.5254    0.6947   -0.5326 C   0  0  0  0  0  0  0  0  0  0  0  0
   -1.5890   -1.9281   -1.4842 H   0  0  0  0  0  0  0  0  0  0  0  0
   -1.5170   -0.4813   -2.5562 H   0  0  0  0  0  0  0  0  0  0  0  0
    0.0159   -1.2137   -1.8453 H   0  0  0  0  0  0  0  0  0  0  0  0
    5.5490   -0.2729    0.8760 H   0  0  0  0  0  0  0  0  0  0  0  0
    3.4949    0.1229    1.9876 H   0  0  0  0  0  0  0  0  0  0  0  0
   -1.7953   -1.7765    0.6358 H   0  0  0  0  0  0  0  0  0  0  0  0
   -0.3470   -0.8982    1.3349 H   0  0  0  0  0  0  0  0  0  0  0  0
   -1.8359    0.3582    2.6023 H   0  0  0  0  0  0  0  0  0  0  0  0
   -3.2977   -0.3289    1.6965 H   0  0  0  0  0  0  0  0  0  0  0  0
   -1.5433    1.8524    0.8406 H   0  0  0  0  0  0  0  0  0  0  0  0
   -3.3615   -0.0237   -0.5235 H   0  0  0  0  0  0  0  0  0  0  0  0
   -2.5699    1.4420   -1.3323 H   0  0  0  0  0  0  0  0  0  0  0  0
  1  2  1  0
  2  3  1  1
  3  4  1  0
  4  5  1  0
  5  6  2  0
  6  7  1  0
  7  8  2  3
  7  9  1  0
  9 10  1  0
  2 11  1  0
 11 12  1  0
 12 13  1  0
 13 14  1  0
 14  2  1  0
 10  4  2  0
  1 15  1  0
  1 16  1  0
  1 17  1  0
  8 18  1  0
  9 19  1  0
 11 20  1  0
 11 21  1  0
 12 22  1  0
 12 23  1  0
 13 24  1  0
 14 25  1  0
 14 26  1  0
M  END
$$$$

     RDKit          3D

 26 27  0  0  0  0  0  0  0  0999 V2000
   -0.9550    1.2545    1.0771 C   0  0  0  0  0  0  0  0  0  0  0  0
   -1.0338    0.3241   -0.1084 C   0  0  2  0  0  0  0  0  0  0  0  0
   -0.0515    0.5770   -1.0595 O   0  0  0  0  0  0  0  0  0  0  0  0
    1.2825    0.4895   -0.7336 C   0  0  0  0  0  0  0  0  0  0  0  0
    1.9635    1.5571   -0.2710 N   0  0  0  0  0  0  0  0  0  0  0  0
    3.2450    1.4594    0.0384 N   0  0  0  0  0  0  0  0  0  0  0  0
    3.9093    0.2917   -0.0987 C   0  0  0  0  0  0  0  0  0  0  0  0
    5.1587    0.2357    0.2135 N   0  0  0  0  0  0  0  0  0  0  0  0
    3.2312   -0.7705   -0.5591 N   0  0  0  0  0  0  0  0  0  0  0  0
    1.9555   -0.6572   -0.8628 N   0  0  0  0  0  0  0  0  0  0  0  0
   -2.4224    0.3530   -0.7409 C   0  0  0  0  0  0  0  0  0  0  0  0
   -3.2197   -0.3717    0.3015 C   0  0  0  0  0  0  0  0  0  0  0  0
   -2.3781   -1.4771    0.6665 N   0  0  0  0  0  0  0  0  0  0  0  0
   -1.0195   -1.1280    0.3774 C   0  0  0  0  0  0  0  0  0  0  0  0
    0.0961    1.2409    1.4264 H   0  0  0  0  0  0  0  0  0  0  0  0
   -1.2959    2.2624    0.7825 H   0  0  0  0  0  0  0  0  0  0  0  0
   -1.5711    0.8409    1.9057 H   0  0  0  0  0  0  0  0  0  0  0  0
    5.6781   -0.6600    0.1109 H   0  0  0  0  0  0  0  0  0  0  0  0
    3.7568   -1.6724   -0.6617 H   0  0  0  0  0  0  0  0  0  0  0  0
   -2.7631    1.3621   -0.9569 H   0  0  0  0  0  0  0  0  0  0  0  0
   -2.3602   -0.3072   -1.6299 H   0  0  0  0  0  0  0  0  0  0  0  0
   -3.4938    0.2648    1.1673 H   0  0  0  0  0  0  0  0  0  0  0  0
   -4.1607   -0.7308   -0.1744 H   0  0  0  0  0  0  0  0  0  0  0  0
   -2.5061   -1.7392    1.6724 H   0  0  0  0  0  0  0  0  0  0  0  0
   -0.3241   -1.2734    1.2105 H   0  0  0  0  0  0  0  0  0  0  0  0
   -0.7216   -1.7255   -0.5338 H   0  0  0  0  0  0  0  0  0  0  0  0
  1  2  1  0
  2  3  1  6
  3  4  1  0
  4  5  1  0
  5  6  2  0
  6  7  1  0
  7  8  2  3
  7  9  1  0
  9 10  1  0
  2 11  1  0
 11 12  1  0
 12 13  1  0
 13 14  1  0
 14  2  1  0
 10  4  2  0
  1 15  1  0
  1 16  1  0
  1 17  1  0
  8 18  1  0
  9 19  1  0
 11 20  1  0
 11 21  1  0
 12 22  1  0
 12 23  1  0
 13 24  1  0
 14 25  1  0
 14 26  1  0
M  END
$$$$

     RDKit          3D

 26 27  0  0  0  0  0  0  0  0999 V2000
   -0.8125   -1.5343   -0.6815 C   0  0  0  0  0  0  0  0  0  0  0  0
   -1.0741   -0.3163    0.1369 C   0  0  2  0  0  0  0  0  0  0  0  0
   -0.1567   -0.2245    1.1897 O   0  0  0  0  0  0  0  0  0  0  0  0
    1.2086   -0.1403    0.9544 C   0  0  0  0  0  0  0  0  0  0  0  0
    1.8257    1.0586    0.8010 N   0  0  0  0  0  0  0  0  0  0  0  0
    3.1253    1.1659    0.5759 N   0  0  0  0  0  0  0  0  0  0  0  0
    3.8830    0.0584    0.4919 C   0  0  0  0  0  0  0  0  0  0  0  0
    5.1526    0.1197    0.2737 N   0  0  0  0  0  0  0  0  0  0  0  0
    3.2991   -1.1512    0.6401 N   0  0  0  0  0  0  0  0  0  0  0  0
    1.9980   -1.2292    0.8643 N   0  0  0  0  0  0  0  0  0  0  0  0
   -2.4828   -0.3806    0.7236 C   0  0  0  0  0  0  0  0  0  0  0  0
   -3.1212    0.9553    0.4042 C   0  0  0  0  0  0  0  0  0  0  0  0
   -1.9584    1.8003    0.2071 N   0  0  0  0  0  0  0  0  0  0  0  0
   -1.1564    0.9468   -0.6842 C   0  0  0  0  0  0  0  0  0  0  0  0
   -1.6327   -1.8002   -1.3665 H   0  0  0  0  0  0  0  0  0  0  0  0
    0.1442   -1.3813   -1.2458 H   0  0  0  0  0  0  0  0  0  0  0  0
   -0.6156   -2.3772    0.0121 H   0  0  0  0  0  0  0  0  0  0  0  0
    5.5819    1.0613    0.1627 H   0  0  0  0  0  0  0  0  0  0  0  0
    3.9209   -1.9918    0.5684 H   0  0  0  0  0  0  0  0  0  0  0  0
   -2.4891   -0.5794    1.7943 H   0  0  0  0  0  0  0  0  0  0  0  0
   -3.0649   -1.1434    0.1423 H   0  0  0  0  0  0  0  0  0  0  0  0
   -3.6545    0.9165   -0.5660 H   0  0  0  0  0  0  0  0  0  0  0  0
   -3.7718    1.3125    1.2240 H   0  0  0  0  0  0  0  0  0  0  0  0
   -2.1727    2.7075   -0.2319 H   0  0  0  0  0  0  0  0  0  0  0  0
   -1.7873    0.7579   -1.5616 H   0  0  0  0  0  0  0  0  0  0  0  0
   -0.1886    1.3890   -0.9112 H   0  0  0  0  0  0  0  0  0  0  0  0
  1  2  1  0
  2  3  1  1
  3  4  1  0
  4  5  1  0
  5  6  2  0
  6  7  1  0
  7  8  2  3
  7  9  1  0
  9 10  1  0
  2 11  1  0
 11 12  1  0
 12 13  1  0
 13 14  1  0
 14  2  1  0
 10  4  2  0
  1 15  1  0
  1 16  1  0
  1 17  1  0
  8 18  1  0
  9 19  1  0
 11 20  1  0
 11 21  1  0
 12 22  1  0
 12 23  1  0
 13 24  1  0
 14 25  1  0
 14 26  1  0
M  END
$$$$

     RDKit          3D

 26 27  0  0  0  0  0  0  0  0999 V2000
   -0.6409    1.7056    0.5925 C   0  0  0  0  0  0  0  0  0  0  0  0
   -1.0164    0.2597    0.6513 C   0  0  2  0  0  0  0  0  0  0  0  0
   -0.0692   -0.5370    1.3411 O   0  0  0  0  0  0  0  0  0  0  0  0
    1.2435   -0.6098    0.8874 C   0  0  0  0  0  0  0  0  0  0  0  0
    2.0999   -1.3793    1.5782 N   0  0  0  0  0  0  0  0  0  0  0  0
    3.3575   -1.4914    1.2015 N   0  0  0  0  0  0  0  0  0  0  0  0
    3.7859   -0.8196    0.1028 C   0  0  0  0  0  0  0  0  0  0  0  0
    5.0130   -0.9248   -0.2705 N   0  0  0  0  0  0  0  0  0  0  0  0
    2.9328   -0.0499   -0.5897 N   0  0  0  0  0  0  0  0  0  0  0  0
    1.6841    0.0396   -0.1858 N   0  0  0  0  0  0  0  0  0  0  0  0
   -1.2129   -0.3415   -0.7309 C   0  0  0  0  0  0  0  0  0  0  0  0
   -2.6918   -0.6996   -0.7638 C   0  0  0  0  0  0  0  0  0  0  0  0
   -3.2605    0.2703    0.1399 N   0  0  0  0  0  0  0  0  0  0  0  0
   -2.3687    0.1315    1.3027 C   0  0  0  0  0  0  0  0  0  0  0  0
   -1.5094    2.3843    0.7937 H   0  0  0  0  0  0  0  0  0  0  0  0
   -0.3118    1.9390   -0.4430 H   0  0  0  0  0  0  0  0  0  0  0  0
    0.1280    1.9608    1.3484 H   0  0  0  0  0  0  0  0  0  0  0  0
    5.3387   -0.4142   -1.1055 H   0  0  0  0  0  0  0  0  0  0  0  0
    3.2897    0.4614   -1.4389 H   0  0  0  0  0  0  0  0  0  0  0  0
   -1.0125    0.4016   -1.5359 H   0  0  0  0  0  0  0  0  0  0  0  0
   -0.6098   -1.2495   -0.8888 H   0  0  0  0  0  0  0  0  0  0  0  0
   -3.1118   -0.6399   -1.7898 H   0  0  0  0  0  0  0  0  0  0  0  0
   -2.8531   -1.7138   -0.3637 H   0  0  0  0  0  0  0  0  0  0  0  0
   -3.1220    1.2411   -0.2453 H   0  0  0  0  0  0  0  0  0  0  0  0
   -2.5556    0.9479    2.0033 H   0  0  0  0  0  0  0  0  0  0  0  0
   -2.5268   -0.8726    1.7473 H   0  0  0  0  0  0  0  0  0  0  0  0
  1  2  1  0
  2  3  1  1
  3  4  1  0
  4  5  1  0
  5  6  2  0
  6  7  1  0
  7  8  2  3
  7  9  1  0
  9 10  1  0
  2 11  1  0
 11 12  1  0
 12 13  1  0
 13 14  1  0
 14  2  1  0
 10  4  2  0
  1 15  1  0
  1 16  1  0
  1 17  1  0
  8 18  1  0
  9 19  1  0
 11 20  1  0
 11 21  1  0
 12 22  1  0
 12 23  1  0
 13 24  1  0
 14 25  1  0
 14 26  1  0
M  END
$$$$

     RDKit          3D

 26 27  0  0  0  0  0  0  0  0999 V2000
   -0.9172   -1.7819   -0.6156 C   0  0  0  0  0  0  0  0  0  0  0  0
   -1.1869   -0.3565   -0.2159 C   0  0  2  0  0  0  0  0  0  0  0  0
   -0.2676    0.5225   -0.7961 O   0  0  0  0  0  0  0  0  0  0  0  0
    1.0900    0.4276   -0.5648 C   0  0  0  0  0  0  0  0  0  0  0  0
    1.8989    1.3261   -1.1730 N   0  0  0  0  0  0  0  0  0  0  0  0
    3.2159    1.2770   -0.9823 N   0  0  0  0  0  0  0  0  0  0  0  0
    3.7561    0.3319   -0.1815 C   0  0  0  0  0  0  0  0  0  0  0  0
    5.0418    0.2655    0.0192 N   0  0  0  0  0  0  0  0  0  0  0  0
    2.9561   -0.5629    0.4249 N   0  0  0  0  0  0  0  0  0  0  0  0
    1.6587   -0.4891    0.2170 N   0  0  0  0  0  0  0  0  0  0  0  0
   -1.2123   -0.1801    1.2876 C   0  0  0  0  0  0  0  0  0  0  0  0
   -1.9252    1.1728    1.3652 C   0  0  0  0  0  0  0  0  0  0  0  0
   -3.0713    0.9085    0.4896 N   0  0  0  0  0  0  0  0  0  0  0  0
   -2.5961    0.0756   -0.5742 C   0  0  0  0  0  0  0  0  0  0  0  0
   -1.8175   -2.3995   -0.4442 H   0  0  0  0  0  0  0  0  0  0  0  0
   -0.0478   -2.1312   -0.0496 H   0  0  0  0  0  0  0  0  0  0  0  0
   -0.6783   -1.7926   -1.6833 H   0  0  0  0  0  0  0  0  0  0  0  0
    5.7119    0.9100   -0.4067 H   0  0  0  0  0  0  0  0  0  0  0  0
    3.3846   -1.2982    1.0488 H   0  0  0  0  0  0  0  0  0  0  0  0
   -0.2258   -0.1626    1.7474 H   0  0  0  0  0  0  0  0  0  0  0  0
   -1.8856   -0.9652    1.6963 H   0  0  0  0  0  0  0  0  0  0  0  0
   -1.3098    1.9146    0.8504 H   0  0  0  0  0  0  0  0  0  0  0  0
   -2.2148    1.4260    2.3806 H   0  0  0  0  0  0  0  0  0  0  0  0
   -3.5347    1.7768    0.1919 H   0  0  0  0  0  0  0  0  0  0  0  0
   -3.2139   -0.8521   -0.6374 H   0  0  0  0  0  0  0  0  0  0  0  0
   -2.6093    0.6368   -1.5417 H   0  0  0  0  0  0  0  0  0  0  0  0
  1  2  1  0
  2  3  1  6
  3  4  1  0
  4  5  1  0
  5  6  2  0
  6  7  1  0
  7  8  2  3
  7  9  1  0
  9 10  1  0
  2 11  1  0
 11 12  1  0
 12 13  1  0
 13 14  1  0
 14  2  1  0
 10  4  2  0
  1 15  1  0
  1 16  1  0
  1 17  1  0
  8 18  1  0
  9 19  1  0
 11 20  1  0
 11 21  1  0
 12 22  1  0
 12 23  1  0
 13 24  1  0
 14 25  1  0
 14 26  1  0
M  END
$$$$

     RDKit          3D

 26 27  0  0  0  0  0  0  0  0999 V2000
   -0.7033   -0.8048    1.4873 C   0  0  0  0  0  0  0  0  0  0  0  0
   -0.9852    0.3256    0.5241 C   0  0  2  0  0  0  0  0  0  0  0  0
    0.0609    1.2798    0.4897 O   0  0  0  0  0  0  0  0  0  0  0  0
    1.3466    0.9806    0.1346 C   0  0  0  0  0  0  0  0  0  0  0  0
    2.2459    0.5963    1.0499 N   0  0  0  0  0  0  0  0  0  0  0  0
    3.4771    0.3140    0.6813 N   0  0  0  0  0  0  0  0  0  0  0  0
    3.8439    0.4083   -0.6148 C   0  0  0  0  0  0  0  0  0  0  0  0
    5.0398    0.1378   -0.9968 N   0  0  0  0  0  0  0  0  0  0  0  0
    2.9445    0.7924   -1.5283 N   0  0  0  0  0  0  0  0  0  0  0  0
    1.7058    1.0783   -1.1706 N   0  0  0  0  0  0  0  0  0  0  0  0
   -2.3236    0.9819    0.7878 C   0  0  0  0  0  0  0  0  0  0  0  0
   -3.2508    0.4714   -0.2797 C   0  0  0  0  0  0  0  0  0  0  0  0
   -2.5842   -0.7344   -0.7383 N   0  0  0  0  0  0  0  0  0  0  0  0
   -1.2058   -0.2374   -0.8758 C   0  0  0  0  0  0  0  0  0  0  0  0
    0.1594   -0.5399    2.1394 H   0  0  0  0  0  0  0  0  0  0  0  0
   -0.4887   -1.7272    0.9110 H   0  0  0  0  0  0  0  0  0  0  0  0
   -1.5754   -0.9806    2.1584 H   0  0  0  0  0  0  0  0  0  0  0  0
    5.8091   -0.1654   -0.3838 H   0  0  0  0  0  0  0  0  0  0  0  0
    3.2507    0.8590   -2.5300 H   0  0  0  0  0  0  0  0  0  0  0  0
   -2.1882    2.0955    0.6605 H   0  0  0  0  0  0  0  0  0  0  0  0
   -2.6928    0.8050    1.8138 H   0  0  0  0  0  0  0  0  0  0  0  0
   -3.2498    1.1838   -1.1205 H   0  0  0  0  0  0  0  0  0  0  0  0
   -4.2711    0.2670    0.0976 H   0  0  0  0  0  0  0  0  0  0  0  0
   -2.6011   -1.4710    0.0121 H   0  0  0  0  0  0  0  0  0  0  0  0
   -0.5021   -1.0248   -1.1378 H   0  0  0  0  0  0  0  0  0  0  0  0
   -1.2615    0.6078   -1.5712 H   0  0  0  0  0  0  0  0  0  0  0  0
  1  2  1  0
  2  3  1  6
  3  4  1  0
  4  5  1  0
  5  6  2  0
  6  7  1  0
  7  8  2  3
  7  9  1  0
  9 10  1  0
  2 11  1  0
 11 12  1  0
 12 13  1  0
 13 14  1  0
 14  2  1  0
 10  4  2  0
  1 15  1  0
  1 16  1  0
  1 17  1  0
  8 18  1  0
  9 19  1  0
 11 20  1  0
 11 21  1  0
 12 22  1  0
 12 23  1  0
 13 24  1  0
 14 25  1  0
 14 26  1  0
M  END
$$$$

     RDKit          3D

 26 27  0  0  0  0  0  0  0  0999 V2000
   -0.6236    1.1866   -1.6160 C   0  0  0  0  0  0  0  0  0  0  0  0
   -1.0426    0.6542   -0.2542 C   0  0  2  0  0  0  0  0  0  0  0  0
   -0.0126    0.8852    0.6812 O   0  0  0  0  0  0  0  0  0  0  0  0
    1.2639    0.3772    0.5613 C   0  0  0  0  0  0  0  0  0  0  0  0
    2.2418    1.0667   -0.0904 N   0  0  0  0  0  0  0  0  0  0  0  0
    3.4650    0.5758   -0.2032 N   0  0  0  0  0  0  0  0  0  0  0  0
    3.7874   -0.6137    0.3172 C   0  0  0  0  0  0  0  0  0  0  0  0
    4.9660   -1.1109    0.2212 N   0  0  0  0  0  0  0  0  0  0  0  0
    2.8370   -1.2958    0.9568 N   0  0  0  0  0  0  0  0  0  0  0  0
    1.6108   -0.8144    1.0754 N   0  0  0  0  0  0  0  0  0  0  0  0
   -1.3764   -0.7988   -0.4201 C   0  0  0  0  0  0  0  0  0  0  0  0
   -2.4571   -1.0235    0.5975 C   0  0  0  0  0  0  0  0  0  0  0  0
   -3.2409    0.1939    0.5055 N   0  0  0  0  0  0  0  0  0  0  0  0
   -2.3216    1.2596    0.2225 C   0  0  0  0  0  0  0  0  0  0  0  0
   -1.4730    1.0751   -2.3267 H   0  0  0  0  0  0  0  0  0  0  0  0
    0.1920    0.5261   -1.9821 H   0  0  0  0  0  0  0  0  0  0  0  0
   -0.2818    2.2247   -1.5231 H   0  0  0  0  0  0  0  0  0  0  0  0
    5.7587   -0.6386   -0.2621 H   0  0  0  0  0  0  0  0  0  0  0  0
    3.0898   -2.2364    1.3690 H   0  0  0  0  0  0  0  0  0  0  0  0
   -1.8333   -0.9200   -1.4271 H   0  0  0  0  0  0  0  0  0  0  0  0
   -0.5077   -1.4631   -0.2906 H   0  0  0  0  0  0  0  0  0  0  0  0
   -2.0452   -1.1256    1.6305 H   0  0  0  0  0  0  0  0  0  0  0  0
   -3.0870   -1.9064    0.3531 H   0  0  0  0  0  0  0  0  0  0  0  0
   -4.0170    0.1084   -0.1874 H   0  0  0  0  0  0  0  0  0  0  0  0
   -2.1440    1.7957    1.1970 H   0  0  0  0  0  0  0  0  0  0  0  0
   -2.7483    2.0180   -0.4728 H   0  0  0  0  0  0  0  0  0  0  0  0
  1  2  1  0
  2  3  1  1
  3  4  1  0
  4  5  1  0
  5  6  2  0
  6  7  1  0
  7  8  2  3
  7  9  1  0
  9 10  1  0
  2 11  1  0
 11 12  1  0
 12 13  1  0
 13 14  1  0
 14  2  1  0
 10  4  2  0
  1 15  1  0
  1 16  1  0
  1 17  1  0
  8 18  1  0
  9 19  1  0
 11 20  1  0
 11 21  1  0
 12 22  1  0
 12 23  1  0
 13 24  1  0
 14 25  1  0
 14 26  1  0
M  END
$$$$
