
     RDKit          3D

 28 29  0  0  0  0  0  0  0  0999 V2000
    4.5515    0.4779    0.0835 C   0  0  0  0  0  0  0  0  0  0  0  0
    3.2036   -0.0252   -0.0920 N   0  0  0  0  0  0  0  0  0  0  0  0
    2.8425   -1.3102   -0.2472 C   0  0  0  0  0  0  0  0  0  0  0  0
    1.4890   -1.3171   -0.3765 N   0  0  0  0  0  0  0  0  0  0  0  0
    1.0251   -0.0624   -0.3025 C   0  0  0  0  0  0  0  0  0  0  0  0
   -0.3249    0.3401   -0.3929 N   0  0  0  0  0  0  0  0  0  0  0  0
   -0.7970    1.7330   -0.3066 C   0  0  0  0  0  0  0  0  0  0  0  0
   -2.1339    1.6242    0.3962 C   0  0  1  0  0  0  0  0  0  0  0  0
   -3.1587    2.1521   -0.4163 O   0  0  0  0  0  0  0  0  0  0  0  0
   -2.4033    0.1199    0.5338 C   0  0  0  0  0  0  0  0  0  0  0  0
   -1.5274   -0.4168   -0.5784 C   0  0  2  0  0  0  0  0  0  0  0  0
   -1.3464   -1.8969   -0.5158 C   0  0  0  0  0  0  0  0  0  0  0  0
   -2.5939   -2.4934   -0.7123 O   0  0  0  0  0  0  0  0  0  0  0  0
    2.0929    0.7237   -0.1270 N   0  0  0  0  0  0  0  0  0  0  0  0
    4.5699    1.4705    0.5412 H   0  0  0  0  0  0  0  0  0  0  0  0
    5.1013   -0.2253    0.7654 H   0  0  0  0  0  0  0  0  0  0  0  0
    5.0861    0.5637   -0.8944 H   0  0  0  0  0  0  0  0  0  0  0  0
    3.5158   -2.1666   -0.2638 H   0  0  0  0  0  0  0  0  0  0  0  0
   -0.0941    2.3656    0.2417 H   0  0  0  0  0  0  0  0  0  0  0  0
   -0.9234    2.0508   -1.3771 H   0  0  0  0  0  0  0  0  0  0  0  0
   -2.1669    2.1386    1.3574 H   0  0  0  0  0  0  0  0  0  0  0  0
   -4.0015    1.7745   -0.0717 H   0  0  0  0  0  0  0  0  0  0  0  0
   -3.4595   -0.1205    0.4201 H   0  0  0  0  0  0  0  0  0  0  0  0
   -1.9825   -0.1652    1.5246 H   0  0  0  0  0  0  0  0  0  0  0  0
   -1.9939   -0.1351   -1.5317 H   0  0  0  0  0  0  0  0  0  0  0  0
   -0.7230   -2.1947   -1.3840 H   0  0  0  0  0  0  0  0  0  0  0  0
   -0.8565   -2.2647    0.3811 H   0  0  0  0  0  0  0  0  0  0  0  0
   -2.9911   -2.7405    0.1564 H   0  0  0  0  0  0  0  0  0  0  0  0
  1  2  1  0
  2  3  1  0
  3  4  2  0
  4  5  1  0
  5  6  1  0
  6  7  1  0
  7  8  1  0
  8  9  1  0
  8 10  1  0
 10 11  1  0
 11 12  1  0
 12 13  1  0
  5 14  2  0
 14  2  1  0
 11  6  1  0
  1 15  1  0
  1 16  1  0
  1 17  1  0
  3 18  1  0
  7 19  1  0
  7 20  1  0
  8 21  1  1
  9 22  1  0
 10 23  1  0
 10 24  1  0
 11 25  1  6
 12 26  1  0
 12 27  1  0
 13 28  1  0
M  END
$$$$

     RDKit          3D

 28 29  0  0  0  0  0  0  0  0999 V2000
    4.0057   -1.4072   -0.4042 C   0  0  0  0  0  0  0  0  0  0  0  0
    2.8699   -0.6532    0.1079 N   0  0  0  0  0  0  0  0  0  0  0  0
    2.9411    0.1230    1.1900 C   0  0  0  0  0  0  0  0  0  0  0  0
    1.7234    0.6502    1.3586 N   0  0  0  0  0  0  0  0  0  0  0  0
    0.8779    0.2274    0.4083 C   0  0  0  0  0  0  0  0  0  0  0  0
   -0.5072    0.5463    0.2201 N   0  0  0  0  0  0  0  0  0  0  0  0
   -1.2154    1.4439    1.1175 C   0  0  0  0  0  0  0  0  0  0  0  0
   -2.5288    1.7032    0.4010 C   0  0  1  0  0  0  0  0  0  0  0  0
   -2.3036    2.5870   -0.6539 O   0  0  0  0  0  0  0  0  0  0  0  0
   -2.7658    0.3341   -0.2241 C   0  0  0  0  0  0  0  0  0  0  0  0
   -1.3952    0.0744   -0.8156 C   0  0  2  0  0  0  0  0  0  0  0  0
   -1.1904   -1.3889   -1.1225 C   0  0  0  0  0  0  0  0  0  0  0  0
   -1.4375   -2.1098    0.0526 O   0  0  0  0  0  0  0  0  0  0  0  0
    1.6312   -0.5996   -0.3738 N   0  0  0  0  0  0  0  0  0  0  0  0
    4.9450   -0.8283   -0.1894 H   0  0  0  0  0  0  0  0  0  0  0  0
    3.9087   -1.5191   -1.5003 H   0  0  0  0  0  0  0  0  0  0  0  0
    4.0808   -2.4072    0.0715 H   0  0  0  0  0  0  0  0  0  0  0  0
    3.8112    0.2891    1.8041 H   0  0  0  0  0  0  0  0  0  0  0  0
   -0.6625    2.3503    1.3462 H   0  0  0  0  0  0  0  0  0  0  0  0
   -1.4476    0.8259    2.0308 H   0  0  0  0  0  0  0  0  0  0  0  0
   -3.3365    2.0070    1.0677 H   0  0  0  0  0  0  0  0  0  0  0  0
   -1.3321    2.7344   -0.8166 H   0  0  0  0  0  0  0  0  0  0  0  0
   -3.5527    0.3841   -1.0012 H   0  0  0  0  0  0  0  0  0  0  0  0
   -2.9802   -0.4056    0.5656 H   0  0  0  0  0  0  0  0  0  0  0  0
   -1.3266    0.6901   -1.7383 H   0  0  0  0  0  0  0  0  0  0  0  0
   -1.9783   -1.6842   -1.8524 H   0  0  0  0  0  0  0  0  0  0  0  0
   -0.2189   -1.5944   -1.5648 H   0  0  0  0  0  0  0  0  0  0  0  0
   -0.6156   -2.3730    0.5152 H   0  0  0  0  0  0  0  0  0  0  0  0
  1  2  1  0
  2  3  1  0
  3  4  2  0
  4  5  1  0
  5  6  1  0
  6  7  1  0
  7  8  1  0
  8  9  1  0
  8 10  1  0
 10 11  1  0
 11 12  1  0
 12 13  1  0
  5 14  2  0
 14  2  1  0
 11  6  1  0
  1 15  1  0
  1 16  1  0
  1 17  1  0
  3 18  1  0
  7 19  1  0
  7 20  1  0
  8 21  1  1
  9 22  1  0
 10 23  1  0
 10 24  1  0
 11 25  1  6
 12 26  1  0
 12 27  1  0
 13 28  1  0
M  END
$$$$

     RDKit          3D

 28 29  0  0  0  0  0  0  0  0999 V2000
    4.3150   -0.1787   -0.9876 C   0  0  0  0  0  0  0  0  0  0  0  0
    3.0655    0.2856   -0.3989 N   0  0  0  0  0  0  0  0  0  0  0  0
    2.7948    1.4975    0.1247 C   0  0  0  0  0  0  0  0  0  0  0  0
    1.5145    1.4235    0.5318 N   0  0  0  0  0  0  0  0  0  0  0  0
    0.9991    0.2094    0.2735 C   0  0  0  0  0  0  0  0  0  0  0  0
   -0.2917   -0.2788    0.5366 N   0  0  0  0  0  0  0  0  0  0  0  0
   -0.7769   -1.5974    0.2311 C   0  0  0  0  0  0  0  0  0  0  0  0
   -2.2441   -1.4051    0.0159 C   0  0  1  0  0  0  0  0  0  0  0  0
   -2.8945   -2.6125    0.2366 O   0  0  0  0  0  0  0  0  0  0  0  0
   -2.5877   -0.3911    1.1060 C   0  0  0  0  0  0  0  0  0  0  0  0
   -1.3508    0.4723    1.1625 C   0  0  2  0  0  0  0  0  0  0  0  0
   -1.5571    1.7715    0.3889 C   0  0  0  0  0  0  0  0  0  0  0  0
   -1.9003    1.5334   -0.9209 O   0  0  0  0  0  0  0  0  0  0  0  0
    1.9897   -0.4826   -0.3085 N   0  0  0  0  0  0  0  0  0  0  0  0
    4.8114   -0.9030   -0.2835 H   0  0  0  0  0  0  0  0  0  0  0  0
    5.0058    0.6631   -1.2034 H   0  0  0  0  0  0  0  0  0  0  0  0
    4.1267   -0.7038   -1.9375 H   0  0  0  0  0  0  0  0  0  0  0  0
    3.4895    2.3160    0.1813 H   0  0  0  0  0  0  0  0  0  0  0  0
   -0.6194   -2.2359    1.1262 H   0  0  0  0  0  0  0  0  0  0  0  0
   -0.2577   -2.0169   -0.6570 H   0  0  0  0  0  0  0  0  0  0  0  0
   -2.4781   -1.0115   -0.9824 H   0  0  0  0  0  0  0  0  0  0  0  0
   -2.2715   -3.2936    0.6327 H   0  0  0  0  0  0  0  0  0  0  0  0
   -3.4917    0.1662    0.8588 H   0  0  0  0  0  0  0  0  0  0  0  0
   -2.7650   -0.9616    2.0302 H   0  0  0  0  0  0  0  0  0  0  0  0
   -1.1026    0.7642    2.1930 H   0  0  0  0  0  0  0  0  0  0  0  0
   -0.6605    2.3882    0.4857 H   0  0  0  0  0  0  0  0  0  0  0  0
   -2.3923    2.3022    0.8924 H   0  0  0  0  0  0  0  0  0  0  0  0
   -2.4702    2.2794   -1.2310 H   0  0  0  0  0  0  0  0  0  0  0  0
  1  2  1  0
  2  3  1  0
  3  4  2  0
  4  5  1  0
  5  6  1  0
  6  7  1  0
  7  8  1  0
  8  9  1  0
  8 10  1  0
 10 11  1  0
 11 12  1  0
 12 13  1  0
  5 14  2  0
 14  2  1  0
 11  6  1  0
  1 15  1  0
  1 16  1  0
  1 17  1  0
  3 18  1  0
  7 19  1  0
  7 20  1  0
  8 21  1  6
  9 22  1  0
 10 23  1  0
 10 24  1  0
 11 25  1  1
 12 26  1  0
 12 27  1  0
 13 28  1  0
M  END
$$$$

     RDKit          3D

 28 29  0  0  0  0  0  0  0  0999 V2000
    4.2555    0.6231    0.3277 C   0  0  0  0  0  0  0  0  0  0  0  0
    3.0076   -0.1362    0.3294 N   0  0  0  0  0  0  0  0  0  0  0  0
    2.9490   -1.4763    0.3090 C   0  0  0  0  0  0  0  0  0  0  0  0
    1.6601   -1.7960    0.3181 N   0  0  0  0  0  0  0  0  0  0  0  0
    0.9247   -0.6454    0.3441 C   0  0  0  0  0  0  0  0  0  0  0  0
   -0.4820   -0.6301    0.3593 N   0  0  0  0  0  0  0  0  0  0  0  0
   -1.3721   -1.7559    0.3457 C   0  0  0  0  0  0  0  0  0  0  0  0
   -2.7068   -1.2230   -0.1977 C   0  0  1  0  0  0  0  0  0  0  0  0
   -3.5914   -1.0531    0.8695 O   0  0  0  0  0  0  0  0  0  0  0  0
   -2.3330    0.1876   -0.6754 C   0  0  0  0  0  0  0  0  0  0  0  0
   -1.3139    0.5386    0.3916 C   0  0  2  0  0  0  0  0  0  0  0  0
   -0.6018    1.8270    0.0927 C   0  0  0  0  0  0  0  0  0  0  0  0
   -1.5869    2.8406    0.1724 O   0  0  0  0  0  0  0  0  0  0  0  0
    1.7980    0.3791    0.3507 N   0  0  0  0  0  0  0  0  0  0  0  0
    4.8410    0.3011    1.2277 H   0  0  0  0  0  0  0  0  0  0  0  0
    4.0386    1.7058    0.3389 H   0  0  0  0  0  0  0  0  0  0  0  0
    4.8606    0.3777   -0.5501 H   0  0  0  0  0  0  0  0  0  0  0  0
    3.7711   -2.1803    0.2891 H   0  0  0  0  0  0  0  0  0  0  0  0
   -1.0368   -2.5749   -0.3175 H   0  0  0  0  0  0  0  0  0  0  0  0
   -1.5218   -2.1937    1.3496 H   0  0  0  0  0  0  0  0  0  0  0  0
   -3.1026   -1.8421   -1.0021 H   0  0  0  0  0  0  0  0  0  0  0  0
   -4.3244   -0.4460    0.6676 H   0  0  0  0  0  0  0  0  0  0  0  0
   -1.8600    0.0861   -1.6761 H   0  0  0  0  0  0  0  0  0  0  0  0
   -3.2030    0.8569   -0.6708 H   0  0  0  0  0  0  0  0  0  0  0  0
   -1.8698    0.6100    1.3513 H   0  0  0  0  0  0  0  0  0  0  0  0
   -0.1776    1.8654   -0.9094 H   0  0  0  0  0  0  0  0  0  0  0  0
    0.1590    2.0133    0.8725 H   0  0  0  0  0  0  0  0  0  0  0  0
   -1.1811    3.7407    0.1671 H   0  0  0  0  0  0  0  0  0  0  0  0
  1  2  1  0
  2  3  1  0
  3  4  2  0
  4  5  1  0
  5  6  1  0
  6  7  1  0
  7  8  1  0
  8  9  1  0
  8 10  1  0
 10 11  1  0
 11 12  1  0
 12 13  1  0
  5 14  2  0
 14  2  1  0
 11  6  1  0
  1 15  1  0
  1 16  1  0
  1 17  1  0
  3 18  1  0
  7 19  1  0
  7 20  1  0
  8 21  1  6
  9 22  1  0
 10 23  1  0
 10 24  1  0
 11 25  1  1
 12 26  1  0
 12 27  1  0
 13 28  1  0
M  END
$$$$

     RDKit          3D

 28 29  0  0  0  0  0  0  0  0999 V2000
    4.3820    0.8103    0.4808 C   0  0  0  0  0  0  0  0  0  0  0  0
    3.1257    0.2392    0.0833 N   0  0  0  0  0  0  0  0  0  0  0  0
    2.9674   -0.9869   -0.4588 C   0  0  0  0  0  0  0  0  0  0  0  0
    1.6601   -1.1230   -0.6770 N   0  0  0  0  0  0  0  0  0  0  0  0
    0.9969   -0.0016   -0.2802 C   0  0  0  0  0  0  0  0  0  0  0  0
   -0.3866    0.2471   -0.3436 N   0  0  0  0  0  0  0  0  0  0  0  0
   -1.0322    1.4620    0.0947 C   0  0  0  0  0  0  0  0  0  0  0  0
   -2.4432    1.3909   -0.3978 C   0  0  1  0  0  0  0  0  0  0  0  0
   -2.5539    2.2352   -1.5067 O   0  0  0  0  0  0  0  0  0  0  0  0
   -2.6993   -0.0355   -0.7624 C   0  0  0  0  0  0  0  0  0  0  0  0
   -1.3620   -0.6867   -0.8608 C   0  0  2  0  0  0  0  0  0  0  0  0
   -1.3543   -1.9886   -0.0881 C   0  0  0  0  0  0  0  0  0  0  0  0
   -2.2874   -2.8630   -0.5938 O   0  0  0  0  0  0  0  0  0  0  0  0
    1.9575    0.8394    0.1961 N   0  0  0  0  0  0  0  0  0  0  0  0
    5.2163    0.1127    0.3964 H   0  0  0  0  0  0  0  0  0  0  0  0
    4.6221    1.7328   -0.1143 H   0  0  0  0  0  0  0  0  0  0  0  0
    4.2597    1.1550    1.5394 H   0  0  0  0  0  0  0  0  0  0  0  0
    3.7531   -1.7017   -0.6673 H   0  0  0  0  0  0  0  0  0  0  0  0
   -0.4940    2.3489   -0.2781 H   0  0  0  0  0  0  0  0  0  0  0  0
   -1.0445    1.5329    1.2053 H   0  0  0  0  0  0  0  0  0  0  0  0
   -3.1747    1.7500    0.3496 H   0  0  0  0  0  0  0  0  0  0  0  0
   -2.5228    3.1654   -1.2060 H   0  0  0  0  0  0  0  0  0  0  0  0
   -3.1898   -0.1181   -1.7614 H   0  0  0  0  0  0  0  0  0  0  0  0
   -3.3179   -0.5753   -0.0121 H   0  0  0  0  0  0  0  0  0  0  0  0
   -1.0646   -0.9279   -1.9003 H   0  0  0  0  0  0  0  0  0  0  0  0
   -0.3628   -2.4571   -0.1724 H   0  0  0  0  0  0  0  0  0  0  0  0
   -1.5077   -1.7608    0.9981 H   0  0  0  0  0  0  0  0  0  0  0  0
   -2.1432   -3.7956   -0.3419 H   0  0  0  0  0  0  0  0  0  0  0  0
  1  2  1  0
  2  3  1  0
  3  4  2  0
  4  5  1  0
  5  6  1  0
  6  7  1  0
  7  8  1  0
  8  9  1  0
  8 10  1  0
 10 11  1  0
 11 12  1  0
 12 13  1  0
  5 14  2  0
 14  2  1  0
 11  6  1  0
  1 15  1  0
  1 16  1  0
  1 17  1  0
  3 18  1  0
  7 19  1  0
  7 20  1  0
  8 21  1  1
  9 22  1  0
 10 23  1  0
 10 24  1  0
 11 25  1  6
 12 26  1  0
 12 27  1  0
 13 28  1  0
M  END
$$$$

     RDKit          3D

 28 29  0  0  0  0  0  0  0  0999 V2000
    4.4957    0.6527    0.2753 C   0  0  0  0  0  0  0  0  0  0  0  0
    3.1634    0.0773    0.0278 N   0  0  0  0  0  0  0  0  0  0  0  0
    2.8691   -1.2107   -0.2155 C   0  0  0  0  0  0  0  0  0  0  0  0
    1.5421   -1.3301   -0.3885 N   0  0  0  0  0  0  0  0  0  0  0  0
    0.9775   -0.0940   -0.2530 C   0  0  0  0  0  0  0  0  0  0  0  0
   -0.4017    0.2270   -0.3605 N   0  0  0  0  0  0  0  0  0  0  0  0
   -0.9507    1.5538   -0.2217 C   0  0  0  0  0  0  0  0  0  0  0  0
   -2.3683    1.2696    0.2232 C   0  0  1  0  0  0  0  0  0  0  0  0
   -3.1824    2.3673    0.0499 O   0  0  0  0  0  0  0  0  0  0  0  0
   -2.7341    0.1262   -0.7239 C   0  0  0  0  0  0  0  0  0  0  0  0
   -1.4694   -0.7082   -0.6247 C   0  0  2  0  0  0  0  0  0  0  0  0
   -1.6978   -1.6817    0.5128 C   0  0  0  0  0  0  0  0  0  0  0  0
   -0.5793   -2.4489    0.7876 O   0  0  0  0  0  0  0  0  0  0  0  0
    2.0146    0.7241   -0.0001 N   0  0  0  0  0  0  0  0  0  0  0  0
    4.9469    0.8319   -0.7231 H   0  0  0  0  0  0  0  0  0  0  0  0
    4.3270    1.6145    0.7793 H   0  0  0  0  0  0  0  0  0  0  0  0
    5.0642   -0.0709    0.8896 H   0  0  0  0  0  0  0  0  0  0  0  0
    3.5996   -2.0161   -0.2619 H   0  0  0  0  0  0  0  0  0  0  0  0
   -0.3997    2.1839    0.4979 H   0  0  0  0  0  0  0  0  0  0  0  0
   -1.0007    2.0005   -1.2349 H   0  0  0  0  0  0  0  0  0  0  0  0
   -2.4038    0.8552    1.2491 H   0  0  0  0  0  0  0  0  0  0  0  0
   -3.1018    2.9224    0.8743 H   0  0  0  0  0  0  0  0  0  0  0  0
   -2.7615    0.5472   -1.7488 H   0  0  0  0  0  0  0  0  0  0  0  0
   -3.6340   -0.4044   -0.4209 H   0  0  0  0  0  0  0  0  0  0  0  0
   -1.2516   -1.2607   -1.5475 H   0  0  0  0  0  0  0  0  0  0  0  0
   -2.0409   -1.1473    1.4214 H   0  0  0  0  0  0  0  0  0  0  0  0
   -2.5195   -2.3489    0.1986 H   0  0  0  0  0  0  0  0  0  0  0  0
   -0.5026   -3.2319    0.1709 H   0  0  0  0  0  0  0  0  0  0  0  0
  1  2  1  0
  2  3  1  0
  3  4  2  0
  4  5  1  0
  5  6  1  0
  6  7  1  0
  7  8  1  0
  8  9  1  0
  8 10  1  0
 10 11  1  0
 11 12  1  0
 12 13  1  0
  5 14  2  0
 14  2  1  0
 11  6  1  0
  1 15  1  0
  1 16  1  0
  1 17  1  0
  3 18  1  0
  7 19  1  0
  7 20  1  0
  8 21  1  1
  9 22  1  0
 10 23  1  0
 10 24  1  0
 11 25  1  6
 12 26  1  0
 12 27  1  0
 13 28  1  0
M  END
$$$$

     RDKit          3D

 28 29  0  0  0  0  0  0  0  0999 V2000
    4.0071   -1.3536   -0.8681 C   0  0  0  0  0  0  0  0  0  0  0  0
    2.9551   -0.4660   -0.3991 N   0  0  0  0  0  0  0  0  0  0  0  0
    3.1233    0.6635    0.3023 C   0  0  0  0  0  0  0  0  0  0  0  0
    1.9068    1.1788    0.5325 N   0  0  0  0  0  0  0  0  0  0  0  0
    0.9664    0.3839   -0.0182 C   0  0  0  0  0  0  0  0  0  0  0  0
   -0.4251    0.6479    0.0463 N   0  0  0  0  0  0  0  0  0  0  0  0
   -1.0777    1.7726    0.6882 C   0  0  0  0  0  0  0  0  0  0  0  0
   -2.4558    1.2923    1.0883 C   0  0  1  0  0  0  0  0  0  0  0  0
   -3.3867    1.9793    0.3179 O   0  0  0  0  0  0  0  0  0  0  0  0
   -2.4782   -0.1680    0.6582 C   0  0  0  0  0  0  0  0  0  0  0  0
   -1.5179   -0.1391   -0.5106 C   0  0  2  0  0  0  0  0  0  0  0  0
   -1.0662   -1.5197   -0.9093 C   0  0  0  0  0  0  0  0  0  0  0  0
   -0.5719   -2.1901    0.2048 O   0  0  0  0  0  0  0  0  0  0  0  0
    1.6386   -0.6158   -0.5820 N   0  0  0  0  0  0  0  0  0  0  0  0
    3.6204   -1.9496   -1.7012 H   0  0  0  0  0  0  0  0  0  0  0  0
    4.8814   -0.7341   -1.1802 H   0  0  0  0  0  0  0  0  0  0  0  0
    4.3761   -1.9803   -0.0213 H   0  0  0  0  0  0  0  0  0  0  0  0
    4.0654    1.0737    0.6183 H   0  0  0  0  0  0  0  0  0  0  0  0
   -1.1316    2.5942   -0.0703 H   0  0  0  0  0  0  0  0  0  0  0  0
   -0.4905    2.1608    1.5365 H   0  0  0  0  0  0  0  0  0  0  0  0
   -2.6319    1.3939    2.1780 H   0  0  0  0  0  0  0  0  0  0  0  0
   -3.1761    2.9465    0.2439 H   0  0  0  0  0  0  0  0  0  0  0  0
   -3.4972   -0.4809    0.3731 H   0  0  0  0  0  0  0  0  0  0  0  0
   -2.0248   -0.7823    1.4555 H   0  0  0  0  0  0  0  0  0  0  0  0
   -1.9648    0.4224   -1.3474 H   0  0  0  0  0  0  0  0  0  0  0  0
   -1.9565   -2.0735   -1.2698 H   0  0  0  0  0  0  0  0  0  0  0  0
   -0.3344   -1.4677   -1.7204 H   0  0  0  0  0  0  0  0  0  0  0  0
   -1.3532   -2.5890    0.6720 H   0  0  0  0  0  0  0  0  0  0  0  0
  1  2  1  0
  2  3  1  0
  3  4  2  0
  4  5  1  0
  5  6  1  0
  6  7  1  0
  7  8  1  0
  8  9  1  0
  8 10  1  0
 10 11  1  0
 11 12  1  0
 12 13  1  0
  5 14  2  0
 14  2  1  0
 11  6  1  0
  1 15  1  0
  1 16  1  0
  1 17  1  0
  3 18  1  0
  7 19  1  0
  7 20  1  0
  8 21  1  1
  9 22  1  0
 10 23  1  0
 10 24  1  0
 11 25  1  6
 12 26  1  0
 12 27  1  0
 13 28  1  0
M  END
$$$$

     RDKit          3D

 28 29  0  0  0  0  0  0  0  0999 V2000
    4.5632    0.4968    0.2816 C   0  0  0  0  0  0  0  0  0  0  0  0
    3.2274    0.2239   -0.1834 N   0  0  0  0  0  0  0  0  0  0  0  0
    2.9407   -0.1965   -1.4355 C   0  0  0  0  0  0  0  0  0  0  0  0
    1.6101   -0.3460   -1.5091 N   0  0  0  0  0  0  0  0  0  0  0  0
    1.0860   -0.0272   -0.3352 C   0  0  0  0  0  0  0  0  0  0  0  0
   -0.2759   -0.0426    0.0275 N   0  0  0  0  0  0  0  0  0  0  0  0
   -0.8675    0.3059    1.3157 C   0  0  0  0  0  0  0  0  0  0  0  0
   -2.2768    0.7461    0.9927 C   0  0  1  0  0  0  0  0  0  0  0  0
   -2.4391    2.1018    1.3543 O   0  0  0  0  0  0  0  0  0  0  0  0
   -2.4256    0.5836   -0.4945 C   0  0  0  0  0  0  0  0  0  0  0  0
   -1.3765   -0.4194   -0.8387 C   0  0  2  0  0  0  0  0  0  0  0  0
   -1.7954   -1.8430   -0.5575 C   0  0  0  0  0  0  0  0  0  0  0  0
   -2.1929   -1.9429    0.7519 O   0  0  0  0  0  0  0  0  0  0  0  0
    2.0858    0.3256    0.4858 N   0  0  0  0  0  0  0  0  0  0  0  0
    5.1526   -0.4098    0.4761 H   0  0  0  0  0  0  0  0  0  0  0  0
    5.0706    1.1284   -0.4990 H   0  0  0  0  0  0  0  0  0  0  0  0
    4.5068    1.1309    1.2027 H   0  0  0  0  0  0  0  0  0  0  0  0
    3.6556   -0.3765   -2.2247 H   0  0  0  0  0  0  0  0  0  0  0  0
   -0.8233   -0.5370    2.0196 H   0  0  0  0  0  0  0  0  0  0  0  0
   -0.2950    1.1759    1.7486 H   0  0  0  0  0  0  0  0  0  0  0  0
   -3.0445    0.1887    1.5602 H   0  0  0  0  0  0  0  0  0  0  0  0
   -2.9251    2.5931    0.6615 H   0  0  0  0  0  0  0  0  0  0  0  0
   -3.4357    0.3287   -0.8186 H   0  0  0  0  0  0  0  0  0  0  0  0
   -2.1205    1.5555   -0.9739 H   0  0  0  0  0  0  0  0  0  0  0  0
   -1.0862   -0.3606   -1.9036 H   0  0  0  0  0  0  0  0  0  0  0  0
   -2.6594   -2.0742   -1.2184 H   0  0  0  0  0  0  0  0  0  0  0  0
   -0.9580   -2.5170   -0.8044 H   0  0  0  0  0  0  0  0  0  0  0  0
   -2.9014   -2.6079    0.9181 H   0  0  0  0  0  0  0  0  0  0  0  0
  1  2  1  0
  2  3  1  0
  3  4  2  0
  4  5  1  0
  5  6  1  0
  6  7  1  0
  7  8  1  0
  8  9  1  0
  8 10  1  0
 10 11  1  0
 11 12  1  0
 12 13  1  0
  5 14  2  0
 14  2  1  0
 11  6  1  0
  1 15  1  0
  1 16  1  0
  1 17  1  0
  3 18  1  0
  7 19  1  0
  7 20  1  0
  8 21  1  1
  9 22  1  0
 10 23  1  0
 10 24  1  0
 11 25  1  6
 12 26  1  0
 12 27  1  0
 13 28  1  0
M  END
$$$$
