
     RDKit          3D

 27 27  0  0  0  0  0  0  0  0999 V2000
   -2.4736    0.7361   -1.9291 O   0  0  0  0  0  0  0  0  0  0  0  0
   -2.6826   -0.0581   -0.7877 C   0  0  0  0  0  0  0  0  0  0  0  0
   -1.7793    0.4479    0.3543 C   0  0  0  0  0  0  0  0  0  0  0  0
   -2.1613   -0.3553    1.5480 C   0  0  0  0  0  0  0  0  0  0  0  0
   -3.5362   -0.0844    1.7714 O   0  0  0  0  0  0  0  0  0  0  0  0
   -0.4560    0.3663   -0.1075 N   0  0  0  0  0  0  0  0  0  0  0  0
    0.1087   -0.9111   -0.3749 C   0  0  0  0  0  0  0  0  0  0  0  0
    1.4013   -0.8538   -1.1126 C   0  0  0  0  0  0  0  0  0  0  0  0
    2.4834   -0.1201   -0.4395 C   0  0  0  0  0  0  0  0  0  0  0  0
    2.6229    0.4813    0.7316 N   0  0  0  0  0  0  0  0  0  0  0  0
    3.8621    1.0358    0.8239 C   0  0  0  0  0  0  0  0  0  0  0  0
    4.5007    0.7589   -0.3334 N   0  0  0  0  0  0  0  0  0  0  0  0
    3.6749    0.0695   -1.0842 N   0  0  0  0  0  0  0  0  0  0  0  0
   -2.3287    0.0745   -2.6573 H   0  0  0  0  0  0  0  0  0  0  0  0
   -3.7652    0.0832   -0.5340 H   0  0  0  0  0  0  0  0  0  0  0  0
   -2.5518   -1.1331   -0.9516 H   0  0  0  0  0  0  0  0  0  0  0  0
   -2.0336    1.5179    0.5090 H   0  0  0  0  0  0  0  0  0  0  0  0
   -2.1535   -1.4516    1.3241 H   0  0  0  0  0  0  0  0  0  0  0  0
   -1.6814   -0.0833    2.4990 H   0  0  0  0  0  0  0  0  0  0  0  0
   -3.7425    0.8620    1.5326 H   0  0  0  0  0  0  0  0  0  0  0  0
    0.1690    1.1582   -0.0057 H   0  0  0  0  0  0  0  0  0  0  0  0
   -0.5665   -1.6357   -0.8164 H   0  0  0  0  0  0  0  0  0  0  0  0
    0.3827   -1.3333    0.6622 H   0  0  0  0  0  0  0  0  0  0  0  0
    1.2088   -0.3565   -2.1118 H   0  0  0  0  0  0  0  0  0  0  0  0
    1.7317   -1.9001   -1.3764 H   0  0  0  0  0  0  0  0  0  0  0  0
    4.2846    1.6070    1.6687 H   0  0  0  0  0  0  0  0  0  0  0  0
    5.4815    1.0779   -0.5338 H   0  0  0  0  0  0  0  0  0  0  0  0
  1  2  1  0
  2  3  1  0
  3  4  1  0
  4  5  1  0
  3  6  1  0
  6  7  1  0
  7  8  1  0
  8  9  1  0
  9 10  1  0
 10 11  2  0
 11 12  1  0
 12 13  1  0
 13  9  2  0
  1 14  1  0
  2 15  1  0
  2 16  1  0
  3 17  1  0
  4 18  1  0
  4 19  1  0
  5 20  1  0
  6 21  1  0
  7 22  1  0
  7 23  1  0
  8 24  1  0
  8 25  1  0
 11 26  1  0
 12 27  1  0
M  END
$$$$

     RDKit          3D

 27 27  0  0  0  0  0  0  0  0999 V2000
   -1.8176    1.3962   -1.4191 O   0  0  0  0  0  0  0  0  0  0  0  0
   -1.9079    1.5468   -0.0566 C   0  0  0  0  0  0  0  0  0  0  0  0
   -1.7147    0.2686    0.7178 C   0  0  0  0  0  0  0  0  0  0  0  0
   -2.8903   -0.6211    0.3428 C   0  0  0  0  0  0  0  0  0  0  0  0
   -2.8481   -1.7621    1.1418 O   0  0  0  0  0  0  0  0  0  0  0  0
   -0.4629   -0.3400    0.5364 N   0  0  0  0  0  0  0  0  0  0  0  0
   -0.0945   -0.8219   -0.7349 C   0  0  0  0  0  0  0  0  0  0  0  0
    1.2769   -1.4615   -0.7775 C   0  0  0  0  0  0  0  0  0  0  0  0
    2.3451   -0.5079   -0.3935 C   0  0  0  0  0  0  0  0  0  0  0  0
    2.3066    0.7540   -0.0124 N   0  0  0  0  0  0  0  0  0  0  0  0
    3.5567    1.1739    0.2141 C   0  0  0  0  0  0  0  0  0  0  0  0
    4.3706    0.1469   -0.0342 N   0  0  0  0  0  0  0  0  0  0  0  0
    3.6390   -0.8659   -0.4004 N   0  0  0  0  0  0  0  0  0  0  0  0
   -2.2124    2.1487   -1.9227 H   0  0  0  0  0  0  0  0  0  0  0  0
   -2.9126    1.9915    0.1666 H   0  0  0  0  0  0  0  0  0  0  0  0
   -1.1302    2.2891    0.2377 H   0  0  0  0  0  0  0  0  0  0  0  0
   -1.8102    0.5234    1.8140 H   0  0  0  0  0  0  0  0  0  0  0  0
   -2.8734   -0.8992   -0.7261 H   0  0  0  0  0  0  0  0  0  0  0  0
   -3.8678   -0.1343    0.5281 H   0  0  0  0  0  0  0  0  0  0  0  0
   -2.4113   -1.5974    2.0018 H   0  0  0  0  0  0  0  0  0  0  0  0
    0.2734    0.1565    1.0743 H   0  0  0  0  0  0  0  0  0  0  0  0
   -0.0689   -0.0361   -1.5414 H   0  0  0  0  0  0  0  0  0  0  0  0
   -0.8064   -1.5853   -1.1139 H   0  0  0  0  0  0  0  0  0  0  0  0
    1.2927   -2.3963   -0.1891 H   0  0  0  0  0  0  0  0  0  0  0  0
    1.4566   -1.7426   -1.8361 H   0  0  0  0  0  0  0  0  0  0  0  0
    3.8822    2.1694    0.5409 H   0  0  0  0  0  0  0  0  0  0  0  0
    5.4292    0.2064    0.0659 H   0  0  0  0  0  0  0  0  0  0  0  0
  1  2  1  0
  2  3  1  0
  3  4  1  0
  4  5  1  0
  3  6  1  0
  6  7  1  0
  7  8  1  0
  8  9  1  0
  9 10  1  0
 10 11  2  0
 11 12  1  0
 12 13  1  0
 13  9  2  0
  1 14  1  0
  2 15  1  0
  2 16  1  0
  3 17  1  0
  4 18  1  0
  4 19  1  0
  5 20  1  0
  6 21  1  0
  7 22  1  0
  7 23  1  0
  8 24  1  0
  8 25  1  0
 11 26  1  0
 12 27  1  0
M  END
$$$$

     RDKit          3D

 27 27  0  0  0  0  0  0  0  0999 V2000
   -2.7867    2.1853    0.0517 O   0  0  0  0  0  0  0  0  0  0  0  0
   -2.8803    0.8695    0.5079 C   0  0  0  0  0  0  0  0  0  0  0  0
   -1.9093    0.0501   -0.3555 C   0  0  0  0  0  0  0  0  0  0  0  0
   -2.0215   -1.4181    0.0075 C   0  0  0  0  0  0  0  0  0  0  0  0
   -1.6573   -1.6764    1.3011 O   0  0  0  0  0  0  0  0  0  0  0  0
   -0.5508    0.5510   -0.2096 N   0  0  0  0  0  0  0  0  0  0  0  0
    0.1986    0.1674   -1.3640 C   0  0  0  0  0  0  0  0  0  0  0  0
    1.6050    0.6197   -1.3942 C   0  0  0  0  0  0  0  0  0  0  0  0
    2.4618    0.1514   -0.3053 C   0  0  0  0  0  0  0  0  0  0  0  0
    3.7585    0.4941   -0.2266 N   0  0  0  0  0  0  0  0  0  0  0  0
    4.2984   -0.0621    0.8479 C   0  0  0  0  0  0  0  0  0  0  0  0
    3.3302   -0.7634    1.4514 N   0  0  0  0  0  0  0  0  0  0  0  0
    2.2218   -0.6341    0.7551 N   0  0  0  0  0  0  0  0  0  0  0  0
   -2.4659    2.8006    0.7605 H   0  0  0  0  0  0  0  0  0  0  0  0
   -2.5987    0.7690    1.5759 H   0  0  0  0  0  0  0  0  0  0  0  0
   -3.8814    0.4467    0.3011 H   0  0  0  0  0  0  0  0  0  0  0  0
   -2.2753    0.1523   -1.3949 H   0  0  0  0  0  0  0  0  0  0  0  0
   -3.1010   -1.6830   -0.1935 H   0  0  0  0  0  0  0  0  0  0  0  0
   -1.4046   -2.0383   -0.6716 H   0  0  0  0  0  0  0  0  0  0  0  0
   -2.4637   -1.6924    1.8784 H   0  0  0  0  0  0  0  0  0  0  0  0
   -0.1282    0.2421    0.6966 H   0  0  0  0  0  0  0  0  0  0  0  0
   -0.3355    0.5802   -2.2524 H   0  0  0  0  0  0  0  0  0  0  0  0
    0.1019   -0.9486   -1.4905 H   0  0  0  0  0  0  0  0  0  0  0  0
    2.0276    0.3581   -2.4032 H   0  0  0  0  0  0  0  0  0  0  0  0
    1.6052    1.7419   -1.3806 H   0  0  0  0  0  0  0  0  0  0  0  0
    5.3389    0.0412    1.1640 H   0  0  0  0  0  0  0  0  0  0  0  0
    3.5124   -1.3041    2.3431 H   0  0  0  0  0  0  0  0  0  0  0  0
  1  2  1  0
  2  3  1  0
  3  4  1  0
  4  5  1  0
  3  6  1  0
  6  7  1  0
  7  8  1  0
  8  9  1  0
  9 10  1  0
 10 11  2  0
 11 12  1  0
 12 13  1  0
 13  9  2  0
  1 14  1  0
  2 15  1  0
  2 16  1  0
  3 17  1  0
  4 18  1  0
  4 19  1  0
  5 20  1  0
  6 21  1  0
  7 22  1  0
  7 23  1  0
  8 24  1  0
  8 25  1  0
 11 26  1  0
 12 27  1  0
M  END
$$$$

     RDKit          3D

 27 27  0  0  0  0  0  0  0  0999 V2000
   -2.3302    0.1645    2.2161 O   0  0  0  0  0  0  0  0  0  0  0  0
   -1.9090   -0.6593    1.1993 C   0  0  0  0  0  0  0  0  0  0  0  0
   -1.8191    0.0261   -0.1441 C   0  0  0  0  0  0  0  0  0  0  0  0
   -3.1915    0.5189   -0.5563 C   0  0  0  0  0  0  0  0  0  0  0  0
   -4.1251   -0.5302   -0.5448 O   0  0  0  0  0  0  0  0  0  0  0  0
   -0.9138    1.1181   -0.1673 N   0  0  0  0  0  0  0  0  0  0  0  0
    0.4452    0.8149    0.0872 C   0  0  0  0  0  0  0  0  0  0  0  0
    1.1280    0.0075   -0.9819 C   0  0  0  0  0  0  0  0  0  0  0  0
    2.5499   -0.2223   -0.5388 C   0  0  0  0  0  0  0  0  0  0  0  0
    3.4993   -0.8914   -1.2030 N   0  0  0  0  0  0  0  0  0  0  0  0
    4.6306   -0.8820   -0.4876 C   0  0  0  0  0  0  0  0  0  0  0  0
    4.3711   -0.1944    0.6354 N   0  0  0  0  0  0  0  0  0  0  0  0
    3.1132    0.2033    0.6019 N   0  0  0  0  0  0  0  0  0  0  0  0
   -2.6814    1.0381    1.9354 H   0  0  0  0  0  0  0  0  0  0  0  0
   -0.9019   -1.1052    1.3878 H   0  0  0  0  0  0  0  0  0  0  0  0
   -2.6164   -1.4964    1.1151 H   0  0  0  0  0  0  0  0  0  0  0  0
   -1.5607   -0.7759   -0.8773 H   0  0  0  0  0  0  0  0  0  0  0  0
   -3.1781    0.9229   -1.5932 H   0  0  0  0  0  0  0  0  0  0  0  0
   -3.5814    1.3204    0.0947 H   0  0  0  0  0  0  0  0  0  0  0  0
   -3.8640   -1.1710   -1.2746 H   0  0  0  0  0  0  0  0  0  0  0  0
   -1.1980    1.9891    0.2710 H   0  0  0  0  0  0  0  0  0  0  0  0
    0.6072    0.3611    1.0847 H   0  0  0  0  0  0  0  0  0  0  0  0
    1.0008    1.7991    0.1392 H   0  0  0  0  0  0  0  0  0  0  0  0
    0.7020   -0.9772   -1.1565 H   0  0  0  0  0  0  0  0  0  0  0  0
    1.1667    0.6477   -1.8892 H   0  0  0  0  0  0  0  0  0  0  0  0
    5.5900   -1.3466   -0.7624 H   0  0  0  0  0  0  0  0  0  0  0  0
    5.0666   -0.0073    1.4093 H   0  0  0  0  0  0  0  0  0  0  0  0
  1  2  1  0
  2  3  1  0
  3  4  1  0
  4  5  1  0
  3  6  1  0
  6  7  1  0
  7  8  1  0
  8  9  1  0
  9 10  1  0
 10 11  2  0
 11 12  1  0
 12 13  1  0
 13  9  2  0
  1 14  1  0
  2 15  1  0
  2 16  1  0
  3 17  1  0
  4 18  1  0
  4 19  1  0
  5 20  1  0
  6 21  1  0
  7 22  1  0
  7 23  1  0
  8 24  1  0
  8 25  1  0
 11 26  1  0
 12 27  1  0
M  END
$$$$

     RDKit          3D

 27 27  0  0  0  0  0  0  0  0999 V2000
   -2.2559    1.6527   -0.9895 O   0  0  0  0  0  0  0  0  0  0  0  0
   -2.3155    0.2872   -0.9242 C   0  0  0  0  0  0  0  0  0  0  0  0
   -1.7826   -0.3531    0.3059 C   0  0  0  0  0  0  0  0  0  0  0  0
   -2.0532   -1.8548    0.1004 C   0  0  0  0  0  0  0  0  0  0  0  0
   -3.4283   -1.9420   -0.2252 O   0  0  0  0  0  0  0  0  0  0  0  0
   -0.4332   -0.1734    0.6458 N   0  0  0  0  0  0  0  0  0  0  0  0
    0.0461    1.1147    0.9654 C   0  0  0  0  0  0  0  0  0  0  0  0
    1.4874    1.0987    1.4428 C   0  0  0  0  0  0  0  0  0  0  0  0
    2.4663    0.5883    0.4911 C   0  0  0  0  0  0  0  0  0  0  0  0
    3.1454    1.3779   -0.3789 N   0  0  0  0  0  0  0  0  0  0  0  0
    3.9503    0.6324   -1.1163 C   0  0  0  0  0  0  0  0  0  0  0  0
    3.7926   -0.6678   -0.7183 N   0  0  0  0  0  0  0  0  0  0  0  0
    2.8951   -0.6622    0.2472 N   0  0  0  0  0  0  0  0  0  0  0  0
   -2.6129    1.9280   -1.8755 H   0  0  0  0  0  0  0  0  0  0  0  0
   -1.9297   -0.2127   -1.8529 H   0  0  0  0  0  0  0  0  0  0  0  0
   -3.4207    0.0342   -0.9404 H   0  0  0  0  0  0  0  0  0  0  0  0
   -2.4797   -0.0629    1.1470 H   0  0  0  0  0  0  0  0  0  0  0  0
   -1.8176   -2.4387    0.9924 H   0  0  0  0  0  0  0  0  0  0  0  0
   -1.5068   -2.1642   -0.8149 H   0  0  0  0  0  0  0  0  0  0  0  0
   -3.7025   -2.8944   -0.2483 H   0  0  0  0  0  0  0  0  0  0  0  0
    0.2460   -0.7994    0.1620 H   0  0  0  0  0  0  0  0  0  0  0  0
   -0.0333    1.7938    0.1022 H   0  0  0  0  0  0  0  0  0  0  0  0
   -0.5285    1.5045    1.8344 H   0  0  0  0  0  0  0  0  0  0  0  0
    1.7416    2.1330    1.7209 H   0  0  0  0  0  0  0  0  0  0  0  0
    1.5842    0.5054    2.3835 H   0  0  0  0  0  0  0  0  0  0  0  0
    4.6211    1.0138   -1.8974 H   0  0  0  0  0  0  0  0  0  0  0  0
    4.3242   -1.4388   -1.1571 H   0  0  0  0  0  0  0  0  0  0  0  0
  1  2  1  0
  2  3  1  0
  3  4  1  0
  4  5  1  0
  3  6  1  0
  6  7  1  0
  7  8  1  0
  8  9  1  0
  9 10  1  0
 10 11  2  0
 11 12  1  0
 12 13  1  0
 13  9  2  0
  1 14  1  0
  2 15  1  0
  2 16  1  0
  3 17  1  0
  4 18  1  0
  4 19  1  0
  5 20  1  0
  6 21  1  0
  7 22  1  0
  7 23  1  0
  8 24  1  0
  8 25  1  0
 11 26  1  0
 12 27  1  0
M  END
$$$$

     RDKit          3D

 27 27  0  0  0  0  0  0  0  0999 V2000
   -2.4843   -2.4665   -0.0462 O   0  0  0  0  0  0  0  0  0  0  0  0
   -2.3972   -1.2321    0.6343 C   0  0  0  0  0  0  0  0  0  0  0  0
   -2.1469   -0.1055   -0.2743 C   0  0  0  0  0  0  0  0  0  0  0  0
   -2.3996    1.2597    0.3447 C   0  0  0  0  0  0  0  0  0  0  0  0
   -3.5633    1.2821    1.1280 O   0  0  0  0  0  0  0  0  0  0  0  0
   -0.9554   -0.1245   -1.0598 N   0  0  0  0  0  0  0  0  0  0  0  0
    0.2576   -0.1666   -0.3012 C   0  0  0  0  0  0  0  0  0  0  0  0
    1.4291    0.1797   -1.1967 C   0  0  0  0  0  0  0  0  0  0  0  0
    2.7107    0.1126   -0.4817 C   0  0  0  0  0  0  0  0  0  0  0  0
    2.8748   -0.3484    0.7735 N   0  0  0  0  0  0  0  0  0  0  0  0
    4.2025   -0.2307    1.0901 C   0  0  0  0  0  0  0  0  0  0  0  0
    4.7934    0.2987    0.0056 N   0  0  0  0  0  0  0  0  0  0  0  0
    3.9050    0.5069   -0.9354 N   0  0  0  0  0  0  0  0  0  0  0  0
   -3.4079   -2.5922   -0.3541 H   0  0  0  0  0  0  0  0  0  0  0  0
   -1.6713   -1.3502    1.4635 H   0  0  0  0  0  0  0  0  0  0  0  0
   -3.3849   -1.1040    1.1455 H   0  0  0  0  0  0  0  0  0  0  0  0
   -2.9776   -0.1760   -1.0669 H   0  0  0  0  0  0  0  0  0  0  0  0
   -1.5271    1.6181    0.9098 H   0  0  0  0  0  0  0  0  0  0  0  0
   -2.6310    2.0066   -0.4995 H   0  0  0  0  0  0  0  0  0  0  0  0
   -3.5635    2.1373    1.5756 H   0  0  0  0  0  0  0  0  0  0  0  0
   -1.0287    0.6605   -1.7385 H   0  0  0  0  0  0  0  0  0  0  0  0
    0.2611    0.4411    0.6114 H   0  0  0  0  0  0  0  0  0  0  0  0
    0.4474   -1.2515   -0.0119 H   0  0  0  0  0  0  0  0  0  0  0  0
    1.4597   -0.5452   -2.0589 H   0  0  0  0  0  0  0  0  0  0  0  0
    1.2633    1.1927   -1.6579 H   0  0  0  0  0  0  0  0  0  0  0  0
    4.6929   -0.5011    2.0076 H   0  0  0  0  0  0  0  0  0  0  0  0
    5.8411    0.4986   -0.0064 H   0  0  0  0  0  0  0  0  0  0  0  0
  1  2  1  0
  2  3  1  0
  3  4  1  0
  4  5  1  0
  3  6  1  0
  6  7  1  0
  7  8  1  0
  8  9  1  0
  9 10  1  0
 10 11  2  0
 11 12  1  0
 12 13  1  0
 13  9  2  0
  1 14  1  0
  2 15  1  0
  2 16  1  0
  3 17  1  0
  4 18  1  0
  4 19  1  0
  5 20  1  0
  6 21  1  0
  7 22  1  0
  7 23  1  0
  8 24  1  0
  8 25  1  0
 11 26  1  0
 12 27  1  0
M  END
$$$$

     RDKit          3D

 27 27  0  0  0  0  0  0  0  0999 V2000
   -4.2774   -0.3939   -0.0293 O   0  0  0  0  0  0  0  0  0  0  0  0
   -3.1420   -0.7637    0.6846 C   0  0  0  0  0  0  0  0  0  0  0  0
   -2.0080    0.1409    0.2279 C   0  0  0  0  0  0  0  0  0  0  0  0
   -1.9741    0.1999   -1.2679 C   0  0  0  0  0  0  0  0  0  0  0  0
   -3.2453    0.5779   -1.7642 O   0  0  0  0  0  0  0  0  0  0  0  0
   -0.8082   -0.1765    0.8932 N   0  0  0  0  0  0  0  0  0  0  0  0
    0.4112   -0.0698    0.0996 C   0  0  0  0  0  0  0  0  0  0  0  0
    1.5415   -0.1509    1.1269 C   0  0  0  0  0  0  0  0  0  0  0  0
    2.8456   -0.0359    0.4733 C   0  0  0  0  0  0  0  0  0  0  0  0
    3.4204    1.1484    0.2272 N   0  0  0  0  0  0  0  0  0  0  0  0
    4.6002    0.8943   -0.3528 C   0  0  0  0  0  0  0  0  0  0  0  0
    4.7720   -0.4418   -0.4742 N   0  0  0  0  0  0  0  0  0  0  0  0
    3.6789   -0.9755    0.0436 N   0  0  0  0  0  0  0  0  0  0  0  0
   -4.7588    0.2704    0.5193 H   0  0  0  0  0  0  0  0  0  0  0  0
   -2.9273   -1.8266    0.5678 H   0  0  0  0  0  0  0  0  0  0  0  0
   -3.3300   -0.5521    1.7810 H   0  0  0  0  0  0  0  0  0  0  0  0
   -2.3228    1.1728    0.5810 H   0  0  0  0  0  0  0  0  0  0  0  0
   -1.6972   -0.7713   -1.7544 H   0  0  0  0  0  0  0  0  0  0  0  0
   -1.2766    0.9731   -1.6581 H   0  0  0  0  0  0  0  0  0  0  0  0
   -3.4711    1.4202   -1.2488 H   0  0  0  0  0  0  0  0  0  0  0  0
   -0.8256   -1.0817    1.4416 H   0  0  0  0  0  0  0  0  0  0  0  0
    0.4382    0.9499   -0.3133 H   0  0  0  0  0  0  0  0  0  0  0  0
    0.4986   -0.8118   -0.6847 H   0  0  0  0  0  0  0  0  0  0  0  0
    1.4583   -1.0794    1.7373 H   0  0  0  0  0  0  0  0  0  0  0  0
    1.4519    0.7021    1.8536 H   0  0  0  0  0  0  0  0  0  0  0  0
    5.3528    1.6119   -0.6974 H   0  0  0  0  0  0  0  0  0  0  0  0
    5.5947   -0.9311   -0.8884 H   0  0  0  0  0  0  0  0  0  0  0  0
  1  2  1  0
  2  3  1  0
  3  4  1  0
  4  5  1  0
  3  6  1  0
  6  7  1  0
  7  8  1  0
  8  9  1  0
  9 10  1  0
 10 11  2  0
 11 12  1  0
 12 13  1  0
 13  9  2  0
  1 14  1  0
  2 15  1  0
  2 16  1  0
  3 17  1  0
  4 18  1  0
  4 19  1  0
  5 20  1  0
  6 21  1  0
  7 22  1  0
  7 23  1  0
  8 24  1  0
  8 25  1  0
 11 26  1  0
 12 27  1  0
M  END
$$$$

     RDKit          3D

 27 27  0  0  0  0  0  0  0  0999 V2000
   -1.3581   -1.6367   -0.9802 O   0  0  0  0  0  0  0  0  0  0  0  0
   -2.3140   -0.6723   -0.7814 C   0  0  0  0  0  0  0  0  0  0  0  0
   -1.7633    0.7299   -0.6652 C   0  0  0  0  0  0  0  0  0  0  0  0
   -2.9602    1.6655   -0.5145 C   0  0  0  0  0  0  0  0  0  0  0  0
   -3.6309    1.4092    0.6627 O   0  0  0  0  0  0  0  0  0  0  0  0
   -0.8706    0.9106    0.4016 N   0  0  0  0  0  0  0  0  0  0  0  0
    0.3397    0.2065    0.4507 C   0  0  0  0  0  0  0  0  0  0  0  0
    1.3654    0.5562   -0.5823 C   0  0  0  0  0  0  0  0  0  0  0  0
    2.5601   -0.3007   -0.3533 C   0  0  0  0  0  0  0  0  0  0  0  0
    3.7229   -0.3353   -1.0303 N   0  0  0  0  0  0  0  0  0  0  0  0
    4.5223   -1.2663   -0.4767 C   0  0  0  0  0  0  0  0  0  0  0  0
    3.8682   -1.8181    0.5458 N   0  0  0  0  0  0  0  0  0  0  0  0
    2.7031   -1.2341    0.6069 N   0  0  0  0  0  0  0  0  0  0  0  0
   -1.4623   -2.3758   -0.3430 H   0  0  0  0  0  0  0  0  0  0  0  0
   -2.9828   -0.6805   -1.6805 H   0  0  0  0  0  0  0  0  0  0  0  0
   -2.9834   -0.9143    0.0988 H   0  0  0  0  0  0  0  0  0  0  0  0
   -1.2846    0.9707   -1.6328 H   0  0  0  0  0  0  0  0  0  0  0  0
   -3.6805    1.5168   -1.3607 H   0  0  0  0  0  0  0  0  0  0  0  0
   -2.6361    2.7187   -0.5305 H   0  0  0  0  0  0  0  0  0  0  0  0
   -3.3296    1.9345    1.4419 H   0  0  0  0  0  0  0  0  0  0  0  0
   -1.3021    1.1522    1.3202 H   0  0  0  0  0  0  0  0  0  0  0  0
    0.8244    0.4758    1.4451 H   0  0  0  0  0  0  0  0  0  0  0  0
    0.2518   -0.8957    0.4917 H   0  0  0  0  0  0  0  0  0  0  0  0
    1.0469    0.3777   -1.6184 H   0  0  0  0  0  0  0  0  0  0  0  0
    1.6445    1.6388   -0.4951 H   0  0  0  0  0  0  0  0  0  0  0  0
    5.5226   -1.5619   -0.7622 H   0  0  0  0  0  0  0  0  0  0  0  0
    4.1865   -2.5713    1.1948 H   0  0  0  0  0  0  0  0  0  0  0  0
  1  2  1  0
  2  3  1  0
  3  4  1  0
  4  5  1  0
  3  6  1  0
  6  7  1  0
  7  8  1  0
  8  9  1  0
  9 10  1  0
 10 11  2  0
 11 12  1  0
 12 13  1  0
 13  9  2  0
  1 14  1  0
  2 15  1  0
  2 16  1  0
  3 17  1  0
  4 18  1  0
  4 19  1  0
  5 20  1  0
  6 21  1  0
  7 22  1  0
  7 23  1  0
  8 24  1  0
  8 25  1  0
 11 26  1  0
 12 27  1  0
M  END
$$$$
