
     RDKit          3D

 22 22  0  0  0  0  0  0  0  0999 V2000
   -3.0436    1.0975   -0.4029 C   0  0  0  0  0  0  0  0  0  0  0  0
   -3.0219   -0.3266   -0.4600 N   0  0  0  0  0  0  0  0  0  0  0  0
   -1.7782   -0.9475   -0.1296 C   0  0  0  0  0  0  0  0  0  0  0  0
   -1.4035   -0.7941    1.3260 C   0  0  0  0  0  0  0  0  0  0  0  0
    0.1759   -1.6408    1.5731 S   0  0  0  0  0  0  0  0  0  0  0  0
    1.5036   -0.8448    0.6729 C   0  0  0  0  0  0  0  0  0  0  0  0
    1.8089   -1.2004   -0.5932 N   0  0  0  0  0  0  0  0  0  0  0  0
    2.7992   -0.6030   -1.2532 N   0  0  0  0  0  0  0  0  0  0  0  0
    3.5337    0.3733   -0.6936 C   0  0  0  0  0  0  0  0  0  0  0  0
    4.4789    0.9225   -1.3773 N   0  0  0  0  0  0  0  0  0  0  0  0
    3.2235    0.7251    0.5741 N   0  0  0  0  0  0  0  0  0  0  0  0
    2.2303    0.1277    1.2393 N   0  0  0  0  0  0  0  0  0  0  0  0
   -3.8042    1.5505   -1.0747 H   0  0  0  0  0  0  0  0  0  0  0  0
   -2.0143    1.4638   -0.6072 H   0  0  0  0  0  0  0  0  0  0  0  0
   -3.3584    1.3864    0.6369 H   0  0  0  0  0  0  0  0  0  0  0  0
   -3.8717   -0.8245   -0.1941 H   0  0  0  0  0  0  0  0  0  0  0  0
   -1.0018   -0.5086   -0.7979 H   0  0  0  0  0  0  0  0  0  0  0  0
   -1.8662   -2.0299   -0.3521 H   0  0  0  0  0  0  0  0  0  0  0  0
   -2.1543   -1.3594    1.9331 H   0  0  0  0  0  0  0  0  0  0  0  0
   -1.3299    0.2667    1.6378 H   0  0  0  0  0  0  0  0  0  0  0  0
    5.0896    1.6781   -1.0228 H   0  0  0  0  0  0  0  0  0  0  0  0
    3.8042    1.4881    0.9950 H   0  0  0  0  0  0  0  0  0  0  0  0
  1  2  1  0
  2  3  1  0
  3  4  1  0
  4  5  1  0
  5  6  1  0
  6  7  1  0
  7  8  2  0
  8  9  1  0
  9 10  2  3
  9 11  1  0
 11 12  1  0
 12  6  2  0
  1 13  1  0
  1 14  1  0
  1 15  1  0
  2 16  1  0
  3 17  1  0
  3 18  1  0
  4 19  1  0
  4 20  1  0
 10 21  1  0
 11 22  1  0
M  END
$$$$

     RDKit          3D

 22 22  0  0  0  0  0  0  0  0999 V2000
   -4.3983    0.3745    0.4659 C   0  0  0  0  0  0  0  0  0  0  0  0
   -2.9554    0.6015    0.4985 N   0  0  0  0  0  0  0  0  0  0  0  0
   -2.3179   -0.6683    0.3500 C   0  0  0  0  0  0  0  0  0  0  0  0
   -0.8192   -0.5996    0.3641 C   0  0  0  0  0  0  0  0  0  0  0  0
   -0.1511    0.4219   -0.9541 S   0  0  0  0  0  0  0  0  0  0  0  0
    1.6304    0.4279   -0.8363 C   0  0  0  0  0  0  0  0  0  0  0  0
    2.4069    1.1147   -1.6994 N   0  0  0  0  0  0  0  0  0  0  0  0
    3.7347    1.1061   -1.5942 N   0  0  0  0  0  0  0  0  0  0  0  0
    4.3434    0.4102   -0.6209 C   0  0  0  0  0  0  0  0  0  0  0  0
    5.6368    0.4292   -0.5550 N   0  0  0  0  0  0  0  0  0  0  0  0
    3.5856   -0.2835    0.2529 N   0  0  0  0  0  0  0  0  0  0  0  0
    2.2640   -0.2606    0.1288 N   0  0  0  0  0  0  0  0  0  0  0  0
   -4.9003    0.7943    1.3605 H   0  0  0  0  0  0  0  0  0  0  0  0
   -4.6434   -0.7131    0.4643 H   0  0  0  0  0  0  0  0  0  0  0  0
   -4.8627    0.7913   -0.4505 H   0  0  0  0  0  0  0  0  0  0  0  0
   -2.6678    1.3104   -0.2012 H   0  0  0  0  0  0  0  0  0  0  0  0
   -2.6450   -1.1062   -0.6119 H   0  0  0  0  0  0  0  0  0  0  0  0
   -2.6224   -1.2997    1.2188 H   0  0  0  0  0  0  0  0  0  0  0  0
   -0.4501   -1.6479    0.1849 H   0  0  0  0  0  0  0  0  0  0  0  0
   -0.4049   -0.3048    1.3394 H   0  0  0  0  0  0  0  0  0  0  0  0
    6.1615   -0.0871    0.1722 H   0  0  0  0  0  0  0  0  0  0  0  0
    4.0752   -0.8111    0.9927 H   0  0  0  0  0  0  0  0  0  0  0  0
  1  2  1  0
  2  3  1  0
  3  4  1  0
  4  5  1  0
  5  6  1  0
  6  7  1  0
  7  8  2  0
  8  9  1  0
  9 10  2  3
  9 11  1  0
 11 12  1  0
 12  6  2  0
  1 13  1  0
  1 14  1  0
  1 15  1  0
  2 16  1  0
  3 17  1  0
  3 18  1  0
  4 19  1  0
  4 20  1  0
 10 21  1  0
 11 22  1  0
M  END
$$$$

     RDKit          3D

 22 22  0  0  0  0  0  0  0  0999 V2000
   -4.0821    0.5860    0.4244 C   0  0  0  0  0  0  0  0  0  0  0  0
   -2.9296    0.2649   -0.3471 N   0  0  0  0  0  0  0  0  0  0  0  0
   -2.0128   -0.7130    0.2598 C   0  0  0  0  0  0  0  0  0  0  0  0
   -1.0774   -1.0514   -0.9271 C   0  0  0  0  0  0  0  0  0  0  0  0
   -0.1326    0.4112   -1.3545 S   0  0  0  0  0  0  0  0  0  0  0  0
    1.4884    0.3165   -0.5779 C   0  0  0  0  0  0  0  0  0  0  0  0
    1.9003   -0.7228    0.1452 N   0  0  0  0  0  0  0  0  0  0  0  0
    3.1802   -0.8307    0.6097 N   0  0  0  0  0  0  0  0  0  0  0  0
    4.0802    0.1453    0.3359 C   0  0  0  0  0  0  0  0  0  0  0  0
    5.3235    0.0493    0.6893 N   0  0  0  0  0  0  0  0  0  0  0  0
    3.6455    1.1930   -0.3918 N   0  0  0  0  0  0  0  0  0  0  0  0
    2.3855    1.3070   -0.8525 N   0  0  0  0  0  0  0  0  0  0  0  0
   -4.3317   -0.2785    1.0933 H   0  0  0  0  0  0  0  0  0  0  0  0
   -3.9858    1.5040    1.0073 H   0  0  0  0  0  0  0  0  0  0  0  0
   -4.9841    0.7001   -0.2621 H   0  0  0  0  0  0  0  0  0  0  0  0
   -2.4362    1.0608   -0.7924 H   0  0  0  0  0  0  0  0  0  0  0  0
   -2.6051   -1.6036    0.5640 H   0  0  0  0  0  0  0  0  0  0  0  0
   -1.3962   -0.2576    1.0449 H   0  0  0  0  0  0  0  0  0  0  0  0
   -0.3784   -1.8759   -0.5922 H   0  0  0  0  0  0  0  0  0  0  0  0
   -1.7055   -1.4216   -1.7488 H   0  0  0  0  0  0  0  0  0  0  0  0
    5.7060   -0.7531    1.1867 H   0  0  0  0  0  0  0  0  0  0  0  0
    4.3478    1.9702   -0.5902 H   0  0  0  0  0  0  0  0  0  0  0  0
  1  2  1  0
  2  3  1  0
  3  4  1  0
  4  5  1  0
  5  6  1  0
  6  7  1  0
  7  8  2  0
  8  9  1  0
  9 10  2  3
  9 11  1  0
 11 12  1  0
 12  6  2  0
  1 13  1  0
  1 14  1  0
  1 15  1  0
  2 16  1  0
  3 17  1  0
  3 18  1  0
  4 19  1  0
  4 20  1  0
 10 21  1  0
 11 22  1  0
M  END
$$$$

     RDKit          3D

 22 22  0  0  0  0  0  0  0  0999 V2000
   -2.5745   -1.0487   -0.4954 C   0  0  0  0  0  0  0  0  0  0  0  0
   -2.8222    0.3065   -0.6757 N   0  0  0  0  0  0  0  0  0  0  0  0
   -1.8380    1.2796   -0.5614 C   0  0  0  0  0  0  0  0  0  0  0  0
   -1.3263    1.4892    0.8299 C   0  0  0  0  0  0  0  0  0  0  0  0
   -0.5688   -0.0460    1.4064 S   0  0  0  0  0  0  0  0  0  0  0  0
    0.9413   -0.3953    0.4757 C   0  0  0  0  0  0  0  0  0  0  0  0
    0.9347   -1.1061   -0.6596 N   0  0  0  0  0  0  0  0  0  0  0  0
    2.0802   -1.3410   -1.3137 N   0  0  0  0  0  0  0  0  0  0  0  0
    3.2690   -0.8875   -0.8772 C   0  0  0  0  0  0  0  0  0  0  0  0
    4.3653   -1.1146   -1.5075 N   0  0  0  0  0  0  0  0  0  0  0  0
    3.2730   -0.1684    0.2725 N   0  0  0  0  0  0  0  0  0  0  0  0
    2.1301    0.0577    0.9119 N   0  0  0  0  0  0  0  0  0  0  0  0
   -1.7688   -1.4901   -1.1478 H   0  0  0  0  0  0  0  0  0  0  0  0
   -2.4810   -1.3939    0.5550 H   0  0  0  0  0  0  0  0  0  0  0  0
   -3.5031   -1.6048   -0.8613 H   0  0  0  0  0  0  0  0  0  0  0  0
   -3.8118    0.6211   -0.6714 H   0  0  0  0  0  0  0  0  0  0  0  0
   -2.1596    2.2846   -0.9471 H   0  0  0  0  0  0  0  0  0  0  0  0
   -0.9253    1.0351   -1.1872 H   0  0  0  0  0  0  0  0  0  0  0  0
   -2.1171    1.7872    1.5437 H   0  0  0  0  0  0  0  0  0  0  0  0
   -0.5484    2.3077    0.7997 H   0  0  0  0  0  0  0  0  0  0  0  0
    5.2496   -0.7501   -1.1377 H   0  0  0  0  0  0  0  0  0  0  0  0
    4.2018    0.1777    0.6018 H   0  0  0  0  0  0  0  0  0  0  0  0
  1  2  1  0
  2  3  1  0
  3  4  1  0
  4  5  1  0
  5  6  1  0
  6  7  1  0
  7  8  2  0
  8  9  1  0
  9 10  2  3
  9 11  1  0
 11 12  1  0
 12  6  2  0
  1 13  1  0
  1 14  1  0
  1 15  1  0
  2 16  1  0
  3 17  1  0
  3 18  1  0
  4 19  1  0
  4 20  1  0
 10 21  1  0
 11 22  1  0
M  END
$$$$

     RDKit          3D

 22 22  0  0  0  0  0  0  0  0999 V2000
   -3.7813    0.3042   -0.2351 C   0  0  0  0  0  0  0  0  0  0  0  0
   -2.5408    0.2183   -1.0108 N   0  0  0  0  0  0  0  0  0  0  0  0
   -1.4608    0.5223   -0.0806 C   0  0  0  0  0  0  0  0  0  0  0  0
   -1.3393   -0.6040    0.9460 C   0  0  0  0  0  0  0  0  0  0  0  0
    0.0156   -0.1490    2.0612 S   0  0  0  0  0  0  0  0  0  0  0  0
    1.5254   -0.1812    1.0930 C   0  0  0  0  0  0  0  0  0  0  0  0
    2.7220    0.1176    1.6462 N   0  0  0  0  0  0  0  0  0  0  0  0
    3.8366    0.0961    0.9324 N   0  0  0  0  0  0  0  0  0  0  0  0
    3.8422   -0.2226   -0.3774 C   0  0  0  0  0  0  0  0  0  0  0  0
    4.9133   -0.2501   -1.0917 N   0  0  0  0  0  0  0  0  0  0  0  0
    2.6545   -0.5206   -0.9337 N   0  0  0  0  0  0  0  0  0  0  0  0
    1.5394   -0.4977   -0.2131 N   0  0  0  0  0  0  0  0  0  0  0  0
   -4.5748    0.6045   -0.9344 H   0  0  0  0  0  0  0  0  0  0  0  0
   -3.6280    1.0209    0.5934 H   0  0  0  0  0  0  0  0  0  0  0  0
   -4.0043   -0.7126    0.1920 H   0  0  0  0  0  0  0  0  0  0  0  0
   -2.5699    1.0440   -1.6822 H   0  0  0  0  0  0  0  0  0  0  0  0
   -0.5019    0.6748   -0.5732 H   0  0  0  0  0  0  0  0  0  0  0  0
   -1.7500    1.4586    0.4455 H   0  0  0  0  0  0  0  0  0  0  0  0
   -1.0483   -1.5090    0.3679 H   0  0  0  0  0  0  0  0  0  0  0  0
   -2.2965   -0.7529    1.4850 H   0  0  0  0  0  0  0  0  0  0  0  0
    5.8355   -0.0185   -0.6636 H   0  0  0  0  0  0  0  0  0  0  0  0
    2.6116   -0.7748   -1.9668 H   0  0  0  0  0  0  0  0  0  0  0  0
  1  2  1  0
  2  3  1  0
  3  4  1  0
  4  5  1  0
  5  6  1  0
  6  7  1  0
  7  8  2  0
  8  9  1  0
  9 10  2  3
  9 11  1  0
 11 12  1  0
 12  6  2  0
  1 13  1  0
  1 14  1  0
  1 15  1  0
  2 16  1  0
  3 17  1  0
  3 18  1  0
  4 19  1  0
  4 20  1  0
 10 21  1  0
 11 22  1  0
M  END
$$$$

     RDKit          3D

 22 22  0  0  0  0  0  0  0  0999 V2000
   -4.4211    0.1554   -0.5639 C   0  0  0  0  0  0  0  0  0  0  0  0
   -2.9765   -0.1402   -0.6676 N   0  0  0  0  0  0  0  0  0  0  0  0
   -2.3533    0.5983    0.4045 C   0  0  0  0  0  0  0  0  0  0  0  0
   -0.8708    0.5874    0.3392 C   0  0  0  0  0  0  0  0  0  0  0  0
   -0.0767   -1.0124    0.4291 S   0  0  0  0  0  0  0  0  0  0  0  0
    1.6947   -0.7565    0.2901 C   0  0  0  0  0  0  0  0  0  0  0  0
    2.1799    0.5094    0.1448 N   0  0  0  0  0  0  0  0  0  0  0  0
    3.4486    0.7918    0.0325 N   0  0  0  0  0  0  0  0  0  0  0  0
    4.3664   -0.2159    0.0564 C   0  0  0  0  0  0  0  0  0  0  0  0
    5.6076    0.0629   -0.0651 N   0  0  0  0  0  0  0  0  0  0  0  0
    3.9024   -1.4494    0.1984 N   0  0  0  0  0  0  0  0  0  0  0  0
    2.6054   -1.7257    0.3130 N   0  0  0  0  0  0  0  0  0  0  0  0
   -4.9281   -0.1997   -1.4806 H   0  0  0  0  0  0  0  0  0  0  0  0
   -4.4813    1.2642   -0.4417 H   0  0  0  0  0  0  0  0  0  0  0  0
   -4.8167   -0.2935    0.3676 H   0  0  0  0  0  0  0  0  0  0  0  0
   -2.8875   -1.1798   -0.4971 H   0  0  0  0  0  0  0  0  0  0  0  0
   -2.7564    0.1835    1.3638 H   0  0  0  0  0  0  0  0  0  0  0  0
   -2.6680    1.6786    0.3289 H   0  0  0  0  0  0  0  0  0  0  0  0
   -0.5847    1.1052   -0.6307 H   0  0  0  0  0  0  0  0  0  0  0  0
   -0.4781    1.2161    1.1905 H   0  0  0  0  0  0  0  0  0  0  0  0
    5.9129    1.0592   -0.1814 H   0  0  0  0  0  0  0  0  0  0  0  0
    4.5811   -2.2390    0.2263 H   0  0  0  0  0  0  0  0  0  0  0  0
  1  2  1  0
  2  3  1  0
  3  4  1  0
  4  5  1  0
  5  6  1  0
  6  7  1  0
  7  8  2  0
  8  9  1  0
  9 10  2  3
  9 11  1  0
 11 12  1  0
 12  6  2  0
  1 13  1  0
  1 14  1  0
  1 15  1  0
  2 16  1  0
  3 17  1  0
  3 18  1  0
  4 19  1  0
  4 20  1  0
 10 21  1  0
 11 22  1  0
M  END
$$$$

     RDKit          3D

 22 22  0  0  0  0  0  0  0  0999 V2000
   -3.5595    0.6617   -0.8732 C   0  0  0  0  0  0  0  0  0  0  0  0
   -2.7359    1.1106    0.2227 N   0  0  0  0  0  0  0  0  0  0  0  0
   -1.7427    0.1450    0.6129 C   0  0  0  0  0  0  0  0  0  0  0  0
   -0.9537    0.7293    1.7617 C   0  0  0  0  0  0  0  0  0  0  0  0
    0.3343   -0.3716    2.3622 S   0  0  0  0  0  0  0  0  0  0  0  0
    1.5791   -0.5555    1.0703 C   0  0  0  0  0  0  0  0  0  0  0  0
    1.4428    0.0826   -0.1031 N   0  0  0  0  0  0  0  0  0  0  0  0
    2.3483   -0.0411   -1.0611 N   0  0  0  0  0  0  0  0  0  0  0  0
    3.4244   -0.8213   -0.8525 C   0  0  0  0  0  0  0  0  0  0  0  0
    4.3409   -0.9676   -1.7758 N   0  0  0  0  0  0  0  0  0  0  0  0
    3.5878   -1.4714    0.3096 N   0  0  0  0  0  0  0  0  0  0  0  0
    2.6612   -1.3298    1.2583 N   0  0  0  0  0  0  0  0  0  0  0  0
   -4.0766    1.5013   -1.3557 H   0  0  0  0  0  0  0  0  0  0  0  0
   -4.3483    0.0068   -0.3995 H   0  0  0  0  0  0  0  0  0  0  0  0
   -3.0446    0.0660   -1.6227 H   0  0  0  0  0  0  0  0  0  0  0  0
   -2.3478    2.0633    0.0789 H   0  0  0  0  0  0  0  0  0  0  0  0
   -2.2794   -0.7647    0.9712 H   0  0  0  0  0  0  0  0  0  0  0  0
   -1.0668   -0.1624   -0.1995 H   0  0  0  0  0  0  0  0  0  0  0  0
   -0.5260    1.7032    1.3940 H   0  0  0  0  0  0  0  0  0  0  0  0
   -1.6743    0.9588    2.5949 H   0  0  0  0  0  0  0  0  0  0  0  0
    4.2046   -0.4639   -2.6614 H   0  0  0  0  0  0  0  0  0  0  0  0
    4.4321   -2.0793    0.4641 H   0  0  0  0  0  0  0  0  0  0  0  0
  1  2  1  0
  2  3  1  0
  3  4  1  0
  4  5  1  0
  5  6  1  0
  6  7  1  0
  7  8  2  0
  8  9  1  0
  9 10  2  3
  9 11  1  0
 11 12  1  0
 12  6  2  0
  1 13  1  0
  1 14  1  0
  1 15  1  0
  2 16  1  0
  3 17  1  0
  3 18  1  0
  4 19  1  0
  4 20  1  0
 10 21  1  0
 11 22  1  0
M  END
$$$$

     RDKit          3D

 22 22  0  0  0  0  0  0  0  0999 V2000
   -3.3108    0.4502    0.7839 C   0  0  0  0  0  0  0  0  0  0  0  0
   -3.1334   -0.8436    0.1980 N   0  0  0  0  0  0  0  0  0  0  0  0
   -2.4801   -0.6722   -1.1114 C   0  0  0  0  0  0  0  0  0  0  0  0
   -1.0614   -0.1862   -0.9117 C   0  0  0  0  0  0  0  0  0  0  0  0
   -0.0900   -1.3651    0.0565 S   0  0  0  0  0  0  0  0  0  0  0  0
    1.5507   -0.6886    0.2641 C   0  0  0  0  0  0  0  0  0  0  0  0
    2.5107   -1.3501    0.9523 N   0  0  0  0  0  0  0  0  0  0  0  0
    3.7104   -0.8102    1.0846 N   0  0  0  0  0  0  0  0  0  0  0  0
    4.0520    0.3801    0.5698 C   0  0  0  0  0  0  0  0  0  0  0  0
    5.2288    0.9095    0.7005 N   0  0  0  0  0  0  0  0  0  0  0  0
    3.0842    1.0420   -0.1233 N   0  0  0  0  0  0  0  0  0  0  0  0
    1.8879    0.5052   -0.2549 N   0  0  0  0  0  0  0  0  0  0  0  0
   -4.0051    0.4239    1.6592 H   0  0  0  0  0  0  0  0  0  0  0  0
   -2.3421    0.8903    1.1427 H   0  0  0  0  0  0  0  0  0  0  0  0
   -3.7146    1.1339    0.0234 H   0  0  0  0  0  0  0  0  0  0  0  0
   -4.0911   -1.2278   -0.0151 H   0  0  0  0  0  0  0  0  0  0  0  0
   -2.4261   -1.6553   -1.6098 H   0  0  0  0  0  0  0  0  0  0  0  0
   -3.0519    0.0812   -1.6707 H   0  0  0  0  0  0  0  0  0  0  0  0
   -0.6018   -0.1654   -1.9475 H   0  0  0  0  0  0  0  0  0  0  0  0
   -1.0013    0.8452   -0.5213 H   0  0  0  0  0  0  0  0  0  0  0  0
    5.9189    0.3404    1.2465 H   0  0  0  0  0  0  0  0  0  0  0  0
    3.3662    1.9626   -0.5157 H   0  0  0  0  0  0  0  0  0  0  0  0
  1  2  1  0
  2  3  1  0
  3  4  1  0
  4  5  1  0
  5  6  1  0
  6  7  1  0
  7  8  2  0
  8  9  1  0
  9 10  2  3
  9 11  1  0
 11 12  1  0
 12  6  2  0
  1 13  1  0
  1 14  1  0
  1 15  1  0
  2 16  1  0
  3 17  1  0
  3 18  1  0
  4 19  1  0
  4 20  1  0
 10 21  1  0
 11 22  1  0
M  END
$$$$
