
     RDKit          3D

 28 29  0  0  0  0  0  0  0  0999 V2000
    2.7133    1.6192   -0.8395 C   0  0  0  0  0  0  0  0  0  0  0  0
    2.4733    0.2525   -0.4766 N   0  0  0  0  0  0  0  0  0  0  0  0
    3.4203   -0.6993   -0.4848 C   0  0  0  0  0  0  0  0  0  0  0  0
    2.8566   -1.8330   -0.0984 N   0  0  0  0  0  0  0  0  0  0  0  0
    1.5667   -1.5826    0.1474 N   0  0  0  0  0  0  0  0  0  0  0  0
    1.2826   -0.2941   -0.0753 C   0  0  0  0  0  0  0  0  0  0  0  0
    0.2380    0.3997    0.0138 N   0  0  0  0  0  0  0  0  0  0  0  0
   -1.0655    0.0088    0.4066 C   0  0  2  0  0  0  0  0  0  0  0  0
   -1.1119   -0.3578    1.8849 C   0  0  0  0  0  0  0  0  0  0  0  0
   -0.7387    0.7083    2.6767 O   0  0  0  0  0  0  0  0  0  0  0  0
   -1.6458   -1.0904   -0.4509 C   0  0  0  0  0  0  0  0  0  0  0  0
   -2.4697   -0.3324   -1.4568 C   0  0  0  0  0  0  0  0  0  0  0  0
   -2.2323    1.0198   -1.2350 O   0  0  0  0  0  0  0  0  0  0  0  0
   -2.0956    1.1126    0.1444 C   0  0  0  0  0  0  0  0  0  0  0  0
    3.6063    1.7111   -1.4722 H   0  0  0  0  0  0  0  0  0  0  0  0
    1.8089    2.0483   -1.2992 H   0  0  0  0  0  0  0  0  0  0  0  0
    2.9186    2.1966    0.0896 H   0  0  0  0  0  0  0  0  0  0  0  0
    4.4692   -0.5801   -0.7570 H   0  0  0  0  0  0  0  0  0  0  0  0
    0.8797   -2.2970    0.4686 H   0  0  0  0  0  0  0  0  0  0  0  0
   -2.2033   -0.5728    2.0864 H   0  0  0  0  0  0  0  0  0  0  0  0
   -0.5216   -1.2640    2.0606 H   0  0  0  0  0  0  0  0  0  0  0  0
   -0.4639    1.5069    2.1543 H   0  0  0  0  0  0  0  0  0  0  0  0
   -0.8874   -1.6978   -0.9825 H   0  0  0  0  0  0  0  0  0  0  0  0
   -2.2865   -1.7114    0.2177 H   0  0  0  0  0  0  0  0  0  0  0  0
   -3.5371   -0.5824   -1.2950 H   0  0  0  0  0  0  0  0  0  0  0  0
   -2.1808   -0.5478   -2.5091 H   0  0  0  0  0  0  0  0  0  0  0  0
   -1.7538    2.0912    0.4871 H   0  0  0  0  0  0  0  0  0  0  0  0
   -3.0394    0.7676    0.5943 H   0  0  0  0  0  0  0  0  0  0  0  0
  1  2  1  0
  2  3  1  0
  3  4  2  0
  4  5  1  0
  5  6  1  0
  6  7  2  3
  7  8  1  0
  8  9  1  1
  9 10  1  0
  8 11  1  0
 11 12  1  0
 12 13  1  0
 13 14  1  0
  6  2  1  0
 14  8  1  0
  1 15  1  0
  1 16  1  0
  1 17  1  0
  3 18  1  0
  5 19  1  0
  9 20  1  0
  9 21  1  0
 10 22  1  0
 11 23  1  0
 11 24  1  0
 12 25  1  0
 12 26  1  0
 14 27  1  0
 14 28  1  0
M  END
$$$$

     RDKit          3D

 28 29  0  0  0  0  0  0  0  0999 V2000
    3.0887    1.1438    0.6012 C   0  0  0  0  0  0  0  0  0  0  0  0
    2.6378    0.1450   -0.3684 N   0  0  0  0  0  0  0  0  0  0  0  0
    3.3620   -0.5353   -1.2388 C   0  0  0  0  0  0  0  0  0  0  0  0
    2.5486   -1.3323   -1.9200 N   0  0  0  0  0  0  0  0  0  0  0  0
    1.3008   -1.1631   -1.4861 N   0  0  0  0  0  0  0  0  0  0  0  0
    1.3429   -0.2463   -0.5204 C   0  0  0  0  0  0  0  0  0  0  0  0
    0.4193    0.2302    0.1738 N   0  0  0  0  0  0  0  0  0  0  0  0
   -0.9644   -0.0399    0.1686 C   0  0  2  0  0  0  0  0  0  0  0  0
   -1.6312    0.4490   -1.0933 C   0  0  0  0  0  0  0  0  0  0  0  0
   -1.4918    1.8243   -1.2556 O   0  0  0  0  0  0  0  0  0  0  0  0
   -1.6586    0.5740    1.4012 C   0  0  0  0  0  0  0  0  0  0  0  0
   -2.9193   -0.2552    1.3932 C   0  0  0  0  0  0  0  0  0  0  0  0
   -2.5289   -1.5290    1.0933 O   0  0  0  0  0  0  0  0  0  0  0  0
   -1.3404   -1.4817    0.3929 C   0  0  0  0  0  0  0  0  0  0  0  0
    2.5217    1.0153    1.5233 H   0  0  0  0  0  0  0  0  0  0  0  0
    4.1642    0.9899    0.7565 H   0  0  0  0  0  0  0  0  0  0  0  0
    2.8613    2.1485    0.1694 H   0  0  0  0  0  0  0  0  0  0  0  0
    4.4388   -0.4411   -1.3580 H   0  0  0  0  0  0  0  0  0  0  0  0
    0.4942   -1.7006   -1.8932 H   0  0  0  0  0  0  0  0  0  0  0  0
   -2.6989    0.1612   -1.1453 H   0  0  0  0  0  0  0  0  0  0  0  0
   -1.1589   -0.0152   -1.9784 H   0  0  0  0  0  0  0  0  0  0  0  0
   -0.9637    2.2079   -0.5154 H   0  0  0  0  0  0  0  0  0  0  0  0
   -1.8126    1.6379    1.2997 H   0  0  0  0  0  0  0  0  0  0  0  0
   -1.0568    0.2520    2.2667 H   0  0  0  0  0  0  0  0  0  0  0  0
   -3.6479    0.1281    0.6384 H   0  0  0  0  0  0  0  0  0  0  0  0
   -3.3952   -0.1760    2.3963 H   0  0  0  0  0  0  0  0  0  0  0  0
   -0.5312   -1.9191    1.0452 H   0  0  0  0  0  0  0  0  0  0  0  0
   -1.3806   -2.0725   -0.5467 H   0  0  0  0  0  0  0  0  0  0  0  0
  1  2  1  0
  2  3  1  0
  3  4  2  0
  4  5  1  0
  5  6  1  0
  6  7  2  3
  7  8  1  0
  8  9  1  6
  9 10  1  0
  8 11  1  0
 11 12  1  0
 12 13  1  0
 13 14  1  0
  6  2  1  0
 14  8  1  0
  1 15  1  0
  1 16  1  0
  1 17  1  0
  3 18  1  0
  5 19  1  0
  9 20  1  0
  9 21  1  0
 10 22  1  0
 11 23  1  0
 11 24  1  0
 12 25  1  0
 12 26  1  0
 14 27  1  0
 14 28  1  0
M  END
$$$$

     RDKit          3D

 28 29  0  0  0  0  0  0  0  0999 V2000
    3.0838   -0.6739   -1.3707 C   0  0  0  0  0  0  0  0  0  0  0  0
    2.6228   -0.0749   -0.1216 N   0  0  0  0  0  0  0  0  0  0  0  0
    3.4209    0.3665    0.8425 C   0  0  0  0  0  0  0  0  0  0  0  0
    2.6516    0.8412    1.8168 N   0  0  0  0  0  0  0  0  0  0  0  0
    1.3802    0.6991    1.4675 N   0  0  0  0  0  0  0  0  0  0  0  0
    1.3391    0.1291    0.2604 C   0  0  0  0  0  0  0  0  0  0  0  0
    0.3481   -0.1965   -0.4667 N   0  0  0  0  0  0  0  0  0  0  0  0
   -1.0361   -0.0042   -0.1133 C   0  0  2  0  0  0  0  0  0  0  0  0
   -1.3810    1.4574   -0.2638 C   0  0  0  0  0  0  0  0  0  0  0  0
   -1.1469    1.7780   -1.6176 O   0  0  0  0  0  0  0  0  0  0  0  0
   -1.4169   -0.5797    1.2078 C   0  0  0  0  0  0  0  0  0  0  0  0
   -2.6521   -1.3825    0.8521 C   0  0  0  0  0  0  0  0  0  0  0  0
   -2.2611   -1.9403   -0.3647 O   0  0  0  0  0  0  0  0  0  0  0  0
   -1.9551   -0.7596   -1.0838 C   0  0  0  0  0  0  0  0  0  0  0  0
    4.0031   -0.1412   -1.6980 H   0  0  0  0  0  0  0  0  0  0  0  0
    2.2861   -0.4688   -2.1301 H   0  0  0  0  0  0  0  0  0  0  0  0
    3.2344   -1.7524   -1.2193 H   0  0  0  0  0  0  0  0  0  0  0  0
    4.5190    0.3269    0.8011 H   0  0  0  0  0  0  0  0  0  0  0  0
    0.5337    0.9848    2.0389 H   0  0  0  0  0  0  0  0  0  0  0  0
   -2.4827    1.6122   -0.0787 H   0  0  0  0  0  0  0  0  0  0  0  0
   -0.8265    2.1138    0.4159 H   0  0  0  0  0  0  0  0  0  0  0  0
   -1.1485    2.7512   -1.7203 H   0  0  0  0  0  0  0  0  0  0  0  0
   -0.6348   -1.2604    1.5763 H   0  0  0  0  0  0  0  0  0  0  0  0
   -1.7219    0.1789    1.9631 H   0  0  0  0  0  0  0  0  0  0  0  0
   -2.9173   -2.1190    1.6083 H   0  0  0  0  0  0  0  0  0  0  0  0
   -3.4696   -0.6602    0.6261 H   0  0  0  0  0  0  0  0  0  0  0  0
   -1.4475   -0.9914   -2.0215 H   0  0  0  0  0  0  0  0  0  0  0  0
   -2.9247   -0.2339   -1.2068 H   0  0  0  0  0  0  0  0  0  0  0  0
  1  2  1  0
  2  3  1  0
  3  4  2  0
  4  5  1  0
  5  6  1  0
  6  7  2  3
  7  8  1  0
  8  9  1  1
  9 10  1  0
  8 11  1  0
 11 12  1  0
 12 13  1  0
 13 14  1  0
  6  2  1  0
 14  8  1  0
  1 15  1  0
  1 16  1  0
  1 17  1  0
  3 18  1  0
  5 19  1  0
  9 20  1  0
  9 21  1  0
 10 22  1  0
 11 23  1  0
 11 24  1  0
 12 25  1  0
 12 26  1  0
 14 27  1  0
 14 28  1  0
M  END
$$$$

     RDKit          3D

 28 29  0  0  0  0  0  0  0  0999 V2000
    3.2365    0.1813   -1.3753 C   0  0  0  0  0  0  0  0  0  0  0  0
    2.7240   -0.1735   -0.0682 N   0  0  0  0  0  0  0  0  0  0  0  0
    3.4880   -0.5361    0.9618 C   0  0  0  0  0  0  0  0  0  0  0  0
    2.6914   -0.7902    1.9997 N   0  0  0  0  0  0  0  0  0  0  0  0
    1.4316   -0.5816    1.6019 N   0  0  0  0  0  0  0  0  0  0  0  0
    1.4149   -0.1977    0.3233 C   0  0  0  0  0  0  0  0  0  0  0  0
    0.4393    0.0871   -0.3966 N   0  0  0  0  0  0  0  0  0  0  0  0
   -0.9450    0.1300   -0.2115 C   0  0  2  0  0  0  0  0  0  0  0  0
   -1.6856    0.5902   -1.4764 C   0  0  0  0  0  0  0  0  0  0  0  0
   -1.4442   -0.2614   -2.5393 O   0  0  0  0  0  0  0  0  0  0  0  0
   -1.4379    1.0724    0.8785 C   0  0  0  0  0  0  0  0  0  0  0  0
   -2.8018    0.4823    1.1664 C   0  0  0  0  0  0  0  0  0  0  0  0
   -2.8946   -0.7222    0.5285 O   0  0  0  0  0  0  0  0  0  0  0  0
   -1.6160   -1.1485    0.2054 C   0  0  0  0  0  0  0  0  0  0  0  0
    3.7592   -0.6838   -1.7943 H   0  0  0  0  0  0  0  0  0  0  0  0
    2.4094    0.5092   -2.0339 H   0  0  0  0  0  0  0  0  0  0  0  0
    4.0014    0.9778   -1.2172 H   0  0  0  0  0  0  0  0  0  0  0  0
    4.5741   -0.6090    0.9475 H   0  0  0  0  0  0  0  0  0  0  0  0
    0.6490   -0.7306    2.2853 H   0  0  0  0  0  0  0  0  0  0  0  0
   -2.7723    0.5172   -1.2083 H   0  0  0  0  0  0  0  0  0  0  0  0
   -1.4850    1.6388   -1.7015 H   0  0  0  0  0  0  0  0  0  0  0  0
   -2.0433   -1.0526   -2.5468 H   0  0  0  0  0  0  0  0  0  0  0  0
   -1.5316    2.1027    0.4705 H   0  0  0  0  0  0  0  0  0  0  0  0
   -0.7816    1.0872    1.7685 H   0  0  0  0  0  0  0  0  0  0  0  0
   -3.5899    1.2059    0.8063 H   0  0  0  0  0  0  0  0  0  0  0  0
   -2.9399    0.4126    2.2628 H   0  0  0  0  0  0  0  0  0  0  0  0
   -1.7181   -1.8346   -0.6781 H   0  0  0  0  0  0  0  0  0  0  0  0
   -1.1318   -1.6728    1.0411 H   0  0  0  0  0  0  0  0  0  0  0  0
  1  2  1  0
  2  3  1  0
  3  4  2  0
  4  5  1  0
  5  6  1  0
  6  7  2  3
  7  8  1  0
  8  9  1  6
  9 10  1  0
  8 11  1  0
 11 12  1  0
 12 13  1  0
 13 14  1  0
  6  2  1  0
 14  8  1  0
  1 15  1  0
  1 16  1  0
  1 17  1  0
  3 18  1  0
  5 19  1  0
  9 20  1  0
  9 21  1  0
 10 22  1  0
 11 23  1  0
 11 24  1  0
 12 25  1  0
 12 26  1  0
 14 27  1  0
 14 28  1  0
M  END
$$$$

     RDKit          3D

 28 29  0  0  0  0  0  0  0  0999 V2000
    3.1396   -0.2664   -0.8764 C   0  0  0  0  0  0  0  0  0  0  0  0
    2.4816    0.4421    0.2301 N   0  0  0  0  0  0  0  0  0  0  0  0
    3.1099    1.2178    1.1306 C   0  0  0  0  0  0  0  0  0  0  0  0
    2.1604    1.6714    1.9609 N   0  0  0  0  0  0  0  0  0  0  0  0
    1.0018    1.1788    1.5642 N   0  0  0  0  0  0  0  0  0  0  0  0
    1.1641    0.4039    0.4825 C   0  0  0  0  0  0  0  0  0  0  0  0
    0.3260   -0.2387   -0.1902 N   0  0  0  0  0  0  0  0  0  0  0  0
   -1.0794   -0.3528   -0.0199 C   0  0  2  0  0  0  0  0  0  0  0  0
   -1.4935   -1.3869    0.9935 C   0  0  0  0  0  0  0  0  0  0  0  0
   -1.0651   -2.6643    0.6726 O   0  0  0  0  0  0  0  0  0  0  0  0
   -1.6715   -0.7139   -1.3683 C   0  0  0  0  0  0  0  0  0  0  0  0
   -2.3547    0.5845   -1.7506 C   0  0  0  0  0  0  0  0  0  0  0  0
   -2.9249    0.9615   -0.5338 O   0  0  0  0  0  0  0  0  0  0  0  0
   -1.7834    0.9317    0.2997 C   0  0  0  0  0  0  0  0  0  0  0  0
    2.6544   -0.0455   -1.8425 H   0  0  0  0  0  0  0  0  0  0  0  0
    4.2015    0.0177   -0.9273 H   0  0  0  0  0  0  0  0  0  0  0  0
    3.0301   -1.3475   -0.6603 H   0  0  0  0  0  0  0  0  0  0  0  0
    4.1748    1.4507    1.1988 H   0  0  0  0  0  0  0  0  0  0  0  0
    0.1099    1.3915    2.0565 H   0  0  0  0  0  0  0  0  0  0  0  0
   -2.5997   -1.3665    1.0804 H   0  0  0  0  0  0  0  0  0  0  0  0
   -1.0960   -1.1292    1.9970 H   0  0  0  0  0  0  0  0  0  0  0  0
   -0.1747   -2.7942    1.0930 H   0  0  0  0  0  0  0  0  0  0  0  0
   -2.3634   -1.5662   -1.3212 H   0  0  0  0  0  0  0  0  0  0  0  0
   -0.9068   -0.9181   -2.1311 H   0  0  0  0  0  0  0  0  0  0  0  0
   -1.5885    1.3248   -2.0019 H   0  0  0  0  0  0  0  0  0  0  0  0
   -3.1110    0.4336   -2.5400 H   0  0  0  0  0  0  0  0  0  0  0  0
   -1.1945    1.8225    0.0381 H   0  0  0  0  0  0  0  0  0  0  0  0
   -2.1470    0.9578    1.3655 H   0  0  0  0  0  0  0  0  0  0  0  0
  1  2  1  0
  2  3  1  0
  3  4  2  0
  4  5  1  0
  5  6  1  0
  6  7  2  3
  7  8  1  0
  8  9  1  1
  9 10  1  0
  8 11  1  0
 11 12  1  0
 12 13  1  0
 13 14  1  0
  6  2  1  0
 14  8  1  0
  1 15  1  0
  1 16  1  0
  1 17  1  0
  3 18  1  0
  5 19  1  0
  9 20  1  0
  9 21  1  0
 10 22  1  0
 11 23  1  0
 11 24  1  0
 12 25  1  0
 12 26  1  0
 14 27  1  0
 14 28  1  0
M  END
$$$$

     RDKit          3D

 28 29  0  0  0  0  0  0  0  0999 V2000
    3.0477    0.3294    1.6189 C   0  0  0  0  0  0  0  0  0  0  0  0
    2.6015   -0.3967    0.4334 N   0  0  0  0  0  0  0  0  0  0  0  0
    3.3282   -1.1428   -0.3801 C   0  0  0  0  0  0  0  0  0  0  0  0
    2.5401   -1.6300   -1.3425 N   0  0  0  0  0  0  0  0  0  0  0  0
    1.3144   -1.1790   -1.1191 N   0  0  0  0  0  0  0  0  0  0  0  0
    1.3126   -0.4077   -0.0222 C   0  0  0  0  0  0  0  0  0  0  0  0
    0.3511    0.2233    0.5472 N   0  0  0  0  0  0  0  0  0  0  0  0
   -0.9772    0.1892    0.0454 C   0  0  2  0  0  0  0  0  0  0  0  0
   -1.1058    1.0589   -1.2116 C   0  0  0  0  0  0  0  0  0  0  0  0
   -0.7560    2.3552   -0.7851 O   0  0  0  0  0  0  0  0  0  0  0  0
   -1.9766    0.7953    1.0245 C   0  0  0  0  0  0  0  0  0  0  0  0
   -3.2043   -0.0432    0.7423 C   0  0  0  0  0  0  0  0  0  0  0  0
   -2.6306   -1.3287    0.7253 O   0  0  0  0  0  0  0  0  0  0  0  0
   -1.5371   -1.1827   -0.1343 C   0  0  0  0  0  0  0  0  0  0  0  0
    2.7568    1.3824    1.5607 H   0  0  0  0  0  0  0  0  0  0  0  0
    2.6072   -0.1106    2.5425 H   0  0  0  0  0  0  0  0  0  0  0  0
    4.1382    0.2394    1.7001 H   0  0  0  0  0  0  0  0  0  0  0  0
    4.4003   -1.3413   -0.2966 H   0  0  0  0  0  0  0  0  0  0  0  0
    0.4837   -1.4086   -1.7295 H   0  0  0  0  0  0  0  0  0  0  0  0
   -2.1695    1.0789   -1.5093 H   0  0  0  0  0  0  0  0  0  0  0  0
   -0.4378    0.7565   -2.0125 H   0  0  0  0  0  0  0  0  0  0  0  0
   -0.0653    2.2798   -0.0815 H   0  0  0  0  0  0  0  0  0  0  0  0
   -1.6421    0.6943    2.0735 H   0  0  0  0  0  0  0  0  0  0  0  0
   -2.2240    1.8448    0.7712 H   0  0  0  0  0  0  0  0  0  0  0  0
   -3.5898    0.1847   -0.2509 H   0  0  0  0  0  0  0  0  0  0  0  0
   -3.9301    0.0566    1.5633 H   0  0  0  0  0  0  0  0  0  0  0  0
   -0.8031   -1.9400    0.1989 H   0  0  0  0  0  0  0  0  0  0  0  0
   -1.8324   -1.3577   -1.1899 H   0  0  0  0  0  0  0  0  0  0  0  0
  1  2  1  0
  2  3  1  0
  3  4  2  0
  4  5  1  0
  5  6  1  0
  6  7  2  3
  7  8  1  0
  8  9  1  6
  9 10  1  0
  8 11  1  0
 11 12  1  0
 12 13  1  0
 13 14  1  0
  6  2  1  0
 14  8  1  0
  1 15  1  0
  1 16  1  0
  1 17  1  0
  3 18  1  0
  5 19  1  0
  9 20  1  0
  9 21  1  0
 10 22  1  0
 11 23  1  0
 11 24  1  0
 12 25  1  0
 12 26  1  0
 14 27  1  0
 14 28  1  0
M  END
$$$$

     RDKit          3D

 28 29  0  0  0  0  0  0  0  0999 V2000
    3.2304   -0.1310   -0.6746 C   0  0  0  0  0  0  0  0  0  0  0  0
    2.3685   -0.8129    0.2519 N   0  0  0  0  0  0  0  0  0  0  0  0
    2.7631   -1.7307    1.1379 C   0  0  0  0  0  0  0  0  0  0  0  0
    1.6752   -2.1258    1.8113 N   0  0  0  0  0  0  0  0  0  0  0  0
    0.6379   -1.4508    1.3333 N   0  0  0  0  0  0  0  0  0  0  0  0
    1.0260   -0.6247    0.3632 C   0  0  0  0  0  0  0  0  0  0  0  0
    0.3780    0.1670   -0.3295 N   0  0  0  0  0  0  0  0  0  0  0  0
   -0.9614    0.5596   -0.4366 C   0  0  2  0  0  0  0  0  0  0  0  0
   -1.2165    0.9788   -1.8854 C   0  0  0  0  0  0  0  0  0  0  0  0
   -0.9613   -0.0978   -2.7269 O   0  0  0  0  0  0  0  0  0  0  0  0
   -1.3739    1.6626    0.5124 C   0  0  0  0  0  0  0  0  0  0  0  0
   -1.9266    0.8658    1.6684 C   0  0  0  0  0  0  0  0  0  0  0  0
   -2.5544   -0.1927    1.0826 O   0  0  0  0  0  0  0  0  0  0  0  0
   -2.0004   -0.4928   -0.1324 C   0  0  0  0  0  0  0  0  0  0  0  0
    4.1070   -0.7282   -0.9916 H   0  0  0  0  0  0  0  0  0  0  0  0
    2.7022    0.1942   -1.5916 H   0  0  0  0  0  0  0  0  0  0  0  0
    3.6056    0.8050   -0.1884 H   0  0  0  0  0  0  0  0  0  0  0  0
    3.7899   -2.0692    1.2599 H   0  0  0  0  0  0  0  0  0  0  0  0
   -0.3127   -1.6083    1.7220 H   0  0  0  0  0  0  0  0  0  0  0  0
   -0.5019    1.7814   -2.1611 H   0  0  0  0  0  0  0  0  0  0  0  0
   -2.2334    1.3502   -2.0339 H   0  0  0  0  0  0  0  0  0  0  0  0
   -1.3485   -0.9272   -2.3019 H   0  0  0  0  0  0  0  0  0  0  0  0
   -2.1682    2.2496    0.0063 H   0  0  0  0  0  0  0  0  0  0  0  0
   -0.5433    2.2669    0.8782 H   0  0  0  0  0  0  0  0  0  0  0  0
   -1.0533    0.5751    2.3090 H   0  0  0  0  0  0  0  0  0  0  0  0
   -2.6369    1.5065    2.2369 H   0  0  0  0  0  0  0  0  0  0  0  0
   -1.6296   -1.5299   -0.2480 H   0  0  0  0  0  0  0  0  0  0  0  0
   -2.8614   -0.4405   -0.8716 H   0  0  0  0  0  0  0  0  0  0  0  0
  1  2  1  0
  2  3  1  0
  3  4  2  0
  4  5  1  0
  5  6  1  0
  6  7  2  3
  7  8  1  0
  8  9  1  6
  9 10  1  0
  8 11  1  0
 11 12  1  0
 12 13  1  0
 13 14  1  0
  6  2  1  0
 14  8  1  0
  1 15  1  0
  1 16  1  0
  1 17  1  0
  3 18  1  0
  5 19  1  0
  9 20  1  0
  9 21  1  0
 10 22  1  0
 11 23  1  0
 11 24  1  0
 12 25  1  0
 12 26  1  0
 14 27  1  0
 14 28  1  0
M  END
$$$$

     RDKit          3D

 28 29  0  0  0  0  0  0  0  0999 V2000
    2.3383    0.5593   -1.0770 C   0  0  0  0  0  0  0  0  0  0  0  0
    2.4002   -0.1201    0.2165 N   0  0  0  0  0  0  0  0  0  0  0  0
    3.5427   -0.4549    0.8406 C   0  0  0  0  0  0  0  0  0  0  0  0
    3.1839   -1.0431    1.9627 N   0  0  0  0  0  0  0  0  0  0  0  0
    1.8894   -1.0954    2.0762 N   0  0  0  0  0  0  0  0  0  0  0  0
    1.3375   -0.4968    0.9442 C   0  0  0  0  0  0  0  0  0  0  0  0
    0.1293   -0.4124    0.7982 N   0  0  0  0  0  0  0  0  0  0  0  0
   -0.9402   -0.0214    0.0682 C   0  0  2  0  0  0  0  0  0  0  0  0
   -1.4880    1.3717    0.4230 C   0  0  0  0  0  0  0  0  0  0  0  0
   -0.5019    2.3163    0.2305 O   0  0  0  0  0  0  0  0  0  0  0  0
   -2.1788   -0.9538    0.3237 C   0  0  0  0  0  0  0  0  0  0  0  0
   -3.0175   -0.5848   -0.8542 C   0  0  0  0  0  0  0  0  0  0  0  0
   -2.2127   -0.1192   -1.8425 O   0  0  0  0  0  0  0  0  0  0  0  0
   -0.8817   -0.1752   -1.4348 C   0  0  0  0  0  0  0  0  0  0  0  0
    3.3749    0.8318   -1.3937 H   0  0  0  0  0  0  0  0  0  0  0  0
    1.9763   -0.1606   -1.8505 H   0  0  0  0  0  0  0  0  0  0  0  0
    1.7537    1.4881   -1.0502 H   0  0  0  0  0  0  0  0  0  0  0  0
    4.5414   -0.2476    0.4356 H   0  0  0  0  0  0  0  0  0  0  0  0
    1.3096   -1.5016    2.8547 H   0  0  0  0  0  0  0  0  0  0  0  0
   -2.3418    1.6147   -0.2302 H   0  0  0  0  0  0  0  0  0  0  0  0
   -1.7917    1.3971    1.4888 H   0  0  0  0  0  0  0  0  0  0  0  0
    0.1837    2.2754    0.9334 H   0  0  0  0  0  0  0  0  0  0  0  0
   -2.6273   -0.7075    1.2934 H   0  0  0  0  0  0  0  0  0  0  0  0
   -1.7895   -1.9726    0.2342 H   0  0  0  0  0  0  0  0  0  0  0  0
   -3.7621    0.2220   -0.5896 H   0  0  0  0  0  0  0  0  0  0  0  0
   -3.6195   -1.4561   -1.2084 H   0  0  0  0  0  0  0  0  0  0  0  0
   -0.5035   -1.1889   -1.6591 H   0  0  0  0  0  0  0  0  0  0  0  0
   -0.3048    0.6358   -1.9337 H   0  0  0  0  0  0  0  0  0  0  0  0
  1  2  1  0
  2  3  1  0
  3  4  2  0
  4  5  1  0
  5  6  1  0
  6  7  2  3
  7  8  1  0
  8  9  1  6
  9 10  1  0
  8 11  1  0
 11 12  1  0
 12 13  1  0
 13 14  1  0
  6  2  1  0
 14  8  1  0
  1 15  1  0
  1 16  1  0
  1 17  1  0
  3 18  1  0
  5 19  1  0
  9 20  1  0
  9 21  1  0
 10 22  1  0
 11 23  1  0
 11 24  1  0
 12 25  1  0
 12 26  1  0
 14 27  1  0
 14 28  1  0
M  END
$$$$
