
     RDKit          3D

 27 28  0  0  0  0  0  0  0  0999 V2000
   -2.5163    2.1863    0.2990 C   0  0  0  0  0  0  0  0  0  0  0  0
   -1.6588    1.4502   -0.4793 O   0  0  0  0  0  0  0  0  0  0  0  0
   -1.7532    0.0777   -0.2647 C   0  0  0  0  0  0  0  0  0  0  0  0
   -3.0894   -0.5127   -0.5364 C   0  0  0  0  0  0  0  0  0  0  0  0
   -3.1979   -1.8543   -0.3326 O   0  0  0  0  0  0  0  0  0  0  0  0
   -0.6535   -0.6242   -1.0282 C   0  0  0  0  0  0  0  0  0  0  0  0
    0.2032   -0.4159    0.1304 N   0  0  0  0  0  0  0  0  0  0  0  0
    1.6152   -0.3091    0.3326 C   0  0  0  0  0  0  0  0  0  0  0  0
    2.1741   -0.1128    1.5274 N   0  0  0  0  0  0  0  0  0  0  0  0
    3.4805   -0.0608    1.3750 N   0  0  0  0  0  0  0  0  0  0  0  0
    3.7453   -0.2226    0.0971 N   0  0  0  0  0  0  0  0  0  0  0  0
    5.0956   -0.2238   -0.4577 C   0  0  0  0  0  0  0  0  0  0  0  0
    2.6042   -0.3758   -0.5498 N   0  0  0  0  0  0  0  0  0  0  0  0
   -0.9958   -0.3705    0.9416 C   0  0  0  0  0  0  0  0  0  0  0  0
   -3.5769    1.9807    0.1719 H   0  0  0  0  0  0  0  0  0  0  0  0
   -2.3583    3.2628    0.0921 H   0  0  0  0  0  0  0  0  0  0  0  0
   -2.2975    2.0500    1.3990 H   0  0  0  0  0  0  0  0  0  0  0  0
   -3.3492   -0.2428   -1.6029 H   0  0  0  0  0  0  0  0  0  0  0  0
   -3.9064   -0.0253    0.0596 H   0  0  0  0  0  0  0  0  0  0  0  0
   -2.4018   -2.3313   -0.0195 H   0  0  0  0  0  0  0  0  0  0  0  0
   -0.3532   -0.0516   -1.9265 H   0  0  0  0  0  0  0  0  0  0  0  0
   -0.8726   -1.6784   -1.1702 H   0  0  0  0  0  0  0  0  0  0  0  0
    5.5294   -1.2467   -0.3616 H   0  0  0  0  0  0  0  0  0  0  0  0
    5.6717    0.5377    0.1136 H   0  0  0  0  0  0  0  0  0  0  0  0
    5.0630    0.1074   -1.5258 H   0  0  0  0  0  0  0  0  0  0  0  0
   -0.9530    0.3668    1.7798 H   0  0  0  0  0  0  0  0  0  0  0  0
   -1.2484   -1.3606    1.3216 H   0  0  0  0  0  0  0  0  0  0  0  0
  1  2  1  0
  2  3  1  0
  3  4  1  0
  4  5  1  0
  3  6  1  0
  6  7  1  0
  7  8  1  0
  8  9  1  0
  9 10  2  0
 10 11  1  0
 11 12  1  0
 11 13  1  0
  7 14  1  0
 14  3  1  0
 13  8  2  0
  1 15  1  0
  1 16  1  0
  1 17  1  0
  4 18  1  0
  4 19  1  0
  5 20  1  0
  6 21  1  0
  6 22  1  0
 12 23  1  0
 12 24  1  0
 12 25  1  0
 14 26  1  0
 14 27  1  0
M  END
$$$$

     RDKit          3D

 27 28  0  0  0  0  0  0  0  0999 V2000
   -3.2745    1.5970    0.4886 C   0  0  0  0  0  0  0  0  0  0  0  0
   -2.2365    0.7776    0.8825 O   0  0  0  0  0  0  0  0  0  0  0  0
   -1.7982   -0.0952   -0.0626 C   0  0  0  0  0  0  0  0  0  0  0  0
   -2.8084   -1.0859   -0.5908 C   0  0  0  0  0  0  0  0  0  0  0  0
   -2.2422   -1.9207   -1.5478 O   0  0  0  0  0  0  0  0  0  0  0  0
   -0.5681   -0.8417    0.4176 C   0  0  0  0  0  0  0  0  0  0  0  0
    0.2731   -0.0257   -0.4321 N   0  0  0  0  0  0  0  0  0  0  0  0
    1.6683    0.2249   -0.5197 C   0  0  0  0  0  0  0  0  0  0  0  0
    2.2636    1.0515   -1.4193 N   0  0  0  0  0  0  0  0  0  0  0  0
    3.5599    1.0291   -1.1949 N   0  0  0  0  0  0  0  0  0  0  0  0
    3.8456    0.2197   -0.1817 N   0  0  0  0  0  0  0  0  0  0  0  0
    5.1748   -0.0519    0.3463 C   0  0  0  0  0  0  0  0  0  0  0  0
    2.6763   -0.2584    0.2130 N   0  0  0  0  0  0  0  0  0  0  0  0
   -0.8942    0.4111   -1.1333 C   0  0  0  0  0  0  0  0  0  0  0  0
   -4.1827    1.0183    0.1892 H   0  0  0  0  0  0  0  0  0  0  0  0
   -3.5702    2.1992    1.3761 H   0  0  0  0  0  0  0  0  0  0  0  0
   -2.9932    2.3262   -0.2956 H   0  0  0  0  0  0  0  0  0  0  0  0
   -3.2231   -1.6614    0.2498 H   0  0  0  0  0  0  0  0  0  0  0  0
   -3.6580   -0.5186   -1.0493 H   0  0  0  0  0  0  0  0  0  0  0  0
   -1.8636   -2.7474   -1.1354 H   0  0  0  0  0  0  0  0  0  0  0  0
   -0.5472   -1.9206    0.1864 H   0  0  0  0  0  0  0  0  0  0  0  0
   -0.2988   -0.6368    1.4836 H   0  0  0  0  0  0  0  0  0  0  0  0
    5.4310    0.6509    1.1804 H   0  0  0  0  0  0  0  0  0  0  0  0
    5.2366   -1.0721    0.8046 H   0  0  0  0  0  0  0  0  0  0  0  0
    5.9515   -0.0430   -0.4531 H   0  0  0  0  0  0  0  0  0  0  0  0
   -0.9116    1.5015   -1.3214 H   0  0  0  0  0  0  0  0  0  0  0  0
   -1.0103   -0.1274   -2.0813 H   0  0  0  0  0  0  0  0  0  0  0  0
  1  2  1  0
  2  3  1  0
  3  4  1  0
  4  5  1  0
  3  6  1  0
  6  7  1  0
  7  8  1  0
  8  9  1  0
  9 10  2  0
 10 11  1  0
 11 12  1  0
 11 13  1  0
  7 14  1  0
 14  3  1  0
 13  8  2  0
  1 15  1  0
  1 16  1  0
  1 17  1  0
  4 18  1  0
  4 19  1  0
  5 20  1  0
  6 21  1  0
  6 22  1  0
 12 23  1  0
 12 24  1  0
 12 25  1  0
 14 26  1  0
 14 27  1  0
M  END
$$$$

     RDKit          3D

 27 28  0  0  0  0  0  0  0  0999 V2000
   -3.3534   -1.4931   -0.4823 C   0  0  0  0  0  0  0  0  0  0  0  0
   -3.0942   -0.2587    0.0357 O   0  0  0  0  0  0  0  0  0  0  0  0
   -1.8062    0.1312    0.1654 C   0  0  0  0  0  0  0  0  0  0  0  0
   -1.7098    1.5163    0.7566 C   0  0  0  0  0  0  0  0  0  0  0  0
   -2.3189    1.4857    2.0230 O   0  0  0  0  0  0  0  0  0  0  0  0
   -0.8118   -0.8068    0.7885 C   0  0  0  0  0  0  0  0  0  0  0  0
    0.1713   -0.2261   -0.1399 N   0  0  0  0  0  0  0  0  0  0  0  0
    1.5418    0.0541   -0.1817 C   0  0  0  0  0  0  0  0  0  0  0  0
    2.1877    0.6150   -1.2167 N   0  0  0  0  0  0  0  0  0  0  0  0
    3.4630    0.7396   -0.9332 N   0  0  0  0  0  0  0  0  0  0  0  0
    3.6569    0.2635    0.2818 N   0  0  0  0  0  0  0  0  0  0  0  0
    4.9292    0.2104    0.9848 C   0  0  0  0  0  0  0  0  0  0  0  0
    2.4991   -0.1543    0.7457 N   0  0  0  0  0  0  0  0  0  0  0  0
   -0.9662   -0.0578   -1.0539 C   0  0  0  0  0  0  0  0  0  0  0  0
   -2.9858   -1.6679   -1.5076 H   0  0  0  0  0  0  0  0  0  0  0  0
   -4.4775   -1.5837   -0.5485 H   0  0  0  0  0  0  0  0  0  0  0  0
   -3.0526   -2.3182    0.2003 H   0  0  0  0  0  0  0  0  0  0  0  0
   -0.6792    1.9028    0.8048 H   0  0  0  0  0  0  0  0  0  0  0  0
   -2.3379    2.1983    0.1376 H   0  0  0  0  0  0  0  0  0  0  0  0
   -3.2973    1.4502    1.9176 H   0  0  0  0  0  0  0  0  0  0  0  0
   -0.5510   -0.6148    1.8459 H   0  0  0  0  0  0  0  0  0  0  0  0
   -0.9285   -1.8711    0.5860 H   0  0  0  0  0  0  0  0  0  0  0  0
    5.6687    0.8956    0.4856 H   0  0  0  0  0  0  0  0  0  0  0  0
    4.8162    0.5532    2.0366 H   0  0  0  0  0  0  0  0  0  0  0  0
    5.3694   -0.7999    0.9701 H   0  0  0  0  0  0  0  0  0  0  0  0
   -0.8467    0.8437   -1.7002 H   0  0  0  0  0  0  0  0  0  0  0  0
   -1.0865   -1.0072   -1.5867 H   0  0  0  0  0  0  0  0  0  0  0  0
  1  2  1  0
  2  3  1  0
  3  4  1  0
  4  5  1  0
  3  6  1  0
  6  7  1  0
  7  8  1  0
  8  9  1  0
  9 10  2  0
 10 11  1  0
 11 12  1  0
 11 13  1  0
  7 14  1  0
 14  3  1  0
 13  8  2  0
  1 15  1  0
  1 16  1  0
  1 17  1  0
  4 18  1  0
  4 19  1  0
  5 20  1  0
  6 21  1  0
  6 22  1  0
 12 23  1  0
 12 24  1  0
 12 25  1  0
 14 26  1  0
 14 27  1  0
M  END
$$$$

     RDKit          3D

 27 28  0  0  0  0  0  0  0  0999 V2000
   -3.2956   -1.7427    0.2071 C   0  0  0  0  0  0  0  0  0  0  0  0
   -2.8084   -1.1069   -0.9293 O   0  0  0  0  0  0  0  0  0  0  0  0
   -1.8622   -0.1900   -0.5430 C   0  0  0  0  0  0  0  0  0  0  0  0
   -2.2819    0.9100    0.3800 C   0  0  0  0  0  0  0  0  0  0  0  0
   -1.1667    1.7289    0.6309 O   0  0  0  0  0  0  0  0  0  0  0  0
   -0.9025    0.2604   -1.6177 C   0  0  0  0  0  0  0  0  0  0  0  0
    0.2165   -0.0099   -0.7382 N   0  0  0  0  0  0  0  0  0  0  0  0
    1.5697    0.3636   -0.5644 C   0  0  0  0  0  0  0  0  0  0  0  0
    2.2909    1.2331   -1.3234 N   0  0  0  0  0  0  0  0  0  0  0  0
    3.5343    1.3085   -0.8235 N   0  0  0  0  0  0  0  0  0  0  0  0
    3.6108    0.5103    0.2270 N   0  0  0  0  0  0  0  0  0  0  0  0
    4.7370    0.2453    1.1031 C   0  0  0  0  0  0  0  0  0  0  0  0
    2.4173   -0.0557    0.3742 N   0  0  0  0  0  0  0  0  0  0  0  0
   -0.6455   -0.9119   -0.0051 C   0  0  0  0  0  0  0  0  0  0  0  0
   -2.5054   -2.2685    0.7834 H   0  0  0  0  0  0  0  0  0  0  0  0
   -4.0407   -2.5171   -0.1041 H   0  0  0  0  0  0  0  0  0  0  0  0
   -3.7949   -1.0406    0.8788 H   0  0  0  0  0  0  0  0  0  0  0  0
   -2.5855    0.4850    1.3790 H   0  0  0  0  0  0  0  0  0  0  0  0
   -3.1297    1.4645   -0.0377 H   0  0  0  0  0  0  0  0  0  0  0  0
   -1.4717    2.6774    0.5100 H   0  0  0  0  0  0  0  0  0  0  0  0
   -0.8446   -0.3803   -2.5142 H   0  0  0  0  0  0  0  0  0  0  0  0
   -1.0477    1.3126   -1.9017 H   0  0  0  0  0  0  0  0  0  0  0  0
    5.1979   -0.7232    0.8137 H   0  0  0  0  0  0  0  0  0  0  0  0
    5.4565    1.0802    0.9531 H   0  0  0  0  0  0  0  0  0  0  0  0
    4.4297    0.1613    2.1719 H   0  0  0  0  0  0  0  0  0  0  0  0
   -0.5358   -0.8614    1.1105 H   0  0  0  0  0  0  0  0  0  0  0  0
   -0.5419   -1.9332   -0.4202 H   0  0  0  0  0  0  0  0  0  0  0  0
  1  2  1  0
  2  3  1  0
  3  4  1  0
  4  5  1  0
  3  6  1  0
  6  7  1  0
  7  8  1  0
  8  9  1  0
  9 10  2  0
 10 11  1  0
 11 12  1  0
 11 13  1  0
  7 14  1  0
 14  3  1  0
 13  8  2  0
  1 15  1  0
  1 16  1  0
  1 17  1  0
  4 18  1  0
  4 19  1  0
  5 20  1  0
  6 21  1  0
  6 22  1  0
 12 23  1  0
 12 24  1  0
 12 25  1  0
 14 26  1  0
 14 27  1  0
M  END
$$$$

     RDKit          3D

 27 28  0  0  0  0  0  0  0  0999 V2000
   -3.6797    0.0331   -1.3182 C   0  0  0  0  0  0  0  0  0  0  0  0
   -2.7321   -0.8633   -0.8448 O   0  0  0  0  0  0  0  0  0  0  0  0
   -1.7366   -0.2412   -0.1079 C   0  0  0  0  0  0  0  0  0  0  0  0
   -2.2985    0.4748    1.1001 C   0  0  0  0  0  0  0  0  0  0  0  0
   -2.9514   -0.3914    1.9501 O   0  0  0  0  0  0  0  0  0  0  0  0
   -0.8270    0.5866   -0.9664 C   0  0  0  0  0  0  0  0  0  0  0  0
    0.3436   -0.0671   -0.4130 N   0  0  0  0  0  0  0  0  0  0  0  0
    1.7303    0.2320   -0.4759 C   0  0  0  0  0  0  0  0  0  0  0  0
    2.3289    1.2589   -1.1036 N   0  0  0  0  0  0  0  0  0  0  0  0
    3.6343    1.1979   -0.9336 N   0  0  0  0  0  0  0  0  0  0  0  0
    3.8949    0.1514   -0.2078 N   0  0  0  0  0  0  0  0  0  0  0  0
    5.2454   -0.2360    0.1850 C   0  0  0  0  0  0  0  0  0  0  0  0
    2.7539   -0.4439    0.0775 N   0  0  0  0  0  0  0  0  0  0  0  0
   -0.5218   -1.0626    0.1674 C   0  0  0  0  0  0  0  0  0  0  0  0
   -4.4222   -0.5831   -1.8930 H   0  0  0  0  0  0  0  0  0  0  0  0
   -4.2629    0.5027   -0.4863 H   0  0  0  0  0  0  0  0  0  0  0  0
   -3.2832    0.8104   -1.9701 H   0  0  0  0  0  0  0  0  0  0  0  0
   -2.9323    1.3349    0.8107 H   0  0  0  0  0  0  0  0  0  0  0  0
   -1.4395    0.9107    1.6836 H   0  0  0  0  0  0  0  0  0  0  0  0
   -3.0189   -1.2965    1.5712 H   0  0  0  0  0  0  0  0  0  0  0  0
   -0.8091    1.6658   -0.6989 H   0  0  0  0  0  0  0  0  0  0  0  0
   -0.8728    0.3730   -2.0581 H   0  0  0  0  0  0  0  0  0  0  0  0
    5.6094   -0.9171   -0.6397 H   0  0  0  0  0  0  0  0  0  0  0  0
    5.2578   -0.8450    1.1063 H   0  0  0  0  0  0  0  0  0  0  0  0
    5.9175    0.6463    0.2389 H   0  0  0  0  0  0  0  0  0  0  0  0
   -0.3979   -1.2222    1.2556 H   0  0  0  0  0  0  0  0  0  0  0  0
   -0.5302   -2.0092   -0.3954 H   0  0  0  0  0  0  0  0  0  0  0  0
  1  2  1  0
  2  3  1  0
  3  4  1  0
  4  5  1  0
  3  6  1  0
  6  7  1  0
  7  8  1  0
  8  9  1  0
  9 10  2  0
 10 11  1  0
 11 12  1  0
 11 13  1  0
  7 14  1  0
 14  3  1  0
 13  8  2  0
  1 15  1  0
  1 16  1  0
  1 17  1  0
  4 18  1  0
  4 19  1  0
  5 20  1  0
  6 21  1  0
  6 22  1  0
 12 23  1  0
 12 24  1  0
 12 25  1  0
 14 26  1  0
 14 27  1  0
M  END
$$$$

     RDKit          3D

 27 28  0  0  0  0  0  0  0  0999 V2000
   -2.9638   -1.3433   -0.7848 C   0  0  0  0  0  0  0  0  0  0  0  0
   -1.9030   -1.0447    0.0684 O   0  0  0  0  0  0  0  0  0  0  0  0
   -1.6833    0.3053    0.1665 C   0  0  0  0  0  0  0  0  0  0  0  0
   -2.7961    1.1525    0.6814 C   0  0  0  0  0  0  0  0  0  0  0  0
   -3.1014    0.6993    1.9842 O   0  0  0  0  0  0  0  0  0  0  0  0
   -0.4070    0.5887    0.9345 C   0  0  0  0  0  0  0  0  0  0  0  0
    0.3056    0.4922   -0.3254 N   0  0  0  0  0  0  0  0  0  0  0  0
    1.6580    0.1503   -0.6595 C   0  0  0  0  0  0  0  0  0  0  0  0
    2.1718    0.1068   -1.9049 N   0  0  0  0  0  0  0  0  0  0  0  0
    3.4541   -0.2505   -1.7928 N   0  0  0  0  0  0  0  0  0  0  0  0
    3.7672   -0.4330   -0.5304 N   0  0  0  0  0  0  0  0  0  0  0  0
    5.0592   -0.8280    0.0358 C   0  0  0  0  0  0  0  0  0  0  0  0
    2.6613   -0.1852    0.1535 N   0  0  0  0  0  0  0  0  0  0  0  0
   -0.9059    0.8737   -1.0006 C   0  0  0  0  0  0  0  0  0  0  0  0
   -3.9034   -0.8637   -0.3975 H   0  0  0  0  0  0  0  0  0  0  0  0
   -3.1732   -2.4304   -0.7853 H   0  0  0  0  0  0  0  0  0  0  0  0
   -2.7915   -1.0276   -1.8105 H   0  0  0  0  0  0  0  0  0  0  0  0
   -2.4117    2.1825    0.8144 H   0  0  0  0  0  0  0  0  0  0  0  0
   -3.7219    1.1091    0.0901 H   0  0  0  0  0  0  0  0  0  0  0  0
   -2.7826   -0.2255    2.1248 H   0  0  0  0  0  0  0  0  0  0  0  0
   -0.3309    1.6424    1.3047 H   0  0  0  0  0  0  0  0  0  0  0  0
   -0.1694   -0.1660    1.6874 H   0  0  0  0  0  0  0  0  0  0  0  0
    5.5144   -1.5930   -0.6198 H   0  0  0  0  0  0  0  0  0  0  0  0
    4.9246   -1.2973    1.0295 H   0  0  0  0  0  0  0  0  0  0  0  0
    5.6738    0.0856    0.1450 H   0  0  0  0  0  0  0  0  0  0  0  0
   -1.1448    0.3216   -1.9182 H   0  0  0  0  0  0  0  0  0  0  0  0
   -1.0001    1.9782   -1.0541 H   0  0  0  0  0  0  0  0  0  0  0  0
  1  2  1  0
  2  3  1  0
  3  4  1  0
  4  5  1  0
  3  6  1  0
  6  7  1  0
  7  8  1  0
  8  9  1  0
  9 10  2  0
 10 11  1  0
 11 12  1  0
 11 13  1  0
  7 14  1  0
 14  3  1  0
 13  8  2  0
  1 15  1  0
  1 16  1  0
  1 17  1  0
  4 18  1  0
  4 19  1  0
  5 20  1  0
  6 21  1  0
  6 22  1  0
 12 23  1  0
 12 24  1  0
 12 25  1  0
 14 26  1  0
 14 27  1  0
M  END
$$$$

     RDKit          3D

 27 28  0  0  0  0  0  0  0  0999 V2000
   -3.8537    0.7999    0.5198 C   0  0  0  0  0  0  0  0  0  0  0  0
   -2.6943    0.4194    1.1386 O   0  0  0  0  0  0  0  0  0  0  0  0
   -1.7301   -0.1628    0.3646 C   0  0  0  0  0  0  0  0  0  0  0  0
   -2.0676   -1.4313   -0.3418 C   0  0  0  0  0  0  0  0  0  0  0  0
   -3.1123   -1.3290   -1.2504 O   0  0  0  0  0  0  0  0  0  0  0  0
   -0.8981    0.8124   -0.4450 C   0  0  0  0  0  0  0  0  0  0  0  0
    0.3100    0.3279    0.1460 N   0  0  0  0  0  0  0  0  0  0  0  0
    1.7035    0.4565   -0.1410 C   0  0  0  0  0  0  0  0  0  0  0  0
    2.2646    1.1495   -1.1601 N   0  0  0  0  0  0  0  0  0  0  0  0
    3.5780    1.0179   -1.0744 N   0  0  0  0  0  0  0  0  0  0  0  0
    3.8958    0.2648   -0.0372 N   0  0  0  0  0  0  0  0  0  0  0  0
    5.2312   -0.1269    0.4133 C   0  0  0  0  0  0  0  0  0  0  0  0
    2.7460   -0.0720    0.5246 N   0  0  0  0  0  0  0  0  0  0  0  0
   -0.4539   -0.3545    1.1651 C   0  0  0  0  0  0  0  0  0  0  0  0
   -4.4393    0.0055    0.0413 H   0  0  0  0  0  0  0  0  0  0  0  0
   -3.5847    1.5779   -0.2447 H   0  0  0  0  0  0  0  0  0  0  0  0
   -4.4741    1.3298    1.2924 H   0  0  0  0  0  0  0  0  0  0  0  0
   -2.4157   -2.1673    0.4351 H   0  0  0  0  0  0  0  0  0  0  0  0
   -1.1890   -1.9051   -0.8135 H   0  0  0  0  0  0  0  0  0  0  0  0
   -2.7802   -1.2997   -2.1929 H   0  0  0  0  0  0  0  0  0  0  0  0
   -1.0016    0.6587   -1.5204 H   0  0  0  0  0  0  0  0  0  0  0  0
   -1.0898    1.8666   -0.1801 H   0  0  0  0  0  0  0  0  0  0  0  0
    5.8567    0.7982    0.3539 H   0  0  0  0  0  0  0  0  0  0  0  0
    5.6103   -0.9117   -0.2632 H   0  0  0  0  0  0  0  0  0  0  0  0
    5.1489   -0.5097    1.4466 H   0  0  0  0  0  0  0  0  0  0  0  0
   -0.1195   -1.4055    1.2681 H   0  0  0  0  0  0  0  0  0  0  0  0
   -0.4412    0.1905    2.1422 H   0  0  0  0  0  0  0  0  0  0  0  0
  1  2  1  0
  2  3  1  0
  3  4  1  0
  4  5  1  0
  3  6  1  0
  6  7  1  0
  7  8  1  0
  8  9  1  0
  9 10  2  0
 10 11  1  0
 11 12  1  0
 11 13  1  0
  7 14  1  0
 14  3  1  0
 13  8  2  0
  1 15  1  0
  1 16  1  0
  1 17  1  0
  4 18  1  0
  4 19  1  0
  5 20  1  0
  6 21  1  0
  6 22  1  0
 12 23  1  0
 12 24  1  0
 12 25  1  0
 14 26  1  0
 14 27  1  0
M  END
$$$$

     RDKit          3D

 27 28  0  0  0  0  0  0  0  0999 V2000
   -3.2789    0.9999    1.1611 C   0  0  0  0  0  0  0  0  0  0  0  0
   -2.2153    0.1165    1.2803 O   0  0  0  0  0  0  0  0  0  0  0  0
   -1.6892   -0.2677    0.0636 C   0  0  0  0  0  0  0  0  0  0  0  0
   -2.6396   -0.9671   -0.8732 C   0  0  0  0  0  0  0  0  0  0  0  0
   -3.1549   -2.1370   -0.3427 O   0  0  0  0  0  0  0  0  0  0  0  0
   -0.4000   -1.0332    0.2601 C   0  0  0  0  0  0  0  0  0  0  0  0
    0.3636    0.0997   -0.2231 N   0  0  0  0  0  0  0  0  0  0  0  0
    1.7543    0.3870   -0.2333 C   0  0  0  0  0  0  0  0  0  0  0  0
    2.2834    1.5156   -0.7365 N   0  0  0  0  0  0  0  0  0  0  0  0
    3.5989    1.4898   -0.6004 N   0  0  0  0  0  0  0  0  0  0  0  0
    3.9104    0.3431   -0.0096 N   0  0  0  0  0  0  0  0  0  0  0  0
    5.2725   -0.0329    0.3024 C   0  0  0  0  0  0  0  0  0  0  0  0
    2.7813   -0.3334    0.2159 N   0  0  0  0  0  0  0  0  0  0  0  0
   -0.8567    0.7400   -0.6511 C   0  0  0  0  0  0  0  0  0  0  0  0
   -4.1294    0.5806    0.5882 H   0  0  0  0  0  0  0  0  0  0  0  0
   -2.9557    1.9997    0.7815 H   0  0  0  0  0  0  0  0  0  0  0  0
   -3.6593    1.1859    2.1897 H   0  0  0  0  0  0  0  0  0  0  0  0
   -3.4017   -0.2478   -1.2044 H   0  0  0  0  0  0  0  0  0  0  0  0
   -2.0502   -1.2536   -1.7772 H   0  0  0  0  0  0  0  0  0  0  0  0
   -4.1428   -2.0584   -0.3790 H   0  0  0  0  0  0  0  0  0  0  0  0
   -0.2526   -1.8941   -0.4241 H   0  0  0  0  0  0  0  0  0  0  0  0
   -0.1408   -1.2474    1.3254 H   0  0  0  0  0  0  0  0  0  0  0  0
    5.2808   -0.8734    1.0443 H   0  0  0  0  0  0  0  0  0  0  0  0
    5.8116   -0.3520   -0.6366 H   0  0  0  0  0  0  0  0  0  0  0  0
    5.8664    0.7858    0.7303 H   0  0  0  0  0  0  0  0  0  0  0  0
   -0.9357    0.6879   -1.7540 H   0  0  0  0  0  0  0  0  0  0  0  0
   -1.0204    1.7665   -0.2683 H   0  0  0  0  0  0  0  0  0  0  0  0
  1  2  1  0
  2  3  1  0
  3  4  1  0
  4  5  1  0
  3  6  1  0
  6  7  1  0
  7  8  1  0
  8  9  1  0
  9 10  2  0
 10 11  1  0
 11 12  1  0
 11 13  1  0
  7 14  1  0
 14  3  1  0
 13  8  2  0
  1 15  1  0
  1 16  1  0
  1 17  1  0
  4 18  1  0
  4 19  1  0
  5 20  1  0
  6 21  1  0
  6 22  1  0
 12 23  1  0
 12 24  1  0
 12 25  1  0
 14 26  1  0
 14 27  1  0
M  END
$$$$
