
     RDKit          3D

 27 27  0  0  0  0  0  0  0  0999 V2000
    3.6656    0.4046    0.1189 N   0  0  0  0  0  0  0  0  0  0  0  0
    2.7474   -0.6535   -0.0943 C   0  0  0  0  0  0  0  0  0  0  0  0
    3.2120   -1.8236   -0.1409 O   0  0  0  0  0  0  0  0  0  0  0  0
    1.3711   -0.3539   -0.2432 N   0  0  0  0  0  0  0  0  0  0  0  0
    0.4740   -1.4642   -0.4584 C   0  0  0  0  0  0  0  0  0  0  0  0
   -0.9298   -1.2271   -0.0419 C   0  0  0  0  0  0  0  0  0  0  0  0
   -1.3201    0.2046   -0.2413 C   0  0  1  0  0  0  0  0  0  0  0  0
   -1.1515    0.5057   -1.5927 O   0  0  0  0  0  0  0  0  0  0  0  0
   -2.7390    0.5006    0.1606 C   0  0  0  0  0  0  0  0  0  0  0  0
   -2.9969    0.2321    1.4820 O   0  0  0  0  0  0  0  0  0  0  0  0
   -0.3655    1.0447    0.5837 C   0  0  1  0  0  0  0  0  0  0  0  0
   -0.2092    0.4235    1.8257 O   0  0  0  0  0  0  0  0  0  0  0  0
    0.9457    1.0193   -0.1739 C   0  0  0  0  0  0  0  0  0  0  0  0
    3.9045    1.0950   -0.6211 H   0  0  0  0  0  0  0  0  0  0  0  0
    4.0998    0.4610    1.0708 H   0  0  0  0  0  0  0  0  0  0  0  0
    0.4654   -1.7532   -1.5426 H   0  0  0  0  0  0  0  0  0  0  0  0
    0.8680   -2.3380    0.0971 H   0  0  0  0  0  0  0  0  0  0  0  0
   -1.6115   -1.9142   -0.5810 H   0  0  0  0  0  0  0  0  0  0  0  0
   -1.0533   -1.4465    1.0533 H   0  0  0  0  0  0  0  0  0  0  0  0
   -1.4351   -0.3008   -2.0967 H   0  0  0  0  0  0  0  0  0  0  0  0
   -2.8809    1.6061    0.0190 H   0  0  0  0  0  0  0  0  0  0  0  0
   -3.4707    0.0262   -0.5242 H   0  0  0  0  0  0  0  0  0  0  0  0
   -3.9686    0.0912    1.5877 H   0  0  0  0  0  0  0  0  0  0  0  0
   -0.7485    2.0716    0.7286 H   0  0  0  0  0  0  0  0  0  0  0  0
    0.7071    0.5199    2.1760 H   0  0  0  0  0  0  0  0  0  0  0  0
    0.7307    1.4140   -1.1938 H   0  0  0  0  0  0  0  0  0  0  0  0
    1.6894    1.6549    0.3160 H   0  0  0  0  0  0  0  0  0  0  0  0
  1  2  1  0
  2  3  2  0
  2  4  1  0
  4  5  1  0
  5  6  1  0
  6  7  1  0
  7  8  1  6
  7  9  1  0
  9 10  1  0
  7 11  1  0
 11 12  1  0
 11 13  1  0
 13  4  1  0
  1 14  1  0
  1 15  1  0
  5 16  1  0
  5 17  1  0
  6 18  1  0
  6 19  1  0
  8 20  1  0
  9 21  1  0
  9 22  1  0
 10 23  1  0
 11 24  1  1
 12 25  1  0
 13 26  1  0
 13 27  1  0
M  END
$$$$

     RDKit          3D

 27 27  0  0  0  0  0  0  0  0999 V2000
    3.6053    0.8823    0.2188 N   0  0  0  0  0  0  0  0  0  0  0  0
    2.7608   -0.2525    0.2893 C   0  0  0  0  0  0  0  0  0  0  0  0
    3.3098   -1.3365    0.6523 O   0  0  0  0  0  0  0  0  0  0  0  0
    1.3702   -0.2139   -0.0228 N   0  0  0  0  0  0  0  0  0  0  0  0
    0.8457    1.0734   -0.4262 C   0  0  0  0  0  0  0  0  0  0  0  0
   -0.4943    0.8614   -1.1004 C   0  0  0  0  0  0  0  0  0  0  0  0
   -1.2994    0.0735   -0.0569 C   0  0  1  0  0  0  0  0  0  0  0  0
   -1.0369    0.5530    1.2330 O   0  0  0  0  0  0  0  0  0  0  0  0
   -2.7556    0.2845   -0.3371 C   0  0  0  0  0  0  0  0  0  0  0  0
   -2.9980    1.6664   -0.2440 O   0  0  0  0  0  0  0  0  0  0  0  0
   -0.8364   -1.3312   -0.1445 C   0  0  1  0  0  0  0  0  0  0  0  0
   -1.0939   -1.7822   -1.4599 O   0  0  0  0  0  0  0  0  0  0  0  0
    0.6240   -1.4191    0.0852 C   0  0  0  0  0  0  0  0  0  0  0  0
    3.8489    1.4014    1.0698 H   0  0  0  0  0  0  0  0  0  0  0  0
    3.9678    1.1722   -0.7068 H   0  0  0  0  0  0  0  0  0  0  0  0
    0.6352    1.6639    0.4988 H   0  0  0  0  0  0  0  0  0  0  0  0
    1.5476    1.6445   -1.0630 H   0  0  0  0  0  0  0  0  0  0  0  0
   -0.9888    1.8087   -1.3574 H   0  0  0  0  0  0  0  0  0  0  0  0
   -0.3014    0.2176   -1.9839 H   0  0  0  0  0  0  0  0  0  0  0  0
   -1.5106   -0.0451    1.8481 H   0  0  0  0  0  0  0  0  0  0  0  0
   -3.4186   -0.2011    0.3744 H   0  0  0  0  0  0  0  0  0  0  0  0
   -2.9557    0.0065   -1.3978 H   0  0  0  0  0  0  0  0  0  0  0  0
   -2.4186    2.0865    0.4648 H   0  0  0  0  0  0  0  0  0  0  0  0
   -1.4071   -2.0268    0.5109 H   0  0  0  0  0  0  0  0  0  0  0  0
   -0.8533   -2.7345   -1.5412 H   0  0  0  0  0  0  0  0  0  0  0  0
    1.0739   -2.1889   -0.6073 H   0  0  0  0  0  0  0  0  0  0  0  0
    0.7794   -1.8638    1.1116 H   0  0  0  0  0  0  0  0  0  0  0  0
  1  2  1  0
  2  3  2  0
  2  4  1  0
  4  5  1  0
  5  6  1  0
  6  7  1  0
  7  8  1  1
  7  9  1  0
  9 10  1  0
  7 11  1  0
 11 12  1  0
 11 13  1  0
 13  4  1  0
  1 14  1  0
  1 15  1  0
  5 16  1  0
  5 17  1  0
  6 18  1  0
  6 19  1  0
  8 20  1  0
  9 21  1  0
  9 22  1  0
 10 23  1  0
 11 24  1  1
 12 25  1  0
 13 26  1  0
 13 27  1  0
M  END
$$$$

     RDKit          3D

 27 27  0  0  0  0  0  0  0  0999 V2000
    3.7134   -0.9073   -0.1303 N   0  0  0  0  0  0  0  0  0  0  0  0
    2.8580    0.0864    0.4418 C   0  0  0  0  0  0  0  0  0  0  0  0
    3.4310    0.9494    1.1665 O   0  0  0  0  0  0  0  0  0  0  0  0
    1.4645    0.0947    0.2064 N   0  0  0  0  0  0  0  0  0  0  0  0
    0.8736   -0.9044   -0.6202 C   0  0  0  0  0  0  0  0  0  0  0  0
   -0.4541   -0.5594   -1.1808 C   0  0  0  0  0  0  0  0  0  0  0  0
   -1.3039    0.3233   -0.3497 C   0  0  1  0  0  0  0  0  0  0  0  0
   -1.3501    1.6158   -0.9216 O   0  0  0  0  0  0  0  0  0  0  0  0
   -2.7376   -0.1398   -0.2398 C   0  0  0  0  0  0  0  0  0  0  0  0
   -3.4008    0.7783    0.5808 O   0  0  0  0  0  0  0  0  0  0  0  0
   -0.7264    0.4823    1.0232 C   0  0  1  0  0  0  0  0  0  0  0  0
   -0.4983   -0.7333    1.6501 O   0  0  0  0  0  0  0  0  0  0  0  0
    0.6538    1.1231    0.8114 C   0  0  0  0  0  0  0  0  0  0  0  0
    4.0170   -0.9114   -1.1150 H   0  0  0  0  0  0  0  0  0  0  0  0
    4.0547   -1.6813    0.4880 H   0  0  0  0  0  0  0  0  0  0  0  0
    0.8691   -1.9079   -0.1035 H   0  0  0  0  0  0  0  0  0  0  0  0
    1.5762   -1.0642   -1.4922 H   0  0  0  0  0  0  0  0  0  0  0  0
   -0.3529   -0.1097   -2.1962 H   0  0  0  0  0  0  0  0  0  0  0  0
   -1.0222   -1.5183   -1.3544 H   0  0  0  0  0  0  0  0  0  0  0  0
   -1.3127    1.5489   -1.8992 H   0  0  0  0  0  0  0  0  0  0  0  0
   -2.7603   -1.1593    0.2293 H   0  0  0  0  0  0  0  0  0  0  0  0
   -3.1743   -0.1460   -1.2382 H   0  0  0  0  0  0  0  0  0  0  0  0
   -3.6150    0.3272    1.4417 H   0  0  0  0  0  0  0  0  0  0  0  0
   -1.3439    1.0906    1.6994 H   0  0  0  0  0  0  0  0  0  0  0  0
   -1.0378   -1.4694    1.2867 H   0  0  0  0  0  0  0  0  0  0  0  0
    0.5477    1.9471    0.0494 H   0  0  0  0  0  0  0  0  0  0  0  0
    1.0315    1.4875    1.7662 H   0  0  0  0  0  0  0  0  0  0  0  0
  1  2  1  0
  2  3  2  0
  2  4  1  0
  4  5  1  0
  5  6  1  0
  6  7  1  0
  7  8  1  6
  7  9  1  0
  9 10  1  0
  7 11  1  0
 11 12  1  0
 11 13  1  0
 13  4  1  0
  1 14  1  0
  1 15  1  0
  5 16  1  0
  5 17  1  0
  6 18  1  0
  6 19  1  0
  8 20  1  0
  9 21  1  0
  9 22  1  0
 10 23  1  0
 11 24  1  1
 12 25  1  0
 13 26  1  0
 13 27  1  0
M  END
$$$$

     RDKit          3D

 27 27  0  0  0  0  0  0  0  0999 V2000
    3.7512   -0.6126    0.0018 N   0  0  0  0  0  0  0  0  0  0  0  0
    2.9127    0.5347   -0.0386 C   0  0  0  0  0  0  0  0  0  0  0  0
    3.4072    1.6603   -0.2082 O   0  0  0  0  0  0  0  0  0  0  0  0
    1.5241    0.3451    0.1189 N   0  0  0  0  0  0  0  0  0  0  0  0
    0.9393   -0.9561    0.3163 C   0  0  0  0  0  0  0  0  0  0  0  0
   -0.1192   -1.1378   -0.7551 C   0  0  0  0  0  0  0  0  0  0  0  0
   -1.1889   -0.0990   -0.5644 C   0  0  1  0  0  0  0  0  0  0  0  0
   -1.4444    0.4761   -1.8315 O   0  0  0  0  0  0  0  0  0  0  0  0
   -2.4664   -0.7483   -0.1259 C   0  0  0  0  0  0  0  0  0  0  0  0
   -3.4896    0.2076   -0.0367 O   0  0  0  0  0  0  0  0  0  0  0  0
   -0.7926    1.0110    0.3459 C   0  0  1  0  0  0  0  0  0  0  0  0
   -1.0161    0.7361    1.6980 O   0  0  0  0  0  0  0  0  0  0  0  0
    0.6089    1.4799    0.0875 C   0  0  0  0  0  0  0  0  0  0  0  0
    4.5539   -0.6570    0.6510 H   0  0  0  0  0  0  0  0  0  0  0  0
    3.5415   -1.4219   -0.6433 H   0  0  0  0  0  0  0  0  0  0  0  0
    1.6867   -1.7737    0.2690 H   0  0  0  0  0  0  0  0  0  0  0  0
    0.4729   -1.0246    1.3191 H   0  0  0  0  0  0  0  0  0  0  0  0
    0.3878   -1.0412   -1.7420 H   0  0  0  0  0  0  0  0  0  0  0  0
   -0.5580   -2.1344   -0.6754 H   0  0  0  0  0  0  0  0  0  0  0  0
   -1.8749    1.3611   -1.6406 H   0  0  0  0  0  0  0  0  0  0  0  0
   -2.7422   -1.5159   -0.9072 H   0  0  0  0  0  0  0  0  0  0  0  0
   -2.3216   -1.3090    0.8009 H   0  0  0  0  0  0  0  0  0  0  0  0
   -3.9992    0.2652   -0.8982 H   0  0  0  0  0  0  0  0  0  0  0  0
   -1.4679    1.8858    0.1113 H   0  0  0  0  0  0  0  0  0  0  0  0
   -1.9015    0.3799    1.8641 H   0  0  0  0  0  0  0  0  0  0  0  0
    0.9534    2.1864    0.8554 H   0  0  0  0  0  0  0  0  0  0  0  0
    0.6428    1.9021   -0.9420 H   0  0  0  0  0  0  0  0  0  0  0  0
  1  2  1  0
  2  3  2  0
  2  4  1  0
  4  5  1  0
  5  6  1  0
  6  7  1  0
  7  8  1  6
  7  9  1  0
  9 10  1  0
  7 11  1  0
 11 12  1  0
 11 13  1  0
 13  4  1  0
  1 14  1  0
  1 15  1  0
  5 16  1  0
  5 17  1  0
  6 18  1  0
  6 19  1  0
  8 20  1  0
  9 21  1  0
  9 22  1  0
 10 23  1  0
 11 24  1  6
 12 25  1  0
 13 26  1  0
 13 27  1  0
M  END
$$$$

     RDKit          3D

 27 27  0  0  0  0  0  0  0  0999 V2000
   -3.7025   -0.5379    0.6726 N   0  0  0  0  0  0  0  0  0  0  0  0
   -2.9033    0.4062   -0.0354 C   0  0  0  0  0  0  0  0  0  0  0  0
   -3.4617    1.4051   -0.5158 O   0  0  0  0  0  0  0  0  0  0  0  0
   -1.5054    0.2325   -0.2007 N   0  0  0  0  0  0  0  0  0  0  0  0
   -0.7651    1.2365   -0.9326 C   0  0  0  0  0  0  0  0  0  0  0  0
    0.5358    1.4401   -0.1432 C   0  0  0  0  0  0  0  0  0  0  0  0
    1.2879    0.1379   -0.2683 C   0  0  1  0  0  0  0  0  0  0  0  0
    1.4665   -0.0819   -1.6540 O   0  0  0  0  0  0  0  0  0  0  0  0
    2.6772    0.3190    0.3028 C   0  0  0  0  0  0  0  0  0  0  0  0
    3.3903   -0.8580    0.0394 O   0  0  0  0  0  0  0  0  0  0  0  0
    0.5679   -1.0116    0.3223 C   0  0  1  0  0  0  0  0  0  0  0  0
    1.0914   -1.2232    1.6190 O   0  0  0  0  0  0  0  0  0  0  0  0
   -0.9004   -0.9377    0.3716 C   0  0  0  0  0  0  0  0  0  0  0  0
   -4.3210   -0.2461    1.4330 H   0  0  0  0  0  0  0  0  0  0  0  0
   -3.6320   -1.5330    0.3863 H   0  0  0  0  0  0  0  0  0  0  0  0
   -0.5478    0.8540   -1.9358 H   0  0  0  0  0  0  0  0  0  0  0  0
   -1.2655    2.2243   -0.9245 H   0  0  0  0  0  0  0  0  0  0  0  0
    0.2926    1.5941    0.9239 H   0  0  0  0  0  0  0  0  0  0  0  0
    1.1249    2.2619   -0.5406 H   0  0  0  0  0  0  0  0  0  0  0  0
    1.9310   -0.9656   -1.7184 H   0  0  0  0  0  0  0  0  0  0  0  0
    3.1631    1.1878   -0.1752 H   0  0  0  0  0  0  0  0  0  0  0  0
    2.6486    0.5189    1.3872 H   0  0  0  0  0  0  0  0  0  0  0  0
    3.6860   -1.2378    0.8842 H   0  0  0  0  0  0  0  0  0  0  0  0
    0.8707   -1.9345   -0.2479 H   0  0  0  0  0  0  0  0  0  0  0  0
    0.9038   -0.4339    2.1876 H   0  0  0  0  0  0  0  0  0  0  0  0
   -1.2550   -0.9957    1.4373 H   0  0  0  0  0  0  0  0  0  0  0  0
   -1.3777   -1.8217   -0.1383 H   0  0  0  0  0  0  0  0  0  0  0  0
  1  2  1  0
  2  3  2  0
  2  4  1  0
  4  5  1  0
  5  6  1  0
  6  7  1  0
  7  8  1  6
  7  9  1  0
  9 10  1  0
  7 11  1  0
 11 12  1  0
 11 13  1  0
 13  4  1  0
  1 14  1  0
  1 15  1  0
  5 16  1  0
  5 17  1  0
  6 18  1  0
  6 19  1  0
  8 20  1  0
  9 21  1  0
  9 22  1  0
 10 23  1  0
 11 24  1  6
 12 25  1  0
 13 26  1  0
 13 27  1  0
M  END
$$$$

     RDKit          3D

 27 27  0  0  0  0  0  0  0  0999 V2000
    3.8023    0.5999   -0.0695 N   0  0  0  0  0  0  0  0  0  0  0  0
    2.8456   -0.0790   -0.8646 C   0  0  0  0  0  0  0  0  0  0  0  0
    3.2233   -0.6636   -1.8954 O   0  0  0  0  0  0  0  0  0  0  0  0
    1.4927   -0.0685   -0.4582 N   0  0  0  0  0  0  0  0  0  0  0  0
    1.0883    0.6140    0.7347 C   0  0  0  0  0  0  0  0  0  0  0  0
   -0.2920    1.1760    0.5230 C   0  0  0  0  0  0  0  0  0  0  0  0
   -1.3250    0.0908    0.2906 C   0  0  1  0  0  0  0  0  0  0  0  0
   -1.8725   -0.2340    1.5283 O   0  0  0  0  0  0  0  0  0  0  0  0
   -2.4046    0.6399   -0.5929 C   0  0  0  0  0  0  0  0  0  0  0  0
   -3.4418   -0.2205   -0.8249 O   0  0  0  0  0  0  0  0  0  0  0  0
   -0.6354   -1.1097   -0.2542 C   0  0  1  0  0  0  0  0  0  0  0  0
   -1.4776   -2.0717   -0.7718 O   0  0  0  0  0  0  0  0  0  0  0  0
    0.4798   -0.7506   -1.2421 C   0  0  0  0  0  0  0  0  0  0  0  0
    3.9098    1.6176   -0.1473 H   0  0  0  0  0  0  0  0  0  0  0  0
    4.4196    0.0992    0.6103 H   0  0  0  0  0  0  0  0  0  0  0  0
    1.7646    1.4617    0.9254 H   0  0  0  0  0  0  0  0  0  0  0  0
    1.1117   -0.0289    1.6447 H   0  0  0  0  0  0  0  0  0  0  0  0
   -0.2720    1.8461   -0.3449 H   0  0  0  0  0  0  0  0  0  0  0  0
   -0.5676    1.7429    1.4325 H   0  0  0  0  0  0  0  0  0  0  0  0
   -2.5684   -0.9250    1.4057 H   0  0  0  0  0  0  0  0  0  0  0  0
   -1.9742    0.9425   -1.5848 H   0  0  0  0  0  0  0  0  0  0  0  0
   -2.7943    1.5761   -0.1465 H   0  0  0  0  0  0  0  0  0  0  0  0
   -3.8501   -0.0011   -1.7000 H   0  0  0  0  0  0  0  0  0  0  0  0
   -0.0925   -1.5970    0.6085 H   0  0  0  0  0  0  0  0  0  0  0  0
   -1.5213   -2.9010   -0.2202 H   0  0  0  0  0  0  0  0  0  0  0  0
    0.8477   -1.6874   -1.6772 H   0  0  0  0  0  0  0  0  0  0  0  0
    0.1038   -0.0687   -2.0281 H   0  0  0  0  0  0  0  0  0  0  0  0
  1  2  1  0
  2  3  2  0
  2  4  1  0
  4  5  1  0
  5  6  1  0
  6  7  1  0
  7  8  1  1
  7  9  1  0
  9 10  1  0
  7 11  1  0
 11 12  1  0
 11 13  1  0
 13  4  1  0
  1 14  1  0
  1 15  1  0
  5 16  1  0
  5 17  1  0
  6 18  1  0
  6 19  1  0
  8 20  1  0
  9 21  1  0
  9 22  1  0
 10 23  1  0
 11 24  1  1
 12 25  1  0
 13 26  1  0
 13 27  1  0
M  END
$$$$

     RDKit          3D

 27 27  0  0  0  0  0  0  0  0999 V2000
   -3.8457    0.2200    0.0990 N   0  0  0  0  0  0  0  0  0  0  0  0
   -2.8308   -0.7770    0.0555 C   0  0  0  0  0  0  0  0  0  0  0  0
   -3.0945   -1.9884   -0.1164 O   0  0  0  0  0  0  0  0  0  0  0  0
   -1.4873   -0.3663    0.2135 N   0  0  0  0  0  0  0  0  0  0  0  0
   -1.1118    1.0218    0.4163 C   0  0  0  0  0  0  0  0  0  0  0  0
    0.3114    1.0222    0.9350 C   0  0  0  0  0  0  0  0  0  0  0  0
    1.1884    0.5542   -0.2072 C   0  0  1  0  0  0  0  0  0  0  0  0
    0.9316    1.4258   -1.2801 O   0  0  0  0  0  0  0  0  0  0  0  0
    2.6476    0.6677    0.1536 C   0  0  0  0  0  0  0  0  0  0  0  0
    3.4938    0.3397   -0.8706 O   0  0  0  0  0  0  0  0  0  0  0  0
    0.7759   -0.8130   -0.6215 C   0  0  1  0  0  0  0  0  0  0  0  0
    1.7850   -1.7629   -0.4907 O   0  0  0  0  0  0  0  0  0  0  0  0
   -0.4114   -1.3344    0.1786 C   0  0  0  0  0  0  0  0  0  0  0  0
   -4.1684    0.5945   -0.8209 H   0  0  0  0  0  0  0  0  0  0  0  0
   -4.2644    0.5779    0.9857 H   0  0  0  0  0  0  0  0  0  0  0  0
   -1.1677    1.5722   -0.5564 H   0  0  0  0  0  0  0  0  0  0  0  0
   -1.7922    1.5361    1.1235 H   0  0  0  0  0  0  0  0  0  0  0  0
    0.6043    2.0377    1.2710 H   0  0  0  0  0  0  0  0  0  0  0  0
    0.3626    0.3347    1.8061 H   0  0  0  0  0  0  0  0  0  0  0  0
    1.3270    1.0802   -2.1194 H   0  0  0  0  0  0  0  0  0  0  0  0
    2.8609    0.0567    1.0630 H   0  0  0  0  0  0  0  0  0  0  0  0
    2.8557    1.7183    0.4467 H   0  0  0  0  0  0  0  0  0  0  0  0
    3.7986   -0.5902   -0.8902 H   0  0  0  0  0  0  0  0  0  0  0  0
    0.4359   -0.8497   -1.6984 H   0  0  0  0  0  0  0  0  0  0  0  0
    1.5974   -2.4219    0.2277 H   0  0  0  0  0  0  0  0  0  0  0  0
   -0.7284   -2.2803   -0.3023 H   0  0  0  0  0  0  0  0  0  0  0  0
   -0.0736   -1.5759    1.2062 H   0  0  0  0  0  0  0  0  0  0  0  0
  1  2  1  0
  2  3  2  0
  2  4  1  0
  4  5  1  0
  5  6  1  0
  6  7  1  0
  7  8  1  6
  7  9  1  0
  9 10  1  0
  7 11  1  0
 11 12  1  0
 11 13  1  0
 13  4  1  0
  1 14  1  0
  1 15  1  0
  5 16  1  0
  5 17  1  0
  6 18  1  0
  6 19  1  0
  8 20  1  0
  9 21  1  0
  9 22  1  0
 10 23  1  0
 11 24  1  6
 12 25  1  0
 13 26  1  0
 13 27  1  0
M  END
$$$$

     RDKit          3D

 27 27  0  0  0  0  0  0  0  0999 V2000
    3.6804    0.2708   -0.5703 N   0  0  0  0  0  0  0  0  0  0  0  0
    2.7778    0.6611    0.4574 C   0  0  0  0  0  0  0  0  0  0  0  0
    3.1768    1.4394    1.3544 O   0  0  0  0  0  0  0  0  0  0  0  0
    1.4483    0.1672    0.4522 N   0  0  0  0  0  0  0  0  0  0  0  0
    1.0076   -0.7384   -0.6040 C   0  0  0  0  0  0  0  0  0  0  0  0
   -0.3448   -0.3765   -1.1451 C   0  0  0  0  0  0  0  0  0  0  0  0
   -1.2034    0.3612   -0.1557 C   0  0  1  0  0  0  0  0  0  0  0  0
   -0.9866    1.7281   -0.3256 O   0  0  0  0  0  0  0  0  0  0  0  0
   -2.6755    0.0180   -0.3317 C   0  0  0  0  0  0  0  0  0  0  0  0
   -2.8362   -1.3504   -0.1527 O   0  0  0  0  0  0  0  0  0  0  0  0
   -0.7895   -0.0846    1.2414 C   0  0  1  0  0  0  0  0  0  0  0  0
   -0.5912   -1.4524    1.2923 O   0  0  0  0  0  0  0  0  0  0  0  0
    0.5521    0.5828    1.5127 C   0  0  0  0  0  0  0  0  0  0  0  0
    3.6835   -0.7212   -0.8787 H   0  0  0  0  0  0  0  0  0  0  0  0
    4.3014    1.0061   -0.9686 H   0  0  0  0  0  0  0  0  0  0  0  0
    1.7300   -0.6349   -1.4601 H   0  0  0  0  0  0  0  0  0  0  0  0
    1.0887   -1.8046   -0.2941 H   0  0  0  0  0  0  0  0  0  0  0  0
   -0.8582   -1.3196   -1.4482 H   0  0  0  0  0  0  0  0  0  0  0  0
   -0.2749    0.2434   -2.0605 H   0  0  0  0  0  0  0  0  0  0  0  0
   -1.5323    2.2564    0.2973 H   0  0  0  0  0  0  0  0  0  0  0  0
   -2.9371    0.3052   -1.3725 H   0  0  0  0  0  0  0  0  0  0  0  0
   -3.2942    0.6273    0.3518 H   0  0  0  0  0  0  0  0  0  0  0  0
   -3.5147   -1.4730    0.5481 H   0  0  0  0  0  0  0  0  0  0  0  0
   -1.5458    0.1860    1.9904 H   0  0  0  0  0  0  0  0  0  0  0  0
   -1.4119   -1.8763    1.6353 H   0  0  0  0  0  0  0  0  0  0  0  0
    0.3699    1.6841    1.4241 H   0  0  0  0  0  0  0  0  0  0  0  0
    0.9796    0.2950    2.4817 H   0  0  0  0  0  0  0  0  0  0  0  0
  1  2  1  0
  2  3  2  0
  2  4  1  0
  4  5  1  0
  5  6  1  0
  6  7  1  0
  7  8  1  1
  7  9  1  0
  9 10  1  0
  7 11  1  0
 11 12  1  0
 11 13  1  0
 13  4  1  0
  1 14  1  0
  1 15  1  0
  5 16  1  0
  5 17  1  0
  6 18  1  0
  6 19  1  0
  8 20  1  0
  9 21  1  0
  9 22  1  0
 10 23  1  0
 11 24  1  1
 12 25  1  0
 13 26  1  0
 13 27  1  0
M  END
$$$$
