
     RDKit          3D

 28 28  0  0  0  0  0  0  0  0999 V2000
    4.3298   -1.8637    0.4837 N   0  0  0  0  0  0  0  0  0  0  0  0
    3.1461   -1.3719    0.3353 C   0  0  0  0  0  0  0  0  0  0  0  0
    2.0908   -2.1389    0.0032 N   0  0  0  0  0  0  0  0  0  0  0  0
    0.8953   -1.6406   -0.1464 N   0  0  0  0  0  0  0  0  0  0  0  0
    0.6070   -0.3395    0.0133 C   0  0  0  0  0  0  0  0  0  0  0  0
   -0.6875    0.1947   -0.1497 N   0  0  0  0  0  0  0  0  0  0  0  0
   -0.9299    1.5923    0.0190 C   0  0  0  0  0  0  0  0  0  0  0  0
    0.2281    2.4500    0.3832 C   0  0  0  0  0  0  0  0  0  0  0  0
   -0.3240    3.8261    0.4839 N   0  0  0  0  0  0  0  0  0  0  0  0
   -1.7977   -0.6459   -0.4948 C   0  0  0  0  0  0  0  0  0  0  0  0
   -1.5226   -2.1040   -0.6331 C   0  0  0  0  0  0  0  0  0  0  0  0
   -2.8222   -2.7215   -0.9967 N   0  0  0  0  0  0  0  0  0  0  0  0
    1.6670    0.4357    0.3476 N   0  0  0  0  0  0  0  0  0  0  0  0
    2.8678   -0.0652    0.4978 N   0  0  0  0  0  0  0  0  0  0  0  0
    5.1136   -1.2296    0.7408 H   0  0  0  0  0  0  0  0  0  0  0  0
   -1.6756    1.6971    0.8615 H   0  0  0  0  0  0  0  0  0  0  0  0
   -1.3595    1.9931   -0.9282 H   0  0  0  0  0  0  0  0  0  0  0  0
    1.0069    2.5343   -0.3942 H   0  0  0  0  0  0  0  0  0  0  0  0
    0.6368    2.2234    1.4038 H   0  0  0  0  0  0  0  0  0  0  0  0
   -0.6812    3.9921    1.4515 H   0  0  0  0  0  0  0  0  0  0  0  0
   -1.0654    3.9758   -0.2290 H   0  0  0  0  0  0  0  0  0  0  0  0
   -2.2053   -0.2731   -1.4903 H   0  0  0  0  0  0  0  0  0  0  0  0
   -2.6778   -0.4541    0.1939 H   0  0  0  0  0  0  0  0  0  0  0  0
   -0.8580   -2.3451   -1.4682 H   0  0  0  0  0  0  0  0  0  0  0  0
   -1.1364   -2.5880    0.2820 H   0  0  0  0  0  0  0  0  0  0  0  0
   -2.9205   -3.6339   -0.5017 H   0  0  0  0  0  0  0  0  0  0  0  0
   -3.6047   -2.0715   -0.8293 H   0  0  0  0  0  0  0  0  0  0  0  0
    3.6790    0.5721    0.7611 H   0  0  0  0  0  0  0  0  0  0  0  0
  1  2  2  3
  2  3  1  0
  3  4  2  0
  4  5  1  0
  5  6  1  0
  6  7  1  0
  7  8  1  0
  8  9  1  0
  6 10  1  0
 10 11  1  0
 11 12  1  0
  5 13  2  0
 13 14  1  0
 14  2  1  0
  1 15  1  0
  7 16  1  0
  7 17  1  0
  8 18  1  0
  8 19  1  0
  9 20  1  0
  9 21  1  0
 10 22  1  0
 10 23  1  0
 11 24  1  0
 11 25  1  0
 12 26  1  0
 12 27  1  0
 14 28  1  0
M  END
$$$$

     RDKit          3D

 28 28  0  0  0  0  0  0  0  0999 V2000
    4.7775   -1.2605   -0.4519 N   0  0  0  0  0  0  0  0  0  0  0  0
    3.5624   -0.9015   -0.2535 C   0  0  0  0  0  0  0  0  0  0  0  0
    2.5785   -1.7933   -0.5019 N   0  0  0  0  0  0  0  0  0  0  0  0
    1.3326   -1.4616   -0.3097 N   0  0  0  0  0  0  0  0  0  0  0  0
    0.9464   -0.2680    0.1283 C   0  0  0  0  0  0  0  0  0  0  0  0
   -0.4030    0.1162    0.3474 N   0  0  0  0  0  0  0  0  0  0  0  0
   -0.6861    1.4441    0.8316 C   0  0  0  0  0  0  0  0  0  0  0  0
   -1.3919    2.2888   -0.2098 C   0  0  0  0  0  0  0  0  0  0  0  0
   -1.6489    3.6071    0.3370 N   0  0  0  0  0  0  0  0  0  0  0  0
   -1.5100   -0.7637    0.1130 C   0  0  0  0  0  0  0  0  0  0  0  0
   -1.1551   -2.1195   -0.4079 C   0  0  0  0  0  0  0  0  0  0  0  0
   -2.4143   -2.8722   -0.5743 N   0  0  0  0  0  0  0  0  0  0  0  0
    1.9613    0.6173    0.3727 N   0  0  0  0  0  0  0  0  0  0  0  0
    3.2354    0.3231    0.1914 N   0  0  0  0  0  0  0  0  0  0  0  0
    5.5814   -0.6040   -0.2741 H   0  0  0  0  0  0  0  0  0  0  0  0
   -1.3132    1.4629    1.7425 H   0  0  0  0  0  0  0  0  0  0  0  0
    0.2562    1.9968    1.1076 H   0  0  0  0  0  0  0  0  0  0  0  0
   -2.3099    1.8205   -0.5758 H   0  0  0  0  0  0  0  0  0  0  0  0
   -0.6880    2.4435   -1.0740 H   0  0  0  0  0  0  0  0  0  0  0  0
   -1.3776    3.6334    1.3468 H   0  0  0  0  0  0  0  0  0  0  0  0
   -2.6728    3.8333    0.3052 H   0  0  0  0  0  0  0  0  0  0  0  0
   -2.1705   -0.2958   -0.6771 H   0  0  0  0  0  0  0  0  0  0  0  0
   -2.1838   -0.8496    0.9953 H   0  0  0  0  0  0  0  0  0  0  0  0
   -0.5822   -2.6865    0.3230 H   0  0  0  0  0  0  0  0  0  0  0  0
   -0.6679   -2.0257   -1.4059 H   0  0  0  0  0  0  0  0  0  0  0  0
   -2.9090   -2.8091    0.3433 H   0  0  0  0  0  0  0  0  0  0  0  0
   -2.1463   -3.8809   -0.7579 H   0  0  0  0  0  0  0  0  0  0  0  0
    3.9990    1.0050    0.3797 H   0  0  0  0  0  0  0  0  0  0  0  0
  1  2  2  3
  2  3  1  0
  3  4  2  0
  4  5  1  0
  5  6  1  0
  6  7  1  0
  7  8  1  0
  8  9  1  0
  6 10  1  0
 10 11  1  0
 11 12  1  0
  5 13  2  0
 13 14  1  0
 14  2  1  0
  1 15  1  0
  7 16  1  0
  7 17  1  0
  8 18  1  0
  8 19  1  0
  9 20  1  0
  9 21  1  0
 10 22  1  0
 10 23  1  0
 11 24  1  0
 11 25  1  0
 12 26  1  0
 12 27  1  0
 14 28  1  0
M  END
$$$$

     RDKit          3D

 28 28  0  0  0  0  0  0  0  0999 V2000
    4.2795   -2.4441    0.0884 N   0  0  0  0  0  0  0  0  0  0  0  0
    3.1472   -1.8294    0.1500 C   0  0  0  0  0  0  0  0  0  0  0  0
    2.3809   -1.8634    1.2615 N   0  0  0  0  0  0  0  0  0  0  0  0
    1.2189   -1.2343    1.3154 N   0  0  0  0  0  0  0  0  0  0  0  0
    0.8303   -0.5705    0.2460 C   0  0  0  0  0  0  0  0  0  0  0  0
   -0.3941    0.1681    0.1782 N   0  0  0  0  0  0  0  0  0  0  0  0
   -1.4585   -0.3438   -0.6249 C   0  0  0  0  0  0  0  0  0  0  0  0
   -2.5934   -0.7233    0.3364 C   0  0  0  0  0  0  0  0  0  0  0  0
   -3.6662   -1.2595   -0.4483 N   0  0  0  0  0  0  0  0  0  0  0  0
   -0.4911    1.4211    0.8633 C   0  0  0  0  0  0  0  0  0  0  0  0
   -0.3307    2.5618   -0.1625 C   0  0  0  0  0  0  0  0  0  0  0  0
    1.0069    2.3323   -0.7195 N   0  0  0  0  0  0  0  0  0  0  0  0
    1.5779   -0.5138   -0.8919 N   0  0  0  0  0  0  0  0  0  0  0  0
    2.7183   -1.1322   -0.9395 N   0  0  0  0  0  0  0  0  0  0  0  0
    4.8543   -2.4099   -0.7647 H   0  0  0  0  0  0  0  0  0  0  0  0
   -1.8992    0.4143   -1.3199 H   0  0  0  0  0  0  0  0  0  0  0  0
   -1.1729   -1.2007   -1.2740 H   0  0  0  0  0  0  0  0  0  0  0  0
   -2.1782   -1.4672    1.0470 H   0  0  0  0  0  0  0  0  0  0  0  0
   -2.8936    0.2179    0.8351 H   0  0  0  0  0  0  0  0  0  0  0  0
   -3.6453   -2.3189   -0.4537 H   0  0  0  0  0  0  0  0  0  0  0  0
   -4.5567   -0.9942    0.0854 H   0  0  0  0  0  0  0  0  0  0  0  0
   -1.5121    1.5673    1.3026 H   0  0  0  0  0  0  0  0  0  0  0  0
    0.2934    1.4674    1.6378 H   0  0  0  0  0  0  0  0  0  0  0  0
   -0.3963    3.5042    0.4001 H   0  0  0  0  0  0  0  0  0  0  0  0
   -1.0655    2.4255   -0.9528 H   0  0  0  0  0  0  0  0  0  0  0  0
    0.9725    2.4362   -1.7238 H   0  0  0  0  0  0  0  0  0  0  0  0
    1.6761    2.8774   -0.1704 H   0  0  0  0  0  0  0  0  0  0  0  0
    3.2975   -1.0884   -1.8306 H   0  0  0  0  0  0  0  0  0  0  0  0
  1  2  2  3
  2  3  1  0
  3  4  2  0
  4  5  1  0
  5  6  1  0
  6  7  1  0
  7  8  1  0
  8  9  1  0
  6 10  1  0
 10 11  1  0
 11 12  1  0
  5 13  2  0
 13 14  1  0
 14  2  1  0
  1 15  1  0
  7 16  1  0
  7 17  1  0
  8 18  1  0
  8 19  1  0
  9 20  1  0
  9 21  1  0
 10 22  1  0
 10 23  1  0
 11 24  1  0
 11 25  1  0
 12 26  1  0
 12 27  1  0
 14 28  1  0
M  END
$$$$

     RDKit          3D

 28 28  0  0  0  0  0  0  0  0999 V2000
    5.0082    0.5185    1.2114 N   0  0  0  0  0  0  0  0  0  0  0  0
    3.7547    0.3737    0.8884 C   0  0  0  0  0  0  0  0  0  0  0  0
    2.8664    1.3339    1.1456 N   0  0  0  0  0  0  0  0  0  0  0  0
    1.5870    1.1836    0.8105 N   0  0  0  0  0  0  0  0  0  0  0  0
    1.1929    0.0368    0.1994 C   0  0  0  0  0  0  0  0  0  0  0  0
   -0.1924   -0.0622   -0.1139 N   0  0  0  0  0  0  0  0  0  0  0  0
   -0.7265    0.7935   -1.1568 C   0  0  0  0  0  0  0  0  0  0  0  0
   -1.6869    1.8177   -0.5866 C   0  0  0  0  0  0  0  0  0  0  0  0
   -2.1680    2.6365   -1.6929 N   0  0  0  0  0  0  0  0  0  0  0  0
   -0.9728   -1.0124    0.6070 C   0  0  0  0  0  0  0  0  0  0  0  0
   -1.4434   -2.1890   -0.2358 C   0  0  0  0  0  0  0  0  0  0  0  0
   -2.2231   -3.0415    0.6644 N   0  0  0  0  0  0  0  0  0  0  0  0
    2.0702   -0.9424   -0.0700 N   0  0  0  0  0  0  0  0  0  0  0  0
    3.3403   -0.7724    0.2737 N   0  0  0  0  0  0  0  0  0  0  0  0
    5.2818    1.4226    1.6831 H   0  0  0  0  0  0  0  0  0  0  0  0
   -1.2523    0.2321   -1.9425 H   0  0  0  0  0  0  0  0  0  0  0  0
    0.0807    1.3776   -1.6530 H   0  0  0  0  0  0  0  0  0  0  0  0
   -1.2210    2.5054    0.1432 H   0  0  0  0  0  0  0  0  0  0  0  0
   -2.5990    1.3040   -0.1646 H   0  0  0  0  0  0  0  0  0  0  0  0
   -3.2126    2.6884   -1.7280 H   0  0  0  0  0  0  0  0  0  0  0  0
   -1.7288    3.5803   -1.6932 H   0  0  0  0  0  0  0  0  0  0  0  0
   -0.4359   -1.4519    1.4660 H   0  0  0  0  0  0  0  0  0  0  0  0
   -1.9145   -0.5810    1.0529 H   0  0  0  0  0  0  0  0  0  0  0  0
   -2.0960   -1.8317   -1.0370 H   0  0  0  0  0  0  0  0  0  0  0  0
   -0.6302   -2.7761   -0.6571 H   0  0  0  0  0  0  0  0  0  0  0  0
   -3.1024   -2.5519    0.9301 H   0  0  0  0  0  0  0  0  0  0  0  0
   -1.6558   -3.0937    1.5573 H   0  0  0  0  0  0  0  0  0  0  0  0
    4.0792   -1.4985    0.0983 H   0  0  0  0  0  0  0  0  0  0  0  0
  1  2  2  3
  2  3  1  0
  3  4  2  0
  4  5  1  0
  5  6  1  0
  6  7  1  0
  7  8  1  0
  8  9  1  0
  6 10  1  0
 10 11  1  0
 11 12  1  0
  5 13  2  0
 13 14  1  0
 14  2  1  0
  1 15  1  0
  7 16  1  0
  7 17  1  0
  8 18  1  0
  8 19  1  0
  9 20  1  0
  9 21  1  0
 10 22  1  0
 10 23  1  0
 11 24  1  0
 11 25  1  0
 12 26  1  0
 12 27  1  0
 14 28  1  0
M  END
$$$$

     RDKit          3D

 28 28  0  0  0  0  0  0  0  0999 V2000
    4.4953   -1.1538    0.6865 N   0  0  0  0  0  0  0  0  0  0  0  0
    3.2820   -0.8062    0.3653 C   0  0  0  0  0  0  0  0  0  0  0  0
    2.4378   -0.3039    1.2884 N   0  0  0  0  0  0  0  0  0  0  0  0
    1.2093    0.0478    0.9566 N   0  0  0  0  0  0  0  0  0  0  0  0
    0.7332   -0.0695   -0.2942 C   0  0  0  0  0  0  0  0  0  0  0  0
   -0.5758    0.3064   -0.6511 N   0  0  0  0  0  0  0  0  0  0  0  0
   -1.7144   -0.5803   -0.6688 C   0  0  0  0  0  0  0  0  0  0  0  0
   -1.4096   -1.9861   -0.2391 C   0  0  0  0  0  0  0  0  0  0  0  0
   -0.8984   -2.0451    1.1204 N   0  0  0  0  0  0  0  0  0  0  0  0
   -0.8163    1.6865   -1.0313 C   0  0  0  0  0  0  0  0  0  0  0  0
   -1.6638    2.4003    0.0026 C   0  0  0  0  0  0  0  0  0  0  0  0
   -0.9063    2.3321    1.2450 N   0  0  0  0  0  0  0  0  0  0  0  0
    1.5869   -0.5710   -1.1989 N   0  0  0  0  0  0  0  0  0  0  0  0
    2.8252   -0.9317   -0.8907 N   0  0  0  0  0  0  0  0  0  0  0  0
    5.0871   -1.5333   -0.0807 H   0  0  0  0  0  0  0  0  0  0  0  0
   -2.5477   -0.1802   -0.0282 H   0  0  0  0  0  0  0  0  0  0  0  0
   -2.1268   -0.6161   -1.7220 H   0  0  0  0  0  0  0  0  0  0  0  0
   -0.7338   -2.4959   -0.9426 H   0  0  0  0  0  0  0  0  0  0  0  0
   -2.3699   -2.5443   -0.2505 H   0  0  0  0  0  0  0  0  0  0  0  0
   -1.5329   -1.4453    1.7081 H   0  0  0  0  0  0  0  0  0  0  0  0
   -1.0096   -3.0264    1.5046 H   0  0  0  0  0  0  0  0  0  0  0  0
   -1.2587    1.6728   -2.0305 H   0  0  0  0  0  0  0  0  0  0  0  0
    0.1344    2.2668   -1.0989 H   0  0  0  0  0  0  0  0  0  0  0  0
   -2.6556    1.9181    0.0741 H   0  0  0  0  0  0  0  0  0  0  0  0
   -1.7108    3.4723   -0.3004 H   0  0  0  0  0  0  0  0  0  0  0  0
   -1.3718    2.7429    2.0540 H   0  0  0  0  0  0  0  0  0  0  0  0
    0.0197    2.7654    1.0509 H   0  0  0  0  0  0  0  0  0  0  0  0
    3.4911   -1.3221   -1.5914 H   0  0  0  0  0  0  0  0  0  0  0  0
  1  2  2  3
  2  3  1  0
  3  4  2  0
  4  5  1  0
  5  6  1  0
  6  7  1  0
  7  8  1  0
  8  9  1  0
  6 10  1  0
 10 11  1  0
 11 12  1  0
  5 13  2  0
 13 14  1  0
 14  2  1  0
  1 15  1  0
  7 16  1  0
  7 17  1  0
  8 18  1  0
  8 19  1  0
  9 20  1  0
  9 21  1  0
 10 22  1  0
 10 23  1  0
 11 24  1  0
 11 25  1  0
 12 26  1  0
 12 27  1  0
 14 28  1  0
M  END
$$$$

     RDKit          3D

 28 28  0  0  0  0  0  0  0  0999 V2000
    5.0788    0.2516    0.5989 N   0  0  0  0  0  0  0  0  0  0  0  0
    3.8092    0.1230    0.3878 C   0  0  0  0  0  0  0  0  0  0  0  0
    2.9511   -0.0913    1.4271 N   0  0  0  0  0  0  0  0  0  0  0  0
    1.6545   -0.2166    1.1869 N   0  0  0  0  0  0  0  0  0  0  0  0
    1.1985   -0.1340   -0.0529 C   0  0  0  0  0  0  0  0  0  0  0  0
   -0.2112   -0.2481   -0.4108 N   0  0  0  0  0  0  0  0  0  0  0  0
   -0.6477   -1.5614   -0.5928 C   0  0  0  0  0  0  0  0  0  0  0  0
   -1.6145   -2.2260    0.2956 C   0  0  0  0  0  0  0  0  0  0  0  0
   -2.9049   -1.5744    0.2140 N   0  0  0  0  0  0  0  0  0  0  0  0
   -0.8398    1.0189   -0.4817 C   0  0  0  0  0  0  0  0  0  0  0  0
   -1.7391    1.4707    0.5922 C   0  0  0  0  0  0  0  0  0  0  0  0
   -2.1867    2.8281    0.1773 N   0  0  0  0  0  0  0  0  0  0  0  0
    2.0489    0.0749   -1.0562 N   0  0  0  0  0  0  0  0  0  0  0  0
    3.3686    0.2088   -0.8652 N   0  0  0  0  0  0  0  0  0  0  0  0
    5.7440    0.4116   -0.1557 H   0  0  0  0  0  0  0  0  0  0  0  0
   -1.0300   -1.6110   -1.6816 H   0  0  0  0  0  0  0  0  0  0  0  0
    0.2402   -2.2822   -0.6706 H   0  0  0  0  0  0  0  0  0  0  0  0
   -1.7705   -3.2888    0.0105 H   0  0  0  0  0  0  0  0  0  0  0  0
   -1.2726   -2.3057    1.3592 H   0  0  0  0  0  0  0  0  0  0  0  0
   -2.9073   -0.9465   -0.6315 H   0  0  0  0  0  0  0  0  0  0  0  0
   -3.6917   -2.2701    0.1652 H   0  0  0  0  0  0  0  0  0  0  0  0
   -0.0849    1.8623   -0.5968 H   0  0  0  0  0  0  0  0  0  0  0  0
   -1.4023    1.1309   -1.4827 H   0  0  0  0  0  0  0  0  0  0  0  0
   -1.1515    1.7173    1.5137 H   0  0  0  0  0  0  0  0  0  0  0  0
   -2.6568    0.9500    0.7824 H   0  0  0  0  0  0  0  0  0  0  0  0
   -1.3956    3.5040    0.2232 H   0  0  0  0  0  0  0  0  0  0  0  0
   -2.5637    2.8303   -0.7839 H   0  0  0  0  0  0  0  0  0  0  0  0
    3.9773    0.3737   -1.7086 H   0  0  0  0  0  0  0  0  0  0  0  0
  1  2  2  3
  2  3  1  0
  3  4  2  0
  4  5  1  0
  5  6  1  0
  6  7  1  0
  7  8  1  0
  8  9  1  0
  6 10  1  0
 10 11  1  0
 11 12  1  0
  5 13  2  0
 13 14  1  0
 14  2  1  0
  1 15  1  0
  7 16  1  0
  7 17  1  0
  8 18  1  0
  8 19  1  0
  9 20  1  0
  9 21  1  0
 10 22  1  0
 10 23  1  0
 11 24  1  0
 11 25  1  0
 12 26  1  0
 12 27  1  0
 14 28  1  0
M  END
$$$$

     RDKit          3D

 28 28  0  0  0  0  0  0  0  0999 V2000
    4.8735   -1.4235   -0.7246 N   0  0  0  0  0  0  0  0  0  0  0  0
    3.6313   -1.1114   -0.4674 C   0  0  0  0  0  0  0  0  0  0  0  0
    2.8643   -1.8085    0.4000 N   0  0  0  0  0  0  0  0  0  0  0  0
    1.6233   -1.4617    0.6132 N   0  0  0  0  0  0  0  0  0  0  0  0
    1.0385   -0.4356    0.0159 C   0  0  0  0  0  0  0  0  0  0  0  0
   -0.2981   -0.0144    0.1337 N   0  0  0  0  0  0  0  0  0  0  0  0
   -0.6527    1.0621    1.0096 C   0  0  0  0  0  0  0  0  0  0  0  0
   -1.0794    2.2655    0.1735 C   0  0  0  0  0  0  0  0  0  0  0  0
   -1.4784    3.3689    1.0048 N   0  0  0  0  0  0  0  0  0  0  0  0
   -1.2900   -0.6814   -0.6833 C   0  0  0  0  0  0  0  0  0  0  0  0
   -2.3208   -1.4458    0.0963 C   0  0  0  0  0  0  0  0  0  0  0  0
   -1.8338   -2.4831    0.9309 N   0  0  0  0  0  0  0  0  0  0  0  0
    1.8014    0.2724   -0.8542 N   0  0  0  0  0  0  0  0  0  0  0  0
    3.0488   -0.0716   -1.0708 N   0  0  0  0  0  0  0  0  0  0  0  0
    5.3566   -0.8133   -1.4045 H   0  0  0  0  0  0  0  0  0  0  0  0
    0.2190    1.4007    1.6248 H   0  0  0  0  0  0  0  0  0  0  0  0
   -1.4385    0.8188    1.7515 H   0  0  0  0  0  0  0  0  0  0  0  0
   -1.8892    1.9194   -0.5146 H   0  0  0  0  0  0  0  0  0  0  0  0
   -0.2339    2.6019   -0.4674 H   0  0  0  0  0  0  0  0  0  0  0  0
   -2.4188    3.1907    1.4457 H   0  0  0  0  0  0  0  0  0  0  0  0
   -1.5599    4.2250    0.3963 H   0  0  0  0  0  0  0  0  0  0  0  0
   -1.8256    0.0387   -1.3383 H   0  0  0  0  0  0  0  0  0  0  0  0
   -0.8214   -1.4094   -1.3858 H   0  0  0  0  0  0  0  0  0  0  0  0
   -2.9602   -0.7051    0.6416 H   0  0  0  0  0  0  0  0  0  0  0  0
   -2.9814   -1.9420   -0.6816 H   0  0  0  0  0  0  0  0  0  0  0  0
   -2.1088   -3.4230    0.5930 H   0  0  0  0  0  0  0  0  0  0  0  0
   -0.8736   -2.4394    1.2598 H   0  0  0  0  0  0  0  0  0  0  0  0
    3.6080    0.5051   -1.7579 H   0  0  0  0  0  0  0  0  0  0  0  0
  1  2  2  3
  2  3  1  0
  3  4  2  0
  4  5  1  0
  5  6  1  0
  6  7  1  0
  7  8  1  0
  8  9  1  0
  6 10  1  0
 10 11  1  0
 11 12  1  0
  5 13  2  0
 13 14  1  0
 14  2  1  0
  1 15  1  0
  7 16  1  0
  7 17  1  0
  8 18  1  0
  8 19  1  0
  9 20  1  0
  9 21  1  0
 10 22  1  0
 10 23  1  0
 11 24  1  0
 11 25  1  0
 12 26  1  0
 12 27  1  0
 14 28  1  0
M  END
$$$$

     RDKit          3D

 28 28  0  0  0  0  0  0  0  0999 V2000
    4.5036   -2.3823    0.0975 N   0  0  0  0  0  0  0  0  0  0  0  0
    3.3508   -1.7147    0.1036 C   0  0  0  0  0  0  0  0  0  0  0  0
    2.7887   -1.5093   -1.1062 N   0  0  0  0  0  0  0  0  0  0  0  0
    1.6193   -0.8485   -1.1533 N   0  0  0  0  0  0  0  0  0  0  0  0
    1.0034   -0.3939   -0.0511 C   0  0  0  0  0  0  0  0  0  0  0  0
   -0.2498    0.3156   -0.1005 N   0  0  0  0  0  0  0  0  0  0  0  0
   -1.2425   -0.1037    0.8600 C   0  0  0  0  0  0  0  0  0  0  0  0
   -2.4415   -0.7439    0.2127 C   0  0  0  0  0  0  0  0  0  0  0  0
   -2.1213   -1.9352   -0.5531 N   0  0  0  0  0  0  0  0  0  0  0  0
   -0.3986    1.3450   -1.0611 C   0  0  0  0  0  0  0  0  0  0  0  0
   -0.5194    2.7485   -0.5139 C   0  0  0  0  0  0  0  0  0  0  0  0
   -1.6983    2.8493    0.2987 N   0  0  0  0  0  0  0  0  0  0  0  0
    1.6159   -0.6290    1.1324 N   0  0  0  0  0  0  0  0  0  0  0  0
    2.7723   -1.2783    1.2165 N   0  0  0  0  0  0  0  0  0  0  0  0
    4.8860   -2.6924   -0.8161 H   0  0  0  0  0  0  0  0  0  0  0  0
   -1.5317    0.7188    1.5204 H   0  0  0  0  0  0  0  0  0  0  0  0
   -0.8296   -0.8957    1.5398 H   0  0  0  0  0  0  0  0  0  0  0  0
   -3.0090   -0.0663   -0.4366 H   0  0  0  0  0  0  0  0  0  0  0  0
   -3.1285   -1.0852    1.0382 H   0  0  0  0  0  0  0  0  0  0  0  0
   -2.3110   -2.7923   -0.0134 H   0  0  0  0  0  0  0  0  0  0  0  0
   -1.1195   -1.8540   -0.8354 H   0  0  0  0  0  0  0  0  0  0  0  0
    0.5021    1.3424   -1.7420 H   0  0  0  0  0  0  0  0  0  0  0  0
   -1.3090    1.2203   -1.7065 H   0  0  0  0  0  0  0  0  0  0  0  0
   -0.6885    3.4416   -1.3890 H   0  0  0  0  0  0  0  0  0  0  0  0
    0.3837    3.0732    0.0285 H   0  0  0  0  0  0  0  0  0  0  0  0
   -2.4967    2.2693    0.0126 H   0  0  0  0  0  0  0  0  0  0  0  0
   -1.5710    3.0575    1.2788 H   0  0  0  0  0  0  0  0  0  0  0  0
    3.2402   -1.4567    2.1385 H   0  0  0  0  0  0  0  0  0  0  0  0
  1  2  2  3
  2  3  1  0
  3  4  2  0
  4  5  1  0
  5  6  1  0
  6  7  1  0
  7  8  1  0
  8  9  1  0
  6 10  1  0
 10 11  1  0
 11 12  1  0
  5 13  2  0
 13 14  1  0
 14  2  1  0
  1 15  1  0
  7 16  1  0
  7 17  1  0
  8 18  1  0
  8 19  1  0
  9 20  1  0
  9 21  1  0
 10 22  1  0
 10 23  1  0
 11 24  1  0
 11 25  1  0
 12 26  1  0
 12 27  1  0
 14 28  1  0
M  END
$$$$
