
     RDKit          3D

 25 26  0  0  0  0  0  0  0  0999 V2000
    3.9205    0.7767   -0.7743 N   0  0  0  0  0  0  0  0  0  0  0  0
    3.0022   -0.0857   -0.0605 C   0  0  0  0  0  0  0  0  0  0  0  0
    1.5505    0.1941   -0.4624 C   0  0  2  0  0  0  0  0  0  0  0  0
    1.3093    1.5292   -0.1401 O   0  0  0  0  0  0  0  0  0  0  0  0
    0.7076   -0.7300    0.3862 C   0  0  0  0  0  0  0  0  0  0  0  0
   -0.7003   -0.5162    0.2272 N   0  0  0  0  0  0  0  0  0  0  0  0
   -1.4823    0.3904    1.0114 C   0  0  0  0  0  0  0  0  0  0  0  0
   -1.0027    1.3451    1.6743 O   0  0  0  0  0  0  0  0  0  0  0  0
   -2.9174   -0.0086    0.8886 C   0  0  1  0  0  0  0  0  0  0  0  0
   -3.5868    0.4517   -0.3457 C   0  0  0  0  0  0  0  0  0  0  0  0
   -2.9897   -0.8847   -0.3351 C   0  0  1  0  0  0  0  0  0  0  0  0
   -1.5839   -1.1352   -0.7066 C   0  0  0  0  0  0  0  0  0  0  0  0
   -1.2048   -1.7996   -1.7040 O   0  0  0  0  0  0  0  0  0  0  0  0
    4.8254    0.7557   -0.2137 H   0  0  0  0  0  0  0  0  0  0  0  0
    3.5787    1.7547   -0.7354 H   0  0  0  0  0  0  0  0  0  0  0  0
    3.0438    0.0644    1.0403 H   0  0  0  0  0  0  0  0  0  0  0  0
    3.1763   -1.1479   -0.2451 H   0  0  0  0  0  0  0  0  0  0  0  0
    1.4056    0.0309   -1.5510 H   0  0  0  0  0  0  0  0  0  0  0  0
    1.8353    1.7334    0.6775 H   0  0  0  0  0  0  0  0  0  0  0  0
    1.0541   -0.5898    1.4395 H   0  0  0  0  0  0  0  0  0  0  0  0
    1.0134   -1.7767    0.1140 H   0  0  0  0  0  0  0  0  0  0  0  0
   -3.4456   -0.3961    1.7600 H   0  0  0  0  0  0  0  0  0  0  0  0
   -4.6920    0.4984   -0.3100 H   0  0  0  0  0  0  0  0  0  0  0  0
   -3.1408    1.3190   -0.8674 H   0  0  0  0  0  0  0  0  0  0  0  0
   -3.6763   -1.7732   -0.3079 H   0  0  0  0  0  0  0  0  0  0  0  0
  1  2  1  0
  2  3  1  0
  3  4  1  0
  3  5  1  0
  5  6  1  0
  6  7  1  0
  7  8  2  0
  7  9  1  0
  9 10  1  0
 10 11  1  0
 11 12  1  0
 12 13  2  0
 12  6  1  0
 11  9  1  0
  1 14  1  0
  1 15  1  0
  2 16  1  0
  2 17  1  0
  3 18  1  6
  4 19  1  0
  5 20  1  0
  5 21  1  0
  9 22  1  1
 10 23  1  0
 10 24  1  0
 11 25  1  1
M  END
$$$$

     RDKit          3D

 25 26  0  0  0  0  0  0  0  0999 V2000
    3.8273    0.7934   -0.0402 N   0  0  0  0  0  0  0  0  0  0  0  0
    2.9903   -0.2929    0.4428 C   0  0  0  0  0  0  0  0  0  0  0  0
    1.5583    0.0716    0.0822 C   0  0  2  0  0  0  0  0  0  0  0  0
    1.2471    1.2587    0.6995 O   0  0  0  0  0  0  0  0  0  0  0  0
    0.6273   -1.0272    0.5493 C   0  0  0  0  0  0  0  0  0  0  0  0
   -0.7268   -0.6297    0.2055 N   0  0  0  0  0  0  0  0  0  0  0  0
   -1.5866    0.1243    1.0547 C   0  0  0  0  0  0  0  0  0  0  0  0
   -1.3190    0.7905    2.0879 O   0  0  0  0  0  0  0  0  0  0  0  0
   -2.9408   -0.0067    0.4929 C   0  0  1  0  0  0  0  0  0  0  0  0
   -3.2280    0.8752   -0.6799 C   0  0  0  0  0  0  0  0  0  0  0  0
   -2.8003   -0.5041   -0.9220 C   0  0  1  0  0  0  0  0  0  0  0  0
   -1.4017   -0.9227   -1.0109 C   0  0  0  0  0  0  0  0  0  0  0  0
   -0.8411   -1.4634   -1.9950 O   0  0  0  0  0  0  0  0  0  0  0  0
    3.9814    1.5062    0.7136 H   0  0  0  0  0  0  0  0  0  0  0  0
    3.4091    1.2639   -0.8762 H   0  0  0  0  0  0  0  0  0  0  0  0
    3.2393   -1.2567   -0.0152 H   0  0  0  0  0  0  0  0  0  0  0  0
    3.1086   -0.3898    1.5380 H   0  0  0  0  0  0  0  0  0  0  0  0
    1.4862    0.2119   -1.0012 H   0  0  0  0  0  0  0  0  0  0  0  0
    1.9321    1.5659    1.3549 H   0  0  0  0  0  0  0  0  0  0  0  0
    0.7231   -1.1778    1.6346 H   0  0  0  0  0  0  0  0  0  0  0  0
    0.8302   -1.9769    0.0278 H   0  0  0  0  0  0  0  0  0  0  0  0
   -3.7592   -0.4585    1.0790 H   0  0  0  0  0  0  0  0  0  0  0  0
   -4.2665    1.1387   -0.8722 H   0  0  0  0  0  0  0  0  0  0  0  0
   -2.5164    1.7112   -0.8852 H   0  0  0  0  0  0  0  0  0  0  0  0
   -3.5739   -1.2050   -1.3299 H   0  0  0  0  0  0  0  0  0  0  0  0
  1  2  1  0
  2  3  1  0
  3  4  1  0
  3  5  1  0
  5  6  1  0
  6  7  1  0
  7  8  2  0
  7  9  1  0
  9 10  1  0
 10 11  1  0
 11 12  1  0
 12 13  2  0
 12  6  1  0
 11  9  1  0
  1 14  1  0
  1 15  1  0
  2 16  1  0
  2 17  1  0
  3 18  1  6
  4 19  1  0
  5 20  1  0
  5 21  1  0
  9 22  1  1
 10 23  1  0
 10 24  1  0
 11 25  1  1
M  END
$$$$

     RDKit          3D

 25 26  0  0  0  0  0  0  0  0999 V2000
    2.6830   -0.9067    0.6662 N   0  0  0  0  0  0  0  0  0  0  0  0
    1.9850    0.3580    0.7340 C   0  0  0  0  0  0  0  0  0  0  0  0
    1.7314    0.9168   -0.6379 C   0  0  2  0  0  0  0  0  0  0  0  0
    1.0633    2.1505   -0.4863 O   0  0  0  0  0  0  0  0  0  0  0  0
    0.8568   -0.0060   -1.4431 C   0  0  0  0  0  0  0  0  0  0  0  0
   -0.4079   -0.2098   -0.7762 N   0  0  0  0  0  0  0  0  0  0  0  0
   -1.5515    0.6020   -0.9598 C   0  0  0  0  0  0  0  0  0  0  0  0
   -1.7688    1.3670   -1.9112 O   0  0  0  0  0  0  0  0  0  0  0  0
   -2.4439    0.3715    0.1936 C   0  0  1  0  0  0  0  0  0  0  0  0
   -3.2538   -0.8467    0.1906 C   0  0  0  0  0  0  0  0  0  0  0  0
   -1.9051   -0.7937    0.9369 C   0  0  1  0  0  0  0  0  0  0  0  0
   -0.7202   -1.2517    0.1630 C   0  0  0  0  0  0  0  0  0  0  0  0
   -0.0726   -2.3131    0.2523 O   0  0  0  0  0  0  0  0  0  0  0  0
    3.5668   -0.7845    0.1246 H   0  0  0  0  0  0  0  0  0  0  0  0
    2.9309   -1.2084    1.6373 H   0  0  0  0  0  0  0  0  0  0  0  0
    1.0263    0.2377    1.2890 H   0  0  0  0  0  0  0  0  0  0  0  0
    2.5968    1.1093    1.2807 H   0  0  0  0  0  0  0  0  0  0  0  0
    2.6978    1.1121   -1.1467 H   0  0  0  0  0  0  0  0  0  0  0  0
    1.1742    2.7142   -1.2968 H   0  0  0  0  0  0  0  0  0  0  0  0
    1.3410   -0.9751   -1.6532 H   0  0  0  0  0  0  0  0  0  0  0  0
    0.6589    0.4773   -2.4295 H   0  0  0  0  0  0  0  0  0  0  0  0
   -2.8426    1.2593    0.7290 H   0  0  0  0  0  0  0  0  0  0  0  0
   -4.1679   -0.9068    0.8175 H   0  0  0  0  0  0  0  0  0  0  0  0
   -3.2513   -1.5797   -0.6318 H   0  0  0  0  0  0  0  0  0  0  0  0
   -1.9266   -0.8932    2.0187 H   0  0  0  0  0  0  0  0  0  0  0  0
  1  2  1  0
  2  3  1  0
  3  4  1  0
  3  5  1  0
  5  6  1  0
  6  7  1  0
  7  8  2  0
  7  9  1  0
  9 10  1  0
 10 11  1  0
 11 12  1  0
 12 13  2  0
 12  6  1  0
 11  9  1  0
  1 14  1  0
  1 15  1  0
  2 16  1  0
  2 17  1  0
  3 18  1  6
  4 19  1  0
  5 20  1  0
  5 21  1  0
  9 22  1  1
 10 23  1  0
 10 24  1  0
 11 25  1  1
M  END
$$$$

     RDKit          3D

 25 26  0  0  0  0  0  0  0  0999 V2000
    1.0884   -1.6144    0.5793 N   0  0  0  0  0  0  0  0  0  0  0  0
    2.2111   -0.7374    0.4705 C   0  0  0  0  0  0  0  0  0  0  0  0
    2.0177    0.3815   -0.5026 C   0  0  2  0  0  0  0  0  0  0  0  0
    3.2213    1.1318   -0.4971 O   0  0  0  0  0  0  0  0  0  0  0  0
    0.9366    1.3580   -0.1310 C   0  0  0  0  0  0  0  0  0  0  0  0
   -0.3709    0.7776   -0.0735 N   0  0  0  0  0  0  0  0  0  0  0  0
   -0.9599    0.2197    1.1086 C   0  0  0  0  0  0  0  0  0  0  0  0
   -0.5362    0.4432    2.2611 O   0  0  0  0  0  0  0  0  0  0  0  0
   -2.0988   -0.6206    0.7247 C   0  0  1  0  0  0  0  0  0  0  0  0
   -3.3346   -0.0302    0.1521 C   0  0  0  0  0  0  0  0  0  0  0  0
   -2.2310   -0.4312   -0.7417 C   0  0  1  0  0  0  0  0  0  0  0  0
   -1.2892    0.6440   -1.1372 C   0  0  0  0  0  0  0  0  0  0  0  0
   -1.3364    1.2768   -2.2052 O   0  0  0  0  0  0  0  0  0  0  0  0
    0.9237   -2.1512   -0.2816 H   0  0  0  0  0  0  0  0  0  0  0  0
    1.2365   -2.2388    1.4054 H   0  0  0  0  0  0  0  0  0  0  0  0
    3.1280   -1.2950    0.1635 H   0  0  0  0  0  0  0  0  0  0  0  0
    2.4239   -0.2816    1.4615 H   0  0  0  0  0  0  0  0  0  0  0  0
    1.8717   -0.0127   -1.5382 H   0  0  0  0  0  0  0  0  0  0  0  0
    3.1636    1.7342    0.2889 H   0  0  0  0  0  0  0  0  0  0  0  0
    1.2428    1.7975    0.8496 H   0  0  0  0  0  0  0  0  0  0  0  0
    0.9398    2.2380   -0.8291 H   0  0  0  0  0  0  0  0  0  0  0  0
   -2.1829   -1.6453    1.1521 H   0  0  0  0  0  0  0  0  0  0  0  0
   -4.2344   -0.6510    0.1409 H   0  0  0  0  0  0  0  0  0  0  0  0
   -3.5566    1.0664    0.2714 H   0  0  0  0  0  0  0  0  0  0  0  0
   -2.2742   -1.3594   -1.3446 H   0  0  0  0  0  0  0  0  0  0  0  0
  1  2  1  0
  2  3  1  0
  3  4  1  0
  3  5  1  0
  5  6  1  0
  6  7  1  0
  7  8  2  0
  7  9  1  0
  9 10  1  0
 10 11  1  0
 11 12  1  0
 12 13  2  0
 12  6  1  0
 11  9  1  0
  1 14  1  0
  1 15  1  0
  2 16  1  0
  2 17  1  0
  3 18  1  6
  4 19  1  0
  5 20  1  0
  5 21  1  0
  9 22  1  6
 10 23  1  0
 10 24  1  0
 11 25  1  6
M  END
$$$$

     RDKit          3D

 25 26  0  0  0  0  0  0  0  0999 V2000
   -3.4372    0.1869   -1.1186 N   0  0  0  0  0  0  0  0  0  0  0  0
   -2.0790   -0.2443   -0.9976 C   0  0  0  0  0  0  0  0  0  0  0  0
   -1.8042   -0.8580    0.3579 C   0  0  2  0  0  0  0  0  0  0  0  0
   -2.0476    0.0574    1.3329 O   0  0  0  0  0  0  0  0  0  0  0  0
   -0.4590   -1.5133    0.4090 C   0  0  0  0  0  0  0  0  0  0  0  0
    0.6468   -0.6280    0.3016 N   0  0  0  0  0  0  0  0  0  0  0  0
    1.3599    0.0455    1.3308 C   0  0  0  0  0  0  0  0  0  0  0  0
    1.3025   -0.2014    2.5854 O   0  0  0  0  0  0  0  0  0  0  0  0
    2.2129    1.1121    0.7512 C   0  0  1  0  0  0  0  0  0  0  0  0
    3.4003    0.8075   -0.0599 C   0  0  0  0  0  0  0  0  0  0  0  0
    2.0710    0.9689   -0.7029 C   0  0  1  0  0  0  0  0  0  0  0  0
    1.2566   -0.2479   -0.9230 C   0  0  0  0  0  0  0  0  0  0  0  0
    1.1535   -0.8256   -2.0593 O   0  0  0  0  0  0  0  0  0  0  0  0
   -3.5355    0.7664   -1.9806 H   0  0  0  0  0  0  0  0  0  0  0  0
   -3.8168    0.6461   -0.2781 H   0  0  0  0  0  0  0  0  0  0  0  0
   -1.4121    0.6359   -1.1392 H   0  0  0  0  0  0  0  0  0  0  0  0
   -1.8349   -0.9580   -1.8049 H   0  0  0  0  0  0  0  0  0  0  0  0
   -2.5634   -1.6848    0.4729 H   0  0  0  0  0  0  0  0  0  0  0  0
   -1.6516    0.9351    1.2126 H   0  0  0  0  0  0  0  0  0  0  0  0
   -0.3272   -2.1302    1.3143 H   0  0  0  0  0  0  0  0  0  0  0  0
   -0.4220   -2.2404   -0.4464 H   0  0  0  0  0  0  0  0  0  0  0  0
    2.1433    2.1390    1.2113 H   0  0  0  0  0  0  0  0  0  0  0  0
    3.8767   -0.1995   -0.0484 H   0  0  0  0  0  0  0  0  0  0  0  0
    4.1141    1.6275   -0.2157 H   0  0  0  0  0  0  0  0  0  0  0  0
    1.8529    1.8031   -1.3856 H   0  0  0  0  0  0  0  0  0  0  0  0
  1  2  1  0
  2  3  1  0
  3  4  1  0
  3  5  1  0
  5  6  1  0
  6  7  1  0
  7  8  2  0
  7  9  1  0
  9 10  1  0
 10 11  1  0
 11 12  1  0
 12 13  2  0
 12  6  1  0
 11  9  1  0
  1 14  1  0
  1 15  1  0
  2 16  1  0
  2 17  1  0
  3 18  1  1
  4 19  1  0
  5 20  1  0
  5 21  1  0
  9 22  1  1
 10 23  1  0
 10 24  1  0
 11 25  1  6
M  END
$$$$

     RDKit          3D

 25 26  0  0  0  0  0  0  0  0999 V2000
    4.0275    0.6336    0.7198 N   0  0  0  0  0  0  0  0  0  0  0  0
    3.0510   -0.0502   -0.0774 C   0  0  0  0  0  0  0  0  0  0  0  0
    1.6397    0.4333    0.1547 C   0  0  2  0  0  0  0  0  0  0  0  0
    1.3466    0.2190    1.5007 O   0  0  0  0  0  0  0  0  0  0  0  0
    0.6972   -0.3966   -0.6686 C   0  0  0  0  0  0  0  0  0  0  0  0
   -0.6812   -0.0744   -0.4565 N   0  0  0  0  0  0  0  0  0  0  0  0
   -1.5936   -0.6210    0.4875 C   0  0  0  0  0  0  0  0  0  0  0  0
   -1.2437   -1.2573    1.5173 O   0  0  0  0  0  0  0  0  0  0  0  0
   -2.9747   -0.3389    0.0908 C   0  0  1  0  0  0  0  0  0  0  0  0
   -3.5071    1.1010    0.2761 C   0  0  0  0  0  0  0  0  0  0  0  0
   -2.8774    0.6731   -0.9886 C   0  0  1  0  0  0  0  0  0  0  0  0
   -1.4373    0.9039   -1.1879 C   0  0  0  0  0  0  0  0  0  0  0  0
   -0.9451    1.8288   -1.8993 O   0  0  0  0  0  0  0  0  0  0  0  0
    4.2159    0.1310    1.6226 H   0  0  0  0  0  0  0  0  0  0  0  0
    3.6816    1.5960    0.8936 H   0  0  0  0  0  0  0  0  0  0  0  0
    3.3237    0.0291   -1.1649 H   0  0  0  0  0  0  0  0  0  0  0  0
    3.0426   -1.1519    0.1296 H   0  0  0  0  0  0  0  0  0  0  0  0
    1.6000    1.5131   -0.1033 H   0  0  0  0  0  0  0  0  0  0  0  0
    1.6407   -0.6992    1.7294 H   0  0  0  0  0  0  0  0  0  0  0  0
    0.9621   -0.2566   -1.7371 H   0  0  0  0  0  0  0  0  0  0  0  0
    0.9293   -1.4685   -0.4444 H   0  0  0  0  0  0  0  0  0  0  0  0
   -3.7487   -1.1241    0.0841 H   0  0  0  0  0  0  0  0  0  0  0  0
   -2.9842    1.6304    1.0718 H   0  0  0  0  0  0  0  0  0  0  0  0
   -4.6162    1.1975    0.3143 H   0  0  0  0  0  0  0  0  0  0  0  0
   -3.5487    0.5512   -1.8643 H   0  0  0  0  0  0  0  0  0  0  0  0
  1  2  1  0
  2  3  1  0
  3  4  1  0
  3  5  1  0
  5  6  1  0
  6  7  1  0
  7  8  2  0
  7  9  1  0
  9 10  1  0
 10 11  1  0
 11 12  1  0
 12 13  2  0
 12  6  1  0
 11  9  1  0
  1 14  1  0
  1 15  1  0
  2 16  1  0
  2 17  1  0
  3 18  1  6
  4 19  1  0
  5 20  1  0
  5 21  1  0
  9 22  1  6
 10 23  1  0
 10 24  1  0
 11 25  1  6
M  END
$$$$

     RDKit          3D

 25 26  0  0  0  0  0  0  0  0999 V2000
    3.4636    1.1630   -0.5528 N   0  0  0  0  0  0  0  0  0  0  0  0
    3.0912    0.1323    0.4144 C   0  0  0  0  0  0  0  0  0  0  0  0
    1.5842    0.2408    0.6831 C   0  0  2  0  0  0  0  0  0  0  0  0
    1.2926   -0.7654    1.6099 O   0  0  0  0  0  0  0  0  0  0  0  0
    0.8908   -0.0502   -0.6129 C   0  0  0  0  0  0  0  0  0  0  0  0
   -0.5549   -0.1100   -0.4333 N   0  0  0  0  0  0  0  0  0  0  0  0
   -1.3365   -1.2547   -0.1170 C   0  0  0  0  0  0  0  0  0  0  0  0
   -0.8985   -2.2780    0.4756 O   0  0  0  0  0  0  0  0  0  0  0  0
   -2.7005   -1.0144   -0.5999 C   0  0  1  0  0  0  0  0  0  0  0  0
   -3.6428   -0.1812    0.1902 C   0  0  0  0  0  0  0  0  0  0  0  0
   -2.7965    0.4888   -0.7989 C   0  0  1  0  0  0  0  0  0  0  0  0
   -1.4449    0.9832   -0.5391 C   0  0  0  0  0  0  0  0  0  0  0  0
   -1.1749    2.2277   -0.4344 O   0  0  0  0  0  0  0  0  0  0  0  0
    2.9525    2.0311   -0.2456 H   0  0  0  0  0  0  0  0  0  0  0  0
    3.1588    0.8242   -1.4798 H   0  0  0  0  0  0  0  0  0  0  0  0
    3.2702   -0.8709   -0.0604 H   0  0  0  0  0  0  0  0  0  0  0  0
    3.6457    0.2383    1.3679 H   0  0  0  0  0  0  0  0  0  0  0  0
    1.3359    1.2407    1.0540 H   0  0  0  0  0  0  0  0  0  0  0  0
    1.9340   -1.5326    1.5302 H   0  0  0  0  0  0  0  0  0  0  0  0
    1.1091    0.6922   -1.3785 H   0  0  0  0  0  0  0  0  0  0  0  0
    1.2868   -1.0449   -0.9720 H   0  0  0  0  0  0  0  0  0  0  0  0
   -3.0483   -1.6623   -1.4218 H   0  0  0  0  0  0  0  0  0  0  0  0
   -4.7112   -0.2807   -0.0580 H   0  0  0  0  0  0  0  0  0  0  0  0
   -3.4508   -0.0369    1.2743 H   0  0  0  0  0  0  0  0  0  0  0  0
   -3.2557    0.8197   -1.7709 H   0  0  0  0  0  0  0  0  0  0  0  0
  1  2  1  0
  2  3  1  0
  3  4  1  0
  3  5  1  0
  5  6  1  0
  6  7  1  0
  7  8  2  0
  7  9  1  0
  9 10  1  0
 10 11  1  0
 11 12  1  0
 12 13  2  0
 12  6  1  0
 11  9  1  0
  1 14  1  0
  1 15  1  0
  2 16  1  0
  2 17  1  0
  3 18  1  1
  4 19  1  0
  5 20  1  0
  5 21  1  0
  9 22  1  6
 10 23  1  0
 10 24  1  0
 11 25  1  6
M  END
$$$$

     RDKit          3D

 25 26  0  0  0  0  0  0  0  0999 V2000
   -3.3430    0.2468   -1.2150 N   0  0  0  0  0  0  0  0  0  0  0  0
   -2.1493   -0.3277   -0.6233 C   0  0  0  0  0  0  0  0  0  0  0  0
   -1.6170    0.5393    0.4969 C   0  0  2  0  0  0  0  0  0  0  0  0
   -1.2758    1.8109    0.0908 O   0  0  0  0  0  0  0  0  0  0  0  0
   -0.5295   -0.1430    1.2673 C   0  0  0  0  0  0  0  0  0  0  0  0
    0.6905   -0.2904    0.5142 N   0  0  0  0  0  0  0  0  0  0  0  0
    1.0569   -1.3920   -0.3208 C   0  0  0  0  0  0  0  0  0  0  0  0
    0.3946   -2.4482   -0.4593 O   0  0  0  0  0  0  0  0  0  0  0  0
    2.3257   -1.0935   -0.9884 C   0  0  1  0  0  0  0  0  0  0  0  0
    2.4905    0.1275   -1.8227 C   0  0  0  0  0  0  0  0  0  0  0  0
    2.8031    0.1716   -0.3748 C   0  0  1  0  0  0  0  0  0  0  0  0
    1.7262    0.6817    0.5053 C   0  0  0  0  0  0  0  0  0  0  0  0
    1.7461    1.7694    1.1174 O   0  0  0  0  0  0  0  0  0  0  0  0
   -3.2464    1.2595   -1.3972 H   0  0  0  0  0  0  0  0  0  0  0  0
   -4.1908    0.0126   -0.6517 H   0  0  0  0  0  0  0  0  0  0  0  0
   -1.4093   -0.4260   -1.4540 H   0  0  0  0  0  0  0  0  0  0  0  0
   -2.3707   -1.3175   -0.1994 H   0  0  0  0  0  0  0  0  0  0  0  0
   -2.4807    0.6617    1.2151 H   0  0  0  0  0  0  0  0  0  0  0  0
   -1.2644    1.8412   -0.9044 H   0  0  0  0  0  0  0  0  0  0  0  0
   -0.2895    0.4113    2.1953 H   0  0  0  0  0  0  0  0  0  0  0  0
   -0.9048   -1.1494    1.5975 H   0  0  0  0  0  0  0  0  0  0  0  0
    3.0782   -1.9091   -1.1501 H   0  0  0  0  0  0  0  0  0  0  0  0
    1.6006    0.6863   -2.2069 H   0  0  0  0  0  0  0  0  0  0  0  0
    3.3087    0.1090   -2.5838 H   0  0  0  0  0  0  0  0  0  0  0  0
    3.8500    0.1679   -0.0104 H   0  0  0  0  0  0  0  0  0  0  0  0
  1  2  1  0
  2  3  1  0
  3  4  1  0
  3  5  1  0
  5  6  1  0
  6  7  1  0
  7  8  2  0
  7  9  1  0
  9 10  1  0
 10 11  1  0
 11 12  1  0
 12 13  2  0
 12  6  1  0
 11  9  1  0
  1 14  1  0
  1 15  1  0
  2 16  1  0
  2 17  1  0
  3 18  1  1
  4 19  1  0
  5 20  1  0
  5 21  1  0
  9 22  1  6
 10 23  1  0
 10 24  1  0
 11 25  1  6
M  END
$$$$
