
     RDKit          3D

 29 29  0  0  0  0  0  0  0  0999 V2000
   -3.2936   -0.0768    0.9299 N   0  0  0  0  0  0  0  0  0  0  0  0
   -2.0025    0.3711    0.3781 C   0  0  2  0  0  0  0  0  0  0  0  0
   -2.3936    1.0884   -0.9221 C   0  0  0  0  0  0  0  0  0  0  0  0
   -3.0433    0.0967   -1.6926 O   0  0  0  0  0  0  0  0  0  0  0  0
   -1.1693   -0.8282    0.0551 C   0  0  0  0  0  0  0  0  0  0  0  0
    0.0987   -0.5601   -0.4794 N   0  0  0  0  0  0  0  0  0  0  0  0
    0.9201   -1.6634   -0.8107 C   0  0  0  0  0  0  0  0  0  0  0  0
    2.2374   -1.3161   -0.1221 C   0  0  0  0  0  0  0  0  0  0  0  0
    2.2705    0.1782   -0.3446 C   0  0  2  0  0  0  0  0  0  0  0  0
    3.2167    0.8640    0.5347 C   0  0  0  0  0  0  0  0  0  0  0  0
    3.8898    0.1952    1.3552 O   0  0  0  0  0  0  0  0  0  0  0  0
    3.4036    2.2337    0.5003 O   0  0  0  0  0  0  0  0  0  0  0  0
    0.8281    0.5510   -0.0687 C   0  0  0  0  0  0  0  0  0  0  0  0
   -3.5694    0.4846    1.7585 H   0  0  0  0  0  0  0  0  0  0  0  0
   -3.3208   -1.0965    1.0729 H   0  0  0  0  0  0  0  0  0  0  0  0
   -1.5489    1.0495    1.1031 H   0  0  0  0  0  0  0  0  0  0  0  0
   -1.5384    1.4146   -1.5071 H   0  0  0  0  0  0  0  0  0  0  0  0
   -3.1246    1.8892   -0.7060 H   0  0  0  0  0  0  0  0  0  0  0  0
   -3.9415    0.3979   -1.9590 H   0  0  0  0  0  0  0  0  0  0  0  0
   -1.7597   -1.4811   -0.6335 H   0  0  0  0  0  0  0  0  0  0  0  0
   -1.0468   -1.4158    0.9927 H   0  0  0  0  0  0  0  0  0  0  0  0
    1.0901   -1.7472   -1.8854 H   0  0  0  0  0  0  0  0  0  0  0  0
    0.4681   -2.5892   -0.3606 H   0  0  0  0  0  0  0  0  0  0  0  0
    2.1380   -1.4851    0.9619 H   0  0  0  0  0  0  0  0  0  0  0  0
    3.0859   -1.8435   -0.5883 H   0  0  0  0  0  0  0  0  0  0  0  0
    2.4423    0.3795   -1.4227 H   0  0  0  0  0  0  0  0  0  0  0  0
    4.2501    2.7002    0.8030 H   0  0  0  0  0  0  0  0  0  0  0  0
    0.6497    1.5133   -0.5421 H   0  0  0  0  0  0  0  0  0  0  0  0
    0.7633    0.6955    1.0463 H   0  0  0  0  0  0  0  0  0  0  0  0
  1  2  1  0
  2  3  1  0
  3  4  1  0
  2  5  1  0
  5  6  1  0
  6  7  1  0
  7  8  1  0
  8  9  1  0
  9 10  1  0
 10 11  2  0
 10 12  1  0
  9 13  1  0
 13  6  1  0
  1 14  1  0
  1 15  1  0
  2 16  1  1
  3 17  1  0
  3 18  1  0
  4 19  1  0
  5 20  1  0
  5 21  1  0
  7 22  1  0
  7 23  1  0
  8 24  1  0
  8 25  1  0
  9 26  1  6
 12 27  1  0
 13 28  1  0
 13 29  1  0
M  END
$$$$

     RDKit          3D

 29 29  0  0  0  0  0  0  0  0999 V2000
   -3.2579    1.1393    1.0527 N   0  0  0  0  0  0  0  0  0  0  0  0
   -2.2705    0.7390    0.0399 C   0  0  2  0  0  0  0  0  0  0  0  0
   -2.8490   -0.4478   -0.7095 C   0  0  0  0  0  0  0  0  0  0  0  0
   -3.0537   -1.4497    0.2672 O   0  0  0  0  0  0  0  0  0  0  0  0
   -1.0375    0.3032    0.7568 C   0  0  0  0  0  0  0  0  0  0  0  0
    0.0375   -0.1201   -0.0733 N   0  0  0  0  0  0  0  0  0  0  0  0
    0.6733    0.8683   -0.8643 C   0  0  0  0  0  0  0  0  0  0  0  0
    2.1049    0.3635   -0.9497 C   0  0  0  0  0  0  0  0  0  0  0  0
    2.2604   -0.0957    0.5120 C   0  0  2  0  0  0  0  0  0  0  0  0
    3.5085   -0.7990    0.7582 C   0  0  0  0  0  0  0  0  0  0  0  0
    3.6148   -1.9715    1.1847 O   0  0  0  0  0  0  0  0  0  0  0  0
    4.6990   -0.1148    0.4986 O   0  0  0  0  0  0  0  0  0  0  0  0
    1.0171   -0.9366    0.6001 C   0  0  0  0  0  0  0  0  0  0  0  0
   -3.1875    2.1327    1.2890 H   0  0  0  0  0  0  0  0  0  0  0  0
   -4.1962    0.7783    0.8377 H   0  0  0  0  0  0  0  0  0  0  0  0
   -2.1390    1.6180   -0.6101 H   0  0  0  0  0  0  0  0  0  0  0  0
   -2.0531   -0.8283   -1.3638 H   0  0  0  0  0  0  0  0  0  0  0  0
   -3.7731   -0.1999   -1.2487 H   0  0  0  0  0  0  0  0  0  0  0  0
   -3.6022   -2.1796   -0.1080 H   0  0  0  0  0  0  0  0  0  0  0  0
   -0.7306    1.0970    1.5006 H   0  0  0  0  0  0  0  0  0  0  0  0
   -1.3243   -0.5594    1.4061 H   0  0  0  0  0  0  0  0  0  0  0  0
    0.3154    0.9501   -1.8970 H   0  0  0  0  0  0  0  0  0  0  0  0
    0.7550    1.8683   -0.3630 H   0  0  0  0  0  0  0  0  0  0  0  0
    2.8334    1.1322   -1.2192 H   0  0  0  0  0  0  0  0  0  0  0  0
    2.1569   -0.5429   -1.5850 H   0  0  0  0  0  0  0  0  0  0  0  0
    2.0909    0.8007    1.1559 H   0  0  0  0  0  0  0  0  0  0  0  0
    5.6046   -0.4966    0.6628 H   0  0  0  0  0  0  0  0  0  0  0  0
    0.6810   -1.1741    1.6040 H   0  0  0  0  0  0  0  0  0  0  0  0
    1.1219   -1.8745   -0.0088 H   0  0  0  0  0  0  0  0  0  0  0  0
  1  2  1  0
  2  3  1  0
  3  4  1  0
  2  5  1  0
  5  6  1  0
  6  7  1  0
  7  8  1  0
  8  9  1  0
  9 10  1  0
 10 11  2  0
 10 12  1  0
  9 13  1  0
 13  6  1  0
  1 14  1  0
  1 15  1  0
  2 16  1  6
  3 17  1  0
  3 18  1  0
  4 19  1  0
  5 20  1  0
  5 21  1  0
  7 22  1  0
  7 23  1  0
  8 24  1  0
  8 25  1  0
  9 26  1  1
 12 27  1  0
 13 28  1  0
 13 29  1  0
M  END
$$$$

     RDKit          3D

 29 29  0  0  0  0  0  0  0  0999 V2000
   -3.3238   -1.1760    0.2647 N   0  0  0  0  0  0  0  0  0  0  0  0
   -2.0714   -0.4079    0.2510 C   0  0  2  0  0  0  0  0  0  0  0  0
   -2.3576    0.9547   -0.2780 C   0  0  0  0  0  0  0  0  0  0  0  0
   -3.3340    1.6096    0.5109 O   0  0  0  0  0  0  0  0  0  0  0  0
   -1.0322   -1.1923   -0.4756 C   0  0  0  0  0  0  0  0  0  0  0  0
    0.2073   -0.6534   -0.6176 N   0  0  0  0  0  0  0  0  0  0  0  0
    0.5776    0.3902   -1.4349 C   0  0  0  0  0  0  0  0  0  0  0  0
    1.4115    1.2792   -0.5568 C   0  0  0  0  0  0  0  0  0  0  0  0
    1.9739    0.3275    0.4745 C   0  0  2  0  0  0  0  0  0  0  0  0
    3.4241    0.1856    0.2485 C   0  0  0  0  0  0  0  0  0  0  0  0
    3.9601    0.7708   -0.7248 O   0  0  0  0  0  0  0  0  0  0  0  0
    4.2458   -0.5822    1.0787 O   0  0  0  0  0  0  0  0  0  0  0  0
    1.2376   -0.9798    0.3001 C   0  0  0  0  0  0  0  0  0  0  0  0
   -3.9096   -0.8909   -0.5689 H   0  0  0  0  0  0  0  0  0  0  0  0
   -3.1488   -2.1958    0.2004 H   0  0  0  0  0  0  0  0  0  0  0  0
   -1.7851   -0.2766    1.3309 H   0  0  0  0  0  0  0  0  0  0  0  0
   -2.7387    0.9567   -1.3126 H   0  0  0  0  0  0  0  0  0  0  0  0
   -1.4659    1.6195   -0.1814 H   0  0  0  0  0  0  0  0  0  0  0  0
   -3.0260    2.5256    0.6747 H   0  0  0  0  0  0  0  0  0  0  0  0
   -1.4645   -1.4305   -1.4870 H   0  0  0  0  0  0  0  0  0  0  0  0
   -0.9666   -2.1834    0.0615 H   0  0  0  0  0  0  0  0  0  0  0  0
    1.2991    0.0301   -2.2511 H   0  0  0  0  0  0  0  0  0  0  0  0
   -0.2143    0.9054   -1.9945 H   0  0  0  0  0  0  0  0  0  0  0  0
    2.2258    1.7377   -1.1742 H   0  0  0  0  0  0  0  0  0  0  0  0
    0.8357    2.0940   -0.0573 H   0  0  0  0  0  0  0  0  0  0  0  0
    1.7614    0.6947    1.5138 H   0  0  0  0  0  0  0  0  0  0  0  0
    5.0310   -1.0854    0.6728 H   0  0  0  0  0  0  0  0  0  0  0  0
    0.7062   -1.2663    1.2655 H   0  0  0  0  0  0  0  0  0  0  0  0
    1.9414   -1.7607   -0.0098 H   0  0  0  0  0  0  0  0  0  0  0  0
  1  2  1  0
  2  3  1  0
  3  4  1  0
  2  5  1  0
  5  6  1  0
  6  7  1  0
  7  8  1  0
  8  9  1  0
  9 10  1  0
 10 11  2  0
 10 12  1  0
  9 13  1  0
 13  6  1  0
  1 14  1  0
  1 15  1  0
  2 16  1  1
  3 17  1  0
  3 18  1  0
  4 19  1  0
  5 20  1  0
  5 21  1  0
  7 22  1  0
  7 23  1  0
  8 24  1  0
  8 25  1  0
  9 26  1  1
 12 27  1  0
 13 28  1  0
 13 29  1  0
M  END
$$$$

     RDKit          3D

 29 29  0  0  0  0  0  0  0  0999 V2000
   -2.3819   -1.4733   -0.3662 N   0  0  0  0  0  0  0  0  0  0  0  0
   -2.2985   -0.0842    0.0537 C   0  0  2  0  0  0  0  0  0  0  0  0
   -3.5419    0.6523   -0.3407 C   0  0  0  0  0  0  0  0  0  0  0  0
   -3.4142    1.9879    0.0887 O   0  0  0  0  0  0  0  0  0  0  0  0
   -1.0493    0.5629   -0.5624 C   0  0  0  0  0  0  0  0  0  0  0  0
    0.0483   -0.1901   -0.0755 N   0  0  0  0  0  0  0  0  0  0  0  0
    0.3507   -0.0922    1.3080 C   0  0  0  0  0  0  0  0  0  0  0  0
    1.8753    0.1010    1.3818 C   0  0  0  0  0  0  0  0  0  0  0  0
    2.2587   -0.7495    0.1687 C   0  0  2  0  0  0  0  0  0  0  0  0
    3.6416   -0.5614   -0.2631 C   0  0  0  0  0  0  0  0  0  0  0  0
    4.4091   -1.5605   -0.2344 O   0  0  0  0  0  0  0  0  0  0  0  0
    4.1798    0.6275   -0.7025 O   0  0  0  0  0  0  0  0  0  0  0  0
    1.2368   -0.2156   -0.8474 C   0  0  0  0  0  0  0  0  0  0  0  0
   -1.5323   -1.6955   -0.9513 H   0  0  0  0  0  0  0  0  0  0  0  0
   -2.4433   -2.1105    0.4458 H   0  0  0  0  0  0  0  0  0  0  0  0
   -2.1336   -0.0611    1.1496 H   0  0  0  0  0  0  0  0  0  0  0  0
   -4.4365    0.2603    0.1650 H   0  0  0  0  0  0  0  0  0  0  0  0
   -3.6698    0.5985   -1.4315 H   0  0  0  0  0  0  0  0  0  0  0  0
   -3.2255    2.5959   -0.6675 H   0  0  0  0  0  0  0  0  0  0  0  0
   -1.0384    1.6323   -0.2726 H   0  0  0  0  0  0  0  0  0  0  0  0
   -1.1084    0.4565   -1.6473 H   0  0  0  0  0  0  0  0  0  0  0  0
    0.1681   -1.1053    1.7579 H   0  0  0  0  0  0  0  0  0  0  0  0
   -0.1876    0.6693    1.8715 H   0  0  0  0  0  0  0  0  0  0  0  0
    2.3017   -0.2701    2.3128 H   0  0  0  0  0  0  0  0  0  0  0  0
    2.1120    1.1657    1.1610 H   0  0  0  0  0  0  0  0  0  0  0  0
    2.0092   -1.7914    0.4252 H   0  0  0  0  0  0  0  0  0  0  0  0
    5.1454    0.8928   -0.4837 H   0  0  0  0  0  0  0  0  0  0  0  0
    1.1142   -0.9890   -1.6505 H   0  0  0  0  0  0  0  0  0  0  0  0
    1.6105    0.7469   -1.2062 H   0  0  0  0  0  0  0  0  0  0  0  0
  1  2  1  0
  2  3  1  0
  3  4  1  0
  2  5  1  0
  5  6  1  0
  6  7  1  0
  7  8  1  0
  8  9  1  0
  9 10  1  0
 10 11  2  0
 10 12  1  0
  9 13  1  0
 13  6  1  0
  1 14  1  0
  1 15  1  0
  2 16  1  1
  3 17  1  0
  3 18  1  0
  4 19  1  0
  5 20  1  0
  5 21  1  0
  7 22  1  0
  7 23  1  0
  8 24  1  0
  8 25  1  0
  9 26  1  1
 12 27  1  0
 13 28  1  0
 13 29  1  0
M  END
$$$$

     RDKit          3D

 29 29  0  0  0  0  0  0  0  0999 V2000
   -2.3524    0.2532    1.8268 N   0  0  0  0  0  0  0  0  0  0  0  0
   -1.9941    0.8842    0.5568 C   0  0  2  0  0  0  0  0  0  0  0  0
   -3.2139    1.0967   -0.3103 C   0  0  0  0  0  0  0  0  0  0  0  0
   -3.7908   -0.1426   -0.5955 O   0  0  0  0  0  0  0  0  0  0  0  0
   -1.1522   -0.1842   -0.1598 C   0  0  0  0  0  0  0  0  0  0  0  0
    0.0311   -0.5164    0.6227 N   0  0  0  0  0  0  0  0  0  0  0  0
    0.6792   -1.6430   -0.0471 C   0  0  0  0  0  0  0  0  0  0  0  0
    2.1617   -1.3932    0.2776 C   0  0  0  0  0  0  0  0  0  0  0  0
    2.1949    0.0795   -0.2036 C   0  0  2  0  0  0  0  0  0  0  0  0
    3.4626    0.6996    0.1393 C   0  0  0  0  0  0  0  0  0  0  0  0
    3.6407    1.7335    0.8330 O   0  0  0  0  0  0  0  0  0  0  0  0
    4.6219    0.0670   -0.3684 O   0  0  0  0  0  0  0  0  0  0  0  0
    0.9922    0.5925    0.5389 C   0  0  0  0  0  0  0  0  0  0  0  0
   -2.4594   -0.7774    1.7184 H   0  0  0  0  0  0  0  0  0  0  0  0
   -3.2706    0.6309    2.1483 H   0  0  0  0  0  0  0  0  0  0  0  0
   -1.4107    1.7733    0.7711 H   0  0  0  0  0  0  0  0  0  0  0  0
   -3.9642    1.7126    0.2648 H   0  0  0  0  0  0  0  0  0  0  0  0
   -2.9801    1.6236   -1.2447 H   0  0  0  0  0  0  0  0  0  0  0  0
   -3.8559   -0.6935    0.2289 H   0  0  0  0  0  0  0  0  0  0  0  0
   -1.7900   -1.0523   -0.3225 H   0  0  0  0  0  0  0  0  0  0  0  0
   -0.8162    0.2654   -1.1365 H   0  0  0  0  0  0  0  0  0  0  0  0
    0.5885   -1.5466   -1.1494 H   0  0  0  0  0  0  0  0  0  0  0  0
    0.3510   -2.6106    0.3390 H   0  0  0  0  0  0  0  0  0  0  0  0
    2.8440   -2.0074   -0.2964 H   0  0  0  0  0  0  0  0  0  0  0  0
    2.3127   -1.4043    1.3657 H   0  0  0  0  0  0  0  0  0  0  0  0
    1.9282    0.0683   -1.2762 H   0  0  0  0  0  0  0  0  0  0  0  0
    5.5120    0.1798    0.0644 H   0  0  0  0  0  0  0  0  0  0  0  0
    1.1954    0.9065    1.5784 H   0  0  0  0  0  0  0  0  0  0  0  0
    0.5347    1.4048   -0.0582 H   0  0  0  0  0  0  0  0  0  0  0  0
  1  2  1  0
  2  3  1  0
  3  4  1  0
  2  5  1  0
  5  6  1  0
  6  7  1  0
  7  8  1  0
  8  9  1  0
  9 10  1  0
 10 11  2  0
 10 12  1  0
  9 13  1  0
 13  6  1  0
  1 14  1  0
  1 15  1  0
  2 16  1  1
  3 17  1  0
  3 18  1  0
  4 19  1  0
  5 20  1  0
  5 21  1  0
  7 22  1  0
  7 23  1  0
  8 24  1  0
  8 25  1  0
  9 26  1  6
 12 27  1  0
 13 28  1  0
 13 29  1  0
M  END
$$$$

     RDKit          3D

 29 29  0  0  0  0  0  0  0  0999 V2000
    2.2315    0.0240    1.4455 N   0  0  0  0  0  0  0  0  0  0  0  0
    2.2760   -0.1746    0.0451 C   0  0  2  0  0  0  0  0  0  0  0  0
    3.2834    0.7987   -0.5683 C   0  0  0  0  0  0  0  0  0  0  0  0
    4.5308    0.5286   -0.0016 O   0  0  0  0  0  0  0  0  0  0  0  0
    0.9355    0.0793   -0.5918 C   0  0  0  0  0  0  0  0  0  0  0  0
   -0.1008   -0.7606   -0.0966 N   0  0  0  0  0  0  0  0  0  0  0  0
   -0.4873   -0.4991    1.2605 C   0  0  0  0  0  0  0  0  0  0  0  0
   -2.0173   -0.3337    1.2736 C   0  0  0  0  0  0  0  0  0  0  0  0
   -2.2280    0.2057   -0.1419 C   0  0  2  0  0  0  0  0  0  0  0  0
   -3.6209    0.0468   -0.5390 C   0  0  0  0  0  0  0  0  0  0  0  0
   -4.0752   -1.0879   -0.8279 O   0  0  0  0  0  0  0  0  0  0  0  0
   -4.4592    1.1371   -0.6000 O   0  0  0  0  0  0  0  0  0  0  0  0
   -1.2730   -0.6592   -0.9304 C   0  0  0  0  0  0  0  0  0  0  0  0
    2.3944    0.9711    1.8035 H   0  0  0  0  0  0  0  0  0  0  0  0
    2.5067   -0.7516    2.0581 H   0  0  0  0  0  0  0  0  0  0  0  0
    2.6194   -1.2122   -0.2076 H   0  0  0  0  0  0  0  0  0  0  0  0
    3.0118    1.8197   -0.1798 H   0  0  0  0  0  0  0  0  0  0  0  0
    3.2684    0.8152   -1.6578 H   0  0  0  0  0  0  0  0  0  0  0  0
    4.7272   -0.4376   -0.1383 H   0  0  0  0  0  0  0  0  0  0  0  0
    0.7009    1.1647   -0.5615 H   0  0  0  0  0  0  0  0  0  0  0  0
    1.0617   -0.1604   -1.6907 H   0  0  0  0  0  0  0  0  0  0  0  0
   -0.1071    0.4543    1.6710 H   0  0  0  0  0  0  0  0  0  0  0  0
   -0.2408   -1.3886    1.8725 H   0  0  0  0  0  0  0  0  0  0  0  0
   -2.4720   -1.3459    1.3091 H   0  0  0  0  0  0  0  0  0  0  0  0
   -2.3406    0.3570    2.0495 H   0  0  0  0  0  0  0  0  0  0  0  0
   -1.8883    1.2710   -0.1849 H   0  0  0  0  0  0  0  0  0  0  0  0
   -5.4224    1.0340   -0.9364 H   0  0  0  0  0  0  0  0  0  0  0  0
   -1.7454   -1.6701   -1.0166 H   0  0  0  0  0  0  0  0  0  0  0  0
   -1.0695   -0.2259   -1.9288 H   0  0  0  0  0  0  0  0  0  0  0  0
  1  2  1  0
  2  3  1  0
  3  4  1  0
  2  5  1  0
  5  6  1  0
  6  7  1  0
  7  8  1  0
  8  9  1  0
  9 10  1  0
 10 11  2  0
 10 12  1  0
  9 13  1  0
 13  6  1  0
  1 14  1  0
  1 15  1  0
  2 16  1  1
  3 17  1  0
  3 18  1  0
  4 19  1  0
  5 20  1  0
  5 21  1  0
  7 22  1  0
  7 23  1  0
  8 24  1  0
  8 25  1  0
  9 26  1  1
 12 27  1  0
 13 28  1  0
 13 29  1  0
M  END
$$$$

     RDKit          3D

 29 29  0  0  0  0  0  0  0  0999 V2000
   -1.8319    0.4891    1.3831 N   0  0  0  0  0  0  0  0  0  0  0  0
   -2.0225    0.3166   -0.0494 C   0  0  2  0  0  0  0  0  0  0  0  0
   -3.4257   -0.1916   -0.2847 C   0  0  0  0  0  0  0  0  0  0  0  0
   -4.3600    0.7076    0.2008 O   0  0  0  0  0  0  0  0  0  0  0  0
   -1.0372   -0.7805   -0.4666 C   0  0  0  0  0  0  0  0  0  0  0  0
    0.2412   -0.3801   -0.1792 N   0  0  0  0  0  0  0  0  0  0  0  0
    0.7130   -0.2330    1.1182 C   0  0  0  0  0  0  0  0  0  0  0  0
    2.1124   -0.8557    1.0276 C   0  0  0  0  0  0  0  0  0  0  0  0
    2.5247   -0.5018   -0.3758 C   0  0  2  0  0  0  0  0  0  0  0  0
    3.4243    0.6497   -0.4216 C   0  0  0  0  0  0  0  0  0  0  0  0
    4.5648    0.5546   -0.9406 O   0  0  0  0  0  0  0  0  0  0  0  0
    3.0148    1.8646    0.1139 O   0  0  0  0  0  0  0  0  0  0  0  0
    1.2314   -0.2630   -1.1465 C   0  0  0  0  0  0  0  0  0  0  0  0
   -2.5603   -0.0445    1.9057 H   0  0  0  0  0  0  0  0  0  0  0  0
   -1.8252    1.4809    1.6671 H   0  0  0  0  0  0  0  0  0  0  0  0
   -1.7950    1.2352   -0.6010 H   0  0  0  0  0  0  0  0  0  0  0  0
   -3.5596   -0.2988   -1.3787 H   0  0  0  0  0  0  0  0  0  0  0  0
   -3.5701   -1.1657    0.1921 H   0  0  0  0  0  0  0  0  0  0  0  0
   -4.0457    1.1787    1.0182 H   0  0  0  0  0  0  0  0  0  0  0  0
   -1.3438   -1.7153    0.0358 H   0  0  0  0  0  0  0  0  0  0  0  0
   -1.1618   -0.9286   -1.5606 H   0  0  0  0  0  0  0  0  0  0  0  0
    0.8033    0.8606    1.3612 H   0  0  0  0  0  0  0  0  0  0  0  0
    0.1464   -0.7555    1.9080 H   0  0  0  0  0  0  0  0  0  0  0  0
    2.7829   -0.4315    1.7917 H   0  0  0  0  0  0  0  0  0  0  0  0
    1.9857   -1.9362    1.1221 H   0  0  0  0  0  0  0  0  0  0  0  0
    3.0445   -1.3886   -0.7915 H   0  0  0  0  0  0  0  0  0  0  0  0
    3.5161    2.7369   -0.0143 H   0  0  0  0  0  0  0  0  0  0  0  0
    1.1615   -0.9796   -1.9921 H   0  0  0  0  0  0  0  0  0  0  0  0
    1.2719    0.7754   -1.5341 H   0  0  0  0  0  0  0  0  0  0  0  0
  1  2  1  0
  2  3  1  0
  3  4  1  0
  2  5  1  0
  5  6  1  0
  6  7  1  0
  7  8  1  0
  8  9  1  0
  9 10  1  0
 10 11  2  0
 10 12  1  0
  9 13  1  0
 13  6  1  0
  1 14  1  0
  1 15  1  0
  2 16  1  6
  3 17  1  0
  3 18  1  0
  4 19  1  0
  5 20  1  0
  5 21  1  0
  7 22  1  0
  7 23  1  0
  8 24  1  0
  8 25  1  0
  9 26  1  6
 12 27  1  0
 13 28  1  0
 13 29  1  0
M  END
$$$$

     RDKit          3D

 29 29  0  0  0  0  0  0  0  0999 V2000
   -2.7662    1.8141   -1.3074 N   0  0  0  0  0  0  0  0  0  0  0  0
   -1.9668    0.6186   -0.9897 C   0  0  2  0  0  0  0  0  0  0  0  0
   -2.9325   -0.3121   -0.2713 C   0  0  0  0  0  0  0  0  0  0  0  0
   -2.3146   -1.4949    0.0911 O   0  0  0  0  0  0  0  0  0  0  0  0
   -0.8692    1.0784   -0.0613 C   0  0  0  0  0  0  0  0  0  0  0  0
   -0.0535   -0.0602    0.2725 N   0  0  0  0  0  0  0  0  0  0  0  0
    0.9956    0.2769    1.2224 C   0  0  0  0  0  0  0  0  0  0  0  0
    1.7701   -1.0380    1.1953 C   0  0  0  0  0  0  0  0  0  0  0  0
    1.9549   -1.1441   -0.3266 C   0  0  2  0  0  0  0  0  0  0  0  0
    3.1030   -0.2760   -0.6705 C   0  0  0  0  0  0  0  0  0  0  0  0
    3.7519    0.3879    0.1760 O   0  0  0  0  0  0  0  0  0  0  0  0
    3.4887   -0.1863   -1.9990 O   0  0  0  0  0  0  0  0  0  0  0  0
    0.6419   -0.6135   -0.8623 C   0  0  0  0  0  0  0  0  0  0  0  0
   -2.8277    2.3440   -0.4139 H   0  0  0  0  0  0  0  0  0  0  0  0
   -2.1570    2.4081   -1.9444 H   0  0  0  0  0  0  0  0  0  0  0  0
   -1.5898    0.1446   -1.9075 H   0  0  0  0  0  0  0  0  0  0  0  0
   -3.8297   -0.5356   -0.8729 H   0  0  0  0  0  0  0  0  0  0  0  0
   -3.2605    0.1636    0.6961 H   0  0  0  0  0  0  0  0  0  0  0  0
   -2.9600   -2.1281    0.4476 H   0  0  0  0  0  0  0  0  0  0  0  0
   -1.3442    1.4264    0.8773 H   0  0  0  0  0  0  0  0  0  0  0  0
   -0.3004    1.9291   -0.4610 H   0  0  0  0  0  0  0  0  0  0  0  0
    1.6465    1.1013    0.8793 H   0  0  0  0  0  0  0  0  0  0  0  0
    0.5886    0.5116    2.2127 H   0  0  0  0  0  0  0  0  0  0  0  0
    1.0697   -1.8252    1.5294 H   0  0  0  0  0  0  0  0  0  0  0  0
    2.7162   -0.9941    1.7229 H   0  0  0  0  0  0  0  0  0  0  0  0
    2.1179   -2.2089   -0.5486 H   0  0  0  0  0  0  0  0  0  0  0  0
    4.4763   -0.0259   -2.2476 H   0  0  0  0  0  0  0  0  0  0  0  0
    0.0591   -1.4647   -1.2542 H   0  0  0  0  0  0  0  0  0  0  0  0
    0.7918    0.1032   -1.6934 H   0  0  0  0  0  0  0  0  0  0  0  0
  1  2  1  0
  2  3  1  0
  3  4  1  0
  2  5  1  0
  5  6  1  0
  6  7  1  0
  7  8  1  0
  8  9  1  0
  9 10  1  0
 10 11  2  0
 10 12  1  0
  9 13  1  0
 13  6  1  0
  1 14  1  0
  1 15  1  0
  2 16  1  6
  3 17  1  0
  3 18  1  0
  4 19  1  0
  5 20  1  0
  5 21  1  0
  7 22  1  0
  7 23  1  0
  8 24  1  0
  8 25  1  0
  9 26  1  1
 12 27  1  0
 13 28  1  0
 13 29  1  0
M  END
$$$$
