
     RDKit          3D

 26 26  0  0  0  0  0  0  0  0999 V2000
   -1.9847    0.9780   -1.3530 C   0  0  0  0  0  0  0  0  0  0  0  0
   -1.0960   -0.1281   -1.0591 N   0  0  0  0  0  0  0  0  0  0  0  0
   -1.8048   -1.0520   -0.2261 C   0  0  0  0  0  0  0  0  0  0  0  0
   -2.0759   -0.6039    1.1678 C   0  0  0  0  0  0  0  0  0  0  0  0
   -0.8785   -0.1949    1.7524 O   0  0  0  0  0  0  0  0  0  0  0  0
   -0.3155    0.8503    1.0224 C   0  0  0  0  0  0  0  0  0  0  0  0
    0.0644    0.4464   -0.3571 C   0  0  1  0  0  0  0  0  0  0  0  0
    1.2305   -0.5009   -0.4265 C   0  0  0  0  0  0  0  0  0  0  0  0
    2.6592    0.1355    0.3955 S   0  0  0  0  0  6  0  0  0  0  0  0
    3.9945   -0.9748    0.2484 N   0  0  0  0  0  0  0  0  0  0  0  0
    2.4154    0.2515    1.8970 O   0  0  0  0  0  0  0  0  0  0  0  0
    2.9975    1.4945   -0.1146 O   0  0  0  0  0  0  0  0  0  0  0  0
   -1.4099    1.9196   -1.5568 H   0  0  0  0  0  0  0  0  0  0  0  0
   -2.5855    1.1710   -0.4431 H   0  0  0  0  0  0  0  0  0  0  0  0
   -2.6302    0.7123   -2.2164 H   0  0  0  0  0  0  0  0  0  0  0  0
   -1.3274   -2.0543   -0.1765 H   0  0  0  0  0  0  0  0  0  0  0  0
   -2.8085   -1.2182   -0.7180 H   0  0  0  0  0  0  0  0  0  0  0  0
   -2.4100   -1.5067    1.7392 H   0  0  0  0  0  0  0  0  0  0  0  0
   -2.8869    0.1272    1.2749 H   0  0  0  0  0  0  0  0  0  0  0  0
    0.4836    1.2988    1.5758 H   0  0  0  0  0  0  0  0  0  0  0  0
   -1.1298    1.6331    0.9072 H   0  0  0  0  0  0  0  0  0  0  0  0
    0.3436    1.3512   -0.9345 H   0  0  0  0  0  0  0  0  0  0  0  0
    0.9740   -1.4551    0.1018 H   0  0  0  0  0  0  0  0  0  0  0  0
    1.4816   -0.7572   -1.4797 H   0  0  0  0  0  0  0  0  0  0  0  0
    4.8546   -0.3731    0.1553 H   0  0  0  0  0  0  0  0  0  0  0  0
    3.8446   -1.5503   -0.6114 H   0  0  0  0  0  0  0  0  0  0  0  0
  1  2  1  0
  2  3  1  0
  3  4  1  0
  4  5  1  0
  5  6  1  0
  6  7  1  0
  7  8  1  0
  8  9  1  0
  9 10  1  0
  9 11  2  0
  9 12  2  0
  7  2  1  0
  1 13  1  0
  1 14  1  0
  1 15  1  0
  3 16  1  0
  3 17  1  0
  4 18  1  0
  4 19  1  0
  6 20  1  0
  6 21  1  0
  7 22  1  6
  8 23  1  0
  8 24  1  0
 10 25  1  0
 10 26  1  0
M  END
$$$$

     RDKit          3D

 26 26  0  0  0  0  0  0  0  0999 V2000
    0.8204   -2.3186   -0.2076 C   0  0  0  0  0  0  0  0  0  0  0  0
    0.9189   -0.8960   -0.2950 N   0  0  0  0  0  0  0  0  0  0  0  0
    2.2587   -0.5119   -0.1014 C   0  0  0  0  0  0  0  0  0  0  0  0
    2.5187    0.6933    0.7077 C   0  0  0  0  0  0  0  0  0  0  0  0
    1.5587    0.7505    1.7441 O   0  0  0  0  0  0  0  0  0  0  0  0
    0.3628    1.0666    1.0742 C   0  0  0  0  0  0  0  0  0  0  0  0
   -0.1057   -0.1588    0.3309 C   0  0  1  0  0  0  0  0  0  0  0  0
   -1.0751    0.3166   -0.7485 C   0  0  0  0  0  0  0  0  0  0  0  0
   -2.4062    1.2559   -0.0746 S   0  0  0  0  0  6  0  0  0  0  0  0
   -3.3372    0.3607    1.0593 N   0  0  0  0  0  0  0  0  0  0  0  0
   -1.9655    2.5535    0.4877 O   0  0  0  0  0  0  0  0  0  0  0  0
   -3.3371    1.5744   -1.2379 O   0  0  0  0  0  0  0  0  0  0  0  0
    1.5607   -2.7650   -0.8964 H   0  0  0  0  0  0  0  0  0  0  0  0
   -0.1669   -2.7281   -0.4791 H   0  0  0  0  0  0  0  0  0  0  0  0
    1.0262   -2.6706    0.8308 H   0  0  0  0  0  0  0  0  0  0  0  0
    2.7264   -0.3531   -1.1169 H   0  0  0  0  0  0  0  0  0  0  0  0
    2.8675   -1.3574    0.3345 H   0  0  0  0  0  0  0  0  0  0  0  0
    2.3859    1.6040    0.0580 H   0  0  0  0  0  0  0  0  0  0  0  0
    3.5502    0.6414    1.1225 H   0  0  0  0  0  0  0  0  0  0  0  0
   -0.3978    1.4170    1.7933 H   0  0  0  0  0  0  0  0  0  0  0  0
    0.5824    1.8498    0.3188 H   0  0  0  0  0  0  0  0  0  0  0  0
   -0.6969   -0.8138    1.0308 H   0  0  0  0  0  0  0  0  0  0  0  0
   -1.5024   -0.5397   -1.3191 H   0  0  0  0  0  0  0  0  0  0  0  0
   -0.5610    0.9595   -1.4918 H   0  0  0  0  0  0  0  0  0  0  0  0
   -3.2827   -0.6688    0.9116 H   0  0  0  0  0  0  0  0  0  0  0  0
   -4.3028    0.7385    1.0686 H   0  0  0  0  0  0  0  0  0  0  0  0
  1  2  1  0
  2  3  1  0
  3  4  1  0
  4  5  1  0
  5  6  1  0
  6  7  1  0
  7  8  1  0
  8  9  1  0
  9 10  1  0
  9 11  2  0
  9 12  2  0
  7  2  1  0
  1 13  1  0
  1 14  1  0
  1 15  1  0
  3 16  1  0
  3 17  1  0
  4 18  1  0
  4 19  1  0
  6 20  1  0
  6 21  1  0
  7 22  1  1
  8 23  1  0
  8 24  1  0
 10 25  1  0
 10 26  1  0
M  END
$$$$

     RDKit          3D

 26 26  0  0  0  0  0  0  0  0999 V2000
    0.8636   -0.5138    1.9761 C   0  0  0  0  0  0  0  0  0  0  0  0
    0.5752   -0.4900    0.5716 N   0  0  0  0  0  0  0  0  0  0  0  0
    1.5291   -1.1874   -0.2395 C   0  0  0  0  0  0  0  0  0  0  0  0
    2.5162   -0.2598   -0.9125 C   0  0  0  0  0  0  0  0  0  0  0  0
    1.7743    0.6178   -1.7033 O   0  0  0  0  0  0  0  0  0  0  0  0
    1.0610    1.4423   -0.8736 C   0  0  0  0  0  0  0  0  0  0  0  0
    0.1313    0.7513    0.0630 C   0  0  1  0  0  0  0  0  0  0  0  0
   -1.1950    0.5299   -0.6529 C   0  0  0  0  0  0  0  0  0  0  0  0
   -2.4203   -0.1165    0.4465 S   0  0  0  0  0  6  0  0  0  0  0  0
   -3.8781   -0.3312   -0.4548 N   0  0  0  0  0  0  0  0  0  0  0  0
   -2.7138    0.8533    1.5622 O   0  0  0  0  0  0  0  0  0  0  0  0
   -1.9955   -1.4403    1.0297 O   0  0  0  0  0  0  0  0  0  0  0  0
    0.3909   -1.3950    2.4444 H   0  0  0  0  0  0  0  0  0  0  0  0
    0.5474    0.4482    2.4349 H   0  0  0  0  0  0  0  0  0  0  0  0
    1.9593   -0.6003    2.0972 H   0  0  0  0  0  0  0  0  0  0  0  0
    0.9664   -1.7175   -1.0440 H   0  0  0  0  0  0  0  0  0  0  0  0
    2.0679   -1.9276    0.3746 H   0  0  0  0  0  0  0  0  0  0  0  0
    3.1888   -0.8396   -1.5451 H   0  0  0  0  0  0  0  0  0  0  0  0
    3.0700    0.2761   -0.1000 H   0  0  0  0  0  0  0  0  0  0  0  0
    1.7318    2.1578   -0.3161 H   0  0  0  0  0  0  0  0  0  0  0  0
    0.4352    2.1177   -1.5267 H   0  0  0  0  0  0  0  0  0  0  0  0
   -0.0725    1.4554    0.9150 H   0  0  0  0  0  0  0  0  0  0  0  0
   -1.0698   -0.2003   -1.4780 H   0  0  0  0  0  0  0  0  0  0  0  0
   -1.5922    1.4707   -1.0766 H   0  0  0  0  0  0  0  0  0  0  0  0
   -4.0174   -1.3345   -0.6749 H   0  0  0  0  0  0  0  0  0  0  0  0
   -3.8538    0.2337   -1.3175 H   0  0  0  0  0  0  0  0  0  0  0  0
  1  2  1  0
  2  3  1  0
  3  4  1  0
  4  5  1  0
  5  6  1  0
  6  7  1  0
  7  8  1  0
  8  9  1  0
  9 10  1  0
  9 11  2  0
  9 12  2  0
  7  2  1  0
  1 13  1  0
  1 14  1  0
  1 15  1  0
  3 16  1  0
  3 17  1  0
  4 18  1  0
  4 19  1  0
  6 20  1  0
  6 21  1  0
  7 22  1  1
  8 23  1  0
  8 24  1  0
 10 25  1  0
 10 26  1  0
M  END
$$$$

     RDKit          3D

 26 26  0  0  0  0  0  0  0  0999 V2000
    1.4263    0.1881    1.7530 C   0  0  0  0  0  0  0  0  0  0  0  0
    0.8729    0.9349    0.6771 N   0  0  0  0  0  0  0  0  0  0  0  0
    1.8132    1.4228   -0.2773 C   0  0  0  0  0  0  0  0  0  0  0  0
    2.3308    0.2987   -1.1586 C   0  0  0  0  0  0  0  0  0  0  0  0
    1.3206   -0.3507   -1.8095 O   0  0  0  0  0  0  0  0  0  0  0  0
    0.2136   -0.6872   -1.0780 C   0  0  0  0  0  0  0  0  0  0  0  0
   -0.2046    0.2641   -0.0164 C   0  0  1  0  0  0  0  0  0  0  0  0
   -1.1734   -0.3783    0.9215 C   0  0  0  0  0  0  0  0  0  0  0  0
   -2.4876   -1.1940    0.0768 S   0  0  0  0  0  6  0  0  0  0  0  0
   -3.3255   -0.0261   -0.8931 N   0  0  0  0  0  0  0  0  0  0  0  0
   -3.4297   -1.7915    1.0986 O   0  0  0  0  0  0  0  0  0  0  0  0
   -1.9641   -2.2892   -0.7999 O   0  0  0  0  0  0  0  0  0  0  0  0
    1.5845   -0.8838    1.5524 H   0  0  0  0  0  0  0  0  0  0  0  0
    0.7426    0.2455    2.6483 H   0  0  0  0  0  0  0  0  0  0  0  0
    2.3656    0.6834    2.0740 H   0  0  0  0  0  0  0  0  0  0  0  0
    2.6809    1.9312    0.1739 H   0  0  0  0  0  0  0  0  0  0  0  0
    1.2540    2.1098   -0.9713 H   0  0  0  0  0  0  0  0  0  0  0  0
    2.9813    0.7843   -1.9213 H   0  0  0  0  0  0  0  0  0  0  0  0
    3.0113   -0.3837   -0.5804 H   0  0  0  0  0  0  0  0  0  0  0  0
   -0.6414   -0.7253   -1.8235 H   0  0  0  0  0  0  0  0  0  0  0  0
    0.2912   -1.7507   -0.7058 H   0  0  0  0  0  0  0  0  0  0  0  0
   -0.7636    1.1048   -0.5314 H   0  0  0  0  0  0  0  0  0  0  0  0
   -1.6010    0.3997    1.5938 H   0  0  0  0  0  0  0  0  0  0  0  0
   -0.6285   -1.0753    1.6068 H   0  0  0  0  0  0  0  0  0  0  0  0
   -4.0375    0.4980   -0.3186 H   0  0  0  0  0  0  0  0  0  0  0  0
   -2.6319    0.6704   -1.2912 H   0  0  0  0  0  0  0  0  0  0  0  0
  1  2  1  0
  2  3  1  0
  3  4  1  0
  4  5  1  0
  5  6  1  0
  6  7  1  0
  7  8  1  0
  8  9  1  0
  9 10  1  0
  9 11  2  0
  9 12  2  0
  7  2  1  0
  1 13  1  0
  1 14  1  0
  1 15  1  0
  3 16  1  0
  3 17  1  0
  4 18  1  0
  4 19  1  0
  6 20  1  0
  6 21  1  0
  7 22  1  6
  8 23  1  0
  8 24  1  0
 10 25  1  0
 10 26  1  0
M  END
$$$$

     RDKit          3D

 26 26  0  0  0  0  0  0  0  0999 V2000
   -1.4147   -1.9119   -0.3348 C   0  0  0  0  0  0  0  0  0  0  0  0
   -0.8243   -0.6623    0.1055 N   0  0  0  0  0  0  0  0  0  0  0  0
   -1.6915    0.0426    0.9477 C   0  0  0  0  0  0  0  0  0  0  0  0
   -1.9188    1.4762    0.6512 C   0  0  0  0  0  0  0  0  0  0  0  0
   -0.7525    2.0672    0.2405 O   0  0  0  0  0  0  0  0  0  0  0  0
   -0.3845    1.5079   -0.9746 C   0  0  0  0  0  0  0  0  0  0  0  0
   -0.1550    0.0405   -0.9214 C   0  0  1  0  0  0  0  0  0  0  0  0
    1.3157   -0.3343   -0.8857 C   0  0  0  0  0  0  0  0  0  0  0  0
    2.0855    0.0640    0.6469 S   0  0  0  0  0  6  0  0  0  0  0  0
    3.7430   -0.4149    0.5434 N   0  0  0  0  0  0  0  0  0  0  0  0
    2.0795    1.5758    0.7995 O   0  0  0  0  0  0  0  0  0  0  0  0
    1.4474   -0.5721    1.8203 O   0  0  0  0  0  0  0  0  0  0  0  0
   -2.5317   -1.8896   -0.2635 H   0  0  0  0  0  0  0  0  0  0  0  0
   -1.0571   -2.7739    0.2640 H   0  0  0  0  0  0  0  0  0  0  0  0
   -1.1869   -2.0313   -1.4123 H   0  0  0  0  0  0  0  0  0  0  0  0
   -2.7018   -0.4619    0.9767 H   0  0  0  0  0  0  0  0  0  0  0  0
   -1.3223   -0.0486    2.0093 H   0  0  0  0  0  0  0  0  0  0  0  0
   -2.7659    1.6248   -0.0479 H   0  0  0  0  0  0  0  0  0  0  0  0
   -2.2367    1.9761    1.6109 H   0  0  0  0  0  0  0  0  0  0  0  0
    0.5337    2.0376   -1.3155 H   0  0  0  0  0  0  0  0  0  0  0  0
   -1.1771    1.7904   -1.7116 H   0  0  0  0  0  0  0  0  0  0  0  0
   -0.5248   -0.3797   -1.9060 H   0  0  0  0  0  0  0  0  0  0  0  0
    1.4107   -1.4280   -1.0468 H   0  0  0  0  0  0  0  0  0  0  0  0
    1.8970    0.1566   -1.6933 H   0  0  0  0  0  0  0  0  0  0  0  0
    3.8170   -1.4494    0.5836 H   0  0  0  0  0  0  0  0  0  0  0  0
    4.3161   -0.0017    1.3138 H   0  0  0  0  0  0  0  0  0  0  0  0
  1  2  1  0
  2  3  1  0
  3  4  1  0
  4  5  1  0
  5  6  1  0
  6  7  1  0
  7  8  1  0
  8  9  1  0
  9 10  1  0
  9 11  2  0
  9 12  2  0
  7  2  1  0
  1 13  1  0
  1 14  1  0
  1 15  1  0
  3 16  1  0
  3 17  1  0
  4 18  1  0
  4 19  1  0
  6 20  1  0
  6 21  1  0
  7 22  1  6
  8 23  1  0
  8 24  1  0
 10 25  1  0
 10 26  1  0
M  END
$$$$

     RDKit          3D

 26 26  0  0  0  0  0  0  0  0999 V2000
   -0.9089   -1.8847   -0.5480 C   0  0  0  0  0  0  0  0  0  0  0  0
   -0.5379   -0.7651    0.2623 N   0  0  0  0  0  0  0  0  0  0  0  0
   -1.5423   -0.3243    1.1719 C   0  0  0  0  0  0  0  0  0  0  0  0
   -2.3593    0.8328    0.6608 C   0  0  0  0  0  0  0  0  0  0  0  0
   -1.5427    1.8253    0.1602 O   0  0  0  0  0  0  0  0  0  0  0  0
   -0.9000    1.3268   -0.9727 C   0  0  0  0  0  0  0  0  0  0  0  0
    0.1029    0.2935   -0.4725 C   0  0  1  0  0  0  0  0  0  0  0  0
    1.1295    1.0264    0.3381 C   0  0  0  0  0  0  0  0  0  0  0  0
    2.4177   -0.0721    0.8884 S   0  0  0  0  0  6  0  0  0  0  0  0
    3.1462   -0.7345   -0.5515 N   0  0  0  0  0  0  0  0  0  0  0  0
    3.4906    0.6624    1.6178 O   0  0  0  0  0  0  0  0  0  0  0  0
    1.8750   -1.2136    1.6685 O   0  0  0  0  0  0  0  0  0  0  0  0
   -1.5540   -1.5911   -1.4241 H   0  0  0  0  0  0  0  0  0  0  0  0
   -0.0085   -2.4035   -0.9369 H   0  0  0  0  0  0  0  0  0  0  0  0
   -1.4780   -2.5923    0.0892 H   0  0  0  0  0  0  0  0  0  0  0  0
   -2.2299   -1.1646    1.3683 H   0  0  0  0  0  0  0  0  0  0  0  0
   -1.0496   -0.0658    2.1327 H   0  0  0  0  0  0  0  0  0  0  0  0
   -3.0282    0.5000   -0.1527 H   0  0  0  0  0  0  0  0  0  0  0  0
   -2.9329    1.2330    1.5202 H   0  0  0  0  0  0  0  0  0  0  0  0
   -0.3372    2.1249   -1.4740 H   0  0  0  0  0  0  0  0  0  0  0  0
   -1.6142    0.8339   -1.6342 H   0  0  0  0  0  0  0  0  0  0  0  0
    0.6124   -0.1413   -1.3631 H   0  0  0  0  0  0  0  0  0  0  0  0
    0.6091    1.4758    1.2169 H   0  0  0  0  0  0  0  0  0  0  0  0
    1.5249    1.8505   -0.2703 H   0  0  0  0  0  0  0  0  0  0  0  0
    4.1572   -0.8747   -0.3871 H   0  0  0  0  0  0  0  0  0  0  0  0
    2.9582   -0.1574   -1.3786 H   0  0  0  0  0  0  0  0  0  0  0  0
  1  2  1  0
  2  3  1  0
  3  4  1  0
  4  5  1  0
  5  6  1  0
  6  7  1  0
  7  8  1  0
  8  9  1  0
  9 10  1  0
  9 11  2  0
  9 12  2  0
  7  2  1  0
  1 13  1  0
  1 14  1  0
  1 15  1  0
  3 16  1  0
  3 17  1  0
  4 18  1  0
  4 19  1  0
  6 20  1  0
  6 21  1  0
  7 22  1  6
  8 23  1  0
  8 24  1  0
 10 25  1  0
 10 26  1  0
M  END
$$$$

     RDKit          3D

 26 26  0  0  0  0  0  0  0  0999 V2000
   -1.4323   -1.8994    0.6192 C   0  0  0  0  0  0  0  0  0  0  0  0
   -0.8871   -0.5747    0.8453 N   0  0  0  0  0  0  0  0  0  0  0  0
   -1.9273    0.3859    0.5532 C   0  0  0  0  0  0  0  0  0  0  0  0
   -2.4343    0.1628   -0.8479 C   0  0  0  0  0  0  0  0  0  0  0  0
   -1.4820   -0.3385   -1.6981 O   0  0  0  0  0  0  0  0  0  0  0  0
   -0.2323    0.1892   -1.3835 C   0  0  0  0  0  0  0  0  0  0  0  0
    0.2386   -0.2848   -0.0211 C   0  0  1  0  0  0  0  0  0  0  0  0
    1.1109    0.8056    0.5559 C   0  0  0  0  0  0  0  0  0  0  0  0
    2.4745    1.1515   -0.4964 S   0  0  0  0  0  6  0  0  0  0  0  0
    3.4011   -0.3038   -0.6626 N   0  0  0  0  0  0  0  0  0  0  0  0
    2.0014    1.6314   -1.8177 O   0  0  0  0  0  0  0  0  0  0  0  0
    3.3896    2.1914    0.0858 O   0  0  0  0  0  0  0  0  0  0  0  0
   -2.5206   -1.9212    0.8888 H   0  0  0  0  0  0  0  0  0  0  0  0
   -1.2867   -2.2710   -0.3986 H   0  0  0  0  0  0  0  0  0  0  0  0
   -0.9591   -2.6329    1.3353 H   0  0  0  0  0  0  0  0  0  0  0  0
   -1.5019    1.4166    0.6594 H   0  0  0  0  0  0  0  0  0  0  0  0
   -2.7501    0.2371    1.2645 H   0  0  0  0  0  0  0  0  0  0  0  0
   -3.2981   -0.5480   -0.7780 H   0  0  0  0  0  0  0  0  0  0  0  0
   -2.8250    1.1231   -1.2445 H   0  0  0  0  0  0  0  0  0  0  0  0
   -0.2718    1.2793   -1.4316 H   0  0  0  0  0  0  0  0  0  0  0  0
    0.5308   -0.1533   -2.1181 H   0  0  0  0  0  0  0  0  0  0  0  0
    0.8373   -1.2047   -0.1008 H   0  0  0  0  0  0  0  0  0  0  0  0
    1.4032    0.4996    1.5710 H   0  0  0  0  0  0  0  0  0  0  0  0
    0.5354    1.7611    0.6820 H   0  0  0  0  0  0  0  0  0  0  0  0
    3.5536   -0.6788    0.2999 H   0  0  0  0  0  0  0  0  0  0  0  0
    4.3324   -0.0234   -1.0239 H   0  0  0  0  0  0  0  0  0  0  0  0
  1  2  1  0
  2  3  1  0
  3  4  1  0
  4  5  1  0
  5  6  1  0
  6  7  1  0
  7  8  1  0
  8  9  1  0
  9 10  1  0
  9 11  2  0
  9 12  2  0
  7  2  1  0
  1 13  1  0
  1 14  1  0
  1 15  1  0
  3 16  1  0
  3 17  1  0
  4 18  1  0
  4 19  1  0
  6 20  1  0
  6 21  1  0
  7 22  1  6
  8 23  1  0
  8 24  1  0
 10 25  1  0
 10 26  1  0
M  END
$$$$

     RDKit          3D

 26 26  0  0  0  0  0  0  0  0999 V2000
   -1.6839    1.6828    0.9424 C   0  0  0  0  0  0  0  0  0  0  0  0
   -0.9975    0.9610   -0.0873 N   0  0  0  0  0  0  0  0  0  0  0  0
   -1.8716    0.3816   -1.0745 C   0  0  0  0  0  0  0  0  0  0  0  0
   -2.5390   -0.8773   -0.6326 C   0  0  0  0  0  0  0  0  0  0  0  0
   -1.8592   -1.3863    0.4587 O   0  0  0  0  0  0  0  0  0  0  0  0
   -0.4815   -1.3532    0.1207 C   0  0  0  0  0  0  0  0  0  0  0  0
   -0.0195    0.0267    0.4182 C   0  0  1  0  0  0  0  0  0  0  0  0
    1.3178    0.4043   -0.0839 C   0  0  0  0  0  0  0  0  0  0  0  0
    2.6531   -0.6050    0.4143 S   0  0  0  0  0  6  0  0  0  0  0  0
    4.1304   -0.0160   -0.2643 N   0  0  0  0  0  0  0  0  0  0  0  0
    2.4652   -2.0083   -0.1469 O   0  0  0  0  0  0  0  0  0  0  0  0
    2.8391   -0.7363    1.8688 O   0  0  0  0  0  0  0  0  0  0  0  0
   -2.7560    1.8075    0.6993 H   0  0  0  0  0  0  0  0  0  0  0  0
   -1.2113    2.7003    1.0047 H   0  0  0  0  0  0  0  0  0  0  0  0
   -1.5184    1.1660    1.9027 H   0  0  0  0  0  0  0  0  0  0  0  0
   -2.6401    1.1246   -1.3303 H   0  0  0  0  0  0  0  0  0  0  0  0
   -1.2501    0.1907   -1.9932 H   0  0  0  0  0  0  0  0  0  0  0  0
   -3.6172   -0.7103   -0.3534 H   0  0  0  0  0  0  0  0  0  0  0  0
   -2.4734   -1.6685   -1.4360 H   0  0  0  0  0  0  0  0  0  0  0  0
   -0.3632   -1.6227   -0.9536 H   0  0  0  0  0  0  0  0  0  0  0  0
   -0.0410   -2.1319    0.7924 H   0  0  0  0  0  0  0  0  0  0  0  0
   -0.0428    0.1410    1.5430 H   0  0  0  0  0  0  0  0  0  0  0  0
    1.5272    1.4472    0.2373 H   0  0  0  0  0  0  0  0  0  0  0  0
    1.3004    0.4321   -1.1943 H   0  0  0  0  0  0  0  0  0  0  0  0
    4.9650   -0.3776    0.2224 H   0  0  0  0  0  0  0  0  0  0  0  0
    4.1674    1.0275   -0.2844 H   0  0  0  0  0  0  0  0  0  0  0  0
  1  2  1  0
  2  3  1  0
  3  4  1  0
  4  5  1  0
  5  6  1  0
  6  7  1  0
  7  8  1  0
  8  9  1  0
  9 10  1  0
  9 11  2  0
  9 12  2  0
  7  2  1  0
  1 13  1  0
  1 14  1  0
  1 15  1  0
  3 16  1  0
  3 17  1  0
  4 18  1  0
  4 19  1  0
  6 20  1  0
  6 21  1  0
  7 22  1  1
  8 23  1  0
  8 24  1  0
 10 25  1  0
 10 26  1  0
M  END
$$$$
