
     RDKit          3D

 28 29  0  0  0  0  0  0  0  0999 V2000
   -3.0225    1.7611   -0.9303 C   0  0  0  0  0  0  0  0  0  0  0  0
   -2.3061    0.8306   -0.1870 O   0  0  0  0  0  0  0  0  0  0  0  0
   -1.9459   -0.2807   -0.9067 C   0  0  1  0  0  0  0  0  0  0  0  0
   -0.5081   -0.6739   -0.6317 C   0  0  1  0  0  0  0  0  0  0  0  0
    0.3810    0.4359   -0.5181 N   0  0  0  0  0  0  0  0  0  0  0  0
    1.7605    0.2383   -0.2619 C   0  0  0  0  0  0  0  0  0  0  0  0
    2.3065   -0.8432    0.2364 N   0  0  0  0  0  0  0  0  0  0  0  0
    3.7232   -0.7006    0.3627 C   0  0  0  0  0  0  0  0  0  0  0  0
    3.9404    0.7899    0.2572 C   0  0  0  0  0  0  0  0  0  0  0  0
    2.7803    1.2013   -0.5113 N   0  0  0  0  0  0  0  0  0  0  0  0
   -1.0293   -1.2363    0.6869 C   0  0  0  0  0  0  0  0  0  0  0  0
   -2.3157   -1.5354   -0.0983 C   0  0  1  0  0  0  0  0  0  0  0  0
   -3.4685   -1.3747    0.6289 O   0  0  0  0  0  0  0  0  0  0  0  0
   -3.2725    2.6225   -0.2777 H   0  0  0  0  0  0  0  0  0  0  0  0
   -2.3515    2.1742   -1.7246 H   0  0  0  0  0  0  0  0  0  0  0  0
   -3.9313    1.2983   -1.3338 H   0  0  0  0  0  0  0  0  0  0  0  0
   -2.2495   -0.3209   -1.9601 H   0  0  0  0  0  0  0  0  0  0  0  0
   -0.1666   -1.5035   -1.2880 H   0  0  0  0  0  0  0  0  0  0  0  0
    0.0020    1.3968   -0.6262 H   0  0  0  0  0  0  0  0  0  0  0  0
    4.1243   -1.1156    1.3096 H   0  0  0  0  0  0  0  0  0  0  0  0
    4.1982   -1.1644   -0.5327 H   0  0  0  0  0  0  0  0  0  0  0  0
    3.9328    1.2707    1.2611 H   0  0  0  0  0  0  0  0  0  0  0  0
    4.8830    1.0387   -0.2758 H   0  0  0  0  0  0  0  0  0  0  0  0
    2.7097    2.0374   -1.1244 H   0  0  0  0  0  0  0  0  0  0  0  0
   -0.5127   -2.1210    1.0560 H   0  0  0  0  0  0  0  0  0  0  0  0
   -1.2303   -0.4222    1.3917 H   0  0  0  0  0  0  0  0  0  0  0  0
   -2.2067   -2.4588   -0.6706 H   0  0  0  0  0  0  0  0  0  0  0  0
   -4.2249   -1.3442   -0.0110 H   0  0  0  0  0  0  0  0  0  0  0  0
  1  2  1  0
  2  3  1  0
  3  4  1  0
  4  5  1  0
  5  6  1  0
  6  7  2  0
  7  8  1  0
  8  9  1  0
  9 10  1  0
  4 11  1  0
 11 12  1  0
 12 13  1  0
 12  3  1  0
 10  6  1  0
  1 14  1  0
  1 15  1  0
  1 16  1  0
  3 17  1  6
  4 18  1  6
  5 19  1  0
  8 20  1  0
  8 21  1  0
  9 22  1  0
  9 23  1  0
 10 24  1  0
 11 25  1  0
 11 26  1  0
 12 27  1  6
 13 28  1  0
M  END
$$$$

     RDKit          3D

 28 29  0  0  0  0  0  0  0  0999 V2000
   -1.3653    1.9544    1.3483 C   0  0  0  0  0  0  0  0  0  0  0  0
   -0.9661    0.6345    1.0409 O   0  0  0  0  0  0  0  0  0  0  0  0
   -1.6734    0.2396   -0.0691 C   0  0  1  0  0  0  0  0  0  0  0  0
   -0.9106   -0.3761   -1.1949 C   0  0  1  0  0  0  0  0  0  0  0  0
    0.3293   -1.0419   -0.8439 N   0  0  0  0  0  0  0  0  0  0  0  0
    1.3832   -0.3140   -0.2226 C   0  0  0  0  0  0  0  0  0  0  0  0
    1.4067    0.9737   -0.1491 N   0  0  0  0  0  0  0  0  0  0  0  0
    2.5941    1.4469    0.5347 C   0  0  0  0  0  0  0  0  0  0  0  0
    3.5154    0.2514    0.4225 C   0  0  0  0  0  0  0  0  0  0  0  0
    2.5656   -0.8450    0.4105 N   0  0  0  0  0  0  0  0  0  0  0  0
   -2.0207   -1.4096   -1.3306 C   0  0  0  0  0  0  0  0  0  0  0  0
   -2.3895   -1.1056    0.1063 C   0  0  1  0  0  0  0  0  0  0  0  0
   -1.6641   -1.8655    1.0231 O   0  0  0  0  0  0  0  0  0  0  0  0
   -2.4534    1.9937    1.5587 H   0  0  0  0  0  0  0  0  0  0  0  0
   -1.1461    2.6248    0.4694 H   0  0  0  0  0  0  0  0  0  0  0  0
   -0.8481    2.3328    2.2481 H   0  0  0  0  0  0  0  0  0  0  0  0
   -2.3858    1.0154   -0.4768 H   0  0  0  0  0  0  0  0  0  0  0  0
   -0.8436    0.2832   -2.0846 H   0  0  0  0  0  0  0  0  0  0  0  0
    0.4900   -2.0620   -1.0312 H   0  0  0  0  0  0  0  0  0  0  0  0
    3.0142    2.3548    0.0694 H   0  0  0  0  0  0  0  0  0  0  0  0
    2.4072    1.5842    1.6373 H   0  0  0  0  0  0  0  0  0  0  0  0
    4.2309    0.1872    1.2662 H   0  0  0  0  0  0  0  0  0  0  0  0
    4.0196    0.2462   -0.5622 H   0  0  0  0  0  0  0  0  0  0  0  0
    2.6687   -1.8105    0.7653 H   0  0  0  0  0  0  0  0  0  0  0  0
   -1.6527   -2.4291   -1.5195 H   0  0  0  0  0  0  0  0  0  0  0  0
   -2.8181   -1.1059   -2.0569 H   0  0  0  0  0  0  0  0  0  0  0  0
   -3.4592   -1.0016    0.3109 H   0  0  0  0  0  0  0  0  0  0  0  0
   -2.0278   -2.7562    1.1738 H   0  0  0  0  0  0  0  0  0  0  0  0
  1  2  1  0
  2  3  1  0
  3  4  1  0
  4  5  1  0
  5  6  1  0
  6  7  2  0
  7  8  1  0
  8  9  1  0
  9 10  1  0
  4 11  1  0
 11 12  1  0
 12 13  1  0
 12  3  1  0
 10  6  1  0
  1 14  1  0
  1 15  1  0
  1 16  1  0
  3 17  1  6
  4 18  1  6
  5 19  1  0
  8 20  1  0
  8 21  1  0
  9 22  1  0
  9 23  1  0
 10 24  1  0
 11 25  1  0
 11 26  1  0
 12 27  1  6
 13 28  1  0
M  END
$$$$

     RDKit          3D

 28 29  0  0  0  0  0  0  0  0999 V2000
   -2.9982    1.6647    0.8979 C   0  0  0  0  0  0  0  0  0  0  0  0
   -2.3732    0.4660    0.6015 O   0  0  0  0  0  0  0  0  0  0  0  0
   -2.0568    0.2864   -0.7080 C   0  0  1  0  0  0  0  0  0  0  0  0
   -0.5784    0.0056   -0.8809 C   0  0  1  0  0  0  0  0  0  0  0  0
    0.2381    0.3326    0.2531 N   0  0  0  0  0  0  0  0  0  0  0  0
    1.6437    0.1067    0.1935 C   0  0  0  0  0  0  0  0  0  0  0  0
    2.2768   -0.5048   -0.7695 N   0  0  0  0  0  0  0  0  0  0  0  0
    3.6975   -0.5557   -0.5030 C   0  0  0  0  0  0  0  0  0  0  0  0
    3.8640    0.5549    0.5095 C   0  0  0  0  0  0  0  0  0  0  0  0
    2.5799    0.5184    1.1825 N   0  0  0  0  0  0  0  0  0  0  0  0
   -0.9272   -1.4639   -1.0138 C   0  0  0  0  0  0  0  0  0  0  0  0
   -2.3313   -1.0291   -1.3471 C   0  0  1  0  0  0  0  0  0  0  0  0
   -3.3484   -1.7945   -0.8197 O   0  0  0  0  0  0  0  0  0  0  0  0
   -3.1939    1.6711    1.9917 H   0  0  0  0  0  0  0  0  0  0  0  0
   -4.0130    1.7327    0.4187 H   0  0  0  0  0  0  0  0  0  0  0  0
   -2.3788    2.5535    0.6878 H   0  0  0  0  0  0  0  0  0  0  0  0
   -2.3536    1.1458   -1.3543 H   0  0  0  0  0  0  0  0  0  0  0  0
   -0.1670    0.3572   -1.8638 H   0  0  0  0  0  0  0  0  0  0  0  0
   -0.1501    0.7329    1.1326 H   0  0  0  0  0  0  0  0  0  0  0  0
    3.9015   -1.5452   -0.0390 H   0  0  0  0  0  0  0  0  0  0  0  0
    4.3011   -0.3854   -1.4156 H   0  0  0  0  0  0  0  0  0  0  0  0
    4.7055    0.3706    1.2023 H   0  0  0  0  0  0  0  0  0  0  0  0
    3.9412    1.5172   -0.0227 H   0  0  0  0  0  0  0  0  0  0  0  0
    2.3571    0.7398    2.1741 H   0  0  0  0  0  0  0  0  0  0  0  0
   -0.3893   -1.9778   -1.8252 H   0  0  0  0  0  0  0  0  0  0  0  0
   -0.8837   -2.0310   -0.0660 H   0  0  0  0  0  0  0  0  0  0  0  0
   -2.4304   -0.9270   -2.4490 H   0  0  0  0  0  0  0  0  0  0  0  0
   -2.9331   -2.5420   -0.2933 H   0  0  0  0  0  0  0  0  0  0  0  0
  1  2  1  0
  2  3  1  0
  3  4  1  0
  4  5  1  0
  5  6  1  0
  6  7  2  0
  7  8  1  0
  8  9  1  0
  9 10  1  0
  4 11  1  0
 11 12  1  0
 12 13  1  0
 12  3  1  0
 10  6  1  0
  1 14  1  0
  1 15  1  0
  1 16  1  0
  3 17  1  6
  4 18  1  6
  5 19  1  0
  8 20  1  0
  8 21  1  0
  9 22  1  0
  9 23  1  0
 10 24  1  0
 11 25  1  0
 11 26  1  0
 12 27  1  6
 13 28  1  0
M  END
$$$$

     RDKit          3D

 28 29  0  0  0  0  0  0  0  0999 V2000
   -1.2723    2.1596    0.3626 C   0  0  0  0  0  0  0  0  0  0  0  0
   -1.0621    0.7824    0.6001 O   0  0  0  0  0  0  0  0  0  0  0  0
   -1.6209    0.0437   -0.4081 C   0  0  1  0  0  0  0  0  0  0  0  0
   -0.7836   -0.9939   -1.0683 C   0  0  1  0  0  0  0  0  0  0  0  0
    0.4608   -1.3376   -0.4064 N   0  0  0  0  0  0  0  0  0  0  0  0
    1.4932   -0.3582   -0.1684 C   0  0  0  0  0  0  0  0  0  0  0  0
    1.5113    0.7823   -0.7512 N   0  0  0  0  0  0  0  0  0  0  0  0
    2.6477    1.5722   -0.3386 C   0  0  0  0  0  0  0  0  0  0  0  0
    3.4774    0.6479    0.4912 C   0  0  0  0  0  0  0  0  0  0  0  0
    2.6064   -0.4873    0.7071 N   0  0  0  0  0  0  0  0  0  0  0  0
   -1.8372   -2.0288   -0.7331 C   0  0  0  0  0  0  0  0  0  0  0  0
   -2.6212   -1.0051    0.0269 C   0  0  1  0  0  0  0  0  0  0  0  0
   -2.6936   -1.1957    1.4049 O   0  0  0  0  0  0  0  0  0  0  0  0
   -0.8424    2.7858    1.1432 H   0  0  0  0  0  0  0  0  0  0  0  0
   -2.3559    2.3864    0.2954 H   0  0  0  0  0  0  0  0  0  0  0  0
   -0.8296    2.3547   -0.6552 H   0  0  0  0  0  0  0  0  0  0  0  0
   -2.1128    0.6925   -1.1849 H   0  0  0  0  0  0  0  0  0  0  0  0
   -0.6920   -0.8876   -2.1766 H   0  0  0  0  0  0  0  0  0  0  0  0
    0.6834   -2.3001   -0.0661 H   0  0  0  0  0  0  0  0  0  0  0  0
    3.1999    1.9457   -1.2488 H   0  0  0  0  0  0  0  0  0  0  0  0
    2.3295    2.4553    0.2827 H   0  0  0  0  0  0  0  0  0  0  0  0
    4.4249    0.3540   -0.0130 H   0  0  0  0  0  0  0  0  0  0  0  0
    3.7709    1.0947    1.4728 H   0  0  0  0  0  0  0  0  0  0  0  0
    2.8020   -1.2432    1.3951 H   0  0  0  0  0  0  0  0  0  0  0  0
   -2.3437   -2.4616   -1.6224 H   0  0  0  0  0  0  0  0  0  0  0  0
   -1.4995   -2.8356   -0.0414 H   0  0  0  0  0  0  0  0  0  0  0  0
   -3.6421   -0.8924   -0.3813 H   0  0  0  0  0  0  0  0  0  0  0  0
   -3.1985   -2.0300    1.5462 H   0  0  0  0  0  0  0  0  0  0  0  0
  1  2  1  0
  2  3  1  0
  3  4  1  0
  4  5  1  0
  5  6  1  0
  6  7  2  0
  7  8  1  0
  8  9  1  0
  9 10  1  0
  4 11  1  0
 11 12  1  0
 12 13  1  0
 12  3  1  0
 10  6  1  0
  1 14  1  0
  1 15  1  0
  1 16  1  0
  3 17  1  6
  4 18  1  6
  5 19  1  0
  8 20  1  0
  8 21  1  0
  9 22  1  0
  9 23  1  0
 10 24  1  0
 11 25  1  0
 11 26  1  0
 12 27  1  6
 13 28  1  0
M  END
$$$$

     RDKit          3D

 28 29  0  0  0  0  0  0  0  0999 V2000
   -3.7150    1.2358    0.5617 C   0  0  0  0  0  0  0  0  0  0  0  0
   -2.5995    0.4253    0.6386 O   0  0  0  0  0  0  0  0  0  0  0  0
   -2.0451    0.1152   -0.5739 C   0  0  1  0  0  0  0  0  0  0  0  0
   -0.5694    0.2227   -0.7170 C   0  0  1  0  0  0  0  0  0  0  0  0
    0.2224    0.1133    0.4654 N   0  0  0  0  0  0  0  0  0  0  0  0
    1.6370    0.2131    0.3518 C   0  0  0  0  0  0  0  0  0  0  0  0
    2.3395    0.1884   -0.7397 N   0  0  0  0  0  0  0  0  0  0  0  0
    3.7379    0.3138   -0.4808 C   0  0  0  0  0  0  0  0  0  0  0  0
    3.8901    0.1194    1.0176 C   0  0  0  0  0  0  0  0  0  0  0  0
    2.5274    0.3612    1.4678 N   0  0  0  0  0  0  0  0  0  0  0  0
   -0.5897   -1.1081   -1.4565 C   0  0  0  0  0  0  0  0  0  0  0  0
   -1.9124   -1.3904   -0.7721 C   0  0  1  0  0  0  0  0  0  0  0  0
   -1.8009   -2.0084    0.4740 O   0  0  0  0  0  0  0  0  0  0  0  0
   -3.5015    2.2158    0.0796 H   0  0  0  0  0  0  0  0  0  0  0  0
   -4.0685    1.3940    1.6190 H   0  0  0  0  0  0  0  0  0  0  0  0
   -4.5687    0.7687    0.0280 H   0  0  0  0  0  0  0  0  0  0  0  0
   -2.5535    0.5484   -1.4691 H   0  0  0  0  0  0  0  0  0  0  0  0
   -0.2470    1.0504   -1.3898 H   0  0  0  0  0  0  0  0  0  0  0  0
   -0.1730   -0.0368    1.4176 H   0  0  0  0  0  0  0  0  0  0  0  0
    4.3606   -0.4604   -0.9666 H   0  0  0  0  0  0  0  0  0  0  0  0
    4.1067    1.3458   -0.7073 H   0  0  0  0  0  0  0  0  0  0  0  0
    4.6136    0.8351    1.4523 H   0  0  0  0  0  0  0  0  0  0  0  0
    4.1430   -0.9319    1.2343 H   0  0  0  0  0  0  0  0  0  0  0  0
    2.2560    0.5987    2.4299 H   0  0  0  0  0  0  0  0  0  0  0  0
    0.1590   -1.8443   -1.1078 H   0  0  0  0  0  0  0  0  0  0  0  0
   -0.6953   -1.0009   -2.5512 H   0  0  0  0  0  0  0  0  0  0  0  0
   -2.6609   -1.8290   -1.4521 H   0  0  0  0  0  0  0  0  0  0  0  0
   -2.2929   -1.4549    1.1463 H   0  0  0  0  0  0  0  0  0  0  0  0
  1  2  1  0
  2  3  1  0
  3  4  1  0
  4  5  1  0
  5  6  1  0
  6  7  2  0
  7  8  1  0
  8  9  1  0
  9 10  1  0
  4 11  1  0
 11 12  1  0
 12 13  1  0
 12  3  1  0
 10  6  1  0
  1 14  1  0
  1 15  1  0
  1 16  1  0
  3 17  1  6
  4 18  1  6
  5 19  1  0
  8 20  1  0
  8 21  1  0
  9 22  1  0
  9 23  1  0
 10 24  1  0
 11 25  1  0
 11 26  1  0
 12 27  1  6
 13 28  1  0
M  END
$$$$

     RDKit          3D

 28 29  0  0  0  0  0  0  0  0999 V2000
   -1.4230   -0.0143    1.9537 C   0  0  0  0  0  0  0  0  0  0  0  0
   -1.6169   -0.1451    0.5964 O   0  0  0  0  0  0  0  0  0  0  0  0
   -1.1343    0.8969   -0.1546 C   0  0  1  0  0  0  0  0  0  0  0  0
   -0.4418    0.4829   -1.4525 C   0  0  1  0  0  0  0  0  0  0  0  0
    0.3443   -0.7151   -1.3607 N   0  0  0  0  0  0  0  0  0  0  0  0
    1.4352   -0.7109   -0.4163 C   0  0  0  0  0  0  0  0  0  0  0  0
    2.0080    0.3393    0.0663 N   0  0  0  0  0  0  0  0  0  0  0  0
    3.0680   -0.0050    0.9884 C   0  0  0  0  0  0  0  0  0  0  0  0
    2.9690   -1.5049    1.1874 C   0  0  0  0  0  0  0  0  0  0  0  0
    2.0437   -1.8740    0.1255 N   0  0  0  0  0  0  0  0  0  0  0  0
   -1.8416    0.2975   -2.0067 C   0  0  0  0  0  0  0  0  0  0  0  0
   -2.2328    1.4286   -1.0580 C   0  0  1  0  0  0  0  0  0  0  0  0
   -3.5127    1.3185   -0.5422 O   0  0  0  0  0  0  0  0  0  0  0  0
   -1.8605   -0.9239    2.4337 H   0  0  0  0  0  0  0  0  0  0  0  0
   -0.3714    0.1482    2.2454 H   0  0  0  0  0  0  0  0  0  0  0  0
   -2.0534    0.8361    2.3093 H   0  0  0  0  0  0  0  0  0  0  0  0
   -0.6459    1.7278    0.3745 H   0  0  0  0  0  0  0  0  0  0  0  0
    0.0369    1.3467   -1.9253 H   0  0  0  0  0  0  0  0  0  0  0  0
    0.1599   -1.5531   -1.9307 H   0  0  0  0  0  0  0  0  0  0  0  0
    2.9628    0.5547    1.9467 H   0  0  0  0  0  0  0  0  0  0  0  0
    4.0741    0.2696    0.5604 H   0  0  0  0  0  0  0  0  0  0  0  0
    3.9259   -2.0218    1.1117 H   0  0  0  0  0  0  0  0  0  0  0  0
    2.4986   -1.7636    2.1559 H   0  0  0  0  0  0  0  0  0  0  0  0
    1.8727   -2.8682   -0.1739 H   0  0  0  0  0  0  0  0  0  0  0  0
   -1.9620    0.5351   -3.0741 H   0  0  0  0  0  0  0  0  0  0  0  0
   -2.3156   -0.6631   -1.6764 H   0  0  0  0  0  0  0  0  0  0  0  0
   -2.0058    2.3929   -1.5549 H   0  0  0  0  0  0  0  0  0  0  0  0
   -3.9814    2.1882   -0.7290 H   0  0  0  0  0  0  0  0  0  0  0  0
  1  2  1  0
  2  3  1  0
  3  4  1  0
  4  5  1  0
  5  6  1  0
  6  7  2  0
  7  8  1  0
  8  9  1  0
  9 10  1  0
  4 11  1  0
 11 12  1  0
 12 13  1  0
 12  3  1  0
 10  6  1  0
  1 14  1  0
  1 15  1  0
  1 16  1  0
  3 17  1  1
  4 18  1  6
  5 19  1  0
  8 20  1  0
  8 21  1  0
  9 22  1  0
  9 23  1  0
 10 24  1  0
 11 25  1  0
 11 26  1  0
 12 27  1  6
 13 28  1  0
M  END
$$$$

     RDKit          3D

 28 29  0  0  0  0  0  0  0  0999 V2000
    3.7531    0.5835    1.5812 C   0  0  0  0  0  0  0  0  0  0  0  0
    2.5740    0.9569    0.9393 O   0  0  0  0  0  0  0  0  0  0  0  0
    2.1505   -0.0926    0.1900 C   0  0  1  0  0  0  0  0  0  0  0  0
    0.7249   -0.4830    0.2048 C   0  0  1  0  0  0  0  0  0  0  0  0
   -0.2670    0.4937    0.4876 N   0  0  0  0  0  0  0  0  0  0  0  0
   -1.6385    0.0382    0.4845 C   0  0  0  0  0  0  0  0  0  0  0  0
   -2.0476   -1.1387    0.1798 N   0  0  0  0  0  0  0  0  0  0  0  0
   -3.4549   -1.3208    0.2599 C   0  0  0  0  0  0  0  0  0  0  0  0
   -3.9911    0.0538    0.4877 C   0  0  0  0  0  0  0  0  0  0  0  0
   -2.7871    0.7997    0.8154 N   0  0  0  0  0  0  0  0  0  0  0  0
    0.8213   -0.6814   -1.3147 C   0  0  0  0  0  0  0  0  0  0  0  0
    1.9695    0.3355   -1.2700 C   0  0  1  0  0  0  0  0  0  0  0  0
    1.5621    1.6507   -1.3145 O   0  0  0  0  0  0  0  0  0  0  0  0
    4.5125    0.3230    0.7864 H   0  0  0  0  0  0  0  0  0  0  0  0
    3.5690   -0.3769    2.1235 H   0  0  0  0  0  0  0  0  0  0  0  0
    4.1708    1.3712    2.2238 H   0  0  0  0  0  0  0  0  0  0  0  0
    2.8044   -0.9758    0.2497 H   0  0  0  0  0  0  0  0  0  0  0  0
    0.5337   -1.4260    0.7556 H   0  0  0  0  0  0  0  0  0  0  0  0
   -0.0834    1.5049    0.6954 H   0  0  0  0  0  0  0  0  0  0  0  0
   -3.8478   -1.7765   -0.6818 H   0  0  0  0  0  0  0  0  0  0  0  0
   -3.6879   -2.0162    1.1172 H   0  0  0  0  0  0  0  0  0  0  0  0
   -4.5223    0.4712   -0.3833 H   0  0  0  0  0  0  0  0  0  0  0  0
   -4.6167    0.0342    1.3949 H   0  0  0  0  0  0  0  0  0  0  0  0
   -2.7890    1.7583    1.2341 H   0  0  0  0  0  0  0  0  0  0  0  0
    1.1646   -1.6884   -1.5540 H   0  0  0  0  0  0  0  0  0  0  0  0
   -0.0037   -0.2620   -1.8873 H   0  0  0  0  0  0  0  0  0  0  0  0
    2.7940    0.0766   -1.9343 H   0  0  0  0  0  0  0  0  0  0  0  0
    0.6325    1.7867   -1.5983 H   0  0  0  0  0  0  0  0  0  0  0  0
  1  2  1  0
  2  3  1  0
  3  4  1  0
  4  5  1  0
  5  6  1  0
  6  7  2  0
  7  8  1  0
  8  9  1  0
  9 10  1  0
  4 11  1  0
 11 12  1  0
 12 13  1  0
 12  3  1  0
 10  6  1  0
  1 14  1  0
  1 15  1  0
  1 16  1  0
  3 17  1  6
  4 18  1  1
  5 19  1  0
  8 20  1  0
  8 21  1  0
  9 22  1  0
  9 23  1  0
 10 24  1  0
 11 25  1  0
 11 26  1  0
 12 27  1  6
 13 28  1  0
M  END
$$$$

     RDKit          3D

 28 29  0  0  0  0  0  0  0  0999 V2000
   -1.4339   -1.2873    1.3629 C   0  0  0  0  0  0  0  0  0  0  0  0
   -1.5603   -0.7866    0.0837 O   0  0  0  0  0  0  0  0  0  0  0  0
   -1.3981    0.5709   -0.0078 C   0  0  1  0  0  0  0  0  0  0  0  0
   -0.4582    0.8748   -1.1852 C   0  0  1  0  0  0  0  0  0  0  0  0
    0.6273   -0.0506   -1.2850 N   0  0  0  0  0  0  0  0  0  0  0  0
    1.5229   -0.1451   -0.1658 C   0  0  0  0  0  0  0  0  0  0  0  0
    1.5480    0.6526    0.8334 N   0  0  0  0  0  0  0  0  0  0  0  0
    2.5597    0.2985    1.7989 C   0  0  0  0  0  0  0  0  0  0  0  0
    3.3988   -0.7403    1.1127 C   0  0  0  0  0  0  0  0  0  0  0  0
    2.5222   -1.1306    0.0165 N   0  0  0  0  0  0  0  0  0  0  0  0
   -1.6693    0.5547   -2.0557 C   0  0  0  0  0  0  0  0  0  0  0  0
   -2.4953    1.1560   -0.9089 C   0  0  1  0  0  0  0  0  0  0  0  0
   -3.7372    0.6020   -0.7417 O   0  0  0  0  0  0  0  0  0  0  0  0
   -1.5854   -2.3919    1.3065 H   0  0  0  0  0  0  0  0  0  0  0  0
   -0.4515   -1.0986    1.8098 H   0  0  0  0  0  0  0  0  0  0  0  0
   -2.2742   -0.9013    1.9801 H   0  0  0  0  0  0  0  0  0  0  0  0
   -1.1898    1.1384    0.8937 H   0  0  0  0  0  0  0  0  0  0  0  0
   -0.2111    1.9394   -1.2982 H   0  0  0  0  0  0  0  0  0  0  0  0
    0.7643   -0.6363   -2.1397 H   0  0  0  0  0  0  0  0  0  0  0  0
    2.1033   -0.0949    2.7503 H   0  0  0  0  0  0  0  0  0  0  0  0
    3.1541    1.1926    2.0790 H   0  0  0  0  0  0  0  0  0  0  0  0
    3.6270   -1.6074    1.7859 H   0  0  0  0  0  0  0  0  0  0  0  0
    4.3405   -0.2786    0.7294 H   0  0  0  0  0  0  0  0  0  0  0  0
    2.6324   -2.0058   -0.5352 H   0  0  0  0  0  0  0  0  0  0  0  0
   -1.8411   -0.5378   -2.1117 H   0  0  0  0  0  0  0  0  0  0  0  0
   -1.7113    1.1173   -2.9928 H   0  0  0  0  0  0  0  0  0  0  0  0
   -2.4505    2.2678   -0.9862 H   0  0  0  0  0  0  0  0  0  0  0  0
   -4.3334    1.3281   -0.3721 H   0  0  0  0  0  0  0  0  0  0  0  0
  1  2  1  0
  2  3  1  0
  3  4  1  0
  4  5  1  0
  5  6  1  0
  6  7  2  0
  7  8  1  0
  8  9  1  0
  9 10  1  0
  4 11  1  0
 11 12  1  0
 12 13  1  0
 12  3  1  0
 10  6  1  0
  1 14  1  0
  1 15  1  0
  1 16  1  0
  3 17  1  1
  4 18  1  1
  5 19  1  0
  8 20  1  0
  8 21  1  0
  9 22  1  0
  9 23  1  0
 10 24  1  0
 11 25  1  0
 11 26  1  0
 12 27  1  6
 13 28  1  0
M  END
$$$$
