
     RDKit          3D

 28 28  0  0  0  0  0  0  0  0999 V2000
   -2.3899    1.8344   -1.1520 N   0  0  0  0  0  0  0  0  0  0  0  0
   -2.6868    0.4567   -0.8165 C   0  0  0  0  0  0  0  0  0  0  0  0
   -1.5439   -0.1442   -0.0250 C   0  0  1  0  0  0  0  0  0  0  0  0
   -1.3691    0.5837    1.1373 O   0  0  0  0  0  0  0  0  0  0  0  0
   -1.9547   -1.5555    0.3445 C   0  0  0  0  0  0  0  0  0  0  0  0
   -3.1053   -1.5691    1.1075 F   0  0  0  0  0  0  0  0  0  0  0  0
   -0.2968   -0.2164   -0.7959 C   0  0  0  0  0  0  0  0  0  0  0  0
   -0.3089   -0.8399   -1.8626 O   0  0  0  0  0  0  0  0  0  0  0  0
    0.9779    0.3992   -0.3976 C   0  0  1  0  0  0  0  0  0  0  0  0
    1.5246   -0.3683    0.8103 C   0  0  0  0  0  0  0  0  0  0  0  0
    2.9386    0.1887    0.8280 C   0  0  0  0  0  0  0  0  0  0  0  0
    3.2730    0.1274   -0.6472 C   0  0  0  0  0  0  0  0  0  0  0  0
    2.0291    0.1535   -1.3661 N   0  0  0  0  0  0  0  0  0  0  0  0
   -2.5835    2.4848   -0.3638 H   0  0  0  0  0  0  0  0  0  0  0  0
   -2.8338    2.1439   -2.0227 H   0  0  0  0  0  0  0  0  0  0  0  0
   -3.6229    0.4507   -0.2227 H   0  0  0  0  0  0  0  0  0  0  0  0
   -2.8908   -0.0901   -1.7465 H   0  0  0  0  0  0  0  0  0  0  0  0
   -1.5300    0.0404    1.9419 H   0  0  0  0  0  0  0  0  0  0  0  0
   -2.0815   -2.1232   -0.5948 H   0  0  0  0  0  0  0  0  0  0  0  0
   -1.1332   -2.0006    0.9189 H   0  0  0  0  0  0  0  0  0  0  0  0
    0.8994    1.4760   -0.1656 H   0  0  0  0  0  0  0  0  0  0  0  0
    1.6014   -1.4230    0.5293 H   0  0  0  0  0  0  0  0  0  0  0  0
    0.9649   -0.1642    1.7161 H   0  0  0  0  0  0  0  0  0  0  0  0
    2.9005    1.2699    1.1504 H   0  0  0  0  0  0  0  0  0  0  0  0
    3.6132   -0.4101    1.4464 H   0  0  0  0  0  0  0  0  0  0  0  0
    3.8192   -0.8300   -0.8241 H   0  0  0  0  0  0  0  0  0  0  0  0
    3.9585    0.9442   -0.9518 H   0  0  0  0  0  0  0  0  0  0  0  0
    1.8307   -0.8186   -1.7516 H   0  0  0  0  0  0  0  0  0  0  0  0
  1  2  1  0
  2  3  1  0
  3  4  1  1
  3  5  1  0
  5  6  1  0
  3  7  1  0
  7  8  2  0
  7  9  1  0
  9 10  1  0
 10 11  1  0
 11 12  1  0
 12 13  1  0
 13  9  1  0
  1 14  1  0
  1 15  1  0
  2 16  1  0
  2 17  1  0
  4 18  1  0
  5 19  1  0
  5 20  1  0
  9 21  1  1
 10 22  1  0
 10 23  1  0
 11 24  1  0
 11 25  1  0
 12 26  1  0
 12 27  1  0
 13 28  1  0
M  END
$$$$

     RDKit          3D

 28 28  0  0  0  0  0  0  0  0999 V2000
    3.6747   -0.1039   -0.2065 N   0  0  0  0  0  0  0  0  0  0  0  0
    2.4405    0.6344   -0.0341 C   0  0  0  0  0  0  0  0  0  0  0  0
    1.2215   -0.2603   -0.1666 C   0  0  1  0  0  0  0  0  0  0  0  0
    1.1929   -0.8398   -1.4040 O   0  0  0  0  0  0  0  0  0  0  0  0
    1.3080   -1.3067    0.9259 C   0  0  0  0  0  0  0  0  0  0  0  0
    2.4655   -2.0679    0.8002 F   0  0  0  0  0  0  0  0  0  0  0  0
    0.0293    0.5834    0.1291 C   0  0  0  0  0  0  0  0  0  0  0  0
    0.0374    1.1107    1.2342 O   0  0  0  0  0  0  0  0  0  0  0  0
   -1.0877    0.7988   -0.7885 C   0  0  1  0  0  0  0  0  0  0  0  0
   -1.9429   -0.4308   -1.0061 C   0  0  0  0  0  0  0  0  0  0  0  0
   -2.6113   -0.5835    0.3212 C   0  0  0  0  0  0  0  0  0  0  0  0
   -2.7866    0.8361    0.7895 C   0  0  0  0  0  0  0  0  0  0  0  0
   -2.0615    1.6741   -0.1604 N   0  0  0  0  0  0  0  0  0  0  0  0
    4.4502    0.5571    0.0173 H   0  0  0  0  0  0  0  0  0  0  0  0
    3.8069   -0.3893   -1.2041 H   0  0  0  0  0  0  0  0  0  0  0  0
    2.4318    1.4561   -0.7623 H   0  0  0  0  0  0  0  0  0  0  0  0
    2.4521    1.0319    1.0043 H   0  0  0  0  0  0  0  0  0  0  0  0
    1.5927   -1.7612   -1.3122 H   0  0  0  0  0  0  0  0  0  0  0  0
    0.4540   -2.0330    0.8381 H   0  0  0  0  0  0  0  0  0  0  0  0
    1.2299   -0.8577    1.9279 H   0  0  0  0  0  0  0  0  0  0  0  0
   -0.7956    1.2571   -1.7558 H   0  0  0  0  0  0  0  0  0  0  0  0
   -2.7351   -0.1225   -1.7451 H   0  0  0  0  0  0  0  0  0  0  0  0
   -1.3828   -1.3033   -1.3428 H   0  0  0  0  0  0  0  0  0  0  0  0
   -3.5743   -1.1046    0.1633 H   0  0  0  0  0  0  0  0  0  0  0  0
   -2.0298   -1.1994    1.0393 H   0  0  0  0  0  0  0  0  0  0  0  0
   -2.3668    0.9066    1.8076 H   0  0  0  0  0  0  0  0  0  0  0  0
   -3.8810    1.0890    0.7595 H   0  0  0  0  0  0  0  0  0  0  0  0
   -1.5320    2.4288    0.3651 H   0  0  0  0  0  0  0  0  0  0  0  0
  1  2  1  0
  2  3  1  0
  3  4  1  6
  3  5  1  0
  5  6  1  0
  3  7  1  0
  7  8  2  0
  7  9  1  0
  9 10  1  0
 10 11  1  0
 11 12  1  0
 12 13  1  0
 13  9  1  0
  1 14  1  0
  1 15  1  0
  2 16  1  0
  2 17  1  0
  4 18  1  0
  5 19  1  0
  5 20  1  0
  9 21  1  6
 10 22  1  0
 10 23  1  0
 11 24  1  0
 11 25  1  0
 12 26  1  0
 12 27  1  0
 13 28  1  0
M  END
$$$$

     RDKit          3D

 28 28  0  0  0  0  0  0  0  0999 V2000
   -2.7080   -2.0248    0.0104 N   0  0  0  0  0  0  0  0  0  0  0  0
   -1.4083   -1.3843    0.3075 C   0  0  0  0  0  0  0  0  0  0  0  0
   -1.1861   -0.3603   -0.7365 C   0  0  1  0  0  0  0  0  0  0  0  0
   -1.2107   -0.9790   -2.0011 O   0  0  0  0  0  0  0  0  0  0  0  0
   -2.3464    0.6503   -0.6818 C   0  0  0  0  0  0  0  0  0  0  0  0
   -2.1470    1.6214   -1.6637 F   0  0  0  0  0  0  0  0  0  0  0  0
    0.0469    0.4346   -0.6424 C   0  0  0  0  0  0  0  0  0  0  0  0
    0.6978    0.5752   -1.6940 O   0  0  0  0  0  0  0  0  0  0  0  0
    0.5452    1.0657    0.6022 C   0  0  1  0  0  0  0  0  0  0  0  0
    1.2611    0.0669    1.4910 C   0  0  0  0  0  0  0  0  0  0  0  0
    2.4211   -0.3152    0.5818 C   0  0  0  0  0  0  0  0  0  0  0  0
    2.7331    1.0256   -0.0507 C   0  0  0  0  0  0  0  0  0  0  0  0
    1.6646    1.9272    0.2546 N   0  0  0  0  0  0  0  0  0  0  0  0
   -3.4888   -1.4277    0.3239 H   0  0  0  0  0  0  0  0  0  0  0  0
   -2.6992   -2.2486   -0.9978 H   0  0  0  0  0  0  0  0  0  0  0  0
   -0.6340   -2.1421    0.3592 H   0  0  0  0  0  0  0  0  0  0  0  0
   -1.5289   -0.8331    1.2905 H   0  0  0  0  0  0  0  0  0  0  0  0
   -0.4081   -1.5746   -2.0124 H   0  0  0  0  0  0  0  0  0  0  0  0
   -2.3241    1.1678    0.2974 H   0  0  0  0  0  0  0  0  0  0  0  0
   -3.2930    0.1662   -0.9069 H   0  0  0  0  0  0  0  0  0  0  0  0
   -0.2483    1.5861    1.1720 H   0  0  0  0  0  0  0  0  0  0  0  0
    0.6925   -0.7754    1.8347 H   0  0  0  0  0  0  0  0  0  0  0  0
    1.7261    0.6769    2.3182 H   0  0  0  0  0  0  0  0  0  0  0  0
    2.1584   -1.0880   -0.1582 H   0  0  0  0  0  0  0  0  0  0  0  0
    3.2801   -0.7061    1.1599 H   0  0  0  0  0  0  0  0  0  0  0  0
    3.6352    1.4216    0.4917 H   0  0  0  0  0  0  0  0  0  0  0  0
    2.9057    0.9645   -1.1257 H   0  0  0  0  0  0  0  0  0  0  0  0
    1.8631    2.5093    1.0978 H   0  0  0  0  0  0  0  0  0  0  0  0
  1  2  1  0
  2  3  1  0
  3  4  1  6
  3  5  1  0
  5  6  1  0
  3  7  1  0
  7  8  2  0
  7  9  1  0
  9 10  1  0
 10 11  1  0
 11 12  1  0
 12 13  1  0
 13  9  1  0
  1 14  1  0
  1 15  1  0
  2 16  1  0
  2 17  1  0
  4 18  1  0
  5 19  1  0
  5 20  1  0
  9 21  1  1
 10 22  1  0
 10 23  1  0
 11 24  1  0
 11 25  1  0
 12 26  1  0
 12 27  1  0
 13 28  1  0
M  END
$$$$

     RDKit          3D

 28 28  0  0  0  0  0  0  0  0999 V2000
   -2.9976    1.0195   -0.8876 N   0  0  0  0  0  0  0  0  0  0  0  0
   -2.6253    0.7730    0.4724 C   0  0  0  0  0  0  0  0  0  0  0  0
   -1.4709   -0.2108    0.5744 C   0  0  1  0  0  0  0  0  0  0  0  0
   -1.1833   -0.3854    1.9200 O   0  0  0  0  0  0  0  0  0  0  0  0
   -1.9117   -1.5280   -0.0568 C   0  0  0  0  0  0  0  0  0  0  0  0
   -3.0249   -2.0315    0.6178 F   0  0  0  0  0  0  0  0  0  0  0  0
   -0.2699    0.2486   -0.1454 C   0  0  0  0  0  0  0  0  0  0  0  0
   -0.3537    0.4490   -1.3348 O   0  0  0  0  0  0  0  0  0  0  0  0
    1.0416    0.4794    0.5123 C   0  0  1  0  0  0  0  0  0  0  0  0
    1.6622   -0.8368    0.9837 C   0  0  0  0  0  0  0  0  0  0  0  0
    3.1480   -0.6294    0.8367 C   0  0  0  0  0  0  0  0  0  0  0  0
    3.2585    0.7885    0.3353 C   0  0  0  0  0  0  0  0  0  0  0  0
    2.0369    0.9276   -0.4442 N   0  0  0  0  0  0  0  0  0  0  0  0
   -2.6508    1.9789   -1.1817 H   0  0  0  0  0  0  0  0  0  0  0  0
   -4.0291    1.0430   -1.0034 H   0  0  0  0  0  0  0  0  0  0  0  0
   -2.3532    1.6901    1.0152 H   0  0  0  0  0  0  0  0  0  0  0  0
   -3.4812    0.2907    1.0192 H   0  0  0  0  0  0  0  0  0  0  0  0
   -1.6590   -1.2265    2.1958 H   0  0  0  0  0  0  0  0  0  0  0  0
   -1.0762   -2.2394    0.0018 H   0  0  0  0  0  0  0  0  0  0  0  0
   -2.2458   -1.3662   -1.0987 H   0  0  0  0  0  0  0  0  0  0  0  0
    0.9889    1.1482    1.3722 H   0  0  0  0  0  0  0  0  0  0  0  0
    1.3481   -1.1059    1.9993 H   0  0  0  0  0  0  0  0  0  0  0  0
    1.3228   -1.6249    0.2799 H   0  0  0  0  0  0  0  0  0  0  0  0
    3.6926   -0.7562    1.7966 H   0  0  0  0  0  0  0  0  0  0  0  0
    3.5752   -1.3000    0.0660 H   0  0  0  0  0  0  0  0  0  0  0  0
    4.1643    0.9548   -0.2655 H   0  0  0  0  0  0  0  0  0  0  0  0
    3.1913    1.5419    1.1494 H   0  0  0  0  0  0  0  0  0  0  0  0
    1.9022    1.9078   -0.7422 H   0  0  0  0  0  0  0  0  0  0  0  0
  1  2  1  0
  2  3  1  0
  3  4  1  1
  3  5  1  0
  5  6  1  0
  3  7  1  0
  7  8  2  0
  7  9  1  0
  9 10  1  0
 10 11  1  0
 11 12  1  0
 12 13  1  0
 13  9  1  0
  1 14  1  0
  1 15  1  0
  2 16  1  0
  2 17  1  0
  4 18  1  0
  5 19  1  0
  5 20  1  0
  9 21  1  1
 10 22  1  0
 10 23  1  0
 11 24  1  0
 11 25  1  0
 12 26  1  0
 12 27  1  0
 13 28  1  0
M  END
$$$$

     RDKit          3D

 28 28  0  0  0  0  0  0  0  0999 V2000
    2.7537    1.0123    1.3451 N   0  0  0  0  0  0  0  0  0  0  0  0
    2.6267   -0.2864    0.7386 C   0  0  0  0  0  0  0  0  0  0  0  0
    1.4344   -0.3963   -0.1849 C   0  0  1  0  0  0  0  0  0  0  0  0
    1.5558    0.5258   -1.1947 O   0  0  0  0  0  0  0  0  0  0  0  0
    1.4906   -1.7970   -0.7977 C   0  0  0  0  0  0  0  0  0  0  0  0
    2.6740   -1.9005   -1.4774 F   0  0  0  0  0  0  0  0  0  0  0  0
    0.1833   -0.2049    0.5779 C   0  0  0  0  0  0  0  0  0  0  0  0
   -0.0505   -0.9563    1.5255 O   0  0  0  0  0  0  0  0  0  0  0  0
   -0.7820    0.8543    0.2347 C   0  0  1  0  0  0  0  0  0  0  0  0
   -1.3736    0.6276   -1.1518 C   0  0  0  0  0  0  0  0  0  0  0  0
   -2.4871   -0.3625   -0.8217 C   0  0  0  0  0  0  0  0  0  0  0  0
   -2.9491    0.0464    0.5476 C   0  0  0  0  0  0  0  0  0  0  0  0
   -1.9263    0.8636    1.1271 N   0  0  0  0  0  0  0  0  0  0  0  0
    2.1125    1.1178    2.1598 H   0  0  0  0  0  0  0  0  0  0  0  0
    2.6877    1.7977    0.6738 H   0  0  0  0  0  0  0  0  0  0  0  0
    2.6304   -1.0378    1.5353 H   0  0  0  0  0  0  0  0  0  0  0  0
    3.5307   -0.4529    0.1175 H   0  0  0  0  0  0  0  0  0  0  0  0
    1.3913    1.4435   -0.8633 H   0  0  0  0  0  0  0  0  0  0  0  0
    1.3410   -2.5738   -0.0415 H   0  0  0  0  0  0  0  0  0  0  0  0
    0.6105   -1.8455   -1.4942 H   0  0  0  0  0  0  0  0  0  0  0  0
   -0.3236    1.8466    0.2377 H   0  0  0  0  0  0  0  0  0  0  0  0
   -0.6538    0.2056   -1.8502 H   0  0  0  0  0  0  0  0  0  0  0  0
   -1.8371    1.5246   -1.5642 H   0  0  0  0  0  0  0  0  0  0  0  0
   -3.2809   -0.3317   -1.5877 H   0  0  0  0  0  0  0  0  0  0  0  0
   -2.0988   -1.3917   -0.7896 H   0  0  0  0  0  0  0  0  0  0  0  0
   -3.1671   -0.8278    1.1740 H   0  0  0  0  0  0  0  0  0  0  0  0
   -3.8598    0.6778    0.4406 H   0  0  0  0  0  0  0  0  0  0  0  0
   -2.2328    1.8216    1.3837 H   0  0  0  0  0  0  0  0  0  0  0  0
  1  2  1  0
  2  3  1  0
  3  4  1  6
  3  5  1  0
  5  6  1  0
  3  7  1  0
  7  8  2  0
  7  9  1  0
  9 10  1  0
 10 11  1  0
 11 12  1  0
 12 13  1  0
 13  9  1  0
  1 14  1  0
  1 15  1  0
  2 16  1  0
  2 17  1  0
  4 18  1  0
  5 19  1  0
  5 20  1  0
  9 21  1  6
 10 22  1  0
 10 23  1  0
 11 24  1  0
 11 25  1  0
 12 26  1  0
 12 27  1  0
 13 28  1  0
M  END
$$$$

     RDKit          3D

 28 28  0  0  0  0  0  0  0  0999 V2000
   -3.0908    1.0039   -0.1529 N   0  0  0  0  0  0  0  0  0  0  0  0
   -2.5570    0.0350    0.7780 C   0  0  0  0  0  0  0  0  0  0  0  0
   -1.3043   -0.5742    0.1765 C   0  0  1  0  0  0  0  0  0  0  0  0
   -0.7802   -1.5101    1.0647 O   0  0  0  0  0  0  0  0  0  0  0  0
   -1.6361   -1.2276   -1.1437 C   0  0  0  0  0  0  0  0  0  0  0  0
   -2.5690   -2.2182   -0.9663 F   0  0  0  0  0  0  0  0  0  0  0  0
   -0.3332    0.5381   -0.0548 C   0  0  0  0  0  0  0  0  0  0  0  0
   -0.6155    1.4543   -0.8047 O   0  0  0  0  0  0  0  0  0  0  0  0
    0.9715    0.4973    0.6464 C   0  0  1  0  0  0  0  0  0  0  0  0
    1.7533   -0.7610    0.3385 C   0  0  0  0  0  0  0  0  0  0  0  0
    3.1733   -0.2134    0.1820 C   0  0  0  0  0  0  0  0  0  0  0  0
    2.8580    1.1163   -0.5083 C   0  0  0  0  0  0  0  0  0  0  0  0
    1.8089    1.6115    0.3447 N   0  0  0  0  0  0  0  0  0  0  0  0
   -2.8122    1.9475    0.1566 H   0  0  0  0  0  0  0  0  0  0  0  0
   -4.0855    0.8802   -0.3626 H   0  0  0  0  0  0  0  0  0  0  0  0
   -2.2597    0.5364    1.7110 H   0  0  0  0  0  0  0  0  0  0  0  0
   -3.3183   -0.7456    0.9599 H   0  0  0  0  0  0  0  0  0  0  0  0
   -1.2730   -2.3651    0.9829 H   0  0  0  0  0  0  0  0  0  0  0  0
   -0.7005   -1.6081   -1.5854 H   0  0  0  0  0  0  0  0  0  0  0  0
   -2.0654   -0.4584   -1.8130 H   0  0  0  0  0  0  0  0  0  0  0  0
    0.7633    0.4737    1.7555 H   0  0  0  0  0  0  0  0  0  0  0  0
    1.4683   -1.1427   -0.6657 H   0  0  0  0  0  0  0  0  0  0  0  0
    1.6950   -1.5075    1.1343 H   0  0  0  0  0  0  0  0  0  0  0  0
    3.8043   -0.8529   -0.4286 H   0  0  0  0  0  0  0  0  0  0  0  0
    3.5929    0.0422    1.1722 H   0  0  0  0  0  0  0  0  0  0  0  0
    3.7384    1.7683   -0.5551 H   0  0  0  0  0  0  0  0  0  0  0  0
    2.4645    0.8468   -1.5203 H   0  0  0  0  0  0  0  0  0  0  0  0
    1.3087    2.4332   -0.0450 H   0  0  0  0  0  0  0  0  0  0  0  0
  1  2  1  0
  2  3  1  0
  3  4  1  1
  3  5  1  0
  5  6  1  0
  3  7  1  0
  7  8  2  0
  7  9  1  0
  9 10  1  0
 10 11  1  0
 11 12  1  0
 12 13  1  0
 13  9  1  0
  1 14  1  0
  1 15  1  0
  2 16  1  0
  2 17  1  0
  4 18  1  0
  5 19  1  0
  5 20  1  0
  9 21  1  1
 10 22  1  0
 10 23  1  0
 11 24  1  0
 11 25  1  0
 12 26  1  0
 12 27  1  0
 13 28  1  0
M  END
$$$$

     RDKit          3D

 28 28  0  0  0  0  0  0  0  0999 V2000
    3.1143    1.0664    0.4732 N   0  0  0  0  0  0  0  0  0  0  0  0
    1.6635    1.0454    0.2274 C   0  0  0  0  0  0  0  0  0  0  0  0
    1.4336   -0.1483   -0.6764 C   0  0  1  0  0  0  0  0  0  0  0  0
    2.2075    0.1246   -1.8292 O   0  0  0  0  0  0  0  0  0  0  0  0
    2.0535   -1.3801   -0.0447 C   0  0  0  0  0  0  0  0  0  0  0  0
    3.4077   -1.1629    0.1139 F   0  0  0  0  0  0  0  0  0  0  0  0
    0.0485   -0.3483   -1.0932 C   0  0  0  0  0  0  0  0  0  0  0  0
   -0.2304   -0.2290   -2.2868 O   0  0  0  0  0  0  0  0  0  0  0  0
   -1.0888   -0.6922   -0.1945 C   0  0  1  0  0  0  0  0  0  0  0  0
   -1.3076    0.2818    0.9171 C   0  0  0  0  0  0  0  0  0  0  0  0
   -2.8216    0.1701    1.1466 C   0  0  0  0  0  0  0  0  0  0  0  0
   -3.3080   -0.0153   -0.2716 C   0  0  0  0  0  0  0  0  0  0  0  0
   -2.3241   -0.8279   -0.9372 N   0  0  0  0  0  0  0  0  0  0  0  0
    3.3591    0.7307    1.4119 H   0  0  0  0  0  0  0  0  0  0  0  0
    3.5145    1.9984    0.2295 H   0  0  0  0  0  0  0  0  0  0  0  0
    1.2043    0.9075    1.2215 H   0  0  0  0  0  0  0  0  0  0  0  0
    1.3596    1.9809   -0.2434 H   0  0  0  0  0  0  0  0  0  0  0  0
    3.1351    0.3665   -1.5849 H   0  0  0  0  0  0  0  0  0  0  0  0
    1.9340   -2.2082   -0.7637 H   0  0  0  0  0  0  0  0  0  0  0  0
    1.6038   -1.6037    0.9476 H   0  0  0  0  0  0  0  0  0  0  0  0
   -0.9070   -1.6880    0.2773 H   0  0  0  0  0  0  0  0  0  0  0  0
   -1.0885    1.3231    0.6778 H   0  0  0  0  0  0  0  0  0  0  0  0
   -0.8576   -0.0857    1.8659 H   0  0  0  0  0  0  0  0  0  0  0  0
   -3.2204    1.0888    1.6132 H   0  0  0  0  0  0  0  0  0  0  0  0
   -3.0071   -0.7481    1.7134 H   0  0  0  0  0  0  0  0  0  0  0  0
   -4.2935   -0.5239   -0.2952 H   0  0  0  0  0  0  0  0  0  0  0  0
   -3.4341    0.9892   -0.7214 H   0  0  0  0  0  0  0  0  0  0  0  0
   -2.1504   -0.4117   -1.8943 H   0  0  0  0  0  0  0  0  0  0  0  0
  1  2  1  0
  2  3  1  0
  3  4  1  6
  3  5  1  0
  5  6  1  0
  3  7  1  0
  7  8  2  0
  7  9  1  0
  9 10  1  0
 10 11  1  0
 11 12  1  0
 12 13  1  0
 13  9  1  0
  1 14  1  0
  1 15  1  0
  2 16  1  0
  2 17  1  0
  4 18  1  0
  5 19  1  0
  5 20  1  0
  9 21  1  1
 10 22  1  0
 10 23  1  0
 11 24  1  0
 11 25  1  0
 12 26  1  0
 12 27  1  0
 13 28  1  0
M  END
$$$$

     RDKit          3D

 28 28  0  0  0  0  0  0  0  0999 V2000
   -2.9566    1.3197   -0.5072 N   0  0  0  0  0  0  0  0  0  0  0  0
   -1.6196    1.0086    0.0519 C   0  0  0  0  0  0  0  0  0  0  0  0
   -1.5608   -0.4381    0.3866 C   0  0  1  0  0  0  0  0  0  0  0  0
   -2.5403   -0.7666    1.3339 O   0  0  0  0  0  0  0  0  0  0  0  0
   -1.9134   -1.2458   -0.8705 C   0  0  0  0  0  0  0  0  0  0  0  0
   -3.1731   -0.9408   -1.3350 F   0  0  0  0  0  0  0  0  0  0  0  0
   -0.2170   -0.8476    0.8074 C   0  0  0  0  0  0  0  0  0  0  0  0
   -0.1141   -1.4927    1.8253 O   0  0  0  0  0  0  0  0  0  0  0  0
    0.9852   -0.5022    0.0352 C   0  0  1  0  0  0  0  0  0  0  0  0
    1.3970    0.9235    0.3405 C   0  0  0  0  0  0  0  0  0  0  0  0
    2.8353    0.8806    0.8250 C   0  0  0  0  0  0  0  0  0  0  0  0
    3.2671   -0.4837    0.3810 C   0  0  0  0  0  0  0  0  0  0  0  0
    2.0815   -1.3238    0.5352 N   0  0  0  0  0  0  0  0  0  0  0  0
   -3.6053    1.3737    0.3080 H   0  0  0  0  0  0  0  0  0  0  0  0
   -2.8566    2.2033   -1.0073 H   0  0  0  0  0  0  0  0  0  0  0  0
   -0.9285    1.2374   -0.7770 H   0  0  0  0  0  0  0  0  0  0  0  0
   -1.5302    1.6494    0.9361 H   0  0  0  0  0  0  0  0  0  0  0  0
   -3.4337   -0.5957    0.9316 H   0  0  0  0  0  0  0  0  0  0  0  0
   -1.1372   -1.1269   -1.6268 H   0  0  0  0  0  0  0  0  0  0  0  0
   -1.9390   -2.3128   -0.5563 H   0  0  0  0  0  0  0  0  0  0  0  0
    0.8607   -0.5867   -1.0604 H   0  0  0  0  0  0  0  0  0  0  0  0
    0.7509    1.3357    1.1213 H   0  0  0  0  0  0  0  0  0  0  0  0
    1.3841    1.5640   -0.5611 H   0  0  0  0  0  0  0  0  0  0  0  0
    2.8165    0.9778    1.9381 H   0  0  0  0  0  0  0  0  0  0  0  0
    3.4042    1.7084    0.4000 H   0  0  0  0  0  0  0  0  0  0  0  0
    4.0702   -0.9069    0.9808 H   0  0  0  0  0  0  0  0  0  0  0  0
    3.4979   -0.4655   -0.7056 H   0  0  0  0  0  0  0  0  0  0  0  0
    2.1746   -2.1463   -0.1169 H   0  0  0  0  0  0  0  0  0  0  0  0
  1  2  1  0
  2  3  1  0
  3  4  1  1
  3  5  1  0
  5  6  1  0
  3  7  1  0
  7  8  2  0
  7  9  1  0
  9 10  1  0
 10 11  1  0
 11 12  1  0
 12 13  1  0
 13  9  1  0
  1 14  1  0
  1 15  1  0
  2 16  1  0
  2 17  1  0
  4 18  1  0
  5 19  1  0
  5 20  1  0
  9 21  1  6
 10 22  1  0
 10 23  1  0
 11 24  1  0
 11 25  1  0
 12 26  1  0
 12 27  1  0
 13 28  1  0
M  END
$$$$
