
     RDKit          3D

 28 30  0  0  0  0  0  0  0  0999 V2000
    4.2045   -0.8839   -0.4765 O   0  0  0  0  0  0  0  0  0  0  0  0
    3.4537    0.0232   -0.3003 C   0  0  0  0  0  0  0  0  0  0  0  0
    4.0178    1.2833   -0.7003 O   0  0  0  0  0  0  0  0  0  0  0  0
    2.1365    0.0385    0.2575 C   0  0  2  0  0  0  0  0  0  0  0  0
    1.5976   -1.4424    0.2857 C   0  0  0  0  0  0  0  0  0  0  0  0
    0.2366   -1.1753    0.5936 O   0  0  0  0  0  0  0  0  0  0  0  0
   -0.1060   -0.0301   -0.1016 C   0  0  2  0  0  0  0  0  0  0  0  0
    1.0716    0.5122   -0.6750 N   0  0  0  0  0  0  0  0  0  0  0  0
   -0.9364    0.9601    0.6902 C   0  0  2  0  0  0  0  0  0  0  0  0
   -2.0036    0.2581    1.5244 C   0  0  0  0  0  0  0  0  0  0  0  0
   -2.9211   -0.4484    0.6711 N   0  0  0  0  0  0  0  0  0  0  0  0
   -2.2636   -1.1088   -0.4406 C   0  0  0  0  0  0  0  0  0  0  0  0
   -1.2945   -0.1266   -1.0434 C   0  0  1  0  0  0  0  0  0  0  0  0
   -1.5871    1.3282   -0.6512 C   0  0  0  0  0  0  0  0  0  0  0  0
    5.0451    1.4454   -0.6682 H   0  0  0  0  0  0  0  0  0  0  0  0
    2.0124    0.4271    1.2601 H   0  0  0  0  0  0  0  0  0  0  0  0
    1.5849   -1.8466   -0.7333 H   0  0  0  0  0  0  0  0  0  0  0  0
    2.0911   -2.0391    1.0295 H   0  0  0  0  0  0  0  0  0  0  0  0
    1.3027    0.3006   -1.6265 H   0  0  0  0  0  0  0  0  0  0  0  0
   -0.4113    1.7679    1.1955 H   0  0  0  0  0  0  0  0  0  0  0  0
   -1.5821   -0.3661    2.3194 H   0  0  0  0  0  0  0  0  0  0  0  0
   -2.5856    1.0638    2.0295 H   0  0  0  0  0  0  0  0  0  0  0  0
   -3.7182    0.1466    0.3789 H   0  0  0  0  0  0  0  0  0  0  0  0
   -1.7028   -1.9792    0.0033 H   0  0  0  0  0  0  0  0  0  0  0  0
   -3.0417   -1.4308   -1.1563 H   0  0  0  0  0  0  0  0  0  0  0  0
   -1.0375   -0.2565   -2.1013 H   0  0  0  0  0  0  0  0  0  0  0  0
   -0.9207    1.9962   -1.2132 H   0  0  0  0  0  0  0  0  0  0  0  0
   -2.6421    1.5824   -0.6055 H   0  0  0  0  0  0  0  0  0  0  0  0
  1  2  2  0
  2  3  1  0
  2  4  1  0
  4  5  1  0
  5  6  1  0
  7  6  1  1
  7  8  1  0
  7  9  1  0
  9 10  1  0
 10 11  1  0
 11 12  1  0
 12 13  1  0
 13 14  1  0
  8  4  1  0
 14  9  1  0
 13  7  1  0
  3 15  1  0
  4 16  1  1
  5 17  1  0
  5 18  1  0
  8 19  1  0
  9 20  1  1
 10 21  1  0
 10 22  1  0
 11 23  1  0
 12 24  1  0
 12 25  1  0
 13 26  1  6
 14 27  1  0
 14 28  1  0
M  END
$$$$

     RDKit          3D

 28 30  0  0  0  0  0  0  0  0999 V2000
    3.6047   -1.1988   -1.2454 O   0  0  0  0  0  0  0  0  0  0  0  0
    3.4109   -0.2203   -0.5065 C   0  0  0  0  0  0  0  0  0  0  0  0
    4.4880    0.4273    0.0827 O   0  0  0  0  0  0  0  0  0  0  0  0
    2.0503    0.2885   -0.2269 C   0  0  2  0  0  0  0  0  0  0  0  0
    1.6457    0.0824    1.2172 C   0  0  0  0  0  0  0  0  0  0  0  0
    0.2611    0.1516    1.1445 O   0  0  0  0  0  0  0  0  0  0  0  0
   -0.1319   -0.2048   -0.1107 C   0  0  2  0  0  0  0  0  0  0  0  0
    1.0284   -0.4849   -0.9086 N   0  0  0  0  0  0  0  0  0  0  0  0
   -1.0003    0.8300   -0.8369 C   0  0  2  0  0  0  0  0  0  0  0  0
   -1.9403    1.4548    0.1498 C   0  0  0  0  0  0  0  0  0  0  0  0
   -2.8466    0.4827    0.6871 N   0  0  0  0  0  0  0  0  0  0  0  0
   -2.2839   -0.8226    0.8548 C   0  0  0  0  0  0  0  0  0  0  0  0
   -1.2820   -1.1491   -0.2433 C   0  0  1  0  0  0  0  0  0  0  0  0
   -1.6918   -0.3695   -1.5010 C   0  0  0  0  0  0  0  0  0  0  0  0
    5.4353    0.3098   -0.2871 H   0  0  0  0  0  0  0  0  0  0  0  0
    1.9692    1.3718   -0.4404 H   0  0  0  0  0  0  0  0  0  0  0  0
    2.0663    0.8675    1.8803 H   0  0  0  0  0  0  0  0  0  0  0  0
    2.0051   -0.9359    1.4973 H   0  0  0  0  0  0  0  0  0  0  0  0
    1.3000   -1.4905   -0.8172 H   0  0  0  0  0  0  0  0  0  0  0  0
   -0.4673    1.4853   -1.5186 H   0  0  0  0  0  0  0  0  0  0  0  0
   -1.3817    1.9673    0.9850 H   0  0  0  0  0  0  0  0  0  0  0  0
   -2.4828    2.2725   -0.3762 H   0  0  0  0  0  0  0  0  0  0  0  0
   -3.7447    0.5020    0.1578 H   0  0  0  0  0  0  0  0  0  0  0  0
   -1.8021   -0.8842    1.8363 H   0  0  0  0  0  0  0  0  0  0  0  0
   -3.1315   -1.5640    0.7737 H   0  0  0  0  0  0  0  0  0  0  0  0
   -1.0715   -2.2022   -0.4015 H   0  0  0  0  0  0  0  0  0  0  0  0
   -2.8016   -0.2481   -1.5504 H   0  0  0  0  0  0  0  0  0  0  0  0
   -1.2048   -0.7187   -2.4210 H   0  0  0  0  0  0  0  0  0  0  0  0
  1  2  2  0
  2  3  1  0
  2  4  1  0
  4  5  1  0
  5  6  1  0
  7  6  1  1
  7  8  1  0
  7  9  1  0
  9 10  1  0
 10 11  1  0
 11 12  1  0
 12 13  1  0
 13 14  1  0
  8  4  1  0
 14  9  1  0
 13  7  1  0
  3 15  1  0
  4 16  1  6
  5 17  1  0
  5 18  1  0
  8 19  1  0
  9 20  1  6
 10 21  1  0
 10 22  1  0
 11 23  1  0
 12 24  1  0
 12 25  1  0
 13 26  1  6
 14 27  1  0
 14 28  1  0
M  END
$$$$

     RDKit          3D

 28 30  0  0  0  0  0  0  0  0999 V2000
    3.2724    0.8528   -0.5736 O   0  0  0  0  0  0  0  0  0  0  0  0
    3.0343   -0.3314   -0.9112 C   0  0  0  0  0  0  0  0  0  0  0  0
    3.8434   -0.8808   -1.8932 O   0  0  0  0  0  0  0  0  0  0  0  0
    1.9294   -1.0501   -0.2543 C   0  0  2  0  0  0  0  0  0  0  0  0
    0.8044   -1.3772   -1.2105 C   0  0  0  0  0  0  0  0  0  0  0  0
   -0.3729   -1.1602   -0.4933 O   0  0  0  0  0  0  0  0  0  0  0  0
   -0.0801   -0.1142    0.3382 C   0  0  2  0  0  0  0  0  0  0  0  0
    1.3004   -0.1960    0.7081 N   0  0  0  0  0  0  0  0  0  0  0  0
   -0.9607    0.0480    1.5576 C   0  0  2  0  0  0  0  0  0  0  0  0
   -2.3612   -0.3461    1.1500 C   0  0  0  0  0  0  0  0  0  0  0  0
   -2.6879    0.0641   -0.1725 N   0  0  0  0  0  0  0  0  0  0  0  0
   -1.9361    1.1597   -0.6831 C   0  0  0  0  0  0  0  0  0  0  0  0
   -0.5577    1.2507   -0.0871 C   0  0  1  0  0  0  0  0  0  0  0  0
   -0.7058    1.5548    1.4130 C   0  0  0  0  0  0  0  0  0  0  0  0
    4.2762   -0.3005   -2.6290 H   0  0  0  0  0  0  0  0  0  0  0  0
    2.3398   -1.9793    0.1963 H   0  0  0  0  0  0  0  0  0  0  0  0
    0.8727   -2.4449   -1.4565 H   0  0  0  0  0  0  0  0  0  0  0  0
    0.8714   -0.7423   -2.1169 H   0  0  0  0  0  0  0  0  0  0  0  0
    1.4130   -0.5560    1.7029 H   0  0  0  0  0  0  0  0  0  0  0  0
   -0.6117   -0.3962    2.4822 H   0  0  0  0  0  0  0  0  0  0  0  0
   -2.3936   -1.4632    1.1824 H   0  0  0  0  0  0  0  0  0  0  0  0
   -3.0680    0.0000    1.9309 H   0  0  0  0  0  0  0  0  0  0  0  0
   -2.7089   -0.6866   -0.8827 H   0  0  0  0  0  0  0  0  0  0  0  0
   -1.9181    1.1332   -1.7935 H   0  0  0  0  0  0  0  0  0  0  0  0
   -2.4725    2.1077   -0.4149 H   0  0  0  0  0  0  0  0  0  0  0  0
    0.1581    1.8748   -0.6143 H   0  0  0  0  0  0  0  0  0  0  0  0
   -1.5517    2.1908    1.6686 H   0  0  0  0  0  0  0  0  0  0  0  0
    0.2717    1.7880    1.8564 H   0  0  0  0  0  0  0  0  0  0  0  0
  1  2  2  0
  2  3  1  0
  2  4  1  0
  4  5  1  0
  5  6  1  0
  7  6  1  6
  7  8  1  0
  7  9  1  0
  9 10  1  0
 10 11  1  0
 11 12  1  0
 12 13  1  0
 13 14  1  0
  8  4  1  0
 14  9  1  0
 13  7  1  0
  3 15  1  0
  4 16  1  1
  5 17  1  0
  5 18  1  0
  8 19  1  0
  9 20  1  1
 10 21  1  0
 10 22  1  0
 11 23  1  0
 12 24  1  0
 12 25  1  0
 13 26  1  6
 14 27  1  0
 14 28  1  0
M  END
$$$$

     RDKit          3D

 28 30  0  0  0  0  0  0  0  0999 V2000
    3.6016   -1.3918    0.8010 O   0  0  0  0  0  0  0  0  0  0  0  0
    3.4015   -0.2842    0.2934 C   0  0  0  0  0  0  0  0  0  0  0  0
    4.4478    0.6242    0.2367 O   0  0  0  0  0  0  0  0  0  0  0  0
    2.0922    0.1084   -0.2544 C   0  0  2  0  0  0  0  0  0  0  0  0
    1.4318    1.2072    0.5890 C   0  0  0  0  0  0  0  0  0  0  0  0
    0.1447    1.1395    0.0538 O   0  0  0  0  0  0  0  0  0  0  0  0
   -0.1167   -0.1992    0.0178 C   0  0  2  0  0  0  0  0  0  0  0  0
    1.0949   -0.9285   -0.1310 N   0  0  0  0  0  0  0  0  0  0  0  0
   -1.2090   -0.6494   -0.9265 C   0  0  2  0  0  0  0  0  0  0  0  0
   -2.2629    0.4036   -1.0412 C   0  0  0  0  0  0  0  0  0  0  0  0
   -2.7202    0.9040    0.2014 N   0  0  0  0  0  0  0  0  0  0  0  0
   -2.0038    0.5113    1.3556 C   0  0  0  0  0  0  0  0  0  0  0  0
   -1.0344   -0.6127    1.1375 C   0  0  1  0  0  0  0  0  0  0  0  0
   -1.6069   -1.6539    0.1664 C   0  0  0  0  0  0  0  0  0  0  0  0
    5.4219    0.3760    0.3208 H   0  0  0  0  0  0  0  0  0  0  0  0
    2.1641    0.4867   -1.2746 H   0  0  0  0  0  0  0  0  0  0  0  0
    1.3917    0.8845    1.6623 H   0  0  0  0  0  0  0  0  0  0  0  0
    1.9096    2.1732    0.4489 H   0  0  0  0  0  0  0  0  0  0  0  0
    1.0657   -1.4417   -1.0409 H   0  0  0  0  0  0  0  0  0  0  0  0
   -0.8938   -1.0884   -1.8633 H   0  0  0  0  0  0  0  0  0  0  0  0
   -3.1419   -0.0667   -1.5700 H   0  0  0  0  0  0  0  0  0  0  0  0
   -1.9103    1.1985   -1.7505 H   0  0  0  0  0  0  0  0  0  0  0  0
   -2.8286    1.9535    0.1121 H   0  0  0  0  0  0  0  0  0  0  0  0
   -1.4223    1.3936    1.7346 H   0  0  0  0  0  0  0  0  0  0  0  0
   -2.7389    0.2706    2.1640 H   0  0  0  0  0  0  0  0  0  0  0  0
   -0.5892   -1.0075    2.0382 H   0  0  0  0  0  0  0  0  0  0  0  0
   -1.0017   -2.5622    0.1443 H   0  0  0  0  0  0  0  0  0  0  0  0
   -2.6868   -1.7490    0.2973 H   0  0  0  0  0  0  0  0  0  0  0  0
  1  2  2  0
  2  3  1  0
  2  4  1  0
  4  5  1  0
  5  6  1  0
  7  6  1  1
  7  8  1  0
  7  9  1  0
  9 10  1  0
 10 11  1  0
 11 12  1  0
 12 13  1  0
 13 14  1  0
  8  4  1  0
 14  9  1  0
 13  7  1  0
  3 15  1  0
  4 16  1  6
  5 17  1  0
  5 18  1  0
  8 19  1  0
  9 20  1  6
 10 21  1  0
 10 22  1  0
 11 23  1  0
 12 24  1  0
 12 25  1  0
 13 26  1  1
 14 27  1  0
 14 28  1  0
M  END
$$$$

     RDKit          3D

 28 30  0  0  0  0  0  0  0  0999 V2000
    3.7562   -0.1306   -1.3436 O   0  0  0  0  0  0  0  0  0  0  0  0
    3.3699   -0.5226   -0.2214 C   0  0  0  0  0  0  0  0  0  0  0  0
    4.2777   -1.1558    0.6020 O   0  0  0  0  0  0  0  0  0  0  0  0
    1.9964   -0.3154    0.2047 C   0  0  2  0  0  0  0  0  0  0  0  0
    1.2116   -1.6257    0.3433 C   0  0  0  0  0  0  0  0  0  0  0  0
   -0.1199   -1.2430    0.1575 O   0  0  0  0  0  0  0  0  0  0  0  0
   -0.1385    0.0203   -0.3425 C   0  0  2  0  0  0  0  0  0  0  0  0
    1.1809    0.3659   -0.7851 N   0  0  0  0  0  0  0  0  0  0  0  0
   -0.6609    1.1021    0.6019 C   0  0  2  0  0  0  0  0  0  0  0  0
   -1.8374    0.5948    1.3688 C   0  0  0  0  0  0  0  0  0  0  0  0
   -2.5940   -0.3636    0.6202 N   0  0  0  0  0  0  0  0  0  0  0  0
   -2.5553   -0.1795   -0.7976 C   0  0  0  0  0  0  0  0  0  0  0  0
   -1.2428    0.4062   -1.2672 C   0  0  1  0  0  0  0  0  0  0  0  0
   -1.1192    1.8198   -0.6755 C   0  0  0  0  0  0  0  0  0  0  0  0
    5.2867   -0.9417    0.5813 H   0  0  0  0  0  0  0  0  0  0  0  0
    1.8995    0.1823    1.1984 H   0  0  0  0  0  0  0  0  0  0  0  0
    1.5297   -2.3484   -0.4605 H   0  0  0  0  0  0  0  0  0  0  0  0
    1.3351   -2.0617    1.3428 H   0  0  0  0  0  0  0  0  0  0  0  0
    1.3820    1.3856   -0.7611 H   0  0  0  0  0  0  0  0  0  0  0  0
    0.1431    1.5869    1.1439 H   0  0  0  0  0  0  0  0  0  0  0  0
   -1.4284    0.0493    2.2682 H   0  0  0  0  0  0  0  0  0  0  0  0
   -2.4482    1.4195    1.7868 H   0  0  0  0  0  0  0  0  0  0  0  0
   -3.6006   -0.3314    0.9617 H   0  0  0  0  0  0  0  0  0  0  0  0
   -3.3546    0.5400   -1.1381 H   0  0  0  0  0  0  0  0  0  0  0  0
   -2.7667   -1.1259   -1.3292 H   0  0  0  0  0  0  0  0  0  0  0  0
   -1.0612    0.3358   -2.3347 H   0  0  0  0  0  0  0  0  0  0  0  0
   -2.0979    2.3092   -0.5754 H   0  0  0  0  0  0  0  0  0  0  0  0
   -0.3436    2.4389   -1.1495 H   0  0  0  0  0  0  0  0  0  0  0  0
  1  2  2  0
  2  3  1  0
  2  4  1  0
  4  5  1  0
  5  6  1  0
  7  6  1  1
  7  8  1  0
  7  9  1  0
  9 10  1  0
 10 11  1  0
 11 12  1  0
 12 13  1  0
 13 14  1  0
  8  4  1  0
 14  9  1  0
 13  7  1  0
  3 15  1  0
  4 16  1  1
  5 17  1  0
  5 18  1  0
  8 19  1  0
  9 20  1  1
 10 21  1  0
 10 22  1  0
 11 23  1  0
 12 24  1  0
 12 25  1  0
 13 26  1  6
 14 27  1  0
 14 28  1  0
M  END
$$$$

     RDKit          3D

 28 30  0  0  0  0  0  0  0  0999 V2000
    3.3742   -2.0657    0.5077 O   0  0  0  0  0  0  0  0  0  0  0  0
    3.2754   -0.8592    0.1826 C   0  0  0  0  0  0  0  0  0  0  0  0
    4.4319   -0.1289    0.0448 O   0  0  0  0  0  0  0  0  0  0  0  0
    1.9814   -0.2292   -0.0473 C   0  0  2  0  0  0  0  0  0  0  0  0
    1.6361    0.8036    1.0327 C   0  0  0  0  0  0  0  0  0  0  0  0
    0.2636    0.9513    0.8363 O   0  0  0  0  0  0  0  0  0  0  0  0
   -0.2216   -0.1920    0.2804 C   0  0  2  0  0  0  0  0  0  0  0  0
    0.8645   -1.1384    0.1399 N   0  0  0  0  0  0  0  0  0  0  0  0
   -0.9027   -0.0254   -1.0796 C   0  0  2  0  0  0  0  0  0  0  0  0
   -1.6997    1.2381   -1.0586 C   0  0  0  0  0  0  0  0  0  0  0  0
   -2.1927    1.5482    0.2392 N   0  0  0  0  0  0  0  0  0  0  0  0
   -2.4318    0.4332    1.0903 C   0  0  0  0  0  0  0  0  0  0  0  0
   -1.5144   -0.7335    0.7826 C   0  0  1  0  0  0  0  0  0  0  0  0
   -1.7993   -1.1972   -0.6548 C   0  0  0  0  0  0  0  0  0  0  0  0
    5.3258   -0.5423   -0.2504 H   0  0  0  0  0  0  0  0  0  0  0  0
    1.9070    0.3178   -1.0107 H   0  0  0  0  0  0  0  0  0  0  0  0
    2.1978    1.7299    0.9181 H   0  0  0  0  0  0  0  0  0  0  0  0
    1.7598    0.3166    2.0284 H   0  0  0  0  0  0  0  0  0  0  0  0
    0.7786   -1.7405   -0.6911 H   0  0  0  0  0  0  0  0  0  0  0  0
   -0.2702   -0.2163   -1.9419 H   0  0  0  0  0  0  0  0  0  0  0  0
   -1.0410    2.0691   -1.3948 H   0  0  0  0  0  0  0  0  0  0  0  0
   -2.5527    1.1528   -1.7709 H   0  0  0  0  0  0  0  0  0  0  0  0
   -1.7690    2.3663    0.6909 H   0  0  0  0  0  0  0  0  0  0  0  0
   -3.5095    0.1048    1.0919 H   0  0  0  0  0  0  0  0  0  0  0  0
   -2.2212    0.7452    2.1401 H   0  0  0  0  0  0  0  0  0  0  0  0
   -1.4971   -1.5226    1.5264 H   0  0  0  0  0  0  0  0  0  0  0  0
   -1.3312   -2.1480   -0.9109 H   0  0  0  0  0  0  0  0  0  0  0  0
   -2.8421   -1.0376   -0.9735 H   0  0  0  0  0  0  0  0  0  0  0  0
  1  2  2  0
  2  3  1  0
  2  4  1  0
  4  5  1  0
  5  6  1  0
  7  6  1  1
  7  8  1  0
  7  9  1  0
  9 10  1  0
 10 11  1  0
 11 12  1  0
 12 13  1  0
 13 14  1  0
  8  4  1  0
 14  9  1  0
 13  7  1  0
  3 15  1  0
  4 16  1  6
  5 17  1  0
  5 18  1  0
  8 19  1  0
  9 20  1  6
 10 21  1  0
 10 22  1  0
 11 23  1  0
 12 24  1  0
 12 25  1  0
 13 26  1  1
 14 27  1  0
 14 28  1  0
M  END
$$$$

     RDKit          3D

 28 30  0  0  0  0  0  0  0  0999 V2000
    3.5379   -1.2331    1.1263 O   0  0  0  0  0  0  0  0  0  0  0  0
    3.3703   -0.1928    0.4412 C   0  0  0  0  0  0  0  0  0  0  0  0
    4.4413    0.6443    0.2524 O   0  0  0  0  0  0  0  0  0  0  0  0
    2.0264    0.0589   -0.1165 C   0  0  2  0  0  0  0  0  0  0  0  0
    1.3647    1.2830    0.4438 C   0  0  0  0  0  0  0  0  0  0  0  0
    0.1333    0.8897    0.9626 O   0  0  0  0  0  0  0  0  0  0  0  0
   -0.1532   -0.2557    0.2927 C   0  0  2  0  0  0  0  0  0  0  0  0
    1.0867   -0.9876    0.2395 N   0  0  0  0  0  0  0  0  0  0  0  0
   -0.7691   -0.0842   -1.0985 C   0  0  2  0  0  0  0  0  0  0  0  0
   -1.7167    1.0719   -1.0188 C   0  0  0  0  0  0  0  0  0  0  0  0
   -2.8737    0.6632   -0.2493 N   0  0  0  0  0  0  0  0  0  0  0  0
   -2.5071   -0.0722    0.9489 C   0  0  0  0  0  0  0  0  0  0  0  0
   -1.3703   -1.0228    0.6598 C   0  0  1  0  0  0  0  0  0  0  0  0
   -1.4477   -1.4339   -0.8195 C   0  0  0  0  0  0  0  0  0  0  0  0
    5.4164    0.3130    0.2320 H   0  0  0  0  0  0  0  0  0  0  0  0
    2.1007    0.1160   -1.2375 H   0  0  0  0  0  0  0  0  0  0  0  0
    1.2207    2.0136   -0.3780 H   0  0  0  0  0  0  0  0  0  0  0  0
    2.0001    1.7734    1.2080 H   0  0  0  0  0  0  0  0  0  0  0  0
    1.3118   -1.2608    1.2359 H   0  0  0  0  0  0  0  0  0  0  0  0
   -0.0468   -0.0988   -1.9120 H   0  0  0  0  0  0  0  0  0  0  0  0
   -1.2861    1.9621   -0.5139 H   0  0  0  0  0  0  0  0  0  0  0  0
   -2.0929    1.3901   -2.0197 H   0  0  0  0  0  0  0  0  0  0  0  0
   -3.5691    0.1776   -0.8352 H   0  0  0  0  0  0  0  0  0  0  0  0
   -2.2830    0.6211    1.7826 H   0  0  0  0  0  0  0  0  0  0  0  0
   -3.4035   -0.6618    1.2433 H   0  0  0  0  0  0  0  0  0  0  0  0
   -1.2714   -1.8763    1.3261 H   0  0  0  0  0  0  0  0  0  0  0  0
   -2.4568   -1.5296   -1.2130 H   0  0  0  0  0  0  0  0  0  0  0  0
   -0.7630   -2.2683   -0.9831 H   0  0  0  0  0  0  0  0  0  0  0  0
  1  2  2  0
  2  3  1  0
  2  4  1  0
  4  5  1  0
  5  6  1  0
  7  6  1  1
  7  8  1  0
  7  9  1  0
  9 10  1  0
 10 11  1  0
 11 12  1  0
 12 13  1  0
 13 14  1  0
  8  4  1  0
 14  9  1  0
 13  7  1  0
  3 15  1  0
  4 16  1  6
  5 17  1  0
  5 18  1  0
  8 19  1  0
  9 20  1  6
 10 21  1  0
 10 22  1  0
 11 23  1  0
 12 24  1  0
 12 25  1  0
 13 26  1  1
 14 27  1  0
 14 28  1  0
M  END
$$$$

     RDKit          3D

 28 30  0  0  0  0  0  0  0  0999 V2000
    4.1841   -1.0817    0.1559 O   0  0  0  0  0  0  0  0  0  0  0  0
    3.0379   -0.7674   -0.1134 C   0  0  0  0  0  0  0  0  0  0  0  0
    2.8081   -0.4367   -1.4673 O   0  0  0  0  0  0  0  0  0  0  0  0
    1.9361   -0.7735    0.8519 C   0  0  2  0  0  0  0  0  0  0  0  0
    0.8989   -1.8372    0.5903 C   0  0  0  0  0  0  0  0  0  0  0  0
   -0.3036   -1.1892    0.6256 O   0  0  0  0  0  0  0  0  0  0  0  0
   -0.0979    0.1706    0.4990 C   0  0  2  0  0  0  0  0  0  0  0  0
    1.2311    0.4677    1.0604 N   0  0  0  0  0  0  0  0  0  0  0  0
   -1.2304    0.9933    1.0325 C   0  0  2  0  0  0  0  0  0  0  0  0
   -2.5490    0.3324    0.6618 C   0  0  0  0  0  0  0  0  0  0  0  0
   -2.4330   -0.5259   -0.4796 N   0  0  0  0  0  0  0  0  0  0  0  0
   -1.4969   -0.0773   -1.4614 C   0  0  0  0  0  0  0  0  0  0  0  0
   -0.3958    0.7527   -0.8445 C   0  0  1  0  0  0  0  0  0  0  0  0
   -0.9024    1.9906   -0.0904 C   0  0  0  0  0  0  0  0  0  0  0  0
    3.5173    0.1859   -1.9019 H   0  0  0  0  0  0  0  0  0  0  0  0
    2.3784   -0.9865    1.8375 H   0  0  0  0  0  0  0  0  0  0  0  0
    1.0011   -2.6623    1.3435 H   0  0  0  0  0  0  0  0  0  0  0  0
    1.0345   -2.3183   -0.4038 H   0  0  0  0  0  0  0  0  0  0  0  0
    1.6681    1.2816    0.5333 H   0  0  0  0  0  0  0  0  0  0  0  0
   -1.1499    1.3676    2.0433 H   0  0  0  0  0  0  0  0  0  0  0  0
   -3.0306   -0.1727    1.5056 H   0  0  0  0  0  0  0  0  0  0  0  0
   -3.2277    1.1719    0.3525 H   0  0  0  0  0  0  0  0  0  0  0  0
   -2.4210   -1.5352   -0.2729 H   0  0  0  0  0  0  0  0  0  0  0  0
   -1.0046   -0.9670   -1.9104 H   0  0  0  0  0  0  0  0  0  0  0  0
   -2.0354    0.5090   -2.2386 H   0  0  0  0  0  0  0  0  0  0  0  0
    0.4240    1.0191   -1.4952 H   0  0  0  0  0  0  0  0  0  0  0  0
   -0.0607    2.6447    0.1632 H   0  0  0  0  0  0  0  0  0  0  0  0
   -1.7808    2.4439   -0.5565 H   0  0  0  0  0  0  0  0  0  0  0  0
  1  2  2  0
  2  3  1  0
  2  4  1  0
  4  5  1  0
  5  6  1  0
  7  6  1  6
  7  8  1  0
  7  9  1  0
  9 10  1  0
 10 11  1  0
 11 12  1  0
 12 13  1  0
 13 14  1  0
  8  4  1  0
 14  9  1  0
 13  7  1  0
  3 15  1  0
  4 16  1  1
  5 17  1  0
  5 18  1  0
  8 19  1  0
  9 20  1  1
 10 21  1  0
 10 22  1  0
 11 23  1  0
 12 24  1  0
 12 25  1  0
 13 26  1  6
 14 27  1  0
 14 28  1  0
M  END
$$$$
