
     RDKit          3D

 27 29  0  0  0  0  0  0  0  0999 V2000
   -1.8180   -1.1188    1.3924 C   0  0  0  0  0  0  0  0  0  0  0  0
   -2.0254   -0.0702    0.3664 C   0  0  2  0  0  0  0  0  0  0  0  0
   -2.4647   -0.5873   -0.9347 N   0  0  0  0  0  0  0  0  0  0  0  0
   -1.7891    0.5704   -1.5095 C   0  0  0  0  0  0  0  0  0  0  0  0
   -0.7955    0.4456   -0.3441 C   0  0  2  0  0  0  0  0  0  0  0  0
    0.2386   -0.4945   -0.5805 N   0  0  0  0  0  0  0  0  0  0  0  0
    1.5167   -0.1995   -0.0457 C   0  0  0  0  0  0  0  0  0  0  0  0
    2.7252   -0.2758   -0.9435 C   0  0  0  0  0  0  0  0  0  0  0  0
    2.4947   -1.3470    0.0588 C   0  0  0  0  0  0  0  0  0  0  0  0
    1.5244    0.7121    1.1075 C   0  0  0  0  0  0  0  0  0  0  0  0
    2.2236    0.5374    2.1325 O   0  0  0  0  0  0  0  0  0  0  0  0
    0.6832    1.8588    1.0449 N   0  0  0  0  0  0  0  0  0  0  0  0
   -0.3609    1.7882    0.0579 C   0  0  0  0  0  0  0  0  0  0  0  0
   -0.8484    2.8647   -0.4102 O   0  0  0  0  0  0  0  0  0  0  0  0
   -0.7824   -1.3412    1.6518 H   0  0  0  0  0  0  0  0  0  0  0  0
   -2.3871   -2.0333    1.0700 H   0  0  0  0  0  0  0  0  0  0  0  0
   -2.3488   -0.7827    2.3310 H   0  0  0  0  0  0  0  0  0  0  0  0
   -2.6581    0.7953    0.6750 H   0  0  0  0  0  0  0  0  0  0  0  0
   -1.9323   -1.4492   -1.1875 H   0  0  0  0  0  0  0  0  0  0  0  0
   -2.4219    1.4646   -1.3669 H   0  0  0  0  0  0  0  0  0  0  0  0
   -1.3523    0.4181   -2.4976 H   0  0  0  0  0  0  0  0  0  0  0  0
    0.3367   -0.6616   -1.6168 H   0  0  0  0  0  0  0  0  0  0  0  0
    2.5022   -0.5004   -1.9930 H   0  0  0  0  0  0  0  0  0  0  0  0
    3.5561    0.4378   -0.7726 H   0  0  0  0  0  0  0  0  0  0  0  0
    2.1817   -2.3610   -0.2520 H   0  0  0  0  0  0  0  0  0  0  0  0
    3.2094   -1.3681    0.9124 H   0  0  0  0  0  0  0  0  0  0  0  0
    0.7923    2.6975    1.6538 H   0  0  0  0  0  0  0  0  0  0  0  0
  1  2  1  0
  2  3  1  0
  3  4  1  0
  4  5  1  0
  5  6  1  6
  6  7  1  0
  7  8  1  0
  8  9  1  0
  7 10  1  0
 10 11  2  0
 10 12  1  0
 12 13  1  0
 13 14  2  0
  5  2  1  0
  9  7  1  0
 13  5  1  0
  1 15  1  0
  1 16  1  0
  1 17  1  0
  2 18  1  1
  3 19  1  0
  4 20  1  0
  4 21  1  0
  6 22  1  0
  8 23  1  0
  8 24  1  0
  9 25  1  0
  9 26  1  0
 12 27  1  0
M  END
$$$$

     RDKit          3D

 27 29  0  0  0  0  0  0  0  0999 V2000
    2.3239    1.2535   -0.0681 C   0  0  0  0  0  0  0  0  0  0  0  0
    2.0754   -0.2258    0.1801 C   0  0  2  0  0  0  0  0  0  0  0  0
    2.4172   -0.9999   -0.9898 N   0  0  0  0  0  0  0  0  0  0  0  0
    1.1897   -1.7439   -0.7989 C   0  0  0  0  0  0  0  0  0  0  0  0
    0.6110   -0.6170    0.0320 C   0  0  2  0  0  0  0  0  0  0  0  0
   -0.1594    0.3450   -0.6556 N   0  0  0  0  0  0  0  0  0  0  0  0
   -1.4592    0.6106   -0.1551 C   0  0  0  0  0  0  0  0  0  0  0  0
   -2.4792    1.2895   -0.9623 C   0  0  0  0  0  0  0  0  0  0  0  0
   -2.6608   -0.1747   -0.6194 C   0  0  0  0  0  0  0  0  0  0  0  0
   -1.3950    0.8097    1.3110 C   0  0  0  0  0  0  0  0  0  0  0  0
   -1.8345    1.8311    1.9003 O   0  0  0  0  0  0  0  0  0  0  0  0
   -0.7904   -0.2482    2.0485 N   0  0  0  0  0  0  0  0  0  0  0  0
    0.0841   -1.0908    1.3080 C   0  0  0  0  0  0  0  0  0  0  0  0
    0.3977   -2.2175    1.7394 O   0  0  0  0  0  0  0  0  0  0  0  0
    2.0271    1.4953   -1.1025 H   0  0  0  0  0  0  0  0  0  0  0  0
    1.7362    1.8391    0.6804 H   0  0  0  0  0  0  0  0  0  0  0  0
    3.4066    1.4244    0.0448 H   0  0  0  0  0  0  0  0  0  0  0  0
    2.5586   -0.5783    1.1081 H   0  0  0  0  0  0  0  0  0  0  0  0
    2.4479   -0.4862   -1.8902 H   0  0  0  0  0  0  0  0  0  0  0  0
    1.3846   -2.6689   -0.1870 H   0  0  0  0  0  0  0  0  0  0  0  0
    0.6194   -1.9664   -1.7210 H   0  0  0  0  0  0  0  0  0  0  0  0
   -0.1041    0.2971   -1.6938 H   0  0  0  0  0  0  0  0  0  0  0  0
   -2.2735    1.4697   -2.0342 H   0  0  0  0  0  0  0  0  0  0  0  0
   -3.1109    2.0351   -0.4076 H   0  0  0  0  0  0  0  0  0  0  0  0
   -2.5427   -0.9273   -1.4103 H   0  0  0  0  0  0  0  0  0  0  0  0
   -3.4836   -0.3724    0.1267 H   0  0  0  0  0  0  0  0  0  0  0  0
   -0.9865   -0.3827    3.0643 H   0  0  0  0  0  0  0  0  0  0  0  0
  1  2  1  0
  2  3  1  0
  3  4  1  0
  4  5  1  0
  5  6  1  6
  6  7  1  0
  7  8  1  0
  8  9  1  0
  7 10  1  0
 10 11  2  0
 10 12  1  0
 12 13  1  0
 13 14  2  0
  5  2  1  0
  9  7  1  0
 13  5  1  0
  1 15  1  0
  1 16  1  0
  1 17  1  0
  2 18  1  1
  3 19  1  0
  4 20  1  0
  4 21  1  0
  6 22  1  0
  8 23  1  0
  8 24  1  0
  9 25  1  0
  9 26  1  0
 12 27  1  0
M  END
$$$$

     RDKit          3D

 27 29  0  0  0  0  0  0  0  0999 V2000
   -2.4844   -0.4793    1.1539 C   0  0  0  0  0  0  0  0  0  0  0  0
   -2.1586   -0.0191   -0.2425 C   0  0  2  0  0  0  0  0  0  0  0  0
   -2.0881   -1.0522   -1.2452 N   0  0  0  0  0  0  0  0  0  0  0  0
   -1.0120   -0.2753   -1.8759 C   0  0  0  0  0  0  0  0  0  0  0  0
   -0.6867    0.2550   -0.4905 C   0  0  2  0  0  0  0  0  0  0  0  0
    0.1822   -0.5412    0.3005 N   0  0  0  0  0  0  0  0  0  0  0  0
    1.5271   -0.0644    0.3991 C   0  0  0  0  0  0  0  0  0  0  0  0
    2.6552   -0.6942   -0.3151 C   0  0  0  0  0  0  0  0  0  0  0  0
    2.4727   -1.0206    1.1007 C   0  0  0  0  0  0  0  0  0  0  0  0
    1.6417    1.3452    0.7644 C   0  0  0  0  0  0  0  0  0  0  0  0
    2.5881    1.7406    1.4725 O   0  0  0  0  0  0  0  0  0  0  0  0
    0.6669    2.2659    0.3076 N   0  0  0  0  0  0  0  0  0  0  0  0
   -0.4333    1.7043   -0.4235 C   0  0  0  0  0  0  0  0  0  0  0  0
   -1.2087    2.4772   -1.0287 O   0  0  0  0  0  0  0  0  0  0  0  0
   -3.4746   -0.9643    1.1494 H   0  0  0  0  0  0  0  0  0  0  0  0
   -1.7457   -1.2146    1.5297 H   0  0  0  0  0  0  0  0  0  0  0  0
   -2.5168    0.4067    1.8035 H   0  0  0  0  0  0  0  0  0  0  0  0
   -2.7821    0.8145   -0.5603 H   0  0  0  0  0  0  0  0  0  0  0  0
   -1.6566   -1.9579   -0.9127 H   0  0  0  0  0  0  0  0  0  0  0  0
   -1.4617    0.5366   -2.4990 H   0  0  0  0  0  0  0  0  0  0  0  0
   -0.2365   -0.8803   -2.3487 H   0  0  0  0  0  0  0  0  0  0  0  0
    0.2235   -1.5054   -0.1422 H   0  0  0  0  0  0  0  0  0  0  0  0
    3.5103   -0.0303   -0.5735 H   0  0  0  0  0  0  0  0  0  0  0  0
    2.5085   -1.4983   -1.0697 H   0  0  0  0  0  0  0  0  0  0  0  0
    3.1361   -0.6167    1.9016 H   0  0  0  0  0  0  0  0  0  0  0  0
    2.0999   -2.0416    1.3570 H   0  0  0  0  0  0  0  0  0  0  0  0
    0.7334    3.3098    0.4877 H   0  0  0  0  0  0  0  0  0  0  0  0
  1  2  1  0
  2  3  1  0
  3  4  1  0
  4  5  1  0
  5  6  1  1
  6  7  1  0
  7  8  1  0
  8  9  1  0
  7 10  1  0
 10 11  2  0
 10 12  1  0
 12 13  1  0
 13 14  2  0
  5  2  1  0
  9  7  1  0
 13  5  1  0
  1 15  1  0
  1 16  1  0
  1 17  1  0
  2 18  1  6
  3 19  1  0
  4 20  1  0
  4 21  1  0
  6 22  1  0
  8 23  1  0
  8 24  1  0
  9 25  1  0
  9 26  1  0
 12 27  1  0
M  END
$$$$

     RDKit          3D

 27 29  0  0  0  0  0  0  0  0999 V2000
   -2.8049   -0.7419   -0.7504 C   0  0  0  0  0  0  0  0  0  0  0  0
   -2.0837   -0.1044    0.4015 C   0  0  2  0  0  0  0  0  0  0  0  0
   -1.8422    1.3181    0.2239 N   0  0  0  0  0  0  0  0  0  0  0  0
   -0.6388    1.1392    1.0162 C   0  0  0  0  0  0  0  0  0  0  0  0
   -0.6209   -0.3026    0.4915 C   0  0  2  0  0  0  0  0  0  0  0  0
    0.1351   -0.3971   -0.7024 N   0  0  0  0  0  0  0  0  0  0  0  0
    1.5014    0.0274   -0.5747 C   0  0  0  0  0  0  0  0  0  0  0  0
    2.0214    1.2368   -1.2372 C   0  0  0  0  0  0  0  0  0  0  0  0
    2.4236   -0.1505   -1.7254 C   0  0  0  0  0  0  0  0  0  0  0  0
    2.0410   -0.3797    0.7398 C   0  0  0  0  0  0  0  0  0  0  0  0
    3.1886    0.0530    1.0573 O   0  0  0  0  0  0  0  0  0  0  0  0
    1.3283   -1.2229    1.6390 N   0  0  0  0  0  0  0  0  0  0  0  0
   -0.0947   -1.2139    1.5055 C   0  0  0  0  0  0  0  0  0  0  0  0
   -0.7843   -1.9644    2.2430 O   0  0  0  0  0  0  0  0  0  0  0  0
   -2.2980   -0.5900   -1.7112 H   0  0  0  0  0  0  0  0  0  0  0  0
   -3.8127   -0.2357   -0.8109 H   0  0  0  0  0  0  0  0  0  0  0  0
   -3.0076   -1.7877   -0.4905 H   0  0  0  0  0  0  0  0  0  0  0  0
   -2.5907   -0.2908    1.3539 H   0  0  0  0  0  0  0  0  0  0  0  0
   -2.5572    1.9390    0.6370 H   0  0  0  0  0  0  0  0  0  0  0  0
   -0.8899    1.1108    2.0875 H   0  0  0  0  0  0  0  0  0  0  0  0
    0.2302    1.7397    0.7168 H   0  0  0  0  0  0  0  0  0  0  0  0
   -0.3288   -0.0814   -1.5566 H   0  0  0  0  0  0  0  0  0  0  0  0
    2.7754    1.8529   -0.7259 H   0  0  0  0  0  0  0  0  0  0  0  0
    1.3892    1.8033   -1.9573 H   0  0  0  0  0  0  0  0  0  0  0  0
    2.0307   -0.4967   -2.6940 H   0  0  0  0  0  0  0  0  0  0  0  0
    3.4639   -0.4556   -1.5220 H   0  0  0  0  0  0  0  0  0  0  0  0
    1.8257   -1.8050    2.3454 H   0  0  0  0  0  0  0  0  0  0  0  0
  1  2  1  0
  2  3  1  0
  3  4  1  0
  4  5  1  0
  5  6  1  6
  6  7  1  0
  7  8  1  0
  8  9  1  0
  7 10  1  0
 10 11  2  0
 10 12  1  0
 12 13  1  0
 13 14  2  0
  5  2  1  0
  9  7  1  0
 13  5  1  0
  1 15  1  0
  1 16  1  0
  1 17  1  0
  2 18  1  1
  3 19  1  0
  4 20  1  0
  4 21  1  0
  6 22  1  0
  8 23  1  0
  8 24  1  0
  9 25  1  0
  9 26  1  0
 12 27  1  0
M  END
$$$$

     RDKit          3D

 27 29  0  0  0  0  0  0  0  0999 V2000
    2.2850   -0.0488   -1.5141 C   0  0  0  0  0  0  0  0  0  0  0  0
    1.6594    0.8376   -0.4847 C   0  0  2  0  0  0  0  0  0  0  0  0
    2.5080    0.8984    0.7005 N   0  0  0  0  0  0  0  0  0  0  0  0
    1.8233   -0.2904    1.1848 C   0  0  0  0  0  0  0  0  0  0  0  0
    0.6155    0.1565    0.3623 C   0  0  2  0  0  0  0  0  0  0  0  0
   -0.1205   -0.8940   -0.2463 N   0  0  0  0  0  0  0  0  0  0  0  0
   -1.5382   -0.8392   -0.0958 C   0  0  0  0  0  0  0  0  0  0  0  0
   -2.4881   -1.2930   -1.0972 C   0  0  0  0  0  0  0  0  0  0  0  0
   -2.2371    0.1879   -1.0133 C   0  0  0  0  0  0  0  0  0  0  0  0
   -1.8671   -0.6352    1.3249 C   0  0  0  0  0  0  0  0  0  0  0  0
   -2.5693   -1.3810    2.0275 O   0  0  0  0  0  0  0  0  0  0  0  0
   -1.2952    0.5522    1.8966 N   0  0  0  0  0  0  0  0  0  0  0  0
   -0.1899    1.0962    1.1803 C   0  0  0  0  0  0  0  0  0  0  0  0
    0.0551    2.3247    1.2673 O   0  0  0  0  0  0  0  0  0  0  0  0
    2.7426   -0.9560   -1.0723 H   0  0  0  0  0  0  0  0  0  0  0  0
    1.6267   -0.2839   -2.3657 H   0  0  0  0  0  0  0  0  0  0  0  0
    3.1482    0.5266   -1.9554 H   0  0  0  0  0  0  0  0  0  0  0  0
    1.3596    1.8099   -0.8999 H   0  0  0  0  0  0  0  0  0  0  0  0
    2.3738    1.7442    1.2821 H   0  0  0  0  0  0  0  0  0  0  0  0
    2.2627   -1.2425    0.8897 H   0  0  0  0  0  0  0  0  0  0  0  0
    1.6518   -0.2200    2.2921 H   0  0  0  0  0  0  0  0  0  0  0  0
    0.0991   -1.0433   -1.2464 H   0  0  0  0  0  0  0  0  0  0  0  0
   -3.4767   -1.6844   -0.8025 H   0  0  0  0  0  0  0  0  0  0  0  0
   -2.0859   -1.7674   -2.0110 H   0  0  0  0  0  0  0  0  0  0  0  0
   -1.6142    0.6923   -1.7672 H   0  0  0  0  0  0  0  0  0  0  0  0
   -3.0638    0.7683   -0.6101 H   0  0  0  0  0  0  0  0  0  0  0  0
   -1.6647    0.9840    2.7740 H   0  0  0  0  0  0  0  0  0  0  0  0
  1  2  1  0
  2  3  1  0
  3  4  1  0
  4  5  1  0
  5  6  1  6
  6  7  1  0
  7  8  1  0
  8  9  1  0
  7 10  1  0
 10 11  2  0
 10 12  1  0
 12 13  1  0
 13 14  2  0
  5  2  1  0
  9  7  1  0
 13  5  1  0
  1 15  1  0
  1 16  1  0
  1 17  1  0
  2 18  1  6
  3 19  1  0
  4 20  1  0
  4 21  1  0
  6 22  1  0
  8 23  1  0
  8 24  1  0
  9 25  1  0
  9 26  1  0
 12 27  1  0
M  END
$$$$

     RDKit          3D

 27 29  0  0  0  0  0  0  0  0999 V2000
    1.9692    1.3010    0.5814 C   0  0  0  0  0  0  0  0  0  0  0  0
    1.6847   -0.1610    0.5150 C   0  0  2  0  0  0  0  0  0  0  0  0
    2.6376   -0.8012   -0.4085 N   0  0  0  0  0  0  0  0  0  0  0  0
    1.7041   -0.4526   -1.4720 C   0  0  0  0  0  0  0  0  0  0  0  0
    0.6016   -0.6003   -0.4278 C   0  0  2  0  0  0  0  0  0  0  0  0
   -0.4629    0.2734   -0.6844 N   0  0  0  0  0  0  0  0  0  0  0  0
   -1.5751    0.2488    0.1734 C   0  0  0  0  0  0  0  0  0  0  0  0
   -2.0342    1.4630    0.8630 C   0  0  0  0  0  0  0  0  0  0  0  0
   -2.8100    1.0022   -0.3668 C   0  0  0  0  0  0  0  0  0  0  0  0
   -1.8891   -1.0957    0.6557 C   0  0  0  0  0  0  0  0  0  0  0  0
   -2.9385   -1.3056    1.3177 O   0  0  0  0  0  0  0  0  0  0  0  0
   -1.0510   -2.2353    0.4169 N   0  0  0  0  0  0  0  0  0  0  0  0
    0.2025   -1.9772   -0.1888 C   0  0  0  0  0  0  0  0  0  0  0  0
    0.9483   -2.9272   -0.5099 O   0  0  0  0  0  0  0  0  0  0  0  0
    2.0845    1.5706    1.6712 H   0  0  0  0  0  0  0  0  0  0  0  0
    2.9651    1.5694    0.1248 H   0  0  0  0  0  0  0  0  0  0  0  0
    1.2048    1.9513    0.1609 H   0  0  0  0  0  0  0  0  0  0  0  0
    1.7334   -0.7154    1.4835 H   0  0  0  0  0  0  0  0  0  0  0  0
    3.5574   -0.3271   -0.4516 H   0  0  0  0  0  0  0  0  0  0  0  0
    1.6462   -1.1727   -2.3025 H   0  0  0  0  0  0  0  0  0  0  0  0
    1.8465    0.6049   -1.7413 H   0  0  0  0  0  0  0  0  0  0  0  0
   -0.3043    1.0925   -1.2559 H   0  0  0  0  0  0  0  0  0  0  0  0
   -2.4753    1.3551    1.8542 H   0  0  0  0  0  0  0  0  0  0  0  0
   -1.3800    2.3734    0.7270 H   0  0  0  0  0  0  0  0  0  0  0  0
   -3.8033    0.6047   -0.1129 H   0  0  0  0  0  0  0  0  0  0  0  0
   -2.6987    1.5631   -1.3041 H   0  0  0  0  0  0  0  0  0  0  0  0
   -1.3634   -3.2021    0.6821 H   0  0  0  0  0  0  0  0  0  0  0  0
  1  2  1  0
  2  3  1  0
  3  4  1  0
  4  5  1  0
  5  6  1  6
  6  7  1  0
  7  8  1  0
  8  9  1  0
  7 10  1  0
 10 11  2  0
 10 12  1  0
 12 13  1  0
 13 14  2  0
  5  2  1  0
  9  7  1  0
 13  5  1  0
  1 15  1  0
  1 16  1  0
  1 17  1  0
  2 18  1  1
  3 19  1  0
  4 20  1  0
  4 21  1  0
  6 22  1  0
  8 23  1  0
  8 24  1  0
  9 25  1  0
  9 26  1  0
 12 27  1  0
M  END
$$$$

     RDKit          3D

 27 29  0  0  0  0  0  0  0  0999 V2000
   -2.6601   -0.8597    0.9991 C   0  0  0  0  0  0  0  0  0  0  0  0
   -2.1156    0.1281    0.0350 C   0  0  2  0  0  0  0  0  0  0  0  0
   -1.9626   -0.4599   -1.2898 N   0  0  0  0  0  0  0  0  0  0  0  0
   -0.7523    0.3287   -1.4345 C   0  0  0  0  0  0  0  0  0  0  0  0
   -0.6784    0.4562    0.0803 C   0  0  2  0  0  0  0  0  0  0  0  0
    0.2367   -0.4482    0.6648 N   0  0  0  0  0  0  0  0  0  0  0  0
    1.5607   -0.2940    0.1497 C   0  0  0  0  0  0  0  0  0  0  0  0
    2.2318   -1.4423   -0.4925 C   0  0  0  0  0  0  0  0  0  0  0  0
    2.7157   -1.0116    0.8239 C   0  0  0  0  0  0  0  0  0  0  0  0
    1.8818    1.1004   -0.2235 C   0  0  0  0  0  0  0  0  0  0  0  0
    2.8767    1.3702   -0.9427 O   0  0  0  0  0  0  0  0  0  0  0  0
    1.0537    2.1630    0.2363 N   0  0  0  0  0  0  0  0  0  0  0  0
   -0.3065    1.8297    0.4978 C   0  0  0  0  0  0  0  0  0  0  0  0
   -1.0837    2.6544    1.0344 O   0  0  0  0  0  0  0  0  0  0  0  0
   -2.0300   -1.7254    1.2047 H   0  0  0  0  0  0  0  0  0  0  0  0
   -2.9844   -0.3722    1.9463 H   0  0  0  0  0  0  0  0  0  0  0  0
   -3.6143   -1.2703    0.5544 H   0  0  0  0  0  0  0  0  0  0  0  0
   -2.7450    1.0283   -0.0191 H   0  0  0  0  0  0  0  0  0  0  0  0
   -2.7163   -0.1827   -1.9660 H   0  0  0  0  0  0  0  0  0  0  0  0
    0.0455   -0.2820   -1.8774 H   0  0  0  0  0  0  0  0  0  0  0  0
   -0.9289    1.3192   -1.8856 H   0  0  0  0  0  0  0  0  0  0  0  0
   -0.0658   -1.4192    0.7472 H   0  0  0  0  0  0  0  0  0  0  0  0
    2.8756   -1.3388   -1.3819 H   0  0  0  0  0  0  0  0  0  0  0  0
    1.6303   -2.3925   -0.4939 H   0  0  0  0  0  0  0  0  0  0  0  0
    2.4200   -1.5076    1.7663 H   0  0  0  0  0  0  0  0  0  0  0  0
    3.7022   -0.5097    0.8890 H   0  0  0  0  0  0  0  0  0  0  0  0
    1.4129    3.1379    0.3776 H   0  0  0  0  0  0  0  0  0  0  0  0
  1  2  1  0
  2  3  1  0
  3  4  1  0
  4  5  1  0
  5  6  1  1
  6  7  1  0
  7  8  1  0
  8  9  1  0
  7 10  1  0
 10 11  2  0
 10 12  1  0
 12 13  1  0
 13 14  2  0
  5  2  1  0
  9  7  1  0
 13  5  1  0
  1 15  1  0
  1 16  1  0
  1 17  1  0
  2 18  1  6
  3 19  1  0
  4 20  1  0
  4 21  1  0
  6 22  1  0
  8 23  1  0
  8 24  1  0
  9 25  1  0
  9 26  1  0
 12 27  1  0
M  END
$$$$

     RDKit          3D

 27 29  0  0  0  0  0  0  0  0999 V2000
    2.2095    1.1395    1.1206 C   0  0  0  0  0  0  0  0  0  0  0  0
    1.9631   -0.3027    0.7095 C   0  0  2  0  0  0  0  0  0  0  0  0
    2.7336   -0.5820   -0.4975 N   0  0  0  0  0  0  0  0  0  0  0  0
    1.6561    0.0823   -1.2391 C   0  0  0  0  0  0  0  0  0  0  0  0
    0.7175   -0.3789   -0.1415 C   0  0  2  0  0  0  0  0  0  0  0  0
   -0.2488    0.5682    0.2896 N   0  0  0  0  0  0  0  0  0  0  0  0
   -1.6094    0.3040   -0.0277 C   0  0  0  0  0  0  0  0  0  0  0  0
   -2.6691    0.2905    1.0258 C   0  0  0  0  0  0  0  0  0  0  0  0
   -2.5377    1.4868    0.1311 C   0  0  0  0  0  0  0  0  0  0  0  0
   -1.8259   -0.6369   -1.1370 C   0  0  0  0  0  0  0  0  0  0  0  0
   -2.6845   -0.4109   -2.0012 O   0  0  0  0  0  0  0  0  0  0  0  0
   -1.0062   -1.8097   -1.1670 N   0  0  0  0  0  0  0  0  0  0  0  0
    0.2154   -1.7213   -0.4390 C   0  0  0  0  0  0  0  0  0  0  0  0
    0.7872   -2.7701   -0.0969 O   0  0  0  0  0  0  0  0  0  0  0  0
    1.5143    1.8439    0.6150 H   0  0  0  0  0  0  0  0  0  0  0  0
    2.0334    1.2710    2.2148 H   0  0  0  0  0  0  0  0  0  0  0  0
    3.2334    1.4696    0.8293 H   0  0  0  0  0  0  0  0  0  0  0  0
    2.0428   -1.0419    1.5088 H   0  0  0  0  0  0  0  0  0  0  0  0
    2.8699   -1.5738   -0.7168 H   0  0  0  0  0  0  0  0  0  0  0  0
    1.8039    1.1605   -1.3223 H   0  0  0  0  0  0  0  0  0  0  0  0
    1.5078   -0.4607   -2.2051 H   0  0  0  0  0  0  0  0  0  0  0  0
   -0.1194    0.7265    1.3295 H   0  0  0  0  0  0  0  0  0  0  0  0
   -3.5574   -0.3363    0.8758 H   0  0  0  0  0  0  0  0  0  0  0  0
   -2.2774    0.3276    2.0637 H   0  0  0  0  0  0  0  0  0  0  0  0
   -3.2960    1.6319   -0.6608 H   0  0  0  0  0  0  0  0  0  0  0  0
   -2.1487    2.3867    0.6354 H   0  0  0  0  0  0  0  0  0  0  0  0
   -1.3072   -2.6636   -1.6970 H   0  0  0  0  0  0  0  0  0  0  0  0
  1  2  1  0
  2  3  1  0
  3  4  1  0
  4  5  1  0
  5  6  1  1
  6  7  1  0
  7  8  1  0
  8  9  1  0
  7 10  1  0
 10 11  2  0
 10 12  1  0
 12 13  1  0
 13 14  2  0
  5  2  1  0
  9  7  1  0
 13  5  1  0
  1 15  1  0
  1 16  1  0
  1 17  1  0
  2 18  1  1
  3 19  1  0
  4 20  1  0
  4 21  1  0
  6 22  1  0
  8 23  1  0
  8 24  1  0
  9 25  1  0
  9 26  1  0
 12 27  1  0
M  END
$$$$
