
     RDKit          3D

 25 25  0  0  0  0  0  0  0  0999 V2000
    3.0914    1.5909   -0.4839 N   0  0  0  0  0  0  0  0  0  0  0  0
    2.0943    0.6804   -0.9810 C   0  0  0  0  0  0  0  0  0  0  0  0
    1.0531    0.3859    0.0677 C   0  0  2  0  0  0  0  0  0  0  0  0
    1.7466   -0.2338    1.2537 C   0  0  0  0  0  0  0  0  0  0  0  0
    2.3894   -1.4051    0.9269 F   0  0  0  0  0  0  0  0  0  0  0  0
    0.0005   -0.4440   -0.4468 N   0  0  0  0  0  0  0  0  0  0  0  0
   -1.0099   -0.7635    0.5117 C   0  0  2  0  0  0  0  0  0  0  0  0
   -2.0815   -1.5891   -0.1693 C   0  0  0  0  0  0  0  0  0  0  0  0
   -3.2345   -0.6757   -0.3236 C   0  0  0  0  0  0  0  0  0  0  0  0
   -4.2579   -0.9641   -0.9926 O   0  0  0  0  0  0  0  0  0  0  0  0
   -2.9491    0.5140    0.3997 N   0  0  0  0  0  0  0  0  0  0  0  0
   -1.7021    0.4046    1.0829 C   0  0  0  0  0  0  0  0  0  0  0  0
   -1.2925    1.1694    1.9947 O   0  0  0  0  0  0  0  0  0  0  0  0
    2.7122    2.4239   -0.0167 H   0  0  0  0  0  0  0  0  0  0  0  0
    3.7717    1.0717    0.0825 H   0  0  0  0  0  0  0  0  0  0  0  0
    1.5622    1.0503   -1.8804 H   0  0  0  0  0  0  0  0  0  0  0  0
    2.6160   -0.2518   -1.2925 H   0  0  0  0  0  0  0  0  0  0  0  0
    0.6149    1.3448    0.3822 H   0  0  0  0  0  0  0  0  0  0  0  0
    2.5606    0.4653    1.6061 H   0  0  0  0  0  0  0  0  0  0  0  0
    1.0184   -0.3509    2.0645 H   0  0  0  0  0  0  0  0  0  0  0  0
   -0.4035   -0.0359   -1.2941 H   0  0  0  0  0  0  0  0  0  0  0  0
   -0.5763   -1.3860    1.3448 H   0  0  0  0  0  0  0  0  0  0  0  0
   -2.3731   -2.4457    0.4818 H   0  0  0  0  0  0  0  0  0  0  0  0
   -1.7731   -1.9241   -1.1784 H   0  0  0  0  0  0  0  0  0  0  0  0
   -3.5778    1.3687    0.4285 H   0  0  0  0  0  0  0  0  0  0  0  0
  1  2  1  0
  2  3  1  0
  3  4  1  0
  4  5  1  0
  3  6  1  0
  6  7  1  0
  7  8  1  0
  8  9  1  0
  9 10  2  0
  9 11  1  0
 11 12  1  0
 12 13  2  0
 12  7  1  0
  1 14  1  0
  1 15  1  0
  2 16  1  0
  2 17  1  0
  3 18  1  1
  4 19  1  0
  4 20  1  0
  6 21  1  0
  7 22  1  1
  8 23  1  0
  8 24  1  0
 11 25  1  0
M  END
$$$$

     RDKit          3D

 25 25  0  0  0  0  0  0  0  0999 V2000
   -2.4739   -1.0901    0.6127 N   0  0  0  0  0  0  0  0  0  0  0  0
   -1.5457   -0.0752    1.1410 C   0  0  0  0  0  0  0  0  0  0  0  0
   -1.1597    0.7950   -0.0194 C   0  0  2  0  0  0  0  0  0  0  0  0
   -2.3246    1.4785   -0.6972 C   0  0  0  0  0  0  0  0  0  0  0  0
   -3.0525    2.2966    0.1235 F   0  0  0  0  0  0  0  0  0  0  0  0
   -0.1621    0.2864   -0.8342 N   0  0  0  0  0  0  0  0  0  0  0  0
    1.1930    0.3053   -0.5184 C   0  0  2  0  0  0  0  0  0  0  0  0
    1.8832   -0.9243   -1.1378 C   0  0  0  0  0  0  0  0  0  0  0  0
    2.8941   -1.3077   -0.1611 C   0  0  0  0  0  0  0  0  0  0  0  0
    3.5596   -2.3918   -0.2473 O   0  0  0  0  0  0  0  0  0  0  0  0
    2.9835   -0.3054    0.8229 N   0  0  0  0  0  0  0  0  0  0  0  0
    1.7240    0.4215    0.7903 C   0  0  0  0  0  0  0  0  0  0  0  0
    1.3497    0.9875    1.8475 O   0  0  0  0  0  0  0  0  0  0  0  0
   -3.3388   -1.1877    1.1262 H   0  0  0  0  0  0  0  0  0  0  0  0
   -1.9677   -1.9913    0.3502 H   0  0  0  0  0  0  0  0  0  0  0  0
   -0.6626   -0.5692    1.5838 H   0  0  0  0  0  0  0  0  0  0  0  0
   -2.0296    0.5661    1.9252 H   0  0  0  0  0  0  0  0  0  0  0  0
   -0.6665    1.7202    0.5707 H   0  0  0  0  0  0  0  0  0  0  0  0
   -3.0091    0.7325   -1.1689 H   0  0  0  0  0  0  0  0  0  0  0  0
   -1.8604    2.1167   -1.5292 H   0  0  0  0  0  0  0  0  0  0  0  0
   -0.4150   -0.5241   -1.4464 H   0  0  0  0  0  0  0  0  0  0  0  0
    1.6770    1.1861   -1.1956 H   0  0  0  0  0  0  0  0  0  0  0  0
    1.2035   -1.7540   -1.3264 H   0  0  0  0  0  0  0  0  0  0  0  0
    2.4232   -0.6772   -2.0771 H   0  0  0  0  0  0  0  0  0  0  0  0
    3.7772   -0.0944    1.4649 H   0  0  0  0  0  0  0  0  0  0  0  0
  1  2  1  0
  2  3  1  0
  3  4  1  0
  4  5  1  0
  3  6  1  0
  6  7  1  0
  7  8  1  0
  8  9  1  0
  9 10  2  0
  9 11  1  0
 11 12  1  0
 12 13  2  0
 12  7  1  0
  1 14  1  0
  1 15  1  0
  2 16  1  0
  2 17  1  0
  3 18  1  1
  4 19  1  0
  4 20  1  0
  6 21  1  0
  7 22  1  6
  8 23  1  0
  8 24  1  0
 11 25  1  0
M  END
$$$$

     RDKit          3D

 25 25  0  0  0  0  0  0  0  0999 V2000
   -3.2394    0.6492    0.8306 N   0  0  0  0  0  0  0  0  0  0  0  0
   -1.7698    0.7497    0.7831 C   0  0  0  0  0  0  0  0  0  0  0  0
   -1.3307    0.1776   -0.5337 C   0  0  2  0  0  0  0  0  0  0  0  0
   -1.7638   -1.2521   -0.6198 C   0  0  0  0  0  0  0  0  0  0  0  0
   -1.2564   -2.0513    0.3662 F   0  0  0  0  0  0  0  0  0  0  0  0
    0.0056    0.4604   -0.8958 N   0  0  0  0  0  0  0  0  0  0  0  0
    1.0444   -0.0151   -0.0666 C   0  0  2  0  0  0  0  0  0  0  0  0
    2.2295    0.9645   -0.2029 C   0  0  0  0  0  0  0  0  0  0  0  0
    3.3265    0.1688    0.4131 C   0  0  0  0  0  0  0  0  0  0  0  0
    4.3178    0.6191    1.0197 O   0  0  0  0  0  0  0  0  0  0  0  0
    2.9908   -1.2092    0.1548 N   0  0  0  0  0  0  0  0  0  0  0  0
    1.7213   -1.2600   -0.5010 C   0  0  0  0  0  0  0  0  0  0  0  0
    1.3375   -2.1721   -1.2531 O   0  0  0  0  0  0  0  0  0  0  0  0
   -3.5925    0.8720    1.7899 H   0  0  0  0  0  0  0  0  0  0  0  0
   -3.6277    1.3541    0.1597 H   0  0  0  0  0  0  0  0  0  0  0  0
   -1.4468    1.7641    0.9957 H   0  0  0  0  0  0  0  0  0  0  0  0
   -1.4545    0.0476    1.6133 H   0  0  0  0  0  0  0  0  0  0  0  0
   -1.9776    0.7173   -1.3078 H   0  0  0  0  0  0  0  0  0  0  0  0
   -1.6057   -1.6738   -1.6369 H   0  0  0  0  0  0  0  0  0  0  0  0
   -2.8782   -1.2595   -0.4705 H   0  0  0  0  0  0  0  0  0  0  0  0
    0.1220    1.4691   -1.0874 H   0  0  0  0  0  0  0  0  0  0  0  0
    0.7947   -0.0480    1.0155 H   0  0  0  0  0  0  0  0  0  0  0  0
    2.0329    1.9128    0.2893 H   0  0  0  0  0  0  0  0  0  0  0  0
    2.4261    1.0479   -1.2798 H   0  0  0  0  0  0  0  0  0  0  0  0
    3.5938   -2.0329    0.4242 H   0  0  0  0  0  0  0  0  0  0  0  0
  1  2  1  0
  2  3  1  0
  3  4  1  0
  4  5  1  0
  3  6  1  0
  6  7  1  0
  7  8  1  0
  8  9  1  0
  9 10  2  0
  9 11  1  0
 11 12  1  0
 12 13  2  0
 12  7  1  0
  1 14  1  0
  1 15  1  0
  2 16  1  0
  2 17  1  0
  3 18  1  6
  4 19  1  0
  4 20  1  0
  6 21  1  0
  7 22  1  1
  8 23  1  0
  8 24  1  0
 11 25  1  0
M  END
$$$$

     RDKit          3D

 25 25  0  0  0  0  0  0  0  0999 V2000
   -2.5942   -0.7595   -0.7585 N   0  0  0  0  0  0  0  0  0  0  0  0
   -1.8453   -1.0252    0.4589 C   0  0  0  0  0  0  0  0  0  0  0  0
   -0.9682    0.1274    0.8515 C   0  0  2  0  0  0  0  0  0  0  0  0
   -1.8157    1.3586    1.0855 C   0  0  0  0  0  0  0  0  0  0  0  0
   -1.0087    2.4439    1.4540 F   0  0  0  0  0  0  0  0  0  0  0  0
   -0.0367    0.3989   -0.1648 N   0  0  0  0  0  0  0  0  0  0  0  0
    0.9166   -0.5969   -0.4774 C   0  0  2  0  0  0  0  0  0  0  0  0
    1.8467   -0.9353    0.6686 C   0  0  0  0  0  0  0  0  0  0  0  0
    2.7005    0.2989    0.7862 C   0  0  0  0  0  0  0  0  0  0  0  0
    3.2137    0.7755    1.8041 O   0  0  0  0  0  0  0  0  0  0  0  0
    2.7987    0.8199   -0.5416 N   0  0  0  0  0  0  0  0  0  0  0  0
    1.9270    0.0466   -1.3972 C   0  0  0  0  0  0  0  0  0  0  0  0
    2.0043   -0.0578   -2.6142 O   0  0  0  0  0  0  0  0  0  0  0  0
   -3.5555   -0.4084   -0.5904 H   0  0  0  0  0  0  0  0  0  0  0  0
   -2.0413   -0.2270   -1.4644 H   0  0  0  0  0  0  0  0  0  0  0  0
   -1.2201   -1.9263    0.2574 H   0  0  0  0  0  0  0  0  0  0  0  0
   -2.5804   -1.2969    1.2440 H   0  0  0  0  0  0  0  0  0  0  0  0
   -0.4435   -0.1617    1.7815 H   0  0  0  0  0  0  0  0  0  0  0  0
   -2.3331    1.6828    0.1627 H   0  0  0  0  0  0  0  0  0  0  0  0
   -2.5120    1.2176    1.9474 H   0  0  0  0  0  0  0  0  0  0  0  0
   -0.3004    1.0592   -0.8888 H   0  0  0  0  0  0  0  0  0  0  0  0
    0.5564   -1.4917   -0.9806 H   0  0  0  0  0  0  0  0  0  0  0  0
    1.3591   -1.2270    1.5905 H   0  0  0  0  0  0  0  0  0  0  0  0
    2.5204   -1.7388    0.3168 H   0  0  0  0  0  0  0  0  0  0  0  0
    3.4117    1.6231   -0.7978 H   0  0  0  0  0  0  0  0  0  0  0  0
  1  2  1  0
  2  3  1  0
  3  4  1  0
  4  5  1  0
  3  6  1  0
  6  7  1  0
  7  8  1  0
  8  9  1  0
  9 10  2  0
  9 11  1  0
 11 12  1  0
 12 13  2  0
 12  7  1  0
  1 14  1  0
  1 15  1  0
  2 16  1  0
  2 17  1  0
  3 18  1  1
  4 19  1  0
  4 20  1  0
  6 21  1  0
  7 22  1  6
  8 23  1  0
  8 24  1  0
 11 25  1  0
M  END
$$$$

     RDKit          3D

 25 25  0  0  0  0  0  0  0  0999 V2000
   -3.0149    0.8296    0.1702 N   0  0  0  0  0  0  0  0  0  0  0  0
   -1.6945    0.3323    0.5438 C   0  0  0  0  0  0  0  0  0  0  0  0
   -1.1032   -0.4511   -0.5969 C   0  0  2  0  0  0  0  0  0  0  0  0
   -2.0747   -1.6235   -0.8961 C   0  0  0  0  0  0  0  0  0  0  0  0
   -3.3040   -1.1493   -1.2402 F   0  0  0  0  0  0  0  0  0  0  0  0
    0.1510   -1.0062   -0.4412 N   0  0  0  0  0  0  0  0  0  0  0  0
    1.3428   -0.3768   -0.2635 C   0  0  2  0  0  0  0  0  0  0  0  0
    1.6288    0.4692    0.9415 C   0  0  0  0  0  0  0  0  0  0  0  0
    3.0975    0.7501    0.6329 C   0  0  0  0  0  0  0  0  0  0  0  0
    4.0287    0.6773    1.4255 O   0  0  0  0  0  0  0  0  0  0  0  0
    3.0365    1.0969   -0.7632 N   0  0  0  0  0  0  0  0  0  0  0  0
    1.8482    0.5228   -1.3316 C   0  0  0  0  0  0  0  0  0  0  0  0
    1.4376    0.7967   -2.4725 O   0  0  0  0  0  0  0  0  0  0  0  0
   -3.2676    1.5977    0.8216 H   0  0  0  0  0  0  0  0  0  0  0  0
   -3.0673    1.1033   -0.8318 H   0  0  0  0  0  0  0  0  0  0  0  0
   -1.0425    1.1713    0.7731 H   0  0  0  0  0  0  0  0  0  0  0  0
   -1.8602   -0.3720    1.3896 H   0  0  0  0  0  0  0  0  0  0  0  0
   -1.2258    0.1963   -1.5243 H   0  0  0  0  0  0  0  0  0  0  0  0
   -1.6203   -2.2586   -1.6842 H   0  0  0  0  0  0  0  0  0  0  0  0
   -2.1556   -2.2221    0.0321 H   0  0  0  0  0  0  0  0  0  0  0  0
    0.1832   -2.0061   -0.7908 H   0  0  0  0  0  0  0  0  0  0  0  0
    2.1632   -1.1919   -0.2147 H   0  0  0  0  0  0  0  0  0  0  0  0
    1.5375   -0.0506    1.9052 H   0  0  0  0  0  0  0  0  0  0  0  0
    1.2008    1.4841    0.9256 H   0  0  0  0  0  0  0  0  0  0  0  0
    3.7748    1.6802   -1.2354 H   0  0  0  0  0  0  0  0  0  0  0  0
  1  2  1  0
  2  3  1  0
  3  4  1  0
  4  5  1  0
  3  6  1  0
  6  7  1  0
  7  8  1  0
  8  9  1  0
  9 10  2  0
  9 11  1  0
 11 12  1  0
 12 13  2  0
 12  7  1  0
  1 14  1  0
  1 15  1  0
  2 16  1  0
  2 17  1  0
  3 18  1  6
  4 19  1  0
  4 20  1  0
  6 21  1  0
  7 22  1  1
  8 23  1  0
  8 24  1  0
 11 25  1  0
M  END
$$$$

     RDKit          3D

 25 25  0  0  0  0  0  0  0  0999 V2000
    2.0247   -1.8157   -0.1888 N   0  0  0  0  0  0  0  0  0  0  0  0
    1.9455   -0.7016    0.7322 C   0  0  0  0  0  0  0  0  0  0  0  0
    1.5540    0.5470    0.0226 C   0  0  2  0  0  0  0  0  0  0  0  0
    1.4930    1.7688    0.9314 C   0  0  0  0  0  0  0  0  0  0  0  0
    1.1103    2.8209    0.1034 F   0  0  0  0  0  0  0  0  0  0  0  0
    0.2726    0.3830   -0.6214 N   0  0  0  0  0  0  0  0  0  0  0  0
   -0.8449    0.1444    0.2003 C   0  0  2  0  0  0  0  0  0  0  0  0
   -1.4827   -1.1915   -0.1444 C   0  0  0  0  0  0  0  0  0  0  0  0
   -2.9570   -0.8801   -0.2009 C   0  0  0  0  0  0  0  0  0  0  0  0
   -3.8420   -1.7252   -0.0886 O   0  0  0  0  0  0  0  0  0  0  0  0
   -3.1094    0.5099   -0.3995 N   0  0  0  0  0  0  0  0  0  0  0  0
   -1.9203    1.1345    0.1517 C   0  0  0  0  0  0  0  0  0  0  0  0
   -1.9299    2.3397    0.4944 O   0  0  0  0  0  0  0  0  0  0  0  0
    2.8493   -1.7197   -0.8415 H   0  0  0  0  0  0  0  0  0  0  0  0
    1.9420   -2.7439    0.2621 H   0  0  0  0  0  0  0  0  0  0  0  0
    1.2216   -0.9743    1.5170 H   0  0  0  0  0  0  0  0  0  0  0  0
    2.9587   -0.6386    1.2070 H   0  0  0  0  0  0  0  0  0  0  0  0
    2.2889    0.7869   -0.7631 H   0  0  0  0  0  0  0  0  0  0  0  0
    2.4536    1.9604    1.3766 H   0  0  0  0  0  0  0  0  0  0  0  0
    0.7344    1.5803    1.7067 H   0  0  0  0  0  0  0  0  0  0  0  0
    0.1684    0.8140   -1.5356 H   0  0  0  0  0  0  0  0  0  0  0  0
   -0.5118    0.0571    1.2858 H   0  0  0  0  0  0  0  0  0  0  0  0
   -1.2841   -1.9617    0.6102 H   0  0  0  0  0  0  0  0  0  0  0  0
   -1.2270   -1.4926   -1.1613 H   0  0  0  0  0  0  0  0  0  0  0  0
   -3.9079    0.9980   -0.8586 H   0  0  0  0  0  0  0  0  0  0  0  0
  1  2  1  0
  2  3  1  0
  3  4  1  0
  4  5  1  0
  3  6  1  0
  6  7  1  0
  7  8  1  0
  8  9  1  0
  9 10  2  0
  9 11  1  0
 11 12  1  0
 12 13  2  0
 12  7  1  0
  1 14  1  0
  1 15  1  0
  2 16  1  0
  2 17  1  0
  3 18  1  6
  4 19  1  0
  4 20  1  0
  6 21  1  0
  7 22  1  1
  8 23  1  0
  8 24  1  0
 11 25  1  0
M  END
$$$$

     RDKit          3D

 25 25  0  0  0  0  0  0  0  0999 V2000
    1.5269    0.5881   -1.6443 N   0  0  0  0  0  0  0  0  0  0  0  0
    2.0718    0.2985   -0.3601 C   0  0  0  0  0  0  0  0  0  0  0  0
    1.1367    0.0307    0.7529 C   0  0  2  0  0  0  0  0  0  0  0  0
    2.0059   -0.2380    1.9920 C   0  0  0  0  0  0  0  0  0  0  0  0
    2.7564    0.9026    2.1940 F   0  0  0  0  0  0  0  0  0  0  0  0
    0.1026   -0.9132    0.5865 N   0  0  0  0  0  0  0  0  0  0  0  0
   -0.8604   -0.5279   -0.3784 C   0  0  2  0  0  0  0  0  0  0  0  0
   -1.5703    0.7644   -0.0087 C   0  0  0  0  0  0  0  0  0  0  0  0
   -2.7879    0.6915   -0.8392 C   0  0  0  0  0  0  0  0  0  0  0  0
   -3.4590    1.6325   -1.3384 O   0  0  0  0  0  0  0  0  0  0  0  0
   -3.0816   -0.6943   -0.9832 N   0  0  0  0  0  0  0  0  0  0  0  0
   -2.0405   -1.4668   -0.4046 C   0  0  0  0  0  0  0  0  0  0  0  0
   -2.1488   -2.6461   -0.0271 O   0  0  0  0  0  0  0  0  0  0  0  0
    1.9376   -0.0977   -2.3360 H   0  0  0  0  0  0  0  0  0  0  0  0
    1.7593    1.5512   -1.9264 H   0  0  0  0  0  0  0  0  0  0  0  0
    2.6785    1.2079   -0.0364 H   0  0  0  0  0  0  0  0  0  0  0  0
    2.8570   -0.5036   -0.4085 H   0  0  0  0  0  0  0  0  0  0  0  0
    0.6751    1.0500    1.0072 H   0  0  0  0  0  0  0  0  0  0  0  0
    1.3620   -0.4109    2.8965 H   0  0  0  0  0  0  0  0  0  0  0  0
    2.6660   -1.0836    1.7961 H   0  0  0  0  0  0  0  0  0  0  0  0
   -0.3636   -1.0511    1.5116 H   0  0  0  0  0  0  0  0  0  0  0  0
   -0.4625   -0.4637   -1.3734 H   0  0  0  0  0  0  0  0  0  0  0  0
   -0.9641    1.6523   -0.2940 H   0  0  0  0  0  0  0  0  0  0  0  0
   -1.8371    0.7667    1.0744 H   0  0  0  0  0  0  0  0  0  0  0  0
   -3.9599   -1.0394   -1.4528 H   0  0  0  0  0  0  0  0  0  0  0  0
  1  2  1  0
  2  3  1  0
  3  4  1  0
  4  5  1  0
  3  6  1  0
  6  7  1  0
  7  8  1  0
  8  9  1  0
  9 10  2  0
  9 11  1  0
 11 12  1  0
 12 13  2  0
 12  7  1  0
  1 14  1  0
  1 15  1  0
  2 16  1  0
  2 17  1  0
  3 18  1  1
  4 19  1  0
  4 20  1  0
  6 21  1  0
  7 22  1  6
  8 23  1  0
  8 24  1  0
 11 25  1  0
M  END
$$$$

     RDKit          3D

 25 25  0  0  0  0  0  0  0  0999 V2000
   -1.7346    0.3962   -1.7523 N   0  0  0  0  0  0  0  0  0  0  0  0
   -2.1548   -0.2102   -0.5310 C   0  0  0  0  0  0  0  0  0  0  0  0
   -1.0760   -0.7286    0.3563 C   0  0  2  0  0  0  0  0  0  0  0  0
   -1.7473   -1.3298    1.6019 C   0  0  0  0  0  0  0  0  0  0  0  0
   -2.5929   -2.3515    1.2432 F   0  0  0  0  0  0  0  0  0  0  0  0
   -0.0972    0.1850    0.7926 N   0  0  0  0  0  0  0  0  0  0  0  0
    0.7624    0.7912   -0.1615 C   0  0  2  0  0  0  0  0  0  0  0  0
    1.6507   -0.1897   -0.9033 C   0  0  0  0  0  0  0  0  0  0  0  0
    3.0081   -0.0286   -0.3066 C   0  0  0  0  0  0  0  0  0  0  0  0
    3.9238   -0.8742   -0.4295 O   0  0  0  0  0  0  0  0  0  0  0  0
    3.0396    1.2098    0.3863 N   0  0  0  0  0  0  0  0  0  0  0  0
    1.7208    1.6527    0.6124 C   0  0  0  0  0  0  0  0  0  0  0  0
    1.3349    2.6043    1.3295 O   0  0  0  0  0  0  0  0  0  0  0  0
   -2.1950   -0.0866   -2.5642 H   0  0  0  0  0  0  0  0  0  0  0  0
   -1.9305    1.4345   -1.7858 H   0  0  0  0  0  0  0  0  0  0  0  0
   -2.8472   -1.0692   -0.7994 H   0  0  0  0  0  0  0  0  0  0  0  0
   -2.8579    0.4758    0.0402 H   0  0  0  0  0  0  0  0  0  0  0  0
   -0.5712   -1.5859   -0.1627 H   0  0  0  0  0  0  0  0  0  0  0  0
   -2.3361   -0.5316    2.0712 H   0  0  0  0  0  0  0  0  0  0  0  0
   -0.9320   -1.6904    2.2895 H   0  0  0  0  0  0  0  0  0  0  0  0
    0.4341   -0.1071    1.6266 H   0  0  0  0  0  0  0  0  0  0  0  0
    0.2468    1.4278   -0.8876 H   0  0  0  0  0  0  0  0  0  0  0  0
    1.7312    0.1264   -1.9691 H   0  0  0  0  0  0  0  0  0  0  0  0
    1.3219   -1.2368   -0.7794 H   0  0  0  0  0  0  0  0  0  0  0  0
    3.8984    1.7165    0.6828 H   0  0  0  0  0  0  0  0  0  0  0  0
  1  2  1  0
  2  3  1  0
  3  4  1  0
  4  5  1  0
  3  6  1  0
  6  7  1  0
  7  8  1  0
  8  9  1  0
  9 10  2  0
  9 11  1  0
 11 12  1  0
 12 13  2  0
 12  7  1  0
  1 14  1  0
  1 15  1  0
  2 16  1  0
  2 17  1  0
  3 18  1  6
  4 19  1  0
  4 20  1  0
  6 21  1  0
  7 22  1  6
  8 23  1  0
  8 24  1  0
 11 25  1  0
M  END
$$$$
