
     RDKit          3D

 25 26  0  0  0  0  0  0  0  0999 V2000
    3.4706    0.7999   -0.1772 C   0  0  0  0  0  0  0  0  0  0  0  0
    3.0213   -0.4490   -0.5355 O   0  0  0  0  0  0  0  0  0  0  0  0
    1.7506   -0.4783   -1.0648 C   0  0  0  0  0  0  0  0  0  0  0  0
    0.6822    0.0435   -0.1238 C   0  0  1  0  0  0  0  0  0  0  0  0
   -0.5699   -0.0520   -0.8101 N   0  0  0  0  0  0  0  0  0  0  0  0
   -1.7332    0.0779   -0.0284 C   0  0  0  0  0  0  0  0  0  0  0  0
   -2.8287    1.0696   -0.4029 C   0  0  0  0  0  0  0  0  0  0  0  0
   -3.0163   -0.3853   -0.7399 C   0  0  0  0  0  0  0  0  0  0  0  0
   -1.6066   -0.2895    1.3841 C   0  0  0  0  0  0  0  0  0  0  0  0
   -2.6104   -0.1898    2.1355 O   0  0  0  0  0  0  0  0  0  0  0  0
   -0.3942   -0.7593    1.9604 N   0  0  0  0  0  0  0  0  0  0  0  0
    0.7632   -0.7016    1.1290 C   0  0  0  0  0  0  0  0  0  0  0  0
    1.7949   -1.2839    1.4970 O   0  0  0  0  0  0  0  0  0  0  0  0
    2.8526    1.3051    0.5919 H   0  0  0  0  0  0  0  0  0  0  0  0
    3.5195    1.4817   -1.0743 H   0  0  0  0  0  0  0  0  0  0  0  0
    4.4964    0.6837    0.2387 H   0  0  0  0  0  0  0  0  0  0  0  0
    1.6870    0.0116   -2.0620 H   0  0  0  0  0  0  0  0  0  0  0  0
    1.5056   -1.5570   -1.2472 H   0  0  0  0  0  0  0  0  0  0  0  0
    0.9025    1.1378    0.0360 H   0  0  0  0  0  0  0  0  0  0  0  0
   -0.5931   -0.9319   -1.3801 H   0  0  0  0  0  0  0  0  0  0  0  0
   -3.4692    1.4240    0.4339 H   0  0  0  0  0  0  0  0  0  0  0  0
   -2.6007    1.7872   -1.2130 H   0  0  0  0  0  0  0  0  0  0  0  0
   -3.7254   -1.0014   -0.1591 H   0  0  0  0  0  0  0  0  0  0  0  0
   -2.9701   -0.6130   -1.8071 H   0  0  0  0  0  0  0  0  0  0  0  0
   -0.3286   -1.1298    2.9338 H   0  0  0  0  0  0  0  0  0  0  0  0
  1  2  1  0
  2  3  1  0
  3  4  1  0
  4  5  1  0
  5  6  1  0
  6  7  1  0
  7  8  1  0
  6  9  1  0
  9 10  2  0
  9 11  1  0
 11 12  1  0
 12 13  2  0
 12  4  1  0
  8  6  1  0
  1 14  1  0
  1 15  1  0
  1 16  1  0
  3 17  1  0
  3 18  1  0
  4 19  1  1
  5 20  1  0
  7 21  1  0
  7 22  1  0
  8 23  1  0
  8 24  1  0
 11 25  1  0
M  END
$$$$

     RDKit          3D

 25 26  0  0  0  0  0  0  0  0999 V2000
    3.6227    0.1148   -0.6648 C   0  0  0  0  0  0  0  0  0  0  0  0
    2.2754   -0.2114   -0.5023 O   0  0  0  0  0  0  0  0  0  0  0  0
    1.8553    0.4132    0.6885 C   0  0  0  0  0  0  0  0  0  0  0  0
    0.3758    0.0966    0.9320 C   0  0  1  0  0  0  0  0  0  0  0  0
   -0.3576    0.5981   -0.1809 N   0  0  0  0  0  0  0  0  0  0  0  0
   -1.7460    0.2924   -0.1869 C   0  0  0  0  0  0  0  0  0  0  0  0
   -2.8061    1.3230   -0.1165 C   0  0  0  0  0  0  0  0  0  0  0  0
   -2.4791    0.7495   -1.4428 C   0  0  0  0  0  0  0  0  0  0  0  0
   -2.0541   -1.0825    0.2635 C   0  0  0  0  0  0  0  0  0  0  0  0
   -3.2513   -1.4644    0.2513 O   0  0  0  0  0  0  0  0  0  0  0  0
   -1.0131   -1.9468    0.6991 N   0  0  0  0  0  0  0  0  0  0  0  0
    0.2596   -1.3954    0.9909 C   0  0  0  0  0  0  0  0  0  0  0  0
    1.2080   -2.1488    1.2773 O   0  0  0  0  0  0  0  0  0  0  0  0
    4.0256   -0.3520   -1.5992 H   0  0  0  0  0  0  0  0  0  0  0  0
    4.2303   -0.3316    0.1632 H   0  0  0  0  0  0  0  0  0  0  0  0
    3.8060    1.2000   -0.6894 H   0  0  0  0  0  0  0  0  0  0  0  0
    1.9933    1.5134    0.6255 H   0  0  0  0  0  0  0  0  0  0  0  0
    2.4610    0.0107    1.5333 H   0  0  0  0  0  0  0  0  0  0  0  0
    0.1130    0.5468    1.8951 H   0  0  0  0  0  0  0  0  0  0  0  0
    0.0713    0.2204   -1.0549 H   0  0  0  0  0  0  0  0  0  0  0  0
   -3.7714    1.0141    0.3366 H   0  0  0  0  0  0  0  0  0  0  0  0
   -2.5660    2.3970    0.0549 H   0  0  0  0  0  0  0  0  0  0  0  0
   -3.1384    0.0082   -1.9318 H   0  0  0  0  0  0  0  0  0  0  0  0
   -1.9568    1.4062   -2.1517 H   0  0  0  0  0  0  0  0  0  0  0  0
   -1.1575   -2.9717    0.8102 H   0  0  0  0  0  0  0  0  0  0  0  0
  1  2  1  0
  2  3  1  0
  3  4  1  0
  4  5  1  0
  5  6  1  0
  6  7  1  0
  7  8  1  0
  6  9  1  0
  9 10  2  0
  9 11  1  0
 11 12  1  0
 12 13  2  0
 12  4  1  0
  8  6  1  0
  1 14  1  0
  1 15  1  0
  1 16  1  0
  3 17  1  0
  3 18  1  0
  4 19  1  1
  5 20  1  0
  7 21  1  0
  7 22  1  0
  8 23  1  0
  8 24  1  0
 11 25  1  0
M  END
$$$$

     RDKit          3D

 25 26  0  0  0  0  0  0  0  0999 V2000
    3.9996   -0.1150   -0.0119 C   0  0  0  0  0  0  0  0  0  0  0  0
    2.8350    0.5294    0.4351 O   0  0  0  0  0  0  0  0  0  0  0  0
    1.7915    0.0242   -0.3354 C   0  0  0  0  0  0  0  0  0  0  0  0
    0.4610    0.6482    0.0540 C   0  0  1  0  0  0  0  0  0  0  0  0
   -0.5466    0.1088   -0.7457 N   0  0  0  0  0  0  0  0  0  0  0  0
   -1.8474   -0.0264   -0.2363 C   0  0  0  0  0  0  0  0  0  0  0  0
   -2.9583    0.6250   -0.9696 C   0  0  0  0  0  0  0  0  0  0  0  0
   -2.7947   -0.8502   -1.1195 C   0  0  0  0  0  0  0  0  0  0  0  0
   -1.9470   -0.3458    1.1980 C   0  0  0  0  0  0  0  0  0  0  0  0
   -2.9630   -0.9008    1.6915 O   0  0  0  0  0  0  0  0  0  0  0  0
   -0.8799   -0.0302    2.0783 N   0  0  0  0  0  0  0  0  0  0  0  0
    0.2745    0.5592    1.5081 C   0  0  0  0  0  0  0  0  0  0  0  0
    1.1764    1.0251    2.2523 O   0  0  0  0  0  0  0  0  0  0  0  0
    4.0870    0.1556   -1.1023 H   0  0  0  0  0  0  0  0  0  0  0  0
    4.8732    0.2198    0.5611 H   0  0  0  0  0  0  0  0  0  0  0  0
    3.8601   -1.2295    0.0363 H   0  0  0  0  0  0  0  0  0  0  0  0
    1.9326    0.2639   -1.4234 H   0  0  0  0  0  0  0  0  0  0  0  0
    1.6996   -1.0721   -0.2686 H   0  0  0  0  0  0  0  0  0  0  0  0
    0.5722    1.7460   -0.1870 H   0  0  0  0  0  0  0  0  0  0  0  0
   -0.2735   -0.4944   -1.5255 H   0  0  0  0  0  0  0  0  0  0  0  0
   -2.6754    1.2168   -1.8820 H   0  0  0  0  0  0  0  0  0  0  0  0
   -3.8510    0.9713   -0.4532 H   0  0  0  0  0  0  0  0  0  0  0  0
   -2.3873   -1.2912   -2.0483 H   0  0  0  0  0  0  0  0  0  0  0  0
   -3.5195   -1.5229   -0.6145 H   0  0  0  0  0  0  0  0  0  0  0  0
   -0.9191   -0.2149    3.1086 H   0  0  0  0  0  0  0  0  0  0  0  0
  1  2  1  0
  2  3  1  0
  3  4  1  0
  4  5  1  0
  5  6  1  0
  6  7  1  0
  7  8  1  0
  6  9  1  0
  9 10  2  0
  9 11  1  0
 11 12  1  0
 12 13  2  0
 12  4  1  0
  8  6  1  0
  1 14  1  0
  1 15  1  0
  1 16  1  0
  3 17  1  0
  3 18  1  0
  4 19  1  6
  5 20  1  0
  7 21  1  0
  7 22  1  0
  8 23  1  0
  8 24  1  0
 11 25  1  0
M  END
$$$$

     RDKit          3D

 25 26  0  0  0  0  0  0  0  0999 V2000
    3.5485    0.1441   -0.1730 C   0  0  0  0  0  0  0  0  0  0  0  0
    2.6879    0.8198   -0.9993 O   0  0  0  0  0  0  0  0  0  0  0  0
    1.5163    1.2574   -0.4029 C   0  0  0  0  0  0  0  0  0  0  0  0
    0.6934    0.1140    0.1586 C   0  0  1  0  0  0  0  0  0  0  0  0
   -0.5113    0.5398    0.7697 N   0  0  0  0  0  0  0  0  0  0  0  0
   -1.7128   -0.1094    0.3922 C   0  0  0  0  0  0  0  0  0  0  0  0
   -2.9259    0.2648    1.2128 C   0  0  0  0  0  0  0  0  0  0  0  0
   -2.8527    0.6221   -0.2068 C   0  0  0  0  0  0  0  0  0  0  0  0
   -1.5100   -1.5447    0.1801 C   0  0  0  0  0  0  0  0  0  0  0  0
   -2.2307   -2.4116    0.7238 O   0  0  0  0  0  0  0  0  0  0  0  0
   -0.4372   -1.9252   -0.6882 N   0  0  0  0  0  0  0  0  0  0  0  0
    0.5587   -0.9220   -0.8838 C   0  0  0  0  0  0  0  0  0  0  0  0
    1.2724   -0.9559   -1.9178 O   0  0  0  0  0  0  0  0  0  0  0  0
    3.8952    0.7424    0.7065 H   0  0  0  0  0  0  0  0  0  0  0  0
    4.4812   -0.0940   -0.7634 H   0  0  0  0  0  0  0  0  0  0  0  0
    3.1032   -0.8234    0.1274 H   0  0  0  0  0  0  0  0  0  0  0  0
    1.7117    2.0230    0.3895 H   0  0  0  0  0  0  0  0  0  0  0  0
    0.9094    1.7284   -1.2129 H   0  0  0  0  0  0  0  0  0  0  0  0
    1.3290   -0.3454    0.9735 H   0  0  0  0  0  0  0  0  0  0  0  0
   -0.5900    1.5295    1.0099 H   0  0  0  0  0  0  0  0  0  0  0  0
   -2.8025    1.0342    2.0167 H   0  0  0  0  0  0  0  0  0  0  0  0
   -3.6198   -0.5549    1.4882 H   0  0  0  0  0  0  0  0  0  0  0  0
   -2.6484    1.6673   -0.5267 H   0  0  0  0  0  0  0  0  0  0  0  0
   -3.4681    0.0573   -0.9436 H   0  0  0  0  0  0  0  0  0  0  0  0
   -0.3977   -2.8576   -1.1336 H   0  0  0  0  0  0  0  0  0  0  0  0
  1  2  1  0
  2  3  1  0
  3  4  1  0
  4  5  1  0
  5  6  1  0
  6  7  1  0
  7  8  1  0
  6  9  1  0
  9 10  2  0
  9 11  1  0
 11 12  1  0
 12 13  2  0
 12  4  1  0
  8  6  1  0
  1 14  1  0
  1 15  1  0
  1 16  1  0
  3 17  1  0
  3 18  1  0
  4 19  1  1
  5 20  1  0
  7 21  1  0
  7 22  1  0
  8 23  1  0
  8 24  1  0
 11 25  1  0
M  END
$$$$

     RDKit          3D

 25 26  0  0  0  0  0  0  0  0999 V2000
    3.0422    0.5860    1.2017 C   0  0  0  0  0  0  0  0  0  0  0  0
    2.6935    0.9799   -0.0709 O   0  0  0  0  0  0  0  0  0  0  0  0
    2.0242    0.0472   -0.8108 C   0  0  0  0  0  0  0  0  0  0  0  0
    0.7121   -0.4057   -0.2126 C   0  0  1  0  0  0  0  0  0  0  0  0
   -0.1716    0.7084   -0.0619 N   0  0  0  0  0  0  0  0  0  0  0  0
   -1.5691    0.3845   -0.0979 C   0  0  0  0  0  0  0  0  0  0  0  0
   -2.2441    0.0488    1.2080 C   0  0  0  0  0  0  0  0  0  0  0  0
   -2.5234    1.3272    0.5113 C   0  0  0  0  0  0  0  0  0  0  0  0
   -1.9708   -0.4455   -1.2496 C   0  0  0  0  0  0  0  0  0  0  0  0
   -3.0273   -0.2289   -1.8793 O   0  0  0  0  0  0  0  0  0  0  0  0
   -1.1142   -1.5126   -1.6304 N   0  0  0  0  0  0  0  0  0  0  0  0
    0.1866   -1.4879   -1.0573 C   0  0  0  0  0  0  0  0  0  0  0  0
    0.9434   -2.4626   -1.2896 O   0  0  0  0  0  0  0  0  0  0  0  0
    3.5931    1.4320    1.7112 H   0  0  0  0  0  0  0  0  0  0  0  0
    2.0782    0.4823    1.7819 H   0  0  0  0  0  0  0  0  0  0  0  0
    3.6538   -0.3260    1.2401 H   0  0  0  0  0  0  0  0  0  0  0  0
    1.7573    0.5404   -1.7875 H   0  0  0  0  0  0  0  0  0  0  0  0
    2.6485   -0.8279   -1.0911 H   0  0  0  0  0  0  0  0  0  0  0  0
    0.9349   -0.8495    0.7762 H   0  0  0  0  0  0  0  0  0  0  0  0
    0.0058    1.2851    0.7628 H   0  0  0  0  0  0  0  0  0  0  0  0
   -1.5880    0.0765    2.1160 H   0  0  0  0  0  0  0  0  0  0  0  0
   -2.9759   -0.7600    1.2073 H   0  0  0  0  0  0  0  0  0  0  0  0
   -3.5270    1.4487    0.0153 H   0  0  0  0  0  0  0  0  0  0  0  0
   -2.1350    2.2359    1.0056 H   0  0  0  0  0  0  0  0  0  0  0  0
   -1.4272   -2.2762   -2.2985 H   0  0  0  0  0  0  0  0  0  0  0  0
  1  2  1  0
  2  3  1  0
  3  4  1  0
  4  5  1  0
  5  6  1  0
  6  7  1  0
  7  8  1  0
  6  9  1  0
  9 10  2  0
  9 11  1  0
 11 12  1  0
 12 13  2  0
 12  4  1  0
  8  6  1  0
  1 14  1  0
  1 15  1  0
  1 16  1  0
  3 17  1  0
  3 18  1  0
  4 19  1  1
  5 20  1  0
  7 21  1  0
  7 22  1  0
  8 23  1  0
  8 24  1  0
 11 25  1  0
M  END
$$$$

     RDKit          3D

 25 26  0  0  0  0  0  0  0  0999 V2000
   -3.9054    0.7531    0.6649 C   0  0  0  0  0  0  0  0  0  0  0  0
   -2.7844   -0.0661    0.6778 O   0  0  0  0  0  0  0  0  0  0  0  0
   -1.7646    0.4541   -0.1101 C   0  0  0  0  0  0  0  0  0  0  0  0
   -0.5592   -0.4751   -0.0655 C   0  0  1  0  0  0  0  0  0  0  0  0
    0.5265    0.0141   -0.8635 N   0  0  0  0  0  0  0  0  0  0  0  0
    1.8268   -0.3117   -0.3742 C   0  0  0  0  0  0  0  0  0  0  0  0
    3.0638    0.2244   -0.9338 C   0  0  0  0  0  0  0  0  0  0  0  0
    2.5456    0.8869    0.2791 C   0  0  0  0  0  0  0  0  0  0  0  0
    1.8879   -1.5351    0.4456 C   0  0  0  0  0  0  0  0  0  0  0  0
    2.6814   -2.4852    0.2614 O   0  0  0  0  0  0  0  0  0  0  0  0
    0.9521   -1.5991    1.5218 N   0  0  0  0  0  0  0  0  0  0  0  0
   -0.2103   -0.7842    1.3350 C   0  0  0  0  0  0  0  0  0  0  0  0
   -0.8484   -0.3899    2.3349 O   0  0  0  0  0  0  0  0  0  0  0  0
   -4.2287    0.8062   -0.4159 H   0  0  0  0  0  0  0  0  0  0  0  0
   -4.7071    0.2918    1.2716 H   0  0  0  0  0  0  0  0  0  0  0  0
   -3.6643    1.7853    0.9987 H   0  0  0  0  0  0  0  0  0  0  0  0
   -1.4533    1.4386    0.2930 H   0  0  0  0  0  0  0  0  0  0  0  0
   -2.1331    0.5320   -1.1545 H   0  0  0  0  0  0  0  0  0  0  0  0
   -0.9085   -1.4299   -0.5606 H   0  0  0  0  0  0  0  0  0  0  0  0
    0.3976    1.0640   -0.9835 H   0  0  0  0  0  0  0  0  0  0  0  0
    3.0996    0.7915   -1.8883 H   0  0  0  0  0  0  0  0  0  0  0  0
    3.9793   -0.4266   -0.8106 H   0  0  0  0  0  0  0  0  0  0  0  0
    2.9942    0.7518    1.2686 H   0  0  0  0  0  0  0  0  0  0  0  0
    2.1133    1.8936    0.1256 H   0  0  0  0  0  0  0  0  0  0  0  0
    1.0992   -2.1846    2.3668 H   0  0  0  0  0  0  0  0  0  0  0  0
  1  2  1  0
  2  3  1  0
  3  4  1  0
  4  5  1  0
  5  6  1  0
  6  7  1  0
  7  8  1  0
  6  9  1  0
  9 10  2  0
  9 11  1  0
 11 12  1  0
 12 13  2  0
 12  4  1  0
  8  6  1  0
  1 14  1  0
  1 15  1  0
  1 16  1  0
  3 17  1  0
  3 18  1  0
  4 19  1  6
  5 20  1  0
  7 21  1  0
  7 22  1  0
  8 23  1  0
  8 24  1  0
 11 25  1  0
M  END
$$$$

     RDKit          3D

 25 26  0  0  0  0  0  0  0  0999 V2000
    2.8394   -1.3862   -0.0257 C   0  0  0  0  0  0  0  0  0  0  0  0
    2.5917   -0.3683    0.8553 O   0  0  0  0  0  0  0  0  0  0  0  0
    2.0322    0.7644    0.3354 C   0  0  0  0  0  0  0  0  0  0  0  0
    0.6922    0.4856   -0.2957 C   0  0  1  0  0  0  0  0  0  0  0  0
   -0.1535   -0.0549    0.7533 N   0  0  0  0  0  0  0  0  0  0  0  0
   -1.5318   -0.1385    0.3578 C   0  0  0  0  0  0  0  0  0  0  0  0
   -1.9697   -1.2308   -0.5417 C   0  0  0  0  0  0  0  0  0  0  0  0
   -2.4508   -1.1585    0.8987 C   0  0  0  0  0  0  0  0  0  0  0  0
   -2.0295    1.2366    0.1441 C   0  0  0  0  0  0  0  0  0  0  0  0
   -3.2069    1.5343    0.4551 O   0  0  0  0  0  0  0  0  0  0  0  0
   -1.1445    2.1926   -0.4158 N   0  0  0  0  0  0  0  0  0  0  0  0
    0.1318    1.7694   -0.8214 C   0  0  0  0  0  0  0  0  0  0  0  0
    0.7934    2.4570   -1.6131 O   0  0  0  0  0  0  0  0  0  0  0  0
    1.9341   -1.7454   -0.5098 H   0  0  0  0  0  0  0  0  0  0  0  0
    3.5509   -1.0184   -0.8000 H   0  0  0  0  0  0  0  0  0  0  0  0
    3.3341   -2.2357    0.4842 H   0  0  0  0  0  0  0  0  0  0  0  0
    1.9181    1.5312    1.1374 H   0  0  0  0  0  0  0  0  0  0  0  0
    2.7040    1.2423   -0.4154 H   0  0  0  0  0  0  0  0  0  0  0  0
    0.7492   -0.2446   -1.1148 H   0  0  0  0  0  0  0  0  0  0  0  0
    0.2562   -0.9445    1.0583 H   0  0  0  0  0  0  0  0  0  0  0  0
   -2.6866   -0.9662   -1.3454 H   0  0  0  0  0  0  0  0  0  0  0  0
   -1.3070   -2.0690   -0.7659 H   0  0  0  0  0  0  0  0  0  0  0  0
   -3.4939   -0.8856    1.0786 H   0  0  0  0  0  0  0  0  0  0  0  0
   -2.0613   -1.9435    1.6058 H   0  0  0  0  0  0  0  0  0  0  0  0
   -1.4919    3.1768   -0.4991 H   0  0  0  0  0  0  0  0  0  0  0  0
  1  2  1  0
  2  3  1  0
  3  4  1  0
  4  5  1  0
  5  6  1  0
  6  7  1  0
  7  8  1  0
  6  9  1  0
  9 10  2  0
  9 11  1  0
 11 12  1  0
 12 13  2  0
 12  4  1  0
  8  6  1  0
  1 14  1  0
  1 15  1  0
  1 16  1  0
  3 17  1  0
  3 18  1  0
  4 19  1  6
  5 20  1  0
  7 21  1  0
  7 22  1  0
  8 23  1  0
  8 24  1  0
 11 25  1  0
M  END
$$$$

     RDKit          3D

 25 26  0  0  0  0  0  0  0  0999 V2000
    3.2233    0.3031   -0.2813 C   0  0  0  0  0  0  0  0  0  0  0  0
    2.5983    1.1235    0.5954 O   0  0  0  0  0  0  0  0  0  0  0  0
    1.2641    1.1496    0.6812 C   0  0  0  0  0  0  0  0  0  0  0  0
    0.5327   -0.0749    1.1005 C   0  0  1  0  0  0  0  0  0  0  0  0
   -0.9235    0.2223    1.1489 N   0  0  0  0  0  0  0  0  0  0  0  0
   -1.5681    0.1095   -0.1105 C   0  0  0  0  0  0  0  0  0  0  0  0
   -2.7914   -0.7358   -0.1386 C   0  0  0  0  0  0  0  0  0  0  0  0
   -2.8886    0.7161   -0.3870 C   0  0  0  0  0  0  0  0  0  0  0  0
   -0.6793   -0.0294   -1.2879 C   0  0  0  0  0  0  0  0  0  0  0  0
   -0.7735    0.6202   -2.3489 O   0  0  0  0  0  0  0  0  0  0  0  0
    0.3723   -1.0120   -1.1533 N   0  0  0  0  0  0  0  0  0  0  0  0
    0.6935   -1.2580    0.2345 C   0  0  0  0  0  0  0  0  0  0  0  0
    1.0646   -2.3972    0.5900 O   0  0  0  0  0  0  0  0  0  0  0  0
    3.0212   -0.7532   -0.0678 H   0  0  0  0  0  0  0  0  0  0  0  0
    4.3398    0.4033   -0.2058 H   0  0  0  0  0  0  0  0  0  0  0  0
    2.9322    0.4903   -1.3524 H   0  0  0  0  0  0  0  0  0  0  0  0
    0.8767    1.5519   -0.3115 H   0  0  0  0  0  0  0  0  0  0  0  0
    1.0096    1.9996    1.4156 H   0  0  0  0  0  0  0  0  0  0  0  0
    0.8306   -0.3679    2.1181 H   0  0  0  0  0  0  0  0  0  0  0  0
   -1.3316   -0.4473    1.8607 H   0  0  0  0  0  0  0  0  0  0  0  0
   -2.9152   -1.4544   -0.9734 H   0  0  0  0  0  0  0  0  0  0  0  0
   -3.2535   -1.0965    0.8024 H   0  0  0  0  0  0  0  0  0  0  0  0
   -3.3354    1.3949    0.3673 H   0  0  0  0  0  0  0  0  0  0  0  0
   -3.1250    1.0162   -1.4232 H   0  0  0  0  0  0  0  0  0  0  0  0
    0.8262   -1.4742   -1.9409 H   0  0  0  0  0  0  0  0  0  0  0  0
  1  2  1  0
  2  3  1  0
  3  4  1  0
  4  5  1  0
  5  6  1  0
  6  7  1  0
  7  8  1  0
  6  9  1  0
  9 10  2  0
  9 11  1  0
 11 12  1  0
 12 13  2  0
 12  4  1  0
  8  6  1  0
  1 14  1  0
  1 15  1  0
  1 16  1  0
  3 17  1  0
  3 18  1  0
  4 19  1  1
  5 20  1  0
  7 21  1  0
  7 22  1  0
  8 23  1  0
  8 24  1  0
 11 25  1  0
M  END
$$$$
