
     RDKit          3D

 29 29  0  0  0  0  0  0  0  0999 V2000
    2.3186   -2.0568    0.3801 N   0  0  0  0  0  0  0  0  0  0  0  0
    2.0172   -0.8809   -0.0777 C   0  0  0  0  0  0  0  0  0  0  0  0
    3.0631   -0.0816   -0.6114 N   0  0  0  0  0  0  0  0  0  0  0  0
    4.4070   -0.2441   -0.2011 N   0  0  0  0  0  0  0  0  0  0  0  0
    0.6663   -0.4216   -0.0371 N   0  0  0  0  0  0  0  0  0  0  0  0
    0.5232    0.9585    0.2973 C   0  0  0  0  0  0  0  0  0  0  0  0
   -0.7637    1.2828    1.0139 C   0  0  0  0  0  0  0  0  0  0  0  0
   -1.8936    1.2811    0.0091 C   0  0  2  0  0  0  0  0  0  0  0  0
   -2.8680    2.1785    0.4503 O   0  0  0  0  0  0  0  0  0  0  0  0
   -2.4375   -0.0946   -0.2418 C   0  0  2  0  0  0  0  0  0  0  0  0
   -2.7031   -0.8056    0.9162 O   0  0  0  0  0  0  0  0  0  0  0  0
   -1.4903   -0.8544   -1.1311 C   0  0  0  0  0  0  0  0  0  0  0  0
   -0.3346   -1.4130   -0.3371 C   0  0  0  0  0  0  0  0  0  0  0  0
    1.5853   -2.6543    0.7704 H   0  0  0  0  0  0  0  0  0  0  0  0
    2.7888    0.6372   -1.3269 H   0  0  0  0  0  0  0  0  0  0  0  0
    4.3843   -0.1726    0.8604 H   0  0  0  0  0  0  0  0  0  0  0  0
    4.9106    0.6239   -0.5178 H   0  0  0  0  0  0  0  0  0  0  0  0
    1.3562    1.2391    0.9896 H   0  0  0  0  0  0  0  0  0  0  0  0
    0.5572    1.5957   -0.6186 H   0  0  0  0  0  0  0  0  0  0  0  0
   -0.9504    0.6290    1.8722 H   0  0  0  0  0  0  0  0  0  0  0  0
   -0.6689    2.3201    1.3933 H   0  0  0  0  0  0  0  0  0  0  0  0
   -1.4779    1.6644   -0.9405 H   0  0  0  0  0  0  0  0  0  0  0  0
   -2.4906    2.7977    1.1042 H   0  0  0  0  0  0  0  0  0  0  0  0
   -3.3866    0.0354   -0.8272 H   0  0  0  0  0  0  0  0  0  0  0  0
   -3.3063   -1.5632    0.6459 H   0  0  0  0  0  0  0  0  0  0  0  0
   -2.0395   -1.7392   -1.5547 H   0  0  0  0  0  0  0  0  0  0  0  0
   -1.1432   -0.1862   -1.9465 H   0  0  0  0  0  0  0  0  0  0  0  0
   -0.7337   -1.8302    0.6163 H   0  0  0  0  0  0  0  0  0  0  0  0
    0.1100   -2.2447   -0.9495 H   0  0  0  0  0  0  0  0  0  0  0  0
  1  2  2  3
  2  3  1  0
  3  4  1  0
  2  5  1  0
  5  6  1  0
  6  7  1  0
  7  8  1  0
  8  9  1  0
  8 10  1  0
 10 11  1  0
 10 12  1  0
 12 13  1  0
 13  5  1  0
  1 14  1  0
  3 15  1  0
  4 16  1  0
  4 17  1  0
  6 18  1  0
  6 19  1  0
  7 20  1  0
  7 21  1  0
  8 22  1  6
  9 23  1  0
 10 24  1  6
 11 25  1  0
 12 26  1  0
 12 27  1  0
 13 28  1  0
 13 29  1  0
M  END
$$$$

     RDKit          3D

 29 29  0  0  0  0  0  0  0  0999 V2000
   -2.5466   -1.3507   -0.8728 N   0  0  0  0  0  0  0  0  0  0  0  0
   -2.0028   -0.4314   -0.1576 C   0  0  0  0  0  0  0  0  0  0  0  0
   -2.7937    0.6854    0.2177 N   0  0  0  0  0  0  0  0  0  0  0  0
   -4.0359    0.8857   -0.4119 N   0  0  0  0  0  0  0  0  0  0  0  0
   -0.6408   -0.5242    0.2523 N   0  0  0  0  0  0  0  0  0  0  0  0
    0.1093   -1.5718   -0.4223 C   0  0  0  0  0  0  0  0  0  0  0  0
    0.9635   -0.9734   -1.5382 C   0  0  0  0  0  0  0  0  0  0  0  0
    2.1855   -0.3151   -0.9307 C   0  0  2  0  0  0  0  0  0  0  0  0
    3.0483   -1.2351   -0.3735 O   0  0  0  0  0  0  0  0  0  0  0  0
    1.8297    0.8131   -0.0017 C   0  0  2  0  0  0  0  0  0  0  0  0
    2.9679    1.6141    0.1617 O   0  0  0  0  0  0  0  0  0  0  0  0
    1.3126    0.3682    1.3243 C   0  0  0  0  0  0  0  0  0  0  0  0
   -0.2174    0.4182    1.2572 C   0  0  0  0  0  0  0  0  0  0  0  0
   -3.5359   -1.2788   -1.1680 H   0  0  0  0  0  0  0  0  0  0  0  0
   -2.4905    1.3628    0.9410 H   0  0  0  0  0  0  0  0  0  0  0  0
   -3.9493    1.6511   -1.0958 H   0  0  0  0  0  0  0  0  0  0  0  0
   -4.7456    1.1492    0.3060 H   0  0  0  0  0  0  0  0  0  0  0  0
   -0.5642   -2.3496   -0.7744 H   0  0  0  0  0  0  0  0  0  0  0  0
    0.8268   -1.9669    0.3273 H   0  0  0  0  0  0  0  0  0  0  0  0
    0.3906   -0.1958   -2.0684 H   0  0  0  0  0  0  0  0  0  0  0  0
    1.2973   -1.7717   -2.2067 H   0  0  0  0  0  0  0  0  0  0  0  0
    2.7359    0.1641   -1.7933 H   0  0  0  0  0  0  0  0  0  0  0  0
    3.8767   -1.3579   -0.9044 H   0  0  0  0  0  0  0  0  0  0  0  0
    1.0837    1.4461   -0.5358 H   0  0  0  0  0  0  0  0  0  0  0  0
    2.7202    2.5721    0.1955 H   0  0  0  0  0  0  0  0  0  0  0  0
    1.6107    1.1115    2.1163 H   0  0  0  0  0  0  0  0  0  0  0  0
    1.6810   -0.6016    1.6672 H   0  0  0  0  0  0  0  0  0  0  0  0
   -0.4534    1.4431    0.8714 H   0  0  0  0  0  0  0  0  0  0  0  0
   -0.6634    0.2396    2.2442 H   0  0  0  0  0  0  0  0  0  0  0  0
  1  2  2  3
  2  3  1  0
  3  4  1  0
  2  5  1  0
  5  6  1  0
  6  7  1  0
  7  8  1  0
  8  9  1  0
  8 10  1  0
 10 11  1  0
 10 12  1  0
 12 13  1  0
 13  5  1  0
  1 14  1  0
  3 15  1  0
  4 16  1  0
  4 17  1  0
  6 18  1  0
  6 19  1  0
  7 20  1  0
  7 21  1  0
  8 22  1  6
  9 23  1  0
 10 24  1  6
 11 25  1  0
 12 26  1  0
 12 27  1  0
 13 28  1  0
 13 29  1  0
M  END
$$$$

     RDKit          3D

 29 29  0  0  0  0  0  0  0  0999 V2000
    2.2415   -1.7063   -0.8017 N   0  0  0  0  0  0  0  0  0  0  0  0
    2.0377   -0.5224   -0.3177 C   0  0  0  0  0  0  0  0  0  0  0  0
    3.1282    0.3783   -0.2360 N   0  0  0  0  0  0  0  0  0  0  0  0
    4.4216   -0.1311   -0.0338 N   0  0  0  0  0  0  0  0  0  0  0  0
    0.7282   -0.1287    0.1288 N   0  0  0  0  0  0  0  0  0  0  0  0
    0.4283    1.2539   -0.0905 C   0  0  0  0  0  0  0  0  0  0  0  0
   -1.0194    1.5294    0.3132 C   0  0  0  0  0  0  0  0  0  0  0  0
   -1.8960    0.8039   -0.6437 C   0  0  2  0  0  0  0  0  0  0  0  0
   -3.0503    1.5792   -0.8390 O   0  0  0  0  0  0  0  0  0  0  0  0
   -2.3401   -0.5489   -0.1909 C   0  0  2  0  0  0  0  0  0  0  0  0
   -3.0845   -0.4438    0.9790 O   0  0  0  0  0  0  0  0  0  0  0  0
   -1.2509   -1.5708   -0.1096 C   0  0  0  0  0  0  0  0  0  0  0  0
   -0.0727   -1.1546    0.7172 C   0  0  0  0  0  0  0  0  0  0  0  0
    1.4767   -2.4010   -0.8823 H   0  0  0  0  0  0  0  0  0  0  0  0
    2.9458    1.4059   -0.3283 H   0  0  0  0  0  0  0  0  0  0  0  0
    4.5947   -0.2882    0.9908 H   0  0  0  0  0  0  0  0  0  0  0  0
    5.1382    0.5271   -0.4117 H   0  0  0  0  0  0  0  0  0  0  0  0
    1.1250    1.9462    0.4159 H   0  0  0  0  0  0  0  0  0  0  0  0
    0.4889    1.5013   -1.1814 H   0  0  0  0  0  0  0  0  0  0  0  0
   -1.1791    2.6174    0.3542 H   0  0  0  0  0  0  0  0  0  0  0  0
   -1.2146    1.1299    1.3396 H   0  0  0  0  0  0  0  0  0  0  0  0
   -1.3843    0.7220   -1.6343 H   0  0  0  0  0  0  0  0  0  0  0  0
   -2.7978    2.5266   -0.7175 H   0  0  0  0  0  0  0  0  0  0  0  0
   -3.0546   -0.9223   -0.9792 H   0  0  0  0  0  0  0  0  0  0  0  0
   -3.9671   -0.9136    0.9097 H   0  0  0  0  0  0  0  0  0  0  0  0
   -1.6880   -2.4748    0.3753 H   0  0  0  0  0  0  0  0  0  0  0  0
   -0.9075   -1.8577   -1.1067 H   0  0  0  0  0  0  0  0  0  0  0  0
    0.5441   -2.0604    0.9001 H   0  0  0  0  0  0  0  0  0  0  0  0
   -0.3921   -0.7966    1.7307 H   0  0  0  0  0  0  0  0  0  0  0  0
  1  2  2  3
  2  3  1  0
  3  4  1  0
  2  5  1  0
  5  6  1  0
  6  7  1  0
  7  8  1  0
  8  9  1  0
  8 10  1  0
 10 11  1  0
 10 12  1  0
 12 13  1  0
 13  5  1  0
  1 14  1  0
  3 15  1  0
  4 16  1  0
  4 17  1  0
  6 18  1  0
  6 19  1  0
  7 20  1  0
  7 21  1  0
  8 22  1  6
  9 23  1  0
 10 24  1  6
 11 25  1  0
 12 26  1  0
 12 27  1  0
 13 28  1  0
 13 29  1  0
M  END
$$$$

     RDKit          3D

 29 29  0  0  0  0  0  0  0  0999 V2000
    2.3500   -0.4694   -1.7397 N   0  0  0  0  0  0  0  0  0  0  0  0
    2.0391   -0.0394   -0.5741 C   0  0  0  0  0  0  0  0  0  0  0  0
    3.0562    0.5157    0.2488 N   0  0  0  0  0  0  0  0  0  0  0  0
    4.3593    0.5121   -0.2058 N   0  0  0  0  0  0  0  0  0  0  0  0
    0.6934   -0.1234   -0.1257 N   0  0  0  0  0  0  0  0  0  0  0  0
    0.1687    1.0707    0.4504 C   0  0  0  0  0  0  0  0  0  0  0  0
   -1.1577    1.4870   -0.0708 C   0  0  0  0  0  0  0  0  0  0  0  0
   -1.9459    0.4166   -0.7562 C   0  0  2  0  0  0  0  0  0  0  0  0
   -3.1912    0.9910   -1.0992 O   0  0  0  0  0  0  0  0  0  0  0  0
   -2.2648   -0.7672    0.1005 C   0  0  2  0  0  0  0  0  0  0  0  0
   -3.1221   -0.3416    1.1368 O   0  0  0  0  0  0  0  0  0  0  0  0
   -1.0921   -1.5065    0.6266 C   0  0  0  0  0  0  0  0  0  0  0  0
    0.0628   -1.4019   -0.3208 C   0  0  0  0  0  0  0  0  0  0  0  0
    1.6523   -0.8824   -2.3802 H   0  0  0  0  0  0  0  0  0  0  0  0
    2.7997    0.9056    1.1600 H   0  0  0  0  0  0  0  0  0  0  0  0
    5.0267    0.5187    0.6034 H   0  0  0  0  0  0  0  0  0  0  0  0
    4.5355   -0.2837   -0.8627 H   0  0  0  0  0  0  0  0  0  0  0  0
    0.8808    1.9077    0.3538 H   0  0  0  0  0  0  0  0  0  0  0  0
    0.0810    0.8862    1.5607 H   0  0  0  0  0  0  0  0  0  0  0  0
   -1.0128    2.3092   -0.8020 H   0  0  0  0  0  0  0  0  0  0  0  0
   -1.7633    1.9105    0.7526 H   0  0  0  0  0  0  0  0  0  0  0  0
   -1.4997    0.1061   -1.7238 H   0  0  0  0  0  0  0  0  0  0  0  0
   -3.5122    1.6108   -0.4066 H   0  0  0  0  0  0  0  0  0  0  0  0
   -2.8720   -1.4662   -0.5126 H   0  0  0  0  0  0  0  0  0  0  0  0
   -2.6518   -0.5256    1.9918 H   0  0  0  0  0  0  0  0  0  0  0  0
   -1.3654   -2.5687    0.8109 H   0  0  0  0  0  0  0  0  0  0  0  0
   -0.7902   -1.0561    1.5958 H   0  0  0  0  0  0  0  0  0  0  0  0
   -0.2476   -1.4678   -1.3831 H   0  0  0  0  0  0  0  0  0  0  0  0
    0.7832   -2.2480   -0.1676 H   0  0  0  0  0  0  0  0  0  0  0  0
  1  2  2  3
  2  3  1  0
  3  4  1  0
  2  5  1  0
  5  6  1  0
  6  7  1  0
  7  8  1  0
  8  9  1  0
  8 10  1  0
 10 11  1  0
 10 12  1  0
 12 13  1  0
 13  5  1  0
  1 14  1  0
  3 15  1  0
  4 16  1  0
  4 17  1  0
  6 18  1  0
  6 19  1  0
  7 20  1  0
  7 21  1  0
  8 22  1  6
  9 23  1  0
 10 24  1  6
 11 25  1  0
 12 26  1  0
 12 27  1  0
 13 28  1  0
 13 29  1  0
M  END
$$$$

     RDKit          3D

 29 29  0  0  0  0  0  0  0  0999 V2000
    2.6683   -1.7356   -0.6505 N   0  0  0  0  0  0  0  0  0  0  0  0
    2.1896   -0.5481   -0.4001 C   0  0  0  0  0  0  0  0  0  0  0  0
    3.0571    0.5575   -0.2306 N   0  0  0  0  0  0  0  0  0  0  0  0
    4.3679    0.3451    0.2252 N   0  0  0  0  0  0  0  0  0  0  0  0
    0.7938   -0.3661   -0.2976 N   0  0  0  0  0  0  0  0  0  0  0  0
    0.1643   -1.1507    0.7424 C   0  0  0  0  0  0  0  0  0  0  0  0
   -1.2794   -1.3582    0.4138 C   0  0  0  0  0  0  0  0  0  0  0  0
   -2.1387   -0.1953    0.8557 C   0  0  2  0  0  0  0  0  0  0  0  0
   -3.4565   -0.6677    0.8669 O   0  0  0  0  0  0  0  0  0  0  0  0
   -2.0927    0.9540   -0.1152 C   0  0  2  0  0  0  0  0  0  0  0  0
   -2.7228    0.6079   -1.2944 O   0  0  0  0  0  0  0  0  0  0  0  0
   -0.7042    1.4772   -0.3524 C   0  0  0  0  0  0  0  0  0  0  0  0
    0.1374    0.5509   -1.2025 C   0  0  0  0  0  0  0  0  0  0  0  0
    2.0419   -2.5434   -0.7747 H   0  0  0  0  0  0  0  0  0  0  0  0
    2.7529    1.5360   -0.4351 H   0  0  0  0  0  0  0  0  0  0  0  0
    4.3265    0.1156    1.2606 H   0  0  0  0  0  0  0  0  0  0  0  0
    4.9374    1.2053    0.1357 H   0  0  0  0  0  0  0  0  0  0  0  0
    0.2545   -0.6125    1.7207 H   0  0  0  0  0  0  0  0  0  0  0  0
    0.6650   -2.1267    0.8971 H   0  0  0  0  0  0  0  0  0  0  0  0
   -1.6718   -2.3020    0.8204 H   0  0  0  0  0  0  0  0  0  0  0  0
   -1.4078   -1.4257   -0.7029 H   0  0  0  0  0  0  0  0  0  0  0  0
   -1.8365    0.1313    1.8792 H   0  0  0  0  0  0  0  0  0  0  0  0
   -4.0088   -0.2110    1.5451 H   0  0  0  0  0  0  0  0  0  0  0  0
   -2.6745    1.7843    0.3395 H   0  0  0  0  0  0  0  0  0  0  0  0
   -3.6964    0.7375   -1.1662 H   0  0  0  0  0  0  0  0  0  0  0  0
   -0.8137    2.4274   -0.9315 H   0  0  0  0  0  0  0  0  0  0  0  0
   -0.2225    1.7175    0.6009 H   0  0  0  0  0  0  0  0  0  0  0  0
   -0.5132   -0.0011   -1.9323 H   0  0  0  0  0  0  0  0  0  0  0  0
    0.8830    1.0967   -1.8175 H   0  0  0  0  0  0  0  0  0  0  0  0
  1  2  2  3
  2  3  1  0
  3  4  1  0
  2  5  1  0
  5  6  1  0
  6  7  1  0
  7  8  1  0
  8  9  1  0
  8 10  1  0
 10 11  1  0
 10 12  1  0
 12 13  1  0
 13  5  1  0
  1 14  1  0
  3 15  1  0
  4 16  1  0
  4 17  1  0
  6 18  1  0
  6 19  1  0
  7 20  1  0
  7 21  1  0
  8 22  1  1
  9 23  1  0
 10 24  1  1
 11 25  1  0
 12 26  1  0
 12 27  1  0
 13 28  1  0
 13 29  1  0
M  END
$$$$

     RDKit          3D

 29 29  0  0  0  0  0  0  0  0999 V2000
    2.3772   -1.7024   -1.1361 N   0  0  0  0  0  0  0  0  0  0  0  0
    2.0596   -0.7581   -0.3193 C   0  0  0  0  0  0  0  0  0  0  0  0
    3.1044   -0.1790    0.4445 N   0  0  0  0  0  0  0  0  0  0  0  0
    4.4697   -0.3598    0.0994 N   0  0  0  0  0  0  0  0  0  0  0  0
    0.7006   -0.3306   -0.2073 N   0  0  0  0  0  0  0  0  0  0  0  0
   -0.2094   -1.3778    0.1267 C   0  0  0  0  0  0  0  0  0  0  0  0
   -1.5894   -1.2060   -0.4459 C   0  0  0  0  0  0  0  0  0  0  0  0
   -2.4030   -0.1584    0.2569 C   0  0  2  0  0  0  0  0  0  0  0  0
   -3.6251   -0.0614   -0.4078 O   0  0  0  0  0  0  0  0  0  0  0  0
   -1.7441    1.1864    0.3049 C   0  0  2  0  0  0  0  0  0  0  0  0
   -2.7087    2.2076    0.2976 O   0  0  0  0  0  0  0  0  0  0  0  0
   -0.8447    1.4348   -0.8864 C   0  0  0  0  0  0  0  0  0  0  0  0
    0.5510    1.0875   -0.4610 C   0  0  0  0  0  0  0  0  0  0  0  0
    1.6425   -2.1478   -1.7089 H   0  0  0  0  0  0  0  0  0  0  0  0
    2.8518    0.3879    1.2724 H   0  0  0  0  0  0  0  0  0  0  0  0
    4.5337   -0.9660   -0.7431 H   0  0  0  0  0  0  0  0  0  0  0  0
    4.8334    0.5811   -0.1991 H   0  0  0  0  0  0  0  0  0  0  0  0
    0.1896   -2.3338   -0.2717 H   0  0  0  0  0  0  0  0  0  0  0  0
   -0.3235   -1.5093    1.2208 H   0  0  0  0  0  0  0  0  0  0  0  0
   -1.5913   -1.1022   -1.5516 H   0  0  0  0  0  0  0  0  0  0  0  0
   -2.1242   -2.1850   -0.2549 H   0  0  0  0  0  0  0  0  0  0  0  0
   -2.6088   -0.5081    1.2758 H   0  0  0  0  0  0  0  0  0  0  0  0
   -4.2137   -0.8077   -0.1274 H   0  0  0  0  0  0  0  0  0  0  0  0
   -1.1792    1.2966    1.2517 H   0  0  0  0  0  0  0  0  0  0  0  0
   -2.2198    3.0650    0.3716 H   0  0  0  0  0  0  0  0  0  0  0  0
   -1.1247    0.8700   -1.7776 H   0  0  0  0  0  0  0  0  0  0  0  0
   -0.8502    2.5137   -1.1771 H   0  0  0  0  0  0  0  0  0  0  0  0
    1.2705    1.3919   -1.2199 H   0  0  0  0  0  0  0  0  0  0  0  0
    0.7757    1.6709    0.4766 H   0  0  0  0  0  0  0  0  0  0  0  0
  1  2  2  3
  2  3  1  0
  3  4  1  0
  2  5  1  0
  5  6  1  0
  6  7  1  0
  7  8  1  0
  8  9  1  0
  8 10  1  0
 10 11  1  0
 10 12  1  0
 12 13  1  0
 13  5  1  0
  1 14  1  0
  3 15  1  0
  4 16  1  0
  4 17  1  0
  6 18  1  0
  6 19  1  0
  7 20  1  0
  7 21  1  0
  8 22  1  1
  9 23  1  0
 10 24  1  1
 11 25  1  0
 12 26  1  0
 12 27  1  0
 13 28  1  0
 13 29  1  0
M  END
$$$$

     RDKit          3D

 29 29  0  0  0  0  0  0  0  0999 V2000
    2.5215    1.1538   -1.0422 N   0  0  0  0  0  0  0  0  0  0  0  0
    2.0876    0.2678   -0.2086 C   0  0  0  0  0  0  0  0  0  0  0  0
    3.0640   -0.3973    0.5859 N   0  0  0  0  0  0  0  0  0  0  0  0
    4.3169    0.2408    0.7680 N   0  0  0  0  0  0  0  0  0  0  0  0
    0.7245   -0.0538   -0.0622 N   0  0  0  0  0  0  0  0  0  0  0  0
   -0.0212    0.4678    1.0637 C   0  0  0  0  0  0  0  0  0  0  0  0
   -1.2474    1.2207    0.6190 C   0  0  0  0  0  0  0  0  0  0  0  0
   -2.0811    0.4664   -0.3764 C   0  0  2  0  0  0  0  0  0  0  0  0
   -3.4060    0.9398   -0.2172 O   0  0  0  0  0  0  0  0  0  0  0  0
   -2.1251   -1.0091   -0.1352 C   0  0  2  0  0  0  0  0  0  0  0  0
   -2.4571   -1.2502    1.1939 O   0  0  0  0  0  0  0  0  0  0  0  0
   -0.9026   -1.7483   -0.5366 C   0  0  0  0  0  0  0  0  0  0  0  0
    0.1882   -0.9112   -1.1004 C   0  0  0  0  0  0  0  0  0  0  0  0
    1.9058    1.7054   -1.6760 H   0  0  0  0  0  0  0  0  0  0  0  0
    2.8883   -1.3218    1.0292 H   0  0  0  0  0  0  0  0  0  0  0  0
    4.2027    1.0269    1.4571 H   0  0  0  0  0  0  0  0  0  0  0  0
    4.5531    0.6909   -0.1469 H   0  0  0  0  0  0  0  0  0  0  0  0
    0.6280    1.1969    1.5948 H   0  0  0  0  0  0  0  0  0  0  0  0
   -0.2510   -0.3428    1.7768 H   0  0  0  0  0  0  0  0  0  0  0  0
   -0.8948    2.1653    0.1411 H   0  0  0  0  0  0  0  0  0  0  0  0
   -1.8114    1.5152    1.5165 H   0  0  0  0  0  0  0  0  0  0  0  0
   -1.8222    0.6980   -1.4316 H   0  0  0  0  0  0  0  0  0  0  0  0
   -3.3381    1.9176   -0.2961 H   0  0  0  0  0  0  0  0  0  0  0  0
   -2.9926   -1.4073   -0.7383 H   0  0  0  0  0  0  0  0  0  0  0  0
   -2.9667   -0.5019    1.5722 H   0  0  0  0  0  0  0  0  0  0  0  0
   -0.4982   -2.2797    0.3576 H   0  0  0  0  0  0  0  0  0  0  0  0
   -1.1365   -2.5711   -1.2701 H   0  0  0  0  0  0  0  0  0  0  0  0
    0.9819   -1.5965   -1.4833 H   0  0  0  0  0  0  0  0  0  0  0  0
   -0.1103   -0.2822   -1.9497 H   0  0  0  0  0  0  0  0  0  0  0  0
  1  2  2  3
  2  3  1  0
  3  4  1  0
  2  5  1  0
  5  6  1  0
  6  7  1  0
  7  8  1  0
  8  9  1  0
  8 10  1  0
 10 11  1  0
 10 12  1  0
 12 13  1  0
 13  5  1  0
  1 14  1  0
  3 15  1  0
  4 16  1  0
  4 17  1  0
  6 18  1  0
  6 19  1  0
  7 20  1  0
  7 21  1  0
  8 22  1  6
  9 23  1  0
 10 24  1  6
 11 25  1  0
 12 26  1  0
 12 27  1  0
 13 28  1  0
 13 29  1  0
M  END
$$$$

     RDKit          3D

 29 29  0  0  0  0  0  0  0  0999 V2000
    2.6976   -1.3161   -0.3951 N   0  0  0  0  0  0  0  0  0  0  0  0
    2.0908   -0.3264    0.1656 C   0  0  0  0  0  0  0  0  0  0  0  0
    2.8427    0.6046    0.9053 N   0  0  0  0  0  0  0  0  0  0  0  0
    4.2351    0.7862    0.7003 N   0  0  0  0  0  0  0  0  0  0  0  0
    0.6605   -0.2018    0.0189 N   0  0  0  0  0  0  0  0  0  0  0  0
    0.2678    1.0760   -0.4855 C   0  0  0  0  0  0  0  0  0  0  0  0
   -1.0555    1.0709   -1.1966 C   0  0  0  0  0  0  0  0  0  0  0  0
   -2.1975    0.7683   -0.2704 C   0  0  2  0  0  0  0  0  0  0  0  0
   -1.9899    1.5186    0.8965 O   0  0  0  0  0  0  0  0  0  0  0  0
   -2.4030   -0.6746    0.0083 C   0  0  2  0  0  0  0  0  0  0  0  0
   -2.4859   -0.8265    1.4122 O   0  0  0  0  0  0  0  0  0  0  0  0
   -1.2718   -1.5606   -0.4440 C   0  0  0  0  0  0  0  0  0  0  0  0
   -0.0474   -1.3926    0.4139 C   0  0  0  0  0  0  0  0  0  0  0  0
    2.2211   -2.0501   -0.9596 H   0  0  0  0  0  0  0  0  0  0  0  0
    2.3537    1.1810    1.6307 H   0  0  0  0  0  0  0  0  0  0  0  0
    4.4324    0.4395   -0.2787 H   0  0  0  0  0  0  0  0  0  0  0  0
    4.3653    1.8414    0.7107 H   0  0  0  0  0  0  0  0  0  0  0  0
    0.2420    1.8752    0.2832 H   0  0  0  0  0  0  0  0  0  0  0  0
    1.0340    1.3985   -1.2291 H   0  0  0  0  0  0  0  0  0  0  0  0
   -1.0525    0.4570   -2.1173 H   0  0  0  0  0  0  0  0  0  0  0  0
   -1.2169    2.1298   -1.5577 H   0  0  0  0  0  0  0  0  0  0  0  0
   -3.1169    1.2175   -0.7442 H   0  0  0  0  0  0  0  0  0  0  0  0
   -1.9920    2.4795    0.6148 H   0  0  0  0  0  0  0  0  0  0  0  0
   -3.3528   -1.0713   -0.4203 H   0  0  0  0  0  0  0  0  0  0  0  0
   -2.8428   -1.6975    1.6700 H   0  0  0  0  0  0  0  0  0  0  0  0
   -1.0376   -1.4887   -1.5056 H   0  0  0  0  0  0  0  0  0  0  0  0
   -1.6250   -2.6204   -0.2757 H   0  0  0  0  0  0  0  0  0  0  0  0
    0.5957   -2.2620    0.2577 H   0  0  0  0  0  0  0  0  0  0  0  0
   -0.3514   -1.3552    1.4800 H   0  0  0  0  0  0  0  0  0  0  0  0
  1  2  2  3
  2  3  1  0
  3  4  1  0
  2  5  1  0
  5  6  1  0
  6  7  1  0
  7  8  1  0
  8  9  1  0
  8 10  1  0
 10 11  1  0
 10 12  1  0
 12 13  1  0
 13  5  1  0
  1 14  1  0
  3 15  1  0
  4 16  1  0
  4 17  1  0
  6 18  1  0
  6 19  1  0
  7 20  1  0
  7 21  1  0
  8 22  1  6
  9 23  1  0
 10 24  1  6
 11 25  1  0
 12 26  1  0
 12 27  1  0
 13 28  1  0
 13 29  1  0
M  END
$$$$
