
     RDKit          3D

 31 31  0  0  0  0  0  0  0  0999 V2000
   -2.5074   -1.0113    1.2789 N   0  0  0  0  0  0  0  0  0  0  0  0
   -2.5410   -0.4020   -0.0392 C   0  0  1  0  0  0  0  0  0  0  0  0
   -3.8381    0.3954   -0.0970 C   0  0  0  0  0  0  0  0  0  0  0  0
   -3.8778    0.9825   -1.3573 O   0  0  0  0  0  0  0  0  0  0  0  0
   -1.4287    0.5373   -0.3156 C   0  0  0  0  0  0  0  0  0  0  0  0
   -0.1085    0.0545   -0.2669 N   0  0  0  0  0  0  0  0  0  0  0  0
    0.4461   -0.3318    0.9736 C   0  0  0  0  0  0  0  0  0  0  0  0
    1.7131   -1.0547    0.6708 C   0  0  0  0  0  0  0  0  0  0  0  0
    2.6048   -0.3834   -0.0478 C   0  0  0  0  0  0  0  0  0  0  0  0
    3.9133   -0.9312   -0.4465 C   0  0  0  0  0  0  0  0  0  0  0  0
    4.8992   -0.1057    0.0936 O   0  0  0  0  0  0  0  0  0  0  0  0
    2.1682    1.0117   -0.4343 C   0  0  0  0  0  0  0  0  0  0  0  0
    0.7640    0.9979   -0.9310 C   0  0  0  0  0  0  0  0  0  0  0  0
   -3.3992   -1.5365    1.4082 H   0  0  0  0  0  0  0  0  0  0  0  0
   -2.4031   -0.2982    2.0326 H   0  0  0  0  0  0  0  0  0  0  0  0
   -2.6508   -1.1798   -0.8338 H   0  0  0  0  0  0  0  0  0  0  0  0
   -3.7964    1.2056    0.6831 H   0  0  0  0  0  0  0  0  0  0  0  0
   -4.7257   -0.2308    0.0581 H   0  0  0  0  0  0  0  0  0  0  0  0
   -4.0822    1.9611   -1.3186 H   0  0  0  0  0  0  0  0  0  0  0  0
   -1.5334    1.4395    0.3290 H   0  0  0  0  0  0  0  0  0  0  0  0
   -1.5954    0.9382   -1.3577 H   0  0  0  0  0  0  0  0  0  0  0  0
   -0.1591   -0.9970    1.5844 H   0  0  0  0  0  0  0  0  0  0  0  0
    0.7523    0.5232    1.6250 H   0  0  0  0  0  0  0  0  0  0  0  0
    1.9120   -2.0569    1.0043 H   0  0  0  0  0  0  0  0  0  0  0  0
    4.0149   -0.9144   -1.5545 H   0  0  0  0  0  0  0  0  0  0  0  0
    3.9932   -1.9485   -0.0487 H   0  0  0  0  0  0  0  0  0  0  0  0
    5.3262   -0.5160    0.8805 H   0  0  0  0  0  0  0  0  0  0  0  0
    2.8206    1.4453   -1.2100 H   0  0  0  0  0  0  0  0  0  0  0  0
    2.2382    1.6467    0.4921 H   0  0  0  0  0  0  0  0  0  0  0  0
    0.3205    2.0296   -0.8431 H   0  0  0  0  0  0  0  0  0  0  0  0
    0.7601    0.7439   -2.0123 H   0  0  0  0  0  0  0  0  0  0  0  0
  1  2  1  0
  2  3  1  0
  3  4  1  0
  2  5  1  0
  5  6  1  0
  6  7  1  0
  7  8  1  0
  8  9  2  0
  9 10  1  0
 10 11  1  0
  9 12  1  0
 12 13  1  0
 13  6  1  0
  1 14  1  0
  1 15  1  0
  2 16  1  6
  3 17  1  0
  3 18  1  0
  4 19  1  0
  5 20  1  0
  5 21  1  0
  7 22  1  0
  7 23  1  0
  8 24  1  0
 10 25  1  0
 10 26  1  0
 11 27  1  0
 12 28  1  0
 12 29  1  0
 13 30  1  0
 13 31  1  0
M  END
$$$$

     RDKit          3D

 31 31  0  0  0  0  0  0  0  0999 V2000
   -2.3016    0.7734   -1.1789 N   0  0  0  0  0  0  0  0  0  0  0  0
   -2.4954    0.2862    0.1615 C   0  0  1  0  0  0  0  0  0  0  0  0
   -3.8842   -0.2961    0.3600 C   0  0  0  0  0  0  0  0  0  0  0  0
   -4.0854   -1.3742   -0.5279 O   0  0  0  0  0  0  0  0  0  0  0  0
   -1.4595   -0.8227    0.3575 C   0  0  0  0  0  0  0  0  0  0  0  0
   -0.1349   -0.3207    0.1971 N   0  0  0  0  0  0  0  0  0  0  0  0
    0.2062    0.5547    1.2635 C   0  0  0  0  0  0  0  0  0  0  0  0
    1.6658    0.8578    1.3174 C   0  0  0  0  0  0  0  0  0  0  0  0
    2.5615    0.3591    0.4899 C   0  0  0  0  0  0  0  0  0  0  0  0
    3.9866    0.7219    0.6247 C   0  0  0  0  0  0  0  0  0  0  0  0
    4.3795    1.3368   -0.5753 O   0  0  0  0  0  0  0  0  0  0  0  0
    2.1127   -0.5707   -0.5712 C   0  0  0  0  0  0  0  0  0  0  0  0
    0.8541   -1.2911   -0.1285 C   0  0  0  0  0  0  0  0  0  0  0  0
   -2.0137    1.7715   -1.2295 H   0  0  0  0  0  0  0  0  0  0  0  0
   -1.7448    0.1432   -1.7754 H   0  0  0  0  0  0  0  0  0  0  0  0
   -2.3777    1.1172    0.8619 H   0  0  0  0  0  0  0  0  0  0  0  0
   -4.6564    0.4733    0.1264 H   0  0  0  0  0  0  0  0  0  0  0  0
   -3.9800   -0.6636    1.3927 H   0  0  0  0  0  0  0  0  0  0  0  0
   -3.5895   -1.1918   -1.3835 H   0  0  0  0  0  0  0  0  0  0  0  0
   -1.6888   -1.6486   -0.3589 H   0  0  0  0  0  0  0  0  0  0  0  0
   -1.6517   -1.2382    1.3786 H   0  0  0  0  0  0  0  0  0  0  0  0
   -0.3688    1.5033    1.1470 H   0  0  0  0  0  0  0  0  0  0  0  0
   -0.0609    0.0825    2.2351 H   0  0  0  0  0  0  0  0  0  0  0  0
    2.0034    1.5255    2.0799 H   0  0  0  0  0  0  0  0  0  0  0  0
    4.1250    1.4249    1.4604 H   0  0  0  0  0  0  0  0  0  0  0  0
    4.5833   -0.2064    0.7891 H   0  0  0  0  0  0  0  0  0  0  0  0
    3.6292    1.9257   -0.8520 H   0  0  0  0  0  0  0  0  0  0  0  0
    1.8811   -0.0406   -1.5289 H   0  0  0  0  0  0  0  0  0  0  0  0
    2.8976   -1.3117   -0.7985 H   0  0  0  0  0  0  0  0  0  0  0  0
    1.1132   -1.9670    0.7032 H   0  0  0  0  0  0  0  0  0  0  0  0
    0.4943   -1.9137   -0.9655 H   0  0  0  0  0  0  0  0  0  0  0  0
  1  2  1  0
  2  3  1  0
  3  4  1  0
  2  5  1  0
  5  6  1  0
  6  7  1  0
  7  8  1  0
  8  9  2  0
  9 10  1  0
 10 11  1  0
  9 12  1  0
 12 13  1  0
 13  6  1  0
  1 14  1  0
  1 15  1  0
  2 16  1  1
  3 17  1  0
  3 18  1  0
  4 19  1  0
  5 20  1  0
  5 21  1  0
  7 22  1  0
  7 23  1  0
  8 24  1  0
 10 25  1  0
 10 26  1  0
 11 27  1  0
 12 28  1  0
 12 29  1  0
 13 30  1  0
 13 31  1  0
M  END
$$$$

     RDKit          3D

 31 31  0  0  0  0  0  0  0  0999 V2000
    3.1628    0.1159   -1.1271 N   0  0  0  0  0  0  0  0  0  0  0  0
    2.5795   -0.2700    0.1340 C   0  0  1  0  0  0  0  0  0  0  0  0
    3.5227    0.1849    1.2375 C   0  0  0  0  0  0  0  0  0  0  0  0
    2.9686   -0.1814    2.4705 O   0  0  0  0  0  0  0  0  0  0  0  0
    1.2516    0.3452    0.3913 C   0  0  0  0  0  0  0  0  0  0  0  0
    0.2283    0.0440   -0.5545 N   0  0  0  0  0  0  0  0  0  0  0  0
   -0.2480   -1.2630   -0.6087 C   0  0  0  0  0  0  0  0  0  0  0  0
   -1.7283   -1.4385   -0.6093 C   0  0  0  0  0  0  0  0  0  0  0  0
   -2.5714   -0.4551   -0.3810 C   0  0  0  0  0  0  0  0  0  0  0  0
   -4.0464   -0.6310   -0.3826 C   0  0  0  0  0  0  0  0  0  0  0  0
   -4.5637   -0.2809    0.8739 O   0  0  0  0  0  0  0  0  0  0  0  0
   -2.0327    0.9016   -0.1065 C   0  0  0  0  0  0  0  0  0  0  0  0
   -0.6844    1.1126   -0.7450 C   0  0  0  0  0  0  0  0  0  0  0  0
    3.9514   -0.5130   -1.3954 H   0  0  0  0  0  0  0  0  0  0  0  0
    2.4661    0.0191   -1.9224 H   0  0  0  0  0  0  0  0  0  0  0  0
    2.5400   -1.3926    0.2225 H   0  0  0  0  0  0  0  0  0  0  0  0
    4.5450   -0.2088    1.1078 H   0  0  0  0  0  0  0  0  0  0  0  0
    3.5318    1.3009    1.2200 H   0  0  0  0  0  0  0  0  0  0  0  0
    3.6291   -0.7379    2.9743 H   0  0  0  0  0  0  0  0  0  0  0  0
    0.9366    0.1022    1.4137 H   0  0  0  0  0  0  0  0  0  0  0  0
    1.3981    1.4647    0.3611 H   0  0  0  0  0  0  0  0  0  0  0  0
    0.1096   -1.7499   -1.5650 H   0  0  0  0  0  0  0  0  0  0  0  0
    0.1363   -1.9445    0.1983 H   0  0  0  0  0  0  0  0  0  0  0  0
   -2.1432   -2.4227   -0.8084 H   0  0  0  0  0  0  0  0  0  0  0  0
   -4.3472   -1.6714   -0.6179 H   0  0  0  0  0  0  0  0  0  0  0  0
   -4.4629    0.0818   -1.1074 H   0  0  0  0  0  0  0  0  0  0  0  0
   -4.3541    0.6969    0.9795 H   0  0  0  0  0  0  0  0  0  0  0  0
   -2.7472    1.6427   -0.5196 H   0  0  0  0  0  0  0  0  0  0  0  0
   -1.9878    1.0446    0.9863 H   0  0  0  0  0  0  0  0  0  0  0  0
   -0.2536    2.0296   -0.2878 H   0  0  0  0  0  0  0  0  0  0  0  0
   -0.7866    1.3144   -1.8318 H   0  0  0  0  0  0  0  0  0  0  0  0
  1  2  1  0
  2  3  1  0
  3  4  1  0
  2  5  1  0
  5  6  1  0
  6  7  1  0
  7  8  1  0
  8  9  2  0
  9 10  1  0
 10 11  1  0
  9 12  1  0
 12 13  1  0
 13  6  1  0
  1 14  1  0
  1 15  1  0
  2 16  1  6
  3 17  1  0
  3 18  1  0
  4 19  1  0
  5 20  1  0
  5 21  1  0
  7 22  1  0
  7 23  1  0
  8 24  1  0
 10 25  1  0
 10 26  1  0
 11 27  1  0
 12 28  1  0
 12 29  1  0
 13 30  1  0
 13 31  1  0
M  END
$$$$

     RDKit          3D

 31 31  0  0  0  0  0  0  0  0999 V2000
    2.3882   -1.4479   -0.9967 N   0  0  0  0  0  0  0  0  0  0  0  0
    2.4741   -0.5834    0.1604 C   0  0  1  0  0  0  0  0  0  0  0  0
    3.8859   -0.0975    0.3686 C   0  0  0  0  0  0  0  0  0  0  0  0
    4.3713    0.6327   -0.7099 O   0  0  0  0  0  0  0  0  0  0  0  0
    1.5412    0.5770    0.0889 C   0  0  0  0  0  0  0  0  0  0  0  0
    0.1348    0.1856    0.0149 N   0  0  0  0  0  0  0  0  0  0  0  0
   -0.3368   -0.3865    1.2224 C   0  0  0  0  0  0  0  0  0  0  0  0
   -1.7006   -0.9006    1.0134 C   0  0  0  0  0  0  0  0  0  0  0  0
   -2.5711   -0.1164    0.4087 C   0  0  0  0  0  0  0  0  0  0  0  0
   -3.9404   -0.6020    0.1878 C   0  0  0  0  0  0  0  0  0  0  0  0
   -4.3208   -0.6581   -1.1299 O   0  0  0  0  0  0  0  0  0  0  0  0
   -2.0914    1.2341   -0.0125 C   0  0  0  0  0  0  0  0  0  0  0  0
   -0.6557    1.2826   -0.4020 C   0  0  0  0  0  0  0  0  0  0  0  0
    3.0905   -2.2097   -0.8870 H   0  0  0  0  0  0  0  0  0  0  0  0
    1.4429   -1.8912   -1.0338 H   0  0  0  0  0  0  0  0  0  0  0  0
    2.2569   -1.2584    1.0289 H   0  0  0  0  0  0  0  0  0  0  0  0
    3.9790    0.5433    1.2785 H   0  0  0  0  0  0  0  0  0  0  0  0
    4.5646   -0.9696    0.5863 H   0  0  0  0  0  0  0  0  0  0  0  0
    3.9128    1.5005   -0.7867 H   0  0  0  0  0  0  0  0  0  0  0  0
    1.7036    1.2415    0.9744 H   0  0  0  0  0  0  0  0  0  0  0  0
    1.7527    1.1514   -0.8301 H   0  0  0  0  0  0  0  0  0  0  0  0
   -0.4427    0.4265    2.0026 H   0  0  0  0  0  0  0  0  0  0  0  0
    0.3446   -1.1443    1.6683 H   0  0  0  0  0  0  0  0  0  0  0  0
   -1.9706   -1.8835    1.3326 H   0  0  0  0  0  0  0  0  0  0  0  0
   -4.0870   -1.5710    0.7130 H   0  0  0  0  0  0  0  0  0  0  0  0
   -4.6100    0.1331    0.7361 H   0  0  0  0  0  0  0  0  0  0  0  0
   -5.3095   -0.4385   -1.1613 H   0  0  0  0  0  0  0  0  0  0  0  0
   -2.3426    1.9262    0.8410 H   0  0  0  0  0  0  0  0  0  0  0  0
   -2.6978    1.6008   -0.8788 H   0  0  0  0  0  0  0  0  0  0  0  0
   -0.2241    2.2226    0.0610 H   0  0  0  0  0  0  0  0  0  0  0  0
   -0.5421    1.5007   -1.5101 H   0  0  0  0  0  0  0  0  0  0  0  0
  1  2  1  0
  2  3  1  0
  3  4  1  0
  2  5  1  0
  5  6  1  0
  6  7  1  0
  7  8  1  0
  8  9  2  0
  9 10  1  0
 10 11  1  0
  9 12  1  0
 12 13  1  0
 13  6  1  0
  1 14  1  0
  1 15  1  0
  2 16  1  1
  3 17  1  0
  3 18  1  0
  4 19  1  0
  5 20  1  0
  5 21  1  0
  7 22  1  0
  7 23  1  0
  8 24  1  0
 10 25  1  0
 10 26  1  0
 11 27  1  0
 12 28  1  0
 12 29  1  0
 13 30  1  0
 13 31  1  0
M  END
$$$$

     RDKit          3D

 31 31  0  0  0  0  0  0  0  0999 V2000
   -2.3385   -1.6239   -0.6762 N   0  0  0  0  0  0  0  0  0  0  0  0
   -2.5535   -0.2252   -0.4290 C   0  0  1  0  0  0  0  0  0  0  0  0
   -3.3303   -0.0544    0.8680 C   0  0  0  0  0  0  0  0  0  0  0  0
   -3.5839    1.2698    1.1530 O   0  0  0  0  0  0  0  0  0  0  0  0
   -1.3551    0.6469   -0.4587 C   0  0  0  0  0  0  0  0  0  0  0  0
   -0.3027    0.3362    0.4844 N   0  0  0  0  0  0  0  0  0  0  0  0
    0.5964    1.4647    0.6419 C   0  0  0  0  0  0  0  0  0  0  0  0
    2.0179    1.2154    0.5431 C   0  0  0  0  0  0  0  0  0  0  0  0
    2.5620    0.2135   -0.1764 C   0  0  0  0  0  0  0  0  0  0  0  0
    4.0183    0.0098   -0.2375 C   0  0  0  0  0  0  0  0  0  0  0  0
    4.4143   -1.2361    0.2278 O   0  0  0  0  0  0  0  0  0  0  0  0
    1.5514   -0.6419   -0.8578 C   0  0  0  0  0  0  0  0  0  0  0  0
    0.4255   -0.8689    0.1546 C   0  0  0  0  0  0  0  0  0  0  0  0
   -3.0535   -2.1846   -0.1104 H   0  0  0  0  0  0  0  0  0  0  0  0
   -2.3705   -1.9031   -1.6609 H   0  0  0  0  0  0  0  0  0  0  0  0
   -3.2428    0.1809   -1.2389 H   0  0  0  0  0  0  0  0  0  0  0  0
   -2.7773   -0.5150    1.7264 H   0  0  0  0  0  0  0  0  0  0  0  0
   -4.2822   -0.6184    0.7948 H   0  0  0  0  0  0  0  0  0  0  0  0
   -3.7363    1.8207    0.3417 H   0  0  0  0  0  0  0  0  0  0  0  0
   -0.9572    0.7110   -1.5021 H   0  0  0  0  0  0  0  0  0  0  0  0
   -1.6999    1.6947   -0.2231 H   0  0  0  0  0  0  0  0  0  0  0  0
    0.4023    1.8476    1.6963 H   0  0  0  0  0  0  0  0  0  0  0  0
    0.2943    2.3284   -0.0065 H   0  0  0  0  0  0  0  0  0  0  0  0
    2.7265    1.8511    1.0744 H   0  0  0  0  0  0  0  0  0  0  0  0
    4.5706    0.8126    0.3204 H   0  0  0  0  0  0  0  0  0  0  0  0
    4.3923    0.0653   -1.2891 H   0  0  0  0  0  0  0  0  0  0  0  0
    3.6648   -1.8756    0.1944 H   0  0  0  0  0  0  0  0  0  0  0  0
    2.0031   -1.6373   -1.0108 H   0  0  0  0  0  0  0  0  0  0  0  0
    1.1963   -0.2485   -1.8203 H   0  0  0  0  0  0  0  0  0  0  0  0
    0.9337   -1.1837    1.1003 H   0  0  0  0  0  0  0  0  0  0  0  0
   -0.1860   -1.6521   -0.2457 H   0  0  0  0  0  0  0  0  0  0  0  0
  1  2  1  0
  2  3  1  0
  3  4  1  0
  2  5  1  0
  5  6  1  0
  6  7  1  0
  7  8  1  0
  8  9  2  0
  9 10  1  0
 10 11  1  0
  9 12  1  0
 12 13  1  0
 13  6  1  0
  1 14  1  0
  1 15  1  0
  2 16  1  6
  3 17  1  0
  3 18  1  0
  4 19  1  0
  5 20  1  0
  5 21  1  0
  7 22  1  0
  7 23  1  0
  8 24  1  0
 10 25  1  0
 10 26  1  0
 11 27  1  0
 12 28  1  0
 12 29  1  0
 13 30  1  0
 13 31  1  0
M  END
$$$$

     RDKit          3D

 31 31  0  0  0  0  0  0  0  0999 V2000
   -2.4839   -1.5004    0.9007 N   0  0  0  0  0  0  0  0  0  0  0  0
   -2.5525   -0.5445   -0.1419 C   0  0  1  0  0  0  0  0  0  0  0  0
   -3.3970    0.6623    0.3017 C   0  0  0  0  0  0  0  0  0  0  0  0
   -3.4648    1.6002   -0.7221 O   0  0  0  0  0  0  0  0  0  0  0  0
   -1.2975   -0.1009   -0.7959 C   0  0  0  0  0  0  0  0  0  0  0  0
   -0.3117    0.5160    0.0721 N   0  0  0  0  0  0  0  0  0  0  0  0
    0.6448    1.2527   -0.7277 C   0  0  0  0  0  0  0  0  0  0  0  0
    2.0593    1.1731   -0.3142 C   0  0  0  0  0  0  0  0  0  0  0  0
    2.5227   -0.0132    0.0124 C   0  0  0  0  0  0  0  0  0  0  0  0
    3.8812   -0.2756    0.4393 C   0  0  0  0  0  0  0  0  0  0  0  0
    4.6730    0.8756    0.4754 O   0  0  0  0  0  0  0  0  0  0  0  0
    1.5111   -1.1016   -0.0541 C   0  0  0  0  0  0  0  0  0  0  0  0
    0.3555   -0.5293    0.8090 C   0  0  0  0  0  0  0  0  0  0  0  0
   -2.6936   -2.4740    0.5768 H   0  0  0  0  0  0  0  0  0  0  0  0
   -3.0034   -1.2354    1.7755 H   0  0  0  0  0  0  0  0  0  0  0  0
   -3.1606   -1.0313   -0.9668 H   0  0  0  0  0  0  0  0  0  0  0  0
   -2.8868    1.1827    1.1533 H   0  0  0  0  0  0  0  0  0  0  0  0
   -4.4187    0.3355    0.5577 H   0  0  0  0  0  0  0  0  0  0  0  0
   -4.3973    1.7276   -1.0062 H   0  0  0  0  0  0  0  0  0  0  0  0
   -1.5766    0.5944   -1.6218 H   0  0  0  0  0  0  0  0  0  0  0  0
   -0.8486   -1.0305   -1.2674 H   0  0  0  0  0  0  0  0  0  0  0  0
    0.3853    2.3581   -0.7305 H   0  0  0  0  0  0  0  0  0  0  0  0
    0.5315    0.9467   -1.8046 H   0  0  0  0  0  0  0  0  0  0  0  0
    2.7122    2.0608   -0.2689 H   0  0  0  0  0  0  0  0  0  0  0  0
    4.4286   -0.9812   -0.2711 H   0  0  0  0  0  0  0  0  0  0  0  0
    3.9798   -0.7464    1.4545 H   0  0  0  0  0  0  0  0  0  0  0  0
    5.1943    0.9602    1.2872 H   0  0  0  0  0  0  0  0  0  0  0  0
    1.1561   -1.1996   -1.0799 H   0  0  0  0  0  0  0  0  0  0  0  0
    1.8549   -2.0551    0.3578 H   0  0  0  0  0  0  0  0  0  0  0  0
    0.8496   -0.0473    1.6948 H   0  0  0  0  0  0  0  0  0  0  0  0
   -0.2464   -1.3799    1.1036 H   0  0  0  0  0  0  0  0  0  0  0  0
  1  2  1  0
  2  3  1  0
  3  4  1  0
  2  5  1  0
  5  6  1  0
  6  7  1  0
  7  8  1  0
  8  9  2  0
  9 10  1  0
 10 11  1  0
  9 12  1  0
 12 13  1  0
 13  6  1  0
  1 14  1  0
  1 15  1  0
  2 16  1  6
  3 17  1  0
  3 18  1  0
  4 19  1  0
  5 20  1  0
  5 21  1  0
  7 22  1  0
  7 23  1  0
  8 24  1  0
 10 25  1  0
 10 26  1  0
 11 27  1  0
 12 28  1  0
 12 29  1  0
 13 30  1  0
 13 31  1  0
M  END
$$$$

     RDKit          3D

 31 31  0  0  0  0  0  0  0  0999 V2000
   -2.4034    1.9196    0.2570 N   0  0  0  0  0  0  0  0  0  0  0  0
   -2.4746    0.4863    0.4740 C   0  0  1  0  0  0  0  0  0  0  0  0
   -3.8444    0.0419   -0.0134 C   0  0  0  0  0  0  0  0  0  0  0  0
   -4.8769    0.6693    0.6750 O   0  0  0  0  0  0  0  0  0  0  0  0
   -1.4544   -0.2503   -0.3057 C   0  0  0  0  0  0  0  0  0  0  0  0
   -0.0851    0.0684   -0.0500 N   0  0  0  0  0  0  0  0  0  0  0  0
    0.4190   -0.2996    1.2172 C   0  0  0  0  0  0  0  0  0  0  0  0
    1.8763    0.0055    1.2891 C   0  0  0  0  0  0  0  0  0  0  0  0
    2.6718   -0.2940    0.2847 C   0  0  0  0  0  0  0  0  0  0  0  0
    4.1258   -0.0306    0.2652 C   0  0  0  0  0  0  0  0  0  0  0  0
    4.5690    0.5757    1.4376 O   0  0  0  0  0  0  0  0  0  0  0  0
    2.0090   -0.9340   -0.8802 C   0  0  0  0  0  0  0  0  0  0  0  0
    0.6796   -0.3160   -1.1923 C   0  0  0  0  0  0  0  0  0  0  0  0
   -1.5072    2.1257   -0.2355 H   0  0  0  0  0  0  0  0  0  0  0  0
   -2.4643    2.4678    1.1368 H   0  0  0  0  0  0  0  0  0  0  0  0
   -2.4608    0.3226    1.5604 H   0  0  0  0  0  0  0  0  0  0  0  0
   -3.8999   -1.0543    0.0879 H   0  0  0  0  0  0  0  0  0  0  0  0
   -3.9236    0.2949   -1.0871 H   0  0  0  0  0  0  0  0  0  0  0  0
   -5.5812   -0.0259    0.8144 H   0  0  0  0  0  0  0  0  0  0  0  0
   -1.6407   -0.0477   -1.3849 H   0  0  0  0  0  0  0  0  0  0  0  0
   -1.5813   -1.3451   -0.1823 H   0  0  0  0  0  0  0  0  0  0  0  0
   -0.0456    0.3368    1.9946 H   0  0  0  0  0  0  0  0  0  0  0  0
    0.2944   -1.3736    1.4687 H   0  0  0  0  0  0  0  0  0  0  0  0
    2.3493    0.4838    2.1636 H   0  0  0  0  0  0  0  0  0  0  0  0
    4.4582    0.5586   -0.6161 H   0  0  0  0  0  0  0  0  0  0  0  0
    4.6871   -0.9985    0.1957 H   0  0  0  0  0  0  0  0  0  0  0  0
    4.6499   -0.0431    2.1899 H   0  0  0  0  0  0  0  0  0  0  0  0
    2.6630   -0.8408   -1.7682 H   0  0  0  0  0  0  0  0  0  0  0  0
    1.9076   -2.0150   -0.6458 H   0  0  0  0  0  0  0  0  0  0  0  0
    0.1104   -1.0671   -1.7772 H   0  0  0  0  0  0  0  0  0  0  0  0
    0.7729    0.5786   -1.8513 H   0  0  0  0  0  0  0  0  0  0  0  0
  1  2  1  0
  2  3  1  0
  3  4  1  0
  2  5  1  0
  5  6  1  0
  6  7  1  0
  7  8  1  0
  8  9  2  0
  9 10  1  0
 10 11  1  0
  9 12  1  0
 12 13  1  0
 13  6  1  0
  1 14  1  0
  1 15  1  0
  2 16  1  1
  3 17  1  0
  3 18  1  0
  4 19  1  0
  5 20  1  0
  5 21  1  0
  7 22  1  0
  7 23  1  0
  8 24  1  0
 10 25  1  0
 10 26  1  0
 11 27  1  0
 12 28  1  0
 12 29  1  0
 13 30  1  0
 13 31  1  0
M  END
$$$$

     RDKit          3D

 31 31  0  0  0  0  0  0  0  0999 V2000
    2.6448    0.4437    1.3535 N   0  0  0  0  0  0  0  0  0  0  0  0
    2.3398    0.7539   -0.0143 C   0  0  1  0  0  0  0  0  0  0  0  0
    3.6522    0.5684   -0.7924 C   0  0  0  0  0  0  0  0  0  0  0  0
    4.0089   -0.7661   -0.6024 O   0  0  0  0  0  0  0  0  0  0  0  0
    1.4019   -0.2981   -0.5355 C   0  0  0  0  0  0  0  0  0  0  0  0
    0.1528   -0.3836    0.1936 N   0  0  0  0  0  0  0  0  0  0  0  0
   -0.5962   -1.4459   -0.4293 C   0  0  0  0  0  0  0  0  0  0  0  0
   -1.9942   -1.5136   -0.0209 C   0  0  0  0  0  0  0  0  0  0  0  0
   -2.6741   -0.3974    0.1761 C   0  0  0  0  0  0  0  0  0  0  0  0
   -4.1119   -0.4297    0.5967 C   0  0  0  0  0  0  0  0  0  0  0  0
   -4.8750    0.2177   -0.3695 O   0  0  0  0  0  0  0  0  0  0  0  0
   -1.9627    0.8787   -0.0388 C   0  0  0  0  0  0  0  0  0  0  0  0
   -0.5080    0.8704    0.2390 C   0  0  0  0  0  0  0  0  0  0  0  0
    3.4854   -0.1536    1.4755 H   0  0  0  0  0  0  0  0  0  0  0  0
    2.6033    1.2577    1.9935 H   0  0  0  0  0  0  0  0  0  0  0  0
    1.9929    1.7727   -0.1634 H   0  0  0  0  0  0  0  0  0  0  0  0
    3.4621    0.7365   -1.8708 H   0  0  0  0  0  0  0  0  0  0  0  0
    4.4221    1.2667   -0.4240 H   0  0  0  0  0  0  0  0  0  0  0  0
    4.6463   -1.0937   -1.2879 H   0  0  0  0  0  0  0  0  0  0  0  0
    1.8585   -1.3083   -0.5158 H   0  0  0  0  0  0  0  0  0  0  0  0
    1.1364   -0.1142   -1.6072 H   0  0  0  0  0  0  0  0  0  0  0  0
   -0.0920   -2.3938   -0.1541 H   0  0  0  0  0  0  0  0  0  0  0  0
   -0.5458   -1.3840   -1.5538 H   0  0  0  0  0  0  0  0  0  0  0  0
   -2.4608   -2.4795    0.1163 H   0  0  0  0  0  0  0  0  0  0  0  0
   -4.1599    0.0951    1.5735 H   0  0  0  0  0  0  0  0  0  0  0  0
   -4.4130   -1.4986    0.7002 H   0  0  0  0  0  0  0  0  0  0  0  0
   -4.3892    1.0697   -0.5870 H   0  0  0  0  0  0  0  0  0  0  0  0
   -2.5253    1.6567    0.5342 H   0  0  0  0  0  0  0  0  0  0  0  0
   -2.1368    1.1497   -1.1223 H   0  0  0  0  0  0  0  0  0  0  0  0
   -0.0066    1.6182   -0.4453 H   0  0  0  0  0  0  0  0  0  0  0  0
   -0.3560    1.3044    1.2661 H   0  0  0  0  0  0  0  0  0  0  0  0
  1  2  1  0
  2  3  1  0
  3  4  1  0
  2  5  1  0
  5  6  1  0
  6  7  1  0
  7  8  1  0
  8  9  2  0
  9 10  1  0
 10 11  1  0
  9 12  1  0
 12 13  1  0
 13  6  1  0
  1 14  1  0
  1 15  1  0
  2 16  1  1
  3 17  1  0
  3 18  1  0
  4 19  1  0
  5 20  1  0
  5 21  1  0
  7 22  1  0
  7 23  1  0
  8 24  1  0
 10 25  1  0
 10 26  1  0
 11 27  1  0
 12 28  1  0
 12 29  1  0
 13 30  1  0
 13 31  1  0
M  END
$$$$
