
     RDKit          3D

 25 25  0  0  0  0  0  0  0  0999 V2000
   -2.9539   -1.2385    0.6705 N   0  0  0  0  0  0  0  0  0  0  0  0
   -2.1991   -0.6687   -0.3933 C   0  0  0  0  0  0  0  0  0  0  0  0
   -0.8070   -0.1978    0.0592 C   0  0  2  0  0  0  0  0  0  0  0  0
   -1.0568    0.8285    1.1186 C   0  0  0  0  0  0  0  0  0  0  0  0
   -1.7953    1.9010    0.6378 F   0  0  0  0  0  0  0  0  0  0  0  0
   -0.1285    0.1838   -1.0739 N   0  0  0  0  0  0  0  0  0  0  0  0
    1.2111    0.5335   -1.1357 C   0  0  2  0  0  0  0  0  0  0  0  0
    2.0234   -0.7113   -0.7318 C   0  0  0  0  0  0  0  0  0  0  0  0
    2.5727   -0.3629    0.5867 C   0  0  0  0  0  0  0  0  0  0  0  0
    3.0593   -1.1655    1.4320 O   0  0  0  0  0  0  0  0  0  0  0  0
    2.4660    1.0435    0.7579 N   0  0  0  0  0  0  0  0  0  0  0  0
    1.6928    1.6061   -0.2907 C   0  0  0  0  0  0  0  0  0  0  0  0
    1.5109    2.8349   -0.3889 O   0  0  0  0  0  0  0  0  0  0  0  0
   -2.8830   -2.2578    0.6611 H   0  0  0  0  0  0  0  0  0  0  0  0
   -3.8814   -0.8265    0.8129 H   0  0  0  0  0  0  0  0  0  0  0  0
   -2.7171    0.1432   -0.9492 H   0  0  0  0  0  0  0  0  0  0  0  0
   -2.0033   -1.4759   -1.1533 H   0  0  0  0  0  0  0  0  0  0  0  0
   -0.3496   -1.0807    0.5459 H   0  0  0  0  0  0  0  0  0  0  0  0
   -0.1628    1.1256    1.6928 H   0  0  0  0  0  0  0  0  0  0  0  0
   -1.7359    0.3368    1.8777 H   0  0  0  0  0  0  0  0  0  0  0  0
   -0.4647   -0.2336   -1.9481 H   0  0  0  0  0  0  0  0  0  0  0  0
    1.4932    0.7205   -2.1947 H   0  0  0  0  0  0  0  0  0  0  0  0
    2.8080   -0.9528   -1.4739 H   0  0  0  0  0  0  0  0  0  0  0  0
    1.3774   -1.6228   -0.6954 H   0  0  0  0  0  0  0  0  0  0  0  0
    2.9239    1.5374    1.5758 H   0  0  0  0  0  0  0  0  0  0  0  0
  1  2  1  0
  2  3  1  0
  3  4  1  0
  4  5  1  0
  3  6  1  0
  6  7  1  0
  7  8  1  0
  8  9  1  0
  9 10  2  0
  9 11  1  0
 11 12  1  0
 12 13  2  0
 12  7  1  0
  1 14  1  0
  1 15  1  0
  2 16  1  0
  2 17  1  0
  3 18  1  1
  4 19  1  0
  4 20  1  0
  6 21  1  0
  7 22  1  6
  8 23  1  0
  8 24  1  0
 11 25  1  0
M  END
$$$$

     RDKit          3D

 25 25  0  0  0  0  0  0  0  0999 V2000
   -1.4587    2.1563    0.6742 N   0  0  0  0  0  0  0  0  0  0  0  0
   -2.0756    0.8551    0.5156 C   0  0  0  0  0  0  0  0  0  0  0  0
   -1.4572    0.0270   -0.5874 C   0  0  2  0  0  0  0  0  0  0  0  0
   -2.1063   -1.3072   -0.7135 C   0  0  0  0  0  0  0  0  0  0  0  0
   -2.0645   -2.0768    0.4118 F   0  0  0  0  0  0  0  0  0  0  0  0
   -0.0839    0.1198   -0.7719 N   0  0  0  0  0  0  0  0  0  0  0  0
    0.8694   -0.1874    0.1962 C   0  0  2  0  0  0  0  0  0  0  0  0
    2.1019    0.6994   -0.1313 C   0  0  0  0  0  0  0  0  0  0  0  0
    3.2632   -0.1015    0.2884 C   0  0  0  0  0  0  0  0  0  0  0  0
    4.3511    0.3575    0.7024 O   0  0  0  0  0  0  0  0  0  0  0  0
    2.8639   -1.4599    0.1127 N   0  0  0  0  0  0  0  0  0  0  0  0
    1.4281   -1.5390    0.2582 C   0  0  0  0  0  0  0  0  0  0  0  0
    0.8375   -2.6224    0.4100 O   0  0  0  0  0  0  0  0  0  0  0  0
   -0.8372    2.1895    1.5146 H   0  0  0  0  0  0  0  0  0  0  0  0
   -2.1811    2.9135    0.8922 H   0  0  0  0  0  0  0  0  0  0  0  0
   -3.1370    1.0592    0.1869 H   0  0  0  0  0  0  0  0  0  0  0  0
   -2.1817    0.2904    1.4704 H   0  0  0  0  0  0  0  0  0  0  0  0
   -1.8854    0.5870   -1.5428 H   0  0  0  0  0  0  0  0  0  0  0  0
   -1.6431   -1.8409   -1.6020 H   0  0  0  0  0  0  0  0  0  0  0  0
   -3.1907   -1.2320   -1.0144 H   0  0  0  0  0  0  0  0  0  0  0  0
    0.2694    0.7653   -1.5299 H   0  0  0  0  0  0  0  0  0  0  0  0
    0.5999    0.1279    1.2384 H   0  0  0  0  0  0  0  0  0  0  0  0
    2.1487    0.7756   -1.2372 H   0  0  0  0  0  0  0  0  0  0  0  0
    2.0427    1.6780    0.3491 H   0  0  0  0  0  0  0  0  0  0  0  0
    3.5266   -2.2343   -0.0904 H   0  0  0  0  0  0  0  0  0  0  0  0
  1  2  1  0
  2  3  1  0
  3  4  1  0
  4  5  1  0
  3  6  1  0
  6  7  1  0
  7  8  1  0
  8  9  1  0
  9 10  2  0
  9 11  1  0
 11 12  1  0
 12 13  2  0
 12  7  1  0
  1 14  1  0
  1 15  1  0
  2 16  1  0
  2 17  1  0
  3 18  1  6
  4 19  1  0
  4 20  1  0
  6 21  1  0
  7 22  1  1
  8 23  1  0
  8 24  1  0
 11 25  1  0
M  END
$$$$

     RDKit          3D

 25 25  0  0  0  0  0  0  0  0999 V2000
   -3.5608   -0.5996   -0.4732 N   0  0  0  0  0  0  0  0  0  0  0  0
   -2.2210   -0.7217   -0.9495 C   0  0  0  0  0  0  0  0  0  0  0  0
   -1.1851   -0.3787    0.1388 C   0  0  2  0  0  0  0  0  0  0  0  0
   -1.3888    1.0291    0.5859 C   0  0  0  0  0  0  0  0  0  0  0  0
   -2.7098    1.1179    1.0749 F   0  0  0  0  0  0  0  0  0  0  0  0
    0.0760   -0.6844   -0.4212 N   0  0  0  0  0  0  0  0  0  0  0  0
    1.2248   -0.5169    0.3731 C   0  0  2  0  0  0  0  0  0  0  0  0
    1.5884    0.8854    0.7294 C   0  0  0  0  0  0  0  0  0  0  0  0
    3.0466    1.0179    0.3445 C   0  0  0  0  0  0  0  0  0  0  0  0
    3.6684    2.0913    0.3204 O   0  0  0  0  0  0  0  0  0  0  0  0
    3.5208   -0.2635    0.0368 N   0  0  0  0  0  0  0  0  0  0  0  0
    2.4458   -1.1127   -0.2709 C   0  0  0  0  0  0  0  0  0  0  0  0
    2.4375   -2.1589   -0.9354 O   0  0  0  0  0  0  0  0  0  0  0  0
   -4.0414    0.2598   -0.7306 H   0  0  0  0  0  0  0  0  0  0  0  0
   -3.7693   -1.0112    0.4418 H   0  0  0  0  0  0  0  0  0  0  0  0
   -2.0908   -0.0374   -1.8011 H   0  0  0  0  0  0  0  0  0  0  0  0
   -1.9996   -1.7420   -1.2804 H   0  0  0  0  0  0  0  0  0  0  0  0
   -1.3690   -1.0445    1.0283 H   0  0  0  0  0  0  0  0  0  0  0  0
   -0.7682    1.2401    1.4836 H   0  0  0  0  0  0  0  0  0  0  0  0
   -1.2951    1.7819   -0.1876 H   0  0  0  0  0  0  0  0  0  0  0  0
    0.1648   -0.2781   -1.3867 H   0  0  0  0  0  0  0  0  0  0  0  0
    1.0996   -1.0801    1.3578 H   0  0  0  0  0  0  0  0  0  0  0  0
    1.5344    1.1146    1.8043 H   0  0  0  0  0  0  0  0  0  0  0  0
    1.0555    1.6521    0.1286 H   0  0  0  0  0  0  0  0  0  0  0  0
    4.5365   -0.5602    0.0331 H   0  0  0  0  0  0  0  0  0  0  0  0
  1  2  1  0
  2  3  1  0
  3  4  1  0
  4  5  1  0
  3  6  1  0
  6  7  1  0
  7  8  1  0
  8  9  1  0
  9 10  2  0
  9 11  1  0
 11 12  1  0
 12 13  2  0
 12  7  1  0
  1 14  1  0
  1 15  1  0
  2 16  1  0
  2 17  1  0
  3 18  1  1
  4 19  1  0
  4 20  1  0
  6 21  1  0
  7 22  1  1
  8 23  1  0
  8 24  1  0
 11 25  1  0
M  END
$$$$

     RDKit          3D

 25 25  0  0  0  0  0  0  0  0999 V2000
   -2.9381    1.0289    0.6957 N   0  0  0  0  0  0  0  0  0  0  0  0
   -1.7832    0.2092    0.9800 C   0  0  0  0  0  0  0  0  0  0  0  0
   -1.2484   -0.3489   -0.2730 C   0  0  2  0  0  0  0  0  0  0  0  0
   -2.2729   -1.2451   -1.0114 C   0  0  0  0  0  0  0  0  0  0  0  0
   -1.6316   -1.7427   -2.1297 F   0  0  0  0  0  0  0  0  0  0  0  0
    0.0216   -0.8665   -0.3898 N   0  0  0  0  0  0  0  0  0  0  0  0
    1.1642   -0.0830   -0.4336 C   0  0  2  0  0  0  0  0  0  0  0  0
    2.4383   -0.8704   -0.0238 C   0  0  0  0  0  0  0  0  0  0  0  0
    3.4404    0.2144   -0.0941 C   0  0  0  0  0  0  0  0  0  0  0  0
    4.6873    0.0633   -0.1807 O   0  0  0  0  0  0  0  0  0  0  0  0
    2.8072    1.4697   -0.0475 N   0  0  0  0  0  0  0  0  0  0  0  0
    1.3562    1.2056    0.1324 C   0  0  0  0  0  0  0  0  0  0  0  0
    0.6150    2.0374    0.6798 O   0  0  0  0  0  0  0  0  0  0  0  0
   -2.9367    1.3984   -0.2650 H   0  0  0  0  0  0  0  0  0  0  0  0
   -3.0585    1.7948    1.3692 H   0  0  0  0  0  0  0  0  0  0  0  0
   -1.1274    0.6704    1.6917 H   0  0  0  0  0  0  0  0  0  0  0  0
   -2.2295   -0.7016    1.5522 H   0  0  0  0  0  0  0  0  0  0  0  0
   -1.2546    0.5926   -0.9955 H   0  0  0  0  0  0  0  0  0  0  0  0
   -2.5801   -2.0715   -0.3379 H   0  0  0  0  0  0  0  0  0  0  0  0
   -3.1329   -0.6026   -1.2516 H   0  0  0  0  0  0  0  0  0  0  0  0
    0.1743   -1.7982    0.1435 H   0  0  0  0  0  0  0  0  0  0  0  0
    1.3612    0.0536   -1.5796 H   0  0  0  0  0  0  0  0  0  0  0  0
    2.5881   -1.6814   -0.7319 H   0  0  0  0  0  0  0  0  0  0  0  0
    2.3651   -1.1791    1.0207 H   0  0  0  0  0  0  0  0  0  0  0  0
    3.1750    2.4528   -0.1150 H   0  0  0  0  0  0  0  0  0  0  0  0
  1  2  1  0
  2  3  1  0
  3  4  1  0
  4  5  1  0
  3  6  1  0
  6  7  1  0
  7  8  1  0
  8  9  1  0
  9 10  2  0
  9 11  1  0
 11 12  1  0
 12 13  2  0
 12  7  1  0
  1 14  1  0
  1 15  1  0
  2 16  1  0
  2 17  1  0
  3 18  1  6
  4 19  1  0
  4 20  1  0
  6 21  1  0
  7 22  1  6
  8 23  1  0
  8 24  1  0
 11 25  1  0
M  END
$$$$

     RDKit          3D

 25 25  0  0  0  0  0  0  0  0999 V2000
   -2.3296    0.6595    1.7074 N   0  0  0  0  0  0  0  0  0  0  0  0
   -2.5108   -0.2415    0.5825 C   0  0  0  0  0  0  0  0  0  0  0  0
   -1.2662   -0.1109   -0.2744 C   0  0  2  0  0  0  0  0  0  0  0  0
   -1.4225   -1.0402   -1.4606 C   0  0  0  0  0  0  0  0  0  0  0  0
   -2.5642   -0.6220   -2.1384 F   0  0  0  0  0  0  0  0  0  0  0  0
   -0.1169   -0.4452    0.5361 N   0  0  0  0  0  0  0  0  0  0  0  0
    1.0634   -0.0749   -0.1959 C   0  0  2  0  0  0  0  0  0  0  0  0
    2.3315   -0.5997    0.4722 C   0  0  0  0  0  0  0  0  0  0  0  0
    3.3515    0.2617   -0.1808 C   0  0  0  0  0  0  0  0  0  0  0  0
    4.5117   -0.0658   -0.5236 O   0  0  0  0  0  0  0  0  0  0  0  0
    2.7182    1.5287   -0.3265 N   0  0  0  0  0  0  0  0  0  0  0  0
    1.3168    1.3923   -0.1073 C   0  0  0  0  0  0  0  0  0  0  0  0
    0.5083    2.3234    0.1090 O   0  0  0  0  0  0  0  0  0  0  0  0
   -2.6528    1.6148    1.5155 H   0  0  0  0  0  0  0  0  0  0  0  0
   -2.6202    0.2561    2.6050 H   0  0  0  0  0  0  0  0  0  0  0  0
   -3.3744    0.0604   -0.0332 H   0  0  0  0  0  0  0  0  0  0  0  0
   -2.5963   -1.2955    0.9063 H   0  0  0  0  0  0  0  0  0  0  0  0
   -1.1826    0.9199   -0.6553 H   0  0  0  0  0  0  0  0  0  0  0  0
   -1.6367   -2.0702   -1.1055 H   0  0  0  0  0  0  0  0  0  0  0  0
   -0.6014   -0.9876   -2.1729 H   0  0  0  0  0  0  0  0  0  0  0  0
   -0.0665   -1.4636    0.7255 H   0  0  0  0  0  0  0  0  0  0  0  0
    1.1013   -0.4033   -1.2355 H   0  0  0  0  0  0  0  0  0  0  0  0
    2.4893   -1.6719    0.2541 H   0  0  0  0  0  0  0  0  0  0  0  0
    2.3578   -0.3642    1.5561 H   0  0  0  0  0  0  0  0  0  0  0  0
    3.1913    2.4397   -0.5597 H   0  0  0  0  0  0  0  0  0  0  0  0
  1  2  1  0
  2  3  1  0
  3  4  1  0
  4  5  1  0
  3  6  1  0
  6  7  1  0
  7  8  1  0
  8  9  1  0
  9 10  2  0
  9 11  1  0
 11 12  1  0
 12 13  2  0
 12  7  1  0
  1 14  1  0
  1 15  1  0
  2 16  1  0
  2 17  1  0
  3 18  1  6
  4 19  1  0
  4 20  1  0
  6 21  1  0
  7 22  1  6
  8 23  1  0
  8 24  1  0
 11 25  1  0
M  END
$$$$

     RDKit          3D

 25 25  0  0  0  0  0  0  0  0999 V2000
   -1.8812    1.9342    0.5523 N   0  0  0  0  0  0  0  0  0  0  0  0
   -2.3753    0.6134    0.2702 C   0  0  0  0  0  0  0  0  0  0  0  0
   -1.2455   -0.2198   -0.3129 C   0  0  2  0  0  0  0  0  0  0  0  0
   -1.7809   -1.5941   -0.6021 C   0  0  0  0  0  0  0  0  0  0  0  0
   -2.8266   -1.4479   -1.5160 F   0  0  0  0  0  0  0  0  0  0  0  0
   -0.0868   -0.1500    0.4684 N   0  0  0  0  0  0  0  0  0  0  0  0
    1.1124   -0.6909   -0.0077 C   0  0  2  0  0  0  0  0  0  0  0  0
    2.1874   -0.5804    1.0412 C   0  0  0  0  0  0  0  0  0  0  0  0
    3.2892    0.2190    0.4723 C   0  0  0  0  0  0  0  0  0  0  0  0
    4.4790    0.2421    0.8883 O   0  0  0  0  0  0  0  0  0  0  0  0
    2.7193    0.9355   -0.6198 N   0  0  0  0  0  0  0  0  0  0  0  0
    1.6003    0.2025   -1.1207 C   0  0  0  0  0  0  0  0  0  0  0  0
    1.1074    0.2832   -2.2782 O   0  0  0  0  0  0  0  0  0  0  0  0
   -1.7914    2.4945   -0.3259 H   0  0  0  0  0  0  0  0  0  0  0  0
   -2.5613    2.4255    1.1720 H   0  0  0  0  0  0  0  0  0  0  0  0
   -2.7921    0.1147    1.1586 H   0  0  0  0  0  0  0  0  0  0  0  0
   -3.2101    0.6909   -0.4829 H   0  0  0  0  0  0  0  0  0  0  0  0
   -1.0285    0.2443   -1.3186 H   0  0  0  0  0  0  0  0  0  0  0  0
   -1.0273   -2.2271   -1.0743 H   0  0  0  0  0  0  0  0  0  0  0  0
   -2.2241   -2.0685    0.3160 H   0  0  0  0  0  0  0  0  0  0  0  0
   -0.1683    0.0849    1.4534 H   0  0  0  0  0  0  0  0  0  0  0  0
    1.0253   -1.7143   -0.3770 H   0  0  0  0  0  0  0  0  0  0  0  0
    2.5909   -1.5818    1.2708 H   0  0  0  0  0  0  0  0  0  0  0  0
    1.8142   -0.0653    1.9631 H   0  0  0  0  0  0  0  0  0  0  0  0
    3.0739    1.8554   -0.9904 H   0  0  0  0  0  0  0  0  0  0  0  0
  1  2  1  0
  2  3  1  0
  3  4  1  0
  4  5  1  0
  3  6  1  0
  6  7  1  0
  7  8  1  0
  8  9  1  0
  9 10  2  0
  9 11  1  0
 11 12  1  0
 12 13  2  0
 12  7  1  0
  1 14  1  0
  1 15  1  0
  2 16  1  0
  2 17  1  0
  3 18  1  6
  4 19  1  0
  4 20  1  0
  6 21  1  0
  7 22  1  6
  8 23  1  0
  8 24  1  0
 11 25  1  0
M  END
$$$$

     RDKit          3D

 25 25  0  0  0  0  0  0  0  0999 V2000
    1.3803    2.0563   -0.2272 N   0  0  0  0  0  0  0  0  0  0  0  0
    1.8237    0.7539   -0.5901 C   0  0  0  0  0  0  0  0  0  0  0  0
    1.4431   -0.2417    0.4431 C   0  0  2  0  0  0  0  0  0  0  0  0
    1.9980   -1.5897   -0.0809 C   0  0  0  0  0  0  0  0  0  0  0  0
    3.3595   -1.4922   -0.2254 F   0  0  0  0  0  0  0  0  0  0  0  0
    0.1487   -0.3656    0.9054 N   0  0  0  0  0  0  0  0  0  0  0  0
   -0.9504   -0.7880    0.1743 C   0  0  2  0  0  0  0  0  0  0  0  0
   -1.3981    0.0939   -0.9296 C   0  0  0  0  0  0  0  0  0  0  0  0
   -2.5475    0.8964   -0.3494 C   0  0  0  0  0  0  0  0  0  0  0  0
   -2.9389    2.0284   -0.7539 O   0  0  0  0  0  0  0  0  0  0  0  0
   -3.0806    0.1325    0.7167 N   0  0  0  0  0  0  0  0  0  0  0  0
   -2.1983   -0.9257    1.0177 C   0  0  0  0  0  0  0  0  0  0  0  0
   -2.4490   -1.8335    1.8710 O   0  0  0  0  0  0  0  0  0  0  0  0
    1.3778    2.7793   -0.9458 H   0  0  0  0  0  0  0  0  0  0  0  0
    1.5292    2.3289    0.7440 H   0  0  0  0  0  0  0  0  0  0  0  0
    1.5324    0.4907   -1.6193 H   0  0  0  0  0  0  0  0  0  0  0  0
    2.9672    0.7228   -0.6381 H   0  0  0  0  0  0  0  0  0  0  0  0
    2.1219   -0.0281    1.3351 H   0  0  0  0  0  0  0  0  0  0  0  0
    1.5409   -1.7979   -1.0585 H   0  0  0  0  0  0  0  0  0  0  0  0
    1.7746   -2.4129    0.6025 H   0  0  0  0  0  0  0  0  0  0  0  0
   -0.1058    0.3313    1.6433 H   0  0  0  0  0  0  0  0  0  0  0  0
   -0.7709   -1.8164   -0.3137 H   0  0  0  0  0  0  0  0  0  0  0  0
   -1.8467   -0.5055   -1.7848 H   0  0  0  0  0  0  0  0  0  0  0  0
   -0.7044    0.8250   -1.3242 H   0  0  0  0  0  0  0  0  0  0  0  0
   -4.0066    0.3578    1.1915 H   0  0  0  0  0  0  0  0  0  0  0  0
  1  2  1  0
  2  3  1  0
  3  4  1  0
  4  5  1  0
  3  6  1  0
  6  7  1  0
  7  8  1  0
  8  9  1  0
  9 10  2  0
  9 11  1  0
 11 12  1  0
 12 13  2  0
 12  7  1  0
  1 14  1  0
  1 15  1  0
  2 16  1  0
  2 17  1  0
  3 18  1  1
  4 19  1  0
  4 20  1  0
  6 21  1  0
  7 22  1  6
  8 23  1  0
  8 24  1  0
 11 25  1  0
M  END
$$$$

     RDKit          3D

 25 25  0  0  0  0  0  0  0  0999 V2000
    1.6056   -1.7130   -0.9127 N   0  0  0  0  0  0  0  0  0  0  0  0
    1.9582   -0.5398   -0.1597 C   0  0  0  0  0  0  0  0  0  0  0  0
    1.2765    0.6860   -0.6965 C   0  0  2  0  0  0  0  0  0  0  0  0
    1.7054    1.9012    0.1526 C   0  0  0  0  0  0  0  0  0  0  0  0
    3.0754    2.0639    0.0868 F   0  0  0  0  0  0  0  0  0  0  0  0
   -0.0947    0.6595   -0.9235 N   0  0  0  0  0  0  0  0  0  0  0  0
   -1.0478    0.5179    0.0853 C   0  0  2  0  0  0  0  0  0  0  0  0
   -0.9972   -0.8052    0.7877 C   0  0  0  0  0  0  0  0  0  0  0  0
   -2.3783   -0.8774    1.4261 C   0  0  0  0  0  0  0  0  0  0  0  0
   -2.6794   -1.3063    2.5584 O   0  0  0  0  0  0  0  0  0  0  0  0
   -3.2287   -0.3371    0.4148 N   0  0  0  0  0  0  0  0  0  0  0  0
   -2.4611    0.4769   -0.4636 C   0  0  0  0  0  0  0  0  0  0  0  0
   -2.9108    1.0341   -1.4849 O   0  0  0  0  0  0  0  0  0  0  0  0
    1.3440   -2.5056   -0.2890 H   0  0  0  0  0  0  0  0  0  0  0  0
    2.2823   -1.9725   -1.6489 H   0  0  0  0  0  0  0  0  0  0  0  0
    1.8759   -0.6612    0.9354 H   0  0  0  0  0  0  0  0  0  0  0  0
    3.0934   -0.4341   -0.3083 H   0  0  0  0  0  0  0  0  0  0  0  0
    1.7810    0.9037   -1.6981 H   0  0  0  0  0  0  0  0  0  0  0  0
    1.2531    2.8270   -0.2142 H   0  0  0  0  0  0  0  0  0  0  0  0
    1.4004    1.7291    1.2013 H   0  0  0  0  0  0  0  0  0  0  0  0
   -0.3505    0.0953   -1.7594 H   0  0  0  0  0  0  0  0  0  0  0  0
   -0.9953    1.3476    0.8487 H   0  0  0  0  0  0  0  0  0  0  0  0
   -0.9253   -1.6452    0.0582 H   0  0  0  0  0  0  0  0  0  0  0  0
   -0.3122   -0.8919    1.6218 H   0  0  0  0  0  0  0  0  0  0  0  0
   -4.2700   -0.5528    0.3818 H   0  0  0  0  0  0  0  0  0  0  0  0
  1  2  1  0
  2  3  1  0
  3  4  1  0
  4  5  1  0
  3  6  1  0
  6  7  1  0
  7  8  1  0
  8  9  1  0
  9 10  2  0
  9 11  1  0
 11 12  1  0
 12 13  2  0
 12  7  1  0
  1 14  1  0
  1 15  1  0
  2 16  1  0
  2 17  1  0
  3 18  1  6
  4 19  1  0
  4 20  1  0
  6 21  1  0
  7 22  1  1
  8 23  1  0
  8 24  1  0
 11 25  1  0
M  END
$$$$
