
     RDKit          3D

 27 28  0  0  0  0  0  0  0  0999 V2000
   -4.0749   -0.5037   -1.0786 O   0  0  0  0  0  0  0  0  0  0  0  0
   -3.2004    0.0892   -0.1840 C   0  0  0  0  0  0  0  0  0  0  0  0
   -1.7437   -0.1033   -0.6126 C   0  0  1  0  0  0  0  0  0  0  0  0
   -1.6297    0.4946   -1.8674 O   0  0  0  0  0  0  0  0  0  0  0  0
   -0.8931    0.6427    0.3556 C   0  0  1  0  0  0  0  0  0  0  0  0
   -0.5899   -0.0551    1.6615 C   0  0  0  0  0  0  0  0  0  0  0  0
    0.8350    0.4180    1.4716 C   0  0  0  0  0  0  0  0  0  0  0  0
    0.5062    0.7158    0.0945 N   0  0  0  0  0  0  0  0  0  0  0  0
    1.0719   -0.2512   -0.7935 C   0  0  0  0  0  0  0  0  0  0  0  0
    2.5488   -0.2297   -0.6298 C   0  0  0  0  0  0  0  0  0  0  0  0
    3.3739    0.5649   -1.3464 N   0  0  0  0  0  0  0  0  0  0  0  0
    4.6254    0.3424   -0.9593 N   0  0  0  0  0  0  0  0  0  0  0  0
    4.6187   -0.5817   -0.0061 N   0  0  0  0  0  0  0  0  0  0  0  0
    3.3424   -0.9268    0.1897 N   0  0  0  0  0  0  0  0  0  0  0  0
   -4.6918    0.1571   -1.4959 H   0  0  0  0  0  0  0  0  0  0  0  0
   -3.4553    1.1646   -0.1300 H   0  0  0  0  0  0  0  0  0  0  0  0
   -3.3411   -0.3423    0.8299 H   0  0  0  0  0  0  0  0  0  0  0  0
   -1.5388   -1.1709   -0.6974 H   0  0  0  0  0  0  0  0  0  0  0  0
   -2.3330    0.1279   -2.4597 H   0  0  0  0  0  0  0  0  0  0  0  0
   -1.3098    1.6471    0.5656 H   0  0  0  0  0  0  0  0  0  0  0  0
   -1.0252    0.3779    2.5617 H   0  0  0  0  0  0  0  0  0  0  0  0
   -0.7464   -1.1341    1.5764 H   0  0  0  0  0  0  0  0  0  0  0  0
    1.1123    1.2940    2.0907 H   0  0  0  0  0  0  0  0  0  0  0  0
    1.5320   -0.4086    1.6440 H   0  0  0  0  0  0  0  0  0  0  0  0
    0.8123   -0.0978   -1.8505 H   0  0  0  0  0  0  0  0  0  0  0  0
    0.7194   -1.2921   -0.5347 H   0  0  0  0  0  0  0  0  0  0  0  0
    5.4748   -0.9389    0.4703 H   0  0  0  0  0  0  0  0  0  0  0  0
  1  2  1  0
  2  3  1  0
  3  4  1  0
  3  5  1  0
  5  6  1  0
  6  7  1  0
  7  8  1  0
  8  9  1  0
  9 10  1  0
 10 11  1  0
 11 12  2  0
 12 13  1  0
 13 14  1  0
  8  5  1  0
 14 10  2  0
  1 15  1  0
  2 16  1  0
  2 17  1  0
  3 18  1  6
  4 19  1  0
  5 20  1  1
  6 21  1  0
  6 22  1  0
  7 23  1  0
  7 24  1  0
  9 25  1  0
  9 26  1  0
 13 27  1  0
M  END
$$$$

     RDKit          3D

 27 28  0  0  0  0  0  0  0  0999 V2000
   -3.8059   -0.5190    0.2550 O   0  0  0  0  0  0  0  0  0  0  0  0
   -3.1301    0.5643   -0.3085 C   0  0  0  0  0  0  0  0  0  0  0  0
   -1.7003    0.6240    0.1498 C   0  0  1  0  0  0  0  0  0  0  0  0
   -1.7401    0.7564    1.5583 O   0  0  0  0  0  0  0  0  0  0  0  0
   -0.9710   -0.6602   -0.1308 C   0  0  1  0  0  0  0  0  0  0  0  0
   -0.4177   -0.8260   -1.5110 C   0  0  0  0  0  0  0  0  0  0  0  0
    0.6748   -1.5908   -0.7502 C   0  0  0  0  0  0  0  0  0  0  0  0
    0.3872   -0.7206    0.3738 N   0  0  0  0  0  0  0  0  0  0  0  0
    1.0634    0.5473    0.3585 C   0  0  0  0  0  0  0  0  0  0  0  0
    2.5325    0.4109    0.3616 C   0  0  0  0  0  0  0  0  0  0  0  0
    3.3148   -0.6758    0.3765 N   0  0  0  0  0  0  0  0  0  0  0  0
    4.5932   -0.3271    0.3732 N   0  0  0  0  0  0  0  0  0  0  0  0
    4.6063    0.9951    0.3559 N   0  0  0  0  0  0  0  0  0  0  0  0
    3.3724    1.4600    0.3487 N   0  0  0  0  0  0  0  0  0  0  0  0
   -4.7529   -0.4727    0.0447 H   0  0  0  0  0  0  0  0  0  0  0  0
   -3.2249    0.5580   -1.4156 H   0  0  0  0  0  0  0  0  0  0  0  0
   -3.6384    1.4858    0.0540 H   0  0  0  0  0  0  0  0  0  0  0  0
   -1.2118    1.5004   -0.2693 H   0  0  0  0  0  0  0  0  0  0  0  0
   -2.3879    0.1124    1.9492 H   0  0  0  0  0  0  0  0  0  0  0  0
   -1.5567   -1.5428    0.1649 H   0  0  0  0  0  0  0  0  0  0  0  0
   -0.9537   -1.4861   -2.1989 H   0  0  0  0  0  0  0  0  0  0  0  0
   -0.0510    0.0767   -2.0114 H   0  0  0  0  0  0  0  0  0  0  0  0
    0.3010   -2.6151   -0.5201 H   0  0  0  0  0  0  0  0  0  0  0  0
    1.6673   -1.5327   -1.1800 H   0  0  0  0  0  0  0  0  0  0  0  0
    0.7921    1.1932   -0.4946 H   0  0  0  0  0  0  0  0  0  0  0  0
    0.7721    1.0887    1.2807 H   0  0  0  0  0  0  0  0  0  0  0  0
    5.4652    1.5958    0.3489 H   0  0  0  0  0  0  0  0  0  0  0  0
  1  2  1  0
  2  3  1  0
  3  4  1  0
  3  5  1  0
  5  6  1  0
  6  7  1  0
  7  8  1  0
  8  9  1  0
  9 10  1  0
 10 11  1  0
 11 12  2  0
 12 13  1  0
 13 14  1  0
  8  5  1  0
 14 10  2  0
  1 15  1  0
  2 16  1  0
  2 17  1  0
  3 18  1  6
  4 19  1  0
  5 20  1  1
  6 21  1  0
  6 22  1  0
  7 23  1  0
  7 24  1  0
  9 25  1  0
  9 26  1  0
 13 27  1  0
M  END
$$$$

     RDKit          3D

 27 28  0  0  0  0  0  0  0  0999 V2000
   -3.6494    1.8311   -0.2184 O   0  0  0  0  0  0  0  0  0  0  0  0
   -2.5674    1.2646    0.4508 C   0  0  0  0  0  0  0  0  0  0  0  0
   -1.7318    0.4754   -0.5194 C   0  0  1  0  0  0  0  0  0  0  0  0
   -1.2854    1.3548   -1.5048 O   0  0  0  0  0  0  0  0  0  0  0  0
   -0.5399   -0.1788    0.1362 C   0  0  1  0  0  0  0  0  0  0  0  0
   -0.8342   -1.4798    0.8382 C   0  0  0  0  0  0  0  0  0  0  0  0
    0.2890   -2.0518   -0.0016 C   0  0  0  0  0  0  0  0  0  0  0  0
    0.2234   -0.9028   -0.8272 N   0  0  0  0  0  0  0  0  0  0  0  0
    1.4139   -0.3386   -1.3476 C   0  0  0  0  0  0  0  0  0  0  0  0
    2.3988    0.1060   -0.3646 C   0  0  0  0  0  0  0  0  0  0  0  0
    3.5678    0.7165   -0.6239 N   0  0  0  0  0  0  0  0  0  0  0  0
    4.1873    0.9631    0.5216 N   0  0  0  0  0  0  0  0  0  0  0  0
    3.3961    0.5026    1.4869 N   0  0  0  0  0  0  0  0  0  0  0  0
    2.3116   -0.0179    0.9634 N   0  0  0  0  0  0  0  0  0  0  0  0
   -4.1276    1.1761   -0.7808 H   0  0  0  0  0  0  0  0  0  0  0  0
   -1.9896    2.1061    0.8860 H   0  0  0  0  0  0  0  0  0  0  0  0
   -2.9624    0.6692    1.2819 H   0  0  0  0  0  0  0  0  0  0  0  0
   -2.3765   -0.2726   -1.0247 H   0  0  0  0  0  0  0  0  0  0  0  0
   -1.2802    2.2796   -1.1524 H   0  0  0  0  0  0  0  0  0  0  0  0
    0.0027    0.4946    0.8280 H   0  0  0  0  0  0  0  0  0  0  0  0
   -1.7879   -1.9664    0.5606 H   0  0  0  0  0  0  0  0  0  0  0  0
   -0.6013   -1.4934    1.9139 H   0  0  0  0  0  0  0  0  0  0  0  0
    1.2128   -2.2154    0.5809 H   0  0  0  0  0  0  0  0  0  0  0  0
   -0.0050   -2.9735   -0.5839 H   0  0  0  0  0  0  0  0  0  0  0  0
    1.1851    0.4999   -2.0220 H   0  0  0  0  0  0  0  0  0  0  0  0
    1.9007   -1.1194   -1.9899 H   0  0  0  0  0  0  0  0  0  0  0  0
    3.6494    0.5709    2.4979 H   0  0  0  0  0  0  0  0  0  0  0  0
  1  2  1  0
  2  3  1  0
  3  4  1  0
  3  5  1  0
  5  6  1  0
  6  7  1  0
  7  8  1  0
  8  9  1  0
  9 10  1  0
 10 11  1  0
 11 12  2  0
 12 13  1  0
 13 14  1  0
  8  5  1  0
 14 10  2  0
  1 15  1  0
  2 16  1  0
  2 17  1  0
  3 18  1  6
  4 19  1  0
  5 20  1  1
  6 21  1  0
  6 22  1  0
  7 23  1  0
  7 24  1  0
  9 25  1  0
  9 26  1  0
 13 27  1  0
M  END
$$$$

     RDKit          3D

 27 28  0  0  0  0  0  0  0  0999 V2000
   -3.1363    0.1070   -0.6607 O   0  0  0  0  0  0  0  0  0  0  0  0
   -2.4738    1.0472    0.1483 C   0  0  0  0  0  0  0  0  0  0  0  0
   -0.9577    0.7998    0.0969 C   0  0  1  0  0  0  0  0  0  0  0  0
   -0.3900    1.7649    0.9166 O   0  0  0  0  0  0  0  0  0  0  0  0
   -0.7280   -0.5894    0.5642 C   0  0  1  0  0  0  0  0  0  0  0  0
   -1.0681   -1.7116   -0.3789 C   0  0  0  0  0  0  0  0  0  0  0  0
   -0.0566   -2.4474    0.5124 C   0  0  0  0  0  0  0  0  0  0  0  0
    0.5746   -1.1174    0.6959 N   0  0  0  0  0  0  0  0  0  0  0  0
    1.5498   -0.9615   -0.3196 C   0  0  0  0  0  0  0  0  0  0  0  0
    2.2255    0.3493   -0.1658 C   0  0  0  0  0  0  0  0  0  0  0  0
    2.1210    1.4680   -0.8987 N   0  0  0  0  0  0  0  0  0  0  0  0
    2.9129    2.4075   -0.3982 N   0  0  0  0  0  0  0  0  0  0  0  0
    3.5352    1.9098    0.6583 N   0  0  0  0  0  0  0  0  0  0  0  0
    3.1230    0.6622    0.8048 N   0  0  0  0  0  0  0  0  0  0  0  0
   -3.7232    0.5584   -1.2956 H   0  0  0  0  0  0  0  0  0  0  0  0
   -2.7217    2.0704   -0.1606 H   0  0  0  0  0  0  0  0  0  0  0  0
   -2.8157    0.8397    1.1846 H   0  0  0  0  0  0  0  0  0  0  0  0
   -0.6802    0.9647   -0.9661 H   0  0  0  0  0  0  0  0  0  0  0  0
   -0.9949    2.5283    1.0618 H   0  0  0  0  0  0  0  0  0  0  0  0
   -1.2773   -0.7557    1.5495 H   0  0  0  0  0  0  0  0  0  0  0  0
   -2.1072   -2.0661   -0.2198 H   0  0  0  0  0  0  0  0  0  0  0  0
   -0.7580   -1.5731   -1.4138 H   0  0  0  0  0  0  0  0  0  0  0  0
    0.5677   -3.1698   -0.0135 H   0  0  0  0  0  0  0  0  0  0  0  0
   -0.5154   -2.7478    1.4546 H   0  0  0  0  0  0  0  0  0  0  0  0
    1.1919   -1.0594   -1.3636 H   0  0  0  0  0  0  0  0  0  0  0  0
    2.3799   -1.7269   -0.2461 H   0  0  0  0  0  0  0  0  0  0  0  0
    4.2228    2.4489    1.2412 H   0  0  0  0  0  0  0  0  0  0  0  0
  1  2  1  0
  2  3  1  0
  3  4  1  0
  3  5  1  0
  5  6  1  0
  6  7  1  0
  7  8  1  0
  8  9  1  0
  9 10  1  0
 10 11  1  0
 11 12  2  0
 12 13  1  0
 13 14  1  0
  8  5  1  0
 14 10  2  0
  1 15  1  0
  2 16  1  0
  2 17  1  0
  3 18  1  6
  4 19  1  0
  5 20  1  1
  6 21  1  0
  6 22  1  0
  7 23  1  0
  7 24  1  0
  9 25  1  0
  9 26  1  0
 13 27  1  0
M  END
$$$$

     RDKit          3D

 27 28  0  0  0  0  0  0  0  0999 V2000
    3.9161    0.9082    0.6930 O   0  0  0  0  0  0  0  0  0  0  0  0
    2.6661    0.7618    0.0874 C   0  0  0  0  0  0  0  0  0  0  0  0
    2.2230   -0.6892    0.1269 C   0  0  1  0  0  0  0  0  0  0  0  0
    2.1190   -1.1660    1.4186 O   0  0  0  0  0  0  0  0  0  0  0  0
    0.8715   -0.7670   -0.5763 C   0  0  1  0  0  0  0  0  0  0  0  0
    0.1949   -2.0723   -0.2553 C   0  0  0  0  0  0  0  0  0  0  0  0
   -0.8779   -1.2382    0.3602 C   0  0  0  0  0  0  0  0  0  0  0  0
   -0.1704   -0.0031    0.0623 N   0  0  0  0  0  0  0  0  0  0  0  0
   -0.9101    0.7677   -0.9044 C   0  0  0  0  0  0  0  0  0  0  0  0
   -2.2712    1.1225   -0.4014 C   0  0  0  0  0  0  0  0  0  0  0  0
   -3.2195    1.8292   -1.0368 N   0  0  0  0  0  0  0  0  0  0  0  0
   -4.2745    1.9112   -0.2328 N   0  0  0  0  0  0  0  0  0  0  0  0
   -3.9818    1.2572    0.8986 N   0  0  0  0  0  0  0  0  0  0  0  0
   -2.7487    0.7675    0.8039 N   0  0  0  0  0  0  0  0  0  0  0  0
    4.4672    1.5476    0.1516 H   0  0  0  0  0  0  0  0  0  0  0  0
    1.8956    1.4221    0.5577 H   0  0  0  0  0  0  0  0  0  0  0  0
    2.7350    1.0572   -0.9716 H   0  0  0  0  0  0  0  0  0  0  0  0
    2.9320   -1.2616   -0.4964 H   0  0  0  0  0  0  0  0  0  0  0  0
    1.7710   -0.4448    1.9902 H   0  0  0  0  0  0  0  0  0  0  0  0
    0.9693   -0.6402   -1.6606 H   0  0  0  0  0  0  0  0  0  0  0  0
    0.7056   -2.7046    0.5049 H   0  0  0  0  0  0  0  0  0  0  0  0
   -0.0966   -2.7000   -1.1071 H   0  0  0  0  0  0  0  0  0  0  0  0
   -1.8487   -1.3553   -0.1701 H   0  0  0  0  0  0  0  0  0  0  0  0
   -1.0000   -1.3999    1.4634 H   0  0  0  0  0  0  0  0  0  0  0  0
   -1.0651    0.2155   -1.8530 H   0  0  0  0  0  0  0  0  0  0  0  0
   -0.3606    1.7020   -1.1450 H   0  0  0  0  0  0  0  0  0  0  0  0
   -4.6411    1.1727    1.6922 H   0  0  0  0  0  0  0  0  0  0  0  0
  1  2  1  0
  2  3  1  0
  3  4  1  0
  3  5  1  0
  5  6  1  0
  6  7  1  0
  7  8  1  0
  8  9  1  0
  9 10  1  0
 10 11  1  0
 11 12  2  0
 12 13  1  0
 13 14  1  0
  8  5  1  0
 14 10  2  0
  1 15  1  0
  2 16  1  0
  2 17  1  0
  3 18  1  6
  4 19  1  0
  5 20  1  6
  6 21  1  0
  6 22  1  0
  7 23  1  0
  7 24  1  0
  9 25  1  0
  9 26  1  0
 13 27  1  0
M  END
$$$$

     RDKit          3D

 27 28  0  0  0  0  0  0  0  0999 V2000
   -1.6859   -0.2019    2.2448 O   0  0  0  0  0  0  0  0  0  0  0  0
   -1.1076    0.9325    1.6288 C   0  0  0  0  0  0  0  0  0  0  0  0
   -1.3565    0.7658    0.1463 C   0  0  1  0  0  0  0  0  0  0  0  0
   -0.8439    1.8044   -0.5936 O   0  0  0  0  0  0  0  0  0  0  0  0
   -1.0839   -0.5923   -0.2944 C   0  0  1  0  0  0  0  0  0  0  0  0
   -1.3649   -0.7902   -1.7940 C   0  0  0  0  0  0  0  0  0  0  0  0
   -0.5215   -2.0472   -1.5185 C   0  0  0  0  0  0  0  0  0  0  0  0
    0.1221   -1.2167   -0.4641 N   0  0  0  0  0  0  0  0  0  0  0  0
    1.3377   -0.7369   -0.8944 C   0  0  0  0  0  0  0  0  0  0  0  0
    2.0181    0.0692    0.1466 C   0  0  0  0  0  0  0  0  0  0  0  0
    2.6784   -0.3877    1.2485 N   0  0  0  0  0  0  0  0  0  0  0  0
    3.1668    0.6226    1.9455 N   0  0  0  0  0  0  0  0  0  0  0  0
    2.8346    1.7269    1.3144 N   0  0  0  0  0  0  0  0  0  0  0  0
    2.1482    1.4144    0.2380 N   0  0  0  0  0  0  0  0  0  0  0  0
   -1.1759   -0.4727    3.0418 H   0  0  0  0  0  0  0  0  0  0  0  0
   -0.0552    1.0514    1.8983 H   0  0  0  0  0  0  0  0  0  0  0  0
   -1.7132    1.7939    2.0347 H   0  0  0  0  0  0  0  0  0  0  0  0
   -2.4888    0.9081    0.0589 H   0  0  0  0  0  0  0  0  0  0  0  0
   -1.3150    1.9388   -1.4512 H   0  0  0  0  0  0  0  0  0  0  0  0
   -1.8125   -1.3039    0.2212 H   0  0  0  0  0  0  0  0  0  0  0  0
   -2.4190   -1.0008   -2.0237 H   0  0  0  0  0  0  0  0  0  0  0  0
   -0.8609   -0.0539   -2.4286 H   0  0  0  0  0  0  0  0  0  0  0  0
   -1.1397   -2.8316   -1.0786 H   0  0  0  0  0  0  0  0  0  0  0  0
    0.1463   -2.3120   -2.3387 H   0  0  0  0  0  0  0  0  0  0  0  0
    1.3826   -0.1537   -1.8288 H   0  0  0  0  0  0  0  0  0  0  0  0
    2.0302   -1.6135   -1.0828 H   0  0  0  0  0  0  0  0  0  0  0  0
    3.0792    2.6870    1.6236 H   0  0  0  0  0  0  0  0  0  0  0  0
  1  2  1  0
  2  3  1  0
  3  4  1  0
  3  5  1  0
  5  6  1  0
  6  7  1  0
  7  8  1  0
  8  9  1  0
  9 10  1  0
 10 11  1  0
 11 12  2  0
 12 13  1  0
 13 14  1  0
  8  5  1  0
 14 10  2  0
  1 15  1  0
  2 16  1  0
  2 17  1  0
  3 18  1  1
  4 19  1  0
  5 20  1  1
  6 21  1  0
  6 22  1  0
  7 23  1  0
  7 24  1  0
  9 25  1  0
  9 26  1  0
 13 27  1  0
M  END
$$$$

     RDKit          3D

 27 28  0  0  0  0  0  0  0  0999 V2000
   -4.0908   -1.3592    0.3700 O   0  0  0  0  0  0  0  0  0  0  0  0
   -3.2515   -0.2881    0.0950 C   0  0  0  0  0  0  0  0  0  0  0  0
   -1.7986   -0.7415   -0.0288 C   0  0  1  0  0  0  0  0  0  0  0  0
   -1.7459   -1.6524   -1.0593 O   0  0  0  0  0  0  0  0  0  0  0  0
   -0.9797    0.4908   -0.2844 C   0  0  1  0  0  0  0  0  0  0  0  0
   -0.7099    1.3466    0.9222 C   0  0  0  0  0  0  0  0  0  0  0  0
    0.6175    1.6011    0.1994 C   0  0  0  0  0  0  0  0  0  0  0  0
    0.4079    0.3430   -0.4914 N   0  0  0  0  0  0  0  0  0  0  0  0
    1.1087   -0.7244    0.1197 C   0  0  0  0  0  0  0  0  0  0  0  0
    2.5699   -0.4090    0.0942 C   0  0  0  0  0  0  0  0  0  0  0  0
    3.5769   -1.1753    0.6021 N   0  0  0  0  0  0  0  0  0  0  0  0
    4.7197   -0.5467    0.3771 N   0  0  0  0  0  0  0  0  0  0  0  0
    4.4889    0.5864   -0.2515 N   0  0  0  0  0  0  0  0  0  0  0  0
    3.1980    0.6645   -0.4189 N   0  0  0  0  0  0  0  0  0  0  0  0
   -3.9049   -2.0727   -0.2726 H   0  0  0  0  0  0  0  0  0  0  0  0
   -3.5124    0.1411   -0.9112 H   0  0  0  0  0  0  0  0  0  0  0  0
   -3.3386    0.5336    0.8137 H   0  0  0  0  0  0  0  0  0  0  0  0
   -1.5303   -1.2131    0.9392 H   0  0  0  0  0  0  0  0  0  0  0  0
   -1.4762   -2.5562   -0.7729 H   0  0  0  0  0  0  0  0  0  0  0  0
   -1.4359    1.1284   -1.0863 H   0  0  0  0  0  0  0  0  0  0  0  0
   -1.3436    2.2536    1.0260 H   0  0  0  0  0  0  0  0  0  0  0  0
   -0.5535    0.8048    1.8697 H   0  0  0  0  0  0  0  0  0  0  0  0
    1.4722    1.6447    0.8879 H   0  0  0  0  0  0  0  0  0  0  0  0
    0.5085    2.4461   -0.5103 H   0  0  0  0  0  0  0  0  0  0  0  0
    0.9825   -1.7049   -0.3375 H   0  0  0  0  0  0  0  0  0  0  0  0
    0.8605   -0.8545    1.2108 H   0  0  0  0  0  0  0  0  0  0  0  0
    5.1607    1.3134   -0.5750 H   0  0  0  0  0  0  0  0  0  0  0  0
  1  2  1  0
  2  3  1  0
  3  4  1  0
  3  5  1  0
  5  6  1  0
  6  7  1  0
  7  8  1  0
  8  9  1  0
  9 10  1  0
 10 11  1  0
 11 12  2  0
 12 13  1  0
 13 14  1  0
  8  5  1  0
 14 10  2  0
  1 15  1  0
  2 16  1  0
  2 17  1  0
  3 18  1  1
  4 19  1  0
  5 20  1  6
  6 21  1  0
  6 22  1  0
  7 23  1  0
  7 24  1  0
  9 25  1  0
  9 26  1  0
 13 27  1  0
M  END
$$$$

     RDKit          3D

 27 28  0  0  0  0  0  0  0  0999 V2000
   -2.3466    2.0423    2.0389 O   0  0  0  0  0  0  0  0  0  0  0  0
   -2.2102    1.4119    0.8079 C   0  0  0  0  0  0  0  0  0  0  0  0
   -0.9774    0.4905    0.8111 C   0  0  1  0  0  0  0  0  0  0  0  0
   -1.2541   -0.4300    1.8492 O   0  0  0  0  0  0  0  0  0  0  0  0
   -0.9835   -0.2450   -0.4548 C   0  0  1  0  0  0  0  0  0  0  0  0
   -0.3981    0.4897   -1.6665 C   0  0  0  0  0  0  0  0  0  0  0  0
   -0.1203   -0.9577   -2.0984 C   0  0  0  0  0  0  0  0  0  0  0  0
   -0.1304   -1.3109   -0.7439 N   0  0  0  0  0  0  0  0  0  0  0  0
    0.9582   -1.7278   -0.0209 C   0  0  0  0  0  0  0  0  0  0  0  0
    2.1324   -0.8730    0.1208 C   0  0  0  0  0  0  0  0  0  0  0  0
    3.1952   -0.7035   -0.6874 N   0  0  0  0  0  0  0  0  0  0  0  0
    4.0359    0.1600   -0.1865 N   0  0  0  0  0  0  0  0  0  0  0  0
    3.5095    0.5567    0.9652 N   0  0  0  0  0  0  0  0  0  0  0  0
    2.3626   -0.0568    1.1643 N   0  0  0  0  0  0  0  0  0  0  0  0
   -3.3125    2.2228    2.2015 H   0  0  0  0  0  0  0  0  0  0  0  0
   -3.1167    0.8010    0.6115 H   0  0  0  0  0  0  0  0  0  0  0  0
   -2.0742    2.1593    0.0099 H   0  0  0  0  0  0  0  0  0  0  0  0
   -0.1418    1.1437    1.0349 H   0  0  0  0  0  0  0  0  0  0  0  0
   -2.1687   -0.7587    1.6746 H   0  0  0  0  0  0  0  0  0  0  0  0
   -2.0477   -0.5059   -0.7420 H   0  0  0  0  0  0  0  0  0  0  0  0
   -1.1334    1.0046   -2.2911 H   0  0  0  0  0  0  0  0  0  0  0  0
    0.5443    1.0030   -1.4445 H   0  0  0  0  0  0  0  0  0  0  0  0
    0.7496   -1.0986   -2.7175 H   0  0  0  0  0  0  0  0  0  0  0  0
   -1.0329   -1.3296   -2.6307 H   0  0  0  0  0  0  0  0  0  0  0  0
    1.3332   -2.7013   -0.4655 H   0  0  0  0  0  0  0  0  0  0  0  0
    0.6452   -2.0540    1.0164 H   0  0  0  0  0  0  0  0  0  0  0  0
    3.9826    1.2672    1.5980 H   0  0  0  0  0  0  0  0  0  0  0  0
  1  2  1  0
  2  3  1  0
  3  4  1  0
  3  5  1  0
  5  6  1  0
  6  7  1  0
  7  8  1  0
  8  9  1  0
  9 10  1  0
 10 11  1  0
 11 12  2  0
 12 13  1  0
 13 14  1  0
  8  5  1  0
 14 10  2  0
  1 15  1  0
  2 16  1  0
  2 17  1  0
  3 18  1  1
  4 19  1  0
  5 20  1  6
  6 21  1  0
  6 22  1  0
  7 23  1  0
  7 24  1  0
  9 25  1  0
  9 26  1  0
 13 27  1  0
M  END
$$$$
