
     RDKit          3D

 30 30  0  0  0  0  0  0  0  0999 V2000
    3.2029   -1.2629    0.0577 N   0  0  0  0  0  0  0  0  0  0  0  0
    2.1224   -0.2690    0.3354 C   0  0  1  0  0  0  0  0  0  0  0  0
    2.7001    1.0291   -0.1692 C   0  0  0  0  0  0  0  0  0  0  0  0
    3.8931    1.2592    0.5639 O   0  0  0  0  0  0  0  0  0  0  0  0
    0.9452   -0.7982   -0.3953 C   0  0  0  0  0  0  0  0  0  0  0  0
   -0.2711   -0.1631   -0.3769 N   0  0  0  0  0  0  0  0  0  0  0  0
   -1.4020   -0.8594   -0.9224 C   0  0  0  0  0  0  0  0  0  0  0  0
   -2.3600   -1.0202    0.2504 C   0  0  2  0  0  0  0  0  0  0  0  0
   -3.3199   -1.9583   -0.0487 O   0  0  0  0  0  0  0  0  0  0  0  0
   -2.8656    0.3442    0.5749 C   0  0  0  0  0  0  0  0  0  0  0  0
   -1.9529    1.4600    0.2271 C   0  0  1  0  0  0  0  0  0  0  0  0
   -2.0944    2.4467    1.2039 F   0  0  0  0  0  0  0  0  0  0  0  0
   -0.4945    1.1133    0.1005 C   0  0  0  0  0  0  0  0  0  0  0  0
    3.1808   -1.3729   -0.9794 H   0  0  0  0  0  0  0  0  0  0  0  0
    2.9148   -2.1565    0.4661 H   0  0  0  0  0  0  0  0  0  0  0  0
    1.9732   -0.2052    1.4300 H   0  0  0  0  0  0  0  0  0  0  0  0
    2.0833    1.9181    0.0512 H   0  0  0  0  0  0  0  0  0  0  0  0
    3.0173    0.9735   -1.2186 H   0  0  0  0  0  0  0  0  0  0  0  0
    4.2815    2.1339    0.3417 H   0  0  0  0  0  0  0  0  0  0  0  0
    1.2816   -0.8664   -1.4940 H   0  0  0  0  0  0  0  0  0  0  0  0
    0.8227   -1.8975   -0.1350 H   0  0  0  0  0  0  0  0  0  0  0  0
   -1.8616   -0.2173   -1.6958 H   0  0  0  0  0  0  0  0  0  0  0  0
   -1.0803   -1.8232   -1.3294 H   0  0  0  0  0  0  0  0  0  0  0  0
   -1.7331   -1.4132    1.0949 H   0  0  0  0  0  0  0  0  0  0  0  0
   -3.5873   -2.4708    0.7687 H   0  0  0  0  0  0  0  0  0  0  0  0
   -3.8242    0.4999   -0.0048 H   0  0  0  0  0  0  0  0  0  0  0  0
   -3.2007    0.3677    1.6491 H   0  0  0  0  0  0  0  0  0  0  0  0
   -2.2761    1.9721   -0.7253 H   0  0  0  0  0  0  0  0  0  0  0  0
    0.0003    1.3923    1.0514 H   0  0  0  0  0  0  0  0  0  0  0  0
   -0.0954    1.8442   -0.6724 H   0  0  0  0  0  0  0  0  0  0  0  0
  1  2  1  0
  2  3  1  0
  3  4  1  0
  2  5  1  0
  5  6  1  0
  6  7  1  0
  7  8  1  0
  8  9  1  0
  8 10  1  0
 10 11  1  0
 11 12  1  0
 11 13  1  0
 13  6  1  0
  1 14  1  0
  1 15  1  0
  2 16  1  1
  3 17  1  0
  3 18  1  0
  4 19  1  0
  5 20  1  0
  5 21  1  0
  7 22  1  0
  7 23  1  0
  8 24  1  1
  9 25  1  0
 10 26  1  0
 10 27  1  0
 11 28  1  6
 13 29  1  0
 13 30  1  0
M  END
$$$$

     RDKit          3D

 30 30  0  0  0  0  0  0  0  0999 V2000
    1.9195   -1.6285   -0.4902 N   0  0  0  0  0  0  0  0  0  0  0  0
    2.0496   -0.4602    0.3017 C   0  0  1  0  0  0  0  0  0  0  0  0
    3.3326    0.2388   -0.1033 C   0  0  0  0  0  0  0  0  0  0  0  0
    3.4485    1.3818    0.6797 O   0  0  0  0  0  0  0  0  0  0  0  0
    0.9167    0.4856    0.2940 C   0  0  0  0  0  0  0  0  0  0  0  0
   -0.3424    0.0337    0.7329 N   0  0  0  0  0  0  0  0  0  0  0  0
   -1.2512    1.1588    0.6236 C   0  0  0  0  0  0  0  0  0  0  0  0
   -2.0576    0.9371   -0.6448 C   0  0  2  0  0  0  0  0  0  0  0  0
   -2.6610    2.0779   -1.1075 O   0  0  0  0  0  0  0  0  0  0  0  0
   -3.0607   -0.1375   -0.2317 C   0  0  0  0  0  0  0  0  0  0  0  0
   -2.3011   -1.3530    0.1218 C   0  0  1  0  0  0  0  0  0  0  0  0
   -2.6338   -2.3477   -0.7913 F   0  0  0  0  0  0  0  0  0  0  0  0
   -0.8222   -1.1914    0.2626 C   0  0  0  0  0  0  0  0  0  0  0  0
    2.0115   -2.5151    0.0581 H   0  0  0  0  0  0  0  0  0  0  0  0
    2.4761   -1.6332   -1.3583 H   0  0  0  0  0  0  0  0  0  0  0  0
    2.2173   -0.7917    1.3690 H   0  0  0  0  0  0  0  0  0  0  0  0
    4.2173   -0.4263    0.0232 H   0  0  0  0  0  0  0  0  0  0  0  0
    3.3013    0.5542   -1.1750 H   0  0  0  0  0  0  0  0  0  0  0  0
    4.2188    1.9334    0.3533 H   0  0  0  0  0  0  0  0  0  0  0  0
    0.7871    0.8508   -0.7699 H   0  0  0  0  0  0  0  0  0  0  0  0
    1.1909    1.4010    0.8622 H   0  0  0  0  0  0  0  0  0  0  0  0
   -1.9492    1.1159    1.5115 H   0  0  0  0  0  0  0  0  0  0  0  0
   -0.7096    2.1057    0.6180 H   0  0  0  0  0  0  0  0  0  0  0  0
   -1.3827    0.4950   -1.4116 H   0  0  0  0  0  0  0  0  0  0  0  0
   -2.0545    2.8458   -0.9407 H   0  0  0  0  0  0  0  0  0  0  0  0
   -3.7871   -0.3160   -1.0219 H   0  0  0  0  0  0  0  0  0  0  0  0
   -3.5770    0.2868    0.6701 H   0  0  0  0  0  0  0  0  0  0  0  0
   -2.6837   -1.7296    1.1076 H   0  0  0  0  0  0  0  0  0  0  0  0
   -0.3920   -2.0203    0.8631 H   0  0  0  0  0  0  0  0  0  0  0  0
   -0.4213   -1.3520   -0.7846 H   0  0  0  0  0  0  0  0  0  0  0  0
  1  2  1  0
  2  3  1  0
  3  4  1  0
  2  5  1  0
  5  6  1  0
  6  7  1  0
  7  8  1  0
  8  9  1  0
  8 10  1  0
 10 11  1  0
 11 12  1  0
 11 13  1  0
 13  6  1  0
  1 14  1  0
  1 15  1  0
  2 16  1  1
  3 17  1  0
  3 18  1  0
  4 19  1  0
  5 20  1  0
  5 21  1  0
  7 22  1  0
  7 23  1  0
  8 24  1  6
  9 25  1  0
 10 26  1  0
 10 27  1  0
 11 28  1  1
 13 29  1  0
 13 30  1  0
M  END
$$$$

     RDKit          3D

 30 30  0  0  0  0  0  0  0  0999 V2000
    3.1217   -0.8845    1.4563 N   0  0  0  0  0  0  0  0  0  0  0  0
    2.2080   -0.2452    0.4910 C   0  0  1  0  0  0  0  0  0  0  0  0
    2.8507   -0.4369   -0.8483 C   0  0  0  0  0  0  0  0  0  0  0  0
    2.1285    0.1040   -1.9110 O   0  0  0  0  0  0  0  0  0  0  0  0
    0.8523   -0.8350    0.6193 C   0  0  0  0  0  0  0  0  0  0  0  0
   -0.1455   -0.3063   -0.2534 N   0  0  0  0  0  0  0  0  0  0  0  0
   -1.3789   -1.0432    0.0118 C   0  0  0  0  0  0  0  0  0  0  0  0
   -2.5234   -0.1008    0.2864 C   0  0  2  0  0  0  0  0  0  0  0  0
   -3.7090   -0.7987    0.4623 O   0  0  0  0  0  0  0  0  0  0  0  0
   -2.6159    0.8287   -0.9273 C   0  0  0  0  0  0  0  0  0  0  0  0
   -1.3972    1.7273   -0.8343 C   0  0  1  0  0  0  0  0  0  0  0  0
   -1.8064    2.8861   -0.2037 F   0  0  0  0  0  0  0  0  0  0  0  0
   -0.3195    1.1073    0.0290 C   0  0  0  0  0  0  0  0  0  0  0  0
    3.1629   -1.9032    1.2830 H   0  0  0  0  0  0  0  0  0  0  0  0
    2.7404   -0.7130    2.4026 H   0  0  0  0  0  0  0  0  0  0  0  0
    2.2252    0.8334    0.7376 H   0  0  0  0  0  0  0  0  0  0  0  0
    3.8136    0.1466   -0.8201 H   0  0  0  0  0  0  0  0  0  0  0  0
    3.1606   -1.4852   -1.0411 H   0  0  0  0  0  0  0  0  0  0  0  0
    2.3617    1.0409   -2.0488 H   0  0  0  0  0  0  0  0  0  0  0  0
    0.9649   -1.9488    0.4608 H   0  0  0  0  0  0  0  0  0  0  0  0
    0.5174   -0.7451    1.6755 H   0  0  0  0  0  0  0  0  0  0  0  0
   -1.2833   -1.7014    0.9150 H   0  0  0  0  0  0  0  0  0  0  0  0
   -1.6494   -1.6885   -0.8538 H   0  0  0  0  0  0  0  0  0  0  0  0
   -2.3471    0.4858    1.1898 H   0  0  0  0  0  0  0  0  0  0  0  0
   -3.9584   -0.8356    1.4398 H   0  0  0  0  0  0  0  0  0  0  0  0
   -3.5436    1.4125   -0.9069 H   0  0  0  0  0  0  0  0  0  0  0  0
   -2.5417    0.2409   -1.8630 H   0  0  0  0  0  0  0  0  0  0  0  0
   -1.0327    1.9429   -1.8381 H   0  0  0  0  0  0  0  0  0  0  0  0
   -0.4775    1.2829    1.1123 H   0  0  0  0  0  0  0  0  0  0  0  0
    0.6215    1.6323   -0.2228 H   0  0  0  0  0  0  0  0  0  0  0  0
  1  2  1  0
  2  3  1  0
  3  4  1  0
  2  5  1  0
  5  6  1  0
  6  7  1  0
  7  8  1  0
  8  9  1  0
  8 10  1  0
 10 11  1  0
 11 12  1  0
 11 13  1  0
 13  6  1  0
  1 14  1  0
  1 15  1  0
  2 16  1  1
  3 17  1  0
  3 18  1  0
  4 19  1  0
  5 20  1  0
  5 21  1  0
  7 22  1  0
  7 23  1  0
  8 24  1  1
  9 25  1  0
 10 26  1  0
 10 27  1  0
 11 28  1  6
 13 29  1  0
 13 30  1  0
M  END
$$$$

     RDKit          3D

 30 30  0  0  0  0  0  0  0  0999 V2000
    2.2452   -0.4743    1.4953 N   0  0  0  0  0  0  0  0  0  0  0  0
    1.9829    0.5315    0.5055 C   0  0  1  0  0  0  0  0  0  0  0  0
    3.2960    1.0151   -0.0657 C   0  0  0  0  0  0  0  0  0  0  0  0
    4.0122   -0.0079   -0.6634 O   0  0  0  0  0  0  0  0  0  0  0  0
    1.0516    0.0348   -0.5826 C   0  0  0  0  0  0  0  0  0  0  0  0
   -0.1755   -0.3390    0.0384 N   0  0  0  0  0  0  0  0  0  0  0  0
   -0.9339    0.7445    0.5794 C   0  0  0  0  0  0  0  0  0  0  0  0
   -2.2681    0.8214   -0.1738 C   0  0  2  0  0  0  0  0  0  0  0  0
   -2.9291    1.9719    0.2434 O   0  0  0  0  0  0  0  0  0  0  0  0
   -3.0811   -0.4331    0.0767 C   0  0  0  0  0  0  0  0  0  0  0  0
   -2.1568   -1.6202    0.2328 C   0  0  1  0  0  0  0  0  0  0  0  0
   -2.7487   -2.8100   -0.1033 F   0  0  0  0  0  0  0  0  0  0  0  0
   -0.9292   -1.3415   -0.6263 C   0  0  0  0  0  0  0  0  0  0  0  0
    2.7163   -1.3110    1.1452 H   0  0  0  0  0  0  0  0  0  0  0  0
    2.5826   -0.0898    2.3899 H   0  0  0  0  0  0  0  0  0  0  0  0
    1.5310    1.4062    1.0487 H   0  0  0  0  0  0  0  0  0  0  0  0
    3.0784    1.8076   -0.8343 H   0  0  0  0  0  0  0  0  0  0  0  0
    3.9296    1.4555    0.7277 H   0  0  0  0  0  0  0  0  0  0  0  0
    4.8071   -0.2945   -0.1418 H   0  0  0  0  0  0  0  0  0  0  0  0
    1.5039   -0.8461   -1.0501 H   0  0  0  0  0  0  0  0  0  0  0  0
    0.9532    0.8096   -1.3686 H   0  0  0  0  0  0  0  0  0  0  0  0
   -0.4619    1.7257    0.5363 H   0  0  0  0  0  0  0  0  0  0  0  0
   -1.2040    0.4807    1.6230 H   0  0  0  0  0  0  0  0  0  0  0  0
   -2.0060    0.8721   -1.2503 H   0  0  0  0  0  0  0  0  0  0  0  0
   -3.8493    1.8008    0.5703 H   0  0  0  0  0  0  0  0  0  0  0  0
   -3.6802   -0.2809    0.9897 H   0  0  0  0  0  0  0  0  0  0  0  0
   -3.7644   -0.5980   -0.7781 H   0  0  0  0  0  0  0  0  0  0  0  0
   -1.8708   -1.6615    1.3091 H   0  0  0  0  0  0  0  0  0  0  0  0
   -1.2798   -1.0859   -1.6347 H   0  0  0  0  0  0  0  0  0  0  0  0
   -0.3513   -2.2838   -0.6745 H   0  0  0  0  0  0  0  0  0  0  0  0
  1  2  1  0
  2  3  1  0
  3  4  1  0
  2  5  1  0
  5  6  1  0
  6  7  1  0
  7  8  1  0
  8  9  1  0
  8 10  1  0
 10 11  1  0
 11 12  1  0
 11 13  1  0
 13  6  1  0
  1 14  1  0
  1 15  1  0
  2 16  1  1
  3 17  1  0
  3 18  1  0
  4 19  1  0
  5 20  1  0
  5 21  1  0
  7 22  1  0
  7 23  1  0
  8 24  1  6
  9 25  1  0
 10 26  1  0
 10 27  1  0
 11 28  1  1
 13 29  1  0
 13 30  1  0
M  END
$$$$

     RDKit          3D

 30 30  0  0  0  0  0  0  0  0999 V2000
    3.1395    0.9483   -1.3203 N   0  0  0  0  0  0  0  0  0  0  0  0
    2.0688    0.0678   -0.8463 C   0  0  1  0  0  0  0  0  0  0  0  0
    2.5984   -0.6385    0.3883 C   0  0  0  0  0  0  0  0  0  0  0  0
    3.7291   -1.3502    0.0353 O   0  0  0  0  0  0  0  0  0  0  0  0
    0.9156    0.9667   -0.4366 C   0  0  0  0  0  0  0  0  0  0  0  0
   -0.2120    0.1970    0.0560 N   0  0  0  0  0  0  0  0  0  0  0  0
   -1.1909    1.1497    0.5800 C   0  0  0  0  0  0  0  0  0  0  0  0
   -2.5458    0.5332    0.7100 C   0  0  2  0  0  0  0  0  0  0  0  0
   -3.1288    1.0309    1.8880 O   0  0  0  0  0  0  0  0  0  0  0  0
   -2.4849   -0.9775    0.8546 C   0  0  0  0  0  0  0  0  0  0  0  0
   -1.6771   -1.6371   -0.2309 C   0  0  1  0  0  0  0  0  0  0  0  0
   -2.4456   -2.3859   -1.0911 F   0  0  0  0  0  0  0  0  0  0  0  0
   -0.8667   -0.5873   -0.9858 C   0  0  0  0  0  0  0  0  0  0  0  0
    3.5622    1.4502   -0.4941 H   0  0  0  0  0  0  0  0  0  0  0  0
    2.7765    1.6829   -1.9655 H   0  0  0  0  0  0  0  0  0  0  0  0
    1.8409   -0.6451   -1.6328 H   0  0  0  0  0  0  0  0  0  0  0  0
    2.8652    0.0892    1.1801 H   0  0  0  0  0  0  0  0  0  0  0  0
    1.8025   -1.2996    0.7878 H   0  0  0  0  0  0  0  0  0  0  0  0
    3.8284   -2.1885    0.5192 H   0  0  0  0  0  0  0  0  0  0  0  0
    0.6221    1.5582   -1.3194 H   0  0  0  0  0  0  0  0  0  0  0  0
    1.2674    1.6382    0.3449 H   0  0  0  0  0  0  0  0  0  0  0  0
   -0.8224    1.4412    1.5913 H   0  0  0  0  0  0  0  0  0  0  0  0
   -1.1714    2.0337   -0.0508 H   0  0  0  0  0  0  0  0  0  0  0  0
   -3.1792    0.8272   -0.1258 H   0  0  0  0  0  0  0  0  0  0  0  0
   -3.0213    2.0304    1.8589 H   0  0  0  0  0  0  0  0  0  0  0  0
   -3.5296   -1.3335    0.7377 H   0  0  0  0  0  0  0  0  0  0  0  0
   -2.1536   -1.2612    1.8725 H   0  0  0  0  0  0  0  0  0  0  0  0
   -0.8984   -2.2871    0.2682 H   0  0  0  0  0  0  0  0  0  0  0  0
   -0.1082   -1.0738   -1.5896 H   0  0  0  0  0  0  0  0  0  0  0  0
   -1.5803    0.0204   -1.5839 H   0  0  0  0  0  0  0  0  0  0  0  0
  1  2  1  0
  2  3  1  0
  3  4  1  0
  2  5  1  0
  5  6  1  0
  6  7  1  0
  7  8  1  0
  8  9  1  0
  8 10  1  0
 10 11  1  0
 11 12  1  0
 11 13  1  0
 13  6  1  0
  1 14  1  0
  1 15  1  0
  2 16  1  6
  3 17  1  0
  3 18  1  0
  4 19  1  0
  5 20  1  0
  5 21  1  0
  7 22  1  0
  7 23  1  0
  8 24  1  6
  9 25  1  0
 10 26  1  0
 10 27  1  0
 11 28  1  1
 13 29  1  0
 13 30  1  0
M  END
$$$$

     RDKit          3D

 30 30  0  0  0  0  0  0  0  0999 V2000
    2.0536    1.3071   -0.0240 N   0  0  0  0  0  0  0  0  0  0  0  0
    2.1328   -0.1113   -0.2997 C   0  0  1  0  0  0  0  0  0  0  0  0
    3.3103   -0.7333    0.4316 C   0  0  0  0  0  0  0  0  0  0  0  0
    4.4875   -0.0951    0.0020 O   0  0  0  0  0  0  0  0  0  0  0  0
    0.9000   -0.8542    0.1269 C   0  0  0  0  0  0  0  0  0  0  0  0
   -0.3011   -0.4452   -0.5181 N   0  0  0  0  0  0  0  0  0  0  0  0
   -0.7262    0.8488   -0.1428 C   0  0  0  0  0  0  0  0  0  0  0  0
   -2.1429    1.2092   -0.4392 C   0  0  2  0  0  0  0  0  0  0  0  0
   -2.5776    2.1393    0.5417 O   0  0  0  0  0  0  0  0  0  0  0  0
   -3.1168    0.0758   -0.4205 C   0  0  0  0  0  0  0  0  0  0  0  0
   -2.4909   -1.0855    0.3182 C   0  0  1  0  0  0  0  0  0  0  0  0
   -3.4002   -2.1312    0.3203 F   0  0  0  0  0  0  0  0  0  0  0  0
   -1.2723   -1.4831   -0.4966 C   0  0  0  0  0  0  0  0  0  0  0  0
    2.6429    1.7992   -0.7333 H   0  0  0  0  0  0  0  0  0  0  0  0
    2.3375    1.5448    0.9380 H   0  0  0  0  0  0  0  0  0  0  0  0
    2.2705   -0.2458   -1.3783 H   0  0  0  0  0  0  0  0  0  0  0  0
    3.2554   -0.6480    1.5200 H   0  0  0  0  0  0  0  0  0  0  0  0
    3.4404   -1.8104    0.1754 H   0  0  0  0  0  0  0  0  0  0  0  0
    4.5586    0.7303    0.5862 H   0  0  0  0  0  0  0  0  0  0  0  0
    0.8463   -0.7458    1.2484 H   0  0  0  0  0  0  0  0  0  0  0  0
    1.1073   -1.9527   -0.0339 H   0  0  0  0  0  0  0  0  0  0  0  0
   -0.1039    1.5812   -0.7536 H   0  0  0  0  0  0  0  0  0  0  0  0
   -0.4755    1.1247    0.9075 H   0  0  0  0  0  0  0  0  0  0  0  0
   -2.1789    1.7420   -1.4351 H   0  0  0  0  0  0  0  0  0  0  0  0
   -2.3332    3.0579    0.2871 H   0  0  0  0  0  0  0  0  0  0  0  0
   -4.0781    0.3260    0.0719 H   0  0  0  0  0  0  0  0  0  0  0  0
   -3.3570   -0.2332   -1.4583 H   0  0  0  0  0  0  0  0  0  0  0  0
   -2.2721   -0.8172    1.3460 H   0  0  0  0  0  0  0  0  0  0  0  0
   -0.8739   -2.4617   -0.1255 H   0  0  0  0  0  0  0  0  0  0  0  0
   -1.6423   -1.6325   -1.5601 H   0  0  0  0  0  0  0  0  0  0  0  0
  1  2  1  0
  2  3  1  0
  3  4  1  0
  2  5  1  0
  5  6  1  0
  6  7  1  0
  7  8  1  0
  8  9  1  0
  8 10  1  0
 10 11  1  0
 11 12  1  0
 11 13  1  0
 13  6  1  0
  1 14  1  0
  1 15  1  0
  2 16  1  6
  3 17  1  0
  3 18  1  0
  4 19  1  0
  5 20  1  0
  5 21  1  0
  7 22  1  0
  7 23  1  0
  8 24  1  6
  9 25  1  0
 10 26  1  0
 10 27  1  0
 11 28  1  1
 13 29  1  0
 13 30  1  0
M  END
$$$$

     RDKit          3D

 30 30  0  0  0  0  0  0  0  0999 V2000
    2.6313   -1.0837    0.8493 N   0  0  0  0  0  0  0  0  0  0  0  0
    2.1708    0.2449    0.4442 C   0  0  1  0  0  0  0  0  0  0  0  0
    3.4231    0.8935   -0.1734 C   0  0  0  0  0  0  0  0  0  0  0  0
    3.1567    2.1709   -0.6130 O   0  0  0  0  0  0  0  0  0  0  0  0
    1.0752    0.1662   -0.5652 C   0  0  0  0  0  0  0  0  0  0  0  0
   -0.0975   -0.5190   -0.1535 N   0  0  0  0  0  0  0  0  0  0  0  0
   -1.0647   -0.5351   -1.2307 C   0  0  0  0  0  0  0  0  0  0  0  0
   -2.3806   -1.0058   -0.6494 C   0  0  2  0  0  0  0  0  0  0  0  0
   -3.2938   -1.3420   -1.6465 O   0  0  0  0  0  0  0  0  0  0  0  0
   -2.9400    0.1660    0.1453 C   0  0  0  0  0  0  0  0  0  0  0  0
   -1.8663    0.7089    1.0344 C   0  0  1  0  0  0  0  0  0  0  0  0
   -2.3854    0.7757    2.3202 F   0  0  0  0  0  0  0  0  0  0  0  0
   -0.6518   -0.1859    1.1051 C   0  0  0  0  0  0  0  0  0  0  0  0
    1.8148   -1.7218    0.9761 H   0  0  0  0  0  0  0  0  0  0  0  0
    3.2808   -1.4348    0.1291 H   0  0  0  0  0  0  0  0  0  0  0  0
    1.8933    0.7724    1.3769 H   0  0  0  0  0  0  0  0  0  0  0  0
    4.2459    0.8398    0.5662 H   0  0  0  0  0  0  0  0  0  0  0  0
    3.7328    0.2792   -1.0435 H   0  0  0  0  0  0  0  0  0  0  0  0
    2.6906    2.6475    0.1426 H   0  0  0  0  0  0  0  0  0  0  0  0
    0.8646    1.1734   -1.0131 H   0  0  0  0  0  0  0  0  0  0  0  0
    1.4991   -0.4164   -1.4367 H   0  0  0  0  0  0  0  0  0  0  0  0
   -0.6998   -1.2453   -2.0013 H   0  0  0  0  0  0  0  0  0  0  0  0
   -1.2341    0.4879   -1.6487 H   0  0  0  0  0  0  0  0  0  0  0  0
   -2.1712   -1.8388    0.0298 H   0  0  0  0  0  0  0  0  0  0  0  0
   -4.0919   -1.7098   -1.2012 H   0  0  0  0  0  0  0  0  0  0  0  0
   -3.1843    0.9627   -0.6069 H   0  0  0  0  0  0  0  0  0  0  0  0
   -3.8710   -0.0842    0.6636 H   0  0  0  0  0  0  0  0  0  0  0  0
   -1.5420    1.7355    0.7779 H   0  0  0  0  0  0  0  0  0  0  0  0
    0.0185    0.2466    1.8546 H   0  0  0  0  0  0  0  0  0  0  0  0
   -1.0227   -1.1485    1.5677 H   0  0  0  0  0  0  0  0  0  0  0  0
  1  2  1  0
  2  3  1  0
  3  4  1  0
  2  5  1  0
  5  6  1  0
  6  7  1  0
  7  8  1  0
  8  9  1  0
  8 10  1  0
 10 11  1  0
 11 12  1  0
 11 13  1  0
 13  6  1  0
  1 14  1  0
  1 15  1  0
  2 16  1  1
  3 17  1  0
  3 18  1  0
  4 19  1  0
  5 20  1  0
  5 21  1  0
  7 22  1  0
  7 23  1  0
  8 24  1  1
  9 25  1  0
 10 26  1  0
 10 27  1  0
 11 28  1  6
 13 29  1  0
 13 30  1  0
M  END
$$$$

     RDKit          3D

 30 30  0  0  0  0  0  0  0  0999 V2000
    3.1296   -0.2959    1.4391 N   0  0  0  0  0  0  0  0  0  0  0  0
    2.0476    0.3766    0.7437 C   0  0  1  0  0  0  0  0  0  0  0  0
    2.6617    1.0030   -0.5032 C   0  0  0  0  0  0  0  0  0  0  0  0
    3.2359    0.0301   -1.3209 O   0  0  0  0  0  0  0  0  0  0  0  0
    1.0377   -0.6900    0.3743 C   0  0  0  0  0  0  0  0  0  0  0  0
   -0.0972   -0.1307   -0.3368 N   0  0  0  0  0  0  0  0  0  0  0  0
   -0.8461    0.6757    0.5549 C   0  0  0  0  0  0  0  0  0  0  0  0
   -2.2572    0.9708    0.1560 C   0  0  2  0  0  0  0  0  0  0  0  0
   -2.8888    1.6589    1.1871 O   0  0  0  0  0  0  0  0  0  0  0  0
   -2.9369   -0.3555   -0.1152 C   0  0  0  0  0  0  0  0  0  0  0  0
   -2.2033   -0.9345   -1.3301 C   0  0  1  0  0  0  0  0  0  0  0  0
   -2.3521   -0.0254   -2.3438 F   0  0  0  0  0  0  0  0  0  0  0  0
   -0.7575   -1.1846   -1.0135 C   0  0  0  0  0  0  0  0  0  0  0  0
    2.8446   -0.4690    2.4170 H   0  0  0  0  0  0  0  0  0  0  0  0
    3.2476   -1.2469    1.0000 H   0  0  0  0  0  0  0  0  0  0  0  0
    1.6351    1.1696    1.3787 H   0  0  0  0  0  0  0  0  0  0  0  0
    1.8861    1.5364   -1.0643 H   0  0  0  0  0  0  0  0  0  0  0  0
    3.4293    1.7207   -0.1676 H   0  0  0  0  0  0  0  0  0  0  0  0
    3.8391   -0.5809   -0.8373 H   0  0  0  0  0  0  0  0  0  0  0  0
    0.7120   -1.1602    1.3307 H   0  0  0  0  0  0  0  0  0  0  0  0
    1.5873   -1.4463   -0.2125 H   0  0  0  0  0  0  0  0  0  0  0  0
   -0.2991    1.6599    0.6437 H   0  0  0  0  0  0  0  0  0  0  0  0
   -0.8676    0.2062    1.5684 H   0  0  0  0  0  0  0  0  0  0  0  0
   -2.3149    1.5784   -0.7733 H   0  0  0  0  0  0  0  0  0  0  0  0
   -3.0617    2.6051    0.9318 H   0  0  0  0  0  0  0  0  0  0  0  0
   -2.7858   -1.0402    0.7588 H   0  0  0  0  0  0  0  0  0  0  0  0
   -3.9933   -0.2498   -0.3810 H   0  0  0  0  0  0  0  0  0  0  0  0
   -2.6934   -1.8890   -1.5738 H   0  0  0  0  0  0  0  0  0  0  0  0
   -0.6939   -2.1619   -0.5016 H   0  0  0  0  0  0  0  0  0  0  0  0
   -0.2448   -1.3304   -2.0095 H   0  0  0  0  0  0  0  0  0  0  0  0
  1  2  1  0
  2  3  1  0
  3  4  1  0
  2  5  1  0
  5  6  1  0
  6  7  1  0
  7  8  1  0
  8  9  1  0
  8 10  1  0
 10 11  1  0
 11 12  1  0
 11 13  1  0
 13  6  1  0
  1 14  1  0
  1 15  1  0
  2 16  1  1
  3 17  1  0
  3 18  1  0
  4 19  1  0
  5 20  1  0
  5 21  1  0
  7 22  1  0
  7 23  1  0
  8 24  1  6
  9 25  1  0
 10 26  1  0
 10 27  1  0
 11 28  1  6
 13 29  1  0
 13 30  1  0
M  END
$$$$
