
     RDKit          3D

 30 30  0  0  0  0  0  0  0  0999 V2000
    1.2934   -0.5738    2.1946 C   0  0  0  0  0  0  0  0  0  0  0  0
    1.5363    0.3223    1.0254 C   0  0  1  0  0  0  0  0  0  0  0  0
    2.7260   -0.0933    0.1811 C   0  0  1  0  0  0  0  0  0  0  0  0
    2.6606   -1.4686   -0.0788 O   0  0  0  0  0  0  0  0  0  0  0  0
    2.4455    0.6371   -1.1185 C   0  0  0  0  0  0  0  0  0  0  0  0
    0.9657    1.0468   -1.0459 C   0  0  0  0  0  0  0  0  0  0  0  0
    0.5095    0.3134    0.0558 N   0  0  0  0  0  0  0  0  0  0  0  0
   -0.8134    0.3365    0.4549 C   0  0  0  0  0  0  0  0  0  0  0  0
   -1.7895   -0.3026   -0.4625 C   0  0  1  0  0  0  0  0  0  0  0  0
   -1.5175   -1.7074   -0.6817 N   0  0  0  0  0  0  0  0  0  0  0  0
   -3.1835   -0.2127    0.0953 C   0  0  0  0  0  0  0  0  0  0  0  0
   -3.7429    1.0492    0.4232 N   0  0  0  0  0  0  0  0  0  0  0  0
   -3.8447   -1.2523    0.2671 O   0  0  0  0  0  0  0  0  0  0  0  0
    2.2037   -0.8337    2.7376 H   0  0  0  0  0  0  0  0  0  0  0  0
    0.6164    0.0025    2.8936 H   0  0  0  0  0  0  0  0  0  0  0  0
    0.6859   -1.4682    1.9041 H   0  0  0  0  0  0  0  0  0  0  0  0
    1.7685    1.3453    1.3967 H   0  0  0  0  0  0  0  0  0  0  0  0
    3.6874    0.2041    0.6422 H   0  0  0  0  0  0  0  0  0  0  0  0
    2.2509   -1.9499    0.6860 H   0  0  0  0  0  0  0  0  0  0  0  0
    3.1013    1.5314   -1.1353 H   0  0  0  0  0  0  0  0  0  0  0  0
    2.6468   -0.0106   -1.9842 H   0  0  0  0  0  0  0  0  0  0  0  0
    0.5416    0.8292   -2.0234 H   0  0  0  0  0  0  0  0  0  0  0  0
    0.9593    2.1453   -0.7985 H   0  0  0  0  0  0  0  0  0  0  0  0
   -0.9175   -0.1410    1.4522 H   0  0  0  0  0  0  0  0  0  0  0  0
   -1.1446    1.3975    0.6128 H   0  0  0  0  0  0  0  0  0  0  0  0
   -1.8528    0.1807   -1.4609 H   0  0  0  0  0  0  0  0  0  0  0  0
   -1.6316   -2.2194    0.2406 H   0  0  0  0  0  0  0  0  0  0  0  0
   -2.2634   -2.1167   -1.2913 H   0  0  0  0  0  0  0  0  0  0  0  0
   -4.0903    1.1989    1.3863 H   0  0  0  0  0  0  0  0  0  0  0  0
   -3.8071    1.8102   -0.2732 H   0  0  0  0  0  0  0  0  0  0  0  0
  1  2  1  0
  2  3  1  0
  3  4  1  0
  3  5  1  0
  5  6  1  0
  6  7  1  0
  7  8  1  0
  8  9  1  0
  9 10  1  0
  9 11  1  0
 11 12  1  0
 11 13  2  0
  7  2  1  0
  1 14  1  0
  1 15  1  0
  1 16  1  0
  2 17  1  1
  3 18  1  1
  4 19  1  0
  5 20  1  0
  5 21  1  0
  6 22  1  0
  6 23  1  0
  8 24  1  0
  8 25  1  0
  9 26  1  6
 10 27  1  0
 10 28  1  0
 12 29  1  0
 12 30  1  0
M  END
$$$$

     RDKit          3D

 30 30  0  0  0  0  0  0  0  0999 V2000
   -0.4778   -1.6093    1.1245 C   0  0  0  0  0  0  0  0  0  0  0  0
   -1.3069   -0.8987    0.1180 C   0  0  1  0  0  0  0  0  0  0  0  0
   -2.2544    0.0815    0.8072 C   0  0  1  0  0  0  0  0  0  0  0  0
   -1.6170    0.9241    1.6842 O   0  0  0  0  0  0  0  0  0  0  0  0
   -2.8411    0.7763   -0.3965 C   0  0  0  0  0  0  0  0  0  0  0  0
   -1.6477    0.9021   -1.2861 C   0  0  0  0  0  0  0  0  0  0  0  0
   -0.7142   -0.1851   -0.9167 N   0  0  0  0  0  0  0  0  0  0  0  0
    0.5592    0.3929   -0.8355 C   0  0  0  0  0  0  0  0  0  0  0  0
    1.7512   -0.4932   -0.6646 C   0  0  1  0  0  0  0  0  0  0  0  0
    1.8331   -1.4393   -1.7957 N   0  0  0  0  0  0  0  0  0  0  0  0
    3.0030    0.3437   -0.7010 C   0  0  0  0  0  0  0  0  0  0  0  0
    3.2361    1.2972    0.3032 N   0  0  0  0  0  0  0  0  0  0  0  0
    3.8133    0.1785   -1.6201 O   0  0  0  0  0  0  0  0  0  0  0  0
   -1.2430   -2.1207    1.8166 H   0  0  0  0  0  0  0  0  0  0  0  0
    0.0608   -2.4520    0.6936 H   0  0  0  0  0  0  0  0  0  0  0  0
    0.0715   -0.9648    1.8266 H   0  0  0  0  0  0  0  0  0  0  0  0
   -2.0134   -1.6904   -0.3142 H   0  0  0  0  0  0  0  0  0  0  0  0
   -3.0194   -0.4952    1.3826 H   0  0  0  0  0  0  0  0  0  0  0  0
   -1.7045    1.8656    1.3999 H   0  0  0  0  0  0  0  0  0  0  0  0
   -3.5989    0.0922   -0.8652 H   0  0  0  0  0  0  0  0  0  0  0  0
   -3.2994    1.7393   -0.1206 H   0  0  0  0  0  0  0  0  0  0  0  0
   -1.9270    0.8297   -2.3607 H   0  0  0  0  0  0  0  0  0  0  0  0
   -1.1920    1.8912   -1.1352 H   0  0  0  0  0  0  0  0  0  0  0  0
    0.6271    1.2067   -0.0550 H   0  0  0  0  0  0  0  0  0  0  0  0
    0.7526    0.9511   -1.8091 H   0  0  0  0  0  0  0  0  0  0  0  0
    1.7970   -0.9972    0.3083 H   0  0  0  0  0  0  0  0  0  0  0  0
    2.1051   -2.3923   -1.4094 H   0  0  0  0  0  0  0  0  0  0  0  0
    2.5591   -1.1048   -2.4659 H   0  0  0  0  0  0  0  0  0  0  0  0
    2.7060    1.3475    1.2061 H   0  0  0  0  0  0  0  0  0  0  0  0
    3.9819    2.0231    0.1784 H   0  0  0  0  0  0  0  0  0  0  0  0
  1  2  1  0
  2  3  1  0
  3  4  1  0
  3  5  1  0
  5  6  1  0
  6  7  1  0
  7  8  1  0
  8  9  1  0
  9 10  1  0
  9 11  1  0
 11 12  1  0
 11 13  2  0
  7  2  1  0
  1 14  1  0
  1 15  1  0
  1 16  1  0
  2 17  1  6
  3 18  1  1
  4 19  1  0
  5 20  1  0
  5 21  1  0
  6 22  1  0
  6 23  1  0
  8 24  1  0
  8 25  1  0
  9 26  1  1
 10 27  1  0
 10 28  1  0
 12 29  1  0
 12 30  1  0
M  END
$$$$

     RDKit          3D

 30 30  0  0  0  0  0  0  0  0999 V2000
   -2.1577   -1.0355   -0.9988 C   0  0  0  0  0  0  0  0  0  0  0  0
   -1.4436    0.2798   -0.6547 C   0  0  1  0  0  0  0  0  0  0  0  0
   -2.3880    1.0102    0.3076 C   0  0  1  0  0  0  0  0  0  0  0  0
   -3.7157    0.7151    0.0293 O   0  0  0  0  0  0  0  0  0  0  0  0
   -1.9346    0.4118    1.6216 C   0  0  0  0  0  0  0  0  0  0  0  0
   -0.4126    0.5151    1.4266 C   0  0  0  0  0  0  0  0  0  0  0  0
   -0.2839   -0.0410    0.1085 N   0  0  0  0  0  0  0  0  0  0  0  0
    0.9777    0.2396   -0.4742 C   0  0  0  0  0  0  0  0  0  0  0  0
    2.0222   -0.5675    0.3100 C   0  0  1  0  0  0  0  0  0  0  0  0
    1.6662   -1.9874    0.1787 N   0  0  0  0  0  0  0  0  0  0  0  0
    3.3632   -0.3689   -0.2506 C   0  0  0  0  0  0  0  0  0  0  0  0
    3.9246    0.9447   -0.2438 N   0  0  0  0  0  0  0  0  0  0  0  0
    4.0009   -1.3501   -0.7282 O   0  0  0  0  0  0  0  0  0  0  0  0
   -2.8483   -1.3440   -0.1871 H   0  0  0  0  0  0  0  0  0  0  0  0
   -1.4160   -1.8532   -1.1216 H   0  0  0  0  0  0  0  0  0  0  0  0
   -2.7497   -0.9291   -1.9212 H   0  0  0  0  0  0  0  0  0  0  0  0
   -1.2632    0.8650   -1.5719 H   0  0  0  0  0  0  0  0  0  0  0  0
   -2.1411    2.0744    0.2968 H   0  0  0  0  0  0  0  0  0  0  0  0
   -4.2547    1.4340    0.4870 H   0  0  0  0  0  0  0  0  0  0  0  0
   -2.2674    0.9927    2.4982 H   0  0  0  0  0  0  0  0  0  0  0  0
   -2.1541   -0.6622    1.6672 H   0  0  0  0  0  0  0  0  0  0  0  0
   -0.1509    1.5809    1.3908 H   0  0  0  0  0  0  0  0  0  0  0  0
    0.1166   -0.0454    2.2157 H   0  0  0  0  0  0  0  0  0  0  0  0
    1.2476    1.3095   -0.2786 H   0  0  0  0  0  0  0  0  0  0  0  0
    1.0182    0.0045   -1.5370 H   0  0  0  0  0  0  0  0  0  0  0  0
    1.9426   -0.2995    1.3797 H   0  0  0  0  0  0  0  0  0  0  0  0
    0.6876   -2.1659    0.4978 H   0  0  0  0  0  0  0  0  0  0  0  0
    2.3758   -2.5531    0.6561 H   0  0  0  0  0  0  0  0  0  0  0  0
    4.9673    1.0779   -0.1828 H   0  0  0  0  0  0  0  0  0  0  0  0
    3.2712    1.7475   -0.3003 H   0  0  0  0  0  0  0  0  0  0  0  0
  1  2  1  0
  2  3  1  0
  3  4  1  0
  3  5  1  0
  5  6  1  0
  6  7  1  0
  7  8  1  0
  8  9  1  0
  9 10  1  0
  9 11  1  0
 11 12  1  0
 11 13  2  0
  7  2  1  0
  1 14  1  0
  1 15  1  0
  1 16  1  0
  2 17  1  6
  3 18  1  1
  4 19  1  0
  5 20  1  0
  5 21  1  0
  6 22  1  0
  6 23  1  0
  8 24  1  0
  8 25  1  0
  9 26  1  1
 10 27  1  0
 10 28  1  0
 12 29  1  0
 12 30  1  0
M  END
$$$$

     RDKit          3D

 30 30  0  0  0  0  0  0  0  0999 V2000
   -1.4418    0.8858    1.7478 C   0  0  0  0  0  0  0  0  0  0  0  0
   -1.4282   -0.0795    0.6560 C   0  0  1  0  0  0  0  0  0  0  0  0
   -2.6806   -0.0712   -0.2346 C   0  0  1  0  0  0  0  0  0  0  0  0
   -2.8133    1.2143   -0.7949 O   0  0  0  0  0  0  0  0  0  0  0  0
   -2.2644   -1.0591   -1.3016 C   0  0  0  0  0  0  0  0  0  0  0  0
   -0.7553   -0.8710   -1.3977 C   0  0  0  0  0  0  0  0  0  0  0  0
   -0.4265   -0.0344   -0.3309 N   0  0  0  0  0  0  0  0  0  0  0  0
    0.7643    0.6098   -0.1944 C   0  0  0  0  0  0  0  0  0  0  0  0
    1.8797   -0.4045    0.0840 C   0  0  1  0  0  0  0  0  0  0  0  0
    2.0358   -1.3547   -0.9691 N   0  0  0  0  0  0  0  0  0  0  0  0
    3.1861    0.2684    0.3240 C   0  0  0  0  0  0  0  0  0  0  0  0
    3.2285    1.2926    1.3278 N   0  0  0  0  0  0  0  0  0  0  0  0
    4.1984   -0.0549   -0.3335 O   0  0  0  0  0  0  0  0  0  0  0  0
   -0.9277    0.4422    2.6525 H   0  0  0  0  0  0  0  0  0  0  0  0
   -0.9821    1.8730    1.5926 H   0  0  0  0  0  0  0  0  0  0  0  0
   -2.4829    1.0693    2.1043 H   0  0  0  0  0  0  0  0  0  0  0  0
   -1.4327   -1.1234    1.0937 H   0  0  0  0  0  0  0  0  0  0  0  0
   -3.5713   -0.3839    0.3208 H   0  0  0  0  0  0  0  0  0  0  0  0
   -1.9938    1.7453   -0.6626 H   0  0  0  0  0  0  0  0  0  0  0  0
   -2.7658   -0.8711   -2.2702 H   0  0  0  0  0  0  0  0  0  0  0  0
   -2.5399   -2.0645   -0.8922 H   0  0  0  0  0  0  0  0  0  0  0  0
   -0.5476   -0.5553   -2.4139 H   0  0  0  0  0  0  0  0  0  0  0  0
   -0.3107   -1.8926   -1.1750 H   0  0  0  0  0  0  0  0  0  0  0  0
    1.0794    1.0665   -1.1814 H   0  0  0  0  0  0  0  0  0  0  0  0
    0.8736    1.4247    0.5214 H   0  0  0  0  0  0  0  0  0  0  0  0
    1.5843   -0.9864    1.0075 H   0  0  0  0  0  0  0  0  0  0  0  0
    2.2507   -2.3115   -0.7467 H   0  0  0  0  0  0  0  0  0  0  0  0
    1.8010   -1.0807   -1.9069 H   0  0  0  0  0  0  0  0  0  0  0  0
    3.1125    1.0108    2.3177 H   0  0  0  0  0  0  0  0  0  0  0  0
    3.3705    2.2963    1.0556 H   0  0  0  0  0  0  0  0  0  0  0  0
  1  2  1  0
  2  3  1  0
  3  4  1  0
  3  5  1  0
  5  6  1  0
  6  7  1  0
  7  8  1  0
  8  9  1  0
  9 10  1  0
  9 11  1  0
 11 12  1  0
 11 13  2  0
  7  2  1  0
  1 14  1  0
  1 15  1  0
  1 16  1  0
  2 17  1  1
  3 18  1  1
  4 19  1  0
  5 20  1  0
  5 21  1  0
  6 22  1  0
  6 23  1  0
  8 24  1  0
  8 25  1  0
  9 26  1  1
 10 27  1  0
 10 28  1  0
 12 29  1  0
 12 30  1  0
M  END
$$$$

     RDKit          3D

 30 30  0  0  0  0  0  0  0  0999 V2000
   -1.5687    1.8972    0.4337 C   0  0  0  0  0  0  0  0  0  0  0  0
   -0.9291    0.5645    0.7481 C   0  0  1  0  0  0  0  0  0  0  0  0
   -2.0123   -0.4424    1.1170 C   0  0  1  0  0  0  0  0  0  0  0  0
   -3.1382    0.1585    1.6162 O   0  0  0  0  0  0  0  0  0  0  0  0
   -2.2502   -1.1087   -0.2411 C   0  0  0  0  0  0  0  0  0  0  0  0
   -0.8228   -1.2184   -0.7531 C   0  0  0  0  0  0  0  0  0  0  0  0
   -0.2384   -0.0320   -0.3254 N   0  0  0  0  0  0  0  0  0  0  0  0
    0.7725    0.6258   -0.9951 C   0  0  0  0  0  0  0  0  0  0  0  0
    2.1198   -0.0481   -1.0365 C   0  0  1  0  0  0  0  0  0  0  0  0
    3.0314    0.8010   -1.7817 N   0  0  0  0  0  0  0  0  0  0  0  0
    2.6527   -0.2462    0.3450 C   0  0  0  0  0  0  0  0  0  0  0  0
    1.9682   -1.0312    1.3115 N   0  0  0  0  0  0  0  0  0  0  0  0
    3.7503    0.2984    0.6765 O   0  0  0  0  0  0  0  0  0  0  0  0
   -0.8010    2.6584    0.2462 H   0  0  0  0  0  0  0  0  0  0  0  0
   -2.1912    1.7749   -0.4733 H   0  0  0  0  0  0  0  0  0  0  0  0
   -2.1810    2.1745    1.3160 H   0  0  0  0  0  0  0  0  0  0  0  0
   -0.2425    0.7130    1.6132 H   0  0  0  0  0  0  0  0  0  0  0  0
   -1.5448   -1.1782    1.7788 H   0  0  0  0  0  0  0  0  0  0  0  0
   -3.7131   -0.5565    1.9961 H   0  0  0  0  0  0  0  0  0  0  0  0
   -2.6790   -2.1263   -0.0715 H   0  0  0  0  0  0  0  0  0  0  0  0
   -2.8810   -0.4736   -0.8844 H   0  0  0  0  0  0  0  0  0  0  0  0
   -0.4311   -2.1596   -0.3147 H   0  0  0  0  0  0  0  0  0  0  0  0
   -0.8666   -1.3690   -1.8519 H   0  0  0  0  0  0  0  0  0  0  0  0
    0.9477    1.6223   -0.4885 H   0  0  0  0  0  0  0  0  0  0  0  0
    0.4782    0.9184   -2.0411 H   0  0  0  0  0  0  0  0  0  0  0  0
    2.1162   -1.0251   -1.5213 H   0  0  0  0  0  0  0  0  0  0  0  0
    3.4928    0.2969   -2.5610 H   0  0  0  0  0  0  0  0  0  0  0  0
    3.7615    1.2259   -1.1636 H   0  0  0  0  0  0  0  0  0  0  0  0
    1.5602   -1.9543    1.0081 H   0  0  0  0  0  0  0  0  0  0  0  0
    1.8395   -0.7599    2.2979 H   0  0  0  0  0  0  0  0  0  0  0  0
  1  2  1  0
  2  3  1  0
  3  4  1  0
  3  5  1  0
  5  6  1  0
  6  7  1  0
  7  8  1  0
  8  9  1  0
  9 10  1  0
  9 11  1  0
 11 12  1  0
 11 13  2  0
  7  2  1  0
  1 14  1  0
  1 15  1  0
  1 16  1  0
  2 17  1  1
  3 18  1  1
  4 19  1  0
  5 20  1  0
  5 21  1  0
  6 22  1  0
  6 23  1  0
  8 24  1  0
  8 25  1  0
  9 26  1  6
 10 27  1  0
 10 28  1  0
 12 29  1  0
 12 30  1  0
M  END
$$$$

     RDKit          3D

 30 30  0  0  0  0  0  0  0  0999 V2000
   -1.5072   -2.0151    0.2865 C   0  0  0  0  0  0  0  0  0  0  0  0
   -1.2729   -0.6713   -0.3485 C   0  0  1  0  0  0  0  0  0  0  0  0
   -2.5489    0.1357   -0.4842 C   0  0  1  0  0  0  0  0  0  0  0  0
   -3.2983    0.0472    0.6760 O   0  0  0  0  0  0  0  0  0  0  0  0
   -1.9419    1.5498   -0.4506 C   0  0  0  0  0  0  0  0  0  0  0  0
   -1.0545    1.3714    0.7460 C   0  0  0  0  0  0  0  0  0  0  0  0
   -0.3199    0.1479    0.4025 N   0  0  0  0  0  0  0  0  0  0  0  0
    0.7586    0.5434   -0.4721 C   0  0  0  0  0  0  0  0  0  0  0  0
    1.8086   -0.5650   -0.6068 C   0  0  1  0  0  0  0  0  0  0  0  0
    2.8167   -0.0490   -1.5257 N   0  0  0  0  0  0  0  0  0  0  0  0
    2.4828   -0.7280    0.7394 C   0  0  0  0  0  0  0  0  0  0  0  0
    3.7892   -0.2514    0.9837 N   0  0  0  0  0  0  0  0  0  0  0  0
    1.8532   -1.2967    1.6334 O   0  0  0  0  0  0  0  0  0  0  0  0
   -2.1209   -1.9064    1.2137 H   0  0  0  0  0  0  0  0  0  0  0  0
   -0.5143   -2.4723    0.4846 H   0  0  0  0  0  0  0  0  0  0  0  0
   -2.0204   -2.6507   -0.4665 H   0  0  0  0  0  0  0  0  0  0  0  0
   -0.9039   -0.8287   -1.3965 H   0  0  0  0  0  0  0  0  0  0  0  0
   -3.1066   -0.0637   -1.4067 H   0  0  0  0  0  0  0  0  0  0  0  0
   -3.6376    0.9545    0.9483 H   0  0  0  0  0  0  0  0  0  0  0  0
   -2.7300    2.3163   -0.2936 H   0  0  0  0  0  0  0  0  0  0  0  0
   -1.3672    1.6802   -1.3601 H   0  0  0  0  0  0  0  0  0  0  0  0
   -0.3607    2.2135    0.8943 H   0  0  0  0  0  0  0  0  0  0  0  0
   -1.6714    1.1284    1.6344 H   0  0  0  0  0  0  0  0  0  0  0  0
    1.2631    1.4545   -0.1117 H   0  0  0  0  0  0  0  0  0  0  0  0
    0.3967    0.7753   -1.5115 H   0  0  0  0  0  0  0  0  0  0  0  0
    1.3602   -1.4877   -0.9700 H   0  0  0  0  0  0  0  0  0  0  0  0
    2.8892    0.9708   -1.3163 H   0  0  0  0  0  0  0  0  0  0  0  0
    2.3921   -0.1263   -2.4871 H   0  0  0  0  0  0  0  0  0  0  0  0
    4.5983   -0.8361    0.6852 H   0  0  0  0  0  0  0  0  0  0  0  0
    3.9683    0.6595    1.4551 H   0  0  0  0  0  0  0  0  0  0  0  0
  1  2  1  0
  2  3  1  0
  3  4  1  0
  3  5  1  0
  5  6  1  0
  6  7  1  0
  7  8  1  0
  8  9  1  0
  9 10  1  0
  9 11  1  0
 11 12  1  0
 11 13  2  0
  7  2  1  0
  1 14  1  0
  1 15  1  0
  1 16  1  0
  2 17  1  6
  3 18  1  6
  4 19  1  0
  5 20  1  0
  5 21  1  0
  6 22  1  0
  6 23  1  0
  8 24  1  0
  8 25  1  0
  9 26  1  6
 10 27  1  0
 10 28  1  0
 12 29  1  0
 12 30  1  0
M  END
$$$$

     RDKit          3D

 30 30  0  0  0  0  0  0  0  0999 V2000
   -2.5676   -0.3374    1.5728 C   0  0  0  0  0  0  0  0  0  0  0  0
   -1.6473   -0.5508    0.3923 C   0  0  1  0  0  0  0  0  0  0  0  0
   -2.0103    0.5115   -0.6460 C   0  0  1  0  0  0  0  0  0  0  0  0
   -3.3777    0.7728   -0.6343 O   0  0  0  0  0  0  0  0  0  0  0  0
   -1.2972    1.7086   -0.0920 C   0  0  0  0  0  0  0  0  0  0  0  0
   -0.0254    1.1000    0.4989 C   0  0  0  0  0  0  0  0  0  0  0  0
   -0.2616   -0.2758    0.7175 N   0  0  0  0  0  0  0  0  0  0  0  0
    0.6505   -1.1084    0.0209 C   0  0  0  0  0  0  0  0  0  0  0  0
    2.0585   -1.1857    0.4574 C   0  0  1  0  0  0  0  0  0  0  0  0
    2.7330   -2.1363   -0.4757 N   0  0  0  0  0  0  0  0  0  0  0  0
    2.8716    0.0082    0.4779 C   0  0  0  0  0  0  0  0  0  0  0  0
    2.8626    1.0587    1.4364 N   0  0  0  0  0  0  0  0  0  0  0  0
    3.7360    0.2050   -0.4581 O   0  0  0  0  0  0  0  0  0  0  0  0
   -2.2222    0.5477    2.1178 H   0  0  0  0  0  0  0  0  0  0  0  0
   -3.5863   -0.1391    1.1646 H   0  0  0  0  0  0  0  0  0  0  0  0
   -2.6343   -1.2434    2.2112 H   0  0  0  0  0  0  0  0  0  0  0  0
   -1.7468   -1.5550   -0.0589 H   0  0  0  0  0  0  0  0  0  0  0  0
   -1.6471    0.2561   -1.6526 H   0  0  0  0  0  0  0  0  0  0  0  0
   -3.5292    1.7421   -0.5797 H   0  0  0  0  0  0  0  0  0  0  0  0
   -1.8874    2.2248    0.6952 H   0  0  0  0  0  0  0  0  0  0  0  0
   -1.0261    2.3769   -0.9228 H   0  0  0  0  0  0  0  0  0  0  0  0
    0.7415    1.2140   -0.2910 H   0  0  0  0  0  0  0  0  0  0  0  0
    0.2243    1.6231    1.4547 H   0  0  0  0  0  0  0  0  0  0  0  0
    0.6499   -0.8650   -1.0914 H   0  0  0  0  0  0  0  0  0  0  0  0
    0.2041   -2.1602    0.0311 H   0  0  0  0  0  0  0  0  0  0  0  0
    2.1078   -1.6565    1.4691 H   0  0  0  0  0  0  0  0  0  0  0  0
    2.2946   -1.9737   -1.4089 H   0  0  0  0  0  0  0  0  0  0  0  0
    2.6175   -3.1098   -0.1337 H   0  0  0  0  0  0  0  0  0  0  0  0
    2.7556    2.0465    1.1062 H   0  0  0  0  0  0  0  0  0  0  0  0
    2.9590    0.9011    2.4690 H   0  0  0  0  0  0  0  0  0  0  0  0
  1  2  1  0
  2  3  1  0
  3  4  1  0
  3  5  1  0
  5  6  1  0
  6  7  1  0
  7  8  1  0
  8  9  1  0
  9 10  1  0
  9 11  1  0
 11 12  1  0
 11 13  2  0
  7  2  1  0
  1 14  1  0
  1 15  1  0
  1 16  1  0
  2 17  1  6
  3 18  1  6
  4 19  1  0
  5 20  1  0
  5 21  1  0
  6 22  1  0
  6 23  1  0
  8 24  1  0
  8 25  1  0
  9 26  1  1
 10 27  1  0
 10 28  1  0
 12 29  1  0
 12 30  1  0
M  END
$$$$

     RDKit          3D

 30 30  0  0  0  0  0  0  0  0999 V2000
   -1.6843   -0.7298    1.3586 C   0  0  0  0  0  0  0  0  0  0  0  0
   -1.6866   -0.2346   -0.0291 C   0  0  1  0  0  0  0  0  0  0  0  0
   -1.9118    1.2561   -0.1531 C   0  0  1  0  0  0  0  0  0  0  0  0
   -1.4174    2.0022    0.8762 O   0  0  0  0  0  0  0  0  0  0  0  0
   -1.3201    1.5431   -1.4932 C   0  0  0  0  0  0  0  0  0  0  0  0
   -1.0280    0.1916   -2.0935 C   0  0  0  0  0  0  0  0  0  0  0  0
   -0.6306   -0.5855   -0.8974 N   0  0  0  0  0  0  0  0  0  0  0  0
    0.6940   -0.2424   -0.6021 C   0  0  0  0  0  0  0  0  0  0  0  0
    1.3568   -0.9746    0.5422 C   0  0  1  0  0  0  0  0  0  0  0  0
    1.3993   -2.4037    0.3140 N   0  0  0  0  0  0  0  0  0  0  0  0
    2.7709   -0.4446    0.6628 C   0  0  0  0  0  0  0  0  0  0  0  0
    3.0077    0.9276    0.9279 N   0  0  0  0  0  0  0  0  0  0  0  0
    3.7092   -1.2667    0.5191 O   0  0  0  0  0  0  0  0  0  0  0  0
   -1.2449   -1.7372    1.4871 H   0  0  0  0  0  0  0  0  0  0  0  0
   -2.7613   -0.8607    1.6920 H   0  0  0  0  0  0  0  0  0  0  0  0
   -1.2595   -0.0455    2.1153 H   0  0  0  0  0  0  0  0  0  0  0  0
   -2.6207   -0.6759   -0.5167 H   0  0  0  0  0  0  0  0  0  0  0  0
   -3.0121    1.5126   -0.2274 H   0  0  0  0  0  0  0  0  0  0  0  0
   -0.5938    1.6998    1.2954 H   0  0  0  0  0  0  0  0  0  0  0  0
   -2.0145    2.1229   -2.1483 H   0  0  0  0  0  0  0  0  0  0  0  0
   -0.3684    2.0884   -1.3540 H   0  0  0  0  0  0  0  0  0  0  0  0
   -1.8978   -0.2693   -2.5860 H   0  0  0  0  0  0  0  0  0  0  0  0
   -0.1293    0.2473   -2.7256 H   0  0  0  0  0  0  0  0  0  0  0  0
    1.3447   -0.4668   -1.5017 H   0  0  0  0  0  0  0  0  0  0  0  0
    0.8879    0.8312   -0.4042 H   0  0  0  0  0  0  0  0  0  0  0  0
    0.9156   -0.7651    1.5313 H   0  0  0  0  0  0  0  0  0  0  0  0
    2.3905   -2.7129    0.2842 H   0  0  0  0  0  0  0  0  0  0  0  0
    0.8824   -2.9017    1.0804 H   0  0  0  0  0  0  0  0  0  0  0  0
    3.9226    1.3485    0.6768 H   0  0  0  0  0  0  0  0  0  0  0  0
    2.2993    1.5458    1.3690 H   0  0  0  0  0  0  0  0  0  0  0  0
  1  2  1  0
  2  3  1  0
  3  4  1  0
  3  5  1  0
  5  6  1  0
  6  7  1  0
  7  8  1  0
  8  9  1  0
  9 10  1  0
  9 11  1  0
 11 12  1  0
 11 13  2  0
  7  2  1  0
  1 14  1  0
  1 15  1  0
  1 16  1  0
  2 17  1  6
  3 18  1  6
  4 19  1  0
  5 20  1  0
  5 21  1  0
  6 22  1  0
  6 23  1  0
  8 24  1  0
  8 25  1  0
  9 26  1  1
 10 27  1  0
 10 28  1  0
 12 29  1  0
 12 30  1  0
M  END
$$$$
