
     RDKit          3D

 29 30  0  0  0  0  0  0  0  0999 V2000
   -0.9683    1.4846   -0.2853 C   0  0  0  0  0  0  0  0  0  0  0  0
   -0.9962    0.1717    0.4464 C   0  0  2  0  0  0  0  0  0  0  0  0
    0.1975   -0.3619    0.9118 N   0  0  0  0  0  0  0  0  0  0  0  0
    1.2413   -0.7462    0.0648 C   0  0  1  0  0  0  0  0  0  0  0  0
    1.8160    0.3929   -0.6924 C   0  0  0  0  0  0  0  0  0  0  0  0
    3.3363    0.2613   -0.6602 C   0  0  0  0  0  0  0  0  0  0  0  0
    3.6169   -0.7328    0.3323 N   0  0  0  0  0  0  0  0  0  0  0  0
    2.4048   -1.2167    0.8911 C   0  0  0  0  0  0  0  0  0  0  0  0
    2.2783   -1.9346    1.9199 O   0  0  0  0  0  0  0  0  0  0  0  0
   -1.7462   -0.8227   -0.4413 C   0  0  0  0  0  0  0  0  0  0  0  0
   -3.1786   -0.4193   -0.2694 C   0  0  0  0  0  0  0  0  0  0  0  0
   -3.2467    0.3889    0.9495 N   0  0  0  0  0  0  0  0  0  0  0  0
   -1.9657    0.3496    1.5553 C   0  0  0  0  0  0  0  0  0  0  0  0
   -1.7300    0.4469    2.7688 O   0  0  0  0  0  0  0  0  0  0  0  0
   -0.5910    1.4533   -1.3037 H   0  0  0  0  0  0  0  0  0  0  0  0
   -2.0633    1.7652   -0.4042 H   0  0  0  0  0  0  0  0  0  0  0  0
   -0.5568    2.3196    0.3064 H   0  0  0  0  0  0  0  0  0  0  0  0
    0.4715   -0.2054    1.8958 H   0  0  0  0  0  0  0  0  0  0  0  0
    0.9643   -1.6137   -0.5747 H   0  0  0  0  0  0  0  0  0  0  0  0
    1.4882    0.3790   -1.7680 H   0  0  0  0  0  0  0  0  0  0  0  0
    1.5467    1.3699   -0.2438 H   0  0  0  0  0  0  0  0  0  0  0  0
    3.8036    1.2483   -0.3747 H   0  0  0  0  0  0  0  0  0  0  0  0
    3.7486    0.0318   -1.6651 H   0  0  0  0  0  0  0  0  0  0  0  0
    4.5673   -1.0378    0.5903 H   0  0  0  0  0  0  0  0  0  0  0  0
   -1.5610   -1.8699   -0.1219 H   0  0  0  0  0  0  0  0  0  0  0  0
   -1.4075   -0.7351   -1.4896 H   0  0  0  0  0  0  0  0  0  0  0  0
   -3.5819    0.1104   -1.1411 H   0  0  0  0  0  0  0  0  0  0  0  0
   -3.7727   -1.3502   -0.1271 H   0  0  0  0  0  0  0  0  0  0  0  0
   -4.1150    0.8728    1.2522 H   0  0  0  0  0  0  0  0  0  0  0  0
  1  2  1  0
  2  3  1  1
  3  4  1  0
  4  5  1  0
  5  6  1  0
  6  7  1  0
  7  8  1  0
  8  9  2  0
  2 10  1  0
 10 11  1  0
 11 12  1  0
 12 13  1  0
 13 14  2  0
 13  2  1  0
  8  4  1  0
  1 15  1  0
  1 16  1  0
  1 17  1  0
  3 18  1  0
  4 19  1  6
  5 20  1  0
  5 21  1  0
  6 22  1  0
  6 23  1  0
  7 24  1  0
 10 25  1  0
 10 26  1  0
 11 27  1  0
 11 28  1  0
 12 29  1  0
M  END
$$$$

     RDKit          3D

 29 30  0  0  0  0  0  0  0  0999 V2000
   -1.0802   -0.7968   -1.3965 C   0  0  0  0  0  0  0  0  0  0  0  0
   -1.0780   -0.2815    0.0486 C   0  0  2  0  0  0  0  0  0  0  0  0
    0.0865   -0.7439    0.7408 N   0  0  0  0  0  0  0  0  0  0  0  0
    1.2878   -0.1829    0.2567 C   0  0  1  0  0  0  0  0  0  0  0  0
    2.1008    0.5472    1.3254 C   0  0  0  0  0  0  0  0  0  0  0  0
    3.2919    0.9168    0.4831 C   0  0  0  0  0  0  0  0  0  0  0  0
    3.5311   -0.3370   -0.2303 N   0  0  0  0  0  0  0  0  0  0  0  0
    2.3111   -1.1031   -0.2590 C   0  0  0  0  0  0  0  0  0  0  0  0
    2.2093   -2.2856   -0.6542 O   0  0  0  0  0  0  0  0  0  0  0  0
   -2.3819   -0.6991    0.6734 C   0  0  0  0  0  0  0  0  0  0  0  0
   -3.4133    0.3053    0.2156 C   0  0  0  0  0  0  0  0  0  0  0  0
   -2.6108    1.4073   -0.3103 N   0  0  0  0  0  0  0  0  0  0  0  0
   -1.2107    1.1981   -0.0225 C   0  0  0  0  0  0  0  0  0  0  0  0
   -0.4524    2.1427    0.1155 O   0  0  0  0  0  0  0  0  0  0  0  0
   -1.8953   -1.5734   -1.5114 H   0  0  0  0  0  0  0  0  0  0  0  0
   -0.1632   -1.3164   -1.6748 H   0  0  0  0  0  0  0  0  0  0  0  0
   -1.3481    0.0065   -2.0863 H   0  0  0  0  0  0  0  0  0  0  0  0
    0.0915   -1.7857    0.6557 H   0  0  0  0  0  0  0  0  0  0  0  0
    1.1412    0.5660   -0.5793 H   0  0  0  0  0  0  0  0  0  0  0  0
    2.5062   -0.1881    2.0791 H   0  0  0  0  0  0  0  0  0  0  0  0
    1.5769    1.3828    1.7775 H   0  0  0  0  0  0  0  0  0  0  0  0
    2.9452    1.7258   -0.2040 H   0  0  0  0  0  0  0  0  0  0  0  0
    4.1796    1.2184    1.0746 H   0  0  0  0  0  0  0  0  0  0  0  0
    4.4653   -0.5856   -0.6140 H   0  0  0  0  0  0  0  0  0  0  0  0
   -2.3099   -0.7368    1.7843 H   0  0  0  0  0  0  0  0  0  0  0  0
   -2.6991   -1.6684    0.2893 H   0  0  0  0  0  0  0  0  0  0  0  0
   -4.0451   -0.0698   -0.6100 H   0  0  0  0  0  0  0  0  0  0  0  0
   -4.0356    0.7111    1.0456 H   0  0  0  0  0  0  0  0  0  0  0  0
   -3.0009    2.2260   -0.8197 H   0  0  0  0  0  0  0  0  0  0  0  0
  1  2  1  0
  2  3  1  1
  3  4  1  0
  4  5  1  0
  5  6  1  0
  6  7  1  0
  7  8  1  0
  8  9  2  0
  2 10  1  0
 10 11  1  0
 11 12  1  0
 12 13  1  0
 13 14  2  0
 13  2  1  0
  8  4  1  0
  1 15  1  0
  1 16  1  0
  1 17  1  0
  3 18  1  0
  4 19  1  6
  5 20  1  0
  5 21  1  0
  6 22  1  0
  6 23  1  0
  7 24  1  0
 10 25  1  0
 10 26  1  0
 11 27  1  0
 11 28  1  0
 12 29  1  0
M  END
$$$$

     RDKit          3D

 29 30  0  0  0  0  0  0  0  0999 V2000
   -1.1581   -1.1774   -0.5858 C   0  0  0  0  0  0  0  0  0  0  0  0
   -1.0480    0.2582   -0.1328 C   0  0  2  0  0  0  0  0  0  0  0  0
    0.2004    0.7898   -0.3413 N   0  0  0  0  0  0  0  0  0  0  0  0
    1.3870    0.4020    0.2219 C   0  0  1  0  0  0  0  0  0  0  0  0
    1.8176   -0.9842   -0.1673 C   0  0  0  0  0  0  0  0  0  0  0  0
    3.3024   -0.9581   -0.4024 C   0  0  0  0  0  0  0  0  0  0  0  0
    3.7015    0.4075   -0.2200 N   0  0  0  0  0  0  0  0  0  0  0  0
    2.5398    1.2052   -0.3373 C   0  0  0  0  0  0  0  0  0  0  0  0
    2.4858    2.3549   -0.8136 O   0  0  0  0  0  0  0  0  0  0  0  0
   -1.6057    0.2938    1.2600 C   0  0  0  0  0  0  0  0  0  0  0  0
   -3.1108    0.3225    1.1079 C   0  0  0  0  0  0  0  0  0  0  0  0
   -3.3528    0.4835   -0.3091 N   0  0  0  0  0  0  0  0  0  0  0  0
   -2.1503    0.9727   -0.8769 C   0  0  0  0  0  0  0  0  0  0  0  0
   -2.0335    1.8162   -1.7982 O   0  0  0  0  0  0  0  0  0  0  0  0
   -0.6297   -1.8998    0.0304 H   0  0  0  0  0  0  0  0  0  0  0  0
   -2.2708   -1.4306   -0.4893 H   0  0  0  0  0  0  0  0  0  0  0  0
   -0.9454   -1.2153   -1.6710 H   0  0  0  0  0  0  0  0  0  0  0  0
    0.3019    1.4911   -1.0936 H   0  0  0  0  0  0  0  0  0  0  0  0
    1.5011    0.5699    1.3257 H   0  0  0  0  0  0  0  0  0  0  0  0
    1.3317   -1.3032   -1.1308 H   0  0  0  0  0  0  0  0  0  0  0  0
    1.6375   -1.7176    0.6527 H   0  0  0  0  0  0  0  0  0  0  0  0
    3.8474   -1.6467    0.2834 H   0  0  0  0  0  0  0  0  0  0  0  0
    3.5540   -1.2016   -1.4752 H   0  0  0  0  0  0  0  0  0  0  0  0
    4.6998    0.7466   -0.0300 H   0  0  0  0  0  0  0  0  0  0  0  0
   -1.3019    1.1358    1.8667 H   0  0  0  0  0  0  0  0  0  0  0  0
   -1.2922   -0.6347    1.8156 H   0  0  0  0  0  0  0  0  0  0  0  0
   -3.5641    1.2362    1.5936 H   0  0  0  0  0  0  0  0  0  0  0  0
   -3.5820   -0.5900    1.5250 H   0  0  0  0  0  0  0  0  0  0  0  0
   -4.2626    0.2732   -0.8096 H   0  0  0  0  0  0  0  0  0  0  0  0
  1  2  1  0
  2  3  1  1
  3  4  1  0
  4  5  1  0
  5  6  1  0
  6  7  1  0
  7  8  1  0
  8  9  2  0
  2 10  1  0
 10 11  1  0
 11 12  1  0
 12 13  1  0
 13 14  2  0
 13  2  1  0
  8  4  1  0
  1 15  1  0
  1 16  1  0
  1 17  1  0
  3 18  1  0
  4 19  1  1
  5 20  1  0
  5 21  1  0
  6 22  1  0
  6 23  1  0
  7 24  1  0
 10 25  1  0
 10 26  1  0
 11 27  1  0
 11 28  1  0
 12 29  1  0
M  END
$$$$

     RDKit          3D

 29 30  0  0  0  0  0  0  0  0999 V2000
    1.4341   -1.1765    1.1936 C   0  0  0  0  0  0  0  0  0  0  0  0
    1.1132   -0.1893    0.0631 C   0  0  2  0  0  0  0  0  0  0  0  0
   -0.0971   -0.4628   -0.5712 N   0  0  0  0  0  0  0  0  0  0  0  0
   -1.3440   -0.4675    0.0175 C   0  0  1  0  0  0  0  0  0  0  0  0
   -1.9377    0.8072    0.5523 C   0  0  0  0  0  0  0  0  0  0  0  0
   -3.3903    0.3395    0.7977 C   0  0  0  0  0  0  0  0  0  0  0  0
   -3.6575   -0.3758   -0.4285 N   0  0  0  0  0  0  0  0  0  0  0  0
   -2.4368   -0.8149   -0.9921 C   0  0  0  0  0  0  0  0  0  0  0  0
   -2.3011   -1.3727   -2.0958 O   0  0  0  0  0  0  0  0  0  0  0  0
    2.2046   -0.4917   -1.0134 C   0  0  0  0  0  0  0  0  0  0  0  0
    3.2915    0.5016   -0.7195 C   0  0  0  0  0  0  0  0  0  0  0  0
    2.4936    1.6695   -0.3671 N   0  0  0  0  0  0  0  0  0  0  0  0
    1.4295    1.1827    0.4842 C   0  0  0  0  0  0  0  0  0  0  0  0
    0.9634    1.9207    1.3833 O   0  0  0  0  0  0  0  0  0  0  0  0
    0.6115   -1.8830    1.3798 H   0  0  0  0  0  0  0  0  0  0  0  0
    1.6191   -0.5678    2.0987 H   0  0  0  0  0  0  0  0  0  0  0  0
    2.3360   -1.7652    0.9680 H   0  0  0  0  0  0  0  0  0  0  0  0
   -0.0385   -0.3058   -1.6035 H   0  0  0  0  0  0  0  0  0  0  0  0
   -1.4853   -1.2939    0.7907 H   0  0  0  0  0  0  0  0  0  0  0  0
   -2.0051    1.5446   -0.2748 H   0  0  0  0  0  0  0  0  0  0  0  0
   -1.5193    1.1816    1.4861 H   0  0  0  0  0  0  0  0  0  0  0  0
   -4.0444    1.1821    1.0102 H   0  0  0  0  0  0  0  0  0  0  0  0
   -3.3599   -0.4179    1.6267 H   0  0  0  0  0  0  0  0  0  0  0  0
   -4.6065   -0.5329   -0.8188 H   0  0  0  0  0  0  0  0  0  0  0  0
    2.5226   -1.5478   -0.9430 H   0  0  0  0  0  0  0  0  0  0  0  0
    1.7870   -0.2316   -2.0205 H   0  0  0  0  0  0  0  0  0  0  0  0
    3.9484    0.6972   -1.5752 H   0  0  0  0  0  0  0  0  0  0  0  0
    3.8550    0.2091    0.2086 H   0  0  0  0  0  0  0  0  0  0  0  0
    2.6137    2.6614   -0.6369 H   0  0  0  0  0  0  0  0  0  0  0  0
  1  2  1  0
  2  3  1  6
  3  4  1  0
  4  5  1  0
  5  6  1  0
  6  7  1  0
  7  8  1  0
  8  9  2  0
  2 10  1  0
 10 11  1  0
 11 12  1  0
 12 13  1  0
 13 14  2  0
 13  2  1  0
  8  4  1  0
  1 15  1  0
  1 16  1  0
  1 17  1  0
  3 18  1  0
  4 19  1  1
  5 20  1  0
  5 21  1  0
  6 22  1  0
  6 23  1  0
  7 24  1  0
 10 25  1  0
 10 26  1  0
 11 27  1  0
 11 28  1  0
 12 29  1  0
M  END
$$$$

     RDKit          3D

 29 30  0  0  0  0  0  0  0  0999 V2000
   -1.6256   -0.9090   -1.1077 C   0  0  0  0  0  0  0  0  0  0  0  0
   -0.9002   -0.1393   -0.0107 C   0  0  2  0  0  0  0  0  0  0  0  0
    0.3320   -0.6642    0.3491 N   0  0  0  0  0  0  0  0  0  0  0  0
    1.3949   -0.8399   -0.5393 C   0  0  1  0  0  0  0  0  0  0  0  0
    1.9712    0.3865   -1.2006 C   0  0  0  0  0  0  0  0  0  0  0  0
    2.6165    1.0516    0.0156 C   0  0  0  0  0  0  0  0  0  0  0  0
    3.4107   -0.0928    0.4917 N   0  0  0  0  0  0  0  0  0  0  0  0
    2.6444   -1.2513    0.2349 C   0  0  0  0  0  0  0  0  0  0  0  0
    2.9420   -2.4078    0.5831 O   0  0  0  0  0  0  0  0  0  0  0  0
   -1.8335   -0.4548    1.2360 C   0  0  0  0  0  0  0  0  0  0  0  0
   -3.0135    0.4347    1.0031 C   0  0  0  0  0  0  0  0  0  0  0  0
   -2.5607    1.4398    0.0633 N   0  0  0  0  0  0  0  0  0  0  0  0
   -1.1209    1.2952   -0.0875 C   0  0  0  0  0  0  0  0  0  0  0  0
   -0.3815    2.3073   -0.2403 O   0  0  0  0  0  0  0  0  0  0  0  0
   -1.3588   -0.5639   -2.1090 H   0  0  0  0  0  0  0  0  0  0  0  0
   -1.3811   -1.9822   -1.0194 H   0  0  0  0  0  0  0  0  0  0  0  0
   -2.7231   -0.7809   -0.9986 H   0  0  0  0  0  0  0  0  0  0  0  0
    0.4950   -0.7248    1.3561 H   0  0  0  0  0  0  0  0  0  0  0  0
    1.2270   -1.6445   -1.3020 H   0  0  0  0  0  0  0  0  0  0  0  0
    1.2984    1.0011   -1.7652 H   0  0  0  0  0  0  0  0  0  0  0  0
    2.8447    0.0193   -1.8101 H   0  0  0  0  0  0  0  0  0  0  0  0
    3.2478    1.9019   -0.2598 H   0  0  0  0  0  0  0  0  0  0  0  0
    1.9018    1.2479    0.8288 H   0  0  0  0  0  0  0  0  0  0  0  0
    4.3472    0.0191    0.9218 H   0  0  0  0  0  0  0  0  0  0  0  0
   -2.1583   -1.5033    1.1838 H   0  0  0  0  0  0  0  0  0  0  0  0
   -1.2979   -0.1923    2.1586 H   0  0  0  0  0  0  0  0  0  0  0  0
   -3.3348    0.9862    1.9157 H   0  0  0  0  0  0  0  0  0  0  0  0
   -3.8754   -0.1021    0.5512 H   0  0  0  0  0  0  0  0  0  0  0  0
   -3.1082    2.1625   -0.4427 H   0  0  0  0  0  0  0  0  0  0  0  0
  1  2  1  0
  2  3  1  1
  3  4  1  0
  4  5  1  0
  5  6  1  0
  6  7  1  0
  7  8  1  0
  8  9  2  0
  2 10  1  0
 10 11  1  0
 11 12  1  0
 12 13  1  0
 13 14  2  0
 13  2  1  0
  8  4  1  0
  1 15  1  0
  1 16  1  0
  1 17  1  0
  3 18  1  0
  4 19  1  6
  5 20  1  0
  5 21  1  0
  6 22  1  0
  6 23  1  0
  7 24  1  0
 10 25  1  0
 10 26  1  0
 11 27  1  0
 11 28  1  0
 12 29  1  0
M  END
$$$$

     RDKit          3D

 29 30  0  0  0  0  0  0  0  0999 V2000
   -1.3488   -2.0770    0.1836 C   0  0  0  0  0  0  0  0  0  0  0  0
   -1.1235   -0.6004    0.0209 C   0  0  2  0  0  0  0  0  0  0  0  0
   -0.0188   -0.0625    0.6862 N   0  0  0  0  0  0  0  0  0  0  0  0
    1.2906   -0.4603    0.3916 C   0  0  1  0  0  0  0  0  0  0  0  0
    1.6754   -0.0959   -1.0150 C   0  0  0  0  0  0  0  0  0  0  0  0
    3.0857    0.4761   -0.9121 C   0  0  0  0  0  0  0  0  0  0  0  0
    2.9672    1.2177    0.3331 N   0  0  0  0  0  0  0  0  0  0  0  0
    2.2181    0.3959    1.2094 C   0  0  0  0  0  0  0  0  0  0  0  0
    2.3164    0.3879    2.4603 O   0  0  0  0  0  0  0  0  0  0  0  0
   -2.3632    0.1141    0.6405 C   0  0  0  0  0  0  0  0  0  0  0  0
   -2.2743    1.4299   -0.1361 C   0  0  0  0  0  0  0  0  0  0  0  0
   -2.0474    0.9722   -1.4825 N   0  0  0  0  0  0  0  0  0  0  0  0
   -1.3146   -0.2430   -1.4056 C   0  0  0  0  0  0  0  0  0  0  0  0
   -0.9297   -0.8533   -2.4507 O   0  0  0  0  0  0  0  0  0  0  0  0
   -2.4368   -2.2669    0.0701 H   0  0  0  0  0  0  0  0  0  0  0  0
   -1.0395   -2.4691    1.1615 H   0  0  0  0  0  0  0  0  0  0  0  0
   -0.8357   -2.6292   -0.6518 H   0  0  0  0  0  0  0  0  0  0  0  0
   -0.2232    0.2295    1.6591 H   0  0  0  0  0  0  0  0  0  0  0  0
    1.5202   -1.5313    0.5998 H   0  0  0  0  0  0  0  0  0  0  0  0
    1.6772   -0.9500   -1.6993 H   0  0  0  0  0  0  0  0  0  0  0  0
    1.0504    0.7050   -1.4534 H   0  0  0  0  0  0  0  0  0  0  0  0
    3.8147   -0.3248   -0.7691 H   0  0  0  0  0  0  0  0  0  0  0  0
    3.3184    1.1727   -1.7310 H   0  0  0  0  0  0  0  0  0  0  0  0
    3.3698    2.1742    0.5159 H   0  0  0  0  0  0  0  0  0  0  0  0
   -2.1843    0.3035    1.7094 H   0  0  0  0  0  0  0  0  0  0  0  0
   -3.2600   -0.4591    0.3999 H   0  0  0  0  0  0  0  0  0  0  0  0
   -3.1778    2.0466   -0.0127 H   0  0  0  0  0  0  0  0  0  0  0  0
   -1.3499    1.9303    0.2319 H   0  0  0  0  0  0  0  0  0  0  0  0
   -2.3767    1.4672   -2.3691 H   0  0  0  0  0  0  0  0  0  0  0  0
  1  2  1  0
  2  3  1  1
  3  4  1  0
  4  5  1  0
  5  6  1  0
  6  7  1  0
  7  8  1  0
  8  9  2  0
  2 10  1  0
 10 11  1  0
 11 12  1  0
 12 13  1  0
 13 14  2  0
 13  2  1  0
  8  4  1  0
  1 15  1  0
  1 16  1  0
  1 17  1  0
  3 18  1  0
  4 19  1  6
  5 20  1  0
  5 21  1  0
  6 22  1  0
  6 23  1  0
  7 24  1  0
 10 25  1  0
 10 26  1  0
 11 27  1  0
 11 28  1  0
 12 29  1  0
M  END
$$$$

     RDKit          3D

 29 30  0  0  0  0  0  0  0  0999 V2000
   -1.1276   -1.7538    0.4097 C   0  0  0  0  0  0  0  0  0  0  0  0
   -1.1141   -0.3098   -0.0709 C   0  0  2  0  0  0  0  0  0  0  0  0
    0.1083    0.0685   -0.6786 N   0  0  0  0  0  0  0  0  0  0  0  0
    1.3063   -0.0219    0.0612 C   0  0  1  0  0  0  0  0  0  0  0  0
    2.3870   -0.4409   -0.9581 C   0  0  0  0  0  0  0  0  0  0  0  0
    3.6562   -0.0636   -0.2096 C   0  0  0  0  0  0  0  0  0  0  0  0
    3.3061    1.2595    0.2659 N   0  0  0  0  0  0  0  0  0  0  0  0
    1.8992    1.2270    0.5753 C   0  0  0  0  0  0  0  0  0  0  0  0
    1.3922    2.2003    1.2022 O   0  0  0  0  0  0  0  0  0  0  0  0
   -1.7440    0.6410    0.8677 C   0  0  0  0  0  0  0  0  0  0  0  0
   -3.1171    1.0299    0.3320 C   0  0  0  0  0  0  0  0  0  0  0  0
   -3.3761    0.0823   -0.6995 N   0  0  0  0  0  0  0  0  0  0  0  0
   -2.1368   -0.3463   -1.1980 C   0  0  0  0  0  0  0  0  0  0  0  0
   -1.8151   -0.7194   -2.3531 O   0  0  0  0  0  0  0  0  0  0  0  0
   -0.7547   -2.3867   -0.4300 H   0  0  0  0  0  0  0  0  0  0  0  0
   -2.1895   -2.0167    0.5715 H   0  0  0  0  0  0  0  0  0  0  0  0
   -0.5651   -1.8862    1.3378 H   0  0  0  0  0  0  0  0  0  0  0  0
    0.1636   -0.3743   -1.6322 H   0  0  0  0  0  0  0  0  0  0  0  0
    1.3021   -0.8221    0.8351 H   0  0  0  0  0  0  0  0  0  0  0  0
    2.3209   -1.4797   -1.2507 H   0  0  0  0  0  0  0  0  0  0  0  0
    2.2831    0.2838   -1.8107 H   0  0  0  0  0  0  0  0  0  0  0  0
    4.5146   -0.0334   -0.9009 H   0  0  0  0  0  0  0  0  0  0  0  0
    3.7921   -0.7719    0.6483 H   0  0  0  0  0  0  0  0  0  0  0  0
    3.9415    2.0661    0.3625 H   0  0  0  0  0  0  0  0  0  0  0  0
   -1.2147    1.5920    0.9962 H   0  0  0  0  0  0  0  0  0  0  0  0
   -1.9032    0.2157    1.9028 H   0  0  0  0  0  0  0  0  0  0  0  0
   -3.1140    2.0746   -0.0993 H   0  0  0  0  0  0  0  0  0  0  0  0
   -3.9027    0.9592    1.1051 H   0  0  0  0  0  0  0  0  0  0  0  0
   -4.2982   -0.2730   -1.0570 H   0  0  0  0  0  0  0  0  0  0  0  0
  1  2  1  0
  2  3  1  6
  3  4  1  0
  4  5  1  0
  5  6  1  0
  6  7  1  0
  7  8  1  0
  8  9  2  0
  2 10  1  0
 10 11  1  0
 11 12  1  0
 12 13  1  0
 13 14  2  0
 13  2  1  0
  8  4  1  0
  1 15  1  0
  1 16  1  0
  1 17  1  0
  3 18  1  0
  4 19  1  1
  5 20  1  0
  5 21  1  0
  6 22  1  0
  6 23  1  0
  7 24  1  0
 10 25  1  0
 10 26  1  0
 11 27  1  0
 11 28  1  0
 12 29  1  0
M  END
$$$$

     RDKit          3D

 29 30  0  0  0  0  0  0  0  0999 V2000
   -0.8452    1.9399    0.0293 C   0  0  0  0  0  0  0  0  0  0  0  0
   -1.1380    0.4891    0.1407 C   0  0  2  0  0  0  0  0  0  0  0  0
   -0.0924   -0.3025    0.6302 N   0  0  0  0  0  0  0  0  0  0  0  0
    1.1214   -0.4369   -0.0678 C   0  0  1  0  0  0  0  0  0  0  0  0
    1.9700    0.7681   -0.2478 C   0  0  0  0  0  0  0  0  0  0  0  0
    3.3997    0.2390   -0.0648 C   0  0  0  0  0  0  0  0  0  0  0  0
    3.2701   -0.9023    0.7806 N   0  0  0  0  0  0  0  0  0  0  0  0
    1.9605   -1.4223    0.7164 C   0  0  0  0  0  0  0  0  0  0  0  0
    1.4854   -2.4814    1.1836 O   0  0  0  0  0  0  0  0  0  0  0  0
   -1.8137   -0.0713   -1.0996 C   0  0  0  0  0  0  0  0  0  0  0  0
   -2.5612   -1.2627   -0.5335 C   0  0  0  0  0  0  0  0  0  0  0  0
   -3.0402   -0.7976    0.7630 N   0  0  0  0  0  0  0  0  0  0  0  0
   -2.2900    0.3594    1.1147 C   0  0  0  0  0  0  0  0  0  0  0  0
   -2.5603    1.1187    2.0684 O   0  0  0  0  0  0  0  0  0  0  0  0
   -0.1455    2.1236   -0.7976 H   0  0  0  0  0  0  0  0  0  0  0  0
   -1.7981    2.5071   -0.1401 H   0  0  0  0  0  0  0  0  0  0  0  0
   -0.4107    2.2860    0.9982 H   0  0  0  0  0  0  0  0  0  0  0  0
   -0.4068   -1.1495    1.1559 H   0  0  0  0  0  0  0  0  0  0  0  0
    1.0006   -0.8890   -1.0910 H   0  0  0  0  0  0  0  0  0  0  0  0
    1.9725    1.1863   -1.2835 H   0  0  0  0  0  0  0  0  0  0  0  0
    1.7827    1.5887    0.4767 H   0  0  0  0  0  0  0  0  0  0  0  0
    3.8495   -0.0054   -1.0412 H   0  0  0  0  0  0  0  0  0  0  0  0
    4.0204    1.0514    0.3782 H   0  0  0  0  0  0  0  0  0  0  0  0
    4.0289   -1.3194    1.3828 H   0  0  0  0  0  0  0  0  0  0  0  0
   -1.1384   -0.3595   -1.8993 H   0  0  0  0  0  0  0  0  0  0  0  0
   -2.5492    0.6634   -1.4379 H   0  0  0  0  0  0  0  0  0  0  0  0
   -1.8874   -2.1299   -0.4136 H   0  0  0  0  0  0  0  0  0  0  0  0
   -3.3862   -1.5395   -1.1941 H   0  0  0  0  0  0  0  0  0  0  0  0
   -3.7986   -1.2516    1.3076 H   0  0  0  0  0  0  0  0  0  0  0  0
  1  2  1  0
  2  3  1  1
  3  4  1  0
  4  5  1  0
  5  6  1  0
  6  7  1  0
  7  8  1  0
  8  9  2  0
  2 10  1  0
 10 11  1  0
 11 12  1  0
 12 13  1  0
 13 14  2  0
 13  2  1  0
  8  4  1  0
  1 15  1  0
  1 16  1  0
  1 17  1  0
  3 18  1  0
  4 19  1  6
  5 20  1  0
  5 21  1  0
  6 22  1  0
  6 23  1  0
  7 24  1  0
 10 25  1  0
 10 26  1  0
 11 27  1  0
 11 28  1  0
 12 29  1  0
M  END
$$$$
