
     RDKit          3D

 31 30  0  0  0  0  0  0  0  0999 V2000
    2.9163   -1.0334    1.4989 C   0  0  0  0  0  0  0  0  0  0  0  0
    2.2612   -0.2170    0.5852 O   0  0  0  0  0  0  0  0  0  0  0  0
    1.8366   -1.0459   -0.4443 C   0  0  0  0  0  0  0  0  0  0  0  0
    1.0431   -0.3445   -1.4929 C   0  0  0  0  0  0  0  0  0  0  0  0
   -0.1500    0.2967   -1.1052 N   0  0  0  0  0  0  0  0  0  0  0  0
   -1.3547   -0.3718   -0.7625 C   0  0  0  0  0  0  0  0  0  0  0  0
   -1.3730   -1.2065    0.4737 C   0  0  2  0  0  0  0  0  0  0  0  0
   -2.8670   -1.5983    0.6817 C   0  0  0  0  0  0  0  0  0  0  0  0
   -1.0435   -0.5532    1.6351 O   0  0  0  0  0  0  0  0  0  0  0  0
   -0.1240    1.7339   -1.0436 C   0  0  0  0  0  0  0  0  0  0  0  0
    0.2605    2.3810   -2.0765 N   0  0  0  0  0  0  0  0  0  0  0  0
   -0.5066    2.3901    0.1365 N   0  0  0  0  0  0  0  0  0  0  0  0
    0.1319    3.5989    0.4444 N   0  0  0  0  0  0  0  0  0  0  0  0
    3.2988   -0.4630    2.3708 H   0  0  0  0  0  0  0  0  0  0  0  0
    2.1663   -1.8045    1.8417 H   0  0  0  0  0  0  0  0  0  0  0  0
    3.7730   -1.5355    1.0210 H   0  0  0  0  0  0  0  0  0  0  0  0
    2.7939   -1.4213   -0.9332 H   0  0  0  0  0  0  0  0  0  0  0  0
    1.3564   -1.9234   -0.0214 H   0  0  0  0  0  0  0  0  0  0  0  0
    0.8246   -1.1590   -2.2758 H   0  0  0  0  0  0  0  0  0  0  0  0
    1.7072    0.3711   -2.0271 H   0  0  0  0  0  0  0  0  0  0  0  0
   -2.2311    0.3261   -0.6836 H   0  0  0  0  0  0  0  0  0  0  0  0
   -1.6920   -1.0657   -1.6075 H   0  0  0  0  0  0  0  0  0  0  0  0
   -0.8686   -2.1789    0.3224 H   0  0  0  0  0  0  0  0  0  0  0  0
   -2.8699   -2.4431    1.3720 H   0  0  0  0  0  0  0  0  0  0  0  0
   -3.3461   -0.7342    1.1994 H   0  0  0  0  0  0  0  0  0  0  0  0
   -3.3123   -1.8012   -0.2913 H   0  0  0  0  0  0  0  0  0  0  0  0
   -1.8072   -0.3704    2.2515 H   0  0  0  0  0  0  0  0  0  0  0  0
    0.5493    1.8820   -2.9432 H   0  0  0  0  0  0  0  0  0  0  0  0
   -1.2329    2.0282    0.7976 H   0  0  0  0  0  0  0  0  0  0  0  0
   -0.1270    3.9619    1.3851 H   0  0  0  0  0  0  0  0  0  0  0  0
   -0.0133    4.3005   -0.3087 H   0  0  0  0  0  0  0  0  0  0  0  0
  1  2  1  0
  2  3  1  0
  3  4  1  0
  4  5  1  0
  5  6  1  0
  6  7  1  0
  7  8  1  0
  7  9  1  0
  5 10  1  0
 10 11  2  3
 10 12  1  0
 12 13  1  0
  1 14  1  0
  1 15  1  0
  1 16  1  0
  3 17  1  0
  3 18  1  0
  4 19  1  0
  4 20  1  0
  6 21  1  0
  6 22  1  0
  7 23  1  6
  8 24  1  0
  8 25  1  0
  8 26  1  0
  9 27  1  0
 11 28  1  0
 12 29  1  0
 13 30  1  0
 13 31  1  0
M  END
$$$$

     RDKit          3D

 31 30  0  0  0  0  0  0  0  0999 V2000
   -4.1145   -1.5048    0.3612 C   0  0  0  0  0  0  0  0  0  0  0  0
   -2.7670   -1.6636    0.5553 O   0  0  0  0  0  0  0  0  0  0  0  0
   -2.0342   -0.4800    0.4191 C   0  0  0  0  0  0  0  0  0  0  0  0
   -0.5894   -0.8673    0.6615 C   0  0  0  0  0  0  0  0  0  0  0  0
    0.3317    0.2156    0.5686 N   0  0  0  0  0  0  0  0  0  0  0  0
    1.7361   -0.0510    0.7699 C   0  0  0  0  0  0  0  0  0  0  0  0
    2.2572   -0.8858   -0.3804 C   0  0  2  0  0  0  0  0  0  0  0  0
    3.7028   -1.2223   -0.1693 C   0  0  0  0  0  0  0  0  0  0  0  0
    2.0622   -0.1418   -1.5403 O   0  0  0  0  0  0  0  0  0  0  0  0
   -0.1045    1.5280    0.2913 C   0  0  0  0  0  0  0  0  0  0  0  0
   -0.5612    2.2805    1.2385 N   0  0  0  0  0  0  0  0  0  0  0  0
   -0.0653    2.0729   -1.0188 N   0  0  0  0  0  0  0  0  0  0  0  0
    0.0974    3.4637   -1.2209 N   0  0  0  0  0  0  0  0  0  0  0  0
   -4.5688   -2.5275    0.5106 H   0  0  0  0  0  0  0  0  0  0  0  0
   -4.2659   -1.2543   -0.7131 H   0  0  0  0  0  0  0  0  0  0  0  0
   -4.5083   -0.7500    1.0566 H   0  0  0  0  0  0  0  0  0  0  0  0
   -2.1284   -0.2068   -0.6753 H   0  0  0  0  0  0  0  0  0  0  0  0
   -2.3840    0.3252    1.0802 H   0  0  0  0  0  0  0  0  0  0  0  0
   -0.3633   -1.6803   -0.0846 H   0  0  0  0  0  0  0  0  0  0  0  0
   -0.5164   -1.3848    1.6582 H   0  0  0  0  0  0  0  0  0  0  0  0
    2.3376    0.9031    0.7626 H   0  0  0  0  0  0  0  0  0  0  0  0
    1.9145   -0.5371    1.7576 H   0  0  0  0  0  0  0  0  0  0  0  0
    1.7006   -1.8398   -0.4812 H   0  0  0  0  0  0  0  0  0  0  0  0
    4.2296   -1.0789   -1.1562 H   0  0  0  0  0  0  0  0  0  0  0  0
    3.8557   -2.3208    0.0468 H   0  0  0  0  0  0  0  0  0  0  0  0
    4.1899   -0.6802    0.6402 H   0  0  0  0  0  0  0  0  0  0  0  0
    1.8460   -0.7394   -2.2856 H   0  0  0  0  0  0  0  0  0  0  0  0
   -0.6232    1.9483    2.2339 H   0  0  0  0  0  0  0  0  0  0  0  0
   -0.1579    1.4431   -1.8381 H   0  0  0  0  0  0  0  0  0  0  0  0
   -0.7136    3.9887   -0.8117 H   0  0  0  0  0  0  0  0  0  0  0  0
    0.2046    3.6476   -2.2366 H   0  0  0  0  0  0  0  0  0  0  0  0
  1  2  1  0
  2  3  1  0
  3  4  1  0
  4  5  1  0
  5  6  1  0
  6  7  1  0
  7  8  1  0
  7  9  1  0
  5 10  1  0
 10 11  2  3
 10 12  1  0
 12 13  1  0
  1 14  1  0
  1 15  1  0
  1 16  1  0
  3 17  1  0
  3 18  1  0
  4 19  1  0
  4 20  1  0
  6 21  1  0
  6 22  1  0
  7 23  1  6
  8 24  1  0
  8 25  1  0
  8 26  1  0
  9 27  1  0
 11 28  1  0
 12 29  1  0
 13 30  1  0
 13 31  1  0
M  END
$$$$

     RDKit          3D

 31 30  0  0  0  0  0  0  0  0999 V2000
    4.0462   -1.1953    0.1194 C   0  0  0  0  0  0  0  0  0  0  0  0
    3.0774   -0.5496   -0.6028 O   0  0  0  0  0  0  0  0  0  0  0  0
    1.8852   -0.3907    0.0735 C   0  0  0  0  0  0  0  0  0  0  0  0
    0.8580    0.3309   -0.7795 C   0  0  0  0  0  0  0  0  0  0  0  0
   -0.3944    0.5025   -0.0766 N   0  0  0  0  0  0  0  0  0  0  0  0
   -1.2691   -0.5784    0.2729 C   0  0  0  0  0  0  0  0  0  0  0  0
   -1.9128   -1.2209   -0.9370 C   0  0  2  0  0  0  0  0  0  0  0  0
   -2.8146   -2.3258   -0.4175 C   0  0  0  0  0  0  0  0  0  0  0  0
   -1.0022   -1.7476   -1.8155 O   0  0  0  0  0  0  0  0  0  0  0  0
   -0.7735    1.8173    0.2854 C   0  0  0  0  0  0  0  0  0  0  0  0
   -1.4790    2.5027   -0.5417 N   0  0  0  0  0  0  0  0  0  0  0  0
   -0.4144    2.4203    1.5166 N   0  0  0  0  0  0  0  0  0  0  0  0
   -0.4408    3.8245    1.6604 N   0  0  0  0  0  0  0  0  0  0  0  0
    4.2717   -0.6243    1.0482 H   0  0  0  0  0  0  0  0  0  0  0  0
    5.0063   -1.2204   -0.4524 H   0  0  0  0  0  0  0  0  0  0  0  0
    3.8046   -2.2447    0.3842 H   0  0  0  0  0  0  0  0  0  0  0  0
    1.4722   -1.4290    0.2274 H   0  0  0  0  0  0  0  0  0  0  0  0
    1.9611    0.0654    1.0576 H   0  0  0  0  0  0  0  0  0  0  0  0
    0.7198   -0.1742   -1.7541 H   0  0  0  0  0  0  0  0  0  0  0  0
    1.2927    1.3209   -1.0167 H   0  0  0  0  0  0  0  0  0  0  0  0
   -0.7766   -1.3647    0.8796 H   0  0  0  0  0  0  0  0  0  0  0  0
   -2.0967   -0.1884    0.8946 H   0  0  0  0  0  0  0  0  0  0  0  0
   -2.5705   -0.4775   -1.4335 H   0  0  0  0  0  0  0  0  0  0  0  0
   -3.5984   -2.4835   -1.2003 H   0  0  0  0  0  0  0  0  0  0  0  0
   -3.3308   -1.9864    0.5130 H   0  0  0  0  0  0  0  0  0  0  0  0
   -2.2447   -3.2623   -0.2690 H   0  0  0  0  0  0  0  0  0  0  0  0
   -1.1106   -1.4121   -2.7269 H   0  0  0  0  0  0  0  0  0  0  0  0
   -1.7640    2.0892   -1.4632 H   0  0  0  0  0  0  0  0  0  0  0  0
   -0.1322    1.8163    2.3121 H   0  0  0  0  0  0  0  0  0  0  0  0
   -0.8125    4.0413    2.6037 H   0  0  0  0  0  0  0  0  0  0  0  0
    0.5428    4.1445    1.6382 H   0  0  0  0  0  0  0  0  0  0  0  0
  1  2  1  0
  2  3  1  0
  3  4  1  0
  4  5  1  0
  5  6  1  0
  6  7  1  0
  7  8  1  0
  7  9  1  0
  5 10  1  0
 10 11  2  3
 10 12  1  0
 12 13  1  0
  1 14  1  0
  1 15  1  0
  1 16  1  0
  3 17  1  0
  3 18  1  0
  4 19  1  0
  4 20  1  0
  6 21  1  0
  6 22  1  0
  7 23  1  6
  8 24  1  0
  8 25  1  0
  8 26  1  0
  9 27  1  0
 11 28  1  0
 12 29  1  0
 13 30  1  0
 13 31  1  0
M  END
$$$$

     RDKit          3D

 31 30  0  0  0  0  0  0  0  0999 V2000
    4.2622   -0.4056   -0.0939 C   0  0  0  0  0  0  0  0  0  0  0  0
    3.6248    0.2534   -1.1060 O   0  0  0  0  0  0  0  0  0  0  0  0
    2.3425    0.7451   -0.7768 C   0  0  0  0  0  0  0  0  0  0  0  0
    1.4632   -0.3566   -0.3769 C   0  0  0  0  0  0  0  0  0  0  0  0
    0.0760    0.0202   -0.0212 N   0  0  0  0  0  0  0  0  0  0  0  0
   -0.7065   -1.0811    0.4135 C   0  0  0  0  0  0  0  0  0  0  0  0
   -2.1715   -1.0450    0.3620 C   0  0  2  0  0  0  0  0  0  0  0  0
   -2.7220   -2.3290    0.9924 C   0  0  0  0  0  0  0  0  0  0  0  0
   -2.7324   -1.0050   -0.9078 O   0  0  0  0  0  0  0  0  0  0  0  0
   -0.3375    1.3585   -0.0392 C   0  0  0  0  0  0  0  0  0  0  0  0
    0.5405    2.3311    0.1316 N   0  0  0  0  0  0  0  0  0  0  0  0
   -1.6708    1.7828   -0.2232 N   0  0  0  0  0  0  0  0  0  0  0  0
   -2.1765    2.7596    0.6874 N   0  0  0  0  0  0  0  0  0  0  0  0
    3.7533   -1.3092    0.2930 H   0  0  0  0  0  0  0  0  0  0  0  0
    5.2221   -0.8060   -0.5421 H   0  0  0  0  0  0  0  0  0  0  0  0
    4.5987    0.2727    0.7297 H   0  0  0  0  0  0  0  0  0  0  0  0
    2.5836    1.3956    0.1287 H   0  0  0  0  0  0  0  0  0  0  0  0
    2.0196    1.3512   -1.6381 H   0  0  0  0  0  0  0  0  0  0  0  0
    1.4586   -1.1537   -1.1214 H   0  0  0  0  0  0  0  0  0  0  0  0
    1.8559   -0.7949    0.5974 H   0  0  0  0  0  0  0  0  0  0  0  0
   -0.3846   -2.0593   -0.0539 H   0  0  0  0  0  0  0  0  0  0  0  0
   -0.4057   -1.2563    1.5107 H   0  0  0  0  0  0  0  0  0  0  0  0
   -2.5622   -0.2156    1.0155 H   0  0  0  0  0  0  0  0  0  0  0  0
   -2.6081   -3.2049    0.3239 H   0  0  0  0  0  0  0  0  0  0  0  0
   -3.8383   -2.2399    1.1578 H   0  0  0  0  0  0  0  0  0  0  0  0
   -2.2635   -2.5365    1.9711 H   0  0  0  0  0  0  0  0  0  0  0  0
   -2.0901   -1.4143   -1.5357 H   0  0  0  0  0  0  0  0  0  0  0  0
    0.3583    3.3227    0.1386 H   0  0  0  0  0  0  0  0  0  0  0  0
   -2.2727    1.4195   -0.9785 H   0  0  0  0  0  0  0  0  0  0  0  0
   -2.1152    3.6859    0.2362 H   0  0  0  0  0  0  0  0  0  0  0  0
   -3.1018    2.5145    1.0630 H   0  0  0  0  0  0  0  0  0  0  0  0
  1  2  1  0
  2  3  1  0
  3  4  1  0
  4  5  1  0
  5  6  1  0
  6  7  1  0
  7  8  1  0
  7  9  1  0
  5 10  1  0
 10 11  2  3
 10 12  1  0
 12 13  1  0
  1 14  1  0
  1 15  1  0
  1 16  1  0
  3 17  1  0
  3 18  1  0
  4 19  1  0
  4 20  1  0
  6 21  1  0
  6 22  1  0
  7 23  1  1
  8 24  1  0
  8 25  1  0
  8 26  1  0
  9 27  1  0
 11 28  1  0
 12 29  1  0
 13 30  1  0
 13 31  1  0
M  END
$$$$

     RDKit          3D

 31 30  0  0  0  0  0  0  0  0999 V2000
    4.1750   -1.9310   -0.2708 C   0  0  0  0  0  0  0  0  0  0  0  0
    3.3418   -1.0032    0.3499 O   0  0  0  0  0  0  0  0  0  0  0  0
    2.0397   -1.0596   -0.1540 C   0  0  0  0  0  0  0  0  0  0  0  0
    1.2445   -0.0338    0.5657 C   0  0  0  0  0  0  0  0  0  0  0  0
   -0.1394    0.0615    0.1814 N   0  0  0  0  0  0  0  0  0  0  0  0
   -1.0800   -0.9885    0.4837 C   0  0  0  0  0  0  0  0  0  0  0  0
   -2.4807   -0.7747    0.0437 C   0  0  2  0  0  0  0  0  0  0  0  0
   -3.1761    0.3989    0.7001 C   0  0  0  0  0  0  0  0  0  0  0  0
   -3.2601   -1.9046    0.4188 O   0  0  0  0  0  0  0  0  0  0  0  0
   -0.4955    1.2616   -0.5234 C   0  0  0  0  0  0  0  0  0  0  0  0
   -0.9652    1.3106   -1.6944 N   0  0  0  0  0  0  0  0  0  0  0  0
   -0.3081    2.5513    0.1127 N   0  0  0  0  0  0  0  0  0  0  0  0
   -0.3984    3.7377   -0.6178 N   0  0  0  0  0  0  0  0  0  0  0  0
    3.7571   -2.9335   -0.0855 H   0  0  0  0  0  0  0  0  0  0  0  0
    5.2035   -1.8345    0.1522 H   0  0  0  0  0  0  0  0  0  0  0  0
    4.2004   -1.6588   -1.3441 H   0  0  0  0  0  0  0  0  0  0  0  0
    1.7018   -2.0875   -0.0476 H   0  0  0  0  0  0  0  0  0  0  0  0
    2.1413   -0.7434   -1.2324 H   0  0  0  0  0  0  0  0  0  0  0  0
    1.2678   -0.3073    1.6530 H   0  0  0  0  0  0  0  0  0  0  0  0
    1.7233    0.9505    0.4435 H   0  0  0  0  0  0  0  0  0  0  0  0
   -0.7130   -1.9203   -0.0369 H   0  0  0  0  0  0  0  0  0  0  0  0
   -1.0761   -1.2226    1.5769 H   0  0  0  0  0  0  0  0  0  0  0  0
   -2.6023   -0.7665   -1.0718 H   0  0  0  0  0  0  0  0  0  0  0  0
   -3.9326    0.7569   -0.0232 H   0  0  0  0  0  0  0  0  0  0  0  0
   -3.7699    0.0548    1.5965 H   0  0  0  0  0  0  0  0  0  0  0  0
   -2.5008    1.1619    1.0831 H   0  0  0  0  0  0  0  0  0  0  0  0
   -2.6441   -2.6334    0.6724 H   0  0  0  0  0  0  0  0  0  0  0  0
   -1.1946    0.6138   -2.3821 H   0  0  0  0  0  0  0  0  0  0  0  0
   -0.1003    2.5694    1.1398 H   0  0  0  0  0  0  0  0  0  0  0  0
    0.4660    3.8517   -1.1929 H   0  0  0  0  0  0  0  0  0  0  0  0
   -0.4251    4.5227    0.0725 H   0  0  0  0  0  0  0  0  0  0  0  0
  1  2  1  0
  2  3  1  0
  3  4  1  0
  4  5  1  0
  5  6  1  0
  6  7  1  0
  7  8  1  0
  7  9  1  0
  5 10  1  0
 10 11  2  3
 10 12  1  0
 12 13  1  0
  1 14  1  0
  1 15  1  0
  1 16  1  0
  3 17  1  0
  3 18  1  0
  4 19  1  0
  4 20  1  0
  6 21  1  0
  6 22  1  0
  7 23  1  6
  8 24  1  0
  8 25  1  0
  8 26  1  0
  9 27  1  0
 11 28  1  0
 12 29  1  0
 13 30  1  0
 13 31  1  0
M  END
$$$$

     RDKit          3D

 31 30  0  0  0  0  0  0  0  0999 V2000
    3.1567   -2.1212   -1.7474 C   0  0  0  0  0  0  0  0  0  0  0  0
    3.3189   -1.2415   -0.7169 O   0  0  0  0  0  0  0  0  0  0  0  0
    2.2029   -0.8556   -0.0281 C   0  0  0  0  0  0  0  0  0  0  0  0
    1.2171   -0.1804   -0.9188 C   0  0  0  0  0  0  0  0  0  0  0  0
    0.0267    0.2493   -0.2314 N   0  0  0  0  0  0  0  0  0  0  0  0
   -0.8846   -0.7247    0.2800 C   0  0  0  0  0  0  0  0  0  0  0  0
   -2.0638   -0.1784    1.0180 C   0  0  2  0  0  0  0  0  0  0  0  0
   -2.9635   -1.3591    1.3478 C   0  0  0  0  0  0  0  0  0  0  0  0
   -2.8017    0.6451    0.1736 O   0  0  0  0  0  0  0  0  0  0  0  0
   -0.2394    1.6149   -0.0692 C   0  0  0  0  0  0  0  0  0  0  0  0
   -0.9303    2.2224   -0.9923 N   0  0  0  0  0  0  0  0  0  0  0  0
    0.1966    2.3898    1.0371 N   0  0  0  0  0  0  0  0  0  0  0  0
    0.3639    3.7755    0.9412 N   0  0  0  0  0  0  0  0  0  0  0  0
    4.1813   -2.3414   -2.1776 H   0  0  0  0  0  0  0  0  0  0  0  0
    2.6073   -3.0385   -1.5330 H   0  0  0  0  0  0  0  0  0  0  0  0
    2.6210   -1.6152   -2.5954 H   0  0  0  0  0  0  0  0  0  0  0  0
    1.7064   -1.7534    0.4420 H   0  0  0  0  0  0  0  0  0  0  0  0
    2.5427   -0.1953    0.8166 H   0  0  0  0  0  0  0  0  0  0  0  0
    0.9850   -0.8728   -1.7575 H   0  0  0  0  0  0  0  0  0  0  0  0
    1.7130    0.7026   -1.4042 H   0  0  0  0  0  0  0  0  0  0  0  0
   -1.2224   -1.3330   -0.6122 H   0  0  0  0  0  0  0  0  0  0  0  0
   -0.3029   -1.4426    0.9118 H   0  0  0  0  0  0  0  0  0  0  0  0
   -1.8132    0.3848    1.9146 H   0  0  0  0  0  0  0  0  0  0  0  0
   -3.7860   -1.4572    0.6057 H   0  0  0  0  0  0  0  0  0  0  0  0
   -3.4416   -1.2154    2.3288 H   0  0  0  0  0  0  0  0  0  0  0  0
   -2.3990   -2.3249    1.3421 H   0  0  0  0  0  0  0  0  0  0  0  0
   -3.1282    0.1946   -0.6372 H   0  0  0  0  0  0  0  0  0  0  0  0
   -1.2770    1.7153   -1.8282 H   0  0  0  0  0  0  0  0  0  0  0  0
    0.3917    1.9098    1.9265 H   0  0  0  0  0  0  0  0  0  0  0  0
    0.3564    4.2290    1.8762 H   0  0  0  0  0  0  0  0  0  0  0  0
   -0.3340    4.2176    0.2876 H   0  0  0  0  0  0  0  0  0  0  0  0
  1  2  1  0
  2  3  1  0
  3  4  1  0
  4  5  1  0
  5  6  1  0
  6  7  1  0
  7  8  1  0
  7  9  1  0
  5 10  1  0
 10 11  2  3
 10 12  1  0
 12 13  1  0
  1 14  1  0
  1 15  1  0
  1 16  1  0
  3 17  1  0
  3 18  1  0
  4 19  1  0
  4 20  1  0
  6 21  1  0
  6 22  1  0
  7 23  1  1
  8 24  1  0
  8 25  1  0
  8 26  1  0
  9 27  1  0
 11 28  1  0
 12 29  1  0
 13 30  1  0
 13 31  1  0
M  END
$$$$

     RDKit          3D

 31 30  0  0  0  0  0  0  0  0999 V2000
    3.5337    0.5326    1.2015 C   0  0  0  0  0  0  0  0  0  0  0  0
    2.1798    0.1534    1.1232 O   0  0  0  0  0  0  0  0  0  0  0  0
    2.0899   -0.8866    0.2023 C   0  0  0  0  0  0  0  0  0  0  0  0
    0.6893   -1.3796    0.0357 C   0  0  0  0  0  0  0  0  0  0  0  0
   -0.2480   -0.4063   -0.4229 N   0  0  0  0  0  0  0  0  0  0  0  0
   -1.6289   -0.7538   -0.6248 C   0  0  0  0  0  0  0  0  0  0  0  0
   -2.2089   -1.0215    0.7737 C   0  0  2  0  0  0  0  0  0  0  0  0
   -3.6846   -1.3612    0.6715 C   0  0  0  0  0  0  0  0  0  0  0  0
   -2.1082    0.0952    1.5770 O   0  0  0  0  0  0  0  0  0  0  0  0
    0.1530    0.9136   -0.6886 C   0  0  0  0  0  0  0  0  0  0  0  0
    0.2079    1.7367    0.3147 N   0  0  0  0  0  0  0  0  0  0  0  0
    0.4932    1.3871   -1.9880 N   0  0  0  0  0  0  0  0  0  0  0  0
    0.6165    2.7593   -2.1930 N   0  0  0  0  0  0  0  0  0  0  0  0
    4.1603   -0.3029    1.5298 H   0  0  0  0  0  0  0  0  0  0  0  0
    3.6452    1.4462    1.8345 H   0  0  0  0  0  0  0  0  0  0  0  0
    3.8305    0.7897    0.1439 H   0  0  0  0  0  0  0  0  0  0  0  0
    2.5422   -0.5265   -0.7576 H   0  0  0  0  0  0  0  0  0  0  0  0
    2.7665   -1.7001    0.5831 H   0  0  0  0  0  0  0  0  0  0  0  0
    0.7559   -2.2725   -0.6470 H   0  0  0  0  0  0  0  0  0  0  0  0
    0.3878   -1.8427    1.0192 H   0  0  0  0  0  0  0  0  0  0  0  0
   -1.6806   -1.6946   -1.2280 H   0  0  0  0  0  0  0  0  0  0  0  0
   -2.1958    0.0210   -1.1609 H   0  0  0  0  0  0  0  0  0  0  0  0
   -1.7058   -1.9108    1.2000 H   0  0  0  0  0  0  0  0  0  0  0  0
   -4.0968   -1.2941    1.7039 H   0  0  0  0  0  0  0  0  0  0  0  0
   -4.1585   -0.5873    0.0374 H   0  0  0  0  0  0  0  0  0  0  0  0
   -3.8659   -2.3980    0.3239 H   0  0  0  0  0  0  0  0  0  0  0  0
   -2.9530    0.6186    1.5355 H   0  0  0  0  0  0  0  0  0  0  0  0
    0.4992    2.7227    0.1663 H   0  0  0  0  0  0  0  0  0  0  0  0
    0.6435    0.7270   -2.7585 H   0  0  0  0  0  0  0  0  0  0  0  0
   -0.1585    3.2800   -1.7199 H   0  0  0  0  0  0  0  0  0  0  0  0
    1.4992    3.1551   -1.7884 H   0  0  0  0  0  0  0  0  0  0  0  0
  1  2  1  0
  2  3  1  0
  3  4  1  0
  4  5  1  0
  5  6  1  0
  6  7  1  0
  7  8  1  0
  7  9  1  0
  5 10  1  0
 10 11  2  3
 10 12  1  0
 12 13  1  0
  1 14  1  0
  1 15  1  0
  1 16  1  0
  3 17  1  0
  3 18  1  0
  4 19  1  0
  4 20  1  0
  6 21  1  0
  6 22  1  0
  7 23  1  1
  8 24  1  0
  8 25  1  0
  8 26  1  0
  9 27  1  0
 11 28  1  0
 12 29  1  0
 13 30  1  0
 13 31  1  0
M  END
$$$$

     RDKit          3D

 31 30  0  0  0  0  0  0  0  0999 V2000
    4.3720    1.3356   -0.1979 C   0  0  0  0  0  0  0  0  0  0  0  0
    3.4329    0.6205    0.5294 O   0  0  0  0  0  0  0  0  0  0  0  0
    2.2050    0.6405   -0.1219 C   0  0  0  0  0  0  0  0  0  0  0  0
    1.2393   -0.1744    0.7386 C   0  0  0  0  0  0  0  0  0  0  0  0
   -0.0823   -0.2125    0.1474 N   0  0  0  0  0  0  0  0  0  0  0  0
   -0.8357    1.0082    0.1316 C   0  0  0  0  0  0  0  0  0  0  0  0
   -2.1477    0.9012   -0.5947 C   0  0  2  0  0  0  0  0  0  0  0  0
   -2.8441    2.2594   -0.3491 C   0  0  0  0  0  0  0  0  0  0  0  0
   -3.0018   -0.0711   -0.0885 O   0  0  0  0  0  0  0  0  0  0  0  0
   -0.5395   -1.4512   -0.3560 C   0  0  0  0  0  0  0  0  0  0  0  0
   -0.9955   -1.5646   -1.5479 N   0  0  0  0  0  0  0  0  0  0  0  0
   -0.4953   -2.6008    0.4856 N   0  0  0  0  0  0  0  0  0  0  0  0
   -1.0689   -3.7871    0.0346 N   0  0  0  0  0  0  0  0  0  0  0  0
    5.3744    1.3476    0.2962 H   0  0  0  0  0  0  0  0  0  0  0  0
    4.0120    2.3439   -0.4738 H   0  0  0  0  0  0  0  0  0  0  0  0
    4.5601    0.7851   -1.1577 H   0  0  0  0  0  0  0  0  0  0  0  0
    2.2602    0.0632   -1.0963 H   0  0  0  0  0  0  0  0  0  0  0  0
    1.8250    1.6550   -0.3006 H   0  0  0  0  0  0  0  0  0  0  0  0
    1.6754   -1.1845    0.8907 H   0  0  0  0  0  0  0  0  0  0  0  0
    1.1748    0.3669    1.7013 H   0  0  0  0  0  0  0  0  0  0  0  0
   -0.2217    1.7792   -0.3864 H   0  0  0  0  0  0  0  0  0  0  0  0
   -1.0761    1.3114    1.1750 H   0  0  0  0  0  0  0  0  0  0  0  0
   -2.0567    0.7891   -1.6940 H   0  0  0  0  0  0  0  0  0  0  0  0
   -3.7733    2.3631   -0.9085 H   0  0  0  0  0  0  0  0  0  0  0  0
   -2.0944    3.0364   -0.5713 H   0  0  0  0  0  0  0  0  0  0  0  0
   -3.0127    2.2916    0.7671 H   0  0  0  0  0  0  0  0  0  0  0  0
   -3.5712   -0.4812   -0.8172 H   0  0  0  0  0  0  0  0  0  0  0  0
   -1.3444   -2.4386   -1.9719 H   0  0  0  0  0  0  0  0  0  0  0  0
   -0.0466   -2.5832    1.4316 H   0  0  0  0  0  0  0  0  0  0  0  0
   -0.8028   -4.6088    0.6525 H   0  0  0  0  0  0  0  0  0  0  0  0
   -2.1204   -3.7399    0.0558 H   0  0  0  0  0  0  0  0  0  0  0  0
  1  2  1  0
  2  3  1  0
  3  4  1  0
  4  5  1  0
  5  6  1  0
  6  7  1  0
  7  8  1  0
  7  9  1  0
  5 10  1  0
 10 11  2  3
 10 12  1  0
 12 13  1  0
  1 14  1  0
  1 15  1  0
  1 16  1  0
  3 17  1  0
  3 18  1  0
  4 19  1  0
  4 20  1  0
  6 21  1  0
  6 22  1  0
  7 23  1  6
  8 24  1  0
  8 25  1  0
  8 26  1  0
  9 27  1  0
 11 28  1  0
 12 29  1  0
 13 30  1  0
 13 31  1  0
M  END
$$$$
