
     RDKit          3D

 28 27  0  0  0  0  0  0  0  0999 V2000
   -3.8112    0.5732   -0.4111 C   0  0  0  0  0  0  0  0  0  0  0  0
   -2.3533    0.7103   -0.1483 N   0  0  0  0  0  0  0  0  0  0  0  0
   -1.8131   -0.5464    0.2377 C   0  0  0  0  0  0  0  0  0  0  0  0
   -0.3865   -0.5718    0.6882 C   0  0  1  0  0  0  0  0  0  0  0  0
   -0.0079   -1.8849    1.0300 O   0  0  0  0  0  0  0  0  0  0  0  0
    0.5263   -0.0281   -0.3737 C   0  0  1  0  0  0  0  0  0  0  0  0
    0.4793   -0.9164   -1.6221 C   0  0  0  0  0  0  0  0  0  0  0  0
    0.1639    1.3161   -0.6734 N   0  0  0  0  0  0  0  0  0  0  0  0
    1.9588   -0.1232    0.0934 C   0  0  0  0  0  0  0  0  0  0  0  0
    2.3875   -1.2762    0.3113 O   0  0  0  0  0  0  0  0  0  0  0  0
    2.7807    0.9499    0.2838 O   0  0  0  0  0  0  0  0  0  0  0  0
    4.1191    0.8741    0.7214 C   0  0  0  0  0  0  0  0  0  0  0  0
   -4.2986    1.5335   -0.1499 H   0  0  0  0  0  0  0  0  0  0  0  0
   -4.1936   -0.2803    0.1827 H   0  0  0  0  0  0  0  0  0  0  0  0
   -4.0049    0.3522   -1.4663 H   0  0  0  0  0  0  0  0  0  0  0  0
   -2.0073    1.0418   -1.1042 H   0  0  0  0  0  0  0  0  0  0  0  0
   -2.4642   -0.9254    1.0796 H   0  0  0  0  0  0  0  0  0  0  0  0
   -1.9961   -1.2498   -0.6167 H   0  0  0  0  0  0  0  0  0  0  0  0
   -0.2972    0.1117    1.5659 H   0  0  0  0  0  0  0  0  0  0  0  0
   -0.5954   -2.4719    0.4756 H   0  0  0  0  0  0  0  0  0  0  0  0
    0.8793   -1.9152   -1.3452 H   0  0  0  0  0  0  0  0  0  0  0  0
   -0.5291   -1.0228   -2.0251 H   0  0  0  0  0  0  0  0  0  0  0  0
    1.1575   -0.4911   -2.3730 H   0  0  0  0  0  0  0  0  0  0  0  0
    0.5402    2.0248   -0.0222 H   0  0  0  0  0  0  0  0  0  0  0  0
    0.2750    1.5747   -1.6774 H   0  0  0  0  0  0  0  0  0  0  0  0
    4.3216    1.6795    1.4639 H   0  0  0  0  0  0  0  0  0  0  0  0
    4.7936    1.0770   -0.1336 H   0  0  0  0  0  0  0  0  0  0  0  0
    4.3752   -0.1155    1.1620 H   0  0  0  0  0  0  0  0  0  0  0  0
  1  2  1  0
  2  3  1  0
  3  4  1  0
  4  5  1  0
  4  6  1  0
  6  7  1  0
  6  8  1  6
  6  9  1  0
  9 10  2  0
  9 11  1  0
 11 12  1  0
  1 13  1  0
  1 14  1  0
  1 15  1  0
  2 16  1  0
  3 17  1  0
  3 18  1  0
  4 19  1  1
  5 20  1  0
  7 21  1  0
  7 22  1  0
  7 23  1  0
  8 24  1  0
  8 25  1  0
 12 26  1  0
 12 27  1  0
 12 28  1  0
M  END
$$$$

     RDKit          3D

 28 27  0  0  0  0  0  0  0  0999 V2000
    3.5274    0.7937   -0.0766 C   0  0  0  0  0  0  0  0  0  0  0  0
    2.3316    1.3948   -0.5384 N   0  0  0  0  0  0  0  0  0  0  0  0
    1.1025    1.0020    0.0359 C   0  0  0  0  0  0  0  0  0  0  0  0
    0.7418   -0.4012   -0.3559 C   0  0  1  0  0  0  0  0  0  0  0  0
    1.6622   -1.3417    0.0499 O   0  0  0  0  0  0  0  0  0  0  0  0
   -0.6151   -0.8486    0.1200 C   0  0  1  0  0  0  0  0  0  0  0  0
   -0.8831   -2.1896   -0.5374 C   0  0  0  0  0  0  0  0  0  0  0  0
   -0.6599   -0.9806    1.5582 N   0  0  0  0  0  0  0  0  0  0  0  0
   -1.6908    0.0925   -0.2983 C   0  0  0  0  0  0  0  0  0  0  0  0
   -1.8841    0.4127   -1.4886 O   0  0  0  0  0  0  0  0  0  0  0  0
   -2.5375    0.6590    0.6544 O   0  0  0  0  0  0  0  0  0  0  0  0
   -3.5712    1.5569    0.2844 C   0  0  0  0  0  0  0  0  0  0  0  0
    4.3714    1.2838   -0.6647 H   0  0  0  0  0  0  0  0  0  0  0  0
    3.7733    1.0007    0.9912 H   0  0  0  0  0  0  0  0  0  0  0  0
    3.6195   -0.2706   -0.3163 H   0  0  0  0  0  0  0  0  0  0  0  0
    2.4545    2.4141   -0.7274 H   0  0  0  0  0  0  0  0  0  0  0  0
    1.0441    1.1616    1.1388 H   0  0  0  0  0  0  0  0  0  0  0  0
    0.3014    1.6569   -0.4296 H   0  0  0  0  0  0  0  0  0  0  0  0
    0.6898   -0.3867   -1.4931 H   0  0  0  0  0  0  0  0  0  0  0  0
    1.9212   -1.9025   -0.7193 H   0  0  0  0  0  0  0  0  0  0  0  0
   -1.5081   -2.7768    0.1397 H   0  0  0  0  0  0  0  0  0  0  0  0
    0.0503   -2.6949   -0.8324 H   0  0  0  0  0  0  0  0  0  0  0  0
   -1.4327   -1.9862   -1.4973 H   0  0  0  0  0  0  0  0  0  0  0  0
   -1.5070   -1.5477    1.8153 H   0  0  0  0  0  0  0  0  0  0  0  0
    0.2142   -1.4213    1.9540 H   0  0  0  0  0  0  0  0  0  0  0  0
   -3.1629    2.4432   -0.2261 H   0  0  0  0  0  0  0  0  0  0  0  0
   -4.1580    1.8815    1.1384 H   0  0  0  0  0  0  0  0  0  0  0  0
   -4.1947    0.9950   -0.4576 H   0  0  0  0  0  0  0  0  0  0  0  0
  1  2  1  0
  2  3  1  0
  3  4  1  0
  4  5  1  0
  4  6  1  0
  6  7  1  0
  6  8  1  1
  6  9  1  0
  9 10  2  0
  9 11  1  0
 11 12  1  0
  1 13  1  0
  1 14  1  0
  1 15  1  0
  2 16  1  0
  3 17  1  0
  3 18  1  0
  4 19  1  6
  5 20  1  0
  7 21  1  0
  7 22  1  0
  7 23  1  0
  8 24  1  0
  8 25  1  0
 12 26  1  0
 12 27  1  0
 12 28  1  0
M  END
$$$$

     RDKit          3D

 28 27  0  0  0  0  0  0  0  0999 V2000
   -3.3238    1.0506    0.3072 C   0  0  0  0  0  0  0  0  0  0  0  0
   -2.0526    1.7139    0.2258 N   0  0  0  0  0  0  0  0  0  0  0  0
   -1.0227    0.9588   -0.4311 C   0  0  0  0  0  0  0  0  0  0  0  0
   -0.6073   -0.2124    0.3946 C   0  0  1  0  0  0  0  0  0  0  0  0
   -1.6871   -1.0590    0.6158 O   0  0  0  0  0  0  0  0  0  0  0  0
    0.5186   -0.9734   -0.2886 C   0  0  1  0  0  0  0  0  0  0  0  0
    0.9116   -2.1602    0.5734 C   0  0  0  0  0  0  0  0  0  0  0  0
    0.0892   -1.4910   -1.5539 N   0  0  0  0  0  0  0  0  0  0  0  0
    1.6853   -0.0829   -0.4319 C   0  0  0  0  0  0  0  0  0  0  0  0
    2.1378    0.1332   -1.5890 O   0  0  0  0  0  0  0  0  0  0  0  0
    2.2856    0.5129    0.6685 O   0  0  0  0  0  0  0  0  0  0  0  0
    3.4119    1.3595    0.4239 C   0  0  0  0  0  0  0  0  0  0  0  0
   -3.3439    0.1741   -0.3667 H   0  0  0  0  0  0  0  0  0  0  0  0
   -4.0883    1.7853   -0.0643 H   0  0  0  0  0  0  0  0  0  0  0  0
   -3.5470    0.6970    1.3438 H   0  0  0  0  0  0  0  0  0  0  0  0
   -1.7597    2.0465    1.1689 H   0  0  0  0  0  0  0  0  0  0  0  0
   -0.1805    1.5905   -0.7812 H   0  0  0  0  0  0  0  0  0  0  0  0
   -1.4959    0.5719   -1.3819 H   0  0  0  0  0  0  0  0  0  0  0  0
   -0.2628    0.1288    1.4043 H   0  0  0  0  0  0  0  0  0  0  0  0
   -1.4808   -1.9625    0.2185 H   0  0  0  0  0  0  0  0  0  0  0  0
    0.8416   -1.8477    1.6511 H   0  0  0  0  0  0  0  0  0  0  0  0
    0.2518   -3.0150    0.3525 H   0  0  0  0  0  0  0  0  0  0  0  0
    1.9838   -2.3883    0.4107 H   0  0  0  0  0  0  0  0  0  0  0  0
   -0.9322   -1.3843   -1.6622 H   0  0  0  0  0  0  0  0  0  0  0  0
    0.6192   -1.0128   -2.2961 H   0  0  0  0  0  0  0  0  0  0  0  0
    3.0269    2.4025    0.2656 H   0  0  0  0  0  0  0  0  0  0  0  0
    4.0655    1.3847    1.3113 H   0  0  0  0  0  0  0  0  0  0  0  0
    3.9557    1.0791   -0.4893 H   0  0  0  0  0  0  0  0  0  0  0  0
  1  2  1  0
  2  3  1  0
  3  4  1  0
  4  5  1  0
  4  6  1  0
  6  7  1  0
  6  8  1  6
  6  9  1  0
  9 10  2  0
  9 11  1  0
 11 12  1  0
  1 13  1  0
  1 14  1  0
  1 15  1  0
  2 16  1  0
  3 17  1  0
  3 18  1  0
  4 19  1  1
  5 20  1  0
  7 21  1  0
  7 22  1  0
  7 23  1  0
  8 24  1  0
  8 25  1  0
 12 26  1  0
 12 27  1  0
 12 28  1  0
M  END
$$$$

     RDKit          3D

 28 27  0  0  0  0  0  0  0  0999 V2000
   -3.9544    1.0693   -0.1987 C   0  0  0  0  0  0  0  0  0  0  0  0
   -2.5421    1.2544    0.0513 N   0  0  0  0  0  0  0  0  0  0  0  0
   -1.7710    0.0702   -0.2948 C   0  0  0  0  0  0  0  0  0  0  0  0
   -0.3356    0.3867    0.0074 C   0  0  1  0  0  0  0  0  0  0  0  0
   -0.2020    0.6831    1.3400 O   0  0  0  0  0  0  0  0  0  0  0  0
    0.6156   -0.7192   -0.3577 C   0  0  1  0  0  0  0  0  0  0  0  0
    0.3905   -1.9883    0.4007 C   0  0  0  0  0  0  0  0  0  0  0  0
    0.4987   -1.0623   -1.7856 N   0  0  0  0  0  0  0  0  0  0  0  0
    1.9993   -0.2042   -0.1796 C   0  0  0  0  0  0  0  0  0  0  0  0
    2.8365   -0.1165   -1.1393 O   0  0  0  0  0  0  0  0  0  0  0  0
    2.4949    0.2256    1.0541 O   0  0  0  0  0  0  0  0  0  0  0  0
    3.8231    0.7139    1.1962 C   0  0  0  0  0  0  0  0  0  0  0  0
   -4.4551    2.0184    0.0841 H   0  0  0  0  0  0  0  0  0  0  0  0
   -4.3318    0.2798    0.4620 H   0  0  0  0  0  0  0  0  0  0  0  0
   -4.1066    0.8712   -1.2708 H   0  0  0  0  0  0  0  0  0  0  0  0
   -2.1613    2.1086   -0.3913 H   0  0  0  0  0  0  0  0  0  0  0  0
   -1.8983   -0.0831   -1.3883 H   0  0  0  0  0  0  0  0  0  0  0  0
   -2.1695   -0.7892    0.2391 H   0  0  0  0  0  0  0  0  0  0  0  0
   -0.0547    1.2725   -0.5974 H   0  0  0  0  0  0  0  0  0  0  0  0
    0.3188    0.0657    1.8768 H   0  0  0  0  0  0  0  0  0  0  0  0
   -0.2993   -2.6476   -0.1967 H   0  0  0  0  0  0  0  0  0  0  0  0
   -0.0185   -1.8813    1.4044 H   0  0  0  0  0  0  0  0  0  0  0  0
    1.3608   -2.5422    0.4117 H   0  0  0  0  0  0  0  0  0  0  0  0
    0.1742   -0.2368   -2.3324 H   0  0  0  0  0  0  0  0  0  0  0  0
    1.3843   -1.4692   -2.1289 H   0  0  0  0  0  0  0  0  0  0  0  0
    4.2112    1.0107    0.2047 H   0  0  0  0  0  0  0  0  0  0  0  0
    4.4751    0.0351    1.7507 H   0  0  0  0  0  0  0  0  0  0  0  0
    3.7171    1.6748    1.7782 H   0  0  0  0  0  0  0  0  0  0  0  0
  1  2  1  0
  2  3  1  0
  3  4  1  0
  4  5  1  0
  4  6  1  0
  6  7  1  0
  6  8  1  6
  6  9  1  0
  9 10  2  0
  9 11  1  0
 11 12  1  0
  1 13  1  0
  1 14  1  0
  1 15  1  0
  2 16  1  0
  3 17  1  0
  3 18  1  0
  4 19  1  6
  5 20  1  0
  7 21  1  0
  7 22  1  0
  7 23  1  0
  8 24  1  0
  8 25  1  0
 12 26  1  0
 12 27  1  0
 12 28  1  0
M  END
$$$$

     RDKit          3D

 28 27  0  0  0  0  0  0  0  0999 V2000
    3.6431    0.7567   -0.6030 C   0  0  0  0  0  0  0  0  0  0  0  0
    2.8038   -0.1694    0.1655 N   0  0  0  0  0  0  0  0  0  0  0  0
    1.4305    0.0014   -0.3219 C   0  0  0  0  0  0  0  0  0  0  0  0
    0.5094   -0.9250    0.4285 C   0  0  1  0  0  0  0  0  0  0  0  0
    0.5630   -0.5880    1.7770 O   0  0  0  0  0  0  0  0  0  0  0  0
   -0.8919   -0.9304   -0.0833 C   0  0  1  0  0  0  0  0  0  0  0  0
   -0.9834   -1.3226   -1.5397 C   0  0  0  0  0  0  0  0  0  0  0  0
   -1.7041   -1.9155    0.6540 N   0  0  0  0  0  0  0  0  0  0  0  0
   -1.4925    0.4183    0.0459 C   0  0  0  0  0  0  0  0  0  0  0  0
   -0.9938    1.3516   -0.6217 O   0  0  0  0  0  0  0  0  0  0  0  0
   -2.5750    0.7031    0.8643 O   0  0  0  0  0  0  0  0  0  0  0  0
   -3.0685    2.0430    0.9071 C   0  0  0  0  0  0  0  0  0  0  0  0
    3.0789    1.7273   -0.6369 H   0  0  0  0  0  0  0  0  0  0  0  0
    4.5998    0.9259   -0.0840 H   0  0  0  0  0  0  0  0  0  0  0  0
    3.7528    0.3360   -1.6184 H   0  0  0  0  0  0  0  0  0  0  0  0
    2.8386    0.1862    1.1634 H   0  0  0  0  0  0  0  0  0  0  0  0
    1.4172   -0.2259   -1.3972 H   0  0  0  0  0  0  0  0  0  0  0  0
    1.1875    1.0689   -0.0883 H   0  0  0  0  0  0  0  0  0  0  0  0
    0.9524   -1.9674    0.3376 H   0  0  0  0  0  0  0  0  0  0  0  0
    0.4549    0.3893    1.8730 H   0  0  0  0  0  0  0  0  0  0  0  0
   -2.0716   -1.3549   -1.7943 H   0  0  0  0  0  0  0  0  0  0  0  0
   -0.5269   -0.5211   -2.1855 H   0  0  0  0  0  0  0  0  0  0  0  0
   -0.5780   -2.3141   -1.7477 H   0  0  0  0  0  0  0  0  0  0  0  0
   -1.5694   -2.8638    0.1912 H   0  0  0  0  0  0  0  0  0  0  0  0
   -1.2218   -2.0343    1.5952 H   0  0  0  0  0  0  0  0  0  0  0  0
   -4.1472    2.0613    0.7425 H   0  0  0  0  0  0  0  0  0  0  0  0
   -2.8055    2.5051    1.8805 H   0  0  0  0  0  0  0  0  0  0  0  0
   -2.6022    2.6583    0.0963 H   0  0  0  0  0  0  0  0  0  0  0  0
  1  2  1  0
  2  3  1  0
  3  4  1  0
  4  5  1  0
  4  6  1  0
  6  7  1  0
  6  8  1  1
  6  9  1  0
  9 10  2  0
  9 11  1  0
 11 12  1  0
  1 13  1  0
  1 14  1  0
  1 15  1  0
  2 16  1  0
  3 17  1  0
  3 18  1  0
  4 19  1  1
  5 20  1  0
  7 21  1  0
  7 22  1  0
  7 23  1  0
  8 24  1  0
  8 25  1  0
 12 26  1  0
 12 27  1  0
 12 28  1  0
M  END
$$$$

     RDKit          3D

 28 27  0  0  0  0  0  0  0  0999 V2000
   -2.7525    1.7202   -0.8861 C   0  0  0  0  0  0  0  0  0  0  0  0
   -2.6860    0.5868   -0.0434 N   0  0  0  0  0  0  0  0  0  0  0  0
   -1.4083    0.0911    0.3444 C   0  0  0  0  0  0  0  0  0  0  0  0
   -0.6024   -0.5523   -0.7101 C   0  0  1  0  0  0  0  0  0  0  0  0
   -0.3500    0.3250   -1.7483 O   0  0  0  0  0  0  0  0  0  0  0  0
    0.6763   -1.1991   -0.2211 C   0  0  1  0  0  0  0  0  0  0  0  0
    0.4859   -2.1417    0.9153 C   0  0  0  0  0  0  0  0  0  0  0  0
    1.2884   -1.9577   -1.3194 N   0  0  0  0  0  0  0  0  0  0  0  0
    1.6166   -0.0901    0.0955 C   0  0  0  0  0  0  0  0  0  0  0  0
    2.6472    0.0378   -0.5969 O   0  0  0  0  0  0  0  0  0  0  0  0
    1.4114    0.8159    1.1238 O   0  0  0  0  0  0  0  0  0  0  0  0
    2.3640    1.8393    1.3468 C   0  0  0  0  0  0  0  0  0  0  0  0
   -3.6444    1.5834   -1.5773 H   0  0  0  0  0  0  0  0  0  0  0  0
   -2.9917    2.6638   -0.3286 H   0  0  0  0  0  0  0  0  0  0  0  0
   -1.9175    1.9084   -1.5677 H   0  0  0  0  0  0  0  0  0  0  0  0
   -3.3840    0.6839    0.7214 H   0  0  0  0  0  0  0  0  0  0  0  0
   -1.6365   -0.7244    1.1131 H   0  0  0  0  0  0  0  0  0  0  0  0
   -0.8702    0.8482    0.9544 H   0  0  0  0  0  0  0  0  0  0  0  0
   -1.1779   -1.4022   -1.1911 H   0  0  0  0  0  0  0  0  0  0  0  0
    0.5364    0.7252   -1.5893 H   0  0  0  0  0  0  0  0  0  0  0  0
   -0.3413   -2.8311    0.6713 H   0  0  0  0  0  0  0  0  0  0  0  0
    1.4187   -2.7807    0.9612 H   0  0  0  0  0  0  0  0  0  0  0  0
    0.4090   -1.6807    1.8984 H   0  0  0  0  0  0  0  0  0  0  0  0
    2.3099   -1.9531   -1.1651 H   0  0  0  0  0  0  0  0  0  0  0  0
    0.8449   -2.8808   -1.3277 H   0  0  0  0  0  0  0  0  0  0  0  0
    2.3968    2.4450    0.4026 H   0  0  0  0  0  0  0  0  0  0  0  0
    2.0229    2.5392    2.1462 H   0  0  0  0  0  0  0  0  0  0  0  0
    3.3342    1.3808    1.5778 H   0  0  0  0  0  0  0  0  0  0  0  0
  1  2  1  0
  2  3  1  0
  3  4  1  0
  4  5  1  0
  4  6  1  0
  6  7  1  0
  6  8  1  6
  6  9  1  0
  9 10  2  0
  9 11  1  0
 11 12  1  0
  1 13  1  0
  1 14  1  0
  1 15  1  0
  2 16  1  0
  3 17  1  0
  3 18  1  0
  4 19  1  6
  5 20  1  0
  7 21  1  0
  7 22  1  0
  7 23  1  0
  8 24  1  0
  8 25  1  0
 12 26  1  0
 12 27  1  0
 12 28  1  0
M  END
$$$$

     RDKit          3D

 28 27  0  0  0  0  0  0  0  0999 V2000
   -3.2618    0.8036   -0.3464 C   0  0  0  0  0  0  0  0  0  0  0  0
   -2.5555   -0.4154   -0.7335 N   0  0  0  0  0  0  0  0  0  0  0  0
   -1.6563   -0.8429    0.2937 C   0  0  0  0  0  0  0  0  0  0  0  0
   -0.4576    0.0031    0.5235 C   0  0  1  0  0  0  0  0  0  0  0  0
    0.2560   -0.5782    1.5980 O   0  0  0  0  0  0  0  0  0  0  0  0
    0.5291    0.0515   -0.6139 C   0  0  1  0  0  0  0  0  0  0  0  0
    0.9960   -1.3840   -0.8952 C   0  0  0  0  0  0  0  0  0  0  0  0
    0.0804    0.6081   -1.8265 N   0  0  0  0  0  0  0  0  0  0  0  0
    1.7652    0.7372   -0.0835 C   0  0  0  0  0  0  0  0  0  0  0  0
    2.2350    1.6878   -0.7500 O   0  0  0  0  0  0  0  0  0  0  0  0
    2.3772    0.3628    1.0760 O   0  0  0  0  0  0  0  0  0  0  0  0
    3.5371    0.9683    1.6198 C   0  0  0  0  0  0  0  0  0  0  0  0
   -4.1937    0.5085    0.1810 H   0  0  0  0  0  0  0  0  0  0  0  0
   -2.6907    1.4500    0.3179 H   0  0  0  0  0  0  0  0  0  0  0  0
   -3.5798    1.3660   -1.2381 H   0  0  0  0  0  0  0  0  0  0  0  0
   -3.3002   -1.1180   -0.9359 H   0  0  0  0  0  0  0  0  0  0  0  0
   -1.3933   -1.9011    0.0912 H   0  0  0  0  0  0  0  0  0  0  0  0
   -2.2155   -0.8596    1.2776 H   0  0  0  0  0  0  0  0  0  0  0  0
   -0.7730    1.0263    0.7891 H   0  0  0  0  0  0  0  0  0  0  0  0
    0.0004   -1.5161    1.7110 H   0  0  0  0  0  0  0  0  0  0  0  0
    0.1895   -2.0165   -1.2739 H   0  0  0  0  0  0  0  0  0  0  0  0
    1.7624   -1.3212   -1.7097 H   0  0  0  0  0  0  0  0  0  0  0  0
    1.5007   -1.8281   -0.0319 H   0  0  0  0  0  0  0  0  0  0  0  0
   -0.8514    1.0234   -1.8181 H   0  0  0  0  0  0  0  0  0  0  0  0
    0.1997   -0.0312   -2.6177 H   0  0  0  0  0  0  0  0  0  0  0  0
    3.2135    1.7627    2.3160 H   0  0  0  0  0  0  0  0  0  0  0  0
    4.0380    0.1584    2.2165 H   0  0  0  0  0  0  0  0  0  0  0  0
    4.2486    1.2945    0.8631 H   0  0  0  0  0  0  0  0  0  0  0  0
  1  2  1  0
  2  3  1  0
  3  4  1  0
  4  5  1  0
  4  6  1  0
  6  7  1  0
  6  8  1  6
  6  9  1  0
  9 10  2  0
  9 11  1  0
 11 12  1  0
  1 13  1  0
  1 14  1  0
  1 15  1  0
  2 16  1  0
  3 17  1  0
  3 18  1  0
  4 19  1  1
  5 20  1  0
  7 21  1  0
  7 22  1  0
  7 23  1  0
  8 24  1  0
  8 25  1  0
 12 26  1  0
 12 27  1  0
 12 28  1  0
M  END
$$$$

     RDKit          3D

 28 27  0  0  0  0  0  0  0  0999 V2000
    3.6306    0.0124    0.0750 C   0  0  0  0  0  0  0  0  0  0  0  0
    2.7692    0.9645   -0.5956 N   0  0  0  0  0  0  0  0  0  0  0  0
    1.4782    0.3956   -0.9321 C   0  0  0  0  0  0  0  0  0  0  0  0
    0.7284    0.1443    0.3370 C   0  0  1  0  0  0  0  0  0  0  0  0
    0.5232    1.3194    1.0674 O   0  0  0  0  0  0  0  0  0  0  0  0
   -0.5921   -0.5295    0.1815 C   0  0  1  0  0  0  0  0  0  0  0  0
   -0.3731   -1.8734   -0.5213 C   0  0  0  0  0  0  0  0  0  0  0  0
   -1.1082   -0.8183    1.4759 N   0  0  0  0  0  0  0  0  0  0  0  0
   -1.5871    0.1948   -0.6110 C   0  0  0  0  0  0  0  0  0  0  0  0
   -1.3855    0.5767   -1.8075 O   0  0  0  0  0  0  0  0  0  0  0  0
   -2.8217    0.4962   -0.0609 O   0  0  0  0  0  0  0  0  0  0  0  0
   -3.8696    1.1856   -0.7073 C   0  0  0  0  0  0  0  0  0  0  0  0
    3.3189   -0.0642    1.1326 H   0  0  0  0  0  0  0  0  0  0  0  0
    4.6719    0.3971    0.0175 H   0  0  0  0  0  0  0  0  0  0  0  0
    3.5998   -0.9486   -0.4736 H   0  0  0  0  0  0  0  0  0  0  0  0
    2.7058    1.8193   -0.0008 H   0  0  0  0  0  0  0  0  0  0  0  0
    0.9432    1.0333   -1.6443 H   0  0  0  0  0  0  0  0  0  0  0  0
    1.6981   -0.5560   -1.4544 H   0  0  0  0  0  0  0  0  0  0  0  0
    1.3466   -0.5199    0.9902 H   0  0  0  0  0  0  0  0  0  0  0  0
    0.3477    1.0359    1.9987 H   0  0  0  0  0  0  0  0  0  0  0  0
    0.2947   -2.4837    0.0988 H   0  0  0  0  0  0  0  0  0  0  0  0
   -1.3647   -2.3676   -0.6277 H   0  0  0  0  0  0  0  0  0  0  0  0
   -0.0053   -1.6614   -1.5329 H   0  0  0  0  0  0  0  0  0  0  0  0
   -0.9119   -1.7141    1.8771 H   0  0  0  0  0  0  0  0  0  0  0  0
   -1.3988   -0.0372    2.0498 H   0  0  0  0  0  0  0  0  0  0  0  0
   -4.1502    0.6912   -1.6588 H   0  0  0  0  0  0  0  0  0  0  0  0
   -4.7708    1.0482   -0.0402 H   0  0  0  0  0  0  0  0  0  0  0  0
   -3.7173    2.2596   -0.7870 H   0  0  0  0  0  0  0  0  0  0  0  0
  1  2  1  0
  2  3  1  0
  3  4  1  0
  4  5  1  0
  4  6  1  0
  6  7  1  0
  6  8  1  1
  6  9  1  0
  9 10  2  0
  9 11  1  0
 11 12  1  0
  1 13  1  0
  1 14  1  0
  1 15  1  0
  2 16  1  0
  3 17  1  0
  3 18  1  0
  4 19  1  1
  5 20  1  0
  7 21  1  0
  7 22  1  0
  7 23  1  0
  8 24  1  0
  8 25  1  0
 12 26  1  0
 12 27  1  0
 12 28  1  0
M  END
$$$$
