
     RDKit          3D

 24 25  0  0  0  0  0  0  0  0999 V2000
   -3.6082    0.6299    1.5475 O   0  0  0  0  0  0  0  0  0  0  0  0
   -2.8872    0.3765    0.5385 C   0  0  0  0  0  0  0  0  0  0  0  0
   -1.6301   -0.4783    0.5897 C   0  0  0  0  0  0  0  0  0  0  0  0
   -0.9594   -0.0610   -0.6908 C   0  0  2  0  0  0  0  0  0  0  0  0
   -0.0237    0.9385   -0.4813 N   0  0  0  0  0  0  0  0  0  0  0  0
    1.1920    0.8057    0.1270 C   0  0  2  0  0  0  0  0  0  0  0  0
    2.1999   -0.0860   -0.6109 C   0  0  0  0  0  0  0  0  0  0  0  0
    3.2763    0.0004    0.3636 N   0  0  0  0  0  0  0  0  0  0  0  0
    2.7494    0.0297    1.5962 O   0  0  0  0  0  0  0  0  0  0  0  0
    1.3429    0.1284    1.4636 C   0  0  0  0  0  0  0  0  0  0  0  0
   -2.1171    0.2136   -1.6068 C   0  0  0  0  0  0  0  0  0  0  0  0
   -3.0737    0.7956   -0.7674 O   0  0  0  0  0  0  0  0  0  0  0  0
   -1.9127   -1.5613    0.5660 H   0  0  0  0  0  0  0  0  0  0  0  0
   -1.0854   -0.1966    1.4865 H   0  0  0  0  0  0  0  0  0  0  0  0
   -0.3944   -0.9899   -1.0637 H   0  0  0  0  0  0  0  0  0  0  0  0
   -0.4007    1.9227   -0.4841 H   0  0  0  0  0  0  0  0  0  0  0  0
    1.7235    1.7999    0.2307 H   0  0  0  0  0  0  0  0  0  0  0  0
    1.8827   -1.1462   -0.6275 H   0  0  0  0  0  0  0  0  0  0  0  0
    2.5067    0.2986   -1.5740 H   0  0  0  0  0  0  0  0  0  0  0  0
    3.7065    0.9660    0.1827 H   0  0  0  0  0  0  0  0  0  0  0  0
    1.0211   -0.9223    1.3159 H   0  0  0  0  0  0  0  0  0  0  0  0
    0.8980    0.6544    2.3015 H   0  0  0  0  0  0  0  0  0  0  0  0
   -1.8662    0.8196   -2.5003 H   0  0  0  0  0  0  0  0  0  0  0  0
   -2.5401   -0.7892   -1.9027 H   0  0  0  0  0  0  0  0  0  0  0  0
  1  2  2  0
  2  3  1  0
  3  4  1  0
  4  5  1  0
  5  6  1  0
  6  7  1  0
  7  8  1  0
  8  9  1  0
  9 10  1  0
  4 11  1  0
 11 12  1  0
 12  2  1  0
 10  6  1  0
  3 13  1  0
  3 14  1  0
  4 15  1  6
  5 16  1  0
  6 17  1  1
  7 18  1  0
  7 19  1  0
  8 20  1  0
 10 21  1  0
 10 22  1  0
 11 23  1  0
 11 24  1  0
M  END
$$$$

     RDKit          3D

 24 25  0  0  0  0  0  0  0  0999 V2000
   -4.4565    0.8792    0.9809 O   0  0  0  0  0  0  0  0  0  0  0  0
   -3.2785    0.6010    0.5837 C   0  0  0  0  0  0  0  0  0  0  0  0
   -2.0114    0.7766    1.3349 C   0  0  0  0  0  0  0  0  0  0  0  0
   -1.0067    0.0630    0.4942 C   0  0  2  0  0  0  0  0  0  0  0  0
    0.0438    0.9553    0.0367 N   0  0  0  0  0  0  0  0  0  0  0  0
    1.0979    0.1324   -0.5144 C   0  0  2  0  0  0  0  0  0  0  0  0
    1.7085   -0.7704    0.5266 C   0  0  0  0  0  0  0  0  0  0  0  0
    3.1262   -0.4850    0.3511 N   0  0  0  0  0  0  0  0  0  0  0  0
    3.1968    0.8086   -0.0119 O   0  0  0  0  0  0  0  0  0  0  0  0
    2.2526    0.9291   -1.0319 C   0  0  0  0  0  0  0  0  0  0  0  0
   -1.7133   -0.4436   -0.7462 C   0  0  0  0  0  0  0  0  0  0  0  0
   -3.0161    0.0708   -0.6668 O   0  0  0  0  0  0  0  0  0  0  0  0
   -1.7854    1.8596    1.4863 H   0  0  0  0  0  0  0  0  0  0  0  0
   -2.1632    0.2838    2.3188 H   0  0  0  0  0  0  0  0  0  0  0  0
   -0.5312   -0.7571    1.0429 H   0  0  0  0  0  0  0  0  0  0  0  0
   -0.3132    1.6097   -0.6924 H   0  0  0  0  0  0  0  0  0  0  0  0
    0.7350   -0.5166   -1.3358 H   0  0  0  0  0  0  0  0  0  0  0  0
    1.4598   -1.8331    0.3864 H   0  0  0  0  0  0  0  0  0  0  0  0
    1.4071   -0.3858    1.5320 H   0  0  0  0  0  0  0  0  0  0  0  0
    3.4675   -1.0973   -0.4211 H   0  0  0  0  0  0  0  0  0  0  0  0
    2.6680    0.4578   -1.9578 H   0  0  0  0  0  0  0  0  0  0  0  0
    2.0171    1.9820   -1.2626 H   0  0  0  0  0  0  0  0  0  0  0  0
   -1.2220   -0.0902   -1.6912 H   0  0  0  0  0  0  0  0  0  0  0  0
   -1.6830   -1.5630   -0.7426 H   0  0  0  0  0  0  0  0  0  0  0  0
  1  2  2  0
  2  3  1  0
  3  4  1  0
  4  5  1  0
  5  6  1  0
  6  7  1  0
  7  8  1  0
  8  9  1  0
  9 10  1  0
  4 11  1  0
 11 12  1  0
 12  2  1  0
 10  6  1  0
  3 13  1  0
  3 14  1  0
  4 15  1  1
  5 16  1  0
  6 17  1  6
  7 18  1  0
  7 19  1  0
  8 20  1  0
 10 21  1  0
 10 22  1  0
 11 23  1  0
 11 24  1  0
M  END
$$$$

     RDKit          3D

 24 25  0  0  0  0  0  0  0  0999 V2000
    3.8784    1.7597   -0.3506 O   0  0  0  0  0  0  0  0  0  0  0  0
    3.2063    0.7388   -0.1958 C   0  0  0  0  0  0  0  0  0  0  0  0
    1.9651    0.5909    0.6801 C   0  0  0  0  0  0  0  0  0  0  0  0
    1.0532   -0.0930   -0.2803 C   0  0  2  0  0  0  0  0  0  0  0  0
   -0.0751   -0.7742    0.3423 N   0  0  0  0  0  0  0  0  0  0  0  0
   -1.2507   -0.4438   -0.4374 C   0  0  2  0  0  0  0  0  0  0  0  0
   -1.5331    1.0188   -0.3151 C   0  0  0  0  0  0  0  0  0  0  0  0
   -2.9908    1.0151   -0.1196 N   0  0  0  0  0  0  0  0  0  0  0  0
   -3.2627   -0.1016    0.6015 O   0  0  0  0  0  0  0  0  0  0  0  0
   -2.5069   -1.1245    0.0589 C   0  0  0  0  0  0  0  0  0  0  0  0
    2.0031   -1.1127   -0.8998 C   0  0  0  0  0  0  0  0  0  0  0  0
    3.3036   -0.5581   -0.7165 O   0  0  0  0  0  0  0  0  0  0  0  0
    2.2945   -0.0921    1.5075 H   0  0  0  0  0  0  0  0  0  0  0  0
    1.6305    1.5677    1.0089 H   0  0  0  0  0  0  0  0  0  0  0  0
    0.6819    0.5802   -1.0584 H   0  0  0  0  0  0  0  0  0  0  0  0
   -0.1432   -0.3097    1.3080 H   0  0  0  0  0  0  0  0  0  0  0  0
   -1.0252   -0.7791   -1.4791 H   0  0  0  0  0  0  0  0  0  0  0  0
   -1.0182    1.4963    0.5343 H   0  0  0  0  0  0  0  0  0  0  0  0
   -1.3626    1.5305   -1.2783 H   0  0  0  0  0  0  0  0  0  0  0  0
   -3.2461    1.8376    0.4320 H   0  0  0  0  0  0  0  0  0  0  0  0
   -3.0521   -1.5576   -0.8173 H   0  0  0  0  0  0  0  0  0  0  0  0
   -2.2541   -1.9182    0.7959 H   0  0  0  0  0  0  0  0  0  0  0  0
    1.8837   -2.0852   -0.3890 H   0  0  0  0  0  0  0  0  0  0  0  0
    1.8205   -1.1861   -1.9711 H   0  0  0  0  0  0  0  0  0  0  0  0
  1  2  2  0
  2  3  1  0
  3  4  1  0
  4  5  1  0
  5  6  1  0
  6  7  1  0
  7  8  1  0
  8  9  1  0
  9 10  1  0
  4 11  1  0
 11 12  1  0
 12  2  1  0
 10  6  1  0
  3 13  1  0
  3 14  1  0
  4 15  1  6
  5 16  1  0
  6 17  1  6
  7 18  1  0
  7 19  1  0
  8 20  1  0
 10 21  1  0
 10 22  1  0
 11 23  1  0
 11 24  1  0
M  END
$$$$

     RDKit          3D

 24 25  0  0  0  0  0  0  0  0999 V2000
    3.6818    0.5838    1.6837 O   0  0  0  0  0  0  0  0  0  0  0  0
    2.8069    0.1409    0.8930 C   0  0  0  0  0  0  0  0  0  0  0  0
    1.9751    0.9837    0.0079 C   0  0  0  0  0  0  0  0  0  0  0  0
    1.1967   -0.0183   -0.8409 C   0  0  2  0  0  0  0  0  0  0  0  0
   -0.1319    0.3422   -1.0152 N   0  0  0  0  0  0  0  0  0  0  0  0
   -1.0490    0.4314    0.0257 C   0  0  2  0  0  0  0  0  0  0  0  0
   -1.4445   -0.8722    0.6739 C   0  0  0  0  0  0  0  0  0  0  0  0
   -2.8108   -0.6163    1.0734 N   0  0  0  0  0  0  0  0  0  0  0  0
   -3.3504    0.2861    0.2962 O   0  0  0  0  0  0  0  0  0  0  0  0
   -2.4054    0.9106   -0.4631 C   0  0  0  0  0  0  0  0  0  0  0  0
    1.5706   -1.3636   -0.3649 C   0  0  0  0  0  0  0  0  0  0  0  0
    2.4878   -1.1904    0.7273 O   0  0  0  0  0  0  0  0  0  0  0  0
    2.6956    1.5895   -0.5900 H   0  0  0  0  0  0  0  0  0  0  0  0
    1.2938    1.6605    0.5618 H   0  0  0  0  0  0  0  0  0  0  0  0
    1.6904    0.0810   -1.8733 H   0  0  0  0  0  0  0  0  0  0  0  0
   -0.4855    0.4444   -1.9815 H   0  0  0  0  0  0  0  0  0  0  0  0
   -0.6582    1.1562    0.8079 H   0  0  0  0  0  0  0  0  0  0  0  0
   -0.7942   -1.1585    1.5146 H   0  0  0  0  0  0  0  0  0  0  0  0
   -1.4475   -1.6532   -0.1359 H   0  0  0  0  0  0  0  0  0  0  0  0
   -2.8355   -0.3400    2.0715 H   0  0  0  0  0  0  0  0  0  0  0  0
   -2.5177    0.5725   -1.5138 H   0  0  0  0  0  0  0  0  0  0  0  0
   -2.4609    2.0247   -0.4022 H   0  0  0  0  0  0  0  0  0  0  0  0
    2.1967   -1.9513   -1.1093 H   0  0  0  0  0  0  0  0  0  0  0  0
    0.7961   -2.0439   -0.0466 H   0  0  0  0  0  0  0  0  0  0  0  0
  1  2  2  0
  2  3  1  0
  3  4  1  0
  4  5  1  0
  5  6  1  0
  6  7  1  0
  7  8  1  0
  8  9  1  0
  9 10  1  0
  4 11  1  0
 11 12  1  0
 12  2  1  0
 10  6  1  0
  3 13  1  0
  3 14  1  0
  4 15  1  6
  5 16  1  0
  6 17  1  1
  7 18  1  0
  7 19  1  0
  8 20  1  0
 10 21  1  0
 10 22  1  0
 11 23  1  0
 11 24  1  0
M  END
$$$$

     RDKit          3D

 24 25  0  0  0  0  0  0  0  0999 V2000
    4.0824    1.5746    0.3613 O   0  0  0  0  0  0  0  0  0  0  0  0
    3.2120    0.7143    0.0530 C   0  0  0  0  0  0  0  0  0  0  0  0
    1.9070    0.4043    0.7281 C   0  0  0  0  0  0  0  0  0  0  0  0
    1.1173   -0.0453   -0.4768 C   0  0  2  0  0  0  0  0  0  0  0  0
   -0.1195   -0.6622   -0.2125 N   0  0  0  0  0  0  0  0  0  0  0  0
   -1.0938    0.1609    0.4327 C   0  0  2  0  0  0  0  0  0  0  0  0
   -2.2413   -0.6992    0.8864 C   0  0  0  0  0  0  0  0  0  0  0  0
   -3.3908    0.1436    0.6222 N   0  0  0  0  0  0  0  0  0  0  0  0
   -3.1246    0.6409   -0.6119 O   0  0  0  0  0  0  0  0  0  0  0  0
   -1.8071    1.0755   -0.5730 C   0  0  0  0  0  0  0  0  0  0  0  0
    2.1226   -0.9369   -1.1551 C   0  0  0  0  0  0  0  0  0  0  0  0
    3.3120   -0.1552   -1.0351 O   0  0  0  0  0  0  0  0  0  0  0  0
    2.1225   -0.4891    1.3600 H   0  0  0  0  0  0  0  0  0  0  0  0
    1.4872    1.2387    1.2829 H   0  0  0  0  0  0  0  0  0  0  0  0
    0.9138    0.8525   -1.1166 H   0  0  0  0  0  0  0  0  0  0  0  0
   -0.1121   -1.6474    0.0698 H   0  0  0  0  0  0  0  0  0  0  0  0
   -0.6916    0.7314    1.2692 H   0  0  0  0  0  0  0  0  0  0  0  0
   -2.3117   -1.6169    0.2585 H   0  0  0  0  0  0  0  0  0  0  0  0
   -2.1569   -0.9447    1.9656 H   0  0  0  0  0  0  0  0  0  0  0  0
   -4.2575   -0.4303    0.5314 H   0  0  0  0  0  0  0  0  0  0  0  0
   -1.3549    0.9500   -1.5793 H   0  0  0  0  0  0  0  0  0  0  0  0
   -1.7295    2.1253   -0.2881 H   0  0  0  0  0  0  0  0  0  0  0  0
    1.8670   -1.1370   -2.2143 H   0  0  0  0  0  0  0  0  0  0  0  0
    2.2476   -1.8477   -0.5586 H   0  0  0  0  0  0  0  0  0  0  0  0
  1  2  2  0
  2  3  1  0
  3  4  1  0
  4  5  1  0
  5  6  1  0
  6  7  1  0
  7  8  1  0
  8  9  1  0
  9 10  1  0
  4 11  1  0
 11 12  1  0
 12  2  1  0
 10  6  1  0
  3 13  1  0
  3 14  1  0
  4 15  1  6
  5 16  1  0
  6 17  1  1
  7 18  1  0
  7 19  1  0
  8 20  1  0
 10 21  1  0
 10 22  1  0
 11 23  1  0
 11 24  1  0
M  END
$$$$

     RDKit          3D

 24 25  0  0  0  0  0  0  0  0999 V2000
    4.2339    0.6699    1.2239 O   0  0  0  0  0  0  0  0  0  0  0  0
    3.1656    0.2586    0.7285 C   0  0  0  0  0  0  0  0  0  0  0  0
    1.7885    0.7320    0.8933 C   0  0  0  0  0  0  0  0  0  0  0  0
    1.2448    0.3966   -0.4870 C   0  0  2  0  0  0  0  0  0  0  0  0
   -0.1128    0.6428   -0.6462 N   0  0  0  0  0  0  0  0  0  0  0  0
   -1.0373   -0.0668    0.1534 C   0  0  2  0  0  0  0  0  0  0  0  0
   -2.1043   -0.6918   -0.7061 C   0  0  0  0  0  0  0  0  0  0  0  0
   -3.2486   -0.6838    0.1812 N   0  0  0  0  0  0  0  0  0  0  0  0
   -3.0358    0.1307    1.1889 O   0  0  0  0  0  0  0  0  0  0  0  0
   -1.9169    0.8686    0.9958 C   0  0  0  0  0  0  0  0  0  0  0  0
    1.8141   -0.9536   -0.7298 C   0  0  0  0  0  0  0  0  0  0  0  0
    3.1317   -0.8493   -0.1539 O   0  0  0  0  0  0  0  0  0  0  0  0
    1.3314    0.1270    1.6922 H   0  0  0  0  0  0  0  0  0  0  0  0
    1.7163    1.8230    1.0855 H   0  0  0  0  0  0  0  0  0  0  0  0
    1.8248    1.0941   -1.1726 H   0  0  0  0  0  0  0  0  0  0  0  0
   -0.3808    0.7197   -1.6523 H   0  0  0  0  0  0  0  0  0  0  0  0
   -0.5890   -0.8466    0.7936 H   0  0  0  0  0  0  0  0  0  0  0  0
   -2.3382    0.0571   -1.5141 H   0  0  0  0  0  0  0  0  0  0  0  0
   -1.8629   -1.6764   -1.1175 H   0  0  0  0  0  0  0  0  0  0  0  0
   -3.3412   -1.6772    0.5588 H   0  0  0  0  0  0  0  0  0  0  0  0
   -1.4240    1.1526    1.9448 H   0  0  0  0  0  0  0  0  0  0  0  0
   -2.1424    1.7529    0.3447 H   0  0  0  0  0  0  0  0  0  0  0  0
    1.3475   -1.7916   -0.1858 H   0  0  0  0  0  0  0  0  0  0  0  0
    1.9355   -1.1886   -1.8204 H   0  0  0  0  0  0  0  0  0  0  0  0
  1  2  2  0
  2  3  1  0
  3  4  1  0
  4  5  1  0
  5  6  1  0
  6  7  1  0
  7  8  1  0
  8  9  1  0
  9 10  1  0
  4 11  1  0
 11 12  1  0
 12  2  1  0
 10  6  1  0
  3 13  1  0
  3 14  1  0
  4 15  1  6
  5 16  1  0
  6 17  1  1
  7 18  1  0
  7 19  1  0
  8 20  1  0
 10 21  1  0
 10 22  1  0
 11 23  1  0
 11 24  1  0
M  END
$$$$

     RDKit          3D

 24 25  0  0  0  0  0  0  0  0999 V2000
   -2.9857    2.0957   -0.2485 O   0  0  0  0  0  0  0  0  0  0  0  0
   -2.6710    0.9004   -0.0475 C   0  0  0  0  0  0  0  0  0  0  0  0
   -1.5915    0.5018    0.9414 C   0  0  0  0  0  0  0  0  0  0  0  0
   -1.0293   -0.7013    0.2479 C   0  0  2  0  0  0  0  0  0  0  0  0
   -0.1210   -0.3743   -0.7459 N   0  0  0  0  0  0  0  0  0  0  0  0
    1.1240    0.1471   -0.5886 C   0  0  2  0  0  0  0  0  0  0  0  0
    2.1377   -0.7632    0.1285 C   0  0  0  0  0  0  0  0  0  0  0  0
    3.2674    0.1636    0.1472 N   0  0  0  0  0  0  0  0  0  0  0  0
    2.8143    1.4138    0.0261 O   0  0  0  0  0  0  0  0  0  0  0  0
    1.4039    1.3607    0.2020 C   0  0  0  0  0  0  0  0  0  0  0  0
   -2.2680   -1.3380   -0.3728 C   0  0  0  0  0  0  0  0  0  0  0  0
   -3.1361   -0.2750   -0.5847 O   0  0  0  0  0  0  0  0  0  0  0  0
   -0.9167    1.3215    1.1169 H   0  0  0  0  0  0  0  0  0  0  0  0
   -2.1648    0.2265    1.8550 H   0  0  0  0  0  0  0  0  0  0  0  0
   -0.6141   -1.4344    1.0226 H   0  0  0  0  0  0  0  0  0  0  0  0
   -0.4560   -0.4492   -1.7338 H   0  0  0  0  0  0  0  0  0  0  0  0
    1.6166    0.3093   -1.5988 H   0  0  0  0  0  0  0  0  0  0  0  0
    2.3393   -1.6738   -0.4160 H   0  0  0  0  0  0  0  0  0  0  0  0
    1.8224   -0.9013    1.1785 H   0  0  0  0  0  0  0  0  0  0  0  0
    3.8487   -0.0645   -0.6883 H   0  0  0  0  0  0  0  0  0  0  0  0
    1.3370    1.2093    1.3235 H   0  0  0  0  0  0  0  0  0  0  0  0
    0.9058    2.2641   -0.0894 H   0  0  0  0  0  0  0  0  0  0  0  0
   -2.6939   -2.1320    0.2878 H   0  0  0  0  0  0  0  0  0  0  0  0
   -1.9688   -1.8068   -1.3631 H   0  0  0  0  0  0  0  0  0  0  0  0
  1  2  2  0
  2  3  1  0
  3  4  1  0
  4  5  1  0
  5  6  1  0
  6  7  1  0
  7  8  1  0
  8  9  1  0
  9 10  1  0
  4 11  1  0
 11 12  1  0
 12  2  1  0
 10  6  1  0
  3 13  1  0
  3 14  1  0
  4 15  1  1
  5 16  1  0
  6 17  1  6
  7 18  1  0
  7 19  1  0
  8 20  1  0
 10 21  1  0
 10 22  1  0
 11 23  1  0
 11 24  1  0
M  END
$$$$

     RDKit          3D

 24 25  0  0  0  0  0  0  0  0999 V2000
    4.4934    0.8594    0.0719 O   0  0  0  0  0  0  0  0  0  0  0  0
    3.3536    0.3923   -0.1232 C   0  0  0  0  0  0  0  0  0  0  0  0
    2.2160    0.3235    0.8427 C   0  0  0  0  0  0  0  0  0  0  0  0
    1.0578    0.0617   -0.0725 C   0  0  2  0  0  0  0  0  0  0  0  0
   -0.0118   -0.6749    0.4935 N   0  0  0  0  0  0  0  0  0  0  0  0
   -1.2261   -0.3516   -0.1835 C   0  0  2  0  0  0  0  0  0  0  0  0
   -1.6409    1.0894   -0.0504 C   0  0  0  0  0  0  0  0  0  0  0  0
   -2.7192    1.0469    0.8983 N   0  0  0  0  0  0  0  0  0  0  0  0
   -2.9392   -0.2024    1.2770 O   0  0  0  0  0  0  0  0  0  0  0  0
   -2.4396   -1.0737    0.3368 C   0  0  0  0  0  0  0  0  0  0  0  0
    1.7131   -0.8192   -1.1421 C   0  0  0  0  0  0  0  0  0  0  0  0
    2.9357   -0.1654   -1.3202 O   0  0  0  0  0  0  0  0  0  0  0  0
    2.0904    1.3046    1.3470 H   0  0  0  0  0  0  0  0  0  0  0  0
    2.3675   -0.4644    1.5899 H   0  0  0  0  0  0  0  0  0  0  0  0
    0.7953    0.9937   -0.5701 H   0  0  0  0  0  0  0  0  0  0  0  0
   -0.0671   -0.6717    1.5251 H   0  0  0  0  0  0  0  0  0  0  0  0
   -1.1046   -0.6535   -1.2535 H   0  0  0  0  0  0  0  0  0  0  0  0
   -1.9802    1.4594   -1.0510 H   0  0  0  0  0  0  0  0  0  0  0  0
   -0.8496    1.7356    0.3846 H   0  0  0  0  0  0  0  0  0  0  0  0
   -3.5484    1.5969    0.6311 H   0  0  0  0  0  0  0  0  0  0  0  0
   -3.2047   -1.1478   -0.4794 H   0  0  0  0  0  0  0  0  0  0  0  0
   -2.2083   -2.0450    0.7898 H   0  0  0  0  0  0  0  0  0  0  0  0
    1.0592   -0.7907   -2.0247 H   0  0  0  0  0  0  0  0  0  0  0  0
    1.8576   -1.8032   -0.7043 H   0  0  0  0  0  0  0  0  0  0  0  0
  1  2  2  0
  2  3  1  0
  3  4  1  0
  4  5  1  0
  5  6  1  0
  6  7  1  0
  7  8  1  0
  8  9  1  0
  9 10  1  0
  4 11  1  0
 11 12  1  0
 12  2  1  0
 10  6  1  0
  3 13  1  0
  3 14  1  0
  4 15  1  6
  5 16  1  0
  6 17  1  6
  7 18  1  0
  7 19  1  0
  8 20  1  0
 10 21  1  0
 10 22  1  0
 11 23  1  0
 11 24  1  0
M  END
$$$$
