
     RDKit          3D

 27 26  0  0  0  0  0  0  0  0999 V2000
   -3.2781   -0.4042    1.1883 C   0  0  0  0  0  0  0  0  0  0  0  0
   -2.0848   -0.8315    0.6452 O   0  0  0  0  0  0  0  0  0  0  0  0
   -1.7458   -0.1958   -0.5575 C   0  0  1  0  0  0  0  0  0  0  0  0
   -2.9024    0.1180   -1.4254 C   0  0  0  0  0  0  0  0  0  0  0  0
   -0.8182    0.9849   -0.2645 C   0  0  0  0  0  0  0  0  0  0  0  0
    0.4214    0.8436   -0.9833 N   0  0  0  0  0  0  0  0  0  0  0  0
    1.7770    0.8163    0.0776 S   0  0  0  0  0  6  0  0  0  0  0  0
    2.8125    1.7687   -0.4284 O   0  0  0  0  0  0  0  0  0  0  0  0
    1.4259    1.0556    1.5052 O   0  0  0  0  0  0  0  0  0  0  0  0
    2.5090   -0.8266   -0.0697 C   0  0  0  0  0  0  0  0  0  0  0  0
    3.8453   -0.8950    0.6443 C   0  0  0  0  0  0  0  0  0  0  0  0
    4.3742    0.3751    0.8805 O   0  0  0  0  0  0  0  0  0  0  0  0
   -3.2100   -0.5834    2.2930 H   0  0  0  0  0  0  0  0  0  0  0  0
   -4.1307   -1.0201    0.8334 H   0  0  0  0  0  0  0  0  0  0  0  0
   -3.4538    0.6840    1.0828 H   0  0  0  0  0  0  0  0  0  0  0  0
   -1.1143   -0.9423   -1.1096 H   0  0  0  0  0  0  0  0  0  0  0  0
   -3.1162   -0.7071   -2.1454 H   0  0  0  0  0  0  0  0  0  0  0  0
   -2.6160    0.9923   -2.0550 H   0  0  0  0  0  0  0  0  0  0  0  0
   -3.8317    0.3511   -0.8902 H   0  0  0  0  0  0  0  0  0  0  0  0
   -1.3669    1.8644   -0.7600 H   0  0  0  0  0  0  0  0  0  0  0  0
   -0.7500    1.2337    0.7754 H   0  0  0  0  0  0  0  0  0  0  0  0
    0.4384    0.1803   -1.7397 H   0  0  0  0  0  0  0  0  0  0  0  0
    1.8262   -1.6195    0.2809 H   0  0  0  0  0  0  0  0  0  0  0  0
    2.7081   -1.0078   -1.1485 H   0  0  0  0  0  0  0  0  0  0  0  0
    4.5801   -1.4645    0.0390 H   0  0  0  0  0  0  0  0  0  0  0  0
    3.7210   -1.4688    1.5905 H   0  0  0  0  0  0  0  0  0  0  0  0
    3.9797    0.6988    1.7413 H   0  0  0  0  0  0  0  0  0  0  0  0
  1  2  1  0
  2  3  1  0
  3  4  1  0
  3  5  1  0
  5  6  1  0
  6  7  1  0
  7  8  2  0
  7  9  2  0
  7 10  1  0
 10 11  1  0
 11 12  1  0
  1 13  1  0
  1 14  1  0
  1 15  1  0
  3 16  1  6
  4 17  1  0
  4 18  1  0
  4 19  1  0
  5 20  1  0
  5 21  1  0
  6 22  1  0
 10 23  1  0
 10 24  1  0
 11 25  1  0
 11 26  1  0
 12 27  1  0
M  END
$$$$

     RDKit          3D

 27 26  0  0  0  0  0  0  0  0999 V2000
   -3.1073   -1.0330   -1.1653 C   0  0  0  0  0  0  0  0  0  0  0  0
   -2.4020   -1.0505    0.0136 O   0  0  0  0  0  0  0  0  0  0  0  0
   -2.1542    0.2025    0.5257 C   0  0  1  0  0  0  0  0  0  0  0  0
   -2.7195    0.4064    1.9057 C   0  0  0  0  0  0  0  0  0  0  0  0
   -0.6634    0.4756    0.5947 C   0  0  0  0  0  0  0  0  0  0  0  0
   -0.0631    0.4059   -0.7094 N   0  0  0  0  0  0  0  0  0  0  0  0
    1.6175    0.7243   -0.5542 S   0  0  0  0  0  6  0  0  0  0  0  0
    2.2429    0.6470   -1.9162 O   0  0  0  0  0  0  0  0  0  0  0  0
    1.8367    2.0504    0.0851 O   0  0  0  0  0  0  0  0  0  0  0  0
    2.3538   -0.5183    0.4834 C   0  0  0  0  0  0  0  0  0  0  0  0
    3.8383   -0.2638    0.6391 C   0  0  0  0  0  0  0  0  0  0  0  0
    4.4606   -0.2936   -0.5923 O   0  0  0  0  0  0  0  0  0  0  0  0
   -2.5622   -0.4735   -1.9638 H   0  0  0  0  0  0  0  0  0  0  0  0
   -4.1087   -0.5885   -1.0622 H   0  0  0  0  0  0  0  0  0  0  0  0
   -3.2241   -2.0741   -1.5111 H   0  0  0  0  0  0  0  0  0  0  0  0
   -2.6022    0.9459   -0.1663 H   0  0  0  0  0  0  0  0  0  0  0  0
   -2.2800    1.3602    2.3016 H   0  0  0  0  0  0  0  0  0  0  0  0
   -2.4065   -0.3891    2.5920 H   0  0  0  0  0  0  0  0  0  0  0  0
   -3.8195    0.5716    1.8942 H   0  0  0  0  0  0  0  0  0  0  0  0
   -0.4995    1.4711    1.0318 H   0  0  0  0  0  0  0  0  0  0  0  0
   -0.2400   -0.2913    1.2882 H   0  0  0  0  0  0  0  0  0  0  0  0
   -0.2279   -0.5523   -1.0840 H   0  0  0  0  0  0  0  0  0  0  0  0
    2.1984   -1.4927   -0.0074 H   0  0  0  0  0  0  0  0  0  0  0  0
    1.8704   -0.4980    1.4820 H   0  0  0  0  0  0  0  0  0  0  0  0
    4.2402   -1.0883    1.2700 H   0  0  0  0  0  0  0  0  0  0  0  0
    4.0335    0.7181    1.0924 H   0  0  0  0  0  0  0  0  0  0  0  0
    4.3878    0.6280   -0.9854 H   0  0  0  0  0  0  0  0  0  0  0  0
  1  2  1  0
  2  3  1  0
  3  4  1  0
  3  5  1  0
  5  6  1  0
  6  7  1  0
  7  8  2  0
  7  9  2  0
  7 10  1  0
 10 11  1  0
 11 12  1  0
  1 13  1  0
  1 14  1  0
  1 15  1  0
  3 16  1  6
  4 17  1  0
  4 18  1  0
  4 19  1  0
  5 20  1  0
  5 21  1  0
  6 22  1  0
 10 23  1  0
 10 24  1  0
 11 25  1  0
 11 26  1  0
 12 27  1  0
M  END
$$$$

     RDKit          3D

 27 26  0  0  0  0  0  0  0  0999 V2000
    3.8264    0.3540    0.6436 C   0  0  0  0  0  0  0  0  0  0  0  0
    2.8001    1.0359    0.0412 O   0  0  0  0  0  0  0  0  0  0  0  0
    1.8209    0.3113   -0.3464 C   0  0  1  0  0  0  0  0  0  0  0  0
    2.1003   -0.6672   -1.5421 C   0  0  0  0  0  0  0  0  0  0  0  0
    0.9885   -0.5341    0.5670 C   0  0  0  0  0  0  0  0  0  0  0  0
   -0.1529    0.1436    1.1997 N   0  0  0  0  0  0  0  0  0  0  0  0
   -1.5087   -0.3518    0.1025 S   0  0  0  0  0  6  0  0  0  0  0  0
   -2.0885   -1.5672    0.2972 O   0  0  0  0  0  0  0  0  0  0  0  0
   -0.9172   -0.2720   -1.3694 O   0  0  0  0  0  0  0  0  0  0  0  0
   -2.5630    1.1236    0.1386 C   0  0  0  0  0  0  0  0  0  0  0  0
   -4.0007    0.5222    0.2112 C   0  0  0  0  0  0  0  0  0  0  0  0
   -4.2962    0.0379   -1.0554 O   0  0  0  0  0  0  0  0  0  0  0  0
    4.2698    1.0613    1.3940 H   0  0  0  0  0  0  0  0  0  0  0  0
    4.7325    0.2296   -0.0578 H   0  0  0  0  0  0  0  0  0  0  0  0
    3.6330   -0.6149    1.0455 H   0  0  0  0  0  0  0  0  0  0  0  0
    1.0143    0.9940   -0.8042 H   0  0  0  0  0  0  0  0  0  0  0  0
    1.4891   -1.6203   -1.3896 H   0  0  0  0  0  0  0  0  0  0  0  0
    3.1485   -0.9182   -1.6308 H   0  0  0  0  0  0  0  0  0  0  0  0
    1.7124   -0.2904   -2.5338 H   0  0  0  0  0  0  0  0  0  0  0  0
    0.8869   -1.5136    0.3835 H   0  0  0  0  0  0  0  0  0  0  0  0
    1.6934   -0.5683    1.6486 H   0  0  0  0  0  0  0  0  0  0  0  0
   -0.4062   -0.3632    2.0676 H   0  0  0  0  0  0  0  0  0  0  0  0
   -2.5730    1.7555   -0.7556 H   0  0  0  0  0  0  0  0  0  0  0  0
   -2.3836    1.7525    1.0226 H   0  0  0  0  0  0  0  0  0  0  0  0
   -3.8847   -0.3883    0.8695 H   0  0  0  0  0  0  0  0  0  0  0  0
   -4.7156    1.2294    0.6343 H   0  0  0  0  0  0  0  0  0  0  0  0
   -4.6260   -0.8813   -1.0709 H   0  0  0  0  0  0  0  0  0  0  0  0
  1  2  1  0
  2  3  1  0
  3  4  1  0
  3  5  1  0
  5  6  1  0
  6  7  1  0
  7  8  2  0
  7  9  2  0
  7 10  1  0
 10 11  1  0
 11 12  1  0
  1 13  1  0
  1 14  1  0
  1 15  1  0
  3 16  1  6
  4 17  1  0
  4 18  1  0
  4 19  1  0
  5 20  1  0
  5 21  1  0
  6 22  1  0
 10 23  1  0
 10 24  1  0
 11 25  1  0
 11 26  1  0
 12 27  1  0
M  END
$$$$

     RDKit          3D

 27 26  0  0  0  0  0  0  0  0999 V2000
   -3.9342    1.0334   -0.7822 C   0  0  0  0  0  0  0  0  0  0  0  0
   -2.7944    0.3164   -1.1137 O   0  0  0  0  0  0  0  0  0  0  0  0
   -2.1406   -0.2110   -0.0129 C   0  0  1  0  0  0  0  0  0  0  0  0
   -2.0475   -1.7218   -0.2397 C   0  0  0  0  0  0  0  0  0  0  0  0
   -0.7140    0.3026   -0.0366 C   0  0  0  0  0  0  0  0  0  0  0  0
    0.0453   -0.2100    1.0964 N   0  0  0  0  0  0  0  0  0  0  0  0
    1.6523    0.4335    0.9750 S   0  0  0  0  0  6  0  0  0  0  0  0
    2.4989    0.0087    2.1208 O   0  0  0  0  0  0  0  0  0  0  0  0
    1.6123    1.9333    0.9583 O   0  0  0  0  0  0  0  0  0  0  0  0
    2.4138   -0.1232   -0.5364 C   0  0  0  0  0  0  0  0  0  0  0  0
    3.8027    0.4716   -0.5762 C   0  0  0  0  0  0  0  0  0  0  0  0
    4.4866    0.0069    0.5461 O   0  0  0  0  0  0  0  0  0  0  0  0
   -3.7445    1.8880   -0.1274 H   0  0  0  0  0  0  0  0  0  0  0  0
   -4.7208    0.3961   -0.3131 H   0  0  0  0  0  0  0  0  0  0  0  0
   -4.3671    1.4069   -1.7307 H   0  0  0  0  0  0  0  0  0  0  0  0
   -2.6247    0.0198    0.9468 H   0  0  0  0  0  0  0  0  0  0  0  0
   -2.9507   -2.1028   -0.7586 H   0  0  0  0  0  0  0  0  0  0  0  0
   -1.9550   -2.2389    0.7332 H   0  0  0  0  0  0  0  0  0  0  0  0
   -1.1603   -1.9566   -0.8801 H   0  0  0  0  0  0  0  0  0  0  0  0
   -0.7698    1.3989    0.0017 H   0  0  0  0  0  0  0  0  0  0  0  0
   -0.2281   -0.0770   -0.9644 H   0  0  0  0  0  0  0  0  0  0  0  0
    0.0786   -1.2390    1.1022 H   0  0  0  0  0  0  0  0  0  0  0  0
    1.8234    0.2855   -1.3852 H   0  0  0  0  0  0  0  0  0  0  0  0
    2.5095   -1.2144   -0.5773 H   0  0  0  0  0  0  0  0  0  0  0  0
    4.3362    0.2070   -1.5085 H   0  0  0  0  0  0  0  0  0  0  0  0
    3.6920    1.5755   -0.4972 H   0  0  0  0  0  0  0  0  0  0  0  0
    5.2001   -0.5895    0.2615 H   0  0  0  0  0  0  0  0  0  0  0  0
  1  2  1  0
  2  3  1  0
  3  4  1  0
  3  5  1  0
  5  6  1  0
  6  7  1  0
  7  8  2  0
  7  9  2  0
  7 10  1  0
 10 11  1  0
 11 12  1  0
  1 13  1  0
  1 14  1  0
  1 15  1  0
  3 16  1  1
  4 17  1  0
  4 18  1  0
  4 19  1  0
  5 20  1  0
  5 21  1  0
  6 22  1  0
 10 23  1  0
 10 24  1  0
 11 25  1  0
 11 26  1  0
 12 27  1  0
M  END
$$$$

     RDKit          3D

 27 26  0  0  0  0  0  0  0  0999 V2000
   -3.8918   -1.1200   -0.9703 C   0  0  0  0  0  0  0  0  0  0  0  0
   -2.9772   -0.7193   -0.0065 O   0  0  0  0  0  0  0  0  0  0  0  0
   -2.0805    0.2164   -0.4626 C   0  0  1  0  0  0  0  0  0  0  0  0
   -2.1702    1.4787    0.3406 C   0  0  0  0  0  0  0  0  0  0  0  0
   -0.6623   -0.2784   -0.4433 C   0  0  0  0  0  0  0  0  0  0  0  0
    0.2399    0.7240   -0.9250 N   0  0  0  0  0  0  0  0  0  0  0  0
    1.8647    0.1470   -0.8991 S   0  0  0  0  0  6  0  0  0  0  0  0
    1.9996   -1.0861   -1.7186 O   0  0  0  0  0  0  0  0  0  0  0  0
    2.7953    1.1966   -1.3998 O   0  0  0  0  0  0  0  0  0  0  0  0
    2.3024   -0.2283    0.7909 C   0  0  0  0  0  0  0  0  0  0  0  0
    3.7395   -0.7432    0.8479 C   0  0  0  0  0  0  0  0  0  0  0  0
    4.5771    0.2587    0.3448 O   0  0  0  0  0  0  0  0  0  0  0  0
   -4.5009   -0.2641   -1.3473 H   0  0  0  0  0  0  0  0  0  0  0  0
   -4.5029   -1.9321   -0.5749 H   0  0  0  0  0  0  0  0  0  0  0  0
   -3.3183   -1.4824   -1.8623 H   0  0  0  0  0  0  0  0  0  0  0  0
   -2.3359    0.4165   -1.5368 H   0  0  0  0  0  0  0  0  0  0  0  0
   -1.2789    1.5678    0.9939 H   0  0  0  0  0  0  0  0  0  0  0  0
   -2.2331    2.3441   -0.3687 H   0  0  0  0  0  0  0  0  0  0  0  0
   -3.1125    1.4506    0.9273 H   0  0  0  0  0  0  0  0  0  0  0  0
   -0.5390   -1.1970   -1.0463 H   0  0  0  0  0  0  0  0  0  0  0  0
   -0.3768   -0.5167    0.6006 H   0  0  0  0  0  0  0  0  0  0  0  0
    0.1441    1.6362   -0.4668 H   0  0  0  0  0  0  0  0  0  0  0  0
    2.2211    0.7017    1.3622 H   0  0  0  0  0  0  0  0  0  0  0  0
    1.6155   -1.0149    1.1518 H   0  0  0  0  0  0  0  0  0  0  0  0
    3.8005   -1.6257    0.2034 H   0  0  0  0  0  0  0  0  0  0  0  0
    4.0287   -0.9318    1.8873 H   0  0  0  0  0  0  0  0  0  0  0  0
    4.6520    1.0015    1.0175 H   0  0  0  0  0  0  0  0  0  0  0  0
  1  2  1  0
  2  3  1  0
  3  4  1  0
  3  5  1  0
  5  6  1  0
  6  7  1  0
  7  8  2  0
  7  9  2  0
  7 10  1  0
 10 11  1  0
 11 12  1  0
  1 13  1  0
  1 14  1  0
  1 15  1  0
  3 16  1  6
  4 17  1  0
  4 18  1  0
  4 19  1  0
  5 20  1  0
  5 21  1  0
  6 22  1  0
 10 23  1  0
 10 24  1  0
 11 25  1  0
 11 26  1  0
 12 27  1  0
M  END
$$$$

     RDKit          3D

 27 26  0  0  0  0  0  0  0  0999 V2000
   -2.8119    0.3634   -1.9534 C   0  0  0  0  0  0  0  0  0  0  0  0
   -2.0431   -0.4939   -1.1781 O   0  0  0  0  0  0  0  0  0  0  0  0
   -1.9423   -0.1033    0.1327 C   0  0  1  0  0  0  0  0  0  0  0  0
   -2.5124   -1.1115    1.1097 C   0  0  0  0  0  0  0  0  0  0  0  0
   -0.5297    0.1658    0.5849 C   0  0  0  0  0  0  0  0  0  0  0  0
    0.1114    1.2161   -0.1776 N   0  0  0  0  0  0  0  0  0  0  0  0
    1.7163    1.3575    0.5076 S   0  0  0  0  0  6  0  0  0  0  0  0
    1.6110    1.6281    1.9821 O   0  0  0  0  0  0  0  0  0  0  0  0
    2.4676    2.4365   -0.2070 O   0  0  0  0  0  0  0  0  0  0  0  0
    2.6072   -0.1642    0.3117 C   0  0  0  0  0  0  0  0  0  0  0  0
    2.7062   -0.4597   -1.1761 C   0  0  0  0  0  0  0  0  0  0  0  0
    3.3970   -1.6469   -1.4134 O   0  0  0  0  0  0  0  0  0  0  0  0
   -2.3924    1.3931   -1.9689 H   0  0  0  0  0  0  0  0  0  0  0  0
   -3.8831    0.3309   -1.7222 H   0  0  0  0  0  0  0  0  0  0  0  0
   -2.7143   -0.0042   -3.0111 H   0  0  0  0  0  0  0  0  0  0  0  0
   -2.5201    0.8359    0.2593 H   0  0  0  0  0  0  0  0  0  0  0  0
   -1.8430   -1.9927    1.1400 H   0  0  0  0  0  0  0  0  0  0  0  0
   -3.5661   -1.3684    0.8939 H   0  0  0  0  0  0  0  0  0  0  0  0
   -2.4429   -0.6191    2.1220 H   0  0  0  0  0  0  0  0  0  0  0  0
   -0.5823    0.5143    1.6370 H   0  0  0  0  0  0  0  0  0  0  0  0
    0.0826   -0.7572    0.4931 H   0  0  0  0  0  0  0  0  0  0  0  0
    0.1641    1.0099   -1.1853 H   0  0  0  0  0  0  0  0  0  0  0  0
    2.1545   -1.0021    0.8441 H   0  0  0  0  0  0  0  0  0  0  0  0
    3.6432    0.0269    0.6588 H   0  0  0  0  0  0  0  0  0  0  0  0
    3.2308    0.4010   -1.6520 H   0  0  0  0  0  0  0  0  0  0  0  0
    1.6650   -0.5156   -1.5790 H   0  0  0  0  0  0  0  0  0  0  0  0
    4.2268   -1.4406   -1.9478 H   0  0  0  0  0  0  0  0  0  0  0  0
  1  2  1  0
  2  3  1  0
  3  4  1  0
  3  5  1  0
  5  6  1  0
  6  7  1  0
  7  8  2  0
  7  9  2  0
  7 10  1  0
 10 11  1  0
 11 12  1  0
  1 13  1  0
  1 14  1  0
  1 15  1  0
  3 16  1  6
  4 17  1  0
  4 18  1  0
  4 19  1  0
  5 20  1  0
  5 21  1  0
  6 22  1  0
 10 23  1  0
 10 24  1  0
 11 25  1  0
 11 26  1  0
 12 27  1  0
M  END
$$$$

     RDKit          3D

 27 26  0  0  0  0  0  0  0  0999 V2000
   -2.4897    2.3050    0.7242 C   0  0  0  0  0  0  0  0  0  0  0  0
   -1.8708    1.5978   -0.3012 O   0  0  0  0  0  0  0  0  0  0  0  0
   -1.9503    0.2294   -0.1050 C   0  0  1  0  0  0  0  0  0  0  0  0
   -2.7140   -0.4858   -1.1866 C   0  0  0  0  0  0  0  0  0  0  0  0
   -0.5484   -0.3613    0.0759 C   0  0  0  0  0  0  0  0  0  0  0  0
    0.2763   -0.1358   -1.0504 N   0  0  0  0  0  0  0  0  0  0  0  0
    1.8170   -0.7572   -0.9403 S   0  0  0  0  0  6  0  0  0  0  0  0
    2.4838   -0.5661   -2.3085 O   0  0  0  0  0  0  0  0  0  0  0  0
    1.7121   -2.2785   -0.8028 O   0  0  0  0  0  0  0  0  0  0  0  0
    2.9212   -0.2137    0.2717 C   0  0  0  0  0  0  0  0  0  0  0  0
    2.5427   -0.4094    1.7085 C   0  0  0  0  0  0  0  0  0  0  0  0
    2.3032   -1.7409    2.0017 O   0  0  0  0  0  0  0  0  0  0  0  0
   -3.5800    2.0521    0.8140 H   0  0  0  0  0  0  0  0  0  0  0  0
   -1.9300    2.1206    1.6490 H   0  0  0  0  0  0  0  0  0  0  0  0
   -2.4451    3.3829    0.5018 H   0  0  0  0  0  0  0  0  0  0  0  0
   -2.5019    0.0644    0.8440 H   0  0  0  0  0  0  0  0  0  0  0  0
   -3.7948   -0.3633   -0.9535 H   0  0  0  0  0  0  0  0  0  0  0  0
   -2.4824   -0.1261   -2.1912 H   0  0  0  0  0  0  0  0  0  0  0  0
   -2.4982   -1.5811   -1.0668 H   0  0  0  0  0  0  0  0  0  0  0  0
   -0.7120   -1.4593    0.2873 H   0  0  0  0  0  0  0  0  0  0  0  0
   -0.1975    0.0634    1.0274 H   0  0  0  0  0  0  0  0  0  0  0  0
    0.1334    0.7698   -1.5241 H   0  0  0  0  0  0  0  0  0  0  0  0
    3.3000    0.8326    0.1036 H   0  0  0  0  0  0  0  0  0  0  0  0
    3.8734   -0.8302    0.1439 H   0  0  0  0  0  0  0  0  0  0  0  0
    3.4571   -0.1428    2.3411 H   0  0  0  0  0  0  0  0  0  0  0  0
    1.7493    0.2415    2.0381 H   0  0  0  0  0  0  0  0  0  0  0  0
    3.1454   -2.2082    2.1528 H   0  0  0  0  0  0  0  0  0  0  0  0
  1  2  1  0
  2  3  1  0
  3  4  1  0
  3  5  1  0
  5  6  1  0
  6  7  1  0
  7  8  2  0
  7  9  2  0
  7 10  1  0
 10 11  1  0
 11 12  1  0
  1 13  1  0
  1 14  1  0
  1 15  1  0
  3 16  1  1
  4 17  1  0
  4 18  1  0
  4 19  1  0
  5 20  1  0
  5 21  1  0
  6 22  1  0
 10 23  1  0
 10 24  1  0
 11 25  1  0
 11 26  1  0
 12 27  1  0
M  END
$$$$

     RDKit          3D

 27 26  0  0  0  0  0  0  0  0999 V2000
   -3.8376    0.2776   -1.4722 C   0  0  0  0  0  0  0  0  0  0  0  0
   -2.8427   -0.4620   -0.7905 O   0  0  0  0  0  0  0  0  0  0  0  0
   -2.1312    0.3294    0.0750 C   0  0  1  0  0  0  0  0  0  0  0  0
   -2.3427   -0.0724    1.5361 C   0  0  0  0  0  0  0  0  0  0  0  0
   -0.6687    0.4287   -0.2576 C   0  0  0  0  0  0  0  0  0  0  0  0
    0.0147   -0.8261   -0.2484 N   0  0  0  0  0  0  0  0  0  0  0  0
    1.6663   -0.5247   -0.6478 S   0  0  0  0  0  6  0  0  0  0  0  0
    2.4086   -1.8131   -0.6959 O   0  0  0  0  0  0  0  0  0  0  0  0
    1.7123    0.1867   -1.9839 O   0  0  0  0  0  0  0  0  0  0  0  0
    2.4547    0.5335    0.5354 C   0  0  0  0  0  0  0  0  0  0  0  0
    3.8922    0.7171    0.0691 C   0  0  0  0  0  0  0  0  0  0  0  0
    4.6205    1.5328    0.9192 O   0  0  0  0  0  0  0  0  0  0  0  0
   -3.3698    1.0814   -2.0475 H   0  0  0  0  0  0  0  0  0  0  0  0
   -4.4253   -0.3633   -2.1331 H   0  0  0  0  0  0  0  0  0  0  0  0
   -4.5209    0.7521   -0.7383 H   0  0  0  0  0  0  0  0  0  0  0  0
   -2.5441    1.3703    0.0025 H   0  0  0  0  0  0  0  0  0  0  0  0
   -1.6065    0.4603    2.1617 H   0  0  0  0  0  0  0  0  0  0  0  0
   -2.3075   -1.1746    1.6486 H   0  0  0  0  0  0  0  0  0  0  0  0
   -3.3639    0.2641    1.8717 H   0  0  0  0  0  0  0  0  0  0  0  0
   -0.1967    1.0793    0.5117 H   0  0  0  0  0  0  0  0  0  0  0  0
   -0.5792    0.8752   -1.2608 H   0  0  0  0  0  0  0  0  0  0  0  0
   -0.0819   -1.3707    0.6136 H   0  0  0  0  0  0  0  0  0  0  0  0
    1.9693    1.5190    0.6174 H   0  0  0  0  0  0  0  0  0  0  0  0
    2.5182    0.0423    1.5329 H   0  0  0  0  0  0  0  0  0  0  0  0
    4.3536   -0.2671   -0.1086 H   0  0  0  0  0  0  0  0  0  0  0  0
    3.8090    1.2056   -0.9436 H   0  0  0  0  0  0  0  0  0  0  0  0
    5.3996    0.9904    1.2330 H   0  0  0  0  0  0  0  0  0  0  0  0
  1  2  1  0
  2  3  1  0
  3  4  1  0
  3  5  1  0
  5  6  1  0
  6  7  1  0
  7  8  2  0
  7  9  2  0
  7 10  1  0
 10 11  1  0
 11 12  1  0
  1 13  1  0
  1 14  1  0
  1 15  1  0
  3 16  1  1
  4 17  1  0
  4 18  1  0
  4 19  1  0
  5 20  1  0
  5 21  1  0
  6 22  1  0
 10 23  1  0
 10 24  1  0
 11 25  1  0
 11 26  1  0
 12 27  1  0
M  END
$$$$
