
     RDKit          3D

 30 30  0  0  0  0  0  0  0  0999 V2000
   -2.6438    1.8252    1.0940 N   0  0  0  0  0  0  0  0  0  0  0  0
   -1.9709    0.5447    0.8554 C   0  0  1  0  0  0  0  0  0  0  0  0
   -2.7444   -0.1407   -0.2216 C   0  0  0  0  0  0  0  0  0  0  0  0
   -1.8860   -1.0696   -1.0559 C   0  0  0  0  0  0  0  0  0  0  0  0
   -0.7771   -0.2026   -1.5947 C   0  0  0  0  0  0  0  0  0  0  0  0
    0.0875    0.1508   -0.5111 N   0  0  0  0  0  0  0  0  0  0  0  0
    1.1458   -0.7736   -0.2952 C   0  0  0  0  0  0  0  0  0  0  0  0
    2.2177   -0.3873    0.6547 C   0  0  1  0  0  0  0  0  0  0  0  0
    3.1084   -1.4971    0.6901 O   0  0  0  0  0  0  0  0  0  0  0  0
    3.0613    0.7558    0.0773 C   0  0  0  0  0  0  0  0  0  0  0  0
    4.1869    1.0342    0.8113 O   0  0  0  0  0  0  0  0  0  0  0  0
   -0.5233    0.7042    0.6390 C   0  0  0  0  0  0  0  0  0  0  0  0
   -3.6824    1.6435    0.9607 H   0  0  0  0  0  0  0  0  0  0  0  0
   -2.3470    2.4530    0.3170 H   0  0  0  0  0  0  0  0  0  0  0  0
   -2.1823   -0.0411    1.8034 H   0  0  0  0  0  0  0  0  0  0  0  0
   -3.6250   -0.6924    0.1505 H   0  0  0  0  0  0  0  0  0  0  0  0
   -3.1411    0.6129   -0.9625 H   0  0  0  0  0  0  0  0  0  0  0  0
   -2.5480   -1.4939   -1.8300 H   0  0  0  0  0  0  0  0  0  0  0  0
   -1.5255   -1.8600   -0.3671 H   0  0  0  0  0  0  0  0  0  0  0  0
   -1.2193    0.7346   -1.9957 H   0  0  0  0  0  0  0  0  0  0  0  0
   -0.1573   -0.7349   -2.3475 H   0  0  0  0  0  0  0  0  0  0  0  0
    0.7015   -1.7582    0.0374 H   0  0  0  0  0  0  0  0  0  0  0  0
    1.6129   -0.9858   -1.2799 H   0  0  0  0  0  0  0  0  0  0  0  0
    1.9727   -0.1510    1.6694 H   0  0  0  0  0  0  0  0  0  0  0  0
    3.1798   -1.8009   -0.2647 H   0  0  0  0  0  0  0  0  0  0  0  0
    2.4432    1.7002    0.0873 H   0  0  0  0  0  0  0  0  0  0  0  0
    3.3173    0.5532   -0.9862 H   0  0  0  0  0  0  0  0  0  0  0  0
    4.2290    0.5795    1.6672 H   0  0  0  0  0  0  0  0  0  0  0  0
   -0.3004    1.8136    0.6254 H   0  0  0  0  0  0  0  0  0  0  0  0
    0.0096    0.3544    1.5721 H   0  0  0  0  0  0  0  0  0  0  0  0
  1  2  1  0
  2  3  1  0
  3  4  1  0
  4  5  1  0
  5  6  1  0
  6  7  1  0
  7  8  1  0
  8  9  1  0
  8 10  1  0
 10 11  1  0
  6 12  1  0
 12  2  1  0
  1 13  1  0
  1 14  1  0
  2 15  1  1
  3 16  1  0
  3 17  1  0
  4 18  1  0
  4 19  1  0
  5 20  1  0
  5 21  1  0
  7 22  1  0
  7 23  1  0
  8 24  1  1
  9 25  1  0
 10 26  1  0
 10 27  1  0
 11 28  1  0
 12 29  1  0
 12 30  1  0
M  END
$$$$

     RDKit          3D

 30 30  0  0  0  0  0  0  0  0999 V2000
   -2.4821    0.7745    2.2921 N   0  0  0  0  0  0  0  0  0  0  0  0
   -2.0272   -0.1082    1.2694 C   0  0  1  0  0  0  0  0  0  0  0  0
   -2.8596    0.0165   -0.0112 C   0  0  0  0  0  0  0  0  0  0  0  0
   -2.2694   -1.0674   -0.9143 C   0  0  0  0  0  0  0  0  0  0  0  0
   -0.9276   -0.5900   -1.3364 C   0  0  0  0  0  0  0  0  0  0  0  0
   -0.2141    0.2167   -0.3761 N   0  0  0  0  0  0  0  0  0  0  0  0
    1.1836   -0.0624   -0.5963 C   0  0  0  0  0  0  0  0  0  0  0  0
    2.1530    0.6736    0.2455 C   0  0  1  0  0  0  0  0  0  0  0  0
    1.9692    0.3939    1.5836 O   0  0  0  0  0  0  0  0  0  0  0  0
    3.5459    0.1392   -0.1086 C   0  0  0  0  0  0  0  0  0  0  0  0
    4.5262    0.7418    0.6414 O   0  0  0  0  0  0  0  0  0  0  0  0
   -0.5577    0.0226    0.9741 C   0  0  0  0  0  0  0  0  0  0  0  0
   -3.4204    0.5701    2.6387 H   0  0  0  0  0  0  0  0  0  0  0  0
   -2.2741    1.7778    2.1080 H   0  0  0  0  0  0  0  0  0  0  0  0
   -2.2008   -1.1532    1.6241 H   0  0  0  0  0  0  0  0  0  0  0  0
   -3.9125   -0.1393    0.2051 H   0  0  0  0  0  0  0  0  0  0  0  0
   -2.6399    1.0083   -0.4934 H   0  0  0  0  0  0  0  0  0  0  0  0
   -2.8952   -1.2692   -1.7901 H   0  0  0  0  0  0  0  0  0  0  0  0
   -2.1212   -1.9861   -0.2794 H   0  0  0  0  0  0  0  0  0  0  0  0
   -1.0628    0.0395   -2.2511 H   0  0  0  0  0  0  0  0  0  0  0  0
   -0.3220   -1.4750   -1.6725 H   0  0  0  0  0  0  0  0  0  0  0  0
    1.3607    0.1731   -1.6922 H   0  0  0  0  0  0  0  0  0  0  0  0
    1.3298   -1.1811   -0.5474 H   0  0  0  0  0  0  0  0  0  0  0  0
    2.1569    1.7661    0.0537 H   0  0  0  0  0  0  0  0  0  0  0  0
    2.4591   -0.4491    1.8248 H   0  0  0  0  0  0  0  0  0  0  0  0
    3.6909    0.2537   -1.2105 H   0  0  0  0  0  0  0  0  0  0  0  0
    3.5395   -0.9411    0.1263 H   0  0  0  0  0  0  0  0  0  0  0  0
    4.4930    1.7162    0.6070 H   0  0  0  0  0  0  0  0  0  0  0  0
    0.0166   -0.8111    1.4175 H   0  0  0  0  0  0  0  0  0  0  0  0
   -0.2381    0.9497    1.5384 H   0  0  0  0  0  0  0  0  0  0  0  0
  1  2  1  0
  2  3  1  0
  3  4  1  0
  4  5  1  0
  5  6  1  0
  6  7  1  0
  7  8  1  0
  8  9  1  0
  8 10  1  0
 10 11  1  0
  6 12  1  0
 12  2  1  0
  1 13  1  0
  1 14  1  0
  2 15  1  1
  3 16  1  0
  3 17  1  0
  4 18  1  0
  4 19  1  0
  5 20  1  0
  5 21  1  0
  7 22  1  0
  7 23  1  0
  8 24  1  1
  9 25  1  0
 10 26  1  0
 10 27  1  0
 11 28  1  0
 12 29  1  0
 12 30  1  0
M  END
$$$$

     RDKit          3D

 30 30  0  0  0  0  0  0  0  0999 V2000
   -2.5186    2.0793    0.0284 N   0  0  0  0  0  0  0  0  0  0  0  0
   -1.5753    1.0879    0.5961 C   0  0  1  0  0  0  0  0  0  0  0  0
   -2.3559   -0.1939    0.8395 C   0  0  0  0  0  0  0  0  0  0  0  0
   -2.2165   -1.0899   -0.4008 C   0  0  0  0  0  0  0  0  0  0  0  0
   -0.7857   -1.5159   -0.5208 C   0  0  0  0  0  0  0  0  0  0  0  0
    0.1359   -0.4125   -0.4187 N   0  0  0  0  0  0  0  0  0  0  0  0
    1.0515   -0.5470    0.6717 C   0  0  0  0  0  0  0  0  0  0  0  0
    2.1887    0.4300    0.5188 C   0  0  1  0  0  0  0  0  0  0  0  0
    3.0912    0.2902    1.6004 O   0  0  0  0  0  0  0  0  0  0  0  0
    2.9626    0.0686   -0.7685 C   0  0  0  0  0  0  0  0  0  0  0  0
    3.4356   -1.2614   -0.6566 O   0  0  0  0  0  0  0  0  0  0  0  0
   -0.5446    0.8480   -0.4672 C   0  0  0  0  0  0  0  0  0  0  0  0
   -2.8683    1.5929   -0.8519 H   0  0  0  0  0  0  0  0  0  0  0  0
   -3.3182    2.2153    0.6914 H   0  0  0  0  0  0  0  0  0  0  0  0
   -1.1797    1.4975    1.5301 H   0  0  0  0  0  0  0  0  0  0  0  0
   -3.4091    0.0556    0.9608 H   0  0  0  0  0  0  0  0  0  0  0  0
   -1.8979   -0.7221    1.6747 H   0  0  0  0  0  0  0  0  0  0  0  0
   -2.8894   -1.9586   -0.2281 H   0  0  0  0  0  0  0  0  0  0  0  0
   -2.6048   -0.5662   -1.2823 H   0  0  0  0  0  0  0  0  0  0  0  0
   -0.5979   -1.9427   -1.5547 H   0  0  0  0  0  0  0  0  0  0  0  0
   -0.5702   -2.3251    0.2011 H   0  0  0  0  0  0  0  0  0  0  0  0
    0.6053   -0.3635    1.6649 H   0  0  0  0  0  0  0  0  0  0  0  0
    1.4596   -1.5707    0.6661 H   0  0  0  0  0  0  0  0  0  0  0  0
    1.8729    1.4615    0.4560 H   0  0  0  0  0  0  0  0  0  0  0  0
    3.8930    0.8303    1.3204 H   0  0  0  0  0  0  0  0  0  0  0  0
    3.8229    0.7586   -0.8146 H   0  0  0  0  0  0  0  0  0  0  0  0
    2.3072    0.1895   -1.6315 H   0  0  0  0  0  0  0  0  0  0  0  0
    3.4538   -1.5109    0.3064 H   0  0  0  0  0  0  0  0  0  0  0  0
   -1.0961    0.8690   -1.4532 H   0  0  0  0  0  0  0  0  0  0  0  0
    0.1481    1.7063   -0.5412 H   0  0  0  0  0  0  0  0  0  0  0  0
  1  2  1  0
  2  3  1  0
  3  4  1  0
  4  5  1  0
  5  6  1  0
  6  7  1  0
  7  8  1  0
  8  9  1  0
  8 10  1  0
 10 11  1  0
  6 12  1  0
 12  2  1  0
  1 13  1  0
  1 14  1  0
  2 15  1  1
  3 16  1  0
  3 17  1  0
  4 18  1  0
  4 19  1  0
  5 20  1  0
  5 21  1  0
  7 22  1  0
  7 23  1  0
  8 24  1  6
  9 25  1  0
 10 26  1  0
 10 27  1  0
 11 28  1  0
 12 29  1  0
 12 30  1  0
M  END
$$$$

     RDKit          3D

 30 30  0  0  0  0  0  0  0  0999 V2000
   -3.2456   -0.6319    1.5246 N   0  0  0  0  0  0  0  0  0  0  0  0
   -2.3727   -0.4001    0.3930 C   0  0  1  0  0  0  0  0  0  0  0  0
   -2.3702    1.0917    0.1336 C   0  0  0  0  0  0  0  0  0  0  0  0
   -1.0401    1.5263   -0.4627 C   0  0  0  0  0  0  0  0  0  0  0  0
   -0.5191    0.3806   -1.3010 C   0  0  0  0  0  0  0  0  0  0  0  0
   -0.1568   -0.6831   -0.4371 N   0  0  0  0  0  0  0  0  0  0  0  0
    1.2145   -0.9951   -0.3371 C   0  0  0  0  0  0  0  0  0  0  0  0
    2.0845    0.0120    0.3453 C   0  0  1  0  0  0  0  0  0  0  0  0
    1.6768    0.1915    1.6490 O   0  0  0  0  0  0  0  0  0  0  0  0
    3.5173   -0.4784    0.3451 C   0  0  0  0  0  0  0  0  0  0  0  0
    3.9809   -0.6648   -0.9703 O   0  0  0  0  0  0  0  0  0  0  0  0
   -0.9438   -0.8423    0.7311 C   0  0  0  0  0  0  0  0  0  0  0  0
   -3.9236    0.1756    1.6325 H   0  0  0  0  0  0  0  0  0  0  0  0
   -3.7945   -1.5264    1.4127 H   0  0  0  0  0  0  0  0  0  0  0  0
   -2.7540   -0.9381   -0.4800 H   0  0  0  0  0  0  0  0  0  0  0  0
   -3.1473    1.3542   -0.6216 H   0  0  0  0  0  0  0  0  0  0  0  0
   -2.5804    1.6177    1.0860 H   0  0  0  0  0  0  0  0  0  0  0  0
   -0.3245    1.7040    0.3655 H   0  0  0  0  0  0  0  0  0  0  0  0
   -1.1536    2.4566   -1.0566 H   0  0  0  0  0  0  0  0  0  0  0  0
    0.3236    0.6576   -1.9336 H   0  0  0  0  0  0  0  0  0  0  0  0
   -1.3471    0.0097   -1.9746 H   0  0  0  0  0  0  0  0  0  0  0  0
    1.3381   -1.9692    0.1628 H   0  0  0  0  0  0  0  0  0  0  0  0
    1.6165   -1.1083   -1.3768 H   0  0  0  0  0  0  0  0  0  0  0  0
    2.0416    1.0127   -0.1380 H   0  0  0  0  0  0  0  0  0  0  0  0
    1.5756    1.1207    1.9131 H   0  0  0  0  0  0  0  0  0  0  0  0
    3.5563   -1.4899    0.8276 H   0  0  0  0  0  0  0  0  0  0  0  0
    4.2058    0.1918    0.8796 H   0  0  0  0  0  0  0  0  0  0  0  0
    4.1031    0.2422   -1.3856 H   0  0  0  0  0  0  0  0  0  0  0  0
   -0.9467   -1.8852    1.0559 H   0  0  0  0  0  0  0  0  0  0  0  0
   -0.6147   -0.1321    1.5335 H   0  0  0  0  0  0  0  0  0  0  0  0
  1  2  1  0
  2  3  1  0
  3  4  1  0
  4  5  1  0
  5  6  1  0
  6  7  1  0
  7  8  1  0
  8  9  1  0
  8 10  1  0
 10 11  1  0
  6 12  1  0
 12  2  1  0
  1 13  1  0
  1 14  1  0
  2 15  1  6
  3 16  1  0
  3 17  1  0
  4 18  1  0
  4 19  1  0
  5 20  1  0
  5 21  1  0
  7 22  1  0
  7 23  1  0
  8 24  1  6
  9 25  1  0
 10 26  1  0
 10 27  1  0
 11 28  1  0
 12 29  1  0
 12 30  1  0
M  END
$$$$

     RDKit          3D

 30 30  0  0  0  0  0  0  0  0999 V2000
   -2.6806    0.3073    1.9900 N   0  0  0  0  0  0  0  0  0  0  0  0
   -2.0841   -0.1111    0.7594 C   0  0  1  0  0  0  0  0  0  0  0  0
   -2.8584    0.3114   -0.4633 C   0  0  0  0  0  0  0  0  0  0  0  0
   -2.2066   -0.3366   -1.6584 C   0  0  0  0  0  0  0  0  0  0  0  0
   -0.7325   -0.1983   -1.7000 C   0  0  0  0  0  0  0  0  0  0  0  0
   -0.0685   -0.3344   -0.4364 N   0  0  0  0  0  0  0  0  0  0  0  0
    1.3418   -0.1522   -0.5861 C   0  0  0  0  0  0  0  0  0  0  0  0
    2.1289   -0.2749    0.6743 C   0  0  1  0  0  0  0  0  0  0  0  0
    1.9591   -1.5469    1.2375 O   0  0  0  0  0  0  0  0  0  0  0  0
    3.6024   -0.0733    0.3015 C   0  0  0  0  0  0  0  0  0  0  0  0
    3.6938    1.2151   -0.2531 O   0  0  0  0  0  0  0  0  0  0  0  0
   -0.6796    0.4790    0.5717 C   0  0  0  0  0  0  0  0  0  0  0  0
   -2.6594   -0.4979    2.6570 H   0  0  0  0  0  0  0  0  0  0  0  0
   -2.1272    1.0849    2.4106 H   0  0  0  0  0  0  0  0  0  0  0  0
   -1.9960   -1.2173    0.7177 H   0  0  0  0  0  0  0  0  0  0  0  0
   -3.9129   -0.0058   -0.4446 H   0  0  0  0  0  0  0  0  0  0  0  0
   -2.7481    1.4182   -0.5635 H   0  0  0  0  0  0  0  0  0  0  0  0
   -2.5330   -1.3897   -1.6944 H   0  0  0  0  0  0  0  0  0  0  0  0
   -2.6406    0.1618   -2.5646 H   0  0  0  0  0  0  0  0  0  0  0  0
   -0.3885    0.7626   -2.1715 H   0  0  0  0  0  0  0  0  0  0  0  0
   -0.3327   -1.0212   -2.3629 H   0  0  0  0  0  0  0  0  0  0  0  0
    1.5209    0.8246   -1.0675 H   0  0  0  0  0  0  0  0  0  0  0  0
    1.7008   -0.9664   -1.2741 H   0  0  0  0  0  0  0  0  0  0  0  0
    1.9094    0.4694    1.4415 H   0  0  0  0  0  0  0  0  0  0  0  0
    2.6181   -1.7453    1.9279 H   0  0  0  0  0  0  0  0  0  0  0  0
    4.2547   -0.1796    1.1894 H   0  0  0  0  0  0  0  0  0  0  0  0
    3.8724   -0.8314   -0.4547 H   0  0  0  0  0  0  0  0  0  0  0  0
    3.0156    1.8185    0.1721 H   0  0  0  0  0  0  0  0  0  0  0  0
   -0.1258    0.5201    1.5057 H   0  0  0  0  0  0  0  0  0  0  0  0
   -0.8435    1.5094    0.1389 H   0  0  0  0  0  0  0  0  0  0  0  0
  1  2  1  0
  2  3  1  0
  3  4  1  0
  4  5  1  0
  5  6  1  0
  6  7  1  0
  7  8  1  0
  8  9  1  0
  8 10  1  0
 10 11  1  0
  6 12  1  0
 12  2  1  0
  1 13  1  0
  1 14  1  0
  2 15  1  1
  3 16  1  0
  3 17  1  0
  4 18  1  0
  4 19  1  0
  5 20  1  0
  5 21  1  0
  7 22  1  0
  7 23  1  0
  8 24  1  1
  9 25  1  0
 10 26  1  0
 10 27  1  0
 11 28  1  0
 12 29  1  0
 12 30  1  0
M  END
$$$$

     RDKit          3D

 30 30  0  0  0  0  0  0  0  0999 V2000
   -2.6601    1.4949   -1.3247 N   0  0  0  0  0  0  0  0  0  0  0  0
   -2.0187    1.2214   -0.0341 C   0  0  1  0  0  0  0  0  0  0  0  0
   -2.7709    0.1854    0.7472 C   0  0  0  0  0  0  0  0  0  0  0  0
   -2.3266   -1.1632    0.2566 C   0  0  0  0  0  0  0  0  0  0  0  0
   -0.8708   -1.3854    0.4418 C   0  0  0  0  0  0  0  0  0  0  0  0
   -0.0826   -0.1611    0.5918 N   0  0  0  0  0  0  0  0  0  0  0  0
    1.2601   -0.5191    0.1978 C   0  0  0  0  0  0  0  0  0  0  0  0
    2.2539    0.5909    0.3025 C   0  0  1  0  0  0  0  0  0  0  0  0
    2.3745    1.0763    1.6071 O   0  0  0  0  0  0  0  0  0  0  0  0
    3.5969    0.0369   -0.1394 C   0  0  0  0  0  0  0  0  0  0  0  0
    3.4129   -0.4347   -1.4599 O   0  0  0  0  0  0  0  0  0  0  0  0
   -0.6130    0.7945   -0.3557 C   0  0  0  0  0  0  0  0  0  0  0  0
   -2.8872    0.5637   -1.7587 H   0  0  0  0  0  0  0  0  0  0  0  0
   -1.9225    1.9241   -1.9513 H   0  0  0  0  0  0  0  0  0  0  0  0
   -2.0528    2.1846    0.5180 H   0  0  0  0  0  0  0  0  0  0  0  0
   -2.4952    0.2757    1.8122 H   0  0  0  0  0  0  0  0  0  0  0  0
   -3.8552    0.3222    0.5632 H   0  0  0  0  0  0  0  0  0  0  0  0
   -2.6450   -1.3037   -0.8071 H   0  0  0  0  0  0  0  0  0  0  0  0
   -2.9107   -1.9479    0.8192 H   0  0  0  0  0  0  0  0  0  0  0  0
   -0.7282   -1.9761    1.3767 H   0  0  0  0  0  0  0  0  0  0  0  0
   -0.4449   -1.9753   -0.3982 H   0  0  0  0  0  0  0  0  0  0  0  0
    1.2036   -0.8984   -0.8322 H   0  0  0  0  0  0  0  0  0  0  0  0
    1.5920   -1.3473    0.8522 H   0  0  0  0  0  0  0  0  0  0  0  0
    2.0458    1.4612   -0.3366 H   0  0  0  0  0  0  0  0  0  0  0  0
    2.6461    0.3288    2.1765 H   0  0  0  0  0  0  0  0  0  0  0  0
    4.3828    0.8098   -0.1854 H   0  0  0  0  0  0  0  0  0  0  0  0
    3.8776   -0.7959    0.5387 H   0  0  0  0  0  0  0  0  0  0  0  0
    3.1731   -1.3927   -1.4421 H   0  0  0  0  0  0  0  0  0  0  0  0
   -0.0069    1.7221   -0.4118 H   0  0  0  0  0  0  0  0  0  0  0  0
   -0.5278    0.3086   -1.3645 H   0  0  0  0  0  0  0  0  0  0  0  0
  1  2  1  0
  2  3  1  0
  3  4  1  0
  4  5  1  0
  5  6  1  0
  6  7  1  0
  7  8  1  0
  8  9  1  0
  8 10  1  0
 10 11  1  0
  6 12  1  0
 12  2  1  0
  1 13  1  0
  1 14  1  0
  2 15  1  1
  3 16  1  0
  3 17  1  0
  4 18  1  0
  4 19  1  0
  5 20  1  0
  5 21  1  0
  7 22  1  0
  7 23  1  0
  8 24  1  6
  9 25  1  0
 10 26  1  0
 10 27  1  0
 11 28  1  0
 12 29  1  0
 12 30  1  0
M  END
$$$$

     RDKit          3D

 30 30  0  0  0  0  0  0  0  0999 V2000
   -2.5797    0.7927    1.9151 N   0  0  0  0  0  0  0  0  0  0  0  0
   -1.9909   -0.0515    0.9317 C   0  0  1  0  0  0  0  0  0  0  0  0
   -2.7870    0.0949   -0.3507 C   0  0  0  0  0  0  0  0  0  0  0  0
   -1.8699   -0.2906   -1.4859 C   0  0  0  0  0  0  0  0  0  0  0  0
   -0.9033   -1.3162   -0.9661 C   0  0  0  0  0  0  0  0  0  0  0  0
    0.1189   -0.7130   -0.0997 N   0  0  0  0  0  0  0  0  0  0  0  0
    1.1485   -0.2317   -0.9545 C   0  0  0  0  0  0  0  0  0  0  0  0
    2.2994    0.4252   -0.2754 C   0  0  1  0  0  0  0  0  0  0  0  0
    1.8994    1.5339    0.4609 O   0  0  0  0  0  0  0  0  0  0  0  0
    3.0932   -0.4721    0.6225 C   0  0  0  0  0  0  0  0  0  0  0  0
    4.2039    0.2779    1.0685 O   0  0  0  0  0  0  0  0  0  0  0  0
   -0.5179    0.2805    0.7019 C   0  0  0  0  0  0  0  0  0  0  0  0
   -2.9264    0.3032    2.7653 H   0  0  0  0  0  0  0  0  0  0  0  0
   -2.1026    1.6782    2.0940 H   0  0  0  0  0  0  0  0  0  0  0  0
   -2.0335   -1.1016    1.2910 H   0  0  0  0  0  0  0  0  0  0  0  0
   -3.6259   -0.6033   -0.3077 H   0  0  0  0  0  0  0  0  0  0  0  0
   -3.1834    1.1233   -0.4720 H   0  0  0  0  0  0  0  0  0  0  0  0
   -1.3820    0.6180   -1.8455 H   0  0  0  0  0  0  0  0  0  0  0  0
   -2.4591   -0.7579   -2.2886 H   0  0  0  0  0  0  0  0  0  0  0  0
   -0.3775   -1.7524   -1.8407 H   0  0  0  0  0  0  0  0  0  0  0  0
   -1.4558   -2.1082   -0.4428 H   0  0  0  0  0  0  0  0  0  0  0  0
    0.7391    0.4782   -1.7003 H   0  0  0  0  0  0  0  0  0  0  0  0
    1.5343   -1.0974   -1.5442 H   0  0  0  0  0  0  0  0  0  0  0  0
    2.9881    0.8019   -1.0622 H   0  0  0  0  0  0  0  0  0  0  0  0
    1.7451    2.2744   -0.1740 H   0  0  0  0  0  0  0  0  0  0  0  0
    2.5516   -0.7717    1.5358 H   0  0  0  0  0  0  0  0  0  0  0  0
    3.5115   -1.3573    0.1169 H   0  0  0  0  0  0  0  0  0  0  0  0
    4.8345    0.3650    0.2897 H   0  0  0  0  0  0  0  0  0  0  0  0
   -0.4223    1.3156    0.3048 H   0  0  0  0  0  0  0  0  0  0  0  0
   -0.0502    0.2621    1.7123 H   0  0  0  0  0  0  0  0  0  0  0  0
  1  2  1  0
  2  3  1  0
  3  4  1  0
  4  5  1  0
  5  6  1  0
  6  7  1  0
  7  8  1  0
  8  9  1  0
  8 10  1  0
 10 11  1  0
  6 12  1  0
 12  2  1  0
  1 13  1  0
  1 14  1  0
  2 15  1  1
  3 16  1  0
  3 17  1  0
  4 18  1  0
  4 19  1  0
  5 20  1  0
  5 21  1  0
  7 22  1  0
  7 23  1  0
  8 24  1  6
  9 25  1  0
 10 26  1  0
 10 27  1  0
 11 28  1  0
 12 29  1  0
 12 30  1  0
M  END
$$$$

     RDKit          3D

 30 30  0  0  0  0  0  0  0  0999 V2000
   -2.9793   -1.6400    0.2669 N   0  0  0  0  0  0  0  0  0  0  0  0
   -2.1608   -0.5290   -0.1190 C   0  0  1  0  0  0  0  0  0  0  0  0
   -2.6546    0.7426    0.5289 C   0  0  0  0  0  0  0  0  0  0  0  0
   -2.1023    1.8923   -0.3276 C   0  0  0  0  0  0  0  0  0  0  0  0
   -0.7450    1.4294   -0.8152 C   0  0  0  0  0  0  0  0  0  0  0  0
   -0.0773    0.6152    0.2035 N   0  0  0  0  0  0  0  0  0  0  0  0
    1.2873    0.4213   -0.2847 C   0  0  0  0  0  0  0  0  0  0  0  0
    2.1631   -0.3164    0.6949 C   0  0  1  0  0  0  0  0  0  0  0  0
    1.6421   -1.5538    0.9616 O   0  0  0  0  0  0  0  0  0  0  0  0
    3.5587   -0.4740    0.0861 C   0  0  0  0  0  0  0  0  0  0  0  0
    4.3893   -1.1384    0.9840 O   0  0  0  0  0  0  0  0  0  0  0  0
   -0.7101   -0.7040    0.2637 C   0  0  0  0  0  0  0  0  0  0  0  0
   -3.9788   -1.3611    0.1581 H   0  0  0  0  0  0  0  0  0  0  0  0
   -2.8005   -2.5023   -0.2716 H   0  0  0  0  0  0  0  0  0  0  0  0
   -2.1732   -0.4276   -1.2357 H   0  0  0  0  0  0  0  0  0  0  0  0
   -3.7622    0.7772    0.5826 H   0  0  0  0  0  0  0  0  0  0  0  0
   -2.1917    0.8979    1.5399 H   0  0  0  0  0  0  0  0  0  0  0  0
   -2.7945    1.9809   -1.1902 H   0  0  0  0  0  0  0  0  0  0  0  0
   -2.0370    2.8026    0.2914 H   0  0  0  0  0  0  0  0  0  0  0  0
   -0.7671    0.9393   -1.8010 H   0  0  0  0  0  0  0  0  0  0  0  0
   -0.1273    2.3505   -0.9214 H   0  0  0  0  0  0  0  0  0  0  0  0
    1.2761   -0.0834   -1.2812 H   0  0  0  0  0  0  0  0  0  0  0  0
    1.7853    1.4002   -0.4663 H   0  0  0  0  0  0  0  0  0  0  0  0
    2.2774    0.3091    1.6058 H   0  0  0  0  0  0  0  0  0  0  0  0
    2.1652   -2.2687    0.5424 H   0  0  0  0  0  0  0  0  0  0  0  0
    3.9881    0.5067   -0.1911 H   0  0  0  0  0  0  0  0  0  0  0  0
    3.4955   -1.1388   -0.8248 H   0  0  0  0  0  0  0  0  0  0  0  0
    4.8261   -0.4683    1.5861 H   0  0  0  0  0  0  0  0  0  0  0  0
   -0.1811   -1.3952   -0.4154 H   0  0  0  0  0  0  0  0  0  0  0  0
   -0.6113   -1.0643    1.2902 H   0  0  0  0  0  0  0  0  0  0  0  0
  1  2  1  0
  2  3  1  0
  3  4  1  0
  4  5  1  0
  5  6  1  0
  6  7  1  0
  7  8  1  0
  8  9  1  0
  8 10  1  0
 10 11  1  0
  6 12  1  0
 12  2  1  0
  1 13  1  0
  1 14  1  0
  2 15  1  6
  3 16  1  0
  3 17  1  0
  4 18  1  0
  4 19  1  0
  5 20  1  0
  5 21  1  0
  7 22  1  0
  7 23  1  0
  8 24  1  1
  9 25  1  0
 10 26  1  0
 10 27  1  0
 11 28  1  0
 12 29  1  0
 12 30  1  0
M  END
$$$$
