
     RDKit          3D

 25 25  0  0  0  0  0  0  0  0999 V2000
   -4.0085   -0.8233    1.0896 N   0  0  0  0  0  0  0  0  0  0  0  0
   -3.6262   -0.1709   -0.1032 C   0  0  0  0  0  0  0  0  0  0  0  0
   -4.5030    0.4929   -0.7142 O   0  0  0  0  0  0  0  0  0  0  0  0
   -2.2409   -0.2615   -0.6228 C   0  0  1  0  0  0  0  0  0  0  0  0
   -2.1347    0.4669   -1.8019 O   0  0  0  0  0  0  0  0  0  0  0  0
   -1.2440    0.2968    0.4019 C   0  0  0  0  0  0  0  0  0  0  0  0
    0.0739    0.1485   -0.1935 N   0  0  0  0  0  0  0  0  0  0  0  0
    1.0568    0.6546    0.7176 C   0  0  0  0  0  0  0  0  0  0  0  0
    2.4264    0.5317    0.1670 C   0  0  0  0  0  0  0  0  0  0  0  0
    3.1240    1.4051   -0.5782 N   0  0  0  0  0  0  0  0  0  0  0  0
    4.3206    0.9138   -0.8686 C   0  0  0  0  0  0  0  0  0  0  0  0
    4.3819   -0.3304   -0.2781 C   0  0  0  0  0  0  0  0  0  0  0  0
    3.2209   -0.5437    0.3462 N   0  0  0  0  0  0  0  0  0  0  0  0
   -4.2820   -0.2777    1.9237 H   0  0  0  0  0  0  0  0  0  0  0  0
   -4.0130   -1.8557    1.1233 H   0  0  0  0  0  0  0  0  0  0  0  0
   -1.9962   -1.3178   -0.8755 H   0  0  0  0  0  0  0  0  0  0  0  0
   -2.9915    0.6369   -2.2346 H   0  0  0  0  0  0  0  0  0  0  0  0
   -1.5269    1.3373    0.5772 H   0  0  0  0  0  0  0  0  0  0  0  0
   -1.3313   -0.2927    1.3341 H   0  0  0  0  0  0  0  0  0  0  0  0
    0.1348    0.5842   -1.1191 H   0  0  0  0  0  0  0  0  0  0  0  0
    0.8803    1.7304    0.9288 H   0  0  0  0  0  0  0  0  0  0  0  0
    0.9956    0.0483    1.6537 H   0  0  0  0  0  0  0  0  0  0  0  0
    5.1066    1.3982   -1.4600 H   0  0  0  0  0  0  0  0  0  0  0  0
    5.2168   -1.0270   -0.3051 H   0  0  0  0  0  0  0  0  0  0  0  0
    2.9597   -1.4073    0.8917 H   0  0  0  0  0  0  0  0  0  0  0  0
  1  2  1  0
  2  3  2  0
  2  4  1  0
  4  5  1  0
  4  6  1  0
  6  7  1  0
  7  8  1  0
  8  9  1  0
  9 10  2  0
 10 11  1  0
 11 12  2  0
 12 13  1  0
 13  9  1  0
  1 14  1  0
  1 15  1  0
  4 16  1  6
  5 17  1  0
  6 18  1  0
  6 19  1  0
  7 20  1  0
  8 21  1  0
  8 22  1  0
 11 23  1  0
 12 24  1  0
 13 25  1  0
M  END
$$$$

     RDKit          3D

 25 25  0  0  0  0  0  0  0  0999 V2000
    4.7185    0.0528   -0.0047 N   0  0  0  0  0  0  0  0  0  0  0  0
    3.6063   -0.4692    0.7072 C   0  0  0  0  0  0  0  0  0  0  0  0
    3.7591   -1.5327    1.3518 O   0  0  0  0  0  0  0  0  0  0  0  0
    2.3282    0.2711    0.6489 C   0  0  1  0  0  0  0  0  0  0  0  0
    2.4577    1.4069   -0.1372 O   0  0  0  0  0  0  0  0  0  0  0  0
    1.1912   -0.6125    0.1753 C   0  0  0  0  0  0  0  0  0  0  0  0
   -0.0751    0.0809    0.2167 N   0  0  0  0  0  0  0  0  0  0  0  0
   -1.1102   -0.8249   -0.2486 C   0  0  0  0  0  0  0  0  0  0  0  0
   -2.4214   -0.1153   -0.2090 C   0  0  0  0  0  0  0  0  0  0  0  0
   -2.6560    1.1393    0.1804 N   0  0  0  0  0  0  0  0  0  0  0  0
   -3.9833    1.4095    0.0685 C   0  0  0  0  0  0  0  0  0  0  0  0
   -4.5802    0.2711   -0.4090 C   0  0  0  0  0  0  0  0  0  0  0  0
   -3.6052   -0.6408   -0.5687 N   0  0  0  0  0  0  0  0  0  0  0  0
    4.8566   -0.2576   -0.9816 H   0  0  0  0  0  0  0  0  0  0  0  0
    5.4019    0.7306    0.4030 H   0  0  0  0  0  0  0  0  0  0  0  0
    2.1027    0.5920    1.6965 H   0  0  0  0  0  0  0  0  0  0  0  0
    1.6780    1.9877   -0.0627 H   0  0  0  0  0  0  0  0  0  0  0  0
    1.3370   -0.9751   -0.8468 H   0  0  0  0  0  0  0  0  0  0  0  0
    1.1143   -1.4781    0.8502 H   0  0  0  0  0  0  0  0  0  0  0  0
   -0.0996    0.9533   -0.3337 H   0  0  0  0  0  0  0  0  0  0  0  0
   -1.2156   -1.7068    0.4081 H   0  0  0  0  0  0  0  0  0  0  0  0
   -0.8973   -1.1387   -1.2887 H   0  0  0  0  0  0  0  0  0  0  0  0
   -4.4948    2.3214    0.2993 H   0  0  0  0  0  0  0  0  0  0  0  0
   -5.6316    0.1499   -0.6113 H   0  0  0  0  0  0  0  0  0  0  0  0
   -3.7812   -1.6146   -0.9259 H   0  0  0  0  0  0  0  0  0  0  0  0
  1  2  1  0
  2  3  2  0
  2  4  1  0
  4  5  1  0
  4  6  1  0
  6  7  1  0
  7  8  1  0
  8  9  1  0
  9 10  2  0
 10 11  1  0
 11 12  2  0
 12 13  1  0
 13  9  1  0
  1 14  1  0
  1 15  1  0
  4 16  1  1
  5 17  1  0
  6 18  1  0
  6 19  1  0
  7 20  1  0
  8 21  1  0
  8 22  1  0
 11 23  1  0
 12 24  1  0
 13 25  1  0
M  END
$$$$

     RDKit          3D

 25 25  0  0  0  0  0  0  0  0999 V2000
   -3.0144    1.3084   -0.7194 N   0  0  0  0  0  0  0  0  0  0  0  0
   -2.8364    0.6310    0.5157 C   0  0  0  0  0  0  0  0  0  0  0  0
   -3.0964    1.2162    1.6005 O   0  0  0  0  0  0  0  0  0  0  0  0
   -2.3422   -0.7695    0.5049 C   0  0  1  0  0  0  0  0  0  0  0  0
   -2.1239   -1.2087   -0.7770 O   0  0  0  0  0  0  0  0  0  0  0  0
   -1.2086   -0.9608    1.4577 C   0  0  0  0  0  0  0  0  0  0  0  0
    0.0157   -0.3107    1.1182 N   0  0  0  0  0  0  0  0  0  0  0  0
    0.6883   -0.8315   -0.0357 C   0  0  0  0  0  0  0  0  0  0  0  0
    1.9441   -0.0335   -0.2252 C   0  0  0  0  0  0  0  0  0  0  0  0
    1.9328    1.3092   -0.3043 N   0  0  0  0  0  0  0  0  0  0  0  0
    3.1968    1.7423   -0.4768 C   0  0  0  0  0  0  0  0  0  0  0  0
    4.0063    0.6305   -0.5048 C   0  0  0  0  0  0  0  0  0  0  0  0
    3.2084   -0.4498   -0.3474 N   0  0  0  0  0  0  0  0  0  0  0  0
   -2.5103    2.2068   -0.9455 H   0  0  0  0  0  0  0  0  0  0  0  0
   -3.6567    0.9438   -1.4619 H   0  0  0  0  0  0  0  0  0  0  0  0
   -3.1980   -1.3770    0.9132 H   0  0  0  0  0  0  0  0  0  0  0  0
   -2.2076   -0.4847   -1.4359 H   0  0  0  0  0  0  0  0  0  0  0  0
   -1.5453   -0.4899    2.4298 H   0  0  0  0  0  0  0  0  0  0  0  0
   -1.0454   -2.0332    1.7171 H   0  0  0  0  0  0  0  0  0  0  0  0
    0.6609   -0.4115    1.9310 H   0  0  0  0  0  0  0  0  0  0  0  0
    0.9669   -1.9153    0.0940 H   0  0  0  0  0  0  0  0  0  0  0  0
    0.1341   -0.7072   -0.9865 H   0  0  0  0  0  0  0  0  0  0  0  0
    3.4537    2.7802   -0.5669 H   0  0  0  0  0  0  0  0  0  0  0  0
    5.0761    0.6593   -0.6325 H   0  0  0  0  0  0  0  0  0  0  0  0
    3.5012   -1.4445   -0.3228 H   0  0  0  0  0  0  0  0  0  0  0  0
  1  2  1  0
  2  3  2  0
  2  4  1  0
  4  5  1  0
  4  6  1  0
  6  7  1  0
  7  8  1  0
  8  9  1  0
  9 10  2  0
 10 11  1  0
 11 12  2  0
 12 13  1  0
 13  9  1  0
  1 14  1  0
  1 15  1  0
  4 16  1  1
  5 17  1  0
  6 18  1  0
  6 19  1  0
  7 20  1  0
  8 21  1  0
  8 22  1  0
 11 23  1  0
 12 24  1  0
 13 25  1  0
M  END
$$$$

     RDKit          3D

 25 25  0  0  0  0  0  0  0  0999 V2000
   -4.2021    0.9706   -0.4389 N   0  0  0  0  0  0  0  0  0  0  0  0
   -3.2084    0.4310    0.3727 C   0  0  0  0  0  0  0  0  0  0  0  0
   -3.1952    0.7339    1.6291 O   0  0  0  0  0  0  0  0  0  0  0  0
   -2.1426   -0.4770   -0.0869 C   0  0  1  0  0  0  0  0  0  0  0  0
   -2.0621   -0.5931   -1.4569 O   0  0  0  0  0  0  0  0  0  0  0  0
   -0.8603   -0.0411    0.5130 C   0  0  0  0  0  0  0  0  0  0  0  0
    0.2956   -0.8410    0.4814 N   0  0  0  0  0  0  0  0  0  0  0  0
    0.9196   -1.1201   -0.7441 C   0  0  0  0  0  0  0  0  0  0  0  0
    2.3103   -0.5368   -0.6165 C   0  0  0  0  0  0  0  0  0  0  0  0
    3.4794   -0.9190   -1.0580 N   0  0  0  0  0  0  0  0  0  0  0  0
    4.4348    0.0096   -0.7519 C   0  0  0  0  0  0  0  0  0  0  0  0
    3.7727    0.9833   -0.0824 C   0  0  0  0  0  0  0  0  0  0  0  0
    2.4782    0.6794    0.0139 N   0  0  0  0  0  0  0  0  0  0  0  0
   -4.5284    1.9605   -0.3401 H   0  0  0  0  0  0  0  0  0  0  0  0
   -4.6570    0.3821   -1.1659 H   0  0  0  0  0  0  0  0  0  0  0  0
   -2.4162   -1.5069    0.2944 H   0  0  0  0  0  0  0  0  0  0  0  0
   -1.8560    0.3562   -1.8225 H   0  0  0  0  0  0  0  0  0  0  0  0
   -0.6107    0.9665    0.0525 H   0  0  0  0  0  0  0  0  0  0  0  0
   -1.0763    0.1473    1.6214 H   0  0  0  0  0  0  0  0  0  0  0  0
    0.1858   -1.7301    1.0878 H   0  0  0  0  0  0  0  0  0  0  0  0
    0.4758   -0.7761   -1.6544 H   0  0  0  0  0  0  0  0  0  0  0  0
    1.0734   -2.2313   -0.7841 H   0  0  0  0  0  0  0  0  0  0  0  0
    5.4874   -0.0112   -0.9888 H   0  0  0  0  0  0  0  0  0  0  0  0
    4.1634    1.9337    0.3172 H   0  0  0  0  0  0  0  0  0  0  0  0
    1.7389    1.2299    0.4766 H   0  0  0  0  0  0  0  0  0  0  0  0
  1  2  1  0
  2  3  2  0
  2  4  1  0
  4  5  1  0
  4  6  1  0
  6  7  1  0
  7  8  1  0
  8  9  1  0
  9 10  2  0
 10 11  1  0
 11 12  2  0
 12 13  1  0
 13  9  1  0
  1 14  1  0
  1 15  1  0
  4 16  1  1
  5 17  1  0
  6 18  1  0
  6 19  1  0
  7 20  1  0
  8 21  1  0
  8 22  1  0
 11 23  1  0
 12 24  1  0
 13 25  1  0
M  END
$$$$

     RDKit          3D

 25 25  0  0  0  0  0  0  0  0999 V2000
    4.5848    0.4772    0.3827 N   0  0  0  0  0  0  0  0  0  0  0  0
    3.4390   -0.3483    0.5414 C   0  0  0  0  0  0  0  0  0  0  0  0
    3.5308   -1.5871    0.7828 O   0  0  0  0  0  0  0  0  0  0  0  0
    2.0494    0.1896    0.4358 C   0  0  1  0  0  0  0  0  0  0  0  0
    2.0131    1.5390    0.1594 O   0  0  0  0  0  0  0  0  0  0  0  0
    1.2552   -0.5358   -0.6132 C   0  0  0  0  0  0  0  0  0  0  0  0
   -0.1105   -0.1080   -0.6367 N   0  0  0  0  0  0  0  0  0  0  0  0
   -0.8163   -0.5099    0.5532 C   0  0  0  0  0  0  0  0  0  0  0  0
   -2.2393   -0.0313    0.4281 C   0  0  0  0  0  0  0  0  0  0  0  0
   -2.6918    1.1969    0.6822 N   0  0  0  0  0  0  0  0  0  0  0  0
   -4.0143    1.2195    0.4555 C   0  0  0  0  0  0  0  0  0  0  0  0
   -4.4099   -0.0262    0.0471 C   0  0  0  0  0  0  0  0  0  0  0  0
   -3.2907   -0.7803    0.0390 N   0  0  0  0  0  0  0  0  0  0  0  0
    5.1440    0.6749    1.2636 H   0  0  0  0  0  0  0  0  0  0  0  0
    4.8417    0.8526   -0.5465 H   0  0  0  0  0  0  0  0  0  0  0  0
    1.5936   -0.0160    1.4392 H   0  0  0  0  0  0  0  0  0  0  0  0
    1.2013    1.9853    0.5058 H   0  0  0  0  0  0  0  0  0  0  0  0
    1.3533   -1.6256   -0.4393 H   0  0  0  0  0  0  0  0  0  0  0  0
    1.7425   -0.3401   -1.5936 H   0  0  0  0  0  0  0  0  0  0  0  0
   -0.5942   -0.5304   -1.4570 H   0  0  0  0  0  0  0  0  0  0  0  0
   -0.4136   -0.0248    1.4669 H   0  0  0  0  0  0  0  0  0  0  0  0
   -0.8338   -1.6263    0.6536 H   0  0  0  0  0  0  0  0  0  0  0  0
   -4.6498    2.0674    0.5731 H   0  0  0  0  0  0  0  0  0  0  0  0
   -5.4157   -0.3354   -0.2130 H   0  0  0  0  0  0  0  0  0  0  0  0
   -3.2688   -1.7768   -0.2267 H   0  0  0  0  0  0  0  0  0  0  0  0
  1  2  1  0
  2  3  2  0
  2  4  1  0
  4  5  1  0
  4  6  1  0
  6  7  1  0
  7  8  1  0
  8  9  1  0
  9 10  2  0
 10 11  1  0
 11 12  2  0
 12 13  1  0
 13  9  1  0
  1 14  1  0
  1 15  1  0
  4 16  1  1
  5 17  1  0
  6 18  1  0
  6 19  1  0
  7 20  1  0
  8 21  1  0
  8 22  1  0
 11 23  1  0
 12 24  1  0
 13 25  1  0
M  END
$$$$

     RDKit          3D

 25 25  0  0  0  0  0  0  0  0999 V2000
    4.0932   -1.1929    0.0848 N   0  0  0  0  0  0  0  0  0  0  0  0
    3.5310    0.0653    0.3844 C   0  0  0  0  0  0  0  0  0  0  0  0
    4.2726    1.0803    0.3141 O   0  0  0  0  0  0  0  0  0  0  0  0
    2.0893    0.1377    0.7691 C   0  0  1  0  0  0  0  0  0  0  0  0
    1.7577    1.4453    1.0158 O   0  0  0  0  0  0  0  0  0  0  0  0
    1.2889   -0.4703   -0.3304 C   0  0  0  0  0  0  0  0  0  0  0  0
   -0.1126   -0.5108   -0.1179 N   0  0  0  0  0  0  0  0  0  0  0  0
   -0.8130    0.7326   -0.1219 C   0  0  0  0  0  0  0  0  0  0  0  0
   -2.2700    0.4147    0.0967 C   0  0  0  0  0  0  0  0  0  0  0  0
   -2.8907    0.4114    1.2897 N   0  0  0  0  0  0  0  0  0  0  0  0
   -4.1839    0.0847    1.1181 C   0  0  0  0  0  0  0  0  0  0  0  0
   -4.3799   -0.1240   -0.2299 C   0  0  0  0  0  0  0  0  0  0  0  0
   -3.1899    0.0861   -0.8227 N   0  0  0  0  0  0  0  0  0  0  0  0
    5.0995   -1.3235   -0.1729 H   0  0  0  0  0  0  0  0  0  0  0  0
    3.5175   -2.0675    0.1082 H   0  0  0  0  0  0  0  0  0  0  0  0
    1.8945   -0.4519    1.6960 H   0  0  0  0  0  0  0  0  0  0  0  0
    2.1824    2.0676    0.3777 H   0  0  0  0  0  0  0  0  0  0  0  0
    1.6360   -1.5351   -0.4587 H   0  0  0  0  0  0  0  0  0  0  0  0
    1.4995    0.0471   -1.2949 H   0  0  0  0  0  0  0  0  0  0  0  0
   -0.5480   -1.2115   -0.7319 H   0  0  0  0  0  0  0  0  0  0  0  0
   -0.4883    1.4240    0.6545 H   0  0  0  0  0  0  0  0  0  0  0  0
   -0.7440    1.2765   -1.0925 H   0  0  0  0  0  0  0  0  0  0  0  0
   -4.8967    0.0161    1.9410 H   0  0  0  0  0  0  0  0  0  0  0  0
   -5.3191   -0.4015   -0.6882 H   0  0  0  0  0  0  0  0  0  0  0  0
   -3.0262   -0.0004   -1.8648 H   0  0  0  0  0  0  0  0  0  0  0  0
  1  2  1  0
  2  3  2  0
  2  4  1  0
  4  5  1  0
  4  6  1  0
  6  7  1  0
  7  8  1  0
  8  9  1  0
  9 10  2  0
 10 11  1  0
 11 12  2  0
 12 13  1  0
 13  9  1  0
  1 14  1  0
  1 15  1  0
  4 16  1  1
  5 17  1  0
  6 18  1  0
  6 19  1  0
  7 20  1  0
  8 21  1  0
  8 22  1  0
 11 23  1  0
 12 24  1  0
 13 25  1  0
M  END
$$$$

     RDKit          3D

 25 25  0  0  0  0  0  0  0  0999 V2000
   -3.2894    1.7516    0.4675 N   0  0  0  0  0  0  0  0  0  0  0  0
   -2.8972    0.4718    0.9372 C   0  0  0  0  0  0  0  0  0  0  0  0
   -2.7142    0.2691    2.1590 O   0  0  0  0  0  0  0  0  0  0  0  0
   -2.7028   -0.6430   -0.0493 C   0  0  1  0  0  0  0  0  0  0  0  0
   -2.9466   -0.2380   -1.3340 O   0  0  0  0  0  0  0  0  0  0  0  0
   -1.3224   -1.1975    0.1636 C   0  0  0  0  0  0  0  0  0  0  0  0
   -0.2750   -0.2654   -0.1309 N   0  0  0  0  0  0  0  0  0  0  0  0
    0.9841   -0.9522    0.1243 C   0  0  0  0  0  0  0  0  0  0  0  0
    2.1472   -0.0771   -0.1488 C   0  0  0  0  0  0  0  0  0  0  0  0
    2.1529    1.1849   -0.5743 N   0  0  0  0  0  0  0  0  0  0  0  0
    3.4307    1.6183   -0.6963 C   0  0  0  0  0  0  0  0  0  0  0  0
    4.2379    0.5584   -0.3237 C   0  0  0  0  0  0  0  0  0  0  0  0
    3.4138   -0.4504    0.0009 N   0  0  0  0  0  0  0  0  0  0  0  0
   -4.2214    2.1316    0.6960 H   0  0  0  0  0  0  0  0  0  0  0  0
   -2.6060    2.2848   -0.1102 H   0  0  0  0  0  0  0  0  0  0  0  0
   -3.4254   -1.4385    0.2280 H   0  0  0  0  0  0  0  0  0  0  0  0
   -2.1602   -0.1714   -1.9029 H   0  0  0  0  0  0  0  0  0  0  0  0
   -1.2370   -1.4586    1.2457 H   0  0  0  0  0  0  0  0  0  0  0  0
   -1.1483   -2.1096   -0.4520 H   0  0  0  0  0  0  0  0  0  0  0  0
   -0.2921    0.0791   -1.1153 H   0  0  0  0  0  0  0  0  0  0  0  0
    0.9709   -1.2907    1.1858 H   0  0  0  0  0  0  0  0  0  0  0  0
    1.0686   -1.8526   -0.5096 H   0  0  0  0  0  0  0  0  0  0  0  0
    3.7416    2.5991   -1.0212 H   0  0  0  0  0  0  0  0  0  0  0  0
    5.3227    0.5858   -0.3125 H   0  0  0  0  0  0  0  0  0  0  0  0
    3.7675   -1.3895    0.3242 H   0  0  0  0  0  0  0  0  0  0  0  0
  1  2  1  0
  2  3  2  0
  2  4  1  0
  4  5  1  0
  4  6  1  0
  6  7  1  0
  7  8  1  0
  8  9  1  0
  9 10  2  0
 10 11  1  0
 11 12  2  0
 12 13  1  0
 13  9  1  0
  1 14  1  0
  1 15  1  0
  4 16  1  1
  5 17  1  0
  6 18  1  0
  6 19  1  0
  7 20  1  0
  8 21  1  0
  8 22  1  0
 11 23  1  0
 12 24  1  0
 13 25  1  0
M  END
$$$$

     RDKit          3D

 25 25  0  0  0  0  0  0  0  0999 V2000
   -3.7812   -0.8827   -0.0834 N   0  0  0  0  0  0  0  0  0  0  0  0
   -2.5736   -0.5546   -0.8053 C   0  0  0  0  0  0  0  0  0  0  0  0
   -1.9816   -1.5451   -1.2903 O   0  0  0  0  0  0  0  0  0  0  0  0
   -2.1387    0.8156   -0.9194 C   0  0  1  0  0  0  0  0  0  0  0  0
   -3.2914    1.6601   -0.6381 O   0  0  0  0  0  0  0  0  0  0  0  0
   -1.0279    1.3338   -0.0966 C   0  0  0  0  0  0  0  0  0  0  0  0
    0.2354    0.7833   -0.0831 N   0  0  0  0  0  0  0  0  0  0  0  0
    0.5422   -0.4253    0.5384 C   0  0  0  0  0  0  0  0  0  0  0  0
    2.0143   -0.6942    0.3931 C   0  0  0  0  0  0  0  0  0  0  0  0
    2.5793   -1.4432   -0.5437 N   0  0  0  0  0  0  0  0  0  0  0  0
    3.9119   -1.4461   -0.3505 C   0  0  0  0  0  0  0  0  0  0  0  0
    4.1565   -0.6645    0.7515 C   0  0  0  0  0  0  0  0  0  0  0  0
    2.9672   -0.2122    1.1922 N   0  0  0  0  0  0  0  0  0  0  0  0
   -4.6922   -0.7792   -0.5272 H   0  0  0  0  0  0  0  0  0  0  0  0
   -3.7086   -1.2257    0.8941 H   0  0  0  0  0  0  0  0  0  0  0  0
   -1.9321    1.0939   -1.9990 H   0  0  0  0  0  0  0  0  0  0  0  0
   -2.9860    2.5479   -0.9253 H   0  0  0  0  0  0  0  0  0  0  0  0
   -1.4128    1.4282    0.9937 H   0  0  0  0  0  0  0  0  0  0  0  0
   -0.8938    2.4472   -0.4024 H   0  0  0  0  0  0  0  0  0  0  0  0
    1.0466    1.4191   -0.2764 H   0  0  0  0  0  0  0  0  0  0  0  0
   -0.0042   -1.3240    0.2456 H   0  0  0  0  0  0  0  0  0  0  0  0
    0.3832   -0.3471    1.6602 H   0  0  0  0  0  0  0  0  0  0  0  0
    4.6286   -1.9582   -0.9461 H   0  0  0  0  0  0  0  0  0  0  0  0
    5.0965   -0.4381    1.1935 H   0  0  0  0  0  0  0  0  0  0  0  0
    2.8625    0.4114    2.0249 H   0  0  0  0  0  0  0  0  0  0  0  0
  1  2  1  0
  2  3  2  0
  2  4  1  0
  4  5  1  0
  4  6  1  0
  6  7  1  0
  7  8  1  0
  8  9  1  0
  9 10  2  0
 10 11  1  0
 11 12  2  0
 12 13  1  0
 13  9  1  0
  1 14  1  0
  1 15  1  0
  4 16  1  6
  5 17  1  0
  6 18  1  0
  6 19  1  0
  7 20  1  0
  8 21  1  0
  8 22  1  0
 11 23  1  0
 12 24  1  0
 13 25  1  0
M  END
$$$$
