
     RDKit          3D

 27 26  0  0  0  0  0  0  0  0999 V2000
   -2.7052   -1.1015    0.6589 C   0  0  0  0  0  0  0  0  0  0  0  0
   -2.3042    0.2767    0.1727 C   0  0  2  0  0  0  0  0  0  0  0  0
   -1.1248    0.1923   -0.7201 C   0  0  0  0  0  0  0  0  0  0  0  0
    0.0774   -0.3302   -0.1813 N   0  0  0  0  0  0  0  0  0  0  0  0
    1.0211   -0.5006   -1.2338 C   0  0  0  0  0  0  0  0  0  0  0  0
    2.3637   -0.9885   -0.7725 C   0  0  1  0  0  0  0  0  0  0  0  0
    3.2025   -1.1592   -1.9009 O   0  0  0  0  0  0  0  0  0  0  0  0
    3.0627    0.0723    0.0415 C   0  0  0  0  0  0  0  0  0  0  0  0
    2.5244    0.5936    1.2394 N   0  0  0  0  0  0  0  0  0  0  0  0
    4.1888    0.5478   -0.3281 O   0  0  0  0  0  0  0  0  0  0  0  0
   -2.2086    1.2343    1.2844 C   0  0  0  0  0  0  0  0  0  0  0  0
   -2.4770    0.8528    2.4423 O   0  0  0  0  0  0  0  0  0  0  0  0
   -1.8302    2.5376    1.0761 O   0  0  0  0  0  0  0  0  0  0  0  0
   -1.8754   -1.7991    0.5357 H   0  0  0  0  0  0  0  0  0  0  0  0
   -3.5509   -1.4991    0.0194 H   0  0  0  0  0  0  0  0  0  0  0  0
   -3.0372   -1.0292    1.7026 H   0  0  0  0  0  0  0  0  0  0  0  0
   -3.1678    0.6402   -0.4637 H   0  0  0  0  0  0  0  0  0  0  0  0
   -0.8711    1.2400   -1.0827 H   0  0  0  0  0  0  0  0  0  0  0  0
   -1.4139   -0.3647   -1.6444 H   0  0  0  0  0  0  0  0  0  0  0  0
   -0.0083   -1.0669    0.5090 H   0  0  0  0  0  0  0  0  0  0  0  0
    1.1442    0.4806   -1.7637 H   0  0  0  0  0  0  0  0  0  0  0  0
    0.6379   -1.2073   -2.0277 H   0  0  0  0  0  0  0  0  0  0  0  0
    2.3498   -1.9489   -0.2480 H   0  0  0  0  0  0  0  0  0  0  0  0
    2.9430   -0.4181   -2.5033 H   0  0  0  0  0  0  0  0  0  0  0  0
    2.3768    1.6155    1.3171 H   0  0  0  0  0  0  0  0  0  0  0  0
    2.2865   -0.0421    2.0179 H   0  0  0  0  0  0  0  0  0  0  0  0
   -1.6046    3.1717    1.8533 H   0  0  0  0  0  0  0  0  0  0  0  0
  1  2  1  0
  2  3  1  0
  3  4  1  0
  4  5  1  0
  5  6  1  0
  6  7  1  0
  6  8  1  0
  8  9  1  0
  8 10  2  0
  2 11  1  0
 11 12  2  0
 11 13  1  0
  1 14  1  0
  1 15  1  0
  1 16  1  0
  2 17  1  6
  3 18  1  0
  3 19  1  0
  4 20  1  0
  5 21  1  0
  5 22  1  0
  6 23  1  1
  7 24  1  0
  9 25  1  0
  9 26  1  0
 13 27  1  0
M  END
$$$$

     RDKit          3D

 27 26  0  0  0  0  0  0  0  0999 V2000
   -2.2091    0.7680   -1.3448 C   0  0  0  0  0  0  0  0  0  0  0  0
   -1.9471    0.1593   -0.0096 C   0  0  2  0  0  0  0  0  0  0  0  0
   -1.0776   -1.0496    0.0035 C   0  0  0  0  0  0  0  0  0  0  0  0
    0.2302   -0.9458   -0.4909 N   0  0  0  0  0  0  0  0  0  0  0  0
    1.1641   -0.1281    0.1895 C   0  0  0  0  0  0  0  0  0  0  0  0
    2.5741   -0.3604   -0.3512 C   0  0  1  0  0  0  0  0  0  0  0  0
    2.7135   -0.1231   -1.6923 O   0  0  0  0  0  0  0  0  0  0  0  0
    3.5229    0.5063    0.3708 C   0  0  0  0  0  0  0  0  0  0  0  0
    3.4849    0.5500    1.7842 N   0  0  0  0  0  0  0  0  0  0  0  0
    4.3548    1.2011   -0.2431 O   0  0  0  0  0  0  0  0  0  0  0  0
   -3.2828   -0.2289    0.5489 C   0  0  0  0  0  0  0  0  0  0  0  0
   -3.5304   -1.4308    0.7532 O   0  0  0  0  0  0  0  0  0  0  0  0
   -4.2156    0.7278    0.8270 O   0  0  0  0  0  0  0  0  0  0  0  0
   -1.2814    0.9769   -1.9357 H   0  0  0  0  0  0  0  0  0  0  0  0
   -2.8907    0.1760   -1.9881 H   0  0  0  0  0  0  0  0  0  0  0  0
   -2.7264    1.7506   -1.1624 H   0  0  0  0  0  0  0  0  0  0  0  0
   -1.5497    0.9404    0.6857 H   0  0  0  0  0  0  0  0  0  0  0  0
   -1.0961   -1.4606    1.0420 H   0  0  0  0  0  0  0  0  0  0  0  0
   -1.6082   -1.8278   -0.6069 H   0  0  0  0  0  0  0  0  0  0  0  0
    0.3080   -1.0290   -1.4882 H   0  0  0  0  0  0  0  0  0  0  0  0
    0.9437    0.9424   -0.1185 H   0  0  0  0  0  0  0  0  0  0  0  0
    1.1599   -0.2284    1.2777 H   0  0  0  0  0  0  0  0  0  0  0  0
    2.7922   -1.4363   -0.1281 H   0  0  0  0  0  0  0  0  0  0  0  0
    2.3077    0.7325   -1.9712 H   0  0  0  0  0  0  0  0  0  0  0  0
    2.5776    0.8659    2.2098 H   0  0  0  0  0  0  0  0  0  0  0  0
    4.3042    0.2872    2.3902 H   0  0  0  0  0  0  0  0  0  0  0  0
   -5.0228    0.5903    1.4487 H   0  0  0  0  0  0  0  0  0  0  0  0
  1  2  1  0
  2  3  1  0
  3  4  1  0
  4  5  1  0
  5  6  1  0
  6  7  1  0
  6  8  1  0
  8  9  1  0
  8 10  2  0
  2 11  1  0
 11 12  2  0
 11 13  1  0
  1 14  1  0
  1 15  1  0
  1 16  1  0
  2 17  1  1
  3 18  1  0
  3 19  1  0
  4 20  1  0
  5 21  1  0
  5 22  1  0
  6 23  1  6
  7 24  1  0
  9 25  1  0
  9 26  1  0
 13 27  1  0
M  END
$$$$

     RDKit          3D

 27 26  0  0  0  0  0  0  0  0999 V2000
   -2.4125    1.3373    0.9496 C   0  0  0  0  0  0  0  0  0  0  0  0
   -2.4025   -0.0074    0.2761 C   0  0  2  0  0  0  0  0  0  0  0  0
   -1.1570   -0.1551   -0.5708 C   0  0  0  0  0  0  0  0  0  0  0  0
   -0.0377   -0.0582    0.3445 N   0  0  0  0  0  0  0  0  0  0  0  0
    1.1808   -0.1010   -0.4394 C   0  0  0  0  0  0  0  0  0  0  0  0
    2.4137   -0.1835    0.4457 C   0  0  1  0  0  0  0  0  0  0  0  0
    2.3807   -1.3429    1.2276 O   0  0  0  0  0  0  0  0  0  0  0  0
    3.6041   -0.1606   -0.4331 C   0  0  0  0  0  0  0  0  0  0  0  0
    4.8511    0.4143   -0.0425 N   0  0  0  0  0  0  0  0  0  0  0  0
    3.5438   -0.6626   -1.5846 O   0  0  0  0  0  0  0  0  0  0  0  0
   -3.6108   -0.2849   -0.5198 C   0  0  0  0  0  0  0  0  0  0  0  0
   -3.4655   -0.5482   -1.7571 O   0  0  0  0  0  0  0  0  0  0  0  0
   -4.8799   -0.2699    0.0108 O   0  0  0  0  0  0  0  0  0  0  0  0
   -3.4232    1.6169    1.3034 H   0  0  0  0  0  0  0  0  0  0  0  0
   -1.6524    1.3622    1.7475 H   0  0  0  0  0  0  0  0  0  0  0  0
   -2.1203    2.1227    0.1952 H   0  0  0  0  0  0  0  0  0  0  0  0
   -2.3765   -0.7624    1.1060 H   0  0  0  0  0  0  0  0  0  0  0  0
   -1.1542   -1.0567   -1.1876 H   0  0  0  0  0  0  0  0  0  0  0  0
   -1.1186    0.7098   -1.2580 H   0  0  0  0  0  0  0  0  0  0  0  0
   -0.0754   -0.7734    1.1042 H   0  0  0  0  0  0  0  0  0  0  0  0
    1.2479    0.8845   -0.9702 H   0  0  0  0  0  0  0  0  0  0  0  0
    1.1322   -0.9162   -1.1875 H   0  0  0  0  0  0  0  0  0  0  0  0
    2.4234    0.6715    1.1430 H   0  0  0  0  0  0  0  0  0  0  0  0
    2.0949   -2.1093    0.6535 H   0  0  0  0  0  0  0  0  0  0  0  0
    5.4862   -0.1186    0.5960 H   0  0  0  0  0  0  0  0  0  0  0  0
    5.0957    1.3477   -0.4005 H   0  0  0  0  0  0  0  0  0  0  0  0
   -5.5680   -0.9560   -0.2765 H   0  0  0  0  0  0  0  0  0  0  0  0
  1  2  1  0
  2  3  1  0
  3  4  1  0
  4  5  1  0
  5  6  1  0
  6  7  1  0
  6  8  1  0
  8  9  1  0
  8 10  2  0
  2 11  1  0
 11 12  2  0
 11 13  1  0
  1 14  1  0
  1 15  1  0
  1 16  1  0
  2 17  1  1
  3 18  1  0
  3 19  1  0
  4 20  1  0
  5 21  1  0
  5 22  1  0
  6 23  1  1
  7 24  1  0
  9 25  1  0
  9 26  1  0
 13 27  1  0
M  END
$$$$

     RDKit          3D

 27 26  0  0  0  0  0  0  0  0999 V2000
   -2.3339   -0.3534    1.3593 C   0  0  0  0  0  0  0  0  0  0  0  0
   -2.0309   -0.3917   -0.1240 C   0  0  2  0  0  0  0  0  0  0  0  0
   -1.1015    0.6908   -0.5519 C   0  0  0  0  0  0  0  0  0  0  0  0
    0.2032    0.6506    0.1100 N   0  0  0  0  0  0  0  0  0  0  0  0
    0.9741   -0.4821   -0.2907 C   0  0  0  0  0  0  0  0  0  0  0  0
    2.2499   -0.5349    0.5030 C   0  0  1  0  0  0  0  0  0  0  0  0
    3.0218   -1.6509    0.1256 O   0  0  0  0  0  0  0  0  0  0  0  0
    3.0069    0.7062    0.3392 C   0  0  0  0  0  0  0  0  0  0  0  0
    4.2906    0.6196   -0.3093 N   0  0  0  0  0  0  0  0  0  0  0  0
    2.6172    1.8305    0.7240 O   0  0  0  0  0  0  0  0  0  0  0  0
   -3.3134   -0.1924   -0.8635 C   0  0  0  0  0  0  0  0  0  0  0  0
   -3.7846   -1.0166   -1.6584 O   0  0  0  0  0  0  0  0  0  0  0  0
   -4.0067    0.9785   -0.6434 O   0  0  0  0  0  0  0  0  0  0  0  0
   -3.3471    0.1113    1.5222 H   0  0  0  0  0  0  0  0  0  0  0  0
   -1.6232    0.2352    1.9401 H   0  0  0  0  0  0  0  0  0  0  0  0
   -2.4043   -1.3744    1.7994 H   0  0  0  0  0  0  0  0  0  0  0  0
   -1.6038   -1.4067   -0.3465 H   0  0  0  0  0  0  0  0  0  0  0  0
   -1.0221    0.6953   -1.6411 H   0  0  0  0  0  0  0  0  0  0  0  0
   -1.5535    1.6651   -0.2370 H   0  0  0  0  0  0  0  0  0  0  0  0
    0.6994    1.4948   -0.3238 H   0  0  0  0  0  0  0  0  0  0  0  0
    0.4098   -1.4480   -0.2157 H   0  0  0  0  0  0  0  0  0  0  0  0
    1.2679   -0.4258   -1.3775 H   0  0  0  0  0  0  0  0  0  0  0  0
    1.9923   -0.6604    1.5696 H   0  0  0  0  0  0  0  0  0  0  0  0
    2.4677   -2.3487   -0.2986 H   0  0  0  0  0  0  0  0  0  0  0  0
    5.0370    1.2855   -0.0665 H   0  0  0  0  0  0  0  0  0  0  0  0
    4.4737   -0.1093   -1.0279 H   0  0  0  0  0  0  0  0  0  0  0  0
   -4.5866    1.4320   -1.3404 H   0  0  0  0  0  0  0  0  0  0  0  0
  1  2  1  0
  2  3  1  0
  3  4  1  0
  4  5  1  0
  5  6  1  0
  6  7  1  0
  6  8  1  0
  8  9  1  0
  8 10  2  0
  2 11  1  0
 11 12  2  0
 11 13  1  0
  1 14  1  0
  1 15  1  0
  1 16  1  0
  2 17  1  6
  3 18  1  0
  3 19  1  0
  4 20  1  0
  5 21  1  0
  5 22  1  0
  6 23  1  1
  7 24  1  0
  9 25  1  0
  9 26  1  0
 13 27  1  0
M  END
$$$$

     RDKit          3D

 27 26  0  0  0  0  0  0  0  0999 V2000
   -3.0744   -1.3115   -0.5132 C   0  0  0  0  0  0  0  0  0  0  0  0
   -2.1856   -0.0693   -0.4394 C   0  0  2  0  0  0  0  0  0  0  0  0
   -0.9275   -0.3421    0.3262 C   0  0  0  0  0  0  0  0  0  0  0  0
   -0.0490    0.7871    0.4274 N   0  0  0  0  0  0  0  0  0  0  0  0
    1.2272    0.4687    0.9895 C   0  0  0  0  0  0  0  0  0  0  0  0
    2.0774   -0.3564    0.0567 C   0  0  1  0  0  0  0  0  0  0  0  0
    2.3027    0.3736   -1.1096 O   0  0  0  0  0  0  0  0  0  0  0  0
    3.3166   -0.6845    0.8044 C   0  0  0  0  0  0  0  0  0  0  0  0
    4.6145   -0.2662    0.4689 N   0  0  0  0  0  0  0  0  0  0  0  0
    3.1503   -1.4176    1.8451 O   0  0  0  0  0  0  0  0  0  0  0  0
   -2.9558    1.0813    0.0419 C   0  0  0  0  0  0  0  0  0  0  0  0
   -2.7677    1.5480    1.1853 O   0  0  0  0  0  0  0  0  0  0  0  0
   -3.9257    1.6724   -0.7972 O   0  0  0  0  0  0  0  0  0  0  0  0
   -2.6213   -2.0950    0.1475 H   0  0  0  0  0  0  0  0  0  0  0  0
   -4.0524   -1.0800   -0.0964 H   0  0  0  0  0  0  0  0  0  0  0  0
   -3.1237   -1.6721   -1.5576 H   0  0  0  0  0  0  0  0  0  0  0  0
   -1.8764    0.1699   -1.5061 H   0  0  0  0  0  0  0  0  0  0  0  0
   -0.3699   -1.2052   -0.1123 H   0  0  0  0  0  0  0  0  0  0  0  0
   -1.1784   -0.6777    1.3758 H   0  0  0  0  0  0  0  0  0  0  0  0
   -0.5317    1.5233    1.0108 H   0  0  0  0  0  0  0  0  0  0  0  0
    1.8091    1.4080    1.1754 H   0  0  0  0  0  0  0  0  0  0  0  0
    1.0789   -0.1039    1.9340 H   0  0  0  0  0  0  0  0  0  0  0  0
    1.5767   -1.2991   -0.2105 H   0  0  0  0  0  0  0  0  0  0  0  0
    2.6460    1.2809   -0.9380 H   0  0  0  0  0  0  0  0  0  0  0  0
    4.8398    0.6902    0.0952 H   0  0  0  0  0  0  0  0  0  0  0  0
    5.4321   -0.9015    0.5867 H   0  0  0  0  0  0  0  0  0  0  0  0
   -4.4319    2.4787   -0.4883 H   0  0  0  0  0  0  0  0  0  0  0  0
  1  2  1  0
  2  3  1  0
  3  4  1  0
  4  5  1  0
  5  6  1  0
  6  7  1  0
  6  8  1  0
  8  9  1  0
  8 10  2  0
  2 11  1  0
 11 12  2  0
 11 13  1  0
  1 14  1  0
  1 15  1  0
  1 16  1  0
  2 17  1  6
  3 18  1  0
  3 19  1  0
  4 20  1  0
  5 21  1  0
  5 22  1  0
  6 23  1  6
  7 24  1  0
  9 25  1  0
  9 26  1  0
 13 27  1  0
M  END
$$$$

     RDKit          3D

 27 26  0  0  0  0  0  0  0  0999 V2000
   -3.2395   -0.8862   -0.4093 C   0  0  0  0  0  0  0  0  0  0  0  0
   -1.8316   -0.3201   -0.3775 C   0  0  2  0  0  0  0  0  0  0  0  0
   -1.1192   -0.9039    0.8017 C   0  0  0  0  0  0  0  0  0  0  0  0
    0.2299   -0.4611    0.9634 N   0  0  0  0  0  0  0  0  0  0  0  0
    1.1219   -0.9155   -0.0489 C   0  0  0  0  0  0  0  0  0  0  0  0
    2.5379   -0.4774    0.0871 C   0  0  1  0  0  0  0  0  0  0  0  0
    3.2442   -1.0346   -1.0019 O   0  0  0  0  0  0  0  0  0  0  0  0
    2.7581    0.9657    0.1031 C   0  0  0  0  0  0  0  0  0  0  0  0
    2.2294    1.8659    1.0442 N   0  0  0  0  0  0  0  0  0  0  0  0
    3.4867    1.4782   -0.7998 O   0  0  0  0  0  0  0  0  0  0  0  0
   -1.9250    1.1495   -0.3418 C   0  0  0  0  0  0  0  0  0  0  0  0
   -3.0232    1.7568   -0.3373 O   0  0  0  0  0  0  0  0  0  0  0  0
   -0.7811    1.9460   -0.3104 O   0  0  0  0  0  0  0  0  0  0  0  0
   -3.9039   -0.3107    0.2668 H   0  0  0  0  0  0  0  0  0  0  0  0
   -3.6994   -0.8228   -1.4176 H   0  0  0  0  0  0  0  0  0  0  0  0
   -3.2808   -1.9435   -0.0984 H   0  0  0  0  0  0  0  0  0  0  0  0
   -1.3421   -0.6645   -1.3129 H   0  0  0  0  0  0  0  0  0  0  0  0
   -1.2042   -2.0174    0.7301 H   0  0  0  0  0  0  0  0  0  0  0  0
   -1.7131   -0.6358    1.7195 H   0  0  0  0  0  0  0  0  0  0  0  0
    0.2996    0.5086    1.2660 H   0  0  0  0  0  0  0  0  0  0  0  0
    0.7599   -0.6506   -1.0746 H   0  0  0  0  0  0  0  0  0  0  0  0
    1.1268   -2.0432   -0.0102 H   0  0  0  0  0  0  0  0  0  0  0  0
    3.0112   -0.9353    1.0030 H   0  0  0  0  0  0  0  0  0  0  0  0
    2.9903   -1.9677   -1.0999 H   0  0  0  0  0  0  0  0  0  0  0  0
    2.3404    1.7198    2.0656 H   0  0  0  0  0  0  0  0  0  0  0  0
    1.7106    2.7054    0.7235 H   0  0  0  0  0  0  0  0  0  0  0  0
   -0.7834    2.8945   -0.6543 H   0  0  0  0  0  0  0  0  0  0  0  0
  1  2  1  0
  2  3  1  0
  3  4  1  0
  4  5  1  0
  5  6  1  0
  6  7  1  0
  6  8  1  0
  8  9  1  0
  8 10  2  0
  2 11  1  0
 11 12  2  0
 11 13  1  0
  1 14  1  0
  1 15  1  0
  1 16  1  0
  2 17  1  6
  3 18  1  0
  3 19  1  0
  4 20  1  0
  5 21  1  0
  5 22  1  0
  6 23  1  1
  7 24  1  0
  9 25  1  0
  9 26  1  0
 13 27  1  0
M  END
$$$$

     RDKit          3D

 27 26  0  0  0  0  0  0  0  0999 V2000
    3.1652   -0.1867   -1.2368 C   0  0  0  0  0  0  0  0  0  0  0  0
    2.3289   -0.4743   -0.0418 C   0  0  2  0  0  0  0  0  0  0  0  0
    0.8947   -0.7188   -0.3040 C   0  0  0  0  0  0  0  0  0  0  0  0
    0.1517    0.3038   -0.8946 N   0  0  0  0  0  0  0  0  0  0  0  0
   -1.1884    0.0421   -1.2097 C   0  0  0  0  0  0  0  0  0  0  0  0
   -2.0024   -0.1124    0.0221 C   0  0  1  0  0  0  0  0  0  0  0  0
   -1.9884    1.0235    0.8102 O   0  0  0  0  0  0  0  0  0  0  0  0
   -3.3907   -0.5652   -0.1724 C   0  0  0  0  0  0  0  0  0  0  0  0
   -4.4172    0.1095    0.5214 N   0  0  0  0  0  0  0  0  0  0  0  0
   -3.7166   -1.5199   -0.9187 O   0  0  0  0  0  0  0  0  0  0  0  0
    2.5476    0.6072    0.9593 C   0  0  0  0  0  0  0  0  0  0  0  0
    1.6162    1.3563    1.3209 O   0  0  0  0  0  0  0  0  0  0  0  0
    3.8230    0.7632    1.4813 O   0  0  0  0  0  0  0  0  0  0  0  0
    4.2311   -0.4101   -0.9546 H   0  0  0  0  0  0  0  0  0  0  0  0
    2.9257   -0.9443   -2.0250 H   0  0  0  0  0  0  0  0  0  0  0  0
    3.1180    0.8475   -1.5805 H   0  0  0  0  0  0  0  0  0  0  0  0
    2.7341   -1.4066    0.4440 H   0  0  0  0  0  0  0  0  0  0  0  0
    0.7971   -1.6181   -0.9884 H   0  0  0  0  0  0  0  0  0  0  0  0
    0.4386   -1.0392    0.6694 H   0  0  0  0  0  0  0  0  0  0  0  0
    0.6207    1.0926   -1.3391 H   0  0  0  0  0  0  0  0  0  0  0  0
   -1.6081    0.9043   -1.7949 H   0  0  0  0  0  0  0  0  0  0  0  0
   -1.2283   -0.8753   -1.8662 H   0  0  0  0  0  0  0  0  0  0  0  0
   -1.5197   -0.9219    0.6660 H   0  0  0  0  0  0  0  0  0  0  0  0
   -2.7947    1.5703    0.5462 H   0  0  0  0  0  0  0  0  0  0  0  0
   -4.4035    0.1006    1.5605 H   0  0  0  0  0  0  0  0  0  0  0  0
   -5.1736    0.6063    0.0310 H   0  0  0  0  0  0  0  0  0  0  0  0
    4.0389    1.4658    2.1741 H   0  0  0  0  0  0  0  0  0  0  0  0
  1  2  1  0
  2  3  1  0
  3  4  1  0
  4  5  1  0
  5  6  1  0
  6  7  1  0
  6  8  1  0
  8  9  1  0
  8 10  2  0
  2 11  1  0
 11 12  2  0
 11 13  1  0
  1 14  1  0
  1 15  1  0
  1 16  1  0
  2 17  1  1
  3 18  1  0
  3 19  1  0
  4 20  1  0
  5 21  1  0
  5 22  1  0
  6 23  1  1
  7 24  1  0
  9 25  1  0
  9 26  1  0
 13 27  1  0
M  END
$$$$

     RDKit          3D

 27 26  0  0  0  0  0  0  0  0999 V2000
    2.2881    0.5831    1.4733 C   0  0  0  0  0  0  0  0  0  0  0  0
    2.4013    0.0019    0.0681 C   0  0  2  0  0  0  0  0  0  0  0  0
    1.0896   -0.7033   -0.2168 C   0  0  0  0  0  0  0  0  0  0  0  0
    0.0101    0.2440   -0.1455 N   0  0  0  0  0  0  0  0  0  0  0  0
   -1.2650   -0.3750   -0.3366 C   0  0  0  0  0  0  0  0  0  0  0  0
   -2.3278    0.7117   -0.2831 C   0  0  1  0  0  0  0  0  0  0  0  0
   -2.0270    1.5991   -1.3256 O   0  0  0  0  0  0  0  0  0  0  0  0
   -3.6851    0.1297   -0.4636 C   0  0  0  0  0  0  0  0  0  0  0  0
   -4.1865   -0.7828    0.4971 N   0  0  0  0  0  0  0  0  0  0  0  0
   -4.3704    0.4654   -1.4810 O   0  0  0  0  0  0  0  0  0  0  0  0
    3.5438   -0.9264   -0.0333 C   0  0  0  0  0  0  0  0  0  0  0  0
    4.2753   -1.1878    0.9695 O   0  0  0  0  0  0  0  0  0  0  0  0
    3.8648   -1.5486   -1.2169 O   0  0  0  0  0  0  0  0  0  0  0  0
    1.3027    1.0977    1.4943 H   0  0  0  0  0  0  0  0  0  0  0  0
    3.1224    1.2646    1.7037 H   0  0  0  0  0  0  0  0  0  0  0  0
    2.2702   -0.2662    2.1809 H   0  0  0  0  0  0  0  0  0  0  0  0
    2.4925    0.8608   -0.6078 H   0  0  0  0  0  0  0  0  0  0  0  0
    0.9012   -1.4840    0.5465 H   0  0  0  0  0  0  0  0  0  0  0  0
    1.1722   -1.2118   -1.1938 H   0  0  0  0  0  0  0  0  0  0  0  0
    0.1754    1.0968   -0.7286 H   0  0  0  0  0  0  0  0  0  0  0  0
   -1.4085   -1.0469    0.5623 H   0  0  0  0  0  0  0  0  0  0  0  0
   -1.3711   -1.0169   -1.2069 H   0  0  0  0  0  0  0  0  0  0  0  0
   -2.2752    1.2625    0.6669 H   0  0  0  0  0  0  0  0  0  0  0  0
   -2.0583    2.5410   -1.0465 H   0  0  0  0  0  0  0  0  0  0  0  0
   -5.2218   -0.8642    0.5937 H   0  0  0  0  0  0  0  0  0  0  0  0
   -3.5445   -1.3382    1.0717 H   0  0  0  0  0  0  0  0  0  0  0  0
    4.8318   -1.6514   -1.5419 H   0  0  0  0  0  0  0  0  0  0  0  0
  1  2  1  0
  2  3  1  0
  3  4  1  0
  4  5  1  0
  5  6  1  0
  6  7  1  0
  6  8  1  0
  8  9  1  0
  8 10  2  0
  2 11  1  0
 11 12  2  0
 11 13  1  0
  1 14  1  0
  1 15  1  0
  1 16  1  0
  2 17  1  6
  3 18  1  0
  3 19  1  0
  4 20  1  0
  5 21  1  0
  5 22  1  0
  6 23  1  1
  7 24  1  0
  9 25  1  0
  9 26  1  0
 13 27  1  0
M  END
$$$$
