
     RDKit          3D

 16 15  0  0  0  0  0  0  0  0999 V2000
   -3.1696    1.9744    1.5141 N   0  0  0  0  0  0  0  0  0  0  0  0
   -2.4052    1.3187    0.9082 C   0  0  0  0  0  0  0  0  0  0  0  0
   -1.5023    0.5472    0.1664 N   0  0  0  0  0  0  0  0  0  0  0  0
   -0.5096   -0.2332    0.8932 C   0  0  0  0  0  0  0  0  0  0  0  0
    0.3828   -1.0051   -0.0494 C   0  0  1  0  0  0  0  0  0  0  0  0
   -0.3298   -1.8898   -0.8378 O   0  0  0  0  0  0  0  0  0  0  0  0
    1.1593   -0.0425   -0.8627 C   0  0  0  0  0  0  0  0  0  0  0  0
    1.9752    0.9698   -0.3015 N   0  0  0  0  0  0  0  0  0  0  0  0
    1.0901   -0.1290   -2.1112 O   0  0  0  0  0  0  0  0  0  0  0  0
   -1.5508    0.5413   -0.8755 H   0  0  0  0  0  0  0  0  0  0  0  0
    0.0915    0.4792    1.4719 H   0  0  0  0  0  0  0  0  0  0  0  0
   -1.0570   -0.8873    1.5929 H   0  0  0  0  0  0  0  0  0  0  0  0
    1.0873   -1.5860    0.5933 H   0  0  0  0  0  0  0  0  0  0  0  0
    0.1952   -2.7320   -1.0099 H   0  0  0  0  0  0  0  0  0  0  0  0
    2.8594    1.2602   -0.7804 H   0  0  0  0  0  0  0  0  0  0  0  0
    1.6834    1.4141    0.5845 H   0  0  0  0  0  0  0  0  0  0  0  0
  1  2  3  0
  2  3  1  0
  3  4  1  0
  4  5  1  0
  5  6  1  0
  5  7  1  0
  7  8  1  0
  7  9  2  0
  3 10  1  0
  4 11  1  0
  4 12  1  0
  5 13  1  1
  6 14  1  0
  8 15  1  0
  8 16  1  0
M  END
$$$$

     RDKit          3D

 16 15  0  0  0  0  0  0  0  0999 V2000
    1.9141    0.7221   -3.2722 N   0  0  0  0  0  0  0  0  0  0  0  0
    1.9959    0.7710   -2.0792 C   0  0  0  0  0  0  0  0  0  0  0  0
    2.1045    0.8125   -0.6522 N   0  0  0  0  0  0  0  0  0  0  0  0
    0.9378    1.0370    0.0847 C   0  0  0  0  0  0  0  0  0  0  0  0
   -0.0522   -0.0658    0.0820 C   0  0  1  0  0  0  0  0  0  0  0  0
    0.2560   -1.1600    0.9270 O   0  0  0  0  0  0  0  0  0  0  0  0
   -1.4190    0.3197    0.3327 C   0  0  0  0  0  0  0  0  0  0  0  0
   -2.4479   -0.4042    0.9676 N   0  0  0  0  0  0  0  0  0  0  0  0
   -1.8252    1.5037   -0.0529 O   0  0  0  0  0  0  0  0  0  0  0  0
    3.0379    0.7200   -0.2649 H   0  0  0  0  0  0  0  0  0  0  0  0
    0.4090    2.0351   -0.1445 H   0  0  0  0  0  0  0  0  0  0  0  0
    1.2675    1.2164    1.1688 H   0  0  0  0  0  0  0  0  0  0  0  0
   -0.0083   -0.5877   -0.9703 H   0  0  0  0  0  0  0  0  0  0  0  0
   -0.4984   -1.3118    1.5196 H   0  0  0  0  0  0  0  0  0  0  0  0
   -2.9861   -1.1443    0.3993 H   0  0  0  0  0  0  0  0  0  0  0  0
   -2.6857   -0.2871    1.9545 H   0  0  0  0  0  0  0  0  0  0  0  0
  1  2  3  0
  2  3  1  0
  3  4  1  0
  4  5  1  0
  5  6  1  0
  5  7  1  0
  7  8  1  0
  7  9  2  0
  3 10  1  0
  4 11  1  0
  4 12  1  0
  5 13  1  6
  6 14  1  0
  8 15  1  0
  8 16  1  0
M  END
$$$$

     RDKit          3D

 16 15  0  0  0  0  0  0  0  0999 V2000
    3.1120    1.4457   -1.5215 N   0  0  0  0  0  0  0  0  0  0  0  0
    2.5537    0.9200   -0.6499 C   0  0  0  0  0  0  0  0  0  0  0  0
    1.8988    0.2770    0.4157 N   0  0  0  0  0  0  0  0  0  0  0  0
    0.9765   -0.7935    0.1363 C   0  0  0  0  0  0  0  0  0  0  0  0
   -0.2667   -0.3282   -0.5657 C   0  0  1  0  0  0  0  0  0  0  0  0
   -1.0690   -1.4479   -0.7827 O   0  0  0  0  0  0  0  0  0  0  0  0
   -1.0380    0.6864    0.1684 C   0  0  0  0  0  0  0  0  0  0  0  0
   -2.3917    0.4903    0.5452 N   0  0  0  0  0  0  0  0  0  0  0  0
   -0.5036    1.7779    0.4867 O   0  0  0  0  0  0  0  0  0  0  0  0
    2.0441    0.5315    1.4122 H   0  0  0  0  0  0  0  0  0  0  0  0
    0.6733   -1.3287    1.0520 H   0  0  0  0  0  0  0  0  0  0  0  0
    1.4905   -1.5116   -0.5127 H   0  0  0  0  0  0  0  0  0  0  0  0
   -0.0042    0.0469   -1.5935 H   0  0  0  0  0  0  0  0  0  0  0  0
   -1.6758   -1.6296   -0.0270 H   0  0  0  0  0  0  0  0  0  0  0  0
   -3.1143    0.0318   -0.0457 H   0  0  0  0  0  0  0  0  0  0  0  0
   -2.6856    0.8320    1.4823 H   0  0  0  0  0  0  0  0  0  0  0  0
  1  2  3  0
  2  3  1  0
  3  4  1  0
  4  5  1  0
  5  6  1  0
  5  7  1  0
  7  8  1  0
  7  9  2  0
  3 10  1  0
  4 11  1  0
  4 12  1  0
  5 13  1  6
  6 14  1  0
  8 15  1  0
  8 16  1  0
M  END
$$$$

     RDKit          3D

 16 15  0  0  0  0  0  0  0  0999 V2000
   -2.8366    0.6210   -1.7305 N   0  0  0  0  0  0  0  0  0  0  0  0
   -2.3398   -0.1526   -0.9902 C   0  0  0  0  0  0  0  0  0  0  0  0
   -1.7601   -1.0556   -0.1243 N   0  0  0  0  0  0  0  0  0  0  0  0
   -0.3655   -1.2493   -0.0158 C   0  0  0  0  0  0  0  0  0  0  0  0
    0.4617   -0.1827    0.6065 C   0  0  1  0  0  0  0  0  0  0  0  0
    1.8285   -0.5800    0.6202 O   0  0  0  0  0  0  0  0  0  0  0  0
    0.3772    1.1590    0.0155 C   0  0  0  0  0  0  0  0  0  0  0  0
    1.5352    1.7156   -0.5680 N   0  0  0  0  0  0  0  0  0  0  0  0
   -0.6560    1.8688   -0.0167 O   0  0  0  0  0  0  0  0  0  0  0  0
   -2.4341   -1.6153    0.4720 H   0  0  0  0  0  0  0  0  0  0  0  0
    0.0888   -1.4067   -1.0547 H   0  0  0  0  0  0  0  0  0  0  0  0
   -0.1013   -2.2374    0.4801 H   0  0  0  0  0  0  0  0  0  0  0  0
    0.2114   -0.0724    1.6925 H   0  0  0  0  0  0  0  0  0  0  0  0
    2.0667   -0.6610   -0.3491 H   0  0  0  0  0  0  0  0  0  0  0  0
    2.4636    1.5873   -0.1349 H   0  0  0  0  0  0  0  0  0  0  0  0
    1.4603    2.2613   -1.4414 H   0  0  0  0  0  0  0  0  0  0  0  0
  1  2  3  0
  2  3  1  0
  3  4  1  0
  4  5  1  0
  5  6  1  0
  5  7  1  0
  7  8  1  0
  7  9  2  0
  3 10  1  0
  4 11  1  0
  4 12  1  0
  5 13  1  1
  6 14  1  0
  8 15  1  0
  8 16  1  0
M  END
$$$$

     RDKit          3D

 16 15  0  0  0  0  0  0  0  0999 V2000
    3.4920    0.0403   -1.0367 N   0  0  0  0  0  0  0  0  0  0  0  0
    2.4111   -0.2557   -1.3563 C   0  0  0  0  0  0  0  0  0  0  0  0
    1.1055   -0.5992   -1.7351 N   0  0  0  0  0  0  0  0  0  0  0  0
   -0.0378   -0.0247   -1.1081 C   0  0  0  0  0  0  0  0  0  0  0  0
   -0.2652   -0.4269    0.3192 C   0  0  1  0  0  0  0  0  0  0  0  0
    0.7458   -0.1289    1.1917 O   0  0  0  0  0  0  0  0  0  0  0  0
   -1.5207    0.2431    0.7787 C   0  0  0  0  0  0  0  0  0  0  0  0
   -1.5003    0.9947    1.9880 N   0  0  0  0  0  0  0  0  0  0  0  0
   -2.5719    0.1510    0.1223 O   0  0  0  0  0  0  0  0  0  0  0  0
    1.0086   -1.2974   -2.4993 H   0  0  0  0  0  0  0  0  0  0  0  0
   -0.0098    1.0749   -1.2211 H   0  0  0  0  0  0  0  0  0  0  0  0
   -0.9606   -0.3553   -1.6743 H   0  0  0  0  0  0  0  0  0  0  0  0
   -0.4923   -1.5338    0.3902 H   0  0  0  0  0  0  0  0  0  0  0  0
    1.6246   -0.4812    0.9718 H   0  0  0  0  0  0  0  0  0  0  0  0
   -0.9108    0.7695    2.8177 H   0  0  0  0  0  0  0  0  0  0  0  0
   -2.1183    1.8297    2.0512 H   0  0  0  0  0  0  0  0  0  0  0  0
  1  2  3  0
  2  3  1  0
  3  4  1  0
  4  5  1  0
  5  6  1  0
  5  7  1  0
  7  8  1  0
  7  9  2  0
  3 10  1  0
  4 11  1  0
  4 12  1  0
  5 13  1  6
  6 14  1  0
  8 15  1  0
  8 16  1  0
M  END
$$$$

     RDKit          3D

 16 15  0  0  0  0  0  0  0  0999 V2000
    4.2334    0.0441   -1.1096 N   0  0  0  0  0  0  0  0  0  0  0  0
    3.2088    0.2347   -0.5650 C   0  0  0  0  0  0  0  0  0  0  0  0
    1.9808    0.4480    0.0647 N   0  0  0  0  0  0  0  0  0  0  0  0
    0.8243   -0.2798   -0.4619 C   0  0  0  0  0  0  0  0  0  0  0  0
   -0.4246    0.0554    0.3211 C   0  0  1  0  0  0  0  0  0  0  0  0
   -0.7390    1.3912    0.2795 O   0  0  0  0  0  0  0  0  0  0  0  0
   -1.5053   -0.8201   -0.1646 C   0  0  0  0  0  0  0  0  0  0  0  0
   -2.7125   -0.2598   -0.6109 N   0  0  0  0  0  0  0  0  0  0  0  0
   -1.3524   -2.0620   -0.1815 O   0  0  0  0  0  0  0  0  0  0  0  0
    1.8490    1.0749    0.8603 H   0  0  0  0  0  0  0  0  0  0  0  0
    0.7447   -0.0369   -1.5236 H   0  0  0  0  0  0  0  0  0  0  0  0
    1.0493   -1.3501   -0.3336 H   0  0  0  0  0  0  0  0  0  0  0  0
   -0.2364   -0.2193    1.3854 H   0  0  0  0  0  0  0  0  0  0  0  0
   -0.5927    1.8128   -0.5979 H   0  0  0  0  0  0  0  0  0  0  0  0
   -2.6981    0.7019   -1.0128 H   0  0  0  0  0  0  0  0  0  0  0  0
   -3.6294   -0.7351   -0.5710 H   0  0  0  0  0  0  0  0  0  0  0  0
  1  2  3  0
  2  3  1  0
  3  4  1  0
  4  5  1  0
  5  6  1  0
  5  7  1  0
  7  8  1  0
  7  9  2  0
  3 10  1  0
  4 11  1  0
  4 12  1  0
  5 13  1  1
  6 14  1  0
  8 15  1  0
  8 16  1  0
M  END
$$$$

     RDKit          3D

 16 15  0  0  0  0  0  0  0  0999 V2000
    3.4099    2.2379   -0.6502 N   0  0  0  0  0  0  0  0  0  0  0  0
    2.3902    1.7174   -0.5052 C   0  0  0  0  0  0  0  0  0  0  0  0
    1.1468    1.0620   -0.3355 N   0  0  0  0  0  0  0  0  0  0  0  0
    1.0432   -0.1463    0.4531 C   0  0  0  0  0  0  0  0  0  0  0  0
   -0.3750   -0.6283    0.4682 C   0  0  1  0  0  0  0  0  0  0  0  0
   -1.1946    0.3277    1.0129 O   0  0  0  0  0  0  0  0  0  0  0  0
   -0.7718   -1.0147   -0.9054 C   0  0  0  0  0  0  0  0  0  0  0  0
   -1.8819   -0.4494   -1.5745 N   0  0  0  0  0  0  0  0  0  0  0  0
   -0.1048   -1.8819   -1.5205 O   0  0  0  0  0  0  0  0  0  0  0  0
    0.3115    1.4556   -0.7814 H   0  0  0  0  0  0  0  0  0  0  0  0
    1.4346    0.0397    1.4750 H   0  0  0  0  0  0  0  0  0  0  0  0
    1.7142   -0.9391    0.0211 H   0  0  0  0  0  0  0  0  0  0  0  0
   -0.4210   -1.5234    1.1438 H   0  0  0  0  0  0  0  0  0  0  0  0
   -2.1515    0.2251    0.7119 H   0  0  0  0  0  0  0  0  0  0  0  0
   -2.8400   -0.7971   -1.3853 H   0  0  0  0  0  0  0  0  0  0  0  0
   -1.7096    0.3150   -2.2525 H   0  0  0  0  0  0  0  0  0  0  0  0
  1  2  3  0
  2  3  1  0
  3  4  1  0
  4  5  1  0
  5  6  1  0
  5  7  1  0
  7  8  1  0
  7  9  2  0
  3 10  1  0
  4 11  1  0
  4 12  1  0
  5 13  1  1
  6 14  1  0
  8 15  1  0
  8 16  1  0
M  END
$$$$

     RDKit          3D

 16 15  0  0  0  0  0  0  0  0999 V2000
    1.9312    1.8986    2.5787 N   0  0  0  0  0  0  0  0  0  0  0  0
    1.3773    0.8950    2.3874 C   0  0  0  0  0  0  0  0  0  0  0  0
    0.6896   -0.3047    2.1641 N   0  0  0  0  0  0  0  0  0  0  0  0
    0.4285   -0.8013    0.8537 C   0  0  0  0  0  0  0  0  0  0  0  0
   -0.5541    0.0337    0.0803 C   0  0  1  0  0  0  0  0  0  0  0  0
   -0.1541    1.3426   -0.1067 O   0  0  0  0  0  0  0  0  0  0  0  0
   -0.7026   -0.6030   -1.2774 C   0  0  0  0  0  0  0  0  0  0  0  0
   -0.4500    0.1328   -2.4643 N   0  0  0  0  0  0  0  0  0  0  0  0
   -1.0541   -1.8026   -1.3978 O   0  0  0  0  0  0  0  0  0  0  0  0
    0.3579   -0.8482    2.9865 H   0  0  0  0  0  0  0  0  0  0  0  0
   -0.0025   -1.8175    0.9261 H   0  0  0  0  0  0  0  0  0  0  0  0
    1.3447   -0.8998    0.2280 H   0  0  0  0  0  0  0  0  0  0  0  0
   -1.5621    0.0504    0.5361 H   0  0  0  0  0  0  0  0  0  0  0  0
   -0.9421    1.9042   -0.3226 H   0  0  0  0  0  0  0  0  0  0  0  0
   -1.0133    0.9835   -2.6817 H   0  0  0  0  0  0  0  0  0  0  0  0
    0.3056   -0.1639   -3.1411 H   0  0  0  0  0  0  0  0  0  0  0  0
  1  2  3  0
  2  3  1  0
  3  4  1  0
  4  5  1  0
  5  6  1  0
  5  7  1  0
  7  8  1  0
  7  9  2  0
  3 10  1  0
  4 11  1  0
  4 12  1  0
  5 13  1  1
  6 14  1  0
  8 15  1  0
  8 16  1  0
M  END
$$$$
