
     RDKit          3D

 25 25  0  0  0  0  0  0  0  0999 V2000
    4.3033   -0.5647   -0.6306 N   0  0  0  0  0  0  0  0  0  0  0  0
    3.0473    0.0627   -0.8265 C   0  0  0  0  0  0  0  0  0  0  0  0
    2.9624    1.0280   -1.6271 O   0  0  0  0  0  0  0  0  0  0  0  0
    1.8171   -0.3689   -0.1260 C   0  0  1  0  0  0  0  0  0  0  0  0
    2.1282   -1.4617    0.7222 O   0  0  0  0  0  0  0  0  0  0  0  0
    1.3706    0.7601    0.7577 C   0  0  0  0  0  0  0  0  0  0  0  0
    0.2132    0.3539    1.4881 N   0  0  0  0  0  0  0  0  0  0  0  0
   -1.0452    0.2440    0.8852 C   0  0  0  0  0  0  0  0  0  0  0  0
   -1.2635    0.5997   -0.4231 C   0  0  0  0  0  0  0  0  0  0  0  0
   -2.5383    0.4428   -0.9607 C   0  0  0  0  0  0  0  0  0  0  0  0
   -3.5541   -0.0578   -0.1923 C   0  0  0  0  0  0  0  0  0  0  0  0
   -4.8641   -0.2280   -0.7164 N   0  0  0  0  0  0  0  0  0  0  0  0
   -3.3008   -0.3944    1.0862 N   0  0  0  0  0  0  0  0  0  0  0  0
   -2.0980   -0.2482    1.5980 N   0  0  0  0  0  0  0  0  0  0  0  0
    4.9532   -0.6345   -1.4480 H   0  0  0  0  0  0  0  0  0  0  0  0
    4.5315   -0.9317    0.3174 H   0  0  0  0  0  0  0  0  0  0  0  0
    1.0239   -0.6853   -0.7948 H   0  0  0  0  0  0  0  0  0  0  0  0
    2.4207   -1.0950    1.6053 H   0  0  0  0  0  0  0  0  0  0  0  0
    2.2127    0.9873    1.4684 H   0  0  0  0  0  0  0  0  0  0  0  0
    1.2228    1.7069    0.1939 H   0  0  0  0  0  0  0  0  0  0  0  0
    0.3199    0.1341    2.5031 H   0  0  0  0  0  0  0  0  0  0  0  0
   -0.4974    1.0162   -1.0705 H   0  0  0  0  0  0  0  0  0  0  0  0
   -2.6926    0.7251   -1.9855 H   0  0  0  0  0  0  0  0  0  0  0  0
   -5.6181   -0.6071   -0.1320 H   0  0  0  0  0  0  0  0  0  0  0  0
   -5.0545    0.0328   -1.6920 H   0  0  0  0  0  0  0  0  0  0  0  0
  1  2  1  0
  2  3  2  0
  2  4  1  0
  4  5  1  0
  4  6  1  0
  6  7  1  0
  7  8  1  0
  8  9  2  0
  9 10  1  0
 10 11  2  0
 11 12  1  0
 11 13  1  0
 13 14  2  0
 14  8  1  0
  1 15  1  0
  1 16  1  0
  4 17  1  6
  5 18  1  0
  6 19  1  0
  6 20  1  0
  7 21  1  0
  9 22  1  0
 10 23  1  0
 12 24  1  0
 12 25  1  0
M  END
$$$$

     RDKit          3D

 25 25  0  0  0  0  0  0  0  0999 V2000
    4.2268    0.5733   -1.0323 N   0  0  0  0  0  0  0  0  0  0  0  0
    3.1553   -0.3724   -0.8903 C   0  0  0  0  0  0  0  0  0  0  0  0
    2.7038   -0.9542   -1.9080 O   0  0  0  0  0  0  0  0  0  0  0  0
    2.6298   -0.6178    0.4621 C   0  0  1  0  0  0  0  0  0  0  0  0
    3.3288    0.1605    1.4017 O   0  0  0  0  0  0  0  0  0  0  0  0
    1.2017   -0.1891    0.5307 C   0  0  0  0  0  0  0  0  0  0  0  0
    0.3096   -0.8770   -0.3546 N   0  0  0  0  0  0  0  0  0  0  0  0
   -1.0539   -0.5336   -0.3744 C   0  0  0  0  0  0  0  0  0  0  0  0
   -1.5464    0.4555    0.4454 C   0  0  0  0  0  0  0  0  0  0  0  0
   -2.8811    0.8049    0.4387 C   0  0  0  0  0  0  0  0  0  0  0  0
   -3.6956    0.1166   -0.4272 C   0  0  0  0  0  0  0  0  0  0  0  0
   -5.0791    0.4436   -0.4677 N   0  0  0  0  0  0  0  0  0  0  0  0
   -3.2025   -0.8650   -1.2397 N   0  0  0  0  0  0  0  0  0  0  0  0
   -1.9038   -1.1601   -1.1902 N   0  0  0  0  0  0  0  0  0  0  0  0
    4.9584    0.3366   -1.7431 H   0  0  0  0  0  0  0  0  0  0  0  0
    4.2118    1.4076   -0.4406 H   0  0  0  0  0  0  0  0  0  0  0  0
    2.6882   -1.6856    0.7587 H   0  0  0  0  0  0  0  0  0  0  0  0
    2.7162    0.4394    2.1286 H   0  0  0  0  0  0  0  0  0  0  0  0
    0.8521   -0.3827    1.5837 H   0  0  0  0  0  0  0  0  0  0  0  0
    1.0712    0.9021    0.3754 H   0  0  0  0  0  0  0  0  0  0  0  0
    0.6906   -1.6403   -0.9839 H   0  0  0  0  0  0  0  0  0  0  0  0
   -0.8737    0.9741    1.1129 H   0  0  0  0  0  0  0  0  0  0  0  0
   -3.2883    1.5670    1.0633 H   0  0  0  0  0  0  0  0  0  0  0  0
   -5.7883   -0.3259   -0.4190 H   0  0  0  0  0  0  0  0  0  0  0  0
   -5.4316    1.4224   -0.5443 H   0  0  0  0  0  0  0  0  0  0  0  0
  1  2  1  0
  2  3  2  0
  2  4  1  0
  4  5  1  0
  4  6  1  0
  6  7  1  0
  7  8  1  0
  8  9  2  0
  9 10  1  0
 10 11  2  0
 11 12  1  0
 11 13  1  0
 13 14  2  0
 14  8  1  0
  1 15  1  0
  1 16  1  0
  4 17  1  1
  5 18  1  0
  6 19  1  0
  6 20  1  0
  7 21  1  0
  9 22  1  0
 10 23  1  0
 12 24  1  0
 12 25  1  0
M  END
$$$$

     RDKit          3D

 25 25  0  0  0  0  0  0  0  0999 V2000
    4.3841   -1.2159   -0.8286 N   0  0  0  0  0  0  0  0  0  0  0  0
    3.4912   -0.8817    0.2097 C   0  0  0  0  0  0  0  0  0  0  0  0
    3.3862   -1.5831    1.2480 O   0  0  0  0  0  0  0  0  0  0  0  0
    2.6514    0.3345    0.0709 C   0  0  1  0  0  0  0  0  0  0  0  0
    2.9031    0.9762   -1.1313 O   0  0  0  0  0  0  0  0  0  0  0  0
    1.2056   -0.1268    0.0860 C   0  0  0  0  0  0  0  0  0  0  0  0
    0.3506    1.0132   -0.0492 N   0  0  0  0  0  0  0  0  0  0  0  0
   -1.0722    0.8332   -0.0624 C   0  0  0  0  0  0  0  0  0  0  0  0
   -1.6163   -0.4202    0.0533 C   0  0  0  0  0  0  0  0  0  0  0  0
   -2.9737   -0.5895    0.0405 C   0  0  0  0  0  0  0  0  0  0  0  0
   -3.8103    0.5092   -0.0901 C   0  0  0  0  0  0  0  0  0  0  0  0
   -5.2369    0.3487   -0.1053 N   0  0  0  0  0  0  0  0  0  0  0  0
   -3.2261    1.7173   -0.2003 N   0  0  0  0  0  0  0  0  0  0  0  0
   -1.9124    1.8762   -0.1873 N   0  0  0  0  0  0  0  0  0  0  0  0
    5.0736   -0.5046   -1.1589 H   0  0  0  0  0  0  0  0  0  0  0  0
    4.3149   -2.1772   -1.2284 H   0  0  0  0  0  0  0  0  0  0  0  0
    2.7867    1.0314    0.9217 H   0  0  0  0  0  0  0  0  0  0  0  0
    2.4222    0.5187   -1.8635 H   0  0  0  0  0  0  0  0  0  0  0  0
    0.9728   -0.6074    1.0626 H   0  0  0  0  0  0  0  0  0  0  0  0
    1.0784   -0.8168   -0.7522 H   0  0  0  0  0  0  0  0  0  0  0  0
    0.7244    1.9889   -0.1405 H   0  0  0  0  0  0  0  0  0  0  0  0
   -0.9605   -1.2758    0.1551 H   0  0  0  0  0  0  0  0  0  0  0  0
   -3.4361   -1.5650    0.1297 H   0  0  0  0  0  0  0  0  0  0  0  0
   -5.7989    1.0323   -0.6739 H   0  0  0  0  0  0  0  0  0  0  0  0
   -5.7019   -0.4155    0.4260 H   0  0  0  0  0  0  0  0  0  0  0  0
  1  2  1  0
  2  3  2  0
  2  4  1  0
  4  5  1  0
  4  6  1  0
  6  7  1  0
  7  8  1  0
  8  9  2  0
  9 10  1  0
 10 11  2  0
 11 12  1  0
 11 13  1  0
 13 14  2  0
 14  8  1  0
  1 15  1  0
  1 16  1  0
  4 17  1  1
  5 18  1  0
  6 19  1  0
  6 20  1  0
  7 21  1  0
  9 22  1  0
 10 23  1  0
 12 24  1  0
 12 25  1  0
M  END
$$$$

     RDKit          3D

 25 25  0  0  0  0  0  0  0  0999 V2000
   -3.6975   -1.6691    0.1893 N   0  0  0  0  0  0  0  0  0  0  0  0
   -2.8887   -0.6838    0.7881 C   0  0  0  0  0  0  0  0  0  0  0  0
   -2.6768   -0.7524    2.0258 O   0  0  0  0  0  0  0  0  0  0  0  0
   -2.2844    0.4252    0.0011 C   0  0  1  0  0  0  0  0  0  0  0  0
   -1.5483    1.2394    0.8187 O   0  0  0  0  0  0  0  0  0  0  0  0
   -1.4705   -0.0690   -1.1462 C   0  0  0  0  0  0  0  0  0  0  0  0
   -0.3116   -0.8149   -0.8364 N   0  0  0  0  0  0  0  0  0  0  0  0
    0.9581   -0.3724   -0.4266 C   0  0  0  0  0  0  0  0  0  0  0  0
    1.2718    0.9582   -0.3695 C   0  0  0  0  0  0  0  0  0  0  0  0
    2.5280    1.4136    0.0645 C   0  0  0  0  0  0  0  0  0  0  0  0
    3.4303    0.4419    0.4299 C   0  0  0  0  0  0  0  0  0  0  0  0
    4.7144    0.9034    0.8737 N   0  0  0  0  0  0  0  0  0  0  0  0
    3.1257   -0.8649    0.3740 N   0  0  0  0  0  0  0  0  0  0  0  0
    1.9308   -1.2331   -0.0410 N   0  0  0  0  0  0  0  0  0  0  0  0
   -3.3139   -2.6096    0.0141 H   0  0  0  0  0  0  0  0  0  0  0  0
   -4.6696   -1.4488   -0.0721 H   0  0  0  0  0  0  0  0  0  0  0  0
   -3.1715    1.0329   -0.3507 H   0  0  0  0  0  0  0  0  0  0  0  0
   -1.8145    2.1932    0.7831 H   0  0  0  0  0  0  0  0  0  0  0  0
   -2.1821   -0.6536   -1.8030 H   0  0  0  0  0  0  0  0  0  0  0  0
   -1.1434    0.7794   -1.8195 H   0  0  0  0  0  0  0  0  0  0  0  0
   -0.4020   -1.8807   -0.9236 H   0  0  0  0  0  0  0  0  0  0  0  0
    0.5511    1.6967   -0.6830 H   0  0  0  0  0  0  0  0  0  0  0  0
    2.7456    2.4717    0.0992 H   0  0  0  0  0  0  0  0  0  0  0  0
    5.1467    0.5375    1.7376 H   0  0  0  0  0  0  0  0  0  0  0  0
    5.1722    1.6218    0.2727 H   0  0  0  0  0  0  0  0  0  0  0  0
  1  2  1  0
  2  3  2  0
  2  4  1  0
  4  5  1  0
  4  6  1  0
  6  7  1  0
  7  8  1  0
  8  9  2  0
  9 10  1  0
 10 11  2  0
 11 12  1  0
 11 13  1  0
 13 14  2  0
 14  8  1  0
  1 15  1  0
  1 16  1  0
  4 17  1  6
  5 18  1  0
  6 19  1  0
  6 20  1  0
  7 21  1  0
  9 22  1  0
 10 23  1  0
 12 24  1  0
 12 25  1  0
M  END
$$$$

     RDKit          3D

 25 25  0  0  0  0  0  0  0  0999 V2000
    4.0915   -0.3985   -1.0046 N   0  0  0  0  0  0  0  0  0  0  0  0
    2.6930   -0.1995   -0.9422 C   0  0  0  0  0  0  0  0  0  0  0  0
    2.0908    0.1657   -1.9730 O   0  0  0  0  0  0  0  0  0  0  0  0
    1.9645   -0.4255    0.3380 C   0  0  1  0  0  0  0  0  0  0  0  0
    2.8790   -0.8317    1.3426 O   0  0  0  0  0  0  0  0  0  0  0  0
    1.3257    0.8248    0.8487 C   0  0  0  0  0  0  0  0  0  0  0  0
    0.3545    1.4278    0.0053 N   0  0  0  0  0  0  0  0  0  0  0  0
   -0.9214    0.9202   -0.2785 C   0  0  0  0  0  0  0  0  0  0  0  0
   -1.3663   -0.2270    0.3215 C   0  0  0  0  0  0  0  0  0  0  0  0
   -2.6312   -0.7330    0.0210 C   0  0  0  0  0  0  0  0  0  0  0  0
   -3.4160   -0.0619   -0.8818 C   0  0  0  0  0  0  0  0  0  0  0  0
   -4.7181   -0.5590   -1.2085 N   0  0  0  0  0  0  0  0  0  0  0  0
   -2.9509    1.0515   -1.4458 N   0  0  0  0  0  0  0  0  0  0  0  0
   -1.7547    1.5269   -1.1597 N   0  0  0  0  0  0  0  0  0  0  0  0
    4.7116    0.3497   -1.3960 H   0  0  0  0  0  0  0  0  0  0  0  0
    4.4614   -1.3109   -0.6472 H   0  0  0  0  0  0  0  0  0  0  0  0
    1.3128   -1.2852    0.1882 H   0  0  0  0  0  0  0  0  0  0  0  0
    2.4616   -0.7359    2.2268 H   0  0  0  0  0  0  0  0  0  0  0  0
    2.1382    1.5371    1.1108 H   0  0  0  0  0  0  0  0  0  0  0  0
    0.8150    0.5417    1.8141 H   0  0  0  0  0  0  0  0  0  0  0  0
    0.6143    2.3518   -0.4574 H   0  0  0  0  0  0  0  0  0  0  0  0
   -0.7774   -0.7800    1.0520 H   0  0  0  0  0  0  0  0  0  0  0  0
   -2.9944   -1.6335    0.4838 H   0  0  0  0  0  0  0  0  0  0  0  0
   -4.9796   -1.5206   -0.9197 H   0  0  0  0  0  0  0  0  0  0  0  0
   -5.4037    0.0049   -1.7201 H   0  0  0  0  0  0  0  0  0  0  0  0
  1  2  1  0
  2  3  2  0
  2  4  1  0
  4  5  1  0
  4  6  1  0
  6  7  1  0
  7  8  1  0
  8  9  2  0
  9 10  1  0
 10 11  2  0
 11 12  1  0
 11 13  1  0
 13 14  2  0
 14  8  1  0
  1 15  1  0
  1 16  1  0
  4 17  1  6
  5 18  1  0
  6 19  1  0
  6 20  1  0
  7 21  1  0
  9 22  1  0
 10 23  1  0
 12 24  1  0
 12 25  1  0
M  END
$$$$

     RDKit          3D

 25 25  0  0  0  0  0  0  0  0999 V2000
   -3.8228    1.3438   -0.4938 N   0  0  0  0  0  0  0  0  0  0  0  0
   -3.7562   -0.0564   -0.2626 C   0  0  0  0  0  0  0  0  0  0  0  0
   -4.6150   -0.8498   -0.7080 O   0  0  0  0  0  0  0  0  0  0  0  0
   -2.6375   -0.5886    0.5284 C   0  0  1  0  0  0  0  0  0  0  0  0
   -2.7266   -1.9788    0.6582 O   0  0  0  0  0  0  0  0  0  0  0  0
   -1.3270   -0.1747   -0.0740 C   0  0  0  0  0  0  0  0  0  0  0  0
   -0.2244   -0.6221    0.7679 N   0  0  0  0  0  0  0  0  0  0  0  0
    1.1254   -0.3571    0.4209 C   0  0  0  0  0  0  0  0  0  0  0  0
    1.4304    0.3292   -0.7192 C   0  0  0  0  0  0  0  0  0  0  0  0
    2.7372    0.5915   -1.0649 C   0  0  0  0  0  0  0  0  0  0  0  0
    3.7136    0.1210   -0.1935 C   0  0  0  0  0  0  0  0  0  0  0  0
    5.0814    0.3911   -0.5478 N   0  0  0  0  0  0  0  0  0  0  0  0
    3.3838   -0.5447    0.9098 N   0  0  0  0  0  0  0  0  0  0  0  0
    2.1175   -0.7777    1.2089 N   0  0  0  0  0  0  0  0  0  0  0  0
   -4.7921    1.7768   -0.4371 H   0  0  0  0  0  0  0  0  0  0  0  0
   -2.9849    1.9268   -0.7069 H   0  0  0  0  0  0  0  0  0  0  0  0
   -2.6952   -0.1224    1.5439 H   0  0  0  0  0  0  0  0  0  0  0  0
   -1.8207   -2.3704    0.6705 H   0  0  0  0  0  0  0  0  0  0  0  0
   -1.2027   -0.5874   -1.0970 H   0  0  0  0  0  0  0  0  0  0  0  0
   -1.3022    0.9210   -0.1417 H   0  0  0  0  0  0  0  0  0  0  0  0
   -0.4434   -1.1534    1.6518 H   0  0  0  0  0  0  0  0  0  0  0  0
    0.6437    0.6702   -1.3567 H   0  0  0  0  0  0  0  0  0  0  0  0
    3.0212    1.1257   -1.9487 H   0  0  0  0  0  0  0  0  0  0  0  0
    5.3567    1.3938   -0.6726 H   0  0  0  0  0  0  0  0  0  0  0  0
    5.7398   -0.4074   -0.6661 H   0  0  0  0  0  0  0  0  0  0  0  0
  1  2  1  0
  2  3  2  0
  2  4  1  0
  4  5  1  0
  4  6  1  0
  6  7  1  0
  7  8  1  0
  8  9  2  0
  9 10  1  0
 10 11  2  0
 11 12  1  0
 11 13  1  0
 13 14  2  0
 14  8  1  0
  1 15  1  0
  1 16  1  0
  4 17  1  1
  5 18  1  0
  6 19  1  0
  6 20  1  0
  7 21  1  0
  9 22  1  0
 10 23  1  0
 12 24  1  0
 12 25  1  0
M  END
$$$$

     RDKit          3D

 25 25  0  0  0  0  0  0  0  0999 V2000
    4.2615   -0.3141   -0.7585 N   0  0  0  0  0  0  0  0  0  0  0  0
    3.1359   -0.8397   -0.0702 C   0  0  0  0  0  0  0  0  0  0  0  0
    2.6391   -1.9105   -0.4824 O   0  0  0  0  0  0  0  0  0  0  0  0
    2.6110   -0.0926    1.0981 C   0  0  1  0  0  0  0  0  0  0  0  0
    3.4136    1.0585    1.2975 O   0  0  0  0  0  0  0  0  0  0  0  0
    1.1687    0.3529    0.8685 C   0  0  0  0  0  0  0  0  0  0  0  0
    0.3009   -0.7698    0.6799 N   0  0  0  0  0  0  0  0  0  0  0  0
   -1.0866   -0.5612    0.4166 C   0  0  0  0  0  0  0  0  0  0  0  0
   -1.5716    0.7237    0.3476 C   0  0  0  0  0  0  0  0  0  0  0  0
   -2.9110    0.9109    0.0932 C   0  0  0  0  0  0  0  0  0  0  0  0
   -3.7693   -0.1764   -0.0927 C   0  0  0  0  0  0  0  0  0  0  0  0
   -5.1410   -0.0208   -0.3538 N   0  0  0  0  0  0  0  0  0  0  0  0
   -3.2109   -1.3873   -0.0081 N   0  0  0  0  0  0  0  0  0  0  0  0
   -1.9348   -1.5962    0.2337 N   0  0  0  0  0  0  0  0  0  0  0  0
    4.4851    0.6982   -0.7050 H   0  0  0  0  0  0  0  0  0  0  0  0
    4.8731   -0.9313   -1.3217 H   0  0  0  0  0  0  0  0  0  0  0  0
    2.6943   -0.7394    1.9839 H   0  0  0  0  0  0  0  0  0  0  0  0
    2.8374    1.7621    1.7284 H   0  0  0  0  0  0  0  0  0  0  0  0
    0.8584    0.9780    1.7259 H   0  0  0  0  0  0  0  0  0  0  0  0
    1.1962    1.0121   -0.0382 H   0  0  0  0  0  0  0  0  0  0  0  0
    0.7014   -1.7410    0.7434 H   0  0  0  0  0  0  0  0  0  0  0  0
   -0.9299    1.5941    0.4877 H   0  0  0  0  0  0  0  0  0  0  0  0
   -3.3081    1.9096    0.0357 H   0  0  0  0  0  0  0  0  0  0  0  0
   -5.8471   -0.6010    0.1352 H   0  0  0  0  0  0  0  0  0  0  0  0
   -5.4661    0.6812   -1.0437 H   0  0  0  0  0  0  0  0  0  0  0  0
  1  2  1  0
  2  3  2  0
  2  4  1  0
  4  5  1  0
  4  6  1  0
  6  7  1  0
  7  8  1  0
  8  9  2  0
  9 10  1  0
 10 11  2  0
 11 12  1  0
 11 13  1  0
 13 14  2  0
 14  8  1  0
  1 15  1  0
  1 16  1  0
  4 17  1  1
  5 18  1  0
  6 19  1  0
  6 20  1  0
  7 21  1  0
  9 22  1  0
 10 23  1  0
 12 24  1  0
 12 25  1  0
M  END
$$$$

     RDKit          3D

 25 25  0  0  0  0  0  0  0  0999 V2000
   -4.2104    0.6993   -1.4556 N   0  0  0  0  0  0  0  0  0  0  0  0
   -3.4661    0.5818   -0.2537 C   0  0  0  0  0  0  0  0  0  0  0  0
   -3.5652    1.4635    0.6497 O   0  0  0  0  0  0  0  0  0  0  0  0
   -2.5742   -0.5873   -0.0757 C   0  0  1  0  0  0  0  0  0  0  0  0
   -2.6605   -1.3834   -1.2096 O   0  0  0  0  0  0  0  0  0  0  0  0
   -1.1731   -0.0499    0.1212 C   0  0  0  0  0  0  0  0  0  0  0  0
   -0.2005   -1.1007    0.2727 N   0  0  0  0  0  0  0  0  0  0  0  0
    1.1551   -0.7525    0.4651 C   0  0  0  0  0  0  0  0  0  0  0  0
    1.5583    0.5826    0.5095 C   0  0  0  0  0  0  0  0  0  0  0  0
    2.8756    0.9336    0.6963 C   0  0  0  0  0  0  0  0  0  0  0  0
    3.7964   -0.0733    0.8400 C   0  0  0  0  0  0  0  0  0  0  0  0
    5.1555    0.2409    1.0332 N   0  0  0  0  0  0  0  0  0  0  0  0
    3.3892   -1.3500    0.7944 N   0  0  0  0  0  0  0  0  0  0  0  0
    2.1306   -1.6779    0.6158 N   0  0  0  0  0  0  0  0  0  0  0  0
   -3.9193    1.2715   -2.2727 H   0  0  0  0  0  0  0  0  0  0  0  0
   -5.1081    0.1754   -1.5192 H   0  0  0  0  0  0  0  0  0  0  0  0
   -2.8883   -1.1810    0.8169 H   0  0  0  0  0  0  0  0  0  0  0  0
   -3.0870   -0.9061   -1.9629 H   0  0  0  0  0  0  0  0  0  0  0  0
   -1.1099    0.5839    1.0247 H   0  0  0  0  0  0  0  0  0  0  0  0
   -0.8859    0.5816   -0.7467 H   0  0  0  0  0  0  0  0  0  0  0  0
   -0.4974   -2.0806    0.2399 H   0  0  0  0  0  0  0  0  0  0  0  0
    0.8189    1.3507    0.3946 H   0  0  0  0  0  0  0  0  0  0  0  0
    3.1735    1.9655    0.7287 H   0  0  0  0  0  0  0  0  0  0  0  0
    5.4354    0.7237    1.9069 H   0  0  0  0  0  0  0  0  0  0  0  0
    5.8574   -0.0113    0.3067 H   0  0  0  0  0  0  0  0  0  0  0  0
  1  2  1  0
  2  3  2  0
  2  4  1  0
  4  5  1  0
  4  6  1  0
  6  7  1  0
  7  8  1  0
  8  9  2  0
  9 10  1  0
 10 11  2  0
 11 12  1  0
 11 13  1  0
 13 14  2  0
 14  8  1  0
  1 15  1  0
  1 16  1  0
  4 17  1  1
  5 18  1  0
  6 19  1  0
  6 20  1  0
  7 21  1  0
  9 22  1  0
 10 23  1  0
 12 24  1  0
 12 25  1  0
M  END
$$$$
