
     RDKit          3D

 21 21  0  0  0  0  0  0  0  0999 V2000
   -3.2032    0.5163   -0.6782 N   0  0  0  0  0  0  0  0  0  0  0  0
   -2.5630   -0.5807   -0.0392 C   0  0  0  0  0  0  0  0  0  0  0  0
   -3.1811   -1.6760   -0.0047 O   0  0  0  0  0  0  0  0  0  0  0  0
   -1.2178   -0.3734    0.5436 C   0  0  1  0  0  0  0  0  0  0  0  0
   -0.8142   -1.5951    1.1067 O   0  0  0  0  0  0  0  0  0  0  0  0
   -0.2096    0.0250   -0.5306 C   0  0  0  0  0  0  0  0  0  0  0  0
    1.0949    0.2259    0.0355 N   0  0  0  0  0  0  0  0  0  0  0  0
    1.5883    1.3691    0.5158 C   0  0  0  0  0  0  0  0  0  0  0  0
    2.8790    1.1612    0.9745 C   0  0  0  0  0  0  0  0  0  0  0  0
    3.1300   -0.1455    0.7480 N   0  0  0  0  0  0  0  0  0  0  0  0
    2.0441   -0.7048    0.1790 C   0  0  0  0  0  0  0  0  0  0  0  0
    1.9164   -1.9040   -0.1706 O   0  0  0  0  0  0  0  0  0  0  0  0
   -2.9017    0.8732   -1.6083 H   0  0  0  0  0  0  0  0  0  0  0  0
   -4.0130    0.9923   -0.2015 H   0  0  0  0  0  0  0  0  0  0  0  0
   -1.2104    0.3685    1.3669 H   0  0  0  0  0  0  0  0  0  0  0  0
   -1.1962   -2.3234    0.5698 H   0  0  0  0  0  0  0  0  0  0  0  0
   -0.2203   -0.7504   -1.3235 H   0  0  0  0  0  0  0  0  0  0  0  0
   -0.5909    0.9547   -1.0143 H   0  0  0  0  0  0  0  0  0  0  0  0
    1.0761    2.3283    0.5523 H   0  0  0  0  0  0  0  0  0  0  0  0
    3.5584    1.8694    1.4199 H   0  0  0  0  0  0  0  0  0  0  0  0
    4.0341   -0.6306    0.9846 H   0  0  0  0  0  0  0  0  0  0  0  0
  1  2  1  0
  2  3  2  0
  2  4  1  0
  4  5  1  0
  4  6  1  0
  6  7  1  0
  7  8  1  0
  8  9  2  0
  9 10  1  0
 10 11  1  0
 11 12  2  0
 11  7  1  0
  1 13  1  0
  1 14  1  0
  4 15  1  1
  5 16  1  0
  6 17  1  0
  6 18  1  0
  8 19  1  0
  9 20  1  0
 10 21  1  0
M  END
$$$$

     RDKit          3D

 21 21  0  0  0  0  0  0  0  0999 V2000
    3.5787   -0.4376   -0.1357 N   0  0  0  0  0  0  0  0  0  0  0  0
    2.5534    0.2991    0.5148 C   0  0  0  0  0  0  0  0  0  0  0  0
    2.7768    0.8333    1.6386 O   0  0  0  0  0  0  0  0  0  0  0  0
    1.2025    0.4750   -0.0763 C   0  0  1  0  0  0  0  0  0  0  0  0
    1.2000   -0.1976   -1.3033 O   0  0  0  0  0  0  0  0  0  0  0  0
    0.1353   -0.1745    0.7802 C   0  0  0  0  0  0  0  0  0  0  0  0
   -1.1767   -0.0094    0.2160 N   0  0  0  0  0  0  0  0  0  0  0  0
   -1.7709   -0.8499   -0.6462 C   0  0  0  0  0  0  0  0  0  0  0  0
   -3.0045   -0.3638   -0.9573 C   0  0  0  0  0  0  0  0  0  0  0  0
   -3.1755    0.7873   -0.2823 N   0  0  0  0  0  0  0  0  0  0  0  0
   -2.0523    0.9846    0.4252 C   0  0  0  0  0  0  0  0  0  0  0  0
   -1.8901    1.9852    1.1716 O   0  0  0  0  0  0  0  0  0  0  0  0
    4.5888   -0.2573    0.0372 H   0  0  0  0  0  0  0  0  0  0  0  0
    3.3380   -1.1903   -0.8143 H   0  0  0  0  0  0  0  0  0  0  0  0
    0.9940    1.5256   -0.2901 H   0  0  0  0  0  0  0  0  0  0  0  0
    1.2803   -1.1748   -1.0699 H   0  0  0  0  0  0  0  0  0  0  0  0
    0.1392    0.2808    1.7933 H   0  0  0  0  0  0  0  0  0  0  0  0
    0.3437   -1.2538    0.9159 H   0  0  0  0  0  0  0  0  0  0  0  0
   -1.3228   -1.7630   -1.0212 H   0  0  0  0  0  0  0  0  0  0  0  0
   -3.7003   -0.8607   -1.6439 H   0  0  0  0  0  0  0  0  0  0  0  0
   -4.0377    1.3617   -0.3443 H   0  0  0  0  0  0  0  0  0  0  0  0
  1  2  1  0
  2  3  2  0
  2  4  1  0
  4  5  1  0
  4  6  1  0
  6  7  1  0
  7  8  1  0
  8  9  2  0
  9 10  1  0
 10 11  1  0
 11 12  2  0
 11  7  1  0
  1 13  1  0
  1 14  1  0
  4 15  1  6
  5 16  1  0
  6 17  1  0
  6 18  1  0
  8 19  1  0
  9 20  1  0
 10 21  1  0
M  END
$$$$

     RDKit          3D

 21 21  0  0  0  0  0  0  0  0999 V2000
   -3.5153    0.3731   -0.1333 N   0  0  0  0  0  0  0  0  0  0  0  0
   -2.4906   -0.2306    0.6140 C   0  0  0  0  0  0  0  0  0  0  0  0
   -2.6979   -0.5571    1.7984 O   0  0  0  0  0  0  0  0  0  0  0  0
   -1.1766   -0.4780    0.0044 C   0  0  1  0  0  0  0  0  0  0  0  0
   -1.2220   -0.0208   -1.3107 O   0  0  0  0  0  0  0  0  0  0  0  0
   -0.1595    0.3050    0.8136 C   0  0  0  0  0  0  0  0  0  0  0  0
    1.1778    0.1503    0.3210 N   0  0  0  0  0  0  0  0  0  0  0  0
    2.0806   -0.7803    0.6803 C   0  0  0  0  0  0  0  0  0  0  0  0
    3.2292   -0.5458   -0.0504 C   0  0  0  0  0  0  0  0  0  0  0  0
    3.0269    0.5157   -0.8451 N   0  0  0  0  0  0  0  0  0  0  0  0
    1.7605    0.9194   -0.5941 C   0  0  0  0  0  0  0  0  0  0  0  0
    1.2485    1.9026   -1.1791 O   0  0  0  0  0  0  0  0  0  0  0  0
   -4.2394    0.9975    0.3265 H   0  0  0  0  0  0  0  0  0  0  0  0
   -3.6436    0.2600   -1.1683 H   0  0  0  0  0  0  0  0  0  0  0  0
   -0.9172   -1.5649    0.0357 H   0  0  0  0  0  0  0  0  0  0  0  0
   -1.5226   -0.7532   -1.8846 H   0  0  0  0  0  0  0  0  0  0  0  0
   -0.5102    1.3511    0.8314 H   0  0  0  0  0  0  0  0  0  0  0  0
   -0.2146   -0.1058    1.8529 H   0  0  0  0  0  0  0  0  0  0  0  0
    1.9324   -1.5668    1.4078 H   0  0  0  0  0  0  0  0  0  0  0  0
    4.1482   -1.1224    0.0050 H   0  0  0  0  0  0  0  0  0  0  0  0
    3.7053    0.9511   -1.5252 H   0  0  0  0  0  0  0  0  0  0  0  0
  1  2  1  0
  2  3  2  0
  2  4  1  0
  4  5  1  0
  4  6  1  0
  6  7  1  0
  7  8  1  0
  8  9  2  0
  9 10  1  0
 10 11  1  0
 11 12  2  0
 11  7  1  0
  1 13  1  0
  1 14  1  0
  4 15  1  6
  5 16  1  0
  6 17  1  0
  6 18  1  0
  8 19  1  0
  9 20  1  0
 10 21  1  0
M  END
$$$$

     RDKit          3D

 21 21  0  0  0  0  0  0  0  0999 V2000
   -3.2380   -0.9099    0.4277 N   0  0  0  0  0  0  0  0  0  0  0  0
   -2.6049    0.1817   -0.2218 C   0  0  0  0  0  0  0  0  0  0  0  0
   -3.3148    1.1799   -0.5042 O   0  0  0  0  0  0  0  0  0  0  0  0
   -1.1690    0.1296   -0.5453 C   0  0  1  0  0  0  0  0  0  0  0  0
   -0.7495    1.2975   -1.1778 O   0  0  0  0  0  0  0  0  0  0  0  0
   -0.3147   -0.0088    0.7087 C   0  0  0  0  0  0  0  0  0  0  0  0
    1.0777   -0.0549    0.3349 N   0  0  0  0  0  0  0  0  0  0  0  0
    1.8422   -1.1303    0.0368 C   0  0  0  0  0  0  0  0  0  0  0  0
    3.1194   -0.7132   -0.2655 C   0  0  0  0  0  0  0  0  0  0  0  0
    3.1287    0.6154   -0.1506 N   0  0  0  0  0  0  0  0  0  0  0  0
    1.8890    1.0177    0.2142 C   0  0  0  0  0  0  0  0  0  0  0  0
    1.5386    2.2103    0.4127 O   0  0  0  0  0  0  0  0  0  0  0  0
   -2.7871   -1.8588    0.4630 H   0  0  0  0  0  0  0  0  0  0  0  0
   -4.1713   -0.8137    0.8932 H   0  0  0  0  0  0  0  0  0  0  0  0
   -0.9783   -0.7292   -1.2247 H   0  0  0  0  0  0  0  0  0  0  0  0
   -1.5385    1.8886   -1.2586 H   0  0  0  0  0  0  0  0  0  0  0  0
   -0.5906   -0.9227    1.2893 H   0  0  0  0  0  0  0  0  0  0  0  0
   -0.5024    0.8511    1.3743 H   0  0  0  0  0  0  0  0  0  0  0  0
    1.4714   -2.1473    0.0453 H   0  0  0  0  0  0  0  0  0  0  0  0
    3.9653   -1.3286   -0.5446 H   0  0  0  0  0  0  0  0  0  0  0  0
    3.9268    1.2458   -0.3068 H   0  0  0  0  0  0  0  0  0  0  0  0
  1  2  1  0
  2  3  2  0
  2  4  1  0
  4  5  1  0
  4  6  1  0
  6  7  1  0
  7  8  1  0
  8  9  2  0
  9 10  1  0
 10 11  1  0
 11 12  2  0
 11  7  1  0
  1 13  1  0
  1 14  1  0
  4 15  1  6
  5 16  1  0
  6 17  1  0
  6 18  1  0
  8 19  1  0
  9 20  1  0
 10 21  1  0
M  END
$$$$

     RDKit          3D

 21 21  0  0  0  0  0  0  0  0999 V2000
   -3.3730    0.9955    0.0296 N   0  0  0  0  0  0  0  0  0  0  0  0
   -2.5487   -0.1446    0.0860 C   0  0  0  0  0  0  0  0  0  0  0  0
   -2.9621   -1.2389    0.5302 O   0  0  0  0  0  0  0  0  0  0  0  0
   -1.1513   -0.0504   -0.3933 C   0  0  1  0  0  0  0  0  0  0  0  0
   -0.8651    1.2354   -0.8507 O   0  0  0  0  0  0  0  0  0  0  0  0
   -0.2551   -0.4406    0.7659 C   0  0  0  0  0  0  0  0  0  0  0  0
    1.1154   -0.3635    0.3458 N   0  0  0  0  0  0  0  0  0  0  0  0
    1.9477    0.6866    0.4112 C   0  0  0  0  0  0  0  0  0  0  0  0
    3.1870    0.3268   -0.1060 C   0  0  0  0  0  0  0  0  0  0  0  0
    3.0750   -0.9732   -0.4850 N   0  0  0  0  0  0  0  0  0  0  0  0
    1.8132   -1.3779   -0.2048 C   0  0  0  0  0  0  0  0  0  0  0  0
    1.3721   -2.5233   -0.4277 O   0  0  0  0  0  0  0  0  0  0  0  0
   -3.4583    1.5987    0.8906 H   0  0  0  0  0  0  0  0  0  0  0  0
   -3.9023    1.2709   -0.8222 H   0  0  0  0  0  0  0  0  0  0  0  0
   -1.0013   -0.7366   -1.2315 H   0  0  0  0  0  0  0  0  0  0  0  0
   -1.5902    1.8418   -0.6064 H   0  0  0  0  0  0  0  0  0  0  0  0
   -0.4319    0.2629    1.6208 H   0  0  0  0  0  0  0  0  0  0  0  0
   -0.5525   -1.4419    1.0881 H   0  0  0  0  0  0  0  0  0  0  0  0
    1.6989    1.6717    0.8067 H   0  0  0  0  0  0  0  0  0  0  0  0
    4.0631    0.9511   -0.1908 H   0  0  0  0  0  0  0  0  0  0  0  0
    3.8193   -1.5505   -0.9111 H   0  0  0  0  0  0  0  0  0  0  0  0
  1  2  1  0
  2  3  2  0
  2  4  1  0
  4  5  1  0
  4  6  1  0
  6  7  1  0
  7  8  1  0
  8  9  2  0
  9 10  1  0
 10 11  1  0
 11 12  2  0
 11  7  1  0
  1 13  1  0
  1 14  1  0
  4 15  1  6
  5 16  1  0
  6 17  1  0
  6 18  1  0
  8 19  1  0
  9 20  1  0
 10 21  1  0
M  END
$$$$

     RDKit          3D

 21 21  0  0  0  0  0  0  0  0999 V2000
   -3.6086    0.2064   -0.0660 N   0  0  0  0  0  0  0  0  0  0  0  0
   -2.4553    0.5884   -0.7447 C   0  0  0  0  0  0  0  0  0  0  0  0
   -2.5593    0.8646   -1.9830 O   0  0  0  0  0  0  0  0  0  0  0  0
   -1.1045    0.7006   -0.1378 C   0  0  1  0  0  0  0  0  0  0  0  0
   -1.2529    0.3478    1.2199 O   0  0  0  0  0  0  0  0  0  0  0  0
   -0.2195   -0.3103   -0.8093 C   0  0  0  0  0  0  0  0  0  0  0  0
    1.1304   -0.3125   -0.3155 N   0  0  0  0  0  0  0  0  0  0  0  0
    1.6897   -1.0075    0.6873 C   0  0  0  0  0  0  0  0  0  0  0  0
    3.0360   -0.6587    0.7763 C   0  0  0  0  0  0  0  0  0  0  0  0
    3.2706    0.2440   -0.1765 N   0  0  0  0  0  0  0  0  0  0  0  0
    2.1121    0.4460   -0.8305 C   0  0  0  0  0  0  0  0  0  0  0  0
    2.0114    1.2522   -1.7943 O   0  0  0  0  0  0  0  0  0  0  0  0
   -3.7677    0.5127    0.9110 H   0  0  0  0  0  0  0  0  0  0  0  0
   -4.3269   -0.3871   -0.5183 H   0  0  0  0  0  0  0  0  0  0  0  0
   -0.7282    1.7223   -0.1775 H   0  0  0  0  0  0  0  0  0  0  0  0
   -1.4346   -0.6390    1.3098 H   0  0  0  0  0  0  0  0  0  0  0  0
   -0.2770   -0.2078   -1.9140 H   0  0  0  0  0  0  0  0  0  0  0  0
   -0.6477   -1.3232   -0.5751 H   0  0  0  0  0  0  0  0  0  0  0  0
    1.1659   -1.7069    1.3010 H   0  0  0  0  0  0  0  0  0  0  0  0
    3.7565   -1.0301    1.4656 H   0  0  0  0  0  0  0  0  0  0  0  0
    4.2096    0.6983   -0.3571 H   0  0  0  0  0  0  0  0  0  0  0  0
  1  2  1  0
  2  3  2  0
  2  4  1  0
  4  5  1  0
  4  6  1  0
  6  7  1  0
  7  8  1  0
  8  9  2  0
  9 10  1  0
 10 11  1  0
 11 12  2  0
 11  7  1  0
  1 13  1  0
  1 14  1  0
  4 15  1  1
  5 16  1  0
  6 17  1  0
  6 18  1  0
  8 19  1  0
  9 20  1  0
 10 21  1  0
M  END
$$$$

     RDKit          3D

 21 21  0  0  0  0  0  0  0  0999 V2000
   -3.5571   -0.1088    0.2525 N   0  0  0  0  0  0  0  0  0  0  0  0
   -2.4435    0.7224    0.5151 C   0  0  0  0  0  0  0  0  0  0  0  0
   -2.6126    1.9810    0.5599 O   0  0  0  0  0  0  0  0  0  0  0  0
   -1.1116    0.1126    0.7310 C   0  0  1  0  0  0  0  0  0  0  0  0
   -1.2116   -1.2480    0.6291 O   0  0  0  0  0  0  0  0  0  0  0  0
   -0.1709    0.7186   -0.2855 C   0  0  0  0  0  0  0  0  0  0  0  0
    1.1700    0.2028   -0.1787 N   0  0  0  0  0  0  0  0  0  0  0  0
    2.1535    0.7303    0.5959 C   0  0  0  0  0  0  0  0  0  0  0  0
    3.2742   -0.0352    0.4279 C   0  0  0  0  0  0  0  0  0  0  0  0
    2.9885   -1.0263   -0.4412 N   0  0  0  0  0  0  0  0  0  0  0  0
    1.7062   -0.8661   -0.7993 C   0  0  0  0  0  0  0  0  0  0  0  0
    1.1184   -1.6342   -1.6104 O   0  0  0  0  0  0  0  0  0  0  0  0
   -4.4384   -0.0365    0.8213 H   0  0  0  0  0  0  0  0  0  0  0  0
   -3.4676   -0.7962   -0.5284 H   0  0  0  0  0  0  0  0  0  0  0  0
   -0.7354    0.4165    1.7294 H   0  0  0  0  0  0  0  0  0  0  0  0
   -1.8336   -1.5848    1.3006 H   0  0  0  0  0  0  0  0  0  0  0  0
   -0.1444    1.8173   -0.0627 H   0  0  0  0  0  0  0  0  0  0  0  0
   -0.5601    0.6350   -1.3175 H   0  0  0  0  0  0  0  0  0  0  0  0
    2.0080    1.6133    1.2201 H   0  0  0  0  0  0  0  0  0  0  0  0
    4.2239    0.1476    0.9249 H   0  0  0  0  0  0  0  0  0  0  0  0
    3.6441   -1.7614   -0.7603 H   0  0  0  0  0  0  0  0  0  0  0  0
  1  2  1  0
  2  3  2  0
  2  4  1  0
  4  5  1  0
  4  6  1  0
  6  7  1  0
  7  8  1  0
  8  9  2  0
  9 10  1  0
 10 11  1  0
 11 12  2  0
 11  7  1  0
  1 13  1  0
  1 14  1  0
  4 15  1  1
  5 16  1  0
  6 17  1  0
  6 18  1  0
  8 19  1  0
  9 20  1  0
 10 21  1  0
M  END
$$$$

     RDKit          3D

 21 21  0  0  0  0  0  0  0  0999 V2000
   -3.4771   -0.3408    0.1083 N   0  0  0  0  0  0  0  0  0  0  0  0
   -2.5009    0.5619   -0.3565 C   0  0  0  0  0  0  0  0  0  0  0  0
   -2.8335    1.4382   -1.2214 O   0  0  0  0  0  0  0  0  0  0  0  0
   -1.1134    0.4829    0.1602 C   0  0  1  0  0  0  0  0  0  0  0  0
   -1.0543   -0.5583    1.0795 O   0  0  0  0  0  0  0  0  0  0  0  0
   -0.2186    0.1567   -1.0207 C   0  0  0  0  0  0  0  0  0  0  0  0
    1.1683    0.0539   -0.6349 N   0  0  0  0  0  0  0  0  0  0  0  0
    2.1145    1.0017   -0.5901 C   0  0  0  0  0  0  0  0  0  0  0  0
    3.2995    0.4274   -0.1562 C   0  0  0  0  0  0  0  0  0  0  0  0
    3.0311   -0.8633    0.0503 N   0  0  0  0  0  0  0  0  0  0  0  0
    1.7433   -1.0934   -0.2380 C   0  0  0  0  0  0  0  0  0  0  0  0
    1.1905   -2.2061   -0.1443 O   0  0  0  0  0  0  0  0  0  0  0  0
   -3.2657   -1.3661    0.2470 H   0  0  0  0  0  0  0  0  0  0  0  0
   -4.4601   -0.0406    0.3392 H   0  0  0  0  0  0  0  0  0  0  0  0
   -0.8043    1.4287    0.6579 H   0  0  0  0  0  0  0  0  0  0  0  0
   -1.8852   -0.5152    1.6354 H   0  0  0  0  0  0  0  0  0  0  0  0
   -0.5711   -0.8204   -1.4182 H   0  0  0  0  0  0  0  0  0  0  0  0
   -0.3189    0.9285   -1.8085 H   0  0  0  0  0  0  0  0  0  0  0  0
    1.9812    2.0430   -0.8484 H   0  0  0  0  0  0  0  0  0  0  0  0
    4.2677    0.8751    0.0017 H   0  0  0  0  0  0  0  0  0  0  0  0
    3.7070   -1.5938    0.3843 H   0  0  0  0  0  0  0  0  0  0  0  0
  1  2  1  0
  2  3  2  0
  2  4  1  0
  4  5  1  0
  4  6  1  0
  6  7  1  0
  7  8  1  0
  8  9  2  0
  9 10  1  0
 10 11  1  0
 11 12  2  0
 11  7  1  0
  1 13  1  0
  1 14  1  0
  4 15  1  1
  5 16  1  0
  6 17  1  0
  6 18  1  0
  8 19  1  0
  9 20  1  0
 10 21  1  0
M  END
$$$$
