
     RDKit          3D

 22 22  0  0  0  0  0  0  0  0999 V2000
    3.9234    0.4661   -0.6627 N   0  0  0  0  0  0  0  0  0  0  0  0
    2.8976    0.3363    0.3259 C   0  0  0  0  0  0  0  0  0  0  0  0
    1.5420    0.1830   -0.3049 C   0  0  0  0  0  0  0  0  0  0  0  0
    1.4847    0.1881   -1.5622 O   0  0  0  0  0  0  0  0  0  0  0  0
    0.3696    0.0380    0.4817 N   0  0  0  0  0  0  0  0  0  0  0  0
   -0.8849   -0.1032   -0.1699 C   0  0  1  0  0  0  0  0  0  0  0  0
   -1.6403   -1.3530    0.2408 C   0  0  0  0  0  0  0  0  0  0  0  0
   -2.9411   -1.0632   -0.3392 N   0  0  0  0  0  0  0  0  0  0  0  0
   -3.1363    0.3408   -0.3042 C   0  0  0  0  0  0  0  0  0  0  0  0
   -4.1452    0.9757   -0.6733 O   0  0  0  0  0  0  0  0  0  0  0  0
   -1.9059    0.9465    0.2607 C   0  0  0  0  0  0  0  0  0  0  0  0
    4.5013   -0.4206   -0.6739 H   0  0  0  0  0  0  0  0  0  0  0  0
    4.5565    1.2841   -0.5036 H   0  0  0  0  0  0  0  0  0  0  0  0
    2.8714    1.2672    0.9381 H   0  0  0  0  0  0  0  0  0  0  0  0
    3.1173   -0.4883    1.0098 H   0  0  0  0  0  0  0  0  0  0  0  0
    0.4671    0.0398    1.5149 H   0  0  0  0  0  0  0  0  0  0  0  0
   -0.8492   -0.0890   -1.2583 H   0  0  0  0  0  0  0  0  0  0  0  0
   -1.7461   -1.3856    1.3475 H   0  0  0  0  0  0  0  0  0  0  0  0
   -1.1888   -2.2734   -0.1691 H   0  0  0  0  0  0  0  0  0  0  0  0
   -3.5838   -1.7932   -0.7041 H   0  0  0  0  0  0  0  0  0  0  0  0
   -1.6823    1.9399   -0.1571 H   0  0  0  0  0  0  0  0  0  0  0  0
   -2.0273    0.9639    1.3630 H   0  0  0  0  0  0  0  0  0  0  0  0
  1  2  1  0
  2  3  1  0
  3  4  2  0
  3  5  1  0
  5  6  1  0
  6  7  1  0
  7  8  1  0
  8  9  1  0
  9 10  2  0
  9 11  1  0
 11  6  1  0
  1 12  1  0
  1 13  1  0
  2 14  1  0
  2 15  1  0
  5 16  1  0
  6 17  1  6
  7 18  1  0
  7 19  1  0
  8 20  1  0
 11 21  1  0
 11 22  1  0
M  END
$$$$

     RDKit          3D

 22 22  0  0  0  0  0  0  0  0999 V2000
    3.2356    0.2327    0.9999 N   0  0  0  0  0  0  0  0  0  0  0  0
    3.0013    0.4909   -0.3805 C   0  0  0  0  0  0  0  0  0  0  0  0
    1.5877    0.3930   -0.7892 C   0  0  0  0  0  0  0  0  0  0  0  0
    1.3096    0.6082   -1.9911 O   0  0  0  0  0  0  0  0  0  0  0  0
    0.5735    0.0708    0.1233 N   0  0  0  0  0  0  0  0  0  0  0  0
   -0.7995   -0.0154   -0.3160 C   0  0  1  0  0  0  0  0  0  0  0  0
   -1.3966   -1.3434    0.1124 C   0  0  0  0  0  0  0  0  0  0  0  0
   -2.8112   -1.0968   -0.0953 N   0  0  0  0  0  0  0  0  0  0  0  0
   -3.0269    0.2655    0.2550 C   0  0  0  0  0  0  0  0  0  0  0  0
   -4.1369    0.8054    0.3549 O   0  0  0  0  0  0  0  0  0  0  0  0
   -1.7023    0.9361    0.4819 C   0  0  0  0  0  0  0  0  0  0  0  0
    2.6157    0.7187    1.6593 H   0  0  0  0  0  0  0  0  0  0  0  0
    3.4867   -0.7269    1.2479 H   0  0  0  0  0  0  0  0  0  0  0  0
    3.5697   -0.2528   -0.9823 H   0  0  0  0  0  0  0  0  0  0  0  0
    3.4286    1.4824   -0.6480 H   0  0  0  0  0  0  0  0  0  0  0  0
    0.8001   -0.1093    1.1254 H   0  0  0  0  0  0  0  0  0  0  0  0
   -0.9323    0.1901   -1.3818 H   0  0  0  0  0  0  0  0  0  0  0  0
   -1.2113   -1.4349    1.1973 H   0  0  0  0  0  0  0  0  0  0  0  0
   -1.0104   -2.1889   -0.4696 H   0  0  0  0  0  0  0  0  0  0  0  0
   -3.4926   -1.8062   -0.4342 H   0  0  0  0  0  0  0  0  0  0  0  0
   -1.4140    0.8271    1.5427 H   0  0  0  0  0  0  0  0  0  0  0  0
   -1.6746    1.9534    0.1044 H   0  0  0  0  0  0  0  0  0  0  0  0
  1  2  1  0
  2  3  1  0
  3  4  2  0
  3  5  1  0
  5  6  1  0
  6  7  1  0
  7  8  1  0
  8  9  1  0
  9 10  2  0
  9 11  1  0
 11  6  1  0
  1 12  1  0
  1 13  1  0
  2 14  1  0
  2 15  1  0
  5 16  1  0
  6 17  1  6
  7 18  1  0
  7 19  1  0
  8 20  1  0
 11 21  1  0
 11 22  1  0
M  END
$$$$

     RDKit          3D

 22 22  0  0  0  0  0  0  0  0999 V2000
   -3.1180    0.8141   -0.3954 N   0  0  0  0  0  0  0  0  0  0  0  0
   -3.0278   -0.5303    0.0969 C   0  0  0  0  0  0  0  0  0  0  0  0
   -1.5924   -0.9477    0.2853 C   0  0  0  0  0  0  0  0  0  0  0  0
   -1.2843   -2.0745    0.7038 O   0  0  0  0  0  0  0  0  0  0  0  0
   -0.5596   -0.0360   -0.0209 N   0  0  0  0  0  0  0  0  0  0  0  0
    0.8329   -0.2770    0.1021 C   0  0  1  0  0  0  0  0  0  0  0  0
    1.6462   -0.0681   -1.1438 C   0  0  0  0  0  0  0  0  0  0  0  0
    2.9981   -0.1357   -0.5597 N   0  0  0  0  0  0  0  0  0  0  0  0
    2.9354    0.2397    0.8054 C   0  0  0  0  0  0  0  0  0  0  0  0
    3.8216    0.2224    1.6842 O   0  0  0  0  0  0  0  0  0  0  0  0
    1.5405    0.6891    1.0327 C   0  0  0  0  0  0  0  0  0  0  0  0
   -3.6398    1.4607    0.2056 H   0  0  0  0  0  0  0  0  0  0  0  0
   -3.3550    0.8711   -1.4125 H   0  0  0  0  0  0  0  0  0  0  0  0
   -3.4183   -1.2000   -0.7241 H   0  0  0  0  0  0  0  0  0  0  0  0
   -3.6201   -0.7119    0.9955 H   0  0  0  0  0  0  0  0  0  0  0  0
   -0.8465    0.9073   -0.3718 H   0  0  0  0  0  0  0  0  0  0  0  0
    1.0686   -1.2975    0.4799 H   0  0  0  0  0  0  0  0  0  0  0  0
    1.4957   -0.8124   -1.9208 H   0  0  0  0  0  0  0  0  0  0  0  0
    1.5600    0.9787   -1.5258 H   0  0  0  0  0  0  0  0  0  0  0  0
    3.8741   -0.4107   -1.0457 H   0  0  0  0  0  0  0  0  0  0  0  0
    1.4743    1.7353    0.6519 H   0  0  0  0  0  0  0  0  0  0  0  0
    1.2145    0.5834    2.0773 H   0  0  0  0  0  0  0  0  0  0  0  0
  1  2  1  0
  2  3  1  0
  3  4  2  0
  3  5  1  0
  5  6  1  0
  6  7  1  0
  7  8  1  0
  8  9  1  0
  9 10  2  0
  9 11  1  0
 11  6  1  0
  1 12  1  0
  1 13  1  0
  2 14  1  0
  2 15  1  0
  5 16  1  0
  6 17  1  1
  7 18  1  0
  7 19  1  0
  8 20  1  0
 11 21  1  0
 11 22  1  0
M  END
$$$$

     RDKit          3D

 22 22  0  0  0  0  0  0  0  0999 V2000
    3.9300   -0.2395    0.1074 N   0  0  0  0  0  0  0  0  0  0  0  0
    2.6220   -0.5977   -0.3213 C   0  0  0  0  0  0  0  0  0  0  0  0
    1.5399    0.1796    0.2781 C   0  0  0  0  0  0  0  0  0  0  0  0
    1.8025    1.0854    1.1052 O   0  0  0  0  0  0  0  0  0  0  0  0
    0.1862   -0.0742   -0.0616 N   0  0  0  0  0  0  0  0  0  0  0  0
   -0.9238    0.6884    0.5224 C   0  0  1  0  0  0  0  0  0  0  0  0
   -1.7902    1.2035   -0.5916 C   0  0  0  0  0  0  0  0  0  0  0  0
   -2.6024    0.0722   -0.9703 N   0  0  0  0  0  0  0  0  0  0  0  0
   -2.4385   -0.9876   -0.0238 C   0  0  0  0  0  0  0  0  0  0  0  0
   -2.7414   -2.2003   -0.1669 O   0  0  0  0  0  0  0  0  0  0  0  0
   -1.8289   -0.3470    1.1763 C   0  0  0  0  0  0  0  0  0  0  0  0
    4.1623    0.7571    0.0738 H   0  0  0  0  0  0  0  0  0  0  0  0
    4.2761   -0.7514    0.9430 H   0  0  0  0  0  0  0  0  0  0  0  0
    2.4611   -1.6738   -0.0520 H   0  0  0  0  0  0  0  0  0  0  0  0
    2.5901   -0.5193   -1.4325 H   0  0  0  0  0  0  0  0  0  0  0  0
   -0.0497   -0.8112   -0.7364 H   0  0  0  0  0  0  0  0  0  0  0  0
   -0.5845    1.4479    1.2259 H   0  0  0  0  0  0  0  0  0  0  0  0
   -2.4319    2.0440   -0.2277 H   0  0  0  0  0  0  0  0  0  0  0  0
   -1.2129    1.5680   -1.4649 H   0  0  0  0  0  0  0  0  0  0  0  0
   -3.2077    0.0474   -1.8055 H   0  0  0  0  0  0  0  0  0  0  0  0
   -2.5663    0.1655    1.8070 H   0  0  0  0  0  0  0  0  0  0  0  0
   -1.1919   -1.0570    1.7389 H   0  0  0  0  0  0  0  0  0  0  0  0
  1  2  1  0
  2  3  1  0
  3  4  2  0
  3  5  1  0
  5  6  1  0
  6  7  1  0
  7  8  1  0
  8  9  1  0
  9 10  2  0
  9 11  1  0
 11  6  1  0
  1 12  1  0
  1 13  1  0
  2 14  1  0
  2 15  1  0
  5 16  1  0
  6 17  1  1
  7 18  1  0
  7 19  1  0
  8 20  1  0
 11 21  1  0
 11 22  1  0
M  END
$$$$

     RDKit          3D

 22 22  0  0  0  0  0  0  0  0999 V2000
    2.5496    0.4051    1.0820 N   0  0  0  0  0  0  0  0  0  0  0  0
    2.7816   -0.5658    0.0304 C   0  0  0  0  0  0  0  0  0  0  0  0
    1.4856   -0.8716   -0.6532 C   0  0  0  0  0  0  0  0  0  0  0  0
    1.4119   -1.6815   -1.5992 O   0  0  0  0  0  0  0  0  0  0  0  0
    0.2941   -0.2292   -0.2246 N   0  0  0  0  0  0  0  0  0  0  0  0
   -1.0006   -0.4397   -0.7987 C   0  0  1  0  0  0  0  0  0  0  0  0
   -1.9324   -0.8677    0.3420 C   0  0  0  0  0  0  0  0  0  0  0  0
   -1.8767    0.3346    1.1676 N   0  0  0  0  0  0  0  0  0  0  0  0
   -1.9258    1.4141    0.2288 C   0  0  0  0  0  0  0  0  0  0  0  0
   -2.1620    2.6148    0.5401 O   0  0  0  0  0  0  0  0  0  0  0  0
   -1.6560    0.8848   -1.1457 C   0  0  0  0  0  0  0  0  0  0  0  0
    3.0779    0.1697    1.9586 H   0  0  0  0  0  0  0  0  0  0  0  0
    2.8804    1.3401    0.7532 H   0  0  0  0  0  0  0  0  0  0  0  0
    3.4870   -0.1584   -0.7372 H   0  0  0  0  0  0  0  0  0  0  0  0
    3.1967   -1.4828    0.4890 H   0  0  0  0  0  0  0  0  0  0  0  0
    0.3739    0.4446    0.5672 H   0  0  0  0  0  0  0  0  0  0  0  0
   -1.0202   -1.1547   -1.6223 H   0  0  0  0  0  0  0  0  0  0  0  0
   -1.5756   -1.7588    0.8523 H   0  0  0  0  0  0  0  0  0  0  0  0
   -2.9583   -0.9285   -0.0573 H   0  0  0  0  0  0  0  0  0  0  0  0
   -1.8162    0.3422    2.1913 H   0  0  0  0  0  0  0  0  0  0  0  0
   -2.6135    0.6469   -1.6389 H   0  0  0  0  0  0  0  0  0  0  0  0
   -1.0015    1.5419   -1.7253 H   0  0  0  0  0  0  0  0  0  0  0  0
  1  2  1  0
  2  3  1  0
  3  4  2  0
  3  5  1  0
  5  6  1  0
  6  7  1  0
  7  8  1  0
  8  9  1  0
  9 10  2  0
  9 11  1  0
 11  6  1  0
  1 12  1  0
  1 13  1  0
  2 14  1  0
  2 15  1  0
  5 16  1  0
  6 17  1  6
  7 18  1  0
  7 19  1  0
  8 20  1  0
 11 21  1  0
 11 22  1  0
M  END
$$$$

     RDKit          3D

 22 22  0  0  0  0  0  0  0  0999 V2000
    4.0884    0.0888    0.4849 N   0  0  0  0  0  0  0  0  0  0  0  0
    2.8356    0.7367    0.2575 C   0  0  0  0  0  0  0  0  0  0  0  0
    1.6670   -0.1244    0.4588 C   0  0  0  0  0  0  0  0  0  0  0  0
    1.7681   -1.3310    0.8027 O   0  0  0  0  0  0  0  0  0  0  0  0
    0.3702    0.4159    0.2603 N   0  0  0  0  0  0  0  0  0  0  0  0
   -0.8287   -0.3339    0.4292 C   0  0  1  0  0  0  0  0  0  0  0  0
   -1.7734    0.4036    1.3709 C   0  0  0  0  0  0  0  0  0  0  0  0
   -3.0030   -0.3357    1.1491 N   0  0  0  0  0  0  0  0  0  0  0  0
   -3.0283   -0.6903   -0.2309 C   0  0  0  0  0  0  0  0  0  0  0  0
   -4.0135   -1.2015   -0.8250 O   0  0  0  0  0  0  0  0  0  0  0  0
   -1.6914   -0.3494   -0.8351 C   0  0  0  0  0  0  0  0  0  0  0  0
    4.3676   -0.6044   -0.2152 H   0  0  0  0  0  0  0  0  0  0  0  0
    4.2352   -0.2059    1.4723 H   0  0  0  0  0  0  0  0  0  0  0  0
    2.8417    1.1054   -0.8017 H   0  0  0  0  0  0  0  0  0  0  0  0
    2.7794    1.6155    0.9346 H   0  0  0  0  0  0  0  0  0  0  0  0
    0.2935    1.4163   -0.0245 H   0  0  0  0  0  0  0  0  0  0  0  0
   -0.6930   -1.3713    0.7265 H   0  0  0  0  0  0  0  0  0  0  0  0
   -1.9139    1.4110    0.9799 H   0  0  0  0  0  0  0  0  0  0  0  0
   -1.4316    0.3508    2.4194 H   0  0  0  0  0  0  0  0  0  0  0  0
   -3.7460   -0.5758    1.8524 H   0  0  0  0  0  0  0  0  0  0  0  0
   -1.3594   -1.0963   -1.5566 H   0  0  0  0  0  0  0  0  0  0  0  0
   -1.7643    0.6757   -1.2277 H   0  0  0  0  0  0  0  0  0  0  0  0
  1  2  1  0
  2  3  1  0
  3  4  2  0
  3  5  1  0
  5  6  1  0
  6  7  1  0
  7  8  1  0
  8  9  1  0
  9 10  2  0
  9 11  1  0
 11  6  1  0
  1 12  1  0
  1 13  1  0
  2 14  1  0
  2 15  1  0
  5 16  1  0
  6 17  1  1
  7 18  1  0
  7 19  1  0
  8 20  1  0
 11 21  1  0
 11 22  1  0
M  END
$$$$

     RDKit          3D

 22 22  0  0  0  0  0  0  0  0999 V2000
    3.9540   -0.3562    0.4994 N   0  0  0  0  0  0  0  0  0  0  0  0
    2.8940    0.5407    0.1596 C   0  0  0  0  0  0  0  0  0  0  0  0
    1.5828   -0.1518    0.2314 C   0  0  0  0  0  0  0  0  0  0  0  0
    1.5419   -1.3448    0.5537 O   0  0  0  0  0  0  0  0  0  0  0  0
    0.3615    0.5110   -0.0590 N   0  0  0  0  0  0  0  0  0  0  0  0
   -0.8882   -0.1395    0.0068 C   0  0  1  0  0  0  0  0  0  0  0  0
   -1.8872    0.4583    0.9443 C   0  0  0  0  0  0  0  0  0  0  0  0
   -3.1009   -0.2752    0.5616 N   0  0  0  0  0  0  0  0  0  0  0  0
   -2.9898   -0.6660   -0.8036 C   0  0  0  0  0  0  0  0  0  0  0  0
   -3.8234   -1.3012   -1.5024 O   0  0  0  0  0  0  0  0  0  0  0  0
   -1.6526   -0.1737   -1.2978 C   0  0  0  0  0  0  0  0  0  0  0  0
    4.7503    0.0562    0.9930 H   0  0  0  0  0  0  0  0  0  0  0  0
    4.2122   -1.0034   -0.2780 H   0  0  0  0  0  0  0  0  0  0  0  0
    3.0855    0.9548   -0.8616 H   0  0  0  0  0  0  0  0  0  0  0  0
    2.8978    1.3840    0.9023 H   0  0  0  0  0  0  0  0  0  0  0  0
    0.4174    1.5149   -0.3282 H   0  0  0  0  0  0  0  0  0  0  0  0
   -0.7586   -1.2140    0.3120 H   0  0  0  0  0  0  0  0  0  0  0  0
   -2.1032    1.5154    0.7617 H   0  0  0  0  0  0  0  0  0  0  0  0
   -1.5950    0.2574    1.9848 H   0  0  0  0  0  0  0  0  0  0  0  0
   -3.9166   -0.4810    1.1821 H   0  0  0  0  0  0  0  0  0  0  0  0
   -1.7863    0.8215   -1.7261 H   0  0  0  0  0  0  0  0  0  0  0  0
   -1.1952   -0.9072   -1.9940 H   0  0  0  0  0  0  0  0  0  0  0  0
  1  2  1  0
  2  3  1  0
  3  4  2  0
  3  5  1  0
  5  6  1  0
  6  7  1  0
  7  8  1  0
  8  9  1  0
  9 10  2  0
  9 11  1  0
 11  6  1  0
  1 12  1  0
  1 13  1  0
  2 14  1  0
  2 15  1  0
  5 16  1  0
  6 17  1  1
  7 18  1  0
  7 19  1  0
  8 20  1  0
 11 21  1  0
 11 22  1  0
M  END
$$$$

     RDKit          3D

 22 22  0  0  0  0  0  0  0  0999 V2000
    2.7958    1.0655    0.0658 N   0  0  0  0  0  0  0  0  0  0  0  0
    2.8453   -0.3416   -0.1824 C   0  0  0  0  0  0  0  0  0  0  0  0
    1.4784   -0.9553   -0.2206 C   0  0  0  0  0  0  0  0  0  0  0  0
    1.3480   -2.1786   -0.4276 O   0  0  0  0  0  0  0  0  0  0  0  0
    0.3048   -0.1750   -0.0251 N   0  0  0  0  0  0  0  0  0  0  0  0
   -0.9950   -0.8271   -0.0734 C   0  0  1  0  0  0  0  0  0  0  0  0
   -1.7676   -0.4646    1.1627 C   0  0  0  0  0  0  0  0  0  0  0  0
   -2.3083    0.8580    0.8687 N   0  0  0  0  0  0  0  0  0  0  0  0
   -2.0972    1.1750   -0.5002 C   0  0  0  0  0  0  0  0  0  0  0  0
   -2.1484    2.3256   -1.0133 O   0  0  0  0  0  0  0  0  0  0  0  0
   -1.8103   -0.1329   -1.1638 C   0  0  0  0  0  0  0  0  0  0  0  0
    3.5652    1.6072   -0.3867 H   0  0  0  0  0  0  0  0  0  0  0  0
    2.8414    1.3118    1.0900 H   0  0  0  0  0  0  0  0  0  0  0  0
    3.2809   -0.5127   -1.2078 H   0  0  0  0  0  0  0  0  0  0  0  0
    3.4084   -0.9049    0.5938 H   0  0  0  0  0  0  0  0  0  0  0  0
    0.4047    0.8477    0.1485 H   0  0  0  0  0  0  0  0  0  0  0  0
   -0.9124   -1.8955   -0.2642 H   0  0  0  0  0  0  0  0  0  0  0  0
   -2.5545   -1.1933    1.4224 H   0  0  0  0  0  0  0  0  0  0  0  0
   -1.0360   -0.3841    2.0045 H   0  0  0  0  0  0  0  0  0  0  0  0
   -2.7752    1.4688    1.5606 H   0  0  0  0  0  0  0  0  0  0  0  0
   -2.7195   -0.6884   -1.4195 H   0  0  0  0  0  0  0  0  0  0  0  0
   -1.1484   -0.0056   -2.0324 H   0  0  0  0  0  0  0  0  0  0  0  0
  1  2  1  0
  2  3  1  0
  3  4  2  0
  3  5  1  0
  5  6  1  0
  6  7  1  0
  7  8  1  0
  8  9  1  0
  9 10  2  0
  9 11  1  0
 11  6  1  0
  1 12  1  0
  1 13  1  0
  2 14  1  0
  2 15  1  0
  5 16  1  0
  6 17  1  6
  7 18  1  0
  7 19  1  0
  8 20  1  0
 11 21  1  0
 11 22  1  0
M  END
$$$$
