
     RDKit          3D

 29 30  0  0  0  0  0  0  0  0999 V2000
   -3.0399   -1.4661    0.5580 N   0  0  0  0  0  0  0  0  0  0  0  0
   -2.4944   -0.1178    0.5361 C   0  0  2  0  0  0  0  0  0  0  0  0
   -2.6363    0.5338   -0.7951 C   0  0  0  0  0  0  0  0  0  0  0  0
   -1.3742    1.1876   -1.2968 C   0  0  0  0  0  0  0  0  0  0  0  0
   -0.2813    0.1134   -1.2510 C   0  0  0  0  0  0  0  0  0  0  0  0
    0.0101   -0.0677    0.1457 N   0  0  0  0  0  0  0  0  0  0  0  0
    1.3555   -0.1596    0.5987 C   0  0  1  0  0  0  0  0  0  0  0  0
    2.1650   -1.2265   -0.0718 C   0  0  0  0  0  0  0  0  0  0  0  0
    3.5268   -0.7199   -0.0197 N   0  0  0  0  0  0  0  0  0  0  0  0
    3.5410    0.6180    0.4659 C   0  0  0  0  0  0  0  0  0  0  0  0
    4.4968    1.2802    0.9486 O   0  0  0  0  0  0  0  0  0  0  0  0
    2.1371    1.1109    0.2847 C   0  0  0  0  0  0  0  0  0  0  0  0
   -1.0843   -0.1490    1.0308 C   0  0  0  0  0  0  0  0  0  0  0  0
   -0.8349   -0.2496    2.2621 O   0  0  0  0  0  0  0  0  0  0  0  0
   -3.7000   -1.6387   -0.2248 H   0  0  0  0  0  0  0  0  0  0  0  0
   -3.3838   -1.7565    1.4839 H   0  0  0  0  0  0  0  0  0  0  0  0
   -3.0660    0.4903    1.2955 H   0  0  0  0  0  0  0  0  0  0  0  0
   -3.4793    1.2572   -0.8450 H   0  0  0  0  0  0  0  0  0  0  0  0
   -2.8898   -0.2676   -1.5484 H   0  0  0  0  0  0  0  0  0  0  0  0
   -1.4789    1.4815   -2.3371 H   0  0  0  0  0  0  0  0  0  0  0  0
   -1.0898    2.0401   -0.6282 H   0  0  0  0  0  0  0  0  0  0  0  0
   -0.7545   -0.8206   -1.6537 H   0  0  0  0  0  0  0  0  0  0  0  0
    0.5720    0.3736   -1.8725 H   0  0  0  0  0  0  0  0  0  0  0  0
    1.4513   -0.2997    1.6978 H   0  0  0  0  0  0  0  0  0  0  0  0
    2.1685   -2.1647    0.5388 H   0  0  0  0  0  0  0  0  0  0  0  0
    1.8615   -1.4657   -1.0895 H   0  0  0  0  0  0  0  0  0  0  0  0
    4.4146   -1.2147   -0.2860 H   0  0  0  0  0  0  0  0  0  0  0  0
    1.9261    1.9176    0.9934 H   0  0  0  0  0  0  0  0  0  0  0  0
    1.9610    1.3802   -0.7719 H   0  0  0  0  0  0  0  0  0  0  0  0
  1  2  1  0
  2  3  1  0
  3  4  1  0
  4  5  1  0
  5  6  1  0
  6  7  1  0
  7  8  1  0
  8  9  1  0
  9 10  1  0
 10 11  2  0
 10 12  1  0
  6 13  1  0
 13 14  2  0
 13  2  1  0
 12  7  1  0
  1 15  1  0
  1 16  1  0
  2 17  1  1
  3 18  1  0
  3 19  1  0
  4 20  1  0
  4 21  1  0
  5 22  1  0
  5 23  1  0
  7 24  1  1
  8 25  1  0
  8 26  1  0
  9 27  1  0
 12 28  1  0
 12 29  1  0
M  END
$$$$

     RDKit          3D

 29 30  0  0  0  0  0  0  0  0999 V2000
    2.7231    1.0101    1.5461 N   0  0  0  0  0  0  0  0  0  0  0  0
    2.1562   -0.2210    0.9777 C   0  0  2  0  0  0  0  0  0  0  0  0
    2.7770   -0.4509   -0.3597 C   0  0  0  0  0  0  0  0  0  0  0  0
    1.7973   -0.8402   -1.4238 C   0  0  0  0  0  0  0  0  0  0  0  0
    0.7247    0.2307   -1.4775 C   0  0  0  0  0  0  0  0  0  0  0  0
   -0.0567    0.0870   -0.2529 N   0  0  0  0  0  0  0  0  0  0  0  0
   -1.4611    0.1652   -0.3681 C   0  0  1  0  0  0  0  0  0  0  0  0
   -2.1728   -1.0745    0.1834 C   0  0  0  0  0  0  0  0  0  0  0  0
   -3.5488   -0.6369    0.0914 N   0  0  0  0  0  0  0  0  0  0  0  0
   -3.5278    0.7399    0.4291 C   0  0  0  0  0  0  0  0  0  0  0  0
   -4.5395    1.4443    0.6455 O   0  0  0  0  0  0  0  0  0  0  0  0
   -2.1182    1.2191    0.4867 C   0  0  0  0  0  0  0  0  0  0  0  0
    0.6758   -0.1176    0.9343 C   0  0  0  0  0  0  0  0  0  0  0  0
    0.0441   -0.2169    2.0059 O   0  0  0  0  0  0  0  0  0  0  0  0
    2.4138    1.8403    0.9796 H   0  0  0  0  0  0  0  0  0  0  0  0
    3.7647    0.8780    1.5191 H   0  0  0  0  0  0  0  0  0  0  0  0
    2.4125   -1.0457    1.6880 H   0  0  0  0  0  0  0  0  0  0  0  0
    3.3770    0.4208   -0.7187 H   0  0  0  0  0  0  0  0  0  0  0  0
    3.5212   -1.2863   -0.2667 H   0  0  0  0  0  0  0  0  0  0  0  0
    1.2960   -1.7933   -1.1656 H   0  0  0  0  0  0  0  0  0  0  0  0
    2.3078   -0.8948   -2.3916 H   0  0  0  0  0  0  0  0  0  0  0  0
    1.1823    1.2224   -1.5604 H   0  0  0  0  0  0  0  0  0  0  0  0
    0.1018    0.0232   -2.3856 H   0  0  0  0  0  0  0  0  0  0  0  0
   -1.8060    0.3310   -1.4044 H   0  0  0  0  0  0  0  0  0  0  0  0
   -1.9373   -1.1952    1.2452 H   0  0  0  0  0  0  0  0  0  0  0  0
   -1.9592   -1.9637   -0.4320 H   0  0  0  0  0  0  0  0  0  0  0  0
   -4.3405   -1.2502   -0.1718 H   0  0  0  0  0  0  0  0  0  0  0  0
   -1.8096    1.1322    1.5528 H   0  0  0  0  0  0  0  0  0  0  0  0
   -1.9979    2.2430    0.0940 H   0  0  0  0  0  0  0  0  0  0  0  0
  1  2  1  0
  2  3  1  0
  3  4  1  0
  4  5  1  0
  5  6  1  0
  6  7  1  0
  7  8  1  0
  8  9  1  0
  9 10  1  0
 10 11  2  0
 10 12  1  0
  6 13  1  0
 13 14  2  0
 13  2  1  0
 12  7  1  0
  1 15  1  0
  1 16  1  0
  2 17  1  1
  3 18  1  0
  3 19  1  0
  4 20  1  0
  4 21  1  0
  5 22  1  0
  5 23  1  0
  7 24  1  6
  8 25  1  0
  8 26  1  0
  9 27  1  0
 12 28  1  0
 12 29  1  0
M  END
$$$$

     RDKit          3D

 29 30  0  0  0  0  0  0  0  0999 V2000
    3.1295    1.7633    0.8663 N   0  0  0  0  0  0  0  0  0  0  0  0
    2.3417    0.5476    0.8103 C   0  0  2  0  0  0  0  0  0  0  0  0
    2.8045   -0.3055   -0.3157 C   0  0  0  0  0  0  0  0  0  0  0  0
    1.8422   -1.3302   -0.7892 C   0  0  0  0  0  0  0  0  0  0  0  0
    0.4075   -1.0107   -0.7600 C   0  0  0  0  0  0  0  0  0  0  0  0
   -0.0246    0.0424    0.0871 N   0  0  0  0  0  0  0  0  0  0  0  0
   -1.4097    0.3023    0.2834 C   0  0  1  0  0  0  0  0  0  0  0  0
   -2.1776    0.5713   -0.9877 C   0  0  0  0  0  0  0  0  0  0  0  0
   -3.5578    0.4707   -0.4812 N   0  0  0  0  0  0  0  0  0  0  0  0
   -3.5752   -0.3771    0.6578 C   0  0  0  0  0  0  0  0  0  0  0  0
   -4.5398   -0.6675    1.4010 O   0  0  0  0  0  0  0  0  0  0  0  0
   -2.1881   -0.8807    0.8194 C   0  0  0  0  0  0  0  0  0  0  0  0
    0.9159    0.8840    0.7768 C   0  0  0  0  0  0  0  0  0  0  0  0
    0.5043    1.9137    1.3525 O   0  0  0  0  0  0  0  0  0  0  0  0
    2.5283    2.6124    0.9776 H   0  0  0  0  0  0  0  0  0  0  0  0
    3.6332    1.8754   -0.0409 H   0  0  0  0  0  0  0  0  0  0  0  0
    2.5328    0.0139    1.7834 H   0  0  0  0  0  0  0  0  0  0  0  0
    3.1590    0.3673   -1.1262 H   0  0  0  0  0  0  0  0  0  0  0  0
    3.7462   -0.8186    0.0456 H   0  0  0  0  0  0  0  0  0  0  0  0
    2.0282   -2.2692   -0.2057 H   0  0  0  0  0  0  0  0  0  0  0  0
    2.1382   -1.6034   -1.8345 H   0  0  0  0  0  0  0  0  0  0  0  0
    0.0506   -0.7538   -1.8033 H   0  0  0  0  0  0  0  0  0  0  0  0
   -0.1795   -1.9209   -0.4924 H   0  0  0  0  0  0  0  0  0  0  0  0
   -1.6226    1.1509    0.9671 H   0  0  0  0  0  0  0  0  0  0  0  0
   -2.0197    1.5798   -1.3881 H   0  0  0  0  0  0  0  0  0  0  0  0
   -2.0314   -0.2123   -1.7504 H   0  0  0  0  0  0  0  0  0  0  0  0
   -4.3915    0.9399   -0.8841 H   0  0  0  0  0  0  0  0  0  0  0  0
   -1.9389   -1.1084    1.8704 H   0  0  0  0  0  0  0  0  0  0  0  0
   -2.1056   -1.7766    0.1606 H   0  0  0  0  0  0  0  0  0  0  0  0
  1  2  1  0
  2  3  1  0
  3  4  1  0
  4  5  1  0
  5  6  1  0
  6  7  1  0
  7  8  1  0
  8  9  1  0
  9 10  1  0
 10 11  2  0
 10 12  1  0
  6 13  1  0
 13 14  2  0
 13  2  1  0
 12  7  1  0
  1 15  1  0
  1 16  1  0
  2 17  1  1
  3 18  1  0
  3 19  1  0
  4 20  1  0
  4 21  1  0
  5 22  1  0
  5 23  1  0
  7 24  1  1
  8 25  1  0
  8 26  1  0
  9 27  1  0
 12 28  1  0
 12 29  1  0
M  END
$$$$

     RDKit          3D

 29 30  0  0  0  0  0  0  0  0999 V2000
   -3.0585   -1.7941    0.9401 N   0  0  0  0  0  0  0  0  0  0  0  0
   -2.2982   -0.5611    1.1416 C   0  0  2  0  0  0  0  0  0  0  0  0
   -2.7413    0.4146    0.1076 C   0  0  0  0  0  0  0  0  0  0  0  0
   -1.7123    0.5260   -1.0000 C   0  0  0  0  0  0  0  0  0  0  0  0
   -0.4444    1.0758   -0.3363 C   0  0  0  0  0  0  0  0  0  0  0  0
    0.0981   -0.0011    0.4371 N   0  0  0  0  0  0  0  0  0  0  0  0
    1.5000   -0.2991    0.5668 C   0  0  1  0  0  0  0  0  0  0  0  0
    2.1710   -0.5700   -0.7422 C   0  0  0  0  0  0  0  0  0  0  0  0
    3.5683   -0.1314   -0.5904 N   0  0  0  0  0  0  0  0  0  0  0  0
    3.6354    0.7592    0.5099 C   0  0  0  0  0  0  0  0  0  0  0  0
    4.6689    1.3549    0.8786 O   0  0  0  0  0  0  0  0  0  0  0  0
    2.2932    0.8537    1.1278 C   0  0  0  0  0  0  0  0  0  0  0  0
   -0.8365   -0.8284    1.1223 C   0  0  0  0  0  0  0  0  0  0  0  0
   -0.4529   -1.8584    1.7642 O   0  0  0  0  0  0  0  0  0  0  0  0
   -3.9491   -1.7554    1.4833 H   0  0  0  0  0  0  0  0  0  0  0  0
   -3.3466   -1.8522   -0.0775 H   0  0  0  0  0  0  0  0  0  0  0  0
   -2.6089   -0.1682    2.1485 H   0  0  0  0  0  0  0  0  0  0  0  0
   -3.7139    0.1590   -0.3690 H   0  0  0  0  0  0  0  0  0  0  0  0
   -2.8561    1.4576    0.5257 H   0  0  0  0  0  0  0  0  0  0  0  0
   -2.0516    1.1608   -1.8225 H   0  0  0  0  0  0  0  0  0  0  0  0
   -1.5102   -0.5148   -1.3558 H   0  0  0  0  0  0  0  0  0  0  0  0
    0.2039    1.4062   -1.1647 H   0  0  0  0  0  0  0  0  0  0  0  0
   -0.7089    1.8982    0.3493 H   0  0  0  0  0  0  0  0  0  0  0  0
    1.6630   -1.1798    1.2183 H   0  0  0  0  0  0  0  0  0  0  0  0
    2.2422   -1.6677   -0.9433 H   0  0  0  0  0  0  0  0  0  0  0  0
    1.6938   -0.0903   -1.6009 H   0  0  0  0  0  0  0  0  0  0  0  0
    4.3572   -0.4319   -1.1933 H   0  0  0  0  0  0  0  0  0  0  0  0
    1.8690    1.8434    0.8127 H   0  0  0  0  0  0  0  0  0  0  0  0
    2.3252    0.7945    2.2341 H   0  0  0  0  0  0  0  0  0  0  0  0
  1  2  1  0
  2  3  1  0
  3  4  1  0
  4  5  1  0
  5  6  1  0
  6  7  1  0
  7  8  1  0
  8  9  1  0
  9 10  1  0
 10 11  2  0
 10 12  1  0
  6 13  1  0
 13 14  2  0
 13  2  1  0
 12  7  1  0
  1 15  1  0
  1 16  1  0
  2 17  1  1
  3 18  1  0
  3 19  1  0
  4 20  1  0
  4 21  1  0
  5 22  1  0
  5 23  1  0
  7 24  1  1
  8 25  1  0
  8 26  1  0
  9 27  1  0
 12 28  1  0
 12 29  1  0
M  END
$$$$

     RDKit          3D

 29 30  0  0  0  0  0  0  0  0999 V2000
    3.0848    1.5544   -1.2793 N   0  0  0  0  0  0  0  0  0  0  0  0
    2.2819    0.9232   -0.2651 C   0  0  2  0  0  0  0  0  0  0  0  0
    2.7787   -0.4130    0.1539 C   0  0  0  0  0  0  0  0  0  0  0  0
    1.7361   -1.4161    0.4755 C   0  0  0  0  0  0  0  0  0  0  0  0
    0.4347   -0.8301    0.9595 C   0  0  0  0  0  0  0  0  0  0  0  0
   -0.0882    0.0658   -0.0525 N   0  0  0  0  0  0  0  0  0  0  0  0
   -1.4629    0.2711   -0.3441 C   0  0  1  0  0  0  0  0  0  0  0  0
   -2.2272   -0.9485   -0.7289 C   0  0  0  0  0  0  0  0  0  0  0  0
   -3.4791   -0.9260   -0.0093 N   0  0  0  0  0  0  0  0  0  0  0  0
   -3.5744    0.3377    0.6186 C   0  0  0  0  0  0  0  0  0  0  0  0
   -4.6154    0.9887    0.9153 O   0  0  0  0  0  0  0  0  0  0  0  0
   -2.2133    0.8004    0.8861 C   0  0  0  0  0  0  0  0  0  0  0  0
    0.8935    0.7797   -0.7926 C   0  0  0  0  0  0  0  0  0  0  0  0
    0.5623    1.2933   -1.9140 O   0  0  0  0  0  0  0  0  0  0  0  0
    3.8457    2.1140   -0.8334 H   0  0  0  0  0  0  0  0  0  0  0  0
    2.5333    2.2062   -1.8720 H   0  0  0  0  0  0  0  0  0  0  0  0
    2.2867    1.5956    0.6370 H   0  0  0  0  0  0  0  0  0  0  0  0
    3.4658   -0.7852   -0.6626 H   0  0  0  0  0  0  0  0  0  0  0  0
    3.4670   -0.2866    1.0401 H   0  0  0  0  0  0  0  0  0  0  0  0
    1.5622   -2.0462   -0.4355 H   0  0  0  0  0  0  0  0  0  0  0  0
    2.0990   -2.1081    1.2846 H   0  0  0  0  0  0  0  0  0  0  0  0
    0.6656   -0.2349    1.8658 H   0  0  0  0  0  0  0  0  0  0  0  0
   -0.2424   -1.6595    1.1907 H   0  0  0  0  0  0  0  0  0  0  0  0
   -1.5625    1.0090   -1.1620 H   0  0  0  0  0  0  0  0  0  0  0  0
   -2.5047   -0.9437   -1.8234 H   0  0  0  0  0  0  0  0  0  0  0  0
   -1.6870   -1.8953   -0.5606 H   0  0  0  0  0  0  0  0  0  0  0  0
   -4.1720   -1.6806    0.0396 H   0  0  0  0  0  0  0  0  0  0  0  0
   -1.7577    0.3314    1.7726 H   0  0  0  0  0  0  0  0  0  0  0  0
   -2.1105    1.9036    0.8959 H   0  0  0  0  0  0  0  0  0  0  0  0
  1  2  1  0
  2  3  1  0
  3  4  1  0
  4  5  1  0
  5  6  1  0
  6  7  1  0
  7  8  1  0
  8  9  1  0
  9 10  1  0
 10 11  2  0
 10 12  1  0
  6 13  1  0
 13 14  2  0
 13  2  1  0
 12  7  1  0
  1 15  1  0
  1 16  1  0
  2 17  1  1
  3 18  1  0
  3 19  1  0
  4 20  1  0
  4 21  1  0
  5 22  1  0
  5 23  1  0
  7 24  1  6
  8 25  1  0
  8 26  1  0
  9 27  1  0
 12 28  1  0
 12 29  1  0
M  END
$$$$

     RDKit          3D

 29 30  0  0  0  0  0  0  0  0999 V2000
   -2.6732   -2.0055    0.7801 N   0  0  0  0  0  0  0  0  0  0  0  0
   -2.0512   -0.7469    0.5256 C   0  0  2  0  0  0  0  0  0  0  0  0
   -2.7538    0.0926   -0.4891 C   0  0  0  0  0  0  0  0  0  0  0  0
   -2.0857    1.4277   -0.6469 C   0  0  0  0  0  0  0  0  0  0  0  0
   -0.7795    1.5647    0.0695 C   0  0  0  0  0  0  0  0  0  0  0  0
    0.0503    0.3641   -0.0830 N   0  0  0  0  0  0  0  0  0  0  0  0
    1.4117    0.5204   -0.4006 C   0  0  1  0  0  0  0  0  0  0  0  0
    2.2527   -0.1088    0.7165 C   0  0  0  0  0  0  0  0  0  0  0  0
    3.5400   -0.2552    0.0485 N   0  0  0  0  0  0  0  0  0  0  0  0
    3.3695   -0.2235   -1.3602 C   0  0  0  0  0  0  0  0  0  0  0  0
    4.3189   -0.2017   -2.1805 O   0  0  0  0  0  0  0  0  0  0  0  0
    1.9027   -0.2226   -1.5958 C   0  0  0  0  0  0  0  0  0  0  0  0
   -0.6315   -0.8633    0.1133 C   0  0  0  0  0  0  0  0  0  0  0  0
    0.0022   -1.9147   -0.0721 O   0  0  0  0  0  0  0  0  0  0  0  0
   -2.3740   -2.7735    0.1759 H   0  0  0  0  0  0  0  0  0  0  0  0
   -2.5813   -2.2960    1.7803 H   0  0  0  0  0  0  0  0  0  0  0  0
   -2.0366   -0.1489    1.4837 H   0  0  0  0  0  0  0  0  0  0  0  0
   -2.7363   -0.4293   -1.4802 H   0  0  0  0  0  0  0  0  0  0  0  0
   -3.8269    0.2722   -0.1958 H   0  0  0  0  0  0  0  0  0  0  0  0
   -2.7503    2.2517   -0.2646 H   0  0  0  0  0  0  0  0  0  0  0  0
   -1.9392    1.6820   -1.7365 H   0  0  0  0  0  0  0  0  0  0  0  0
   -0.9474    1.6890    1.1679 H   0  0  0  0  0  0  0  0  0  0  0  0
   -0.2551    2.4514   -0.2836 H   0  0  0  0  0  0  0  0  0  0  0  0
    1.7035    1.5756   -0.5033 H   0  0  0  0  0  0  0  0  0  0  0  0
    1.8392   -1.0489    1.0771 H   0  0  0  0  0  0  0  0  0  0  0  0
    2.2918    0.6413    1.5194 H   0  0  0  0  0  0  0  0  0  0  0  0
    4.4304   -0.3648    0.5787 H   0  0  0  0  0  0  0  0  0  0  0  0
    1.7244    0.3381   -2.5560 H   0  0  0  0  0  0  0  0  0  0  0  0
    1.5848   -1.2674   -1.6642 H   0  0  0  0  0  0  0  0  0  0  0  0
  1  2  1  0
  2  3  1  0
  3  4  1  0
  4  5  1  0
  5  6  1  0
  6  7  1  0
  7  8  1  0
  8  9  1  0
  9 10  1  0
 10 11  2  0
 10 12  1  0
  6 13  1  0
 13 14  2  0
 13  2  1  0
 12  7  1  0
  1 15  1  0
  1 16  1  0
  2 17  1  1
  3 18  1  0
  3 19  1  0
  4 20  1  0
  4 21  1  0
  5 22  1  0
  5 23  1  0
  7 24  1  6
  8 25  1  0
  8 26  1  0
  9 27  1  0
 12 28  1  0
 12 29  1  0
M  END
$$$$

     RDKit          3D

 29 30  0  0  0  0  0  0  0  0999 V2000
   -3.0718    0.5548    1.3029 N   0  0  0  0  0  0  0  0  0  0  0  0
   -2.4436    0.9689    0.0799 C   0  0  2  0  0  0  0  0  0  0  0  0
   -2.4715   -0.1272   -0.9786 C   0  0  0  0  0  0  0  0  0  0  0  0
   -1.7673   -1.3696   -0.5343 C   0  0  0  0  0  0  0  0  0  0  0  0
   -0.5180   -1.1355    0.2426 C   0  0  0  0  0  0  0  0  0  0  0  0
   -0.0274    0.2127    0.1961 N   0  0  0  0  0  0  0  0  0  0  0  0
    1.3456    0.5809    0.0431 C   0  0  1  0  0  0  0  0  0  0  0  0
    2.2432   -0.0032    1.1067 C   0  0  0  0  0  0  0  0  0  0  0  0
    3.5563    0.2309    0.5462 N   0  0  0  0  0  0  0  0  0  0  0  0
    3.4231    0.1391   -0.8631 C   0  0  0  0  0  0  0  0  0  0  0  0
    4.3616    0.1528   -1.6964 O   0  0  0  0  0  0  0  0  0  0  0  0
    1.9798    0.0221   -1.2160 C   0  0  0  0  0  0  0  0  0  0  0  0
   -0.9851    1.2609    0.3118 C   0  0  0  0  0  0  0  0  0  0  0  0
   -0.6762    2.4419    0.6027 O   0  0  0  0  0  0  0  0  0  0  0  0
   -2.5736    1.0551    2.0855 H   0  0  0  0  0  0  0  0  0  0  0  0
   -2.9531   -0.4569    1.4961 H   0  0  0  0  0  0  0  0  0  0  0  0
   -2.9700    1.8322   -0.3435 H   0  0  0  0  0  0  0  0  0  0  0  0
   -3.5305   -0.4092   -1.2221 H   0  0  0  0  0  0  0  0  0  0  0  0
   -1.9494    0.2703   -1.8716 H   0  0  0  0  0  0  0  0  0  0  0  0
   -1.5521   -1.9685   -1.4667 H   0  0  0  0  0  0  0  0  0  0  0  0
   -2.5218   -1.9830    0.0402 H   0  0  0  0  0  0  0  0  0  0  0  0
   -0.7315   -1.3734    1.3191 H   0  0  0  0  0  0  0  0  0  0  0  0
    0.2526   -1.8738   -0.0884 H   0  0  0  0  0  0  0  0  0  0  0  0
    1.4955    1.6570    0.0334 H   0  0  0  0  0  0  0  0  0  0  0  0
    2.0806   -1.1100    1.1407 H   0  0  0  0  0  0  0  0  0  0  0  0
    2.1070    0.4720    2.0919 H   0  0  0  0  0  0  0  0  0  0  0  0
    4.4125    0.4259    1.0952 H   0  0  0  0  0  0  0  0  0  0  0  0
    1.7653   -1.0676   -1.3436 H   0  0  0  0  0  0  0  0  0  0  0  0
    1.7200    0.6003   -2.1098 H   0  0  0  0  0  0  0  0  0  0  0  0
  1  2  1  0
  2  3  1  0
  3  4  1  0
  4  5  1  0
  5  6  1  0
  6  7  1  0
  7  8  1  0
  8  9  1  0
  9 10  1  0
 10 11  2  0
 10 12  1  0
  6 13  1  0
 13 14  2  0
 13  2  1  0
 12  7  1  0
  1 15  1  0
  1 16  1  0
  2 17  1  6
  3 18  1  0
  3 19  1  0
  4 20  1  0
  4 21  1  0
  5 22  1  0
  5 23  1  0
  7 24  1  6
  8 25  1  0
  8 26  1  0
  9 27  1  0
 12 28  1  0
 12 29  1  0
M  END
$$$$

     RDKit          3D

 29 30  0  0  0  0  0  0  0  0999 V2000
    2.6726    1.2075    1.3236 N   0  0  0  0  0  0  0  0  0  0  0  0
    2.1979    0.3148    0.2811 C   0  0  2  0  0  0  0  0  0  0  0  0
    2.0361    1.1597   -0.9749 C   0  0  0  0  0  0  0  0  0  0  0  0
    1.3697    0.4287   -2.0907 C   0  0  0  0  0  0  0  0  0  0  0  0
    0.6424   -0.8230   -1.6471 C   0  0  0  0  0  0  0  0  0  0  0  0
   -0.0315   -0.5252   -0.3965 N   0  0  0  0  0  0  0  0  0  0  0  0
   -1.4676   -0.6628   -0.2466 C   0  0  1  0  0  0  0  0  0  0  0  0
   -1.8429   -1.6629    0.8056 C   0  0  0  0  0  0  0  0  0  0  0  0
   -2.8367   -0.9937    1.6327 N   0  0  0  0  0  0  0  0  0  0  0  0
   -2.6708    0.4006    1.4623 C   0  0  0  0  0  0  0  0  0  0  0  0
   -2.9275    1.3111    2.3110 O   0  0  0  0  0  0  0  0  0  0  0  0
   -2.1348    0.6378    0.0980 C   0  0  0  0  0  0  0  0  0  0  0  0
    0.8080   -0.0899    0.6720 C   0  0  0  0  0  0  0  0  0  0  0  0
    0.3774   -0.0633    1.8316 O   0  0  0  0  0  0  0  0  0  0  0  0
    3.6031    0.9734    1.6798 H   0  0  0  0  0  0  0  0  0  0  0  0
    1.9873    1.3443    2.0872 H   0  0  0  0  0  0  0  0  0  0  0  0
    2.8518   -0.5486    0.1266 H   0  0  0  0  0  0  0  0  0  0  0  0
    1.4235    2.0500   -0.6475 H   0  0  0  0  0  0  0  0  0  0  0  0
    3.0063    1.5572   -1.3378 H   0  0  0  0  0  0  0  0  0  0  0  0
    0.5786    1.1113   -2.5172 H   0  0  0  0  0  0  0  0  0  0  0  0
    2.0511    0.2228   -2.9444 H   0  0  0  0  0  0  0  0  0  0  0  0
    1.4319   -1.5983   -1.4749 H   0  0  0  0  0  0  0  0  0  0  0  0
   -0.0710   -1.1422   -2.4257 H   0  0  0  0  0  0  0  0  0  0  0  0
   -1.8725   -1.0112   -1.2130 H   0  0  0  0  0  0  0  0  0  0  0  0
   -2.3646   -2.5570    0.3659 H   0  0  0  0  0  0  0  0  0  0  0  0
   -1.0080   -1.9730    1.4450 H   0  0  0  0  0  0  0  0  0  0  0  0
   -3.5623   -1.4383    2.2565 H   0  0  0  0  0  0  0  0  0  0  0  0
   -1.3310    1.4284    0.1437 H   0  0  0  0  0  0  0  0  0  0  0  0
   -2.9165    0.9417   -0.6063 H   0  0  0  0  0  0  0  0  0  0  0  0
  1  2  1  0
  2  3  1  0
  3  4  1  0
  4  5  1  0
  5  6  1  0
  6  7  1  0
  7  8  1  0
  8  9  1  0
  9 10  1  0
 10 11  2  0
 10 12  1  0
  6 13  1  0
 13 14  2  0
 13  2  1  0
 12  7  1  0
  1 15  1  0
  1 16  1  0
  2 17  1  6
  3 18  1  0
  3 19  1  0
  4 20  1  0
  4 21  1  0
  5 22  1  0
  5 23  1  0
  7 24  1  6
  8 25  1  0
  8 26  1  0
  9 27  1  0
 12 28  1  0
 12 29  1  0
M  END
$$$$
