
     RDKit          3D

 29 28  0  0  0  0  0  0  0  0999 V2000
   -3.2946   -1.7544    0.4649 C   0  0  0  0  0  0  0  0  0  0  0  0
   -2.3144   -0.7703    0.5779 O   0  0  0  0  0  0  0  0  0  0  0  0
   -1.6465   -0.5684   -0.6111 C   0  0  0  0  0  0  0  0  0  0  0  0
   -0.6322    0.5450   -0.4415 C   0  0  1  0  0  0  0  0  0  0  0  0
   -1.4095    1.7633    0.0937 C   0  0  0  0  0  0  0  0  0  0  0  0
   -2.3533    2.1333   -0.8433 O   0  0  0  0  0  0  0  0  0  0  0  0
    0.3433    0.2528    0.5814 N   0  0  0  0  0  0  0  0  0  0  0  0
    1.6105    0.8272    0.2550 C   0  0  0  0  0  0  0  0  0  0  0  0
    2.3288    0.0763   -0.8002 C   0  0  2  0  0  0  0  0  0  0  0  0
    1.6981   -0.1236   -1.9849 O   0  0  0  0  0  0  0  0  0  0  0  0
    3.0164   -1.1602   -0.2715 C   0  0  0  0  0  0  0  0  0  0  0  0
    3.6251   -0.8480    0.9550 O   0  0  0  0  0  0  0  0  0  0  0  0
   -4.0722   -1.4967   -0.2824 H   0  0  0  0  0  0  0  0  0  0  0  0
   -2.9188   -2.7703    0.2972 H   0  0  0  0  0  0  0  0  0  0  0  0
   -3.8481   -1.7603    1.4538 H   0  0  0  0  0  0  0  0  0  0  0  0
   -1.1323   -1.4904   -0.9498 H   0  0  0  0  0  0  0  0  0  0  0  0
   -2.3625   -0.3104   -1.4301 H   0  0  0  0  0  0  0  0  0  0  0  0
   -0.1871    0.8460   -1.4017 H   0  0  0  0  0  0  0  0  0  0  0  0
   -0.7052    2.5869    0.3094 H   0  0  0  0  0  0  0  0  0  0  0  0
   -1.9345    1.4156    1.0141 H   0  0  0  0  0  0  0  0  0  0  0  0
   -2.2917    3.1422   -0.9382 H   0  0  0  0  0  0  0  0  0  0  0  0
    0.0092    0.4272    1.5400 H   0  0  0  0  0  0  0  0  0  0  0  0
    2.2163    0.8758    1.2157 H   0  0  0  0  0  0  0  0  0  0  0  0
    1.4284    1.8928   -0.0724 H   0  0  0  0  0  0  0  0  0  0  0  0
    3.2492    0.7480   -1.0842 H   0  0  0  0  0  0  0  0  0  0  0  0
    1.2439   -0.9877   -2.0093 H   0  0  0  0  0  0  0  0  0  0  0  0
    2.3221   -1.9945   -0.0812 H   0  0  0  0  0  0  0  0  0  0  0  0
    3.8466   -1.4734   -0.9625 H   0  0  0  0  0  0  0  0  0  0  0  0
    4.1646   -0.0238    0.8377 H   0  0  0  0  0  0  0  0  0  0  0  0
  1  2  1  0
  2  3  1  0
  3  4  1  0
  4  5  1  0
  5  6  1  0
  4  7  1  0
  7  8  1  0
  8  9  1  0
  9 10  1  0
  9 11  1  0
 11 12  1  0
  1 13  1  0
  1 14  1  0
  1 15  1  0
  3 16  1  0
  3 17  1  0
  4 18  1  6
  5 19  1  0
  5 20  1  0
  6 21  1  0
  7 22  1  0
  8 23  1  0
  8 24  1  0
  9 25  1  6
 10 26  1  0
 11 27  1  0
 11 28  1  0
 12 29  1  0
M  END
$$$$

     RDKit          3D

 29 28  0  0  0  0  0  0  0  0999 V2000
    2.4864    1.7730    0.4439 C   0  0  0  0  0  0  0  0  0  0  0  0
    1.5780    0.7087    0.2583 O   0  0  0  0  0  0  0  0  0  0  0  0
    2.1143   -0.2550   -0.5783 C   0  0  0  0  0  0  0  0  0  0  0  0
    0.9964   -1.3356   -0.7439 C   0  0  1  0  0  0  0  0  0  0  0  0
    0.9670   -1.9745    0.6046 C   0  0  0  0  0  0  0  0  0  0  0  0
    0.7661   -1.1466    1.6755 O   0  0  0  0  0  0  0  0  0  0  0  0
   -0.0643   -0.6925   -1.2983 N   0  0  0  0  0  0  0  0  0  0  0  0
   -0.9366    0.2411   -0.8258 C   0  0  0  0  0  0  0  0  0  0  0  0
   -2.0285   -0.2141    0.1153 C   0  0  2  0  0  0  0  0  0  0  0  0
   -2.8614   -1.1568   -0.5334 O   0  0  0  0  0  0  0  0  0  0  0  0
   -2.9288    0.9768    0.4168 C   0  0  0  0  0  0  0  0  0  0  0  0
   -2.1421    1.9238    1.0916 O   0  0  0  0  0  0  0  0  0  0  0  0
    3.4248    1.4466    0.8887 H   0  0  0  0  0  0  0  0  0  0  0  0
    2.6553    2.1697   -0.5748 H   0  0  0  0  0  0  0  0  0  0  0  0
    2.0027    2.5804    1.0363 H   0  0  0  0  0  0  0  0  0  0  0  0
    2.2314    0.1968   -1.5834 H   0  0  0  0  0  0  0  0  0  0  0  0
    3.0097   -0.6970   -0.1634 H   0  0  0  0  0  0  0  0  0  0  0  0
    1.4442   -2.0632   -1.4511 H   0  0  0  0  0  0  0  0  0  0  0  0
    1.9539   -2.4654    0.7566 H   0  0  0  0  0  0  0  0  0  0  0  0
    0.2409   -2.8507    0.6060 H   0  0  0  0  0  0  0  0  0  0  0  0
    1.5755   -1.0247    2.2311 H   0  0  0  0  0  0  0  0  0  0  0  0
   -0.2445   -0.9416   -2.3271 H   0  0  0  0  0  0  0  0  0  0  0  0
   -0.4870    1.1503   -0.3655 H   0  0  0  0  0  0  0  0  0  0  0  0
   -1.4934    0.6852   -1.7140 H   0  0  0  0  0  0  0  0  0  0  0  0
   -1.7011   -0.5881    1.0889 H   0  0  0  0  0  0  0  0  0  0  0  0
   -2.9455   -0.8445   -1.4737 H   0  0  0  0  0  0  0  0  0  0  0  0
   -3.2148    1.4454   -0.5327 H   0  0  0  0  0  0  0  0  0  0  0  0
   -3.7910    0.6865    1.0494 H   0  0  0  0  0  0  0  0  0  0  0  0
   -2.6073    2.2659    1.9024 H   0  0  0  0  0  0  0  0  0  0  0  0
  1  2  1  0
  2  3  1  0
  3  4  1  0
  4  5  1  0
  5  6  1  0
  4  7  1  0
  7  8  1  0
  8  9  1  0
  9 10  1  0
  9 11  1  0
 11 12  1  0
  1 13  1  0
  1 14  1  0
  1 15  1  0
  3 16  1  0
  3 17  1  0
  4 18  1  6
  5 19  1  0
  5 20  1  0
  6 21  1  0
  7 22  1  0
  8 23  1  0
  8 24  1  0
  9 25  1  1
 10 26  1  0
 11 27  1  0
 11 28  1  0
 12 29  1  0
M  END
$$$$

     RDKit          3D

 29 28  0  0  0  0  0  0  0  0999 V2000
   -3.4037    2.1400   -0.2466 C   0  0  0  0  0  0  0  0  0  0  0  0
   -2.3890    1.3494    0.2474 O   0  0  0  0  0  0  0  0  0  0  0  0
   -2.2500    0.1476   -0.4355 C   0  0  0  0  0  0  0  0  0  0  0  0
   -1.1121   -0.6228    0.2049 C   0  0  1  0  0  0  0  0  0  0  0  0
   -1.1226   -2.0250   -0.2669 C   0  0  0  0  0  0  0  0  0  0  0  0
   -0.2946   -2.8879    0.4354 O   0  0  0  0  0  0  0  0  0  0  0  0
    0.1310    0.0836    0.1465 N   0  0  0  0  0  0  0  0  0  0  0  0
    1.2389   -0.7539    0.4012 C   0  0  0  0  0  0  0  0  0  0  0  0
    2.5678   -0.0471    0.4341 C   0  0  2  0  0  0  0  0  0  0  0  0
    2.6110    0.9324    1.4100 O   0  0  0  0  0  0  0  0  0  0  0  0
    3.0050    0.5126   -0.8656 C   0  0  0  0  0  0  0  0  0  0  0  0
    4.3245    0.9952   -0.7518 O   0  0  0  0  0  0  0  0  0  0  0  0
   -3.4294    3.0686    0.3681 H   0  0  0  0  0  0  0  0  0  0  0  0
   -4.3829    1.6200   -0.2224 H   0  0  0  0  0  0  0  0  0  0  0  0
   -3.1305    2.4518   -1.2777 H   0  0  0  0  0  0  0  0  0  0  0  0
   -2.0074    0.3047   -1.5097 H   0  0  0  0  0  0  0  0  0  0  0  0
   -3.1900   -0.4294   -0.3393 H   0  0  0  0  0  0  0  0  0  0  0  0
   -1.3610   -0.6753    1.3194 H   0  0  0  0  0  0  0  0  0  0  0  0
   -2.1626   -2.4181   -0.1470 H   0  0  0  0  0  0  0  0  0  0  0  0
   -0.8885   -2.1130   -1.3635 H   0  0  0  0  0  0  0  0  0  0  0  0
   -0.6345   -2.9294    1.3681 H   0  0  0  0  0  0  0  0  0  0  0  0
    0.2069    0.6958   -0.6773 H   0  0  0  0  0  0  0  0  0  0  0  0
    1.1127   -1.2760    1.3645 H   0  0  0  0  0  0  0  0  0  0  0  0
    1.2723   -1.5217   -0.4316 H   0  0  0  0  0  0  0  0  0  0  0  0
    3.3241   -0.8264    0.7423 H   0  0  0  0  0  0  0  0  0  0  0  0
    2.0458    1.6817    1.0824 H   0  0  0  0  0  0  0  0  0  0  0  0
    3.0374   -0.2203   -1.6943 H   0  0  0  0  0  0  0  0  0  0  0  0
    2.4089    1.3838   -1.2044 H   0  0  0  0  0  0  0  0  0  0  0  0
    4.4725    1.3791    0.1503 H   0  0  0  0  0  0  0  0  0  0  0  0
  1  2  1  0
  2  3  1  0
  3  4  1  0
  4  5  1  0
  5  6  1  0
  4  7  1  0
  7  8  1  0
  8  9  1  0
  9 10  1  0
  9 11  1  0
 11 12  1  0
  1 13  1  0
  1 14  1  0
  1 15  1  0
  3 16  1  0
  3 17  1  0
  4 18  1  1
  5 19  1  0
  5 20  1  0
  6 21  1  0
  7 22  1  0
  8 23  1  0
  8 24  1  0
  9 25  1  1
 10 26  1  0
 11 27  1  0
 11 28  1  0
 12 29  1  0
M  END
$$$$

     RDKit          3D

 29 28  0  0  0  0  0  0  0  0999 V2000
    3.5568    0.9987   -0.2784 C   0  0  0  0  0  0  0  0  0  0  0  0
    3.0369    0.6413    0.9351 O   0  0  0  0  0  0  0  0  0  0  0  0
    1.6803    0.5120    0.9703 C   0  0  0  0  0  0  0  0  0  0  0  0
    1.1159   -0.5565    0.0540 C   0  0  1  0  0  0  0  0  0  0  0  0
    1.6187   -1.9161    0.5638 C   0  0  0  0  0  0  0  0  0  0  0  0
    2.9789   -2.0049    0.5487 O   0  0  0  0  0  0  0  0  0  0  0  0
   -0.3013   -0.6316    0.1470 N   0  0  0  0  0  0  0  0  0  0  0  0
   -1.0523    0.4965   -0.2716 C   0  0  0  0  0  0  0  0  0  0  0  0
   -2.5114    0.1696    0.0449 C   0  0  2  0  0  0  0  0  0  0  0  0
   -2.8945   -0.9753   -0.6362 O   0  0  0  0  0  0  0  0  0  0  0  0
   -3.4368    1.3272   -0.1631 C   0  0  0  0  0  0  0  0  0  0  0  0
   -4.7021    0.9273    0.3142 O   0  0  0  0  0  0  0  0  0  0  0  0
    3.3149    0.2615   -1.0404 H   0  0  0  0  0  0  0  0  0  0  0  0
    3.3141    2.0421   -0.5942 H   0  0  0  0  0  0  0  0  0  0  0  0
    4.6817    0.9824   -0.1668 H   0  0  0  0  0  0  0  0  0  0  0  0
    1.1725    1.4896    0.7794 H   0  0  0  0  0  0  0  0  0  0  0  0
    1.4007    0.2795    2.0423 H   0  0  0  0  0  0  0  0  0  0  0  0
    1.4300   -0.3587   -0.9876 H   0  0  0  0  0  0  0  0  0  0  0  0
    1.1385   -2.0864    1.5284 H   0  0  0  0  0  0  0  0  0  0  0  0
    1.1915   -2.6542   -0.1542 H   0  0  0  0  0  0  0  0  0  0  0  0
    3.2662   -2.5880   -0.1970 H   0  0  0  0  0  0  0  0  0  0  0  0
   -0.6648   -1.1759    0.9212 H   0  0  0  0  0  0  0  0  0  0  0  0
   -0.7341    1.4756    0.0635 H   0  0  0  0  0  0  0  0  0  0  0  0
   -1.0412    0.5253   -1.4109 H   0  0  0  0  0  0  0  0  0  0  0  0
   -2.5243   -0.0472    1.1491 H   0  0  0  0  0  0  0  0  0  0  0  0
   -3.7630   -0.8900   -1.0666 H   0  0  0  0  0  0  0  0  0  0  0  0
   -3.0824    2.2079    0.3791 H   0  0  0  0  0  0  0  0  0  0  0  0
   -3.5003    1.5522   -1.2582 H   0  0  0  0  0  0  0  0  0  0  0  0
   -4.6891   -0.0040    0.6689 H   0  0  0  0  0  0  0  0  0  0  0  0
  1  2  1  0
  2  3  1  0
  3  4  1  0
  4  5  1  0
  5  6  1  0
  4  7  1  0
  7  8  1  0
  8  9  1  0
  9 10  1  0
  9 11  1  0
 11 12  1  0
  1 13  1  0
  1 14  1  0
  1 15  1  0
  3 16  1  0
  3 17  1  0
  4 18  1  6
  5 19  1  0
  5 20  1  0
  6 21  1  0
  7 22  1  0
  8 23  1  0
  8 24  1  0
  9 25  1  1
 10 26  1  0
 11 27  1  0
 11 28  1  0
 12 29  1  0
M  END
$$$$

     RDKit          3D

 29 28  0  0  0  0  0  0  0  0999 V2000
   -3.3650   -1.3371   -0.1116 C   0  0  0  0  0  0  0  0  0  0  0  0
   -2.3615   -1.3412    0.7637 O   0  0  0  0  0  0  0  0  0  0  0  0
   -1.4766   -0.3712    0.9448 C   0  0  0  0  0  0  0  0  0  0  0  0
   -0.6824    0.0648   -0.2500 C   0  0  1  0  0  0  0  0  0  0  0  0
   -1.5689    1.0291   -1.0813 C   0  0  0  0  0  0  0  0  0  0  0  0
   -1.9732    2.0120   -0.1502 O   0  0  0  0  0  0  0  0  0  0  0  0
    0.3630    1.0218    0.1680 N   0  0  0  0  0  0  0  0  0  0  0  0
    1.3466    0.5183    1.0348 C   0  0  0  0  0  0  0  0  0  0  0  0
    2.2682   -0.5264    0.4258 C   0  0  2  0  0  0  0  0  0  0  0  0
    3.1803   -0.9135    1.4382 O   0  0  0  0  0  0  0  0  0  0  0  0
    3.0995   -0.0095   -0.7029 C   0  0  0  0  0  0  0  0  0  0  0  0
    2.3469    0.4136   -1.7940 O   0  0  0  0  0  0  0  0  0  0  0  0
   -3.0999   -1.3547   -1.1898 H   0  0  0  0  0  0  0  0  0  0  0  0
   -4.0640   -2.2237    0.0091 H   0  0  0  0  0  0  0  0  0  0  0  0
   -4.0222   -0.3998   -0.0413 H   0  0  0  0  0  0  0  0  0  0  0  0
   -0.7687   -0.6014    1.8143 H   0  0  0  0  0  0  0  0  0  0  0  0
   -2.0673    0.5446    1.3200 H   0  0  0  0  0  0  0  0  0  0  0  0
   -0.2807   -0.7435   -0.8715 H   0  0  0  0  0  0  0  0  0  0  0  0
   -2.3589    0.5928   -1.6305 H   0  0  0  0  0  0  0  0  0  0  0  0
   -0.8272    1.5375   -1.7702 H   0  0  0  0  0  0  0  0  0  0  0  0
   -1.2263    2.3138    0.3998 H   0  0  0  0  0  0  0  0  0  0  0  0
    0.6632    1.5292   -0.6543 H   0  0  0  0  0  0  0  0  0  0  0  0
    2.0585    1.3965    1.2273 H   0  0  0  0  0  0  0  0  0  0  0  0
    1.0150    0.1376    2.0107 H   0  0  0  0  0  0  0  0  0  0  0  0
    1.6810   -1.3889    0.0808 H   0  0  0  0  0  0  0  0  0  0  0  0
    2.7345   -1.3554    2.1818 H   0  0  0  0  0  0  0  0  0  0  0  0
    3.6998   -0.8834   -1.0828 H   0  0  0  0  0  0  0  0  0  0  0  0
    3.8522    0.7413   -0.3971 H   0  0  0  0  0  0  0  0  0  0  0  0
    1.8343   -0.4031   -2.0918 H   0  0  0  0  0  0  0  0  0  0  0  0
  1  2  1  0
  2  3  1  0
  3  4  1  0
  4  5  1  0
  5  6  1  0
  4  7  1  0
  7  8  1  0
  8  9  1  0
  9 10  1  0
  9 11  1  0
 11 12  1  0
  1 13  1  0
  1 14  1  0
  1 15  1  0
  3 16  1  0
  3 17  1  0
  4 18  1  6
  5 19  1  0
  5 20  1  0
  6 21  1  0
  7 22  1  0
  8 23  1  0
  8 24  1  0
  9 25  1  6
 10 26  1  0
 11 27  1  0
 11 28  1  0
 12 29  1  0
M  END
$$$$

     RDKit          3D

 29 28  0  0  0  0  0  0  0  0999 V2000
   -2.7730   -1.6644   -0.3957 C   0  0  0  0  0  0  0  0  0  0  0  0
   -2.2516   -0.9982   -1.4442 O   0  0  0  0  0  0  0  0  0  0  0  0
   -1.9589    0.3064   -1.3956 C   0  0  0  0  0  0  0  0  0  0  0  0
   -0.9937    0.8294   -0.4073 C   0  0  1  0  0  0  0  0  0  0  0  0
   -1.5701    0.9725    0.9494 C   0  0  0  0  0  0  0  0  0  0  0  0
   -2.8665    1.5517    0.7747 O   0  0  0  0  0  0  0  0  0  0  0  0
    0.2957    0.2787   -0.4468 N   0  0  0  0  0  0  0  0  0  0  0  0
    1.1213    0.4796    0.6799 C   0  0  0  0  0  0  0  0  0  0  0  0
    2.5501    0.0658    0.5102 C   0  0  2  0  0  0  0  0  0  0  0  0
    3.1521    0.8110   -0.5480 O   0  0  0  0  0  0  0  0  0  0  0  0
    2.8128   -1.3663    0.2287 C   0  0  0  0  0  0  0  0  0  0  0  0
    4.2318   -1.4917    0.1937 O   0  0  0  0  0  0  0  0  0  0  0  0
   -2.9927   -2.7302   -0.7281 H   0  0  0  0  0  0  0  0  0  0  0  0
   -1.9575   -1.8177    0.3664 H   0  0  0  0  0  0  0  0  0  0  0  0
   -3.6780   -1.2611    0.0768 H   0  0  0  0  0  0  0  0  0  0  0  0
   -2.9116    0.9388   -1.3938 H   0  0  0  0  0  0  0  0  0  0  0  0
   -1.5318    0.5982   -2.4241 H   0  0  0  0  0  0  0  0  0  0  0  0
   -0.7999    1.9588   -0.7183 H   0  0  0  0  0  0  0  0  0  0  0  0
   -0.9807    1.6866    1.5974 H   0  0  0  0  0  0  0  0  0  0  0  0
   -1.6776    0.0743    1.5446 H   0  0  0  0  0  0  0  0  0  0  0  0
   -2.6939    2.3839    0.2535 H   0  0  0  0  0  0  0  0  0  0  0  0
    0.4126   -0.6149   -0.9594 H   0  0  0  0  0  0  0  0  0  0  0  0
    0.7005   -0.0754    1.5418 H   0  0  0  0  0  0  0  0  0  0  0  0
    1.1174    1.5584    0.9389 H   0  0  0  0  0  0  0  0  0  0  0  0
    3.1061    0.3600    1.4165 H   0  0  0  0  0  0  0  0  0  0  0  0
    2.5500    1.5706   -0.7561 H   0  0  0  0  0  0  0  0  0  0  0  0
    2.4899   -1.7146   -0.7729 H   0  0  0  0  0  0  0  0  0  0  0  0
    2.4791   -2.0006    1.0626 H   0  0  0  0  0  0  0  0  0  0  0  0
    4.6179   -0.6892   -0.2730 H   0  0  0  0  0  0  0  0  0  0  0  0
  1  2  1  0
  2  3  1  0
  3  4  1  0
  4  5  1  0
  5  6  1  0
  4  7  1  0
  7  8  1  0
  8  9  1  0
  9 10  1  0
  9 11  1  0
 11 12  1  0
  1 13  1  0
  1 14  1  0
  1 15  1  0
  3 16  1  0
  3 17  1  0
  4 18  1  6
  5 19  1  0
  5 20  1  0
  6 21  1  0
  7 22  1  0
  8 23  1  0
  8 24  1  0
  9 25  1  1
 10 26  1  0
 11 27  1  0
 11 28  1  0
 12 29  1  0
M  END
$$$$

     RDKit          3D

 29 28  0  0  0  0  0  0  0  0999 V2000
   -3.5312    0.5426    1.0147 C   0  0  0  0  0  0  0  0  0  0  0  0
   -2.6010    1.4061    0.5101 O   0  0  0  0  0  0  0  0  0  0  0  0
   -1.8044    0.9435   -0.5093 C   0  0  0  0  0  0  0  0  0  0  0  0
   -0.9646   -0.2429   -0.1820 C   0  0  1  0  0  0  0  0  0  0  0  0
   -0.5576   -0.9734   -1.4195 C   0  0  0  0  0  0  0  0  0  0  0  0
   -1.6203   -0.9518   -2.3728 O   0  0  0  0  0  0  0  0  0  0  0  0
   -0.0668   -0.1880    0.8253 N   0  0  0  0  0  0  0  0  0  0  0  0
    0.9957    0.6010    1.1164 C   0  0  0  0  0  0  0  0  0  0  0  0
    2.2345    0.5724    0.2895 C   0  0  2  0  0  0  0  0  0  0  0  0
    2.0147    0.9938   -0.9912 O   0  0  0  0  0  0  0  0  0  0  0  0
    2.9186   -0.7842    0.3078 C   0  0  0  0  0  0  0  0  0  0  0  0
    4.1456   -0.6222   -0.3648 O   0  0  0  0  0  0  0  0  0  0  0  0
   -4.0906    1.0994    1.8067 H   0  0  0  0  0  0  0  0  0  0  0  0
   -3.0888   -0.3259    1.5889 H   0  0  0  0  0  0  0  0  0  0  0  0
   -4.2677    0.1526    0.3050 H   0  0  0  0  0  0  0  0  0  0  0  0
   -2.5166    0.6087   -1.3249 H   0  0  0  0  0  0  0  0  0  0  0  0
   -1.2604    1.7883   -0.9526 H   0  0  0  0  0  0  0  0  0  0  0  0
   -1.8051   -0.9768    0.2393 H   0  0  0  0  0  0  0  0  0  0  0  0
   -0.3492   -2.0563   -1.2322 H   0  0  0  0  0  0  0  0  0  0  0  0
    0.3074   -0.5991   -1.9688 H   0  0  0  0  0  0  0  0  0  0  0  0
   -2.1603   -1.7786   -2.2503 H   0  0  0  0  0  0  0  0  0  0  0  0
   -0.1339   -1.0504    1.4459 H   0  0  0  0  0  0  0  0  0  0  0  0
    1.3573    0.3103    2.1712 H   0  0  0  0  0  0  0  0  0  0  0  0
    0.7796    1.6969    1.2675 H   0  0  0  0  0  0  0  0  0  0  0  0
    2.9969    1.2827    0.7229 H   0  0  0  0  0  0  0  0  0  0  0  0
    2.7381    1.5391   -1.3712 H   0  0  0  0  0  0  0  0  0  0  0  0
    3.1475   -1.1380    1.3099 H   0  0  0  0  0  0  0  0  0  0  0  0
    2.3292   -1.5334   -0.2532 H   0  0  0  0  0  0  0  0  0  0  0  0
    4.8534   -0.3164    0.2719 H   0  0  0  0  0  0  0  0  0  0  0  0
  1  2  1  0
  2  3  1  0
  3  4  1  0
  4  5  1  0
  5  6  1  0
  4  7  1  0
  7  8  1  0
  8  9  1  0
  9 10  1  0
  9 11  1  0
 11 12  1  0
  1 13  1  0
  1 14  1  0
  1 15  1  0
  3 16  1  0
  3 17  1  0
  4 18  1  1
  5 19  1  0
  5 20  1  0
  6 21  1  0
  7 22  1  0
  8 23  1  0
  8 24  1  0
  9 25  1  1
 10 26  1  0
 11 27  1  0
 11 28  1  0
 12 29  1  0
M  END
$$$$

     RDKit          3D

 29 28  0  0  0  0  0  0  0  0999 V2000
   -3.6270    1.6147    0.0394 C   0  0  0  0  0  0  0  0  0  0  0  0
   -2.6025    0.8730   -0.5977 O   0  0  0  0  0  0  0  0  0  0  0  0
   -1.8273    0.3693    0.4286 C   0  0  0  0  0  0  0  0  0  0  0  0
   -0.6509   -0.4664   -0.0534 C   0  0  1  0  0  0  0  0  0  0  0  0
   -1.2393   -1.6369   -0.8328 C   0  0  0  0  0  0  0  0  0  0  0  0
   -2.1044   -2.3168    0.0012 O   0  0  0  0  0  0  0  0  0  0  0  0
    0.2318    0.2530   -0.8782 N   0  0  0  0  0  0  0  0  0  0  0  0
    1.5033   -0.3198   -1.0812 C   0  0  0  0  0  0  0  0  0  0  0  0
    2.4225   -0.2988    0.0989 C   0  0  2  0  0  0  0  0  0  0  0  0
    1.9891   -0.9747    1.1966 O   0  0  0  0  0  0  0  0  0  0  0  0
    2.7650    1.1493    0.4565 C   0  0  0  0  0  0  0  0  0  0  0  0
    3.7561    1.2438    1.4038 O   0  0  0  0  0  0  0  0  0  0  0  0
   -3.2291    2.4322    0.6513 H   0  0  0  0  0  0  0  0  0  0  0  0
   -4.3335    1.9464   -0.7172 H   0  0  0  0  0  0  0  0  0  0  0  0
   -4.1408    0.9160    0.7502 H   0  0  0  0  0  0  0  0  0  0  0  0
   -1.4747    1.2240    1.0432 H   0  0  0  0  0  0  0  0  0  0  0  0
   -2.4550   -0.2950    1.0395 H   0  0  0  0  0  0  0  0  0  0  0  0
   -0.1699   -0.8506    0.8502 H   0  0  0  0  0  0  0  0  0  0  0  0
   -1.8525   -1.2388   -1.6898 H   0  0  0  0  0  0  0  0  0  0  0  0
   -0.4366   -2.2613   -1.2292 H   0  0  0  0  0  0  0  0  0  0  0  0
   -1.5768   -2.8319    0.6432 H   0  0  0  0  0  0  0  0  0  0  0  0
    0.2633    1.2737   -0.7322 H   0  0  0  0  0  0  0  0  0  0  0  0
    1.4060   -1.4164   -1.3605 H   0  0  0  0  0  0  0  0  0  0  0  0
    2.0546    0.1159   -1.9587 H   0  0  0  0  0  0  0  0  0  0  0  0
    3.4053   -0.7474   -0.2317 H   0  0  0  0  0  0  0  0  0  0  0  0
    2.4390   -1.8321    1.3022 H   0  0  0  0  0  0  0  0  0  0  0  0
    1.8392    1.6078    0.8513 H   0  0  0  0  0  0  0  0  0  0  0  0
    3.0625    1.6865   -0.4768 H   0  0  0  0  0  0  0  0  0  0  0  0
    4.5828    0.7814    1.0831 H   0  0  0  0  0  0  0  0  0  0  0  0
  1  2  1  0
  2  3  1  0
  3  4  1  0
  4  5  1  0
  5  6  1  0
  4  7  1  0
  7  8  1  0
  8  9  1  0
  9 10  1  0
  9 11  1  0
 11 12  1  0
  1 13  1  0
  1 14  1  0
  1 15  1  0
  3 16  1  0
  3 17  1  0
  4 18  1  1
  5 19  1  0
  5 20  1  0
  6 21  1  0
  7 22  1  0
  8 23  1  0
  8 24  1  0
  9 25  1  6
 10 26  1  0
 11 27  1  0
 11 28  1  0
 12 29  1  0
M  END
$$$$
