
     RDKit          3D

 31 31  0  0  0  0  0  0  0  0999 V2000
   -3.7874    0.1709    1.6611 C   0  0  0  0  0  0  0  0  0  0  0  0
   -3.3218   -0.1200    0.2516 C   0  0  0  0  0  0  0  0  0  0  0  0
   -3.8237    0.9555   -0.6504 C   0  0  0  0  0  0  0  0  0  0  0  0
   -1.8559   -0.1491    0.3063 N   0  0  0  0  0  0  0  0  0  0  0  0
   -1.1082   -1.2961   -0.0805 C   0  0  0  0  0  0  0  0  0  0  0  0
   -1.7914   -2.2747   -0.4707 O   0  0  0  0  0  0  0  0  0  0  0  0
    0.3716   -1.3513   -0.0346 C   0  0  0  0  0  0  0  0  0  0  0  0
    0.9578   -0.1249    0.4539 N   0  0  0  0  0  0  0  0  0  0  0  0
    2.3911   -0.2780    0.4136 C   0  0  1  0  0  0  0  0  0  0  0  0
    2.9224   -0.4538   -0.9894 C   0  0  0  0  0  0  0  0  0  0  0  0
    4.0061    0.4786   -1.1091 N   0  0  0  0  0  0  0  0  0  0  0  0
    4.3706    0.9146    0.1843 C   0  0  0  0  0  0  0  0  0  0  0  0
    5.5006    1.2802    0.5811 O   0  0  0  0  0  0  0  0  0  0  0  0
    3.1355    0.8619    1.0217 C   0  0  0  0  0  0  0  0  0  0  0  0
   -4.0687    1.2399    1.7207 H   0  0  0  0  0  0  0  0  0  0  0  0
   -2.9569    0.0288    2.3866 H   0  0  0  0  0  0  0  0  0  0  0  0
   -4.6237   -0.4944    1.9636 H   0  0  0  0  0  0  0  0  0  0  0  0
   -3.7165   -1.0946   -0.1096 H   0  0  0  0  0  0  0  0  0  0  0  0
   -4.5933    1.5427   -0.1090 H   0  0  0  0  0  0  0  0  0  0  0  0
   -4.3260    0.5704   -1.5539 H   0  0  0  0  0  0  0  0  0  0  0  0
   -3.0250    1.6949   -0.8949 H   0  0  0  0  0  0  0  0  0  0  0  0
   -1.3608    0.6977    0.6377 H   0  0  0  0  0  0  0  0  0  0  0  0
    0.5988   -2.1918    0.6895 H   0  0  0  0  0  0  0  0  0  0  0  0
    0.8598   -1.6222   -0.9693 H   0  0  0  0  0  0  0  0  0  0  0  0
    0.6799    0.6877   -0.1386 H   0  0  0  0  0  0  0  0  0  0  0  0
    2.6100   -1.2474    0.9456 H   0  0  0  0  0  0  0  0  0  0  0  0
    3.3094   -1.4754   -1.1705 H   0  0  0  0  0  0  0  0  0  0  0  0
    2.1224   -0.2344   -1.7432 H   0  0  0  0  0  0  0  0  0  0  0  0
    4.4592    0.7921   -2.0034 H   0  0  0  0  0  0  0  0  0  0  0  0
    3.4591    0.6599    2.0771 H   0  0  0  0  0  0  0  0  0  0  0  0
    2.6051    1.8323    0.9428 H   0  0  0  0  0  0  0  0  0  0  0  0
  1  2  1  0
  2  3  1  0
  2  4  1  0
  4  5  1  0
  5  6  2  0
  5  7  1  0
  7  8  1  0
  8  9  1  0
  9 10  1  0
 10 11  1  0
 11 12  1  0
 12 13  2  0
 12 14  1  0
 14  9  1  0
  1 15  1  0
  1 16  1  0
  1 17  1  0
  2 18  1  0
  3 19  1  0
  3 20  1  0
  3 21  1  0
  4 22  1  0
  7 23  1  0
  7 24  1  0
  8 25  1  0
  9 26  1  1
 10 27  1  0
 10 28  1  0
 11 29  1  0
 14 30  1  0
 14 31  1  0
M  END
$$$$

     RDKit          3D

 31 31  0  0  0  0  0  0  0  0999 V2000
    4.1591   -1.3693   -0.1754 C   0  0  0  0  0  0  0  0  0  0  0  0
    3.4702   -0.2194    0.5225 C   0  0  0  0  0  0  0  0  0  0  0  0
    4.3155    1.0480    0.4509 C   0  0  0  0  0  0  0  0  0  0  0  0
    2.2290    0.0520   -0.1764 N   0  0  0  0  0  0  0  0  0  0  0  0
    1.0098    0.0084    0.5472 C   0  0  0  0  0  0  0  0  0  0  0  0
    0.9364   -0.2499    1.7620 O   0  0  0  0  0  0  0  0  0  0  0  0
   -0.2468    0.2863   -0.1876 C   0  0  0  0  0  0  0  0  0  0  0  0
   -1.4043    0.2098    0.6800 N   0  0  0  0  0  0  0  0  0  0  0  0
   -2.5646    0.4692   -0.0888 C   0  0  1  0  0  0  0  0  0  0  0  0
   -2.8361   -0.5313   -1.1908 C   0  0  0  0  0  0  0  0  0  0  0  0
   -4.2243   -0.2145   -1.5051 N   0  0  0  0  0  0  0  0  0  0  0  0
   -4.8517    0.3693   -0.3767 C   0  0  0  0  0  0  0  0  0  0  0  0
   -6.0120    0.8250   -0.2893 O   0  0  0  0  0  0  0  0  0  0  0  0
   -3.8558    0.3429    0.7197 C   0  0  0  0  0  0  0  0  0  0  0  0
    3.5529   -2.2760   -0.0240 H   0  0  0  0  0  0  0  0  0  0  0  0
    5.1943   -1.5208    0.2175 H   0  0  0  0  0  0  0  0  0  0  0  0
    4.1810   -1.1195   -1.2696 H   0  0  0  0  0  0  0  0  0  0  0  0
    3.2629   -0.4637    1.5892 H   0  0  0  0  0  0  0  0  0  0  0  0
    5.3876    0.7747    0.3369 H   0  0  0  0  0  0  0  0  0  0  0  0
    3.9719    1.7176   -0.3738 H   0  0  0  0  0  0  0  0  0  0  0  0
    4.2531    1.6035    1.4330 H   0  0  0  0  0  0  0  0  0  0  0  0
    2.2110    0.2773   -1.1918 H   0  0  0  0  0  0  0  0  0  0  0  0
   -0.4046   -0.4245   -1.0375 H   0  0  0  0  0  0  0  0  0  0  0  0
   -0.2355    1.3044   -0.6377 H   0  0  0  0  0  0  0  0  0  0  0  0
   -1.4317   -0.6038    1.2978 H   0  0  0  0  0  0  0  0  0  0  0  0
   -2.5449    1.4894   -0.5203 H   0  0  0  0  0  0  0  0  0  0  0  0
   -2.8075   -1.5594   -0.8223 H   0  0  0  0  0  0  0  0  0  0  0  0
   -2.1688   -0.3470   -2.0533 H   0  0  0  0  0  0  0  0  0  0  0  0
   -4.6612   -0.4015   -2.4307 H   0  0  0  0  0  0  0  0  0  0  0  0
   -3.9680    1.1798    1.4279 H   0  0  0  0  0  0  0  0  0  0  0  0
   -3.9169   -0.6570    1.1901 H   0  0  0  0  0  0  0  0  0  0  0  0
  1  2  1  0
  2  3  1  0
  2  4  1  0
  4  5  1  0
  5  6  2  0
  5  7  1  0
  7  8  1  0
  8  9  1  0
  9 10  1  0
 10 11  1  0
 11 12  1  0
 12 13  2  0
 12 14  1  0
 14  9  1  0
  1 15  1  0
  1 16  1  0
  1 17  1  0
  2 18  1  0
  3 19  1  0
  3 20  1  0
  3 21  1  0
  4 22  1  0
  7 23  1  0
  7 24  1  0
  8 25  1  0
  9 26  1  6
 10 27  1  0
 10 28  1  0
 11 29  1  0
 14 30  1  0
 14 31  1  0
M  END
$$$$

     RDKit          3D

 31 31  0  0  0  0  0  0  0  0999 V2000
    3.9995    1.2810    0.2077 C   0  0  0  0  0  0  0  0  0  0  0  0
    3.2512    0.0600    0.6719 C   0  0  0  0  0  0  0  0  0  0  0  0
    3.9244   -1.2293    0.2234 C   0  0  0  0  0  0  0  0  0  0  0  0
    1.8494    0.0332    0.4158 N   0  0  0  0  0  0  0  0  0  0  0  0
    1.2128    0.4414   -0.7895 C   0  0  0  0  0  0  0  0  0  0  0  0
    1.9157    0.8500   -1.7297 O   0  0  0  0  0  0  0  0  0  0  0  0
   -0.2665    0.3865   -0.9714 C   0  0  0  0  0  0  0  0  0  0  0  0
   -0.9256   -0.0403    0.2539 N   0  0  0  0  0  0  0  0  0  0  0  0
   -2.2459   -0.4071    0.0025 C   0  0  1  0  0  0  0  0  0  0  0  0
   -3.2371   -0.2805    1.1504 C   0  0  0  0  0  0  0  0  0  0  0  0
   -4.4475   -0.7609    0.4371 N   0  0  0  0  0  0  0  0  0  0  0  0
   -4.3159   -0.4606   -0.9484 C   0  0  0  0  0  0  0  0  0  0  0  0
   -5.0581   -0.7633   -1.8834 O   0  0  0  0  0  0  0  0  0  0  0  0
   -3.0292    0.3448   -1.0613 C   0  0  0  0  0  0  0  0  0  0  0  0
    5.0737    1.0763    0.3933 H   0  0  0  0  0  0  0  0  0  0  0  0
    3.8915    1.5493   -0.8388 H   0  0  0  0  0  0  0  0  0  0  0  0
    3.7547    2.1145    0.9094 H   0  0  0  0  0  0  0  0  0  0  0  0
    3.3595    0.0939    1.8021 H   0  0  0  0  0  0  0  0  0  0  0  0
    4.8092   -1.4274    0.8396 H   0  0  0  0  0  0  0  0  0  0  0  0
    3.1924   -2.0561    0.4188 H   0  0  0  0  0  0  0  0  0  0  0  0
    4.1171   -1.2430   -0.8815 H   0  0  0  0  0  0  0  0  0  0  0  0
    1.1581   -0.3075    1.1609 H   0  0  0  0  0  0  0  0  0  0  0  0
   -0.5493   -0.2830   -1.8221 H   0  0  0  0  0  0  0  0  0  0  0  0
   -0.5978    1.4029   -1.2398 H   0  0  0  0  0  0  0  0  0  0  0  0
   -0.8664    0.7899    0.9010 H   0  0  0  0  0  0  0  0  0  0  0  0
   -2.3107   -1.5016   -0.3016 H   0  0  0  0  0  0  0  0  0  0  0  0
   -3.0179   -0.8798    2.0189 H   0  0  0  0  0  0  0  0  0  0  0  0
   -3.4714    0.7998    1.3389 H   0  0  0  0  0  0  0  0  0  0  0  0
   -5.2331   -1.2453    0.9077 H   0  0  0  0  0  0  0  0  0  0  0  0
   -2.6111    0.3149   -2.0525 H   0  0  0  0  0  0  0  0  0  0  0  0
   -3.3256    1.3475   -0.6912 H   0  0  0  0  0  0  0  0  0  0  0  0
  1  2  1  0
  2  3  1  0
  2  4  1  0
  4  5  1  0
  5  6  2  0
  5  7  1  0
  7  8  1  0
  8  9  1  0
  9 10  1  0
 10 11  1  0
 11 12  1  0
 12 13  2  0
 12 14  1  0
 14  9  1  0
  1 15  1  0
  1 16  1  0
  1 17  1  0
  2 18  1  0
  3 19  1  0
  3 20  1  0
  3 21  1  0
  4 22  1  0
  7 23  1  0
  7 24  1  0
  8 25  1  0
  9 26  1  6
 10 27  1  0
 10 28  1  0
 11 29  1  0
 14 30  1  0
 14 31  1  0
M  END
$$$$

     RDKit          3D

 31 31  0  0  0  0  0  0  0  0999 V2000
    4.0361   -0.3018    0.8698 C   0  0  0  0  0  0  0  0  0  0  0  0
    3.2666   -0.6305   -0.4078 C   0  0  0  0  0  0  0  0  0  0  0  0
    3.8564    0.2200   -1.5141 C   0  0  0  0  0  0  0  0  0  0  0  0
    1.8540   -0.4977   -0.2415 N   0  0  0  0  0  0  0  0  0  0  0  0
    1.2196    0.7450    0.0029 C   0  0  0  0  0  0  0  0  0  0  0  0
    1.9380    1.7724    0.0787 O   0  0  0  0  0  0  0  0  0  0  0  0
   -0.2410    0.8839    0.1725 C   0  0  0  0  0  0  0  0  0  0  0  0
   -0.9745   -0.3386    0.0565 N   0  0  0  0  0  0  0  0  0  0  0  0
   -2.3290   -0.0911    0.3714 C   0  0  1  0  0  0  0  0  0  0  0  0
   -3.0582    0.8827   -0.5365 C   0  0  0  0  0  0  0  0  0  0  0  0
   -4.4209    0.7240    0.0205 N   0  0  0  0  0  0  0  0  0  0  0  0
   -4.5542   -0.6093    0.4763 C   0  0  0  0  0  0  0  0  0  0  0  0
   -5.5168   -1.1414    1.0440 O   0  0  0  0  0  0  0  0  0  0  0  0
   -3.2591   -1.2987    0.1326 C   0  0  0  0  0  0  0  0  0  0  0  0
    4.4687    0.7191    0.8122 H   0  0  0  0  0  0  0  0  0  0  0  0
    4.8787   -1.0456    0.9550 H   0  0  0  0  0  0  0  0  0  0  0  0
    3.3975   -0.4185    1.7719 H   0  0  0  0  0  0  0  0  0  0  0  0
    3.4766   -1.7055   -0.7100 H   0  0  0  0  0  0  0  0  0  0  0  0
    3.6293   -0.3065   -2.4845 H   0  0  0  0  0  0  0  0  0  0  0  0
    3.5074    1.2495   -1.4781 H   0  0  0  0  0  0  0  0  0  0  0  0
    4.9709    0.1452   -1.3834 H   0  0  0  0  0  0  0  0  0  0  0  0
    1.2302   -1.3655   -0.3019 H   0  0  0  0  0  0  0  0  0  0  0  0
   -0.4209    1.3677    1.1818 H   0  0  0  0  0  0  0  0  0  0  0  0
   -0.6465    1.6451   -0.5578 H   0  0  0  0  0  0  0  0  0  0  0  0
   -0.6120   -1.0825    0.6649 H   0  0  0  0  0  0  0  0  0  0  0  0
   -2.4734    0.2625    1.4201 H   0  0  0  0  0  0  0  0  0  0  0  0
   -2.6997    1.9057   -0.4988 H   0  0  0  0  0  0  0  0  0  0  0  0
   -3.0924    0.4385   -1.5567 H   0  0  0  0  0  0  0  0  0  0  0  0
   -5.1120    1.4971    0.0405 H   0  0  0  0  0  0  0  0  0  0  0  0
   -3.2897   -1.4735   -0.9601 H   0  0  0  0  0  0  0  0  0  0  0  0
   -3.0295   -2.1515    0.7581 H   0  0  0  0  0  0  0  0  0  0  0  0
  1  2  1  0
  2  3  1  0
  2  4  1  0
  4  5  1  0
  5  6  2  0
  5  7  1  0
  7  8  1  0
  8  9  1  0
  9 10  1  0
 10 11  1  0
 11 12  1  0
 12 13  2  0
 12 14  1  0
 14  9  1  0
  1 15  1  0
  1 16  1  0
  1 17  1  0
  2 18  1  0
  3 19  1  0
  3 20  1  0
  3 21  1  0
  4 22  1  0
  7 23  1  0
  7 24  1  0
  8 25  1  0
  9 26  1  1
 10 27  1  0
 10 28  1  0
 11 29  1  0
 14 30  1  0
 14 31  1  0
M  END
$$$$

     RDKit          3D

 31 31  0  0  0  0  0  0  0  0999 V2000
    4.1288    0.3376    1.4325 C   0  0  0  0  0  0  0  0  0  0  0  0
    3.5071   -0.0103    0.1098 C   0  0  0  0  0  0  0  0  0  0  0  0
    4.3646   -0.9825   -0.6819 C   0  0  0  0  0  0  0  0  0  0  0  0
    2.1518   -0.4645    0.2023 N   0  0  0  0  0  0  0  0  0  0  0  0
    1.0617    0.2357   -0.3959 C   0  0  0  0  0  0  0  0  0  0  0  0
    1.3207    1.2923   -1.0258 O   0  0  0  0  0  0  0  0  0  0  0  0
   -0.3061   -0.3226   -0.2381 C   0  0  0  0  0  0  0  0  0  0  0  0
   -1.2649    0.5170   -0.9029 N   0  0  0  0  0  0  0  0  0  0  0  0
   -2.5798   -0.0228   -0.7550 C   0  0  1  0  0  0  0  0  0  0  0  0
   -3.0224   -0.0823    0.7167 C   0  0  0  0  0  0  0  0  0  0  0  0
   -4.4651   -0.2814    0.5151 N   0  0  0  0  0  0  0  0  0  0  0  0
   -4.8710    0.3921   -0.6613 C   0  0  0  0  0  0  0  0  0  0  0  0
   -6.0321    0.4978   -1.1214 O   0  0  0  0  0  0  0  0  0  0  0  0
   -3.6441    0.9635   -1.2639 C   0  0  0  0  0  0  0  0  0  0  0  0
    4.7884   -0.4636    1.8333 H   0  0  0  0  0  0  0  0  0  0  0  0
    3.2890    0.4253    2.1769 H   0  0  0  0  0  0  0  0  0  0  0  0
    4.6894    1.2689    1.4416 H   0  0  0  0  0  0  0  0  0  0  0  0
    3.5001    0.9366   -0.4939 H   0  0  0  0  0  0  0  0  0  0  0  0
    4.1442   -0.8867   -1.7743 H   0  0  0  0  0  0  0  0  0  0  0  0
    4.1479   -2.0350   -0.4298 H   0  0  0  0  0  0  0  0  0  0  0  0
    5.4397   -0.7233   -0.5330 H   0  0  0  0  0  0  0  0  0  0  0  0
    1.9888   -1.3636    0.7466 H   0  0  0  0  0  0  0  0  0  0  0  0
   -0.5810   -0.3724    0.8568 H   0  0  0  0  0  0  0  0  0  0  0  0
   -0.3783   -1.3708   -0.5900 H   0  0  0  0  0  0  0  0  0  0  0  0
   -1.1902    1.5085   -0.6725 H   0  0  0  0  0  0  0  0  0  0  0  0
   -2.7113   -1.0213   -1.1769 H   0  0  0  0  0  0  0  0  0  0  0  0
   -2.5457   -0.9297    1.2072 H   0  0  0  0  0  0  0  0  0  0  0  0
   -2.8419    0.8921    1.1970 H   0  0  0  0  0  0  0  0  0  0  0  0
   -5.0609   -0.8361    1.1558 H   0  0  0  0  0  0  0  0  0  0  0  0
   -3.6215    0.9605   -2.3520 H   0  0  0  0  0  0  0  0  0  0  0  0
   -3.4058    1.9408   -0.7949 H   0  0  0  0  0  0  0  0  0  0  0  0
  1  2  1  0
  2  3  1  0
  2  4  1  0
  4  5  1  0
  5  6  2  0
  5  7  1  0
  7  8  1  0
  8  9  1  0
  9 10  1  0
 10 11  1  0
 11 12  1  0
 12 13  2  0
 12 14  1  0
 14  9  1  0
  1 15  1  0
  1 16  1  0
  1 17  1  0
  2 18  1  0
  3 19  1  0
  3 20  1  0
  3 21  1  0
  4 22  1  0
  7 23  1  0
  7 24  1  0
  8 25  1  0
  9 26  1  6
 10 27  1  0
 10 28  1  0
 11 29  1  0
 14 30  1  0
 14 31  1  0
M  END
$$$$

     RDKit          3D

 31 31  0  0  0  0  0  0  0  0999 V2000
    3.1954    0.2986   -1.6041 C   0  0  0  0  0  0  0  0  0  0  0  0
    3.3922   -0.4862   -0.2620 C   0  0  0  0  0  0  0  0  0  0  0  0
    4.5464    0.1047    0.4312 C   0  0  0  0  0  0  0  0  0  0  0  0
    2.1566   -0.2503    0.4734 N   0  0  0  0  0  0  0  0  0  0  0  0
    0.9468   -0.9261    0.0782 C   0  0  0  0  0  0  0  0  0  0  0  0
    0.9854   -1.7211   -0.8938 O   0  0  0  0  0  0  0  0  0  0  0  0
   -0.2432   -0.5815    0.8709 C   0  0  0  0  0  0  0  0  0  0  0  0
   -1.4740   -1.2043    0.3502 N   0  0  0  0  0  0  0  0  0  0  0  0
   -2.3575   -0.1259    0.1370 C   0  0  1  0  0  0  0  0  0  0  0  0
   -3.1128   -0.0800   -1.1512 C   0  0  0  0  0  0  0  0  0  0  0  0
   -3.8996    1.1428   -0.9128 N   0  0  0  0  0  0  0  0  0  0  0  0
   -4.0892    1.2980    0.4769 C   0  0  0  0  0  0  0  0  0  0  0  0
   -4.6215    2.2111    1.1158 O   0  0  0  0  0  0  0  0  0  0  0  0
   -3.4848    0.0654    1.1211 C   0  0  0  0  0  0  0  0  0  0  0  0
    2.1478    0.6294   -1.6913 H   0  0  0  0  0  0  0  0  0  0  0  0
    3.3665   -0.4106   -2.4446 H   0  0  0  0  0  0  0  0  0  0  0  0
    3.8626    1.1606   -1.6275 H   0  0  0  0  0  0  0  0  0  0  0  0
    3.5108   -1.5416   -0.5223 H   0  0  0  0  0  0  0  0  0  0  0  0
    4.6011   -0.2087    1.4998 H   0  0  0  0  0  0  0  0  0  0  0  0
    5.4865   -0.1208   -0.1044 H   0  0  0  0  0  0  0  0  0  0  0  0
    4.3955    1.2396    0.4365 H   0  0  0  0  0  0  0  0  0  0  0  0
    2.1583    0.4053    1.2839 H   0  0  0  0  0  0  0  0  0  0  0  0
   -0.1163   -0.9077    1.9485 H   0  0  0  0  0  0  0  0  0  0  0  0
   -0.3124    0.5139    0.9410 H   0  0  0  0  0  0  0  0  0  0  0  0
   -1.2811   -1.8047   -0.4920 H   0  0  0  0  0  0  0  0  0  0  0  0
   -1.7915    0.8654    0.1907 H   0  0  0  0  0  0  0  0  0  0  0  0
   -2.4887    0.0035   -2.0648 H   0  0  0  0  0  0  0  0  0  0  0  0
   -3.8778   -0.8950   -1.2497 H   0  0  0  0  0  0  0  0  0  0  0  0
   -4.2252    1.7526   -1.6846 H   0  0  0  0  0  0  0  0  0  0  0  0
   -4.2587   -0.7081    1.0986 H   0  0  0  0  0  0  0  0  0  0  0  0
   -3.1175    0.2814    2.1441 H   0  0  0  0  0  0  0  0  0  0  0  0
  1  2  1  0
  2  3  1  0
  2  4  1  0
  4  5  1  0
  5  6  2  0
  5  7  1  0
  7  8  1  0
  8  9  1  0
  9 10  1  0
 10 11  1  0
 11 12  1  0
 12 13  2  0
 12 14  1  0
 14  9  1  0
  1 15  1  0
  1 16  1  0
  1 17  1  0
  2 18  1  0
  3 19  1  0
  3 20  1  0
  3 21  1  0
  4 22  1  0
  7 23  1  0
  7 24  1  0
  8 25  1  0
  9 26  1  6
 10 27  1  0
 10 28  1  0
 11 29  1  0
 14 30  1  0
 14 31  1  0
M  END
$$$$

     RDKit          3D

 31 31  0  0  0  0  0  0  0  0999 V2000
    4.1757    0.8165    0.6828 C   0  0  0  0  0  0  0  0  0  0  0  0
    3.3935   -0.0040   -0.3331 C   0  0  0  0  0  0  0  0  0  0  0  0
    4.0615    0.0584   -1.6812 C   0  0  0  0  0  0  0  0  0  0  0  0
    2.0078    0.3912   -0.3688 N   0  0  0  0  0  0  0  0  0  0  0  0
    0.9381   -0.4603    0.0132 C   0  0  0  0  0  0  0  0  0  0  0  0
    1.2609   -1.6184    0.3996 O   0  0  0  0  0  0  0  0  0  0  0  0
   -0.4872   -0.0369   -0.0299 C   0  0  0  0  0  0  0  0  0  0  0  0
   -1.2853   -1.0934    0.4075 N   0  0  0  0  0  0  0  0  0  0  0  0
   -2.6864   -0.9431    0.4481 C   0  0  1  0  0  0  0  0  0  0  0  0
   -3.1839    0.1291    1.3839 C   0  0  0  0  0  0  0  0  0  0  0  0
   -3.9566    1.0599    0.5928 N   0  0  0  0  0  0  0  0  0  0  0  0
   -4.3419    0.3919   -0.5836 C   0  0  0  0  0  0  0  0  0  0  0  0
   -5.3480    0.6810   -1.2863 O   0  0  0  0  0  0  0  0  0  0  0  0
   -3.3690   -0.7028   -0.8537 C   0  0  0  0  0  0  0  0  0  0  0  0
    5.2558    0.6266    0.5853 H   0  0  0  0  0  0  0  0  0  0  0  0
    4.0202    1.9060    0.5319 H   0  0  0  0  0  0  0  0  0  0  0  0
    3.8350    0.5972    1.7173 H   0  0  0  0  0  0  0  0  0  0  0  0
    3.4158   -1.0624    0.0455 H   0  0  0  0  0  0  0  0  0  0  0  0
    4.0324   -0.9369   -2.2003 H   0  0  0  0  0  0  0  0  0  0  0  0
    5.1584    0.2835   -1.5432 H   0  0  0  0  0  0  0  0  0  0  0  0
    3.6638    0.8530   -2.3328 H   0  0  0  0  0  0  0  0  0  0  0  0
    1.7517    1.3573   -0.6907 H   0  0  0  0  0  0  0  0  0  0  0  0
   -0.5444    0.8818    0.6195 H   0  0  0  0  0  0  0  0  0  0  0  0
   -0.6637    0.3321   -1.0629 H   0  0  0  0  0  0  0  0  0  0  0  0
   -0.9061   -2.0306    0.4289 H   0  0  0  0  0  0  0  0  0  0  0  0
   -3.0996   -1.9179    0.8491 H   0  0  0  0  0  0  0  0  0  0  0  0
   -2.3604    0.6357    1.9190 H   0  0  0  0  0  0  0  0  0  0  0  0
   -3.8816   -0.2683    2.1681 H   0  0  0  0  0  0  0  0  0  0  0  0
   -4.1879    2.0474    0.8463 H   0  0  0  0  0  0  0  0  0  0  0  0
   -3.9685   -1.5663   -1.2118 H   0  0  0  0  0  0  0  0  0  0  0  0
   -2.7002   -0.4071   -1.6749 H   0  0  0  0  0  0  0  0  0  0  0  0
  1  2  1  0
  2  3  1  0
  2  4  1  0
  4  5  1  0
  5  6  2  0
  5  7  1  0
  7  8  1  0
  8  9  1  0
  9 10  1  0
 10 11  1  0
 11 12  1  0
 12 13  2  0
 12 14  1  0
 14  9  1  0
  1 15  1  0
  1 16  1  0
  1 17  1  0
  2 18  1  0
  3 19  1  0
  3 20  1  0
  3 21  1  0
  4 22  1  0
  7 23  1  0
  7 24  1  0
  8 25  1  0
  9 26  1  1
 10 27  1  0
 10 28  1  0
 11 29  1  0
 14 30  1  0
 14 31  1  0
M  END
$$$$

     RDKit          3D

 31 31  0  0  0  0  0  0  0  0999 V2000
    4.0760    1.2654    0.0675 C   0  0  0  0  0  0  0  0  0  0  0  0
    3.3762   -0.0540    0.1249 C   0  0  0  0  0  0  0  0  0  0  0  0
    3.8772   -1.0146   -0.9346 C   0  0  0  0  0  0  0  0  0  0  0  0
    1.9361    0.0581   -0.0335 N   0  0  0  0  0  0  0  0  0  0  0  0
    1.0493   -0.4310    0.9452 C   0  0  0  0  0  0  0  0  0  0  0  0
    1.5694   -0.9764    1.9741 O   0  0  0  0  0  0  0  0  0  0  0  0
   -0.4275   -0.3693    0.8858 C   0  0  0  0  0  0  0  0  0  0  0  0
   -0.9267    0.2574   -0.2859 N   0  0  0  0  0  0  0  0  0  0  0  0
   -2.3215    0.3550   -0.4444 C   0  0  1  0  0  0  0  0  0  0  0  0
   -3.0776   -0.9430   -0.5415 C   0  0  0  0  0  0  0  0  0  0  0  0
   -4.4489   -0.5964   -0.1836 N   0  0  0  0  0  0  0  0  0  0  0  0
   -4.4720    0.7357    0.3149 C   0  0  0  0  0  0  0  0  0  0  0  0
   -5.4240    1.5387    0.4412 O   0  0  0  0  0  0  0  0  0  0  0  0
   -3.0596    1.0321    0.6881 C   0  0  0  0  0  0  0  0  0  0  0  0
    4.1856    1.6444   -0.9690 H   0  0  0  0  0  0  0  0  0  0  0  0
    3.4832    1.9896    0.6780 H   0  0  0  0  0  0  0  0  0  0  0  0
    5.0544    1.1783    0.5798 H   0  0  0  0  0  0  0  0  0  0  0  0
    3.5934   -0.5318    1.0945 H   0  0  0  0  0  0  0  0  0  0  0  0
    3.1107   -1.8353   -0.9859 H   0  0  0  0  0  0  0  0  0  0  0  0
    4.8310   -1.5004   -0.6325 H   0  0  0  0  0  0  0  0  0  0  0  0
    3.9557   -0.4878   -1.9034 H   0  0  0  0  0  0  0  0  0  0  0  0
    1.5261    0.5060   -0.8825 H   0  0  0  0  0  0  0  0  0  0  0  0
   -0.7406    0.2134    1.7859 H   0  0  0  0  0  0  0  0  0  0  0  0
   -0.8600   -1.4120    0.9283 H   0  0  0  0  0  0  0  0  0  0  0  0
   -0.4395    0.0512   -1.1718 H   0  0  0  0  0  0  0  0  0  0  0  0
   -2.5429    0.9319   -1.3641 H   0  0  0  0  0  0  0  0  0  0  0  0
   -3.1304   -1.3013   -1.6119 H   0  0  0  0  0  0  0  0  0  0  0  0
   -2.6910   -1.7468    0.1131 H   0  0  0  0  0  0  0  0  0  0  0  0
   -5.2766   -1.2206   -0.2776 H   0  0  0  0  0  0  0  0  0  0  0  0
   -2.8892    2.1273    0.7227 H   0  0  0  0  0  0  0  0  0  0  0  0
   -2.8961    0.5362    1.6689 H   0  0  0  0  0  0  0  0  0  0  0  0
  1  2  1  0
  2  3  1  0
  2  4  1  0
  4  5  1  0
  5  6  2  0
  5  7  1  0
  7  8  1  0
  8  9  1  0
  9 10  1  0
 10 11  1  0
 11 12  1  0
 12 13  2  0
 12 14  1  0
 14  9  1  0
  1 15  1  0
  1 16  1  0
  1 17  1  0
  2 18  1  0
  3 19  1  0
  3 20  1  0
  3 21  1  0
  4 22  1  0
  7 23  1  0
  7 24  1  0
  8 25  1  0
  9 26  1  6
 10 27  1  0
 10 28  1  0
 11 29  1  0
 14 30  1  0
 14 31  1  0
M  END
$$$$
