
     RDKit          3D

 32 31  0  0  0  0  0  0  0  0999 V2000
   -3.2142    0.8930   -1.3128 N   0  0  0  0  0  0  0  0  0  0  0  0
   -3.6595    0.0844   -0.2169 C   0  0  0  0  0  0  0  0  0  0  0  0
   -4.8614    0.2208    0.1488 O   0  0  0  0  0  0  0  0  0  0  0  0
   -2.7323   -0.8691    0.4517 C   0  0  2  0  0  0  0  0  0  0  0  0
   -3.5100   -1.5320    1.5081 N   0  0  0  0  0  0  0  0  0  0  0  0
   -1.6107   -0.1577    1.1569 C   0  0  0  0  0  0  0  0  0  0  0  0
   -0.7739    0.6477    0.3400 N   0  0  0  0  0  0  0  0  0  0  0  0
    0.0586   -0.0169   -0.5971 C   0  0  0  0  0  0  0  0  0  0  0  0
    1.1544   -0.8298    0.0578 C   0  0  0  0  0  0  0  0  0  0  0  0
    2.0689   -0.0070    0.9030 C   0  0  0  0  0  0  0  0  0  0  0  0
    2.7812    1.0782    0.1579 C   0  0  0  0  0  0  0  0  0  0  0  0
    3.6386    0.5387   -0.9641 C   0  0  0  0  0  0  0  0  0  0  0  0
    4.6201   -0.3419   -0.4831 O   0  0  0  0  0  0  0  0  0  0  0  0
   -3.6786    0.8404   -2.2437 H   0  0  0  0  0  0  0  0  0  0  0  0
   -2.4147    1.5355   -1.1440 H   0  0  0  0  0  0  0  0  0  0  0  0
   -2.3518   -1.6433   -0.2370 H   0  0  0  0  0  0  0  0  0  0  0  0
   -3.1049   -2.4635    1.7367 H   0  0  0  0  0  0  0  0  0  0  0  0
   -3.5341   -0.9384    2.3491 H   0  0  0  0  0  0  0  0  0  0  0  0
   -1.0153   -0.9408    1.6741 H   0  0  0  0  0  0  0  0  0  0  0  0
   -2.0581    0.5039    1.9393 H   0  0  0  0  0  0  0  0  0  0  0  0
   -0.4474    1.5075    0.7576 H   0  0  0  0  0  0  0  0  0  0  0  0
    0.5621    0.7414   -1.2548 H   0  0  0  0  0  0  0  0  0  0  0  0
   -0.5248   -0.6741   -1.2697 H   0  0  0  0  0  0  0  0  0  0  0  0
    0.7032   -1.6110    0.6988 H   0  0  0  0  0  0  0  0  0  0  0  0
    1.7119   -1.3840   -0.7447 H   0  0  0  0  0  0  0  0  0  0  0  0
    1.4914    0.4471    1.7198 H   0  0  0  0  0  0  0  0  0  0  0  0
    2.8052   -0.6965    1.3676 H   0  0  0  0  0  0  0  0  0  0  0  0
    2.0802    1.7860   -0.3031 H   0  0  0  0  0  0  0  0  0  0  0  0
    3.4419    1.5997    0.8921 H   0  0  0  0  0  0  0  0  0  0  0  0
    2.9966    0.0620   -1.7186 H   0  0  0  0  0  0  0  0  0  0  0  0
    4.1281    1.4154   -1.4524 H   0  0  0  0  0  0  0  0  0  0  0  0
    5.2490    0.2044    0.0554 H   0  0  0  0  0  0  0  0  0  0  0  0
  1  2  1  0
  2  3  2  0
  2  4  1  0
  4  5  1  0
  4  6  1  0
  6  7  1  0
  7  8  1  0
  8  9  1  0
  9 10  1  0
 10 11  1  0
 11 12  1  0
 12 13  1  0
  1 14  1  0
  1 15  1  0
  4 16  1  6
  5 17  1  0
  5 18  1  0
  6 19  1  0
  6 20  1  0
  7 21  1  0
  8 22  1  0
  8 23  1  0
  9 24  1  0
  9 25  1  0
 10 26  1  0
 10 27  1  0
 11 28  1  0
 11 29  1  0
 12 30  1  0
 12 31  1  0
 13 32  1  0
M  END
$$$$

     RDKit          3D

 32 31  0  0  0  0  0  0  0  0999 V2000
    4.9953    0.5272    0.8979 N   0  0  0  0  0  0  0  0  0  0  0  0
    4.2730    0.3735   -0.3006 C   0  0  0  0  0  0  0  0  0  0  0  0
    4.7992   -0.1424   -1.3087 O   0  0  0  0  0  0  0  0  0  0  0  0
    2.8431    0.8416   -0.3594 C   0  0  2  0  0  0  0  0  0  0  0  0
    2.4421    1.3814    0.9125 N   0  0  0  0  0  0  0  0  0  0  0  0
    1.9965   -0.3664   -0.6891 C   0  0  0  0  0  0  0  0  0  0  0  0
    0.5707   -0.0284   -0.7754 N   0  0  0  0  0  0  0  0  0  0  0  0
   -0.0998   -1.2660   -1.1060 C   0  0  0  0  0  0  0  0  0  0  0  0
   -1.5642   -1.0299   -1.2637 C   0  0  0  0  0  0  0  0  0  0  0  0
   -2.1533   -0.5006    0.0205 C   0  0  0  0  0  0  0  0  0  0  0  0
   -3.6577   -0.2784   -0.1539 C   0  0  0  0  0  0  0  0  0  0  0  0
   -4.2669    0.2500    1.1266 C   0  0  0  0  0  0  0  0  0  0  0  0
   -3.6893    1.4588    1.4866 O   0  0  0  0  0  0  0  0  0  0  0  0
    5.9318    0.0889    1.0078 H   0  0  0  0  0  0  0  0  0  0  0  0
    4.6256    1.0754    1.7052 H   0  0  0  0  0  0  0  0  0  0  0  0
    2.7682    1.6026   -1.1627 H   0  0  0  0  0  0  0  0  0  0  0  0
    2.1386    2.3701    0.8900 H   0  0  0  0  0  0  0  0  0  0  0  0
    1.8151    0.7915    1.4673 H   0  0  0  0  0  0  0  0  0  0  0  0
    2.1354   -1.1623    0.0672 H   0  0  0  0  0  0  0  0  0  0  0  0
    2.3196   -0.8045   -1.6593 H   0  0  0  0  0  0  0  0  0  0  0  0
    0.3160    0.2780    0.1958 H   0  0  0  0  0  0  0  0  0  0  0  0
    0.0559   -2.0169   -0.2934 H   0  0  0  0  0  0  0  0  0  0  0  0
    0.3326   -1.6919   -2.0561 H   0  0  0  0  0  0  0  0  0  0  0  0
   -1.8022   -0.3615   -2.1185 H   0  0  0  0  0  0  0  0  0  0  0  0
   -2.0854   -2.0081   -1.4491 H   0  0  0  0  0  0  0  0  0  0  0  0
   -1.6611    0.4668    0.2616 H   0  0  0  0  0  0  0  0  0  0  0  0
   -1.9520   -1.2254    0.8346 H   0  0  0  0  0  0  0  0  0  0  0  0
   -3.7927    0.4528   -0.9753 H   0  0  0  0  0  0  0  0  0  0  0  0
   -4.1090   -1.2436   -0.4351 H   0  0  0  0  0  0  0  0  0  0  0  0
   -4.1390   -0.4583    1.9669 H   0  0  0  0  0  0  0  0  0  0  0  0
   -5.3479    0.3929    0.9908 H   0  0  0  0  0  0  0  0  0  0  0  0
   -4.0381    2.2332    0.9769 H   0  0  0  0  0  0  0  0  0  0  0  0
  1  2  1  0
  2  3  2  0
  2  4  1  0
  4  5  1  0
  4  6  1  0
  6  7  1  0
  7  8  1  0
  8  9  1  0
  9 10  1  0
 10 11  1  0
 11 12  1  0
 12 13  1  0
  1 14  1  0
  1 15  1  0
  4 16  1  6
  5 17  1  0
  5 18  1  0
  6 19  1  0
  6 20  1  0
  7 21  1  0
  8 22  1  0
  8 23  1  0
  9 24  1  0
  9 25  1  0
 10 26  1  0
 10 27  1  0
 11 28  1  0
 11 29  1  0
 12 30  1  0
 12 31  1  0
 13 32  1  0
M  END
$$$$

     RDKit          3D

 32 31  0  0  0  0  0  0  0  0999 V2000
    5.1214   -1.0311   -0.3501 N   0  0  0  0  0  0  0  0  0  0  0  0
    4.5915    0.2761   -0.0003 C   0  0  0  0  0  0  0  0  0  0  0  0
    5.2602    1.0664    0.6647 O   0  0  0  0  0  0  0  0  0  0  0  0
    3.2426    0.5934   -0.4840 C   0  0  2  0  0  0  0  0  0  0  0  0
    3.0163    2.0166   -0.1831 N   0  0  0  0  0  0  0  0  0  0  0  0
    2.2069   -0.2416    0.2601 C   0  0  0  0  0  0  0  0  0  0  0  0
    0.8910    0.0094   -0.2282 N   0  0  0  0  0  0  0  0  0  0  0  0
   -0.1637   -0.4385    0.6379 C   0  0  0  0  0  0  0  0  0  0  0  0
   -1.4557   -0.3277   -0.1603 C   0  0  0  0  0  0  0  0  0  0  0  0
   -2.6509   -0.6904    0.6943 C   0  0  0  0  0  0  0  0  0  0  0  0
   -3.9378   -0.6241   -0.0632 C   0  0  0  0  0  0  0  0  0  0  0  0
   -4.1625    0.7401   -0.6355 C   0  0  0  0  0  0  0  0  0  0  0  0
   -5.3995    0.8060   -1.3338 O   0  0  0  0  0  0  0  0  0  0  0  0
    5.1363   -1.7463    0.3955 H   0  0  0  0  0  0  0  0  0  0  0  0
    5.4234   -1.1197   -1.3221 H   0  0  0  0  0  0  0  0  0  0  0  0
    3.1043    0.4528   -1.5521 H   0  0  0  0  0  0  0  0  0  0  0  0
    2.3233    2.4176   -0.8674 H   0  0  0  0  0  0  0  0  0  0  0  0
    2.6920    2.1170    0.8103 H   0  0  0  0  0  0  0  0  0  0  0  0
    2.2495   -0.1632    1.3467 H   0  0  0  0  0  0  0  0  0  0  0  0
    2.4358   -1.3065   -0.0469 H   0  0  0  0  0  0  0  0  0  0  0  0
    0.7510   -0.2370   -1.2257 H   0  0  0  0  0  0  0  0  0  0  0  0
    0.0514   -1.4606    0.9824 H   0  0  0  0  0  0  0  0  0  0  0  0
   -0.2158    0.2270    1.5356 H   0  0  0  0  0  0  0  0  0  0  0  0
   -1.4794   -1.0809   -1.0051 H   0  0  0  0  0  0  0  0  0  0  0  0
   -1.5057    0.6633   -0.6331 H   0  0  0  0  0  0  0  0  0  0  0  0
   -2.7079    0.0389    1.5551 H   0  0  0  0  0  0  0  0  0  0  0  0
   -2.5228   -1.6844    1.1298 H   0  0  0  0  0  0  0  0  0  0  0  0
   -3.9100   -1.4092   -0.8507 H   0  0  0  0  0  0  0  0  0  0  0  0
   -4.7643   -0.8370    0.6552 H   0  0  0  0  0  0  0  0  0  0  0  0
   -3.3481    0.9652   -1.3999 H   0  0  0  0  0  0  0  0  0  0  0  0
   -4.1604    1.4972    0.1496 H   0  0  0  0  0  0  0  0  0  0  0  0
   -6.1126    0.5112   -0.7036 H   0  0  0  0  0  0  0  0  0  0  0  0
  1  2  1  0
  2  3  2  0
  2  4  1  0
  4  5  1  0
  4  6  1  0
  6  7  1  0
  7  8  1  0
  8  9  1  0
  9 10  1  0
 10 11  1  0
 11 12  1  0
 12 13  1  0
  1 14  1  0
  1 15  1  0
  4 16  1  6
  5 17  1  0
  5 18  1  0
  6 19  1  0
  6 20  1  0
  7 21  1  0
  8 22  1  0
  8 23  1  0
  9 24  1  0
  9 25  1  0
 10 26  1  0
 10 27  1  0
 11 28  1  0
 11 29  1  0
 12 30  1  0
 12 31  1  0
 13 32  1  0
M  END
$$$$

     RDKit          3D

 32 31  0  0  0  0  0  0  0  0999 V2000
   -4.7397   -0.0405    0.6821 N   0  0  0  0  0  0  0  0  0  0  0  0
   -3.9411    0.7640   -0.1643 C   0  0  0  0  0  0  0  0  0  0  0  0
   -3.9171    1.9984    0.0301 O   0  0  0  0  0  0  0  0  0  0  0  0
   -3.1602    0.1504   -1.2465 C   0  0  2  0  0  0  0  0  0  0  0  0
   -3.3429   -1.2888   -1.2812 N   0  0  0  0  0  0  0  0  0  0  0  0
   -1.6855    0.4694   -1.1552 C   0  0  0  0  0  0  0  0  0  0  0  0
   -1.0866    0.0176    0.0609 N   0  0  0  0  0  0  0  0  0  0  0  0
    0.3182    0.3797    0.0300 C   0  0  0  0  0  0  0  0  0  0  0  0
    0.9900   -0.0815    1.3036 C   0  0  0  0  0  0  0  0  0  0  0  0
    2.4569    0.2701    1.3252 C   0  0  0  0  0  0  0  0  0  0  0  0
    3.2216   -0.3483    0.1968 C   0  0  0  0  0  0  0  0  0  0  0  0
    4.6747    0.0884    0.3440 C   0  0  0  0  0  0  0  0  0  0  0  0
    5.4679   -0.4372   -0.6618 O   0  0  0  0  0  0  0  0  0  0  0  0
   -5.7734    0.1319    0.8081 H   0  0  0  0  0  0  0  0  0  0  0  0
   -4.3533   -0.8444    1.2257 H   0  0  0  0  0  0  0  0  0  0  0  0
   -3.4949    0.5225   -2.2587 H   0  0  0  0  0  0  0  0  0  0  0  0
   -3.0147   -1.7044   -2.1665 H   0  0  0  0  0  0  0  0  0  0  0  0
   -4.3361   -1.5427   -1.0517 H   0  0  0  0  0  0  0  0  0  0  0  0
   -1.4791    1.5434   -1.2988 H   0  0  0  0  0  0  0  0  0  0  0  0
   -1.1751   -0.0567   -1.9954 H   0  0  0  0  0  0  0  0  0  0  0  0
   -1.5579    0.2899    0.9265 H   0  0  0  0  0  0  0  0  0  0  0  0
    0.3749    1.4769   -0.0457 H   0  0  0  0  0  0  0  0  0  0  0  0
    0.8313   -0.0667   -0.8312 H   0  0  0  0  0  0  0  0  0  0  0  0
    0.5200    0.3958    2.1768 H   0  0  0  0  0  0  0  0  0  0  0  0
    0.8560   -1.1769    1.4001 H   0  0  0  0  0  0  0  0  0  0  0  0
    2.8784   -0.1291    2.2718 H   0  0  0  0  0  0  0  0  0  0  0  0
    2.6355    1.3510    1.3287 H   0  0  0  0  0  0  0  0  0  0  0  0
    3.2241   -1.4573    0.2217 H   0  0  0  0  0  0  0  0  0  0  0  0
    2.8938    0.0085   -0.8007 H   0  0  0  0  0  0  0  0  0  0  0  0
    4.7102    1.2075    0.3564 H   0  0  0  0  0  0  0  0  0  0  0  0
    5.0098   -0.2256    1.3546 H   0  0  0  0  0  0  0  0  0  0  0  0
    5.9940    0.2859   -1.0851 H   0  0  0  0  0  0  0  0  0  0  0  0
  1  2  1  0
  2  3  2  0
  2  4  1  0
  4  5  1  0
  4  6  1  0
  6  7  1  0
  7  8  1  0
  8  9  1  0
  9 10  1  0
 10 11  1  0
 11 12  1  0
 12 13  1  0
  1 14  1  0
  1 15  1  0
  4 16  1  6
  5 17  1  0
  5 18  1  0
  6 19  1  0
  6 20  1  0
  7 21  1  0
  8 22  1  0
  8 23  1  0
  9 24  1  0
  9 25  1  0
 10 26  1  0
 10 27  1  0
 11 28  1  0
 11 29  1  0
 12 30  1  0
 12 31  1  0
 13 32  1  0
M  END
$$$$

     RDKit          3D

 32 31  0  0  0  0  0  0  0  0999 V2000
   -3.2799   -0.3864   -2.0771 N   0  0  0  0  0  0  0  0  0  0  0  0
   -3.5649    0.1558   -0.7967 C   0  0  0  0  0  0  0  0  0  0  0  0
   -4.0973    1.2873   -0.7219 O   0  0  0  0  0  0  0  0  0  0  0  0
   -3.2141   -0.6530    0.3968 C   0  0  2  0  0  0  0  0  0  0  0  0
   -3.5711    0.0356    1.6275 N   0  0  0  0  0  0  0  0  0  0  0  0
   -1.6839   -0.7543    0.4184 C   0  0  0  0  0  0  0  0  0  0  0  0
   -1.2004    0.5924    0.5065 N   0  0  0  0  0  0  0  0  0  0  0  0
    0.2448    0.7012    0.5487 C   0  0  0  0  0  0  0  0  0  0  0  0
    0.8694    0.3015   -0.7490 C   0  0  0  0  0  0  0  0  0  0  0  0
    2.3570    0.4265   -0.6930 C   0  0  0  0  0  0  0  0  0  0  0  0
    2.9334   -0.4582    0.3880 C   0  0  0  0  0  0  0  0  0  0  0  0
    4.4416   -0.2637    0.3564 C   0  0  0  0  0  0  0  0  0  0  0  0
    4.7026    1.0711    0.5995 O   0  0  0  0  0  0  0  0  0  0  0  0
   -3.9397   -1.0916   -2.4596 H   0  0  0  0  0  0  0  0  0  0  0  0
   -2.4471   -0.1018   -2.6289 H   0  0  0  0  0  0  0  0  0  0  0  0
   -3.6257   -1.6679    0.3695 H   0  0  0  0  0  0  0  0  0  0  0  0
   -4.0389   -0.6409    2.2981 H   0  0  0  0  0  0  0  0  0  0  0  0
   -4.1994    0.8421    1.4710 H   0  0  0  0  0  0  0  0  0  0  0  0
   -1.3314   -1.3312    1.2743 H   0  0  0  0  0  0  0  0  0  0  0  0
   -1.3422   -1.2524   -0.5216 H   0  0  0  0  0  0  0  0  0  0  0  0
   -1.6226    1.2313   -0.2013 H   0  0  0  0  0  0  0  0  0  0  0  0
    0.5868    0.0224    1.3698 H   0  0  0  0  0  0  0  0  0  0  0  0
    0.4823    1.7391    0.8447 H   0  0  0  0  0  0  0  0  0  0  0  0
    0.4491    0.8880   -1.5942 H   0  0  0  0  0  0  0  0  0  0  0  0
    0.5778   -0.7628   -0.9532 H   0  0  0  0  0  0  0  0  0  0  0  0
    2.8299    0.1504   -1.6589 H   0  0  0  0  0  0  0  0  0  0  0  0
    2.6423    1.4783   -0.4235 H   0  0  0  0  0  0  0  0  0  0  0  0
    2.6068   -0.0659    1.3849 H   0  0  0  0  0  0  0  0  0  0  0  0
    2.6321   -1.5040    0.3156 H   0  0  0  0  0  0  0  0  0  0  0  0
    4.8491   -0.9155    1.1572 H   0  0  0  0  0  0  0  0  0  0  0  0
    4.8804   -0.6048   -0.5928 H   0  0  0  0  0  0  0  0  0  0  0  0
    5.0732    1.5313   -0.2002 H   0  0  0  0  0  0  0  0  0  0  0  0
  1  2  1  0
  2  3  2  0
  2  4  1  0
  4  5  1  0
  4  6  1  0
  6  7  1  0
  7  8  1  0
  8  9  1  0
  9 10  1  0
 10 11  1  0
 11 12  1  0
 12 13  1  0
  1 14  1  0
  1 15  1  0
  4 16  1  6
  5 17  1  0
  5 18  1  0
  6 19  1  0
  6 20  1  0
  7 21  1  0
  8 22  1  0
  8 23  1  0
  9 24  1  0
  9 25  1  0
 10 26  1  0
 10 27  1  0
 11 28  1  0
 11 29  1  0
 12 30  1  0
 12 31  1  0
 13 32  1  0
M  END
$$$$

     RDKit          3D

 32 31  0  0  0  0  0  0  0  0999 V2000
   -5.0983   -0.9812    0.4829 N   0  0  0  0  0  0  0  0  0  0  0  0
   -3.9596   -0.2616    0.9542 C   0  0  0  0  0  0  0  0  0  0  0  0
   -3.7641   -0.1921    2.1747 O   0  0  0  0  0  0  0  0  0  0  0  0
   -3.0645    0.3677   -0.0146 C   0  0  2  0  0  0  0  0  0  0  0  0
   -3.5180    0.1020   -1.3518 N   0  0  0  0  0  0  0  0  0  0  0  0
   -1.6035   -0.0072    0.1676 C   0  0  0  0  0  0  0  0  0  0  0  0
   -0.8794    0.6894   -0.8573 N   0  0  0  0  0  0  0  0  0  0  0  0
    0.5345    0.4784   -0.8690 C   0  0  0  0  0  0  0  0  0  0  0  0
    1.1438    1.1090    0.3365 C   0  0  0  0  0  0  0  0  0  0  0  0
    2.6289    0.9539    0.4133 C   0  0  0  0  0  0  0  0  0  0  0  0
    2.9833   -0.5051    0.4569 C   0  0  0  0  0  0  0  0  0  0  0  0
    4.4868   -0.7017    0.5444 C   0  0  0  0  0  0  0  0  0  0  0  0
    4.7671   -2.0468    0.5835 O   0  0  0  0  0  0  0  0  0  0  0  0
   -5.7494   -1.4660    1.1340 H   0  0  0  0  0  0  0  0  0  0  0  0
   -5.3329   -1.0541   -0.5380 H   0  0  0  0  0  0  0  0  0  0  0  0
   -3.1031    1.4705    0.1759 H   0  0  0  0  0  0  0  0  0  0  0  0
   -3.5627   -0.9259   -1.5447 H   0  0  0  0  0  0  0  0  0  0  0  0
   -2.8542    0.5507   -2.0324 H   0  0  0  0  0  0  0  0  0  0  0  0
   -1.3253    0.3504    1.1982 H   0  0  0  0  0  0  0  0  0  0  0  0
   -1.4428   -1.1017    0.1048 H   0  0  0  0  0  0  0  0  0  0  0  0
   -1.2092    1.6336   -1.0731 H   0  0  0  0  0  0  0  0  0  0  0  0
    0.7078   -0.6068   -0.9264 H   0  0  0  0  0  0  0  0  0  0  0  0
    0.9259    0.9820   -1.7895 H   0  0  0  0  0  0  0  0  0  0  0  0
    0.8621    2.1900    0.4115 H   0  0  0  0  0  0  0  0  0  0  0  0
    0.6775    0.6400    1.2354 H   0  0  0  0  0  0  0  0  0  0  0  0
    3.0993    1.4683   -0.4660 H   0  0  0  0  0  0  0  0  0  0  0  0
    2.9941    1.4804    1.3204 H   0  0  0  0  0  0  0  0  0  0  0  0
    2.6246   -1.0066   -0.4701 H   0  0  0  0  0  0  0  0  0  0  0  0
    2.5136   -0.9479    1.3480 H   0  0  0  0  0  0  0  0  0  0  0  0
    4.8636   -0.1770    1.4474 H   0  0  0  0  0  0  0  0  0  0  0  0
    4.9537   -0.2597   -0.3492 H   0  0  0  0  0  0  0  0  0  0  0  0
    5.7003   -2.2249    0.8896 H   0  0  0  0  0  0  0  0  0  0  0  0
  1  2  1  0
  2  3  2  0
  2  4  1  0
  4  5  1  0
  4  6  1  0
  6  7  1  0
  7  8  1  0
  8  9  1  0
  9 10  1  0
 10 11  1  0
 11 12  1  0
 12 13  1  0
  1 14  1  0
  1 15  1  0
  4 16  1  1
  5 17  1  0
  5 18  1  0
  6 19  1  0
  6 20  1  0
  7 21  1  0
  8 22  1  0
  8 23  1  0
  9 24  1  0
  9 25  1  0
 10 26  1  0
 10 27  1  0
 11 28  1  0
 11 29  1  0
 12 30  1  0
 12 31  1  0
 13 32  1  0
M  END
$$$$

     RDKit          3D

 32 31  0  0  0  0  0  0  0  0999 V2000
    4.0367    0.4057   -1.5622 N   0  0  0  0  0  0  0  0  0  0  0  0
    3.7808    0.7964   -0.2277 C   0  0  0  0  0  0  0  0  0  0  0  0
    4.6772    1.4052    0.4452 O   0  0  0  0  0  0  0  0  0  0  0  0
    2.4618    0.5149    0.4457 C   0  0  2  0  0  0  0  0  0  0  0  0
    2.4761    1.0254    1.8020 N   0  0  0  0  0  0  0  0  0  0  0  0
    2.2471   -0.9655    0.4681 C   0  0  0  0  0  0  0  0  0  0  0  0
    1.0067   -1.3074    1.1008 N   0  0  0  0  0  0  0  0  0  0  0  0
   -0.1313   -0.8889    0.3152 C   0  0  0  0  0  0  0  0  0  0  0  0
   -1.4092   -1.2942    1.0225 C   0  0  0  0  0  0  0  0  0  0  0  0
   -2.5894   -0.8703    0.2127 C   0  0  0  0  0  0  0  0  0  0  0  0
   -2.6574    0.6169   -0.0155 C   0  0  0  0  0  0  0  0  0  0  0  0
   -3.8832    0.9698   -0.8358 C   0  0  0  0  0  0  0  0  0  0  0  0
   -5.0549    0.5866   -0.2063 O   0  0  0  0  0  0  0  0  0  0  0  0
    3.2962    0.5261   -2.2887 H   0  0  0  0  0  0  0  0  0  0  0  0
    4.9677   -0.0102   -1.8485 H   0  0  0  0  0  0  0  0  0  0  0  0
    1.7026    1.0490   -0.1668 H   0  0  0  0  0  0  0  0  0  0  0  0
    1.6463    1.6746    1.9525 H   0  0  0  0  0  0  0  0  0  0  0  0
    3.3523    1.5649    1.9766 H   0  0  0  0  0  0  0  0  0  0  0  0
    3.1002   -1.4415    0.9882 H   0  0  0  0  0  0  0  0  0  0  0  0
    2.2179   -1.3667   -0.5837 H   0  0  0  0  0  0  0  0  0  0  0  0
    0.9474   -0.9990    2.0877 H   0  0  0  0  0  0  0  0  0  0  0  0
   -0.0778    0.2226    0.2701 H   0  0  0  0  0  0  0  0  0  0  0  0
   -0.0639   -1.3060   -0.6926 H   0  0  0  0  0  0  0  0  0  0  0  0
   -1.4533   -0.7968    2.0120 H   0  0  0  0  0  0  0  0  0  0  0  0
   -1.4192   -2.4025    1.1510 H   0  0  0  0  0  0  0  0  0  0  0  0
   -2.5449   -1.3708   -0.7968 H   0  0  0  0  0  0  0  0  0  0  0  0
   -3.5300   -1.2335    0.6726 H   0  0  0  0  0  0  0  0  0  0  0  0
   -2.6927    1.1247    0.9604 H   0  0  0  0  0  0  0  0  0  0  0  0
   -1.7542    0.9427   -0.5848 H   0  0  0  0  0  0  0  0  0  0  0  0
   -3.9155    2.0679   -0.9453 H   0  0  0  0  0  0  0  0  0  0  0  0
   -3.7943    0.5209   -1.8301 H   0  0  0  0  0  0  0  0  0  0  0  0
   -4.9456    0.2392    0.6957 H   0  0  0  0  0  0  0  0  0  0  0  0
  1  2  1  0
  2  3  2  0
  2  4  1  0
  4  5  1  0
  4  6  1  0
  6  7  1  0
  7  8  1  0
  8  9  1  0
  9 10  1  0
 10 11  1  0
 11 12  1  0
 12 13  1  0
  1 14  1  0
  1 15  1  0
  4 16  1  6
  5 17  1  0
  5 18  1  0
  6 19  1  0
  6 20  1  0
  7 21  1  0
  8 22  1  0
  8 23  1  0
  9 24  1  0
  9 25  1  0
 10 26  1  0
 10 27  1  0
 11 28  1  0
 11 29  1  0
 12 30  1  0
 12 31  1  0
 13 32  1  0
M  END
$$$$

     RDKit          3D

 32 31  0  0  0  0  0  0  0  0999 V2000
   -4.0658   -0.1454    1.6866 N   0  0  0  0  0  0  0  0  0  0  0  0
   -3.3559    0.8557    0.9931 C   0  0  0  0  0  0  0  0  0  0  0  0
   -2.8402    1.8223    1.6134 O   0  0  0  0  0  0  0  0  0  0  0  0
   -3.1989    0.7981   -0.4702 C   0  0  2  0  0  0  0  0  0  0  0  0
   -3.8290   -0.3258   -1.0070 N   0  0  0  0  0  0  0  0  0  0  0  0
   -1.7009    0.7834   -0.7772 C   0  0  0  0  0  0  0  0  0  0  0  0
   -1.1693   -0.3918   -0.1343 N   0  0  0  0  0  0  0  0  0  0  0  0
    0.2532   -0.4829   -0.3845 C   0  0  0  0  0  0  0  0  0  0  0  0
    1.0451    0.5771    0.3011 C   0  0  0  0  0  0  0  0  0  0  0  0
    2.5062    0.4376   -0.0055 C   0  0  0  0  0  0  0  0  0  0  0  0
    3.0605   -0.8724    0.4433 C   0  0  0  0  0  0  0  0  0  0  0  0
    4.5492   -0.9889    0.1429 C   0  0  0  0  0  0  0  0  0  0  0  0
    5.2803    0.0032    0.7802 O   0  0  0  0  0  0  0  0  0  0  0  0
   -3.6790   -1.1023    1.7429 H   0  0  0  0  0  0  0  0  0  0  0  0
   -4.9743    0.0688    2.1423 H   0  0  0  0  0  0  0  0  0  0  0  0
   -3.5978    1.7197   -0.9552 H   0  0  0  0  0  0  0  0  0  0  0  0
   -4.6427   -0.7166   -0.5212 H   0  0  0  0  0  0  0  0  0  0  0  0
   -3.7700   -0.4888   -2.0157 H   0  0  0  0  0  0  0  0  0  0  0  0
   -1.6112    0.7248   -1.8832 H   0  0  0  0  0  0  0  0  0  0  0  0
   -1.2834    1.7221   -0.4261 H   0  0  0  0  0  0  0  0  0  0  0  0
   -1.3951   -0.4332    0.8635 H   0  0  0  0  0  0  0  0  0  0  0  0
    0.3933   -0.3666   -1.4890 H   0  0  0  0  0  0  0  0  0  0  0  0
    0.6010   -1.5151   -0.1555 H   0  0  0  0  0  0  0  0  0  0  0  0
    0.9051    0.5081    1.4100 H   0  0  0  0  0  0  0  0  0  0  0  0
    0.6585    1.5766    0.0048 H   0  0  0  0  0  0  0  0  0  0  0  0
    2.6789    0.5596   -1.1081 H   0  0  0  0  0  0  0  0  0  0  0  0
    3.0369    1.3091    0.4482 H   0  0  0  0  0  0  0  0  0  0  0  0
    2.5649   -1.7066   -0.1074 H   0  0  0  0  0  0  0  0  0  0  0  0
    2.9003   -1.0330    1.5246 H   0  0  0  0  0  0  0  0  0  0  0  0
    4.7315   -0.9997   -0.9334 H   0  0  0  0  0  0  0  0  0  0  0  0
    4.8784   -1.9714    0.5381 H   0  0  0  0  0  0  0  0  0  0  0  0
    5.0699    0.0745    1.7331 H   0  0  0  0  0  0  0  0  0  0  0  0
  1  2  1  0
  2  3  2  0
  2  4  1  0
  4  5  1  0
  4  6  1  0
  6  7  1  0
  7  8  1  0
  8  9  1  0
  9 10  1  0
 10 11  1  0
 11 12  1  0
 12 13  1  0
  1 14  1  0
  1 15  1  0
  4 16  1  6
  5 17  1  0
  5 18  1  0
  6 19  1  0
  6 20  1  0
  7 21  1  0
  8 22  1  0
  8 23  1  0
  9 24  1  0
  9 25  1  0
 10 26  1  0
 10 27  1  0
 11 28  1  0
 11 29  1  0
 12 30  1  0
 12 31  1  0
 13 32  1  0
M  END
$$$$
