
     RDKit          3D

 30 31  0  0  0  0  0  0  0  0999 V2000
    2.1271   -1.4753    0.2796 C   0  0  0  0  0  0  0  0  0  0  0  0
    1.4744   -0.1197    0.0468 C   0  0  1  0  0  0  0  0  0  0  0  0
    2.2238    0.7128   -0.8397 N   0  0  0  0  0  0  0  0  0  0  0  0
    3.4830    0.9273   -0.2938 N   0  0  0  0  0  0  0  0  0  0  0  0
    0.0694   -0.3897   -0.4325 C   0  0  1  0  0  0  0  0  0  0  0  0
   -0.6658   -1.1739    0.6334 C   0  0  0  0  0  0  0  0  0  0  0  0
   -1.9489   -0.5287    0.8359 N   0  0  0  0  0  0  0  0  0  0  0  0
   -1.6572    0.7840    1.4150 C   0  0  0  0  0  0  0  0  0  0  0  0
   -1.0415    1.6142    0.2984 C   0  0  0  0  0  0  0  0  0  0  0  0
   -0.6362    0.8059   -0.8189 N   0  0  0  0  0  0  0  0  0  0  0  0
   -1.8727    0.3367   -1.4671 C   0  0  0  0  0  0  0  0  0  0  0  0
   -2.6776   -0.3529   -0.3871 C   0  0  0  0  0  0  0  0  0  0  0  0
    1.3663   -2.1492    0.7268 H   0  0  0  0  0  0  0  0  0  0  0  0
    2.3549   -1.8752   -0.7385 H   0  0  0  0  0  0  0  0  0  0  0  0
    3.0221   -1.4224    0.8979 H   0  0  0  0  0  0  0  0  0  0  0  0
    1.4198    0.3973    1.0305 H   0  0  0  0  0  0  0  0  0  0  0  0
    2.2511    0.3956   -1.8229 H   0  0  0  0  0  0  0  0  0  0  0  0
    4.0088    0.0787   -0.0690 H   0  0  0  0  0  0  0  0  0  0  0  0
    3.5052    1.6304    0.4533 H   0  0  0  0  0  0  0  0  0  0  0  0
    0.0940   -1.0477   -1.3379 H   0  0  0  0  0  0  0  0  0  0  0  0
   -0.1330   -1.0969    1.6256 H   0  0  0  0  0  0  0  0  0  0  0  0
   -0.7459   -2.2420    0.4088 H   0  0  0  0  0  0  0  0  0  0  0  0
   -0.8392    0.6622    2.1810 H   0  0  0  0  0  0  0  0  0  0  0  0
   -2.5546    1.2470    1.8449 H   0  0  0  0  0  0  0  0  0  0  0  0
   -0.2130    2.2249    0.6736 H   0  0  0  0  0  0  0  0  0  0  0  0
   -1.8630    2.2974   -0.0588 H   0  0  0  0  0  0  0  0  0  0  0  0
   -1.5279   -0.4372   -2.2109 H   0  0  0  0  0  0  0  0  0  0  0  0
   -2.4002    1.1590   -1.9531 H   0  0  0  0  0  0  0  0  0  0  0  0
   -3.0823   -1.2924   -0.7709 H   0  0  0  0  0  0  0  0  0  0  0  0
   -3.5410    0.3299   -0.1505 H   0  0  0  0  0  0  0  0  0  0  0  0
  1  2  1  0
  2  3  1  0
  3  4  1  0
  2  5  1  0
  5  6  1  0
  6  7  1  0
  7  8  1  0
  8  9  1  0
  9 10  1  0
 10 11  1  0
 11 12  1  0
 10  5  1  0
 12  7  1  0
  1 13  1  0
  1 14  1  0
  1 15  1  0
  2 16  1  1
  3 17  1  0
  4 18  1  0
  4 19  1  0
  5 20  1  6
  6 21  1  0
  6 22  1  0
  8 23  1  0
  8 24  1  0
  9 25  1  0
  9 26  1  0
 11 27  1  0
 11 28  1  0
 12 29  1  0
 12 30  1  0
M  END
$$$$

     RDKit          3D

 30 31  0  0  0  0  0  0  0  0999 V2000
   -2.1726   -1.0328    0.1458 C   0  0  0  0  0  0  0  0  0  0  0  0
   -1.6667    0.2083   -0.5450 C   0  0  1  0  0  0  0  0  0  0  0  0
   -2.4853    1.2962   -0.1745 N   0  0  0  0  0  0  0  0  0  0  0  0
   -2.5671    1.6238    1.1322 N   0  0  0  0  0  0  0  0  0  0  0  0
   -0.1990    0.4230   -0.4279 C   0  0  1  0  0  0  0  0  0  0  0  0
    0.3338    0.5648    0.9578 C   0  0  0  0  0  0  0  0  0  0  0  0
    1.7912    0.3474    0.8631 N   0  0  0  0  0  0  0  0  0  0  0  0
    2.2766    0.8854   -0.4194 C   0  0  0  0  0  0  0  0  0  0  0  0
    1.7766    0.0267   -1.5788 C   0  0  0  0  0  0  0  0  0  0  0  0
    0.5498   -0.6257   -1.0854 N   0  0  0  0  0  0  0  0  0  0  0  0
    1.0051   -1.6418   -0.1366 C   0  0  0  0  0  0  0  0  0  0  0  0
    2.0876   -1.0798    0.7838 C   0  0  0  0  0  0  0  0  0  0  0  0
   -3.2998   -0.9266    0.1537 H   0  0  0  0  0  0  0  0  0  0  0  0
   -1.9853   -1.9605   -0.4254 H   0  0  0  0  0  0  0  0  0  0  0  0
   -1.8893   -1.0926    1.2096 H   0  0  0  0  0  0  0  0  0  0  0  0
   -1.8559    0.0161   -1.6465 H   0  0  0  0  0  0  0  0  0  0  0  0
   -3.3260    1.4565   -0.7591 H   0  0  0  0  0  0  0  0  0  0  0  0
   -2.0280    2.4475    1.4521 H   0  0  0  0  0  0  0  0  0  0  0  0
   -2.6125    0.8532    1.8088 H   0  0  0  0  0  0  0  0  0  0  0  0
    0.0113    1.4044   -0.9514 H   0  0  0  0  0  0  0  0  0  0  0  0
   -0.0702   -0.2220    1.6122 H   0  0  0  0  0  0  0  0  0  0  0  0
    0.2455    1.5881    1.3788 H   0  0  0  0  0  0  0  0  0  0  0  0
    3.3778    0.7547   -0.3913 H   0  0  0  0  0  0  0  0  0  0  0  0
    2.0222    1.9415   -0.5445 H   0  0  0  0  0  0  0  0  0  0  0  0
    2.5205   -0.6957   -1.9087 H   0  0  0  0  0  0  0  0  0  0  0  0
    1.4371    0.7349   -2.3629 H   0  0  0  0  0  0  0  0  0  0  0  0
    1.3796   -2.5033   -0.7260 H   0  0  0  0  0  0  0  0  0  0  0  0
    0.2180   -2.0073    0.5201 H   0  0  0  0  0  0  0  0  0  0  0  0
    3.0568   -1.2247    0.2833 H   0  0  0  0  0  0  0  0  0  0  0  0
    2.0679   -1.5600    1.7820 H   0  0  0  0  0  0  0  0  0  0  0  0
  1  2  1  0
  2  3  1  0
  3  4  1  0
  2  5  1  0
  5  6  1  0
  6  7  1  0
  7  8  1  0
  8  9  1  0
  9 10  1  0
 10 11  1  0
 11 12  1  0
 10  5  1  0
 12  7  1  0
  1 13  1  0
  1 14  1  0
  1 15  1  0
  2 16  1  6
  3 17  1  0
  4 18  1  0
  4 19  1  0
  5 20  1  6
  6 21  1  0
  6 22  1  0
  8 23  1  0
  8 24  1  0
  9 25  1  0
  9 26  1  0
 11 27  1  0
 11 28  1  0
 12 29  1  0
 12 30  1  0
M  END
$$$$

     RDKit          3D

 30 31  0  0  0  0  0  0  0  0999 V2000
    2.1725   -1.5009    0.5818 C   0  0  0  0  0  0  0  0  0  0  0  0
    1.4160   -0.1897    0.5639 C   0  0  1  0  0  0  0  0  0  0  0  0
    2.2601    0.8190   -0.0243 N   0  0  0  0  0  0  0  0  0  0  0  0
    3.4417    1.0258    0.6557 N   0  0  0  0  0  0  0  0  0  0  0  0
    0.1846   -0.3082   -0.3041 C   0  0  1  0  0  0  0  0  0  0  0  0
   -0.7734   -1.3504    0.1496 C   0  0  0  0  0  0  0  0  0  0  0  0
   -2.1207   -0.8479    0.0219 N   0  0  0  0  0  0  0  0  0  0  0  0
   -2.3904   -0.2420   -1.2454 C   0  0  0  0  0  0  0  0  0  0  0  0
   -1.3613    0.8023   -1.6394 C   0  0  0  0  0  0  0  0  0  0  0  0
   -0.4799    0.9518   -0.4698 N   0  0  0  0  0  0  0  0  0  0  0  0
   -1.3238    1.3160    0.6434 C   0  0  0  0  0  0  0  0  0  0  0  0
   -2.2662    0.2015    1.0421 C   0  0  0  0  0  0  0  0  0  0  0  0
    2.1351   -1.9980    1.5788 H   0  0  0  0  0  0  0  0  0  0  0  0
    1.6926   -2.2134   -0.1233 H   0  0  0  0  0  0  0  0  0  0  0  0
    3.2247   -1.3878    0.2306 H   0  0  0  0  0  0  0  0  0  0  0  0
    1.1736    0.0561    1.6146 H   0  0  0  0  0  0  0  0  0  0  0  0
    2.3465    0.6820   -1.0389 H   0  0  0  0  0  0  0  0  0  0  0  0
    3.4232    2.0227    1.0115 H   0  0  0  0  0  0  0  0  0  0  0  0
    4.2552    1.0132   -0.0193 H   0  0  0  0  0  0  0  0  0  0  0  0
    0.5587   -0.6146   -1.3235 H   0  0  0  0  0  0  0  0  0  0  0  0
   -0.6652   -2.3241   -0.3700 H   0  0  0  0  0  0  0  0  0  0  0  0
   -0.6050   -1.5592    1.2323 H   0  0  0  0  0  0  0  0  0  0  0  0
   -2.4823   -0.9603   -2.0745 H   0  0  0  0  0  0  0  0  0  0  0  0
   -3.3646    0.3093   -1.1438 H   0  0  0  0  0  0  0  0  0  0  0  0
   -1.8021    1.7486   -1.9525 H   0  0  0  0  0  0  0  0  0  0  0  0
   -0.6908    0.4407   -2.4554 H   0  0  0  0  0  0  0  0  0  0  0  0
   -1.9574    2.1798    0.2866 H   0  0  0  0  0  0  0  0  0  0  0  0
   -0.7249    1.6725    1.4891 H   0  0  0  0  0  0  0  0  0  0  0  0
   -3.3206    0.5225    1.0872 H   0  0  0  0  0  0  0  0  0  0  0  0
   -1.9557   -0.2671    1.9952 H   0  0  0  0  0  0  0  0  0  0  0  0
  1  2  1  0
  2  3  1  0
  3  4  1  0
  2  5  1  0
  5  6  1  0
  6  7  1  0
  7  8  1  0
  8  9  1  0
  9 10  1  0
 10 11  1  0
 11 12  1  0
 10  5  1  0
 12  7  1  0
  1 13  1  0
  1 14  1  0
  1 15  1  0
  2 16  1  1
  3 17  1  0
  4 18  1  0
  4 19  1  0
  5 20  1  6
  6 21  1  0
  6 22  1  0
  8 23  1  0
  8 24  1  0
  9 25  1  0
  9 26  1  0
 11 27  1  0
 11 28  1  0
 12 29  1  0
 12 30  1  0
M  END
$$$$

     RDKit          3D

 30 31  0  0  0  0  0  0  0  0999 V2000
    2.0904   -1.4838   -0.8930 C   0  0  0  0  0  0  0  0  0  0  0  0
    1.3414   -0.7674    0.2115 C   0  0  1  0  0  0  0  0  0  0  0  0
    2.3267   -0.0593    1.0009 N   0  0  0  0  0  0  0  0  0  0  0  0
    2.9947    0.8511    0.1751 N   0  0  0  0  0  0  0  0  0  0  0  0
    0.3071    0.1704   -0.3700 C   0  0  1  0  0  0  0  0  0  0  0  0
   -0.6815   -0.5824   -1.1946 C   0  0  0  0  0  0  0  0  0  0  0  0
   -2.0177   -0.5269   -0.6031 N   0  0  0  0  0  0  0  0  0  0  0  0
   -2.4426    0.8613   -0.7222 C   0  0  0  0  0  0  0  0  0  0  0  0
   -1.4000    1.7218   -0.0528 C   0  0  0  0  0  0  0  0  0  0  0  0
   -0.3877    0.9205    0.6288 N   0  0  0  0  0  0  0  0  0  0  0  0
   -1.0829    0.0975    1.5866 C   0  0  0  0  0  0  0  0  0  0  0  0
   -1.9810   -0.8395    0.8150 C   0  0  0  0  0  0  0  0  0  0  0  0
    3.0944   -1.8359   -0.5267 H   0  0  0  0  0  0  0  0  0  0  0  0
    2.2786   -0.7943   -1.7158 H   0  0  0  0  0  0  0  0  0  0  0  0
    1.5568   -2.4089   -1.1960 H   0  0  0  0  0  0  0  0  0  0  0  0
    0.8766   -1.5591    0.8416 H   0  0  0  0  0  0  0  0  0  0  0  0
    1.9293    0.3814    1.8573 H   0  0  0  0  0  0  0  0  0  0  0  0
    3.7719    0.3820   -0.3464 H   0  0  0  0  0  0  0  0  0  0  0  0
    3.2839    1.7052    0.6815 H   0  0  0  0  0  0  0  0  0  0  0  0
    0.8752    0.9043   -0.9965 H   0  0  0  0  0  0  0  0  0  0  0  0
   -0.7721   -0.0700   -2.1884 H   0  0  0  0  0  0  0  0  0  0  0  0
   -0.4410   -1.6342   -1.3593 H   0  0  0  0  0  0  0  0  0  0  0  0
   -3.4582    1.0319   -0.3399 H   0  0  0  0  0  0  0  0  0  0  0  0
   -2.4759    1.0712   -1.8266 H   0  0  0  0  0  0  0  0  0  0  0  0
   -0.9187    2.4022   -0.7857 H   0  0  0  0  0  0  0  0  0  0  0  0
   -1.9404    2.3821    0.6803 H   0  0  0  0  0  0  0  0  0  0  0  0
   -1.6988    0.7662    2.2252 H   0  0  0  0  0  0  0  0  0  0  0  0
   -0.3898   -0.4404    2.2596 H   0  0  0  0  0  0  0  0  0  0  0  0
   -3.0223   -0.7735    1.1781 H   0  0  0  0  0  0  0  0  0  0  0  0
   -1.6163   -1.8734    0.9753 H   0  0  0  0  0  0  0  0  0  0  0  0
  1  2  1  0
  2  3  1  0
  3  4  1  0
  2  5  1  0
  5  6  1  0
  6  7  1  0
  7  8  1  0
  8  9  1  0
  9 10  1  0
 10 11  1  0
 11 12  1  0
 10  5  1  0
 12  7  1  0
  1 13  1  0
  1 14  1  0
  1 15  1  0
  2 16  1  1
  3 17  1  0
  4 18  1  0
  4 19  1  0
  5 20  1  6
  6 21  1  0
  6 22  1  0
  8 23  1  0
  8 24  1  0
  9 25  1  0
  9 26  1  0
 11 27  1  0
 11 28  1  0
 12 29  1  0
 12 30  1  0
M  END
$$$$

     RDKit          3D

 30 31  0  0  0  0  0  0  0  0999 V2000
    2.4082   -0.6850    0.8802 C   0  0  0  0  0  0  0  0  0  0  0  0
    1.5087    0.2919    0.1980 C   0  0  1  0  0  0  0  0  0  0  0  0
    2.0552    0.7242   -1.0791 N   0  0  0  0  0  0  0  0  0  0  0  0
    3.2780    1.3264   -0.8563 N   0  0  0  0  0  0  0  0  0  0  0  0
    0.1662   -0.3417   -0.0957 C   0  0  1  0  0  0  0  0  0  0  0  0
   -0.5460   -0.8092    1.1360 C   0  0  0  0  0  0  0  0  0  0  0  0
   -1.9970   -0.7679    0.8920 N   0  0  0  0  0  0  0  0  0  0  0  0
   -2.4606    0.6080    0.8436 C   0  0  0  0  0  0  0  0  0  0  0  0
   -1.3273    1.4306    0.2546 C   0  0  0  0  0  0  0  0  0  0  0  0
   -0.7036    0.6032   -0.7748 N   0  0  0  0  0  0  0  0  0  0  0  0
   -1.7412   -0.2104   -1.4273 C   0  0  0  0  0  0  0  0  0  0  0  0
   -2.1748   -1.3035   -0.4574 C   0  0  0  0  0  0  0  0  0  0  0  0
    3.4255   -0.6151    0.4388 H   0  0  0  0  0  0  0  0  0  0  0  0
    2.0473   -1.7181    0.7500 H   0  0  0  0  0  0  0  0  0  0  0  0
    2.4629   -0.4643    1.9690 H   0  0  0  0  0  0  0  0  0  0  0  0
    1.3747    1.2257    0.7995 H   0  0  0  0  0  0  0  0  0  0  0  0
    2.1428   -0.1404   -1.6865 H   0  0  0  0  0  0  0  0  0  0  0  0
    4.0967    0.7108   -0.9589 H   0  0  0  0  0  0  0  0  0  0  0  0
    3.2958    1.8034    0.0711 H   0  0  0  0  0  0  0  0  0  0  0  0
    0.3489   -1.1916   -0.7883 H   0  0  0  0  0  0  0  0  0  0  0  0
   -0.3078   -1.8799    1.2979 H   0  0  0  0  0  0  0  0  0  0  0  0
   -0.2840   -0.2498    2.0412 H   0  0  0  0  0  0  0  0  0  0  0  0
   -3.2995    0.6592    0.1227 H   0  0  0  0  0  0  0  0  0  0  0  0
   -2.8081    0.9838    1.8078 H   0  0  0  0  0  0  0  0  0  0  0  0
   -1.6872    2.3938   -0.1567 H   0  0  0  0  0  0  0  0  0  0  0  0
   -0.6101    1.6129    1.0669 H   0  0  0  0  0  0  0  0  0  0  0  0
   -1.2448   -0.6591   -2.3266 H   0  0  0  0  0  0  0  0  0  0  0  0
   -2.5679    0.4114   -1.7702 H   0  0  0  0  0  0  0  0  0  0  0  0
   -3.2602   -1.5141   -0.5581 H   0  0  0  0  0  0  0  0  0  0  0  0
   -1.5910   -2.2351   -0.5980 H   0  0  0  0  0  0  0  0  0  0  0  0
  1  2  1  0
  2  3  1  0
  3  4  1  0
  2  5  1  0
  5  6  1  0
  6  7  1  0
  7  8  1  0
  8  9  1  0
  9 10  1  0
 10 11  1  0
 11 12  1  0
 10  5  1  0
 12  7  1  0
  1 13  1  0
  1 14  1  0
  1 15  1  0
  2 16  1  1
  3 17  1  0
  4 18  1  0
  4 19  1  0
  5 20  1  6
  6 21  1  0
  6 22  1  0
  8 23  1  0
  8 24  1  0
  9 25  1  0
  9 26  1  0
 11 27  1  0
 11 28  1  0
 12 29  1  0
 12 30  1  0
M  END
$$$$

     RDKit          3D

 30 31  0  0  0  0  0  0  0  0999 V2000
   -2.3858   -1.3399   -0.1451 C   0  0  0  0  0  0  0  0  0  0  0  0
   -1.5516   -0.0923   -0.4796 C   0  0  1  0  0  0  0  0  0  0  0  0
   -2.3502    1.0248   -0.1106 N   0  0  0  0  0  0  0  0  0  0  0  0
   -2.7194    1.1143    1.1916 N   0  0  0  0  0  0  0  0  0  0  0  0
   -0.2335   -0.1553    0.2154 C   0  0  1  0  0  0  0  0  0  0  0  0
    0.6090   -1.3420   -0.1517 C   0  0  0  0  0  0  0  0  0  0  0  0
    2.0372   -1.0374   -0.0558 N   0  0  0  0  0  0  0  0  0  0  0  0
    2.4255   -0.1608   -1.1742 C   0  0  0  0  0  0  0  0  0  0  0  0
    1.2207    0.7727   -1.3640 C   0  0  0  0  0  0  0  0  0  0  0  0
    0.5705    1.0172   -0.0829 N   0  0  0  0  0  0  0  0  0  0  0  0
    1.5637    1.0673    0.9915 C   0  0  0  0  0  0  0  0  0  0  0  0
    2.3035   -0.2311    1.1418 C   0  0  0  0  0  0  0  0  0  0  0  0
   -2.3309   -1.4730    0.9416 H   0  0  0  0  0  0  0  0  0  0  0  0
   -3.4540   -1.1315   -0.4481 H   0  0  0  0  0  0  0  0  0  0  0  0
   -2.0588   -2.1967   -0.7355 H   0  0  0  0  0  0  0  0  0  0  0  0
   -1.4258   -0.1107   -1.5749 H   0  0  0  0  0  0  0  0  0  0  0  0
   -2.9486    1.4271   -0.8185 H   0  0  0  0  0  0  0  0  0  0  0  0
   -2.5348    2.0496    1.6097 H   0  0  0  0  0  0  0  0  0  0  0  0
   -3.7631    0.9159    1.2607 H   0  0  0  0  0  0  0  0  0  0  0  0
   -0.4198   -0.2322    1.3265 H   0  0  0  0  0  0  0  0  0  0  0  0
    0.4447   -2.2077    0.5264 H   0  0  0  0  0  0  0  0  0  0  0  0
    0.4094   -1.6503   -1.1773 H   0  0  0  0  0  0  0  0  0  0  0  0
    2.6002   -0.7762   -2.0748 H   0  0  0  0  0  0  0  0  0  0  0  0
    3.2973    0.4339   -0.8940 H   0  0  0  0  0  0  0  0  0  0  0  0
    1.5049    1.6959   -1.8830 H   0  0  0  0  0  0  0  0  0  0  0  0
    0.5256    0.2065   -2.0148 H   0  0  0  0  0  0  0  0  0  0  0  0
    2.2244    1.9485    0.9058 H   0  0  0  0  0  0  0  0  0  0  0  0
    0.9691    1.2157    1.9337 H   0  0  0  0  0  0  0  0  0  0  0  0
    2.0710   -0.7719    2.0679 H   0  0  0  0  0  0  0  0  0  0  0  0
    3.3998    0.0198    1.0721 H   0  0  0  0  0  0  0  0  0  0  0  0
  1  2  1  0
  2  3  1  0
  3  4  1  0
  2  5  1  0
  5  6  1  0
  6  7  1  0
  7  8  1  0
  8  9  1  0
  9 10  1  0
 10 11  1  0
 11 12  1  0
 10  5  1  0
 12  7  1  0
  1 13  1  0
  1 14  1  0
  1 15  1  0
  2 16  1  6
  3 17  1  0
  4 18  1  0
  4 19  1  0
  5 20  1  1
  6 21  1  0
  6 22  1  0
  8 23  1  0
  8 24  1  0
  9 25  1  0
  9 26  1  0
 11 27  1  0
 11 28  1  0
 12 29  1  0
 12 30  1  0
M  END
$$$$

     RDKit          3D

 30 31  0  0  0  0  0  0  0  0999 V2000
    2.3165    1.0258   -1.2963 C   0  0  0  0  0  0  0  0  0  0  0  0
    1.4943   -0.1082   -0.8031 C   0  0  1  0  0  0  0  0  0  0  0  0
    2.3585   -1.0155   -0.0713 N   0  0  0  0  0  0  0  0  0  0  0  0
    2.9667   -0.3908    1.0221 N   0  0  0  0  0  0  0  0  0  0  0  0
    0.3212    0.2705    0.0219 C   0  0  1  0  0  0  0  0  0  0  0  0
   -0.6841    1.1367   -0.6377 C   0  0  0  0  0  0  0  0  0  0  0  0
   -2.0534    0.8291   -0.1941 N   0  0  0  0  0  0  0  0  0  0  0  0
   -2.3726   -0.4571   -0.8173 C   0  0  0  0  0  0  0  0  0  0  0  0
   -1.2598   -1.4010   -0.4896 C   0  0  0  0  0  0  0  0  0  0  0  0
   -0.3617   -0.9035    0.5326 N   0  0  0  0  0  0  0  0  0  0  0  0
   -1.1034   -0.4317    1.7047 C   0  0  0  0  0  0  0  0  0  0  0  0
   -2.1002    0.5931    1.2333 C   0  0  0  0  0  0  0  0  0  0  0  0
    1.9503    1.4015   -2.2866 H   0  0  0  0  0  0  0  0  0  0  0  0
    2.4114    1.8614   -0.5779 H   0  0  0  0  0  0  0  0  0  0  0  0
    3.3447    0.6545   -1.4887 H   0  0  0  0  0  0  0  0  0  0  0  0
    1.1578   -0.6882   -1.7117 H   0  0  0  0  0  0  0  0  0  0  0  0
    1.7618   -1.7844    0.3026 H   0  0  0  0  0  0  0  0  0  0  0  0
    2.5529   -0.6681    1.9348 H   0  0  0  0  0  0  0  0  0  0  0  0
    3.0787    0.6279    0.9040 H   0  0  0  0  0  0  0  0  0  0  0  0
    0.7098    0.8255    0.9225 H   0  0  0  0  0  0  0  0  0  0  0  0
   -0.5241    2.2227   -0.4779 H   0  0  0  0  0  0  0  0  0  0  0  0
   -0.6738    0.9328   -1.7350 H   0  0  0  0  0  0  0  0  0  0  0  0
   -2.5298   -0.3092   -1.8984 H   0  0  0  0  0  0  0  0  0  0  0  0
   -3.3455   -0.8028   -0.3608 H   0  0  0  0  0  0  0  0  0  0  0  0
   -0.6576   -1.5555   -1.4068 H   0  0  0  0  0  0  0  0  0  0  0  0
   -1.7062   -2.3740   -0.2087 H   0  0  0  0  0  0  0  0  0  0  0  0
   -0.3557    0.0612    2.3597 H   0  0  0  0  0  0  0  0  0  0  0  0
   -1.5548   -1.2684    2.2608 H   0  0  0  0  0  0  0  0  0  0  0  0
   -3.1112    0.1798    1.4483 H   0  0  0  0  0  0  0  0  0  0  0  0
   -2.0311    1.5358    1.8146 H   0  0  0  0  0  0  0  0  0  0  0  0
  1  2  1  0
  2  3  1  0
  3  4  1  0
  2  5  1  0
  5  6  1  0
  6  7  1  0
  7  8  1  0
  8  9  1  0
  9 10  1  0
 10 11  1  0
 11 12  1  0
 10  5  1  0
 12  7  1  0
  1 13  1  0
  1 14  1  0
  1 15  1  0
  2 16  1  6
  3 17  1  0
  4 18  1  0
  4 19  1  0
  5 20  1  1
  6 21  1  0
  6 22  1  0
  8 23  1  0
  8 24  1  0
  9 25  1  0
  9 26  1  0
 11 27  1  0
 11 28  1  0
 12 29  1  0
 12 30  1  0
M  END
$$$$

     RDKit          3D

 30 31  0  0  0  0  0  0  0  0999 V2000
    1.7478   -0.8730   -1.4256 C   0  0  0  0  0  0  0  0  0  0  0  0
    1.6260   -0.6633    0.0291 C   0  0  1  0  0  0  0  0  0  0  0  0
    2.7373    0.1535    0.4825 N   0  0  0  0  0  0  0  0  0  0  0  0
    2.7804    1.3933   -0.1229 N   0  0  0  0  0  0  0  0  0  0  0  0
    0.3125   -0.1706    0.5320 C   0  0  1  0  0  0  0  0  0  0  0  0
   -0.1517    1.1306    0.0137 C   0  0  0  0  0  0  0  0  0  0  0  0
   -1.6169    1.1987    0.1477 N   0  0  0  0  0  0  0  0  0  0  0  0
   -2.0645    0.5637    1.3642 C   0  0  0  0  0  0  0  0  0  0  0  0
   -1.7007   -0.8978    1.4498 C   0  0  0  0  0  0  0  0  0  0  0  0
   -0.7475   -1.1433    0.3549 N   0  0  0  0  0  0  0  0  0  0  0  0
   -1.4841   -0.9434   -0.8848 C   0  0  0  0  0  0  0  0  0  0  0  0
   -2.1452    0.4074   -0.9495 C   0  0  0  0  0  0  0  0  0  0  0  0
    2.8521   -0.8781   -1.6753 H   0  0  0  0  0  0  0  0  0  0  0  0
    1.3273   -0.0750   -2.0652 H   0  0  0  0  0  0  0  0  0  0  0  0
    1.4085   -1.8967   -1.7222 H   0  0  0  0  0  0  0  0  0  0  0  0
    1.7909   -1.6692    0.5237 H   0  0  0  0  0  0  0  0  0  0  0  0
    2.8242    0.1850    1.5081 H   0  0  0  0  0  0  0  0  0  0  0  0
    3.4836    1.9709    0.3912 H   0  0  0  0  0  0  0  0  0  0  0  0
    3.0467    1.2937   -1.1348 H   0  0  0  0  0  0  0  0  0  0  0  0
    0.4474   -0.0482    1.6512 H   0  0  0  0  0  0  0  0  0  0  0  0
    0.2808    2.0137    0.5646 H   0  0  0  0  0  0  0  0  0  0  0  0
    0.0374    1.3222   -1.0548 H   0  0  0  0  0  0  0  0  0  0  0  0
   -1.7481    1.1280    2.2738 H   0  0  0  0  0  0  0  0  0  0  0  0
   -3.1737    0.6165    1.3534 H   0  0  0  0  0  0  0  0  0  0  0  0
   -2.5463   -1.5773    1.3916 H   0  0  0  0  0  0  0  0  0  0  0  0
   -1.0854   -1.0305    2.3862 H   0  0  0  0  0  0  0  0  0  0  0  0
   -2.2581   -1.7564   -0.8980 H   0  0  0  0  0  0  0  0  0  0  0  0
   -0.8355   -1.0569   -1.7522 H   0  0  0  0  0  0  0  0  0  0  0  0
   -3.2510    0.3431   -0.8526 H   0  0  0  0  0  0  0  0  0  0  0  0
   -1.8942    0.9596   -1.8799 H   0  0  0  0  0  0  0  0  0  0  0  0
  1  2  1  0
  2  3  1  0
  3  4  1  0
  2  5  1  0
  5  6  1  0
  6  7  1  0
  7  8  1  0
  8  9  1  0
  9 10  1  0
 10 11  1  0
 11 12  1  0
 10  5  1  0
 12  7  1  0
  1 13  1  0
  1 14  1  0
  1 15  1  0
  2 16  1  1
  3 17  1  0
  4 18  1  0
  4 19  1  0
  5 20  1  1
  6 21  1  0
  6 22  1  0
  8 23  1  0
  8 24  1  0
  9 25  1  0
  9 26  1  0
 11 27  1  0
 11 28  1  0
 12 29  1  0
 12 30  1  0
M  END
$$$$
