
     RDKit          3D

 30 29  0  0  0  0  0  0  0  0999 V2000
   -0.9413   -2.0165   -0.2875 C   0  0  0  0  0  0  0  0  0  0  0  0
   -1.5576   -0.6656   -0.1046 C   0  0  0  0  0  0  0  0  0  0  0  0
   -2.2219   -0.5364    1.2647 C   0  0  0  0  0  0  0  0  0  0  0  0
   -0.7194    0.5175   -0.4306 C   0  0  2  0  0  0  0  0  0  0  0  0
    0.4517    0.7727    0.2438 N   0  0  0  0  0  0  0  0  0  0  0  0
    1.6001    0.0272    0.2931 C   0  0  2  0  0  0  0  0  0  0  0  0
    2.6835    0.9518    0.9273 C   0  0  0  0  0  0  0  0  0  0  0  0
    2.2402   -0.3380   -1.0188 C   0  0  0  0  0  0  0  0  0  0  0  0
    3.4292   -1.1158   -0.9089 N   0  0  0  0  0  0  0  0  0  0  0  0
    1.7629    0.0150   -2.1135 O   0  0  0  0  0  0  0  0  0  0  0  0
   -1.6277    1.7164   -0.2319 C   0  0  0  0  0  0  0  0  0  0  0  0
   -2.9113    1.7648   -0.8019 N   0  0  0  0  0  0  0  0  0  0  0  0
   -1.1878    2.6582    0.4593 O   0  0  0  0  0  0  0  0  0  0  0  0
    0.1304   -2.0922   -0.2423 H   0  0  0  0  0  0  0  0  0  0  0  0
   -1.2818   -2.4269   -1.2792 H   0  0  0  0  0  0  0  0  0  0  0  0
   -1.3385   -2.6807    0.5231 H   0  0  0  0  0  0  0  0  0  0  0  0
   -2.4379   -0.6351   -0.8219 H   0  0  0  0  0  0  0  0  0  0  0  0
   -3.3277   -0.5797    1.2136 H   0  0  0  0  0  0  0  0  0  0  0  0
   -1.9684    0.4319    1.7537 H   0  0  0  0  0  0  0  0  0  0  0  0
   -1.9021   -1.4135    1.8707 H   0  0  0  0  0  0  0  0  0  0  0  0
   -0.5969    0.5086   -1.5734 H   0  0  0  0  0  0  0  0  0  0  0  0
    0.4401    1.6303    0.8293 H   0  0  0  0  0  0  0  0  0  0  0  0
    1.6024   -0.8316    0.9931 H   0  0  0  0  0  0  0  0  0  0  0  0
    2.1753    1.5529    1.7224 H   0  0  0  0  0  0  0  0  0  0  0  0
    3.5009    0.3448    1.3087 H   0  0  0  0  0  0  0  0  0  0  0  0
    2.9782    1.6805    0.1388 H   0  0  0  0  0  0  0  0  0  0  0  0
    4.3257   -0.7785   -1.3437 H   0  0  0  0  0  0  0  0  0  0  0  0
    3.4861   -2.0274   -0.4143 H   0  0  0  0  0  0  0  0  0  0  0  0
   -3.7242    1.7667   -0.1473 H   0  0  0  0  0  0  0  0  0  0  0  0
   -3.0625    1.7986   -1.8218 H   0  0  0  0  0  0  0  0  0  0  0  0
  1  2  1  0
  2  3  1  0
  2  4  1  0
  4  5  1  0
  5  6  1  0
  6  7  1  0
  6  8  1  0
  8  9  1  0
  8 10  2  0
  4 11  1  0
 11 12  1  0
 11 13  2  0
  1 14  1  0
  1 15  1  0
  1 16  1  0
  2 17  1  0
  3 18  1  0
  3 19  1  0
  3 20  1  0
  4 21  1  6
  5 22  1  0
  6 23  1  1
  7 24  1  0
  7 25  1  0
  7 26  1  0
  9 27  1  0
  9 28  1  0
 12 29  1  0
 12 30  1  0
M  END
$$$$

     RDKit          3D

 30 29  0  0  0  0  0  0  0  0999 V2000
   -2.3085   -0.1276   -1.3163 C   0  0  0  0  0  0  0  0  0  0  0  0
   -1.0514   -0.5147   -0.5200 C   0  0  0  0  0  0  0  0  0  0  0  0
   -1.5376   -1.5327    0.5068 C   0  0  0  0  0  0  0  0  0  0  0  0
   -0.4929    0.6739    0.1917 C   0  0  2  0  0  0  0  0  0  0  0  0
    0.6768    0.5252    0.9377 N   0  0  0  0  0  0  0  0  0  0  0  0
    1.9201    0.2396    0.4027 C   0  0  2  0  0  0  0  0  0  0  0  0
    2.4579    1.2363   -0.5991 C   0  0  0  0  0  0  0  0  0  0  0  0
    2.2559   -1.1512    0.0822 C   0  0  0  0  0  0  0  0  0  0  0  0
    3.5039   -1.5046   -0.5520 N   0  0  0  0  0  0  0  0  0  0  0  0
    1.5141   -2.1412    0.3220 O   0  0  0  0  0  0  0  0  0  0  0  0
   -1.5671    1.1391    1.1481 C   0  0  0  0  0  0  0  0  0  0  0  0
   -2.8769    1.4770    0.7607 N   0  0  0  0  0  0  0  0  0  0  0  0
   -1.3270    1.2534    2.3983 O   0  0  0  0  0  0  0  0  0  0  0  0
   -3.1848   -0.5962   -0.8735 H   0  0  0  0  0  0  0  0  0  0  0  0
   -2.1769   -0.5563   -2.3567 H   0  0  0  0  0  0  0  0  0  0  0  0
   -2.3698    0.9660   -1.4688 H   0  0  0  0  0  0  0  0  0  0  0  0
   -0.3860   -1.0202   -1.2078 H   0  0  0  0  0  0  0  0  0  0  0  0
   -0.9162   -1.5200    1.4205 H   0  0  0  0  0  0  0  0  0  0  0  0
   -2.5978   -1.3872    0.7796 H   0  0  0  0  0  0  0  0  0  0  0  0
   -1.4476   -2.5353    0.0458 H   0  0  0  0  0  0  0  0  0  0  0  0
   -0.4031    1.5520   -0.5107 H   0  0  0  0  0  0  0  0  0  0  0  0
    0.5475    0.4946    1.9594 H   0  0  0  0  0  0  0  0  0  0  0  0
    2.6609    0.4501    1.3023 H   0  0  0  0  0  0  0  0  0  0  0  0
    2.1341    1.0773   -1.6214 H   0  0  0  0  0  0  0  0  0  0  0  0
    2.1945    2.2618   -0.2653 H   0  0  0  0  0  0  0  0  0  0  0  0
    3.5595    1.1646   -0.5817 H   0  0  0  0  0  0  0  0  0  0  0  0
    4.1205   -0.7522   -0.9047 H   0  0  0  0  0  0  0  0  0  0  0  0
    3.8089   -2.4882   -0.6673 H   0  0  0  0  0  0  0  0  0  0  0  0
   -3.7154    0.8937    0.8909 H   0  0  0  0  0  0  0  0  0  0  0  0
   -2.9954    2.4230    0.2964 H   0  0  0  0  0  0  0  0  0  0  0  0
  1  2  1  0
  2  3  1  0
  2  4  1  0
  4  5  1  0
  5  6  1  0
  6  7  1  0
  6  8  1  0
  8  9  1  0
  8 10  2  0
  4 11  1  0
 11 12  1  0
 11 13  2  0
  1 14  1  0
  1 15  1  0
  1 16  1  0
  2 17  1  0
  3 18  1  0
  3 19  1  0
  3 20  1  0
  4 21  1  6
  5 22  1  0
  6 23  1  1
  7 24  1  0
  7 25  1  0
  7 26  1  0
  9 27  1  0
  9 28  1  0
 12 29  1  0
 12 30  1  0
M  END
$$$$

     RDKit          3D

 30 29  0  0  0  0  0  0  0  0999 V2000
   -3.1034   -0.1991   -0.7849 C   0  0  0  0  0  0  0  0  0  0  0  0
   -1.9587   -0.5702    0.1198 C   0  0  0  0  0  0  0  0  0  0  0  0
   -1.8793   -1.9654    0.5924 C   0  0  0  0  0  0  0  0  0  0  0  0
   -0.7004    0.0244   -0.4173 C   0  0  2  0  0  0  0  0  0  0  0  0
    0.5078   -0.3684    0.1748 N   0  0  0  0  0  0  0  0  0  0  0  0
    1.6950    0.3553    0.0097 C   0  0  2  0  0  0  0  0  0  0  0  0
    2.1735    0.4710   -1.4506 C   0  0  0  0  0  0  0  0  0  0  0  0
    2.7663   -0.5860    0.5982 C   0  0  0  0  0  0  0  0  0  0  0  0
    3.8824   -0.0177    1.3069 N   0  0  0  0  0  0  0  0  0  0  0  0
    2.6080   -1.7871    0.4150 O   0  0  0  0  0  0  0  0  0  0  0  0
   -0.8860    1.5282   -0.2451 C   0  0  0  0  0  0  0  0  0  0  0  0
   -1.1829    2.0654    1.0015 N   0  0  0  0  0  0  0  0  0  0  0  0
   -0.7420    2.2678   -1.2718 O   0  0  0  0  0  0  0  0  0  0  0  0
   -3.8291    0.5408   -0.4249 H   0  0  0  0  0  0  0  0  0  0  0  0
   -3.6699   -1.1131   -1.1113 H   0  0  0  0  0  0  0  0  0  0  0  0
   -2.6919    0.1736   -1.7971 H   0  0  0  0  0  0  0  0  0  0  0  0
   -2.2320    0.0214    1.0938 H   0  0  0  0  0  0  0  0  0  0  0  0
   -0.9449   -2.1180    1.2318 H   0  0  0  0  0  0  0  0  0  0  0  0
   -2.0203   -2.7881   -0.1253 H   0  0  0  0  0  0  0  0  0  0  0  0
   -2.6800   -2.1518    1.3892 H   0  0  0  0  0  0  0  0  0  0  0  0
   -0.6416   -0.1364   -1.5340 H   0  0  0  0  0  0  0  0  0  0  0  0
    0.6475   -1.3822    0.0191 H   0  0  0  0  0  0  0  0  0  0  0  0
    1.8487    1.2999    0.4935 H   0  0  0  0  0  0  0  0  0  0  0  0
    2.3034   -0.5477   -1.8960 H   0  0  0  0  0  0  0  0  0  0  0  0
    1.5749    1.1289   -2.0586 H   0  0  0  0  0  0  0  0  0  0  0  0
    3.1810    0.8881   -1.3833 H   0  0  0  0  0  0  0  0  0  0  0  0
    4.7964   -0.4560    1.1540 H   0  0  0  0  0  0  0  0  0  0  0  0
    3.6718    0.7667    1.9250 H   0  0  0  0  0  0  0  0  0  0  0  0
   -0.8317    3.0580    1.1960 H   0  0  0  0  0  0  0  0  0  0  0  0
   -1.6628    1.5978    1.7795 H   0  0  0  0  0  0  0  0  0  0  0  0
  1  2  1  0
  2  3  1  0
  2  4  1  0
  4  5  1  0
  5  6  1  0
  6  7  1  0
  6  8  1  0
  8  9  1  0
  8 10  2  0
  4 11  1  0
 11 12  1  0
 11 13  2  0
  1 14  1  0
  1 15  1  0
  1 16  1  0
  2 17  1  0
  3 18  1  0
  3 19  1  0
  3 20  1  0
  4 21  1  6
  5 22  1  0
  6 23  1  1
  7 24  1  0
  7 25  1  0
  7 26  1  0
  9 27  1  0
  9 28  1  0
 12 29  1  0
 12 30  1  0
M  END
$$$$

     RDKit          3D

 30 29  0  0  0  0  0  0  0  0999 V2000
   -3.1583   -0.6100   -0.3877 C   0  0  0  0  0  0  0  0  0  0  0  0
   -1.7837   -0.6513    0.2416 C   0  0  0  0  0  0  0  0  0  0  0  0
   -1.8866    0.0771    1.5934 C   0  0  0  0  0  0  0  0  0  0  0  0
   -0.7311   -0.0585   -0.6255 C   0  0  2  0  0  0  0  0  0  0  0  0
    0.5433   -0.3314    0.0315 N   0  0  0  0  0  0  0  0  0  0  0  0
    1.7438    0.0443   -0.5880 C   0  0  2  0  0  0  0  0  0  0  0  0
    2.3634   -0.9087   -1.5043 C   0  0  0  0  0  0  0  0  0  0  0  0
    2.6612    0.4042    0.5521 C   0  0  0  0  0  0  0  0  0  0  0  0
    2.8820   -0.8009    1.3733 N   0  0  0  0  0  0  0  0  0  0  0  0
    3.1727    1.4700    0.7938 O   0  0  0  0  0  0  0  0  0  0  0  0
   -0.7291    1.4450   -0.7705 C   0  0  0  0  0  0  0  0  0  0  0  0
   -0.5324    2.4327    0.1658 N   0  0  0  0  0  0  0  0  0  0  0  0
   -0.8879    1.8750   -1.9950 O   0  0  0  0  0  0  0  0  0  0  0  0
   -3.3340   -1.6665   -0.8068 H   0  0  0  0  0  0  0  0  0  0  0  0
   -3.9143   -0.5104    0.3905 H   0  0  0  0  0  0  0  0  0  0  0  0
   -3.1950    0.1140   -1.1880 H   0  0  0  0  0  0  0  0  0  0  0  0
   -1.4996   -1.6806    0.4800 H   0  0  0  0  0  0  0  0  0  0  0  0
   -0.9180    0.1745    2.0625 H   0  0  0  0  0  0  0  0  0  0  0  0
   -2.4587    1.0117    1.5271 H   0  0  0  0  0  0  0  0  0  0  0  0
   -2.5142   -0.6062    2.2291 H   0  0  0  0  0  0  0  0  0  0  0  0
   -0.7549   -0.5298   -1.6038 H   0  0  0  0  0  0  0  0  0  0  0  0
    0.5027   -1.4341    0.1139 H   0  0  0  0  0  0  0  0  0  0  0  0
    1.5650    1.0226   -1.1929 H   0  0  0  0  0  0  0  0  0  0  0  0
    2.1370   -0.8054   -2.5594 H   0  0  0  0  0  0  0  0  0  0  0  0
    2.1489   -1.9561   -1.1424 H   0  0  0  0  0  0  0  0  0  0  0  0
    3.5099   -0.8559   -1.3882 H   0  0  0  0  0  0  0  0  0  0  0  0
    2.0366   -1.1398    1.8805 H   0  0  0  0  0  0  0  0  0  0  0  0
    3.7464   -1.2769    1.3805 H   0  0  0  0  0  0  0  0  0  0  0  0
    0.3925    3.0031    0.0370 H   0  0  0  0  0  0  0  0  0  0  0  0
   -1.1074    2.7479    0.9000 H   0  0  0  0  0  0  0  0  0  0  0  0
  1  2  1  0
  2  3  1  0
  2  4  1  0
  4  5  1  0
  5  6  1  0
  6  7  1  0
  6  8  1  0
  8  9  1  0
  8 10  2  0
  4 11  1  0
 11 12  1  0
 11 13  2  0
  1 14  1  0
  1 15  1  0
  1 16  1  0
  2 17  1  0
  3 18  1  0
  3 19  1  0
  3 20  1  0
  4 21  1  6
  5 22  1  0
  6 23  1  6
  7 24  1  0
  7 25  1  0
  7 26  1  0
  9 27  1  0
  9 28  1  0
 12 29  1  0
 12 30  1  0
M  END
$$$$

     RDKit          3D

 30 29  0  0  0  0  0  0  0  0999 V2000
   -1.4008   -1.8128   -0.4881 C   0  0  0  0  0  0  0  0  0  0  0  0
   -1.7086   -0.4287    0.0003 C   0  0  0  0  0  0  0  0  0  0  0  0
   -2.8316    0.0809   -0.9324 C   0  0  0  0  0  0  0  0  0  0  0  0
   -0.5722    0.5246   -0.0037 C   0  0  2  0  0  0  0  0  0  0  0  0
    0.5512    0.1529    0.7413 N   0  0  0  0  0  0  0  0  0  0  0  0
    1.6397   -0.4098    0.0492 C   0  0  2  0  0  0  0  0  0  0  0  0
    2.1826   -1.6728    0.6757 C   0  0  0  0  0  0  0  0  0  0  0  0
    2.7911    0.5851    0.1769 C   0  0  0  0  0  0  0  0  0  0  0  0
    3.8316    0.6203   -0.7385 N   0  0  0  0  0  0  0  0  0  0  0  0
    2.7219    1.3731    1.1614 O   0  0  0  0  0  0  0  0  0  0  0  0
   -0.9768    1.8712    0.5219 C   0  0  0  0  0  0  0  0  0  0  0  0
   -2.3019    2.2552    0.7767 N   0  0  0  0  0  0  0  0  0  0  0  0
   -0.0718    2.7322    0.7552 O   0  0  0  0  0  0  0  0  0  0  0  0
   -0.3902   -2.1328   -0.3295 H   0  0  0  0  0  0  0  0  0  0  0  0
   -2.1147   -2.5249    0.0363 H   0  0  0  0  0  0  0  0  0  0  0  0
   -1.6706   -1.9292   -1.5569 H   0  0  0  0  0  0  0  0  0  0  0  0
   -2.1373   -0.5210    1.0055 H   0  0  0  0  0  0  0  0  0  0  0  0
   -3.3099   -0.8083   -1.4296 H   0  0  0  0  0  0  0  0  0  0  0  0
   -2.4311    0.7604   -1.6924 H   0  0  0  0  0  0  0  0  0  0  0  0
   -3.6169    0.5372   -0.3215 H   0  0  0  0  0  0  0  0  0  0  0  0
   -0.2392    0.6997   -1.1215 H   0  0  0  0  0  0  0  0  0  0  0  0
    0.7581    0.5549    1.6336 H   0  0  0  0  0  0  0  0  0  0  0  0
    1.4694   -0.5302   -1.0407 H   0  0  0  0  0  0  0  0  0  0  0  0
    3.2774   -1.6858    0.6950 H   0  0  0  0  0  0  0  0  0  0  0  0
    1.8781   -2.5771    0.1025 H   0  0  0  0  0  0  0  0  0  0  0  0
    1.8219   -1.8054    1.7034 H   0  0  0  0  0  0  0  0  0  0  0  0
    3.6277    0.7835   -1.7516 H   0  0  0  0  0  0  0  0  0  0  0  0
    4.8433    0.5039   -0.4285 H   0  0  0  0  0  0  0  0  0  0  0  0
   -2.7340    2.0977    1.7460 H   0  0  0  0  0  0  0  0  0  0  0  0
   -2.8867    2.7058    0.0538 H   0  0  0  0  0  0  0  0  0  0  0  0
  1  2  1  0
  2  3  1  0
  2  4  1  0
  4  5  1  0
  5  6  1  0
  6  7  1  0
  6  8  1  0
  8  9  1  0
  8 10  2  0
  4 11  1  0
 11 12  1  0
 11 13  2  0
  1 14  1  0
  1 15  1  0
  1 16  1  0
  2 17  1  0
  3 18  1  0
  3 19  1  0
  3 20  1  0
  4 21  1  6
  5 22  1  0
  6 23  1  6
  7 24  1  0
  7 25  1  0
  7 26  1  0
  9 27  1  0
  9 28  1  0
 12 29  1  0
 12 30  1  0
M  END
$$$$

     RDKit          3D

 30 29  0  0  0  0  0  0  0  0999 V2000
    2.3133    1.6084   -0.2779 C   0  0  0  0  0  0  0  0  0  0  0  0
    1.2711    0.7970    0.4332 C   0  0  0  0  0  0  0  0  0  0  0  0
    1.9450    0.0262    1.5707 C   0  0  0  0  0  0  0  0  0  0  0  0
    0.6019   -0.1613   -0.5641 C   0  0  2  0  0  0  0  0  0  0  0  0
   -0.4341   -0.8925    0.1330 N   0  0  0  0  0  0  0  0  0  0  0  0
   -1.5966   -0.1435    0.4586 C   0  0  2  0  0  0  0  0  0  0  0  0
   -2.7969   -1.1361    0.3588 C   0  0  0  0  0  0  0  0  0  0  0  0
   -1.9720    0.9441   -0.4818 C   0  0  0  0  0  0  0  0  0  0  0  0
   -2.5872    2.1127    0.1151 N   0  0  0  0  0  0  0  0  0  0  0  0
   -1.8512    0.9141   -1.6588 O   0  0  0  0  0  0  0  0  0  0  0  0
    1.6018   -1.2163   -0.9396 C   0  0  0  0  0  0  0  0  0  0  0  0
    1.0394   -2.4518   -1.4639 N   0  0  0  0  0  0  0  0  0  0  0  0
    2.8218   -1.1449   -0.8455 O   0  0  0  0  0  0  0  0  0  0  0  0
    1.9903    2.6919   -0.3623 H   0  0  0  0  0  0  0  0  0  0  0  0
    2.5102    1.2685   -1.3007 H   0  0  0  0  0  0  0  0  0  0  0  0
    3.2846    1.6663    0.2495 H   0  0  0  0  0  0  0  0  0  0  0  0
    0.5044    1.3988    0.8956 H   0  0  0  0  0  0  0  0  0  0  0  0
    2.8180    0.6375    1.9309 H   0  0  0  0  0  0  0  0  0  0  0  0
    2.3529   -0.9347    1.2668 H   0  0  0  0  0  0  0  0  0  0  0  0
    1.2709   -0.0725    2.4330 H   0  0  0  0  0  0  0  0  0  0  0  0
    0.2737    0.4115   -1.3776 H   0  0  0  0  0  0  0  0  0  0  0  0
   -0.6875   -1.7050   -0.5062 H   0  0  0  0  0  0  0  0  0  0  0  0
   -1.5900    0.2215    1.4639 H   0  0  0  0  0  0  0  0  0  0  0  0
   -2.5270   -2.1037    0.7850 H   0  0  0  0  0  0  0  0  0  0  0  0
   -3.0325   -1.2610   -0.7342 H   0  0  0  0  0  0  0  0  0  0  0  0
   -3.6738   -0.6855    0.8508 H   0  0  0  0  0  0  0  0  0  0  0  0
   -1.9623    2.8294    0.5342 H   0  0  0  0  0  0  0  0  0  0  0  0
   -3.6096    2.1954    0.0941 H   0  0  0  0  0  0  0  0  0  0  0  0
    0.7524   -2.6366   -2.3970 H   0  0  0  0  0  0  0  0  0  0  0  0
    0.9691   -3.1782   -0.6636 H   0  0  0  0  0  0  0  0  0  0  0  0
  1  2  1  0
  2  3  1  0
  2  4  1  0
  4  5  1  0
  5  6  1  0
  6  7  1  0
  6  8  1  0
  8  9  1  0
  8 10  2  0
  4 11  1  0
 11 12  1  0
 11 13  2  0
  1 14  1  0
  1 15  1  0
  1 16  1  0
  2 17  1  0
  3 18  1  0
  3 19  1  0
  3 20  1  0
  4 21  1  6
  5 22  1  0
  6 23  1  1
  7 24  1  0
  7 25  1  0
  7 26  1  0
  9 27  1  0
  9 28  1  0
 12 29  1  0
 12 30  1  0
M  END
$$$$

     RDKit          3D

 30 29  0  0  0  0  0  0  0  0999 V2000
   -1.8074    1.9321   -0.1266 C   0  0  0  0  0  0  0  0  0  0  0  0
   -2.0219    0.4362   -0.0183 C   0  0  0  0  0  0  0  0  0  0  0  0
   -2.3780   -0.0532   -1.3821 C   0  0  0  0  0  0  0  0  0  0  0  0
   -0.7013   -0.1513    0.4960 C   0  0  2  0  0  0  0  0  0  0  0  0
    0.3540    0.1204   -0.3752 N   0  0  0  0  0  0  0  0  0  0  0  0
    1.6565   -0.2519   -0.0302 C   0  0  2  0  0  0  0  0  0  0  0  0
    2.2065    0.4206    1.2155 C   0  0  0  0  0  0  0  0  0  0  0  0
    2.5741    0.0958   -1.1331 C   0  0  0  0  0  0  0  0  0  0  0  0
    3.9503   -0.1886   -1.0023 N   0  0  0  0  0  0  0  0  0  0  0  0
    2.1462    0.6310   -2.1627 O   0  0  0  0  0  0  0  0  0  0  0  0
   -0.9697   -1.5814    0.7638 C   0  0  0  0  0  0  0  0  0  0  0  0
   -2.0112   -2.0047    1.6337 N   0  0  0  0  0  0  0  0  0  0  0  0
   -0.2777   -2.4751    0.2250 O   0  0  0  0  0  0  0  0  0  0  0  0
   -1.2102    2.3458    0.6909 H   0  0  0  0  0  0  0  0  0  0  0  0
   -1.3091    2.1051   -1.1100 H   0  0  0  0  0  0  0  0  0  0  0  0
   -2.8164    2.4132   -0.2175 H   0  0  0  0  0  0  0  0  0  0  0  0
   -2.7708    0.1770    0.7567 H   0  0  0  0  0  0  0  0  0  0  0  0
   -1.4605   -0.1826   -1.9668 H   0  0  0  0  0  0  0  0  0  0  0  0
   -3.0350   -0.9438   -1.3808 H   0  0  0  0  0  0  0  0  0  0  0  0
   -2.9605    0.7562   -1.8937 H   0  0  0  0  0  0  0  0  0  0  0  0
   -0.5264    0.3334    1.4784 H   0  0  0  0  0  0  0  0  0  0  0  0
    0.1978    0.7116   -1.1878 H   0  0  0  0  0  0  0  0  0  0  0  0
    1.7561   -1.3450    0.1625 H   0  0  0  0  0  0  0  0  0  0  0  0
    2.1593    1.5148    1.1556 H   0  0  0  0  0  0  0  0  0  0  0  0
    3.2900    0.1471    1.2525 H   0  0  0  0  0  0  0  0  0  0  0  0
    1.7712   -0.0036    2.1496 H   0  0  0  0  0  0  0  0  0  0  0  0
    4.3300   -1.1396   -1.2653 H   0  0  0  0  0  0  0  0  0  0  0  0
    4.6622    0.4879   -0.6523 H   0  0  0  0  0  0  0  0  0  0  0  0
   -2.4485   -2.9465    1.5447 H   0  0  0  0  0  0  0  0  0  0  0  0
   -2.3495   -1.3610    2.3796 H   0  0  0  0  0  0  0  0  0  0  0  0
  1  2  1  0
  2  3  1  0
  2  4  1  0
  4  5  1  0
  5  6  1  0
  6  7  1  0
  6  8  1  0
  8  9  1  0
  8 10  2  0
  4 11  1  0
 11 12  1  0
 11 13  2  0
  1 14  1  0
  1 15  1  0
  1 16  1  0
  2 17  1  0
  3 18  1  0
  3 19  1  0
  3 20  1  0
  4 21  1  1
  5 22  1  0
  6 23  1  1
  7 24  1  0
  7 25  1  0
  7 26  1  0
  9 27  1  0
  9 28  1  0
 12 29  1  0
 12 30  1  0
M  END
$$$$

     RDKit          3D

 30 29  0  0  0  0  0  0  0  0999 V2000
   -3.0734    0.4024   -0.2931 C   0  0  0  0  0  0  0  0  0  0  0  0
   -1.8511   -0.4482   -0.3632 C   0  0  0  0  0  0  0  0  0  0  0  0
   -1.6246   -0.9176   -1.7833 C   0  0  0  0  0  0  0  0  0  0  0  0
   -0.5987    0.3082    0.1048 C   0  0  2  0  0  0  0  0  0  0  0  0
    0.4738   -0.6228   -0.0217 N   0  0  0  0  0  0  0  0  0  0  0  0
    1.7763   -0.1493    0.2950 C   0  0  2  0  0  0  0  0  0  0  0  0
    2.1968    0.9720   -0.6436 C   0  0  0  0  0  0  0  0  0  0  0  0
    2.7407   -1.2591    0.1128 C   0  0  0  0  0  0  0  0  0  0  0  0
    4.1302   -1.0991    0.3575 N   0  0  0  0  0  0  0  0  0  0  0  0
    2.3207   -2.3727   -0.2678 O   0  0  0  0  0  0  0  0  0  0  0  0
   -0.8594    0.6513    1.5425 C   0  0  0  0  0  0  0  0  0  0  0  0
   -1.8812    1.5687    1.8975 N   0  0  0  0  0  0  0  0  0  0  0  0
   -0.1974    0.1510    2.4719 O   0  0  0  0  0  0  0  0  0  0  0  0
   -3.7344    0.1702   -1.1661 H   0  0  0  0  0  0  0  0  0  0  0  0
   -2.7898    1.4605   -0.3709 H   0  0  0  0  0  0  0  0  0  0  0  0
   -3.6197    0.1414    0.6346 H   0  0  0  0  0  0  0  0  0  0  0  0
   -1.8983   -1.3537    0.2746 H   0  0  0  0  0  0  0  0  0  0  0  0
   -2.5084   -1.4935   -2.0901 H   0  0  0  0  0  0  0  0  0  0  0  0
   -0.7329   -1.5986   -1.7851 H   0  0  0  0  0  0  0  0  0  0  0  0
   -1.4786   -0.0340   -2.4156 H   0  0  0  0  0  0  0  0  0  0  0  0
   -0.5088    1.2060   -0.5097 H   0  0  0  0  0  0  0  0  0  0  0  0
    0.2553   -1.5024    0.4510 H   0  0  0  0  0  0  0  0  0  0  0  0
    1.8313    0.2530    1.3332 H   0  0  0  0  0  0  0  0  0  0  0  0
    1.5112    1.0069   -1.5109 H   0  0  0  0  0  0  0  0  0  0  0  0
    2.1850    1.9633   -0.1122 H   0  0  0  0  0  0  0  0  0  0  0  0
    3.2152    0.8260   -1.0423 H   0  0  0  0  0  0  0  0  0  0  0  0
    4.7645   -1.0604   -0.4655 H   0  0  0  0  0  0  0  0  0  0  0  0
    4.4711   -1.0269    1.3225 H   0  0  0  0  0  0  0  0  0  0  0  0
   -1.8300    2.5472    1.5371 H   0  0  0  0  0  0  0  0  0  0  0  0
   -2.6853    1.3107    2.5060 H   0  0  0  0  0  0  0  0  0  0  0  0
  1  2  1  0
  2  3  1  0
  2  4  1  0
  4  5  1  0
  5  6  1  0
  6  7  1  0
  6  8  1  0
  8  9  1  0
  8 10  2  0
  4 11  1  0
 11 12  1  0
 11 13  2  0
  1 14  1  0
  1 15  1  0
  1 16  1  0
  2 17  1  0
  3 18  1  0
  3 19  1  0
  3 20  1  0
  4 21  1  6
  5 22  1  0
  6 23  1  1
  7 24  1  0
  7 25  1  0
  7 26  1  0
  9 27  1  0
  9 28  1  0
 12 29  1  0
 12 30  1  0
M  END
$$$$
