
     RDKit          3D

 25 25  0  0  0  0  0  0  0  0999 V2000
   -1.1318   -1.5872    0.6947 C   0  0  0  0  0  0  0  0  0  0  0  0
   -0.7328   -0.5573   -0.3747 C   0  0  0  0  0  0  0  0  0  0  0  0
   -1.9282   -0.3064   -1.2258 C   0  0  0  0  0  0  0  0  0  0  0  0
   -0.2164    0.6355    0.3542 C   0  0  2  0  0  0  0  0  0  0  0  0
    0.2222    1.7437   -0.4629 C   0  0  0  0  0  0  0  0  0  0  0  0
   -0.5310    2.4898   -1.3747 N   0  0  0  0  0  0  0  0  0  0  0  0
    1.4456    2.1089   -0.3601 O   0  0  0  0  0  0  0  0  0  0  0  0
    0.8399    0.2160    1.2485 N   0  0  0  0  0  0  0  0  0  0  0  0
    0.9341    0.3738    2.5670 N   0  0  0  0  0  0  0  0  0  0  0  0
    2.0417   -0.1421    3.0229 N   0  0  0  0  0  0  0  0  0  0  0  0
    2.7179   -0.6601    2.0125 N   0  0  0  0  0  0  0  0  0  0  0  0
    1.9712   -0.4392    0.9003 C   0  0  0  0  0  0  0  0  0  0  0  0
    2.3661   -0.8513   -0.3845 N   0  0  0  0  0  0  0  0  0  0  0  0
   -0.2817   -2.2471    0.9517 H   0  0  0  0  0  0  0  0  0  0  0  0
   -1.3908   -1.0452    1.6496 H   0  0  0  0  0  0  0  0  0  0  0  0
   -1.9908   -2.1873    0.3800 H   0  0  0  0  0  0  0  0  0  0  0  0
    0.0320   -1.0674   -0.9927 H   0  0  0  0  0  0  0  0  0  0  0  0
   -2.6897    0.3439   -0.7797 H   0  0  0  0  0  0  0  0  0  0  0  0
   -1.6144    0.0319   -2.2464 H   0  0  0  0  0  0  0  0  0  0  0  0
   -2.4266   -1.3013   -1.4030 H   0  0  0  0  0  0  0  0  0  0  0  0
   -1.0532    1.0065    1.0140 H   0  0  0  0  0  0  0  0  0  0  0  0
   -0.1452    2.6815   -2.3104 H   0  0  0  0  0  0  0  0  0  0  0  0
   -1.4623    2.8488   -1.1247 H   0  0  0  0  0  0  0  0  0  0  0  0
    2.7316   -0.2077   -1.1161 H   0  0  0  0  0  0  0  0  0  0  0  0
    2.2928   -1.8805   -0.6396 H   0  0  0  0  0  0  0  0  0  0  0  0
  1  2  1  0
  2  3  1  0
  2  4  1  0
  4  5  1  0
  5  6  1  0
  5  7  2  0
  4  8  1  0
  8  9  1  0
  9 10  2  0
 10 11  1  0
 11 12  2  0
 12 13  1  0
 12  8  1  0
  1 14  1  0
  1 15  1  0
  1 16  1  0
  2 17  1  0
  3 18  1  0
  3 19  1  0
  3 20  1  0
  4 21  1  1
  6 22  1  0
  6 23  1  0
 13 24  1  0
 13 25  1  0
M  END
$$$$

     RDKit          3D

 25 25  0  0  0  0  0  0  0  0999 V2000
   -1.6245    0.0170   -1.3137 C   0  0  0  0  0  0  0  0  0  0  0  0
   -1.1248   -0.1116    0.0949 C   0  0  0  0  0  0  0  0  0  0  0  0
   -1.0989   -1.5389    0.5549 C   0  0  0  0  0  0  0  0  0  0  0  0
    0.1958    0.5903    0.3079 C   0  0  2  0  0  0  0  0  0  0  0  0
   -0.0201    2.0260   -0.0054 C   0  0  0  0  0  0  0  0  0  0  0  0
   -0.9721    2.7819    0.7298 N   0  0  0  0  0  0  0  0  0  0  0  0
    0.6155    2.6188   -0.9129 O   0  0  0  0  0  0  0  0  0  0  0  0
    1.2741    0.0186   -0.4391 N   0  0  0  0  0  0  0  0  0  0  0  0
    1.6743    0.3601   -1.6511 N   0  0  0  0  0  0  0  0  0  0  0  0
    2.7061   -0.3980   -2.0095 N   0  0  0  0  0  0  0  0  0  0  0  0
    2.9731   -1.2236   -1.0395 N   0  0  0  0  0  0  0  0  0  0  0  0
    2.0870   -0.9756   -0.0514 C   0  0  0  0  0  0  0  0  0  0  0  0
    2.0598   -1.6765    1.1753 N   0  0  0  0  0  0  0  0  0  0  0  0
   -1.9679    1.0524   -1.5323 H   0  0  0  0  0  0  0  0  0  0  0  0
   -2.5010   -0.6617   -1.4195 H   0  0  0  0  0  0  0  0  0  0  0  0
   -0.8325   -0.3310   -2.0074 H   0  0  0  0  0  0  0  0  0  0  0  0
   -1.8656    0.4233    0.7490 H   0  0  0  0  0  0  0  0  0  0  0  0
   -0.5133   -2.2082   -0.0888 H   0  0  0  0  0  0  0  0  0  0  0  0
   -0.7952   -1.5632    1.6224 H   0  0  0  0  0  0  0  0  0  0  0  0
   -2.1666   -1.8968    0.5507 H   0  0  0  0  0  0  0  0  0  0  0  0
    0.4139    0.4963    1.4123 H   0  0  0  0  0  0  0  0  0  0  0  0
   -0.6107    3.5131    1.3705 H   0  0  0  0  0  0  0  0  0  0  0  0
   -1.9983    2.6387    0.6570 H   0  0  0  0  0  0  0  0  0  0  0  0
    1.9643   -2.7157    1.1359 H   0  0  0  0  0  0  0  0  0  0  0  0
    2.1274   -1.2357    2.1100 H   0  0  0  0  0  0  0  0  0  0  0  0
  1  2  1  0
  2  3  1  0
  2  4  1  0
  4  5  1  0
  5  6  1  0
  5  7  2  0
  4  8  1  0
  8  9  1  0
  9 10  2  0
 10 11  1  0
 11 12  2  0
 12 13  1  0
 12  8  1  0
  1 14  1  0
  1 15  1  0
  1 16  1  0
  2 17  1  0
  3 18  1  0
  3 19  1  0
  3 20  1  0
  4 21  1  1
  6 22  1  0
  6 23  1  0
 13 24  1  0
 13 25  1  0
M  END
$$$$

     RDKit          3D

 25 25  0  0  0  0  0  0  0  0999 V2000
   -0.2889   -1.6362    1.4239 C   0  0  0  0  0  0  0  0  0  0  0  0
   -0.9922   -0.8981    0.3174 C   0  0  0  0  0  0  0  0  0  0  0  0
   -0.9225   -1.5449   -1.0189 C   0  0  0  0  0  0  0  0  0  0  0  0
   -0.6271    0.5464    0.3899 C   0  0  2  0  0  0  0  0  0  0  0  0
   -1.2497    1.3900   -0.6455 C   0  0  0  0  0  0  0  0  0  0  0  0
   -0.9362    2.7604   -0.6901 N   0  0  0  0  0  0  0  0  0  0  0  0
   -2.0388    0.9068   -1.4675 O   0  0  0  0  0  0  0  0  0  0  0  0
    0.7620    0.8541    0.5473 N   0  0  0  0  0  0  0  0  0  0  0  0
    1.2271    1.8017    1.3473 N   0  0  0  0  0  0  0  0  0  0  0  0
    2.5198    1.8726    1.2993 N   0  0  0  0  0  0  0  0  0  0  0  0
    2.9519    0.9664    0.4592 N   0  0  0  0  0  0  0  0  0  0  0  0
    1.8659    0.3293   -0.0124 C   0  0  0  0  0  0  0  0  0  0  0  0
    1.9359   -0.7126   -0.9444 N   0  0  0  0  0  0  0  0  0  0  0  0
   -0.9185   -2.5356    1.6845 H   0  0  0  0  0  0  0  0  0  0  0  0
   -0.2844   -0.9808    2.3130 H   0  0  0  0  0  0  0  0  0  0  0  0
    0.6958   -2.0227    1.1856 H   0  0  0  0  0  0  0  0  0  0  0  0
   -2.0913   -0.9526    0.6077 H   0  0  0  0  0  0  0  0  0  0  0  0
   -0.6655   -0.9111   -1.8650 H   0  0  0  0  0  0  0  0  0  0  0  0
   -1.8953   -2.0394   -1.3329 H   0  0  0  0  0  0  0  0  0  0  0  0
   -0.2439   -2.4443   -0.9089 H   0  0  0  0  0  0  0  0  0  0  0  0
   -1.1356    0.9092    1.3529 H   0  0  0  0  0  0  0  0  0  0  0  0
   -0.8848    3.3866    0.1477 H   0  0  0  0  0  0  0  0  0  0  0  0
   -0.7296    3.2408   -1.6105 H   0  0  0  0  0  0  0  0  0  0  0  0
    1.7139   -0.6256   -1.9597 H   0  0  0  0  0  0  0  0  0  0  0  0
    2.2319   -1.6604   -0.6198 H   0  0  0  0  0  0  0  0  0  0  0  0
  1  2  1  0
  2  3  1  0
  2  4  1  0
  4  5  1  0
  5  6  1  0
  5  7  2  0
  4  8  1  0
  8  9  1  0
  9 10  2  0
 10 11  1  0
 11 12  2  0
 12 13  1  0
 12  8  1  0
  1 14  1  0
  1 15  1  0
  1 16  1  0
  2 17  1  0
  3 18  1  0
  3 19  1  0
  3 20  1  0
  4 21  1  1
  6 22  1  0
  6 23  1  0
 13 24  1  0
 13 25  1  0
M  END
$$$$

     RDKit          3D

 25 25  0  0  0  0  0  0  0  0999 V2000
    1.3327   -0.6993    1.4018 C   0  0  0  0  0  0  0  0  0  0  0  0
    1.2959   -0.2746   -0.0191 C   0  0  0  0  0  0  0  0  0  0  0  0
    1.4110   -1.4351   -0.9605 C   0  0  0  0  0  0  0  0  0  0  0  0
    0.2731    0.6801   -0.4400 C   0  0  2  0  0  0  0  0  0  0  0  0
    0.3390    1.9935    0.2766 C   0  0  0  0  0  0  0  0  0  0  0  0
   -0.6020    3.0150   -0.0390 N   0  0  0  0  0  0  0  0  0  0  0  0
    1.1748    2.2707    1.1510 O   0  0  0  0  0  0  0  0  0  0  0  0
   -1.0810    0.3018   -0.5470 N   0  0  0  0  0  0  0  0  0  0  0  0
   -1.9525    1.0970   -1.2029 N   0  0  0  0  0  0  0  0  0  0  0  0
   -3.1309    0.5593   -1.1761 N   0  0  0  0  0  0  0  0  0  0  0  0
   -3.0985   -0.5750   -0.5258 N   0  0  0  0  0  0  0  0  0  0  0  0
   -1.8003   -0.7263   -0.1340 C   0  0  0  0  0  0  0  0  0  0  0  0
   -1.3250   -1.8230    0.6018 N   0  0  0  0  0  0  0  0  0  0  0  0
    1.3312   -1.8154    1.4629 H   0  0  0  0  0  0  0  0  0  0  0  0
    2.2816   -0.4124    1.9506 H   0  0  0  0  0  0  0  0  0  0  0  0
    0.5246   -0.3038    2.0390 H   0  0  0  0  0  0  0  0  0  0  0  0
    2.2841    0.2799   -0.1760 H   0  0  0  0  0  0  0  0  0  0  0  0
    0.4885   -1.6501   -1.5244 H   0  0  0  0  0  0  0  0  0  0  0  0
    1.6044   -2.3491   -0.3410 H   0  0  0  0  0  0  0  0  0  0  0  0
    2.2356   -1.3719   -1.6745 H   0  0  0  0  0  0  0  0  0  0  0  0
    0.5949    0.9687   -1.4991 H   0  0  0  0  0  0  0  0  0  0  0  0
   -1.2969    3.3792    0.6518 H   0  0  0  0  0  0  0  0  0  0  0  0
   -0.6174    3.4331   -0.9946 H   0  0  0  0  0  0  0  0  0  0  0  0
   -0.9863   -2.6567    0.0749 H   0  0  0  0  0  0  0  0  0  0  0  0
   -1.2807   -1.8855    1.6436 H   0  0  0  0  0  0  0  0  0  0  0  0
  1  2  1  0
  2  3  1  0
  2  4  1  0
  4  5  1  0
  5  6  1  0
  5  7  2  0
  4  8  1  0
  8  9  1  0
  9 10  2  0
 10 11  1  0
 11 12  2  0
 12 13  1  0
 12  8  1  0
  1 14  1  0
  1 15  1  0
  1 16  1  0
  2 17  1  0
  3 18  1  0
  3 19  1  0
  3 20  1  0
  4 21  1  6
  6 22  1  0
  6 23  1  0
 13 24  1  0
 13 25  1  0
M  END
$$$$

     RDKit          3D

 25 25  0  0  0  0  0  0  0  0999 V2000
   -2.3436   -0.3127   -0.4420 C   0  0  0  0  0  0  0  0  0  0  0  0
   -0.8809   -0.6752   -0.2516 C   0  0  0  0  0  0  0  0  0  0  0  0
   -0.8463   -1.8622    0.6649 C   0  0  0  0  0  0  0  0  0  0  0  0
   -0.2084    0.5356    0.3174 C   0  0  2  0  0  0  0  0  0  0  0  0
   -0.3459    1.6727   -0.6167 C   0  0  0  0  0  0  0  0  0  0  0  0
    0.2232    2.9169   -0.2601 N   0  0  0  0  0  0  0  0  0  0  0  0
   -0.9456    1.5737   -1.7071 O   0  0  0  0  0  0  0  0  0  0  0  0
    1.1782    0.3700    0.6193 N   0  0  0  0  0  0  0  0  0  0  0  0
    1.7821    1.0690    1.5688 N   0  0  0  0  0  0  0  0  0  0  0  0
    3.0301    0.7067    1.6132 N   0  0  0  0  0  0  0  0  0  0  0  0
    3.2575   -0.2224    0.7052 N   0  0  0  0  0  0  0  0  0  0  0  0
    2.1006   -0.4397    0.0768 C   0  0  0  0  0  0  0  0  0  0  0  0
    1.8220   -1.3403   -0.9761 N   0  0  0  0  0  0  0  0  0  0  0  0
   -2.7081   -0.5301   -1.4670 H   0  0  0  0  0  0  0  0  0  0  0  0
   -3.0156   -0.8905    0.2388 H   0  0  0  0  0  0  0  0  0  0  0  0
   -2.5532    0.7538   -0.2231 H   0  0  0  0  0  0  0  0  0  0  0  0
   -0.5074   -0.9537   -1.2589 H   0  0  0  0  0  0  0  0  0  0  0  0
   -1.6137   -1.7481    1.4533 H   0  0  0  0  0  0  0  0  0  0  0  0
    0.1151   -2.0553    1.1304 H   0  0  0  0  0  0  0  0  0  0  0  0
   -1.1056   -2.7638    0.0440 H   0  0  0  0  0  0  0  0  0  0  0  0
   -0.7568    0.7960    1.2523 H   0  0  0  0  0  0  0  0  0  0  0  0
    0.0847    3.3330    0.6869 H   0  0  0  0  0  0  0  0  0  0  0  0
    0.8103    3.4853   -0.9206 H   0  0  0  0  0  0  0  0  0  0  0  0
    1.7766   -1.0809   -1.9770 H   0  0  0  0  0  0  0  0  0  0  0  0
    1.6505   -2.3378   -0.7266 H   0  0  0  0  0  0  0  0  0  0  0  0
  1  2  1  0
  2  3  1  0
  2  4  1  0
  4  5  1  0
  5  6  1  0
  5  7  2  0
  4  8  1  0
  8  9  1  0
  9 10  2  0
 10 11  1  0
 11 12  2  0
 12 13  1  0
 12  8  1  0
  1 14  1  0
  1 15  1  0
  1 16  1  0
  2 17  1  0
  3 18  1  0
  3 19  1  0
  3 20  1  0
  4 21  1  1
  6 22  1  0
  6 23  1  0
 13 24  1  0
 13 25  1  0
M  END
$$$$

     RDKit          3D

 25 25  0  0  0  0  0  0  0  0999 V2000
    2.0154   -0.0460    0.5947 C   0  0  0  0  0  0  0  0  0  0  0  0
    1.0370   -0.1457   -0.5352 C   0  0  0  0  0  0  0  0  0  0  0  0
    0.8109   -1.5739   -0.9919 C   0  0  0  0  0  0  0  0  0  0  0  0
   -0.2703    0.5523   -0.2186 C   0  0  2  0  0  0  0  0  0  0  0  0
    0.0670    1.9840    0.0332 C   0  0  0  0  0  0  0  0  0  0  0  0
    0.6788    2.7876   -0.9476 N   0  0  0  0  0  0  0  0  0  0  0  0
   -0.2193    2.4499    1.1670 O   0  0  0  0  0  0  0  0  0  0  0  0
   -0.9564   -0.0345    0.8885 N   0  0  0  0  0  0  0  0  0  0  0  0
   -0.7344    0.1730    2.1668 N   0  0  0  0  0  0  0  0  0  0  0  0
   -1.5820   -0.5588    2.9039 N   0  0  0  0  0  0  0  0  0  0  0  0
   -2.3370   -1.2268    2.0606 N   0  0  0  0  0  0  0  0  0  0  0  0
   -1.9634   -0.9142    0.8060 C   0  0  0  0  0  0  0  0  0  0  0  0
   -2.5812   -1.4658   -0.3512 N   0  0  0  0  0  0  0  0  0  0  0  0
    2.8393   -0.7601    0.3968 H   0  0  0  0  0  0  0  0  0  0  0  0
    1.5735   -0.1974    1.5803 H   0  0  0  0  0  0  0  0  0  0  0  0
    2.4524    0.9858    0.5789 H   0  0  0  0  0  0  0  0  0  0  0  0
    1.4736    0.3891   -1.4114 H   0  0  0  0  0  0  0  0  0  0  0  0
    0.2810   -2.1861   -0.2460 H   0  0  0  0  0  0  0  0  0  0  0  0
    1.8090   -2.0042   -1.1958 H   0  0  0  0  0  0  0  0  0  0  0  0
    0.2748   -1.5326   -1.9568 H   0  0  0  0  0  0  0  0  0  0  0  0
   -0.8617    0.5371   -1.1615 H   0  0  0  0  0  0  0  0  0  0  0  0
    1.7170    2.8592   -0.9755 H   0  0  0  0  0  0  0  0  0  0  0  0
    0.0801    3.2896   -1.6198 H   0  0  0  0  0  0  0  0  0  0  0  0
   -3.4395   -1.0471   -0.7744 H   0  0  0  0  0  0  0  0  0  0  0  0
   -2.1645   -2.3144   -0.7908 H   0  0  0  0  0  0  0  0  0  0  0  0
  1  2  1  0
  2  3  1  0
  2  4  1  0
  4  5  1  0
  5  6  1  0
  5  7  2  0
  4  8  1  0
  8  9  1  0
  9 10  2  0
 10 11  1  0
 11 12  2  0
 12 13  1  0
 12  8  1  0
  1 14  1  0
  1 15  1  0
  1 16  1  0
  2 17  1  0
  3 18  1  0
  3 19  1  0
  3 20  1  0
  4 21  1  6
  6 22  1  0
  6 23  1  0
 13 24  1  0
 13 25  1  0
M  END
$$$$

     RDKit          3D

 25 25  0  0  0  0  0  0  0  0999 V2000
   -1.3680   -1.3923    1.1177 C   0  0  0  0  0  0  0  0  0  0  0  0
   -1.3203   -0.0581    0.3947 C   0  0  0  0  0  0  0  0  0  0  0  0
   -1.9939   -0.1154   -0.9352 C   0  0  0  0  0  0  0  0  0  0  0  0
    0.1210    0.3887    0.2876 C   0  0  2  0  0  0  0  0  0  0  0  0
    0.2129    1.6883   -0.4123 C   0  0  0  0  0  0  0  0  0  0  0  0
   -0.4153    2.8608    0.0644 N   0  0  0  0  0  0  0  0  0  0  0  0
    0.8750    1.8095   -1.4961 O   0  0  0  0  0  0  0  0  0  0  0  0
    0.9183   -0.5803   -0.4400 N   0  0  0  0  0  0  0  0  0  0  0  0
    0.4937   -1.3021   -1.4452 N   0  0  0  0  0  0  0  0  0  0  0  0
    1.4881   -2.0691   -1.8559 N   0  0  0  0  0  0  0  0  0  0  0  0
    2.5441   -1.8361   -1.1135 N   0  0  0  0  0  0  0  0  0  0  0  0
    2.1898   -0.9007   -0.2222 C   0  0  0  0  0  0  0  0  0  0  0  0
    3.0241   -0.3361    0.7923 N   0  0  0  0  0  0  0  0  0  0  0  0
   -2.2603   -1.9334    0.7437 H   0  0  0  0  0  0  0  0  0  0  0  0
   -0.4382   -1.9930    0.8950 H   0  0  0  0  0  0  0  0  0  0  0  0
   -1.4666   -1.2332    2.2102 H   0  0  0  0  0  0  0  0  0  0  0  0
   -1.8483    0.6719    1.0370 H   0  0  0  0  0  0  0  0  0  0  0  0
   -3.0754    0.1658   -0.7908 H   0  0  0  0  0  0  0  0  0  0  0  0
   -2.0024   -1.1510   -1.3411 H   0  0  0  0  0  0  0  0  0  0  0  0
   -1.5831    0.5997   -1.6718 H   0  0  0  0  0  0  0  0  0  0  0  0
    0.5474    0.4382    1.3133 H   0  0  0  0  0  0  0  0  0  0  0  0
   -1.4408    2.9307    0.0349 H   0  0  0  0  0  0  0  0  0  0  0  0
    0.1416    3.6482    0.4419 H   0  0  0  0  0  0  0  0  0  0  0  0
    3.0757   -0.8167    1.7213 H   0  0  0  0  0  0  0  0  0  0  0  0
    3.5809    0.5161    0.6702 H   0  0  0  0  0  0  0  0  0  0  0  0
  1  2  1  0
  2  3  1  0
  2  4  1  0
  4  5  1  0
  5  6  1  0
  5  7  2  0
  4  8  1  0
  8  9  1  0
  9 10  2  0
 10 11  1  0
 11 12  2  0
 12 13  1  0
 12  8  1  0
  1 14  1  0
  1 15  1  0
  1 16  1  0
  2 17  1  0
  3 18  1  0
  3 19  1  0
  3 20  1  0
  4 21  1  1
  6 22  1  0
  6 23  1  0
 13 24  1  0
 13 25  1  0
M  END
$$$$

     RDKit          3D

 25 25  0  0  0  0  0  0  0  0999 V2000
   -2.2059   -0.5257    0.9893 C   0  0  0  0  0  0  0  0  0  0  0  0
   -1.2248   -0.4361   -0.1573 C   0  0  0  0  0  0  0  0  0  0  0  0
   -0.8078   -1.8369   -0.5127 C   0  0  0  0  0  0  0  0  0  0  0  0
   -0.0751    0.4492    0.2314 C   0  0  2  0  0  0  0  0  0  0  0  0
   -0.6261    1.7944    0.5449 C   0  0  0  0  0  0  0  0  0  0  0  0
    0.2628    2.8267    0.9439 N   0  0  0  0  0  0  0  0  0  0  0  0
   -1.8559    2.0456    0.4674 O   0  0  0  0  0  0  0  0  0  0  0  0
    0.9615    0.5022   -0.7587 N   0  0  0  0  0  0  0  0  0  0  0  0
    1.0980    1.3351   -1.7745 N   0  0  0  0  0  0  0  0  0  0  0  0
    2.1981    1.0478   -2.4569 N   0  0  0  0  0  0  0  0  0  0  0  0
    2.7883    0.0265   -1.8931 N   0  0  0  0  0  0  0  0  0  0  0  0
    2.0201   -0.3240   -0.8258 C   0  0  0  0  0  0  0  0  0  0  0  0
    2.3630   -1.4050    0.0245 N   0  0  0  0  0  0  0  0  0  0  0  0
   -2.5015   -1.5808    1.1991 H   0  0  0  0  0  0  0  0  0  0  0  0
   -1.7451   -0.1366    1.9251 H   0  0  0  0  0  0  0  0  0  0  0  0
   -3.1228    0.0778    0.8092 H   0  0  0  0  0  0  0  0  0  0  0  0
   -1.7552   -0.0205   -1.0372 H   0  0  0  0  0  0  0  0  0  0  0  0
   -1.7503   -2.4237   -0.6487 H   0  0  0  0  0  0  0  0  0  0  0  0
   -0.2772   -1.8924   -1.4911 H   0  0  0  0  0  0  0  0  0  0  0  0
   -0.2582   -2.3490    0.3035 H   0  0  0  0  0  0  0  0  0  0  0  0
    0.3065    0.0496    1.2174 H   0  0  0  0  0  0  0  0  0  0  0  0
    0.3730    3.7288    0.4260 H   0  0  0  0  0  0  0  0  0  0  0  0
    0.8468    2.6965    1.7988 H   0  0  0  0  0  0  0  0  0  0  0  0
    2.5141   -2.3517   -0.3780 H   0  0  0  0  0  0  0  0  0  0  0  0
    2.4736   -1.2977    1.0536 H   0  0  0  0  0  0  0  0  0  0  0  0
  1  2  1  0
  2  3  1  0
  2  4  1  0
  4  5  1  0
  5  6  1  0
  5  7  2  0
  4  8  1  0
  8  9  1  0
  9 10  2  0
 10 11  1  0
 11 12  2  0
 12 13  1  0
 12  8  1  0
  1 14  1  0
  1 15  1  0
  1 16  1  0
  2 17  1  0
  3 18  1  0
  3 19  1  0
  3 20  1  0
  4 21  1  1
  6 22  1  0
  6 23  1  0
 13 24  1  0
 13 25  1  0
M  END
$$$$
