
     RDKit          3D

 22 23  0  0  0  0  0  0  0  0999 V2000
   -3.2516   -1.2819    1.3709 O   0  0  0  0  0  0  0  0  0  0  0  0
   -2.6900   -0.3903    0.6808 C   0  0  0  0  0  0  0  0  0  0  0  0
   -1.9952    0.7982    1.2107 C   0  0  0  0  0  0  0  0  0  0  0  0
   -1.0497    1.1942    0.1637 C   0  0  1  0  0  0  0  0  0  0  0  0
    0.2844    0.7649    0.2655 N   0  0  0  0  0  0  0  0  0  0  0  0
    0.5479   -0.6233    0.2322 C   0  0  0  0  0  0  0  0  0  0  0  0
    2.0379   -0.7977    0.3487 C   0  0  0  0  0  0  0  0  0  0  0  0
    2.9648    0.1690    0.4526 N   0  0  0  0  0  0  0  0  0  0  0  0
    4.1921   -0.3762    0.5367 C   0  0  0  0  0  0  0  0  0  0  0  0
    3.9992   -1.6619    0.4833 O   0  0  0  0  0  0  0  0  0  0  0  0
    2.7349   -1.9510    0.3716 N   0  0  0  0  0  0  0  0  0  0  0  0
   -1.6447    0.6605   -1.0915 C   0  0  0  0  0  0  0  0  0  0  0  0
   -1.3572    1.0161   -2.2706 O   0  0  0  0  0  0  0  0  0  0  0  0
   -2.6004   -0.3268   -0.7297 N   0  0  0  0  0  0  0  0  0  0  0  0
   -2.7863    1.6031    1.2897 H   0  0  0  0  0  0  0  0  0  0  0  0
   -1.6076    0.6827    2.2266 H   0  0  0  0  0  0  0  0  0  0  0  0
   -1.0327    2.3182    0.0340 H   0  0  0  0  0  0  0  0  0  0  0  0
    0.9387    1.2555   -0.3811 H   0  0  0  0  0  0  0  0  0  0  0  0
    0.2365   -1.1546   -0.6889 H   0  0  0  0  0  0  0  0  0  0  0  0
    0.1320   -1.1986    1.0830 H   0  0  0  0  0  0  0  0  0  0  0  0
    5.0937    0.2110    0.6274 H   0  0  0  0  0  0  0  0  0  0  0  0
   -3.1469   -0.9111   -1.4253 H   0  0  0  0  0  0  0  0  0  0  0  0
  1  2  2  0
  2  3  1  0
  3  4  1  0
  4  5  1  0
  5  6  1  0
  6  7  1  0
  7  8  1  0
  8  9  2  0
  9 10  1  0
 10 11  1  0
  4 12  1  0
 12 13  2  0
 12 14  1  0
 14  2  1  0
 11  7  2  0
  3 15  1  0
  3 16  1  0
  4 17  1  6
  5 18  1  0
  6 19  1  0
  6 20  1  0
  9 21  1  0
 14 22  1  0
M  END
$$$$

     RDKit          3D

 22 23  0  0  0  0  0  0  0  0999 V2000
   -3.8938    1.4455    1.0842 O   0  0  0  0  0  0  0  0  0  0  0  0
   -2.9260    0.8987    0.5747 C   0  0  0  0  0  0  0  0  0  0  0  0
   -2.0477   -0.1114    1.2487 C   0  0  0  0  0  0  0  0  0  0  0  0
   -0.7237    0.0540    0.5281 C   0  0  1  0  0  0  0  0  0  0  0  0
    0.0320   -1.1297    0.7119 N   0  0  0  0  0  0  0  0  0  0  0  0
    0.9500   -1.4332   -0.3501 C   0  0  0  0  0  0  0  0  0  0  0  0
    2.1451   -0.5837   -0.3096 C   0  0  0  0  0  0  0  0  0  0  0  0
    2.1371    0.7430   -0.0212 N   0  0  0  0  0  0  0  0  0  0  0  0
    3.3928    1.2190   -0.1302 C   0  0  0  0  0  0  0  0  0  0  0  0
    4.1315    0.2022   -0.4669 O   0  0  0  0  0  0  0  0  0  0  0  0
    3.3805   -0.8784   -0.5804 N   0  0  0  0  0  0  0  0  0  0  0  0
   -1.1026    0.4472   -0.8139 C   0  0  0  0  0  0  0  0  0  0  0  0
   -0.5068    0.3392   -1.9111 O   0  0  0  0  0  0  0  0  0  0  0  0
   -2.4116    1.0655   -0.7379 N   0  0  0  0  0  0  0  0  0  0  0  0
   -2.4799   -1.1060    1.0956 H   0  0  0  0  0  0  0  0  0  0  0  0
   -1.8965    0.1091    2.3117 H   0  0  0  0  0  0  0  0  0  0  0  0
   -0.2484    0.9149    1.0994 H   0  0  0  0  0  0  0  0  0  0  0  0
   -0.6649   -1.9596    0.6933 H   0  0  0  0  0  0  0  0  0  0  0  0
    0.5367   -1.5650   -1.3456 H   0  0  0  0  0  0  0  0  0  0  0  0
    1.3747   -2.4741   -0.0614 H   0  0  0  0  0  0  0  0  0  0  0  0
    3.7074    2.2442    0.0368 H   0  0  0  0  0  0  0  0  0  0  0  0
   -2.8859    1.5585   -1.5473 H   0  0  0  0  0  0  0  0  0  0  0  0
  1  2  2  0
  2  3  1  0
  3  4  1  0
  4  5  1  0
  5  6  1  0
  6  7  1  0
  7  8  1  0
  8  9  2  0
  9 10  1  0
 10 11  1  0
  4 12  1  0
 12 13  2  0
 12 14  1  0
 14  2  1  0
 11  7  2  0
  3 15  1  0
  3 16  1  0
  4 17  1  1
  5 18  1  0
  6 19  1  0
  6 20  1  0
  9 21  1  0
 14 22  1  0
M  END
$$$$

     RDKit          3D

 22 23  0  0  0  0  0  0  0  0999 V2000
   -4.6188    0.5476   -0.5786 O   0  0  0  0  0  0  0  0  0  0  0  0
   -3.4394    0.4027   -0.2076 C   0  0  0  0  0  0  0  0  0  0  0  0
   -2.2856    0.1861   -1.1102 C   0  0  0  0  0  0  0  0  0  0  0  0
   -1.2083   -0.4680   -0.2535 C   0  0  1  0  0  0  0  0  0  0  0  0
    0.1046    0.0228   -0.6300 N   0  0  0  0  0  0  0  0  0  0  0  0
    1.1184   -0.7849    0.0044 C   0  0  0  0  0  0  0  0  0  0  0  0
    2.4830   -0.3468   -0.3187 C   0  0  0  0  0  0  0  0  0  0  0  0
    3.1702    0.5412    0.4551 N   0  0  0  0  0  0  0  0  0  0  0  0
    4.3622    0.7191   -0.1156 C   0  0  0  0  0  0  0  0  0  0  0  0
    4.4165   -0.0260   -1.2001 O   0  0  0  0  0  0  0  0  0  0  0  0
    3.2959   -0.6731   -1.3370 N   0  0  0  0  0  0  0  0  0  0  0  0
   -1.5983   -0.0171    1.0939 C   0  0  0  0  0  0  0  0  0  0  0  0
   -0.9020    0.0218    2.1443 O   0  0  0  0  0  0  0  0  0  0  0  0
   -2.9628    0.4137    1.1139 N   0  0  0  0  0  0  0  0  0  0  0  0
   -1.9435    1.1429   -1.5310 H   0  0  0  0  0  0  0  0  0  0  0  0
   -2.5288   -0.5226   -1.9357 H   0  0  0  0  0  0  0  0  0  0  0  0
   -1.2330   -1.5538   -0.3627 H   0  0  0  0  0  0  0  0  0  0  0  0
    0.1946    1.0352   -0.4017 H   0  0  0  0  0  0  0  0  0  0  0  0
    0.9690   -0.8572    1.0832 H   0  0  0  0  0  0  0  0  0  0  0  0
    0.9646   -1.8295   -0.3944 H   0  0  0  0  0  0  0  0  0  0  0  0
    5.1825    1.3497    0.2058 H   0  0  0  0  0  0  0  0  0  0  0  0
   -3.5408    0.6961    1.9351 H   0  0  0  0  0  0  0  0  0  0  0  0
  1  2  2  0
  2  3  1  0
  3  4  1  0
  4  5  1  0
  5  6  1  0
  6  7  1  0
  7  8  1  0
  8  9  2  0
  9 10  1  0
 10 11  1  0
  4 12  1  0
 12 13  2  0
 12 14  1  0
 14  2  1  0
 11  7  2  0
  3 15  1  0
  3 16  1  0
  4 17  1  1
  5 18  1  0
  6 19  1  0
  6 20  1  0
  9 21  1  0
 14 22  1  0
M  END
$$$$

     RDKit          3D

 22 23  0  0  0  0  0  0  0  0999 V2000
   -3.6965    2.0701    0.2919 O   0  0  0  0  0  0  0  0  0  0  0  0
   -3.0875    1.0110    0.0898 C   0  0  0  0  0  0  0  0  0  0  0  0
   -1.7288    0.7161    0.6874 C   0  0  0  0  0  0  0  0  0  0  0  0
   -1.1322   -0.0921   -0.4554 C   0  0  1  0  0  0  0  0  0  0  0  0
    0.1145   -0.6917   -0.1574 N   0  0  0  0  0  0  0  0  0  0  0  0
    1.0779    0.3568    0.1019 C   0  0  0  0  0  0  0  0  0  0  0  0
    2.4187   -0.1830    0.4104 C   0  0  0  0  0  0  0  0  0  0  0  0
    3.4747    0.5812    0.7386 N   0  0  0  0  0  0  0  0  0  0  0  0
    4.5379   -0.2037    0.9577 C   0  0  0  0  0  0  0  0  0  0  0  0
    4.1288   -1.4399    0.7629 O   0  0  0  0  0  0  0  0  0  0  0  0
    2.8706   -1.4527    0.4354 N   0  0  0  0  0  0  0  0  0  0  0  0
   -2.2544   -1.0190   -0.7257 C   0  0  0  0  0  0  0  0  0  0  0  0
   -2.3278   -2.2301   -0.9482 O   0  0  0  0  0  0  0  0  0  0  0  0
   -3.4136   -0.1538   -0.6801 N   0  0  0  0  0  0  0  0  0  0  0  0
   -1.9376    0.0426    1.5627 H   0  0  0  0  0  0  0  0  0  0  0  0
   -1.1840    1.6130    0.9453 H   0  0  0  0  0  0  0  0  0  0  0  0
   -0.9951    0.5926   -1.3219 H   0  0  0  0  0  0  0  0  0  0  0  0
    0.0989   -1.3043    0.6853 H   0  0  0  0  0  0  0  0  0  0  0  0
    0.7213    0.9663    0.9581 H   0  0  0  0  0  0  0  0  0  0  0  0
    1.1173    1.0184   -0.7965 H   0  0  0  0  0  0  0  0  0  0  0  0
    5.5467    0.1159    1.2422 H   0  0  0  0  0  0  0  0  0  0  0  0
   -4.3496   -0.3138   -1.1198 H   0  0  0  0  0  0  0  0  0  0  0  0
  1  2  2  0
  2  3  1  0
  3  4  1  0
  4  5  1  0
  5  6  1  0
  6  7  1  0
  7  8  1  0
  8  9  2  0
  9 10  1  0
 10 11  1  0
  4 12  1  0
 12 13  2  0
 12 14  1  0
 14  2  1  0
 11  7  2  0
  3 15  1  0
  3 16  1  0
  4 17  1  6
  5 18  1  0
  6 19  1  0
  6 20  1  0
  9 21  1  0
 14 22  1  0
M  END
$$$$

     RDKit          3D

 22 23  0  0  0  0  0  0  0  0999 V2000
   -4.4935    0.5348   -1.2983 O   0  0  0  0  0  0  0  0  0  0  0  0
   -3.4000    0.5314   -0.6837 C   0  0  0  0  0  0  0  0  0  0  0  0
   -2.0504    0.8129   -1.2351 C   0  0  0  0  0  0  0  0  0  0  0  0
   -1.1745   -0.0558   -0.3482 C   0  0  1  0  0  0  0  0  0  0  0  0
    0.2072    0.2806   -0.4361 N   0  0  0  0  0  0  0  0  0  0  0  0
    0.9919   -0.6566    0.3073 C   0  0  0  0  0  0  0  0  0  0  0  0
    2.4393   -0.3689    0.2578 C   0  0  0  0  0  0  0  0  0  0  0  0
    3.3847   -1.0920    0.8721 N   0  0  0  0  0  0  0  0  0  0  0  0
    4.5834   -0.5317    0.6022 C   0  0  0  0  0  0  0  0  0  0  0  0
    4.3678    0.5111   -0.1609 O   0  0  0  0  0  0  0  0  0  0  0  0
    3.0733    0.6227   -0.3784 N   0  0  0  0  0  0  0  0  0  0  0  0
   -1.7970    0.2000    0.9742 C   0  0  0  0  0  0  0  0  0  0  0  0
   -1.2941    0.3492    2.1134 O   0  0  0  0  0  0  0  0  0  0  0  0
   -3.2131    0.2527    0.6978 N   0  0  0  0  0  0  0  0  0  0  0  0
   -1.8435    1.8898   -1.0066 H   0  0  0  0  0  0  0  0  0  0  0  0
   -1.9513    0.5698   -2.3017 H   0  0  0  0  0  0  0  0  0  0  0  0
   -1.3302   -1.1076   -0.6398 H   0  0  0  0  0  0  0  0  0  0  0  0
    0.4757    0.3853   -1.4195 H   0  0  0  0  0  0  0  0  0  0  0  0
    0.6574   -0.6626    1.3587 H   0  0  0  0  0  0  0  0  0  0  0  0
    0.7754   -1.6688   -0.1324 H   0  0  0  0  0  0  0  0  0  0  0  0
    5.5454   -0.8981    0.9650 H   0  0  0  0  0  0  0  0  0  0  0  0
   -3.9538    0.1016    1.4368 H   0  0  0  0  0  0  0  0  0  0  0  0
  1  2  2  0
  2  3  1  0
  3  4  1  0
  4  5  1  0
  5  6  1  0
  6  7  1  0
  7  8  1  0
  8  9  2  0
  9 10  1  0
 10 11  1  0
  4 12  1  0
 12 13  2  0
 12 14  1  0
 14  2  1  0
 11  7  2  0
  3 15  1  0
  3 16  1  0
  4 17  1  6
  5 18  1  0
  6 19  1  0
  6 20  1  0
  9 21  1  0
 14 22  1  0
M  END
$$$$

     RDKit          3D

 22 23  0  0  0  0  0  0  0  0999 V2000
   -4.2453    0.0904   -1.1407 O   0  0  0  0  0  0  0  0  0  0  0  0
   -3.1236    0.4211   -0.6365 C   0  0  0  0  0  0  0  0  0  0  0  0
   -1.8636   -0.3509   -0.6704 C   0  0  0  0  0  0  0  0  0  0  0  0
   -1.2553   -0.0278    0.6801 C   0  0  1  0  0  0  0  0  0  0  0  0
    0.1644    0.0769    0.5149 N   0  0  0  0  0  0  0  0  0  0  0  0
    0.8201   -1.1200    0.0883 C   0  0  0  0  0  0  0  0  0  0  0  0
    2.2839   -0.8231   -0.0283 C   0  0  0  0  0  0  0  0  0  0  0  0
    2.9224    0.3529    0.0822 N   0  0  0  0  0  0  0  0  0  0  0  0
    4.2609    0.1627   -0.0940 C   0  0  0  0  0  0  0  0  0  0  0  0
    4.4026   -1.1113   -0.3058 O   0  0  0  0  0  0  0  0  0  0  0  0
    3.2699   -1.7320   -0.2770 N   0  0  0  0  0  0  0  0  0  0  0  0
   -1.7931    1.3271    0.9709 C   0  0  0  0  0  0  0  0  0  0  0  0
   -1.3727    2.1130    1.8856 O   0  0  0  0  0  0  0  0  0  0  0  0
   -2.8527    1.6219    0.0735 N   0  0  0  0  0  0  0  0  0  0  0  0
   -1.2312    0.0946   -1.4626 H   0  0  0  0  0  0  0  0  0  0  0  0
   -2.0206   -1.4263   -0.7970 H   0  0  0  0  0  0  0  0  0  0  0  0
   -1.5613   -0.7360    1.4631 H   0  0  0  0  0  0  0  0  0  0  0  0
    0.5044    0.9357    0.0786 H   0  0  0  0  0  0  0  0  0  0  0  0
    0.4272   -1.4218   -0.9055 H   0  0  0  0  0  0  0  0  0  0  0  0
    0.6500   -1.9806    0.7555 H   0  0  0  0  0  0  0  0  0  0  0  0
    4.9598    0.9843   -0.0439 H   0  0  0  0  0  0  0  0  0  0  0  0
   -3.3462    2.5493   -0.0453 H   0  0  0  0  0  0  0  0  0  0  0  0
  1  2  2  0
  2  3  1  0
  3  4  1  0
  4  5  1  0
  5  6  1  0
  6  7  1  0
  7  8  1  0
  8  9  2  0
  9 10  1  0
 10 11  1  0
  4 12  1  0
 12 13  2  0
 12 14  1  0
 14  2  1  0
 11  7  2  0
  3 15  1  0
  3 16  1  0
  4 17  1  1
  5 18  1  0
  6 19  1  0
  6 20  1  0
  9 21  1  0
 14 22  1  0
M  END
$$$$

     RDKit          3D

 22 23  0  0  0  0  0  0  0  0999 V2000
   -4.0419    0.4462   -1.3680 O   0  0  0  0  0  0  0  0  0  0  0  0
   -3.0062    0.6447   -0.6729 C   0  0  0  0  0  0  0  0  0  0  0  0
   -1.8242   -0.2527   -0.6248 C   0  0  0  0  0  0  0  0  0  0  0  0
   -1.2539   -0.0235    0.7640 C   0  0  1  0  0  0  0  0  0  0  0  0
    0.1827    0.1051    0.6062 N   0  0  0  0  0  0  0  0  0  0  0  0
    0.7883   -1.0868    0.0859 C   0  0  0  0  0  0  0  0  0  0  0  0
    2.2434   -0.8760   -0.0442 C   0  0  0  0  0  0  0  0  0  0  0  0
    2.9398    0.2172    0.2694 N   0  0  0  0  0  0  0  0  0  0  0  0
    4.2415   -0.0013   -0.0012 C   0  0  0  0  0  0  0  0  0  0  0  0
    4.3016   -1.2231   -0.4724 O   0  0  0  0  0  0  0  0  0  0  0  0
    3.1313   -1.7670   -0.5097 N   0  0  0  0  0  0  0  0  0  0  0  0
   -1.8627    1.2465    1.2227 C   0  0  0  0  0  0  0  0  0  0  0  0
   -1.6350    1.7777    2.3352 O   0  0  0  0  0  0  0  0  0  0  0  0
   -2.7185    1.7255    0.2001 N   0  0  0  0  0  0  0  0  0  0  0  0
   -2.1920   -1.2954   -0.7265 H   0  0  0  0  0  0  0  0  0  0  0  0
   -1.1386    0.0526   -1.4255 H   0  0  0  0  0  0  0  0  0  0  0  0
   -1.5194   -0.8298    1.4587 H   0  0  0  0  0  0  0  0  0  0  0  0
    0.4599    0.9683    0.1324 H   0  0  0  0  0  0  0  0  0  0  0  0
    0.6365   -1.9158    0.7901 H   0  0  0  0  0  0  0  0  0  0  0  0
    0.3480   -1.3488   -0.8979 H   0  0  0  0  0  0  0  0  0  0  0  0
    5.0144    0.7311    0.1645 H   0  0  0  0  0  0  0  0  0  0  0  0
   -3.0949    2.7055    0.0796 H   0  0  0  0  0  0  0  0  0  0  0  0
  1  2  2  0
  2  3  1  0
  3  4  1  0
  4  5  1  0
  5  6  1  0
  6  7  1  0
  7  8  1  0
  8  9  2  0
  9 10  1  0
 10 11  1  0
  4 12  1  0
 12 13  2  0
 12 14  1  0
 14  2  1  0
 11  7  2  0
  3 15  1  0
  3 16  1  0
  4 17  1  1
  5 18  1  0
  6 19  1  0
  6 20  1  0
  9 21  1  0
 14 22  1  0
M  END
$$$$

     RDKit          3D

 22 23  0  0  0  0  0  0  0  0999 V2000
   -4.4155   -0.7521    0.3643 O   0  0  0  0  0  0  0  0  0  0  0  0
   -3.2542   -0.3954    0.0343 C   0  0  0  0  0  0  0  0  0  0  0  0
   -1.9589   -0.6071    0.7357 C   0  0  0  0  0  0  0  0  0  0  0  0
   -1.2303    0.6719    0.3787 C   0  0  1  0  0  0  0  0  0  0  0  0
    0.1643    0.6561    0.6294 N   0  0  0  0  0  0  0  0  0  0  0  0
    0.9123   -0.3101   -0.1173 C   0  0  0  0  0  0  0  0  0  0  0  0
    2.3452   -0.1758    0.2788 C   0  0  0  0  0  0  0  0  0  0  0  0
    3.0177   -0.7723    1.2673 N   0  0  0  0  0  0  0  0  0  0  0  0
    4.2768   -0.3035    1.1918 C   0  0  0  0  0  0  0  0  0  0  0  0
    4.3924    0.5501    0.1996 O   0  0  0  0  0  0  0  0  0  0  0  0
    3.2289    0.6349   -0.3599 N   0  0  0  0  0  0  0  0  0  0  0  0
   -1.5895    0.8227   -1.0490 C   0  0  0  0  0  0  0  0  0  0  0  0
   -0.9353    1.2710   -2.0185 O   0  0  0  0  0  0  0  0  0  0  0  0
   -2.9279    0.3278   -1.1498 N   0  0  0  0  0  0  0  0  0  0  0  0
   -1.4614   -1.4963    0.3047 H   0  0  0  0  0  0  0  0  0  0  0  0
   -2.1062   -0.7274    1.8317 H   0  0  0  0  0  0  0  0  0  0  0  0
   -1.6871    1.5063    0.9302 H   0  0  0  0  0  0  0  0  0  0  0  0
    0.3206    0.6094    1.6522 H   0  0  0  0  0  0  0  0  0  0  0  0
    0.7838   -0.1081   -1.1853 H   0  0  0  0  0  0  0  0  0  0  0  0
    0.5642   -1.3316    0.1567 H   0  0  0  0  0  0  0  0  0  0  0  0
    5.1150   -0.5579    1.8303 H   0  0  0  0  0  0  0  0  0  0  0  0
   -3.5549    0.4875   -1.9809 H   0  0  0  0  0  0  0  0  0  0  0  0
  1  2  2  0
  2  3  1  0
  3  4  1  0
  4  5  1  0
  5  6  1  0
  6  7  1  0
  7  8  1  0
  8  9  2  0
  9 10  1  0
 10 11  1  0
  4 12  1  0
 12 13  2  0
 12 14  1  0
 14  2  1  0
 11  7  2  0
  3 15  1  0
  3 16  1  0
  4 17  1  1
  5 18  1  0
  6 19  1  0
  6 20  1  0
  9 21  1  0
 14 22  1  0
M  END
$$$$
