
     RDKit          3D

 28 28  0  0  0  0  0  0  0  0999 V2000
   -2.4372    1.0183   -0.5464 C   0  0  0  0  0  0  0  0  0  0  0  0
   -2.3039   -0.0640    0.4853 C   0  0  1  0  0  0  0  0  0  0  0  0
   -3.7080   -0.6156    0.7788 C   0  0  0  0  0  0  0  0  0  0  0  0
   -4.5584    0.3588    1.2572 O   0  0  0  0  0  0  0  0  0  0  0  0
   -1.4748   -1.2274    0.0609 C   0  0  0  0  0  0  0  0  0  0  0  0
   -0.1279   -0.9628   -0.2740 N   0  0  0  0  0  0  0  0  0  0  0  0
    0.7319   -0.5835    0.7918 C   0  0  0  0  0  0  0  0  0  0  0  0
    2.0984   -0.3567    0.2334 C   0  0  0  0  0  0  0  0  0  0  0  0
    2.7507   -1.2707   -0.5356 N   0  0  0  0  0  0  0  0  0  0  0  0
    3.9317   -0.7687   -0.8627 N   0  0  0  0  0  0  0  0  0  0  0  0
    4.0596    0.4244   -0.3357 N   0  0  0  0  0  0  0  0  0  0  0  0
    5.2098    1.3137   -0.4527 C   0  0  0  0  0  0  0  0  0  0  0  0
    2.9306    0.6661    0.3331 N   0  0  0  0  0  0  0  0  0  0  0  0
   -3.5050    1.3924   -0.6089 H   0  0  0  0  0  0  0  0  0  0  0  0
   -1.8149    1.8984   -0.3549 H   0  0  0  0  0  0  0  0  0  0  0  0
   -2.2471    0.6319   -1.5855 H   0  0  0  0  0  0  0  0  0  0  0  0
   -1.9536    0.4226    1.4222 H   0  0  0  0  0  0  0  0  0  0  0  0
   -4.1459   -0.9964   -0.1750 H   0  0  0  0  0  0  0  0  0  0  0  0
   -3.6075   -1.4586    1.5219 H   0  0  0  0  0  0  0  0  0  0  0  0
   -4.1186    0.9393    1.8969 H   0  0  0  0  0  0  0  0  0  0  0  0
   -1.4653   -2.0346    0.8481 H   0  0  0  0  0  0  0  0  0  0  0  0
   -1.9752   -1.7004   -0.8138 H   0  0  0  0  0  0  0  0  0  0  0  0
    0.1018   -0.6339   -1.2075 H   0  0  0  0  0  0  0  0  0  0  0  0
    0.3566    0.3586    1.2390 H   0  0  0  0  0  0  0  0  0  0  0  0
    0.7731   -1.3755    1.5701 H   0  0  0  0  0  0  0  0  0  0  0  0
    5.1526    1.9633   -1.3444 H   0  0  0  0  0  0  0  0  0  0  0  0
    6.1370    0.6985   -0.4681 H   0  0  0  0  0  0  0  0  0  0  0  0
    5.2096    1.9625    0.4536 H   0  0  0  0  0  0  0  0  0  0  0  0
  1  2  1  0
  2  3  1  0
  3  4  1  0
  2  5  1  0
  5  6  1  0
  6  7  1  0
  7  8  1  0
  8  9  1  0
  9 10  2  0
 10 11  1  0
 11 12  1  0
 11 13  1  0
 13  8  2  0
  1 14  1  0
  1 15  1  0
  1 16  1  0
  2 17  1  1
  3 18  1  0
  3 19  1  0
  4 20  1  0
  5 21  1  0
  5 22  1  0
  6 23  1  0
  7 24  1  0
  7 25  1  0
 12 26  1  0
 12 27  1  0
 12 28  1  0
M  END
$$$$

     RDKit          3D

 28 28  0  0  0  0  0  0  0  0999 V2000
   -2.8611   -1.1642   -0.5868 C   0  0  0  0  0  0  0  0  0  0  0  0
   -2.5621    0.2975   -0.5604 C   0  0  1  0  0  0  0  0  0  0  0  0
   -3.7744    1.0441   -0.0099 C   0  0  0  0  0  0  0  0  0  0  0  0
   -4.0052    0.5630    1.2777 O   0  0  0  0  0  0  0  0  0  0  0  0
   -1.3950    0.6600    0.3283 C   0  0  0  0  0  0  0  0  0  0  0  0
   -0.1646    0.0214   -0.0761 N   0  0  0  0  0  0  0  0  0  0  0  0
    0.8619    0.4562    0.8580 C   0  0  0  0  0  0  0  0  0  0  0  0
    2.1845   -0.1353    0.5480 C   0  0  0  0  0  0  0  0  0  0  0  0
    2.6769   -1.2946    1.0177 N   0  0  0  0  0  0  0  0  0  0  0  0
    3.8867   -1.4719    0.5076 N   0  0  0  0  0  0  0  0  0  0  0  0
    4.1728   -0.4478   -0.2772 N   0  0  0  0  0  0  0  0  0  0  0  0
    5.4067   -0.2299   -1.0460 C   0  0  0  0  0  0  0  0  0  0  0  0
    3.1476    0.3542   -0.2510 N   0  0  0  0  0  0  0  0  0  0  0  0
   -3.8786   -1.4060   -0.1672 H   0  0  0  0  0  0  0  0  0  0  0  0
   -2.0924   -1.7942   -0.0945 H   0  0  0  0  0  0  0  0  0  0  0  0
   -2.9047   -1.5041   -1.6444 H   0  0  0  0  0  0  0  0  0  0  0  0
   -2.4019    0.6931   -1.5822 H   0  0  0  0  0  0  0  0  0  0  0  0
   -3.5059    2.1133    0.0803 H   0  0  0  0  0  0  0  0  0  0  0  0
   -4.6664    0.8999   -0.6634 H   0  0  0  0  0  0  0  0  0  0  0  0
   -3.5159   -0.2626    1.4831 H   0  0  0  0  0  0  0  0  0  0  0  0
   -1.2356    1.7632    0.1930 H   0  0  0  0  0  0  0  0  0  0  0  0
   -1.6166    0.4752    1.3834 H   0  0  0  0  0  0  0  0  0  0  0  0
   -0.2147   -0.9987   -0.1505 H   0  0  0  0  0  0  0  0  0  0  0  0
    0.5506    0.2086    1.9030 H   0  0  0  0  0  0  0  0  0  0  0  0
    0.8920    1.5793    0.7613 H   0  0  0  0  0  0  0  0  0  0  0  0
    6.1290   -1.0364   -0.8697 H   0  0  0  0  0  0  0  0  0  0  0  0
    5.0925   -0.1545   -2.1114 H   0  0  0  0  0  0  0  0  0  0  0  0
    5.7939    0.7712   -0.7639 H   0  0  0  0  0  0  0  0  0  0  0  0
  1  2  1  0
  2  3  1  0
  3  4  1  0
  2  5  1  0
  5  6  1  0
  6  7  1  0
  7  8  1  0
  8  9  1  0
  9 10  2  0
 10 11  1  0
 11 12  1  0
 11 13  1  0
 13  8  2  0
  1 14  1  0
  1 15  1  0
  1 16  1  0
  2 17  1  6
  3 18  1  0
  3 19  1  0
  4 20  1  0
  5 21  1  0
  5 22  1  0
  6 23  1  0
  7 24  1  0
  7 25  1  0
 12 26  1  0
 12 27  1  0
 12 28  1  0
M  END
$$$$

     RDKit          3D

 28 28  0  0  0  0  0  0  0  0999 V2000
   -2.5109    0.9825   -0.9648 C   0  0  0  0  0  0  0  0  0  0  0  0
   -2.5900    0.8621    0.5192 C   0  0  1  0  0  0  0  0  0  0  0  0
   -2.7964   -0.6248    0.8266 C   0  0  0  0  0  0  0  0  0  0  0  0
   -1.7031   -1.3276    0.3105 O   0  0  0  0  0  0  0  0  0  0  0  0
   -1.4445    1.3910    1.3017 C   0  0  0  0  0  0  0  0  0  0  0  0
   -0.1723    0.8477    1.1190 N   0  0  0  0  0  0  0  0  0  0  0  0
    0.5384    1.0307   -0.0813 C   0  0  0  0  0  0  0  0  0  0  0  0
    1.9094    0.4090   -0.0303 C   0  0  0  0  0  0  0  0  0  0  0  0
    3.0389    1.0468    0.3244 N   0  0  0  0  0  0  0  0  0  0  0  0
    4.0295    0.1802    0.2523 N   0  0  0  0  0  0  0  0  0  0  0  0
    3.5790   -0.9988   -0.1378 N   0  0  0  0  0  0  0  0  0  0  0  0
    4.3231   -2.2302   -0.3466 C   0  0  0  0  0  0  0  0  0  0  0  0
    2.2568   -0.8426   -0.3108 N   0  0  0  0  0  0  0  0  0  0  0  0
   -1.8719    1.8254   -1.3129 H   0  0  0  0  0  0  0  0  0  0  0  0
   -2.2044    0.0713   -1.4976 H   0  0  0  0  0  0  0  0  0  0  0  0
   -3.5325    1.2496   -1.3953 H   0  0  0  0  0  0  0  0  0  0  0  0
   -3.5391    1.3456    0.9061 H   0  0  0  0  0  0  0  0  0  0  0  0
   -2.7945   -0.7001    1.9404 H   0  0  0  0  0  0  0  0  0  0  0  0
   -3.7431   -0.9991    0.3902 H   0  0  0  0  0  0  0  0  0  0  0  0
   -1.9849   -2.2512    0.1432 H   0  0  0  0  0  0  0  0  0  0  0  0
   -1.7032    1.2488    2.4077 H   0  0  0  0  0  0  0  0  0  0  0  0
   -1.4336    2.5320    1.2029 H   0  0  0  0  0  0  0  0  0  0  0  0
    0.1493    0.0883    1.7171 H   0  0  0  0  0  0  0  0  0  0  0  0
    0.6508    2.0795   -0.3754 H   0  0  0  0  0  0  0  0  0  0  0  0
    0.0255    0.4921   -0.9338 H   0  0  0  0  0  0  0  0  0  0  0  0
    5.3262   -2.0647   -0.7730 H   0  0  0  0  0  0  0  0  0  0  0  0
    4.4254   -2.7982    0.6232 H   0  0  0  0  0  0  0  0  0  0  0  0
    3.7722   -2.8453   -1.0960 H   0  0  0  0  0  0  0  0  0  0  0  0
  1  2  1  0
  2  3  1  0
  3  4  1  0
  2  5  1  0
  5  6  1  0
  6  7  1  0
  7  8  1  0
  8  9  1  0
  9 10  2  0
 10 11  1  0
 11 12  1  0
 11 13  1  0
 13  8  2  0
  1 14  1  0
  1 15  1  0
  1 16  1  0
  2 17  1  1
  3 18  1  0
  3 19  1  0
  4 20  1  0
  5 21  1  0
  5 22  1  0
  6 23  1  0
  7 24  1  0
  7 25  1  0
 12 26  1  0
 12 27  1  0
 12 28  1  0
M  END
$$$$

     RDKit          3D

 28 28  0  0  0  0  0  0  0  0999 V2000
   -3.2840    1.2595   -0.1026 C   0  0  0  0  0  0  0  0  0  0  0  0
   -2.2913    0.1137    0.0813 C   0  0  1  0  0  0  0  0  0  0  0  0
   -2.8929   -1.2192   -0.1317 C   0  0  0  0  0  0  0  0  0  0  0  0
   -3.9268   -1.4131    0.7868 O   0  0  0  0  0  0  0  0  0  0  0  0
   -1.0981    0.4506   -0.7479 C   0  0  0  0  0  0  0  0  0  0  0  0
   -0.0487   -0.4634   -0.7333 N   0  0  0  0  0  0  0  0  0  0  0  0
    0.5342   -0.6122    0.5699 C   0  0  0  0  0  0  0  0  0  0  0  0
    1.9952   -0.3878    0.4920 C   0  0  0  0  0  0  0  0  0  0  0  0
    2.8204   -0.2619    1.5269 N   0  0  0  0  0  0  0  0  0  0  0  0
    3.9876    0.0212    1.0745 N   0  0  0  0  0  0  0  0  0  0  0  0
    3.9777    0.0900   -0.2399 N   0  0  0  0  0  0  0  0  0  0  0  0
    5.0876    0.4762   -1.1046 C   0  0  0  0  0  0  0  0  0  0  0  0
    2.7455   -0.1660   -0.6241 N   0  0  0  0  0  0  0  0  0  0  0  0
   -4.2046    1.1084    0.4432 H   0  0  0  0  0  0  0  0  0  0  0  0
   -3.3684    1.4955   -1.1749 H   0  0  0  0  0  0  0  0  0  0  0  0
   -2.7410    2.1483    0.3834 H   0  0  0  0  0  0  0  0  0  0  0  0
   -2.0176    0.1988    1.1976 H   0  0  0  0  0  0  0  0  0  0  0  0
   -3.1911   -1.3603   -1.1686 H   0  0  0  0  0  0  0  0  0  0  0  0
   -2.1081   -2.0071    0.0505 H   0  0  0  0  0  0  0  0  0  0  0  0
   -4.7889   -1.2030    0.3086 H   0  0  0  0  0  0  0  0  0  0  0  0
   -1.4557    0.6508   -1.8030 H   0  0  0  0  0  0  0  0  0  0  0  0
   -0.7304    1.4765   -0.4277 H   0  0  0  0  0  0  0  0  0  0  0  0
    0.5920   -0.5233   -1.4984 H   0  0  0  0  0  0  0  0  0  0  0  0
    0.3796   -1.7021    0.8872 H   0  0  0  0  0  0  0  0  0  0  0  0
    0.1311   -0.0095    1.3749 H   0  0  0  0  0  0  0  0  0  0  0  0
    5.0206   -0.0618   -2.0574 H   0  0  0  0  0  0  0  0  0  0  0  0
    6.0099    0.3358   -0.5835 H   0  0  0  0  0  0  0  0  0  0  0  0
    4.8664    1.5654   -1.3343 H   0  0  0  0  0  0  0  0  0  0  0  0
  1  2  1  0
  2  3  1  0
  3  4  1  0
  2  5  1  0
  5  6  1  0
  6  7  1  0
  7  8  1  0
  8  9  1  0
  9 10  2  0
 10 11  1  0
 11 12  1  0
 11 13  1  0
 13  8  2  0
  1 14  1  0
  1 15  1  0
  1 16  1  0
  2 17  1  1
  3 18  1  0
  3 19  1  0
  4 20  1  0
  5 21  1  0
  5 22  1  0
  6 23  1  0
  7 24  1  0
  7 25  1  0
 12 26  1  0
 12 27  1  0
 12 28  1  0
M  END
$$$$

     RDKit          3D

 28 28  0  0  0  0  0  0  0  0999 V2000
   -2.5522    1.1372    0.3879 C   0  0  0  0  0  0  0  0  0  0  0  0
   -2.6758   -0.3367    0.4363 C   0  0  1  0  0  0  0  0  0  0  0  0
   -3.1753   -0.8245   -0.9190 C   0  0  0  0  0  0  0  0  0  0  0  0
   -2.2523   -0.4458   -1.8785 O   0  0  0  0  0  0  0  0  0  0  0  0
   -1.5391   -1.1278    0.9496 C   0  0  0  0  0  0  0  0  0  0  0  0
   -0.2897   -1.0509    0.3099 N   0  0  0  0  0  0  0  0  0  0  0  0
    0.4521    0.1494    0.4352 C   0  0  0  0  0  0  0  0  0  0  0  0
    1.7596    0.0826   -0.2889 C   0  0  0  0  0  0  0  0  0  0  0  0
    2.0503   -0.5154   -1.4396 N   0  0  0  0  0  0  0  0  0  0  0  0
    3.3541   -0.2949   -1.6681 N   0  0  0  0  0  0  0  0  0  0  0  0
    3.8794    0.4120   -0.7100 N   0  0  0  0  0  0  0  0  0  0  0  0
    5.2304    0.9035   -0.4958 C   0  0  0  0  0  0  0  0  0  0  0  0
    2.8782    0.6486    0.1552 N   0  0  0  0  0  0  0  0  0  0  0  0
   -2.2437    1.5146   -0.6223 H   0  0  0  0  0  0  0  0  0  0  0  0
   -2.0356    1.6221    1.2231 H   0  0  0  0  0  0  0  0  0  0  0  0
   -3.6173    1.5443    0.4739 H   0  0  0  0  0  0  0  0  0  0  0  0
   -3.5444   -0.5577    1.1491 H   0  0  0  0  0  0  0  0  0  0  0  0
   -4.1374   -0.2736   -1.1357 H   0  0  0  0  0  0  0  0  0  0  0  0
   -3.3474   -1.9168   -0.8575 H   0  0  0  0  0  0  0  0  0  0  0  0
   -2.6758   -0.1276   -2.7168 H   0  0  0  0  0  0  0  0  0  0  0  0
   -1.8714   -2.2158    0.9275 H   0  0  0  0  0  0  0  0  0  0  0  0
   -1.4013   -0.9536    2.0654 H   0  0  0  0  0  0  0  0  0  0  0  0
    0.3084   -1.8468    0.6455 H   0  0  0  0  0  0  0  0  0  0  0  0
    0.7127    0.2520    1.5325 H   0  0  0  0  0  0  0  0  0  0  0  0
   -0.0727    1.0219    0.0575 H   0  0  0  0  0  0  0  0  0  0  0  0
    5.1922    1.8449    0.1243 H   0  0  0  0  0  0  0  0  0  0  0  0
    5.8737    0.1977    0.0631 H   0  0  0  0  0  0  0  0  0  0  0  0
    5.7402    1.1571   -1.4682 H   0  0  0  0  0  0  0  0  0  0  0  0
  1  2  1  0
  2  3  1  0
  3  4  1  0
  2  5  1  0
  5  6  1  0
  6  7  1  0
  7  8  1  0
  8  9  1  0
  9 10  2  0
 10 11  1  0
 11 12  1  0
 11 13  1  0
 13  8  2  0
  1 14  1  0
  1 15  1  0
  1 16  1  0
  2 17  1  1
  3 18  1  0
  3 19  1  0
  4 20  1  0
  5 21  1  0
  5 22  1  0
  6 23  1  0
  7 24  1  0
  7 25  1  0
 12 26  1  0
 12 27  1  0
 12 28  1  0
M  END
$$$$

     RDKit          3D

 28 28  0  0  0  0  0  0  0  0999 V2000
   -3.6826    1.3400    0.0128 C   0  0  0  0  0  0  0  0  0  0  0  0
   -2.4630    0.5714    0.4889 C   0  0  1  0  0  0  0  0  0  0  0  0
   -2.7667   -0.8960    0.6539 C   0  0  0  0  0  0  0  0  0  0  0  0
   -3.7857   -1.0689    1.5924 O   0  0  0  0  0  0  0  0  0  0  0  0
   -1.3809    0.7686   -0.5278 C   0  0  0  0  0  0  0  0  0  0  0  0
   -0.1586    0.0617   -0.1544 N   0  0  0  0  0  0  0  0  0  0  0  0
    0.8268    0.3206   -1.2103 C   0  0  0  0  0  0  0  0  0  0  0  0
    2.1039   -0.3722   -0.8955 C   0  0  0  0  0  0  0  0  0  0  0  0
    2.4542   -1.6257   -1.2608 N   0  0  0  0  0  0  0  0  0  0  0  0
    3.6654   -1.8683   -0.7861 N   0  0  0  0  0  0  0  0  0  0  0  0
    4.1145   -0.8079   -0.1216 N   0  0  0  0  0  0  0  0  0  0  0  0
    5.4137   -0.6949    0.5460 C   0  0  0  0  0  0  0  0  0  0  0  0
    3.1592    0.0959   -0.1934 N   0  0  0  0  0  0  0  0  0  0  0  0
   -3.9191    0.9937   -1.0206 H   0  0  0  0  0  0  0  0  0  0  0  0
   -4.5394    1.2384    0.6795 H   0  0  0  0  0  0  0  0  0  0  0  0
   -3.3960    2.4090   -0.0250 H   0  0  0  0  0  0  0  0  0  0  0  0
   -2.1656    0.9823    1.4585 H   0  0  0  0  0  0  0  0  0  0  0  0
   -1.8584   -1.3650    1.0912 H   0  0  0  0  0  0  0  0  0  0  0  0
   -3.0886   -1.3749   -0.2838 H   0  0  0  0  0  0  0  0  0  0  0  0
   -4.6443   -0.8571    1.1134 H   0  0  0  0  0  0  0  0  0  0  0  0
   -1.6986    0.4646   -1.5369 H   0  0  0  0  0  0  0  0  0  0  0  0
   -1.1012    1.8435   -0.5898 H   0  0  0  0  0  0  0  0  0  0  0  0
    0.1817    0.4479    0.7363 H   0  0  0  0  0  0  0  0  0  0  0  0
    0.4594   -0.0295   -2.1847 H   0  0  0  0  0  0  0  0  0  0  0  0
    1.0419    1.4130   -1.2434 H   0  0  0  0  0  0  0  0  0  0  0  0
    5.5747   -1.5213    1.2648 H   0  0  0  0  0  0  0  0  0  0  0  0
    5.4360    0.2728    1.0486 H   0  0  0  0  0  0  0  0  0  0  0  0
    6.2172   -0.7416   -0.2405 H   0  0  0  0  0  0  0  0  0  0  0  0
  1  2  1  0
  2  3  1  0
  3  4  1  0
  2  5  1  0
  5  6  1  0
  6  7  1  0
  7  8  1  0
  8  9  1  0
  9 10  2  0
 10 11  1  0
 11 12  1  0
 11 13  1  0
 13  8  2  0
  1 14  1  0
  1 15  1  0
  1 16  1  0
  2 17  1  1
  3 18  1  0
  3 19  1  0
  4 20  1  0
  5 21  1  0
  5 22  1  0
  6 23  1  0
  7 24  1  0
  7 25  1  0
 12 26  1  0
 12 27  1  0
 12 28  1  0
M  END
$$$$

     RDKit          3D

 28 28  0  0  0  0  0  0  0  0999 V2000
   -2.5901   -1.3308    0.2322 C   0  0  0  0  0  0  0  0  0  0  0  0
   -2.4128    0.0997   -0.2448 C   0  0  1  0  0  0  0  0  0  0  0  0
   -3.7270    0.8445   -0.2340 C   0  0  0  0  0  0  0  0  0  0  0  0
   -3.4936    2.1347   -0.6768 O   0  0  0  0  0  0  0  0  0  0  0  0
   -1.4428    0.8217    0.6440 C   0  0  0  0  0  0  0  0  0  0  0  0
   -0.1368    0.2292    0.6809 N   0  0  0  0  0  0  0  0  0  0  0  0
    0.5613    0.3523   -0.5703 C   0  0  0  0  0  0  0  0  0  0  0  0
    1.9086   -0.2985   -0.4254 C   0  0  0  0  0  0  0  0  0  0  0  0
    2.2022   -1.5972   -0.6104 N   0  0  0  0  0  0  0  0  0  0  0  0
    3.4930   -1.7648   -0.3884 N   0  0  0  0  0  0  0  0  0  0  0  0
    4.0536   -0.6124   -0.0630 N   0  0  0  0  0  0  0  0  0  0  0  0
    5.4594   -0.4229    0.2479 C   0  0  0  0  0  0  0  0  0  0  0  0
    3.0816    0.2819   -0.0866 N   0  0  0  0  0  0  0  0  0  0  0  0
   -3.0769   -1.2697    1.2272 H   0  0  0  0  0  0  0  0  0  0  0  0
   -1.6159   -1.8280    0.2937 H   0  0  0  0  0  0  0  0  0  0  0  0
   -3.2348   -1.8502   -0.5112 H   0  0  0  0  0  0  0  0  0  0  0  0
   -2.0166    0.1300   -1.2770 H   0  0  0  0  0  0  0  0  0  0  0  0
   -4.1211    0.8878    0.7856 H   0  0  0  0  0  0  0  0  0  0  0  0
   -4.4779    0.3260   -0.8734 H   0  0  0  0  0  0  0  0  0  0  0  0
   -3.3456    2.7590    0.0923 H   0  0  0  0  0  0  0  0  0  0  0  0
   -1.8303    0.7990    1.7006 H   0  0  0  0  0  0  0  0  0  0  0  0
   -1.3742    1.8807    0.3542 H   0  0  0  0  0  0  0  0  0  0  0  0
   -0.1098   -0.7128    1.0863 H   0  0  0  0  0  0  0  0  0  0  0  0
    0.7384    1.4083   -0.8178 H   0  0  0  0  0  0  0  0  0  0  0  0
    0.0409   -0.1069   -1.4266 H   0  0  0  0  0  0  0  0  0  0  0  0
    5.7260    0.6208    0.0243 H   0  0  0  0  0  0  0  0  0  0  0  0
    5.6800   -0.7150    1.2959 H   0  0  0  0  0  0  0  0  0  0  0  0
    6.0611   -1.0665   -0.4592 H   0  0  0  0  0  0  0  0  0  0  0  0
  1  2  1  0
  2  3  1  0
  3  4  1  0
  2  5  1  0
  5  6  1  0
  6  7  1  0
  7  8  1  0
  8  9  1  0
  9 10  2  0
 10 11  1  0
 11 12  1  0
 11 13  1  0
 13  8  2  0
  1 14  1  0
  1 15  1  0
  1 16  1  0
  2 17  1  6
  3 18  1  0
  3 19  1  0
  4 20  1  0
  5 21  1  0
  5 22  1  0
  6 23  1  0
  7 24  1  0
  7 25  1  0
 12 26  1  0
 12 27  1  0
 12 28  1  0
M  END
$$$$

     RDKit          3D

 28 28  0  0  0  0  0  0  0  0999 V2000
   -3.7638   -0.0089   -0.8576 C   0  0  0  0  0  0  0  0  0  0  0  0
   -2.3607    0.1757   -0.3569 C   0  0  1  0  0  0  0  0  0  0  0  0
   -2.3096    0.9551    0.9300 C   0  0  0  0  0  0  0  0  0  0  0  0
   -2.9887    0.3832    1.9715 O   0  0  0  0  0  0  0  0  0  0  0  0
   -1.6534   -1.1369   -0.2781 C   0  0  0  0  0  0  0  0  0  0  0  0
   -0.3085   -1.0276    0.1949 N   0  0  0  0  0  0  0  0  0  0  0  0
    0.5811   -0.3590   -0.7127 C   0  0  0  0  0  0  0  0  0  0  0  0
    1.9309   -0.3301   -0.0848 C   0  0  0  0  0  0  0  0  0  0  0  0
    2.3282   -0.8775    1.0631 N   0  0  0  0  0  0  0  0  0  0  0  0
    3.6193   -0.6008    1.2326 N   0  0  0  0  0  0  0  0  0  0  0  0
    4.0215    0.1094    0.2052 N   0  0  0  0  0  0  0  0  0  0  0  0
    5.3233    0.6170   -0.0169 C   0  0  0  0  0  0  0  0  0  0  0  0
    2.9944    0.2817   -0.6100 N   0  0  0  0  0  0  0  0  0  0  0  0
   -4.5250    0.4325   -0.1713 H   0  0  0  0  0  0  0  0  0  0  0  0
   -4.0347   -1.0853   -0.9793 H   0  0  0  0  0  0  0  0  0  0  0  0
   -3.9018    0.4843   -1.8485 H   0  0  0  0  0  0  0  0  0  0  0  0
   -1.8029    0.7989   -1.1136 H   0  0  0  0  0  0  0  0  0  0  0  0
   -1.2608    1.1190    1.2522 H   0  0  0  0  0  0  0  0  0  0  0  0
   -2.7182    1.9782    0.7328 H   0  0  0  0  0  0  0  0  0  0  0  0
   -2.9307   -0.5861    2.0350 H   0  0  0  0  0  0  0  0  0  0  0  0
   -1.6083   -1.5571   -1.3188 H   0  0  0  0  0  0  0  0  0  0  0  0
   -2.1965   -1.8966    0.3205 H   0  0  0  0  0  0  0  0  0  0  0  0
   -0.1999   -0.7395    1.1732 H   0  0  0  0  0  0  0  0  0  0  0  0
    0.6953   -0.8994   -1.6773 H   0  0  0  0  0  0  0  0  0  0  0  0
    0.2206    0.6691   -0.9581 H   0  0  0  0  0  0  0  0  0  0  0  0
    5.8175    0.2009   -0.8966 H   0  0  0  0  0  0  0  0  0  0  0  0
    5.4316    1.3722   -0.0678 H   0  0  0  0  0  0  0  0  0  0  0  0
    5.5998    1.5275    0.4574 H   0  0  0  0  0  0  0  0  0  0  0  0
  1  2  1  0
  2  3  1  0
  3  4  1  0
  2  5  1  0
  5  6  1  0
  6  7  1  0
  7  8  1  0
  8  9  1  0
  9 10  2  0
 10 11  1  0
 11 12  1  0
 11 13  1  0
 13  8  2  0
  1 14  1  0
  1 15  1  0
  1 16  1  0
  2 17  1  6
  3 18  1  0
  3 19  1  0
  4 20  1  0
  5 21  1  0
  5 22  1  0
  6 23  1  0
  7 24  1  0
  7 25  1  0
 12 26  1  0
 12 27  1  0
 12 28  1  0
M  END
$$$$
