
     RDKit          3D

 29 28  0  0  0  0  0  0  0  0999 V2000
   -1.5456    0.7812   -1.2012 C   0  0  0  0  0  0  0  0  0  0  0  0
   -1.1352   -0.4067   -0.3881 C   0  0  2  0  0  0  0  0  0  0  0  0
   -2.1637   -0.8417    0.6201 C   0  0  0  0  0  0  0  0  0  0  0  0
   -3.4471   -1.2299    0.0616 C   0  0  0  0  0  0  0  0  0  0  0  0
   -4.6846   -0.6467    0.4323 N   0  0  0  0  0  0  0  0  0  0  0  0
   -3.5049   -2.1362   -0.8100 O   0  0  0  0  0  0  0  0  0  0  0  0
    0.0422   -0.0271    0.3795 N   0  0  0  0  0  0  0  0  0  0  0  0
    1.1548    0.3214   -0.4613 C   0  0  0  0  0  0  0  0  0  0  0  0
    2.3142    0.6745    0.4694 C   0  0  1  0  0  0  0  0  0  0  0  0
    2.5735   -0.5131    1.2505 N   0  0  0  0  0  0  0  0  0  0  0  0
    3.5126    1.0646   -0.2714 C   0  0  0  0  0  0  0  0  0  0  0  0
    4.6972    0.2905   -0.1752 N   0  0  0  0  0  0  0  0  0  0  0  0
    3.5090    2.0999   -1.0099 O   0  0  0  0  0  0  0  0  0  0  0  0
   -1.3330    0.6025   -2.2732 H   0  0  0  0  0  0  0  0  0  0  0  0
   -0.9814    1.7179   -0.9453 H   0  0  0  0  0  0  0  0  0  0  0  0
   -2.6083    1.0508   -1.1228 H   0  0  0  0  0  0  0  0  0  0  0  0
   -0.8928   -1.2667   -1.0414 H   0  0  0  0  0  0  0  0  0  0  0  0
   -1.6850   -1.6753    1.2061 H   0  0  0  0  0  0  0  0  0  0  0  0
   -2.2715   -0.0031    1.3608 H   0  0  0  0  0  0  0  0  0  0  0  0
   -4.9866   -0.4422    1.4039 H   0  0  0  0  0  0  0  0  0  0  0  0
   -5.3434   -0.4030   -0.3659 H   0  0  0  0  0  0  0  0  0  0  0  0
   -0.2069    0.7964    0.9402 H   0  0  0  0  0  0  0  0  0  0  0  0
    1.4753   -0.5063   -1.1326 H   0  0  0  0  0  0  0  0  0  0  0  0
    0.9754    1.2161   -1.0780 H   0  0  0  0  0  0  0  0  0  0  0  0
    1.9667    1.4633    1.1796 H   0  0  0  0  0  0  0  0  0  0  0  0
    2.4073   -1.3546    0.6173 H   0  0  0  0  0  0  0  0  0  0  0  0
    1.9176   -0.6387    2.0464 H   0  0  0  0  0  0  0  0  0  0  0  0
    4.9355   -0.3415   -0.9570 H   0  0  0  0  0  0  0  0  0  0  0  0
    5.3084    0.3537    0.6581 H   0  0  0  0  0  0  0  0  0  0  0  0
  1  2  1  0
  2  3  1  0
  3  4  1  0
  4  5  1  0
  4  6  2  0
  2  7  1  0
  7  8  1  0
  8  9  1  0
  9 10  1  0
  9 11  1  0
 11 12  1  0
 11 13  2  0
  1 14  1  0
  1 15  1  0
  1 16  1  0
  2 17  1  6
  3 18  1  0
  3 19  1  0
  5 20  1  0
  5 21  1  0
  7 22  1  0
  8 23  1  0
  8 24  1  0
  9 25  1  1
 10 26  1  0
 10 27  1  0
 12 28  1  0
 12 29  1  0
M  END
$$$$

     RDKit          3D

 29 28  0  0  0  0  0  0  0  0999 V2000
    0.5980   -1.9110    0.3674 C   0  0  0  0  0  0  0  0  0  0  0  0
    1.1616   -0.6918   -0.3150 C   0  0  2  0  0  0  0  0  0  0  0  0
    2.5325   -0.4690    0.3180 C   0  0  0  0  0  0  0  0  0  0  0  0
    3.2087    0.7018   -0.2566 C   0  0  0  0  0  0  0  0  0  0  0  0
    4.4946    1.0395    0.2443 N   0  0  0  0  0  0  0  0  0  0  0  0
    2.7076    1.4149   -1.1670 O   0  0  0  0  0  0  0  0  0  0  0  0
    0.4174    0.4748   -0.1657 N   0  0  0  0  0  0  0  0  0  0  0  0
   -0.8689    0.6304   -0.6844 C   0  0  0  0  0  0  0  0  0  0  0  0
   -1.9538   -0.1539   -0.0383 C   0  0  1  0  0  0  0  0  0  0  0  0
   -2.0284    0.2071    1.3672 N   0  0  0  0  0  0  0  0  0  0  0  0
   -3.2771    0.1793   -0.6755 C   0  0  0  0  0  0  0  0  0  0  0  0
   -4.2990    0.8128    0.0500 N   0  0  0  0  0  0  0  0  0  0  0  0
   -3.4581   -0.1206   -1.8917 O   0  0  0  0  0  0  0  0  0  0  0  0
    1.4543   -2.5695    0.7519 H   0  0  0  0  0  0  0  0  0  0  0  0
    0.0148   -1.6560    1.2578 H   0  0  0  0  0  0  0  0  0  0  0  0
    0.0834   -2.5646   -0.3483 H   0  0  0  0  0  0  0  0  0  0  0  0
    1.3007   -0.9060   -1.4125 H   0  0  0  0  0  0  0  0  0  0  0  0
    3.1307   -1.3887    0.2062 H   0  0  0  0  0  0  0  0  0  0  0  0
    2.3502   -0.2598    1.3906 H   0  0  0  0  0  0  0  0  0  0  0  0
    5.3274    0.4610    0.0473 H   0  0  0  0  0  0  0  0  0  0  0  0
    4.6165    1.8889    0.8264 H   0  0  0  0  0  0  0  0  0  0  0  0
    0.6033    0.9703    0.7145 H   0  0  0  0  0  0  0  0  0  0  0  0
   -1.1618    1.7248   -0.7700 H   0  0  0  0  0  0  0  0  0  0  0  0
   -0.8873    0.3125   -1.7853 H   0  0  0  0  0  0  0  0  0  0  0  0
   -1.8095   -1.2201   -0.1422 H   0  0  0  0  0  0  0  0  0  0  0  0
   -2.8749   -0.2311    1.7883 H   0  0  0  0  0  0  0  0  0  0  0  0
   -2.0157    1.2143    1.5250 H   0  0  0  0  0  0  0  0  0  0  0  0
   -5.2534    0.9208   -0.3618 H   0  0  0  0  0  0  0  0  0  0  0  0
   -4.1139    1.1891    1.0214 H   0  0  0  0  0  0  0  0  0  0  0  0
  1  2  1  0
  2  3  1  0
  3  4  1  0
  4  5  1  0
  4  6  2  0
  2  7  1  0
  7  8  1  0
  8  9  1  0
  9 10  1  0
  9 11  1  0
 11 12  1  0
 11 13  2  0
  1 14  1  0
  1 15  1  0
  1 16  1  0
  2 17  1  6
  3 18  1  0
  3 19  1  0
  5 20  1  0
  5 21  1  0
  7 22  1  0
  8 23  1  0
  8 24  1  0
  9 25  1  1
 10 26  1  0
 10 27  1  0
 12 28  1  0
 12 29  1  0
M  END
$$$$

     RDKit          3D

 29 28  0  0  0  0  0  0  0  0999 V2000
    0.8306   -2.1543   -0.0885 C   0  0  0  0  0  0  0  0  0  0  0  0
    1.2684   -0.7175   -0.1004 C   0  0  2  0  0  0  0  0  0  0  0  0
    2.5821   -0.4956    0.6146 C   0  0  0  0  0  0  0  0  0  0  0  0
    2.9430    0.9342    0.5652 C   0  0  0  0  0  0  0  0  0  0  0  0
    4.1190    1.4448    1.1583 N   0  0  0  0  0  0  0  0  0  0  0  0
    2.1806    1.7469   -0.0265 O   0  0  0  0  0  0  0  0  0  0  0  0
    0.2299    0.1543    0.4112 N   0  0  0  0  0  0  0  0  0  0  0  0
   -0.8967    0.0362   -0.4642 C   0  0  0  0  0  0  0  0  0  0  0  0
   -2.0578    0.9058   -0.1094 C   0  0  1  0  0  0  0  0  0  0  0  0
   -3.1046    0.6677   -1.0798 N   0  0  0  0  0  0  0  0  0  0  0  0
   -2.5919    0.7392    1.2281 C   0  0  0  0  0  0  0  0  0  0  0  0
   -3.9655    0.4447    1.3977 N   0  0  0  0  0  0  0  0  0  0  0  0
   -1.9154    0.8380    2.2932 O   0  0  0  0  0  0  0  0  0  0  0  0
    1.7431   -2.7578    0.1736 H   0  0  0  0  0  0  0  0  0  0  0  0
    0.0256   -2.3196    0.6278 H   0  0  0  0  0  0  0  0  0  0  0  0
    0.5511   -2.5068   -1.1165 H   0  0  0  0  0  0  0  0  0  0  0  0
    1.4560   -0.4430   -1.1735 H   0  0  0  0  0  0  0  0  0  0  0  0
    2.6250   -0.9363    1.6149 H   0  0  0  0  0  0  0  0  0  0  0  0
    3.3588   -1.0386    0.0005 H   0  0  0  0  0  0  0  0  0  0  0  0
    4.2003    2.4615    1.4207 H   0  0  0  0  0  0  0  0  0  0  0  0
    4.9595    0.8645    1.3698 H   0  0  0  0  0  0  0  0  0  0  0  0
    0.0376   -0.1594    1.3877 H   0  0  0  0  0  0  0  0  0  0  0  0
   -0.5611    0.3194   -1.4832 H   0  0  0  0  0  0  0  0  0  0  0  0
   -1.2127   -1.0127   -0.5000 H   0  0  0  0  0  0  0  0  0  0  0  0
   -1.7687    1.9911   -0.2539 H   0  0  0  0  0  0  0  0  0  0  0  0
   -3.3650   -0.3574   -0.9750 H   0  0  0  0  0  0  0  0  0  0  0  0
   -2.6955    0.7106   -2.0557 H   0  0  0  0  0  0  0  0  0  0  0  0
   -4.5567    0.8898    2.1298 H   0  0  0  0  0  0  0  0  0  0  0  0
   -4.4188   -0.2499    0.7672 H   0  0  0  0  0  0  0  0  0  0  0  0
  1  2  1  0
  2  3  1  0
  3  4  1  0
  4  5  1  0
  4  6  2  0
  2  7  1  0
  7  8  1  0
  8  9  1  0
  9 10  1  0
  9 11  1  0
 11 12  1  0
 11 13  2  0
  1 14  1  0
  1 15  1  0
  1 16  1  0
  2 17  1  6
  3 18  1  0
  3 19  1  0
  5 20  1  0
  5 21  1  0
  7 22  1  0
  8 23  1  0
  8 24  1  0
  9 25  1  1
 10 26  1  0
 10 27  1  0
 12 28  1  0
 12 29  1  0
M  END
$$$$

     RDKit          3D

 29 28  0  0  0  0  0  0  0  0999 V2000
    0.3726   -2.3667    0.4021 C   0  0  0  0  0  0  0  0  0  0  0  0
    1.0179   -1.1256   -0.1706 C   0  0  2  0  0  0  0  0  0  0  0  0
    2.0224   -0.4896    0.7356 C   0  0  0  0  0  0  0  0  0  0  0  0
    2.5866    0.7097    0.0689 C   0  0  0  0  0  0  0  0  0  0  0  0
    3.8478    0.6533   -0.5724 N   0  0  0  0  0  0  0  0  0  0  0  0
    1.9535    1.7925    0.0636 O   0  0  0  0  0  0  0  0  0  0  0  0
    0.0075   -0.1848   -0.5638 N   0  0  0  0  0  0  0  0  0  0  0  0
   -0.7687    0.2234    0.5606 C   0  0  0  0  0  0  0  0  0  0  0  0
   -1.8545    1.2110    0.1924 C   0  0  1  0  0  0  0  0  0  0  0  0
   -1.3450    2.4096   -0.3856 N   0  0  0  0  0  0  0  0  0  0  0  0
   -2.7950    0.5649   -0.7491 C   0  0  0  0  0  0  0  0  0  0  0  0
   -3.4606   -0.6485   -0.4458 N   0  0  0  0  0  0  0  0  0  0  0  0
   -3.0159    1.1061   -1.8591 O   0  0  0  0  0  0  0  0  0  0  0  0
    1.0831   -3.2212    0.2985 H   0  0  0  0  0  0  0  0  0  0  0  0
    0.1150   -2.2278    1.4753 H   0  0  0  0  0  0  0  0  0  0  0  0
   -0.5179   -2.5876   -0.2120 H   0  0  0  0  0  0  0  0  0  0  0  0
    1.5345   -1.4609   -1.1070 H   0  0  0  0  0  0  0  0  0  0  0  0
    2.8710   -1.1956    0.9035 H   0  0  0  0  0  0  0  0  0  0  0  0
    1.6041   -0.1780    1.7110 H   0  0  0  0  0  0  0  0  0  0  0  0
    4.5233    1.4299   -0.5268 H   0  0  0  0  0  0  0  0  0  0  0  0
    4.1019   -0.1945   -1.1050 H   0  0  0  0  0  0  0  0  0  0  0  0
    0.3794    0.5666   -1.1533 H   0  0  0  0  0  0  0  0  0  0  0  0
   -0.1806    0.6780    1.3555 H   0  0  0  0  0  0  0  0  0  0  0  0
   -1.2927   -0.6849    0.9543 H   0  0  0  0  0  0  0  0  0  0  0  0
   -2.4375    1.4685    1.1084 H   0  0  0  0  0  0  0  0  0  0  0  0
   -1.8151    2.7192   -1.2421 H   0  0  0  0  0  0  0  0  0  0  0  0
   -1.0875    3.1510    0.2795 H   0  0  0  0  0  0  0  0  0  0  0  0
   -2.9362   -1.4893   -0.1719 H   0  0  0  0  0  0  0  0  0  0  0  0
   -4.5134   -0.6286   -0.5195 H   0  0  0  0  0  0  0  0  0  0  0  0
  1  2  1  0
  2  3  1  0
  3  4  1  0
  4  5  1  0
  4  6  2  0
  2  7  1  0
  7  8  1  0
  8  9  1  0
  9 10  1  0
  9 11  1  0
 11 12  1  0
 11 13  2  0
  1 14  1  0
  1 15  1  0
  1 16  1  0
  2 17  1  6
  3 18  1  0
  3 19  1  0
  5 20  1  0
  5 21  1  0
  7 22  1  0
  8 23  1  0
  8 24  1  0
  9 25  1  1
 10 26  1  0
 10 27  1  0
 12 28  1  0
 12 29  1  0
M  END
$$$$

     RDKit          3D

 29 28  0  0  0  0  0  0  0  0999 V2000
   -0.8613   -0.9318    1.1814 C   0  0  0  0  0  0  0  0  0  0  0  0
   -1.0544   -0.2716   -0.1489 C   0  0  2  0  0  0  0  0  0  0  0  0
   -2.3424   -0.7811   -0.8254 C   0  0  0  0  0  0  0  0  0  0  0  0
   -3.4897   -0.4836    0.0336 C   0  0  0  0  0  0  0  0  0  0  0  0
   -4.2289    0.7312   -0.0554 N   0  0  0  0  0  0  0  0  0  0  0  0
   -3.8693   -1.3148    0.9046 O   0  0  0  0  0  0  0  0  0  0  0  0
    0.0529   -0.3630   -0.9916 N   0  0  0  0  0  0  0  0  0  0  0  0
    1.2444    0.2891   -0.8168 C   0  0  0  0  0  0  0  0  0  0  0  0
    2.2099    0.0175    0.2710 C   0  0  1  0  0  0  0  0  0  0  0  0
    2.7120   -1.3260    0.3496 N   0  0  0  0  0  0  0  0  0  0  0  0
    3.3863    0.9546   -0.0416 C   0  0  0  0  0  0  0  0  0  0  0  0
    3.0821    2.2895   -0.3043 N   0  0  0  0  0  0  0  0  0  0  0  0
    4.5129    0.4553   -0.0344 O   0  0  0  0  0  0  0  0  0  0  0  0
   -1.6572   -0.6576    1.9100 H   0  0  0  0  0  0  0  0  0  0  0  0
   -0.9144   -2.0376    0.9769 H   0  0  0  0  0  0  0  0  0  0  0  0
    0.1117   -0.7147    1.5898 H   0  0  0  0  0  0  0  0  0  0  0  0
   -1.3150    0.8422    0.0209 H   0  0  0  0  0  0  0  0  0  0  0  0
   -2.2777   -1.8476   -1.0765 H   0  0  0  0  0  0  0  0  0  0  0  0
   -2.4442   -0.2130   -1.7710 H   0  0  0  0  0  0  0  0  0  0  0  0
   -4.3149    1.3682    0.7654 H   0  0  0  0  0  0  0  0  0  0  0  0
   -4.7053    1.0190   -0.9379 H   0  0  0  0  0  0  0  0  0  0  0  0
    0.0504   -1.1810   -1.6488 H   0  0  0  0  0  0  0  0  0  0  0  0
    1.0522    1.4363   -0.7342 H   0  0  0  0  0  0  0  0  0  0  0  0
    1.7881    0.2933   -1.8328 H   0  0  0  0  0  0  0  0  0  0  0  0
    1.9108    0.3652    1.2634 H   0  0  0  0  0  0  0  0  0  0  0  0
    3.0126   -1.6243    1.2803 H   0  0  0  0  0  0  0  0  0  0  0  0
    2.3595   -2.0068   -0.3096 H   0  0  0  0  0  0  0  0  0  0  0  0
    2.2840    2.8420    0.0748 H   0  0  0  0  0  0  0  0  0  0  0  0
    3.7048    2.8512   -0.9616 H   0  0  0  0  0  0  0  0  0  0  0  0
  1  2  1  0
  2  3  1  0
  3  4  1  0
  4  5  1  0
  4  6  2  0
  2  7  1  0
  7  8  1  0
  8  9  1  0
  9 10  1  0
  9 11  1  0
 11 12  1  0
 11 13  2  0
  1 14  1  0
  1 15  1  0
  1 16  1  0
  2 17  1  1
  3 18  1  0
  3 19  1  0
  5 20  1  0
  5 21  1  0
  7 22  1  0
  8 23  1  0
  8 24  1  0
  9 25  1  1
 10 26  1  0
 10 27  1  0
 12 28  1  0
 12 29  1  0
M  END
$$$$

     RDKit          3D

 29 28  0  0  0  0  0  0  0  0999 V2000
   -1.4244   -1.6806   -0.2666 C   0  0  0  0  0  0  0  0  0  0  0  0
   -1.1789   -0.2895    0.2134 C   0  0  2  0  0  0  0  0  0  0  0  0
   -2.3414    0.6489    0.0377 C   0  0  0  0  0  0  0  0  0  0  0  0
   -3.5433    0.2164    0.7534 C   0  0  0  0  0  0  0  0  0  0  0  0
   -4.7229    1.0014    0.6933 N   0  0  0  0  0  0  0  0  0  0  0  0
   -3.5587   -0.8405    1.4255 O   0  0  0  0  0  0  0  0  0  0  0  0
   -0.0309    0.2939   -0.4136 N   0  0  0  0  0  0  0  0  0  0  0  0
    1.1841   -0.4472   -0.0806 C   0  0  0  0  0  0  0  0  0  0  0  0
    2.3915    0.1931   -0.7508 C   0  0  1  0  0  0  0  0  0  0  0  0
    2.5550    1.5669   -0.3092 N   0  0  0  0  0  0  0  0  0  0  0  0
    3.5862   -0.6063   -0.3505 C   0  0  0  0  0  0  0  0  0  0  0  0
    4.6431    0.0300    0.3648 N   0  0  0  0  0  0  0  0  0  0  0  0
    3.7042   -1.8217   -0.6164 O   0  0  0  0  0  0  0  0  0  0  0  0
   -1.2501   -2.4448    0.5373 H   0  0  0  0  0  0  0  0  0  0  0  0
   -0.7365   -1.9758   -1.1054 H   0  0  0  0  0  0  0  0  0  0  0  0
   -2.4540   -1.7971   -0.7099 H   0  0  0  0  0  0  0  0  0  0  0  0
   -0.9653   -0.3433    1.3054 H   0  0  0  0  0  0  0  0  0  0  0  0
   -2.5835    0.7852   -1.0334 H   0  0  0  0  0  0  0  0  0  0  0  0
   -1.9828    1.6521    0.3894 H   0  0  0  0  0  0  0  0  0  0  0  0
   -4.6943    2.0356    0.4615 H   0  0  0  0  0  0  0  0  0  0  0  0
   -5.6896    0.6355    0.8679 H   0  0  0  0  0  0  0  0  0  0  0  0
   -0.1578    0.3808   -1.4521 H   0  0  0  0  0  0  0  0  0  0  0  0
    1.2984   -0.4095    1.0175 H   0  0  0  0  0  0  0  0  0  0  0  0
    1.1224   -1.4750   -0.4474 H   0  0  0  0  0  0  0  0  0  0  0  0
    2.2432    0.1998   -1.8468 H   0  0  0  0  0  0  0  0  0  0  0  0
    2.0474    2.2546   -0.8816 H   0  0  0  0  0  0  0  0  0  0  0  0
    2.4318    1.6727    0.7194 H   0  0  0  0  0  0  0  0  0  0  0  0
    5.4918   -0.4906    0.6741 H   0  0  0  0  0  0  0  0  0  0  0  0
    4.6151    1.0550    0.6139 H   0  0  0  0  0  0  0  0  0  0  0  0
  1  2  1  0
  2  3  1  0
  3  4  1  0
  4  5  1  0
  4  6  2  0
  2  7  1  0
  7  8  1  0
  8  9  1  0
  9 10  1  0
  9 11  1  0
 11 12  1  0
 11 13  2  0
  1 14  1  0
  1 15  1  0
  1 16  1  0
  2 17  1  1
  3 18  1  0
  3 19  1  0
  5 20  1  0
  5 21  1  0
  7 22  1  0
  8 23  1  0
  8 24  1  0
  9 25  1  6
 10 26  1  0
 10 27  1  0
 12 28  1  0
 12 29  1  0
M  END
$$$$

     RDKit          3D

 29 28  0  0  0  0  0  0  0  0999 V2000
   -1.3256   -2.2269   -0.7914 C   0  0  0  0  0  0  0  0  0  0  0  0
   -1.0196   -1.4059    0.4292 C   0  0  2  0  0  0  0  0  0  0  0  0
   -2.3711   -0.9471    0.9940 C   0  0  0  0  0  0  0  0  0  0  0  0
   -3.0868   -0.1401   -0.0112 C   0  0  0  0  0  0  0  0  0  0  0  0
   -3.0861    1.2621    0.0522 N   0  0  0  0  0  0  0  0  0  0  0  0
   -3.6996   -0.7210   -0.9286 O   0  0  0  0  0  0  0  0  0  0  0  0
   -0.2430   -0.2579    0.2066 N   0  0  0  0  0  0  0  0  0  0  0  0
    1.0551   -0.3809   -0.2854 C   0  0  0  0  0  0  0  0  0  0  0  0
    1.6527    1.0231   -0.4262 C   0  0  1  0  0  0  0  0  0  0  0  0
    1.6376    1.6002    0.8988 N   0  0  0  0  0  0  0  0  0  0  0  0
    2.9986    0.9981   -1.0099 C   0  0  0  0  0  0  0  0  0  0  0  0
    4.0864    1.5089   -0.2765 N   0  0  0  0  0  0  0  0  0  0  0  0
    3.2069    0.5330   -2.1473 O   0  0  0  0  0  0  0  0  0  0  0  0
   -1.6261   -1.6135   -1.6550 H   0  0  0  0  0  0  0  0  0  0  0  0
   -0.4702   -2.8917   -1.0521 H   0  0  0  0  0  0  0  0  0  0  0  0
   -2.1793   -2.9079   -0.5100 H   0  0  0  0  0  0  0  0  0  0  0  0
   -0.5198   -2.0601    1.1706 H   0  0  0  0  0  0  0  0  0  0  0  0
   -2.1654   -0.2970    1.8851 H   0  0  0  0  0  0  0  0  0  0  0  0
   -2.9233   -1.8645    1.2769 H   0  0  0  0  0  0  0  0  0  0  0  0
   -3.1130    1.7521    0.9635 H   0  0  0  0  0  0  0  0  0  0  0  0
   -3.0582    1.8250   -0.8161 H   0  0  0  0  0  0  0  0  0  0  0  0
   -0.5270    0.6176    0.6535 H   0  0  0  0  0  0  0  0  0  0  0  0
    1.6931   -0.9105    0.4677 H   0  0  0  0  0  0  0  0  0  0  0  0
    1.0556   -0.9038   -1.2548 H   0  0  0  0  0  0  0  0  0  0  0  0
    0.9530    1.5771   -1.0749 H   0  0  0  0  0  0  0  0  0  0  0  0
    2.2021    2.4600    0.9733 H   0  0  0  0  0  0  0  0  0  0  0  0
    1.8406    0.9040    1.6363 H   0  0  0  0  0  0  0  0  0  0  0  0
    4.2546    2.5541   -0.2087 H   0  0  0  0  0  0  0  0  0  0  0  0
    4.7777    0.9136    0.2326 H   0  0  0  0  0  0  0  0  0  0  0  0
  1  2  1  0
  2  3  1  0
  3  4  1  0
  4  5  1  0
  4  6  2  0
  2  7  1  0
  7  8  1  0
  8  9  1  0
  9 10  1  0
  9 11  1  0
 11 12  1  0
 11 13  2  0
  1 14  1  0
  1 15  1  0
  1 16  1  0
  2 17  1  1
  3 18  1  0
  3 19  1  0
  5 20  1  0
  5 21  1  0
  7 22  1  0
  8 23  1  0
  8 24  1  0
  9 25  1  6
 10 26  1  0
 10 27  1  0
 12 28  1  0
 12 29  1  0
M  END
$$$$

     RDKit          3D

 29 28  0  0  0  0  0  0  0  0999 V2000
    1.9143   -1.6238   -0.0808 C   0  0  0  0  0  0  0  0  0  0  0  0
    1.3523   -0.2699   -0.3316 C   0  0  2  0  0  0  0  0  0  0  0  0
    1.5488    0.7380    0.7364 C   0  0  0  0  0  0  0  0  0  0  0  0
    2.9762    1.0088    1.0346 C   0  0  0  0  0  0  0  0  0  0  0  0
    3.2656    1.9649    2.0430 N   0  0  0  0  0  0  0  0  0  0  0  0
    3.9398    0.4504    0.4555 O   0  0  0  0  0  0  0  0  0  0  0  0
   -0.0702   -0.3001   -0.6759 N   0  0  0  0  0  0  0  0  0  0  0  0
   -0.8906   -0.8247    0.3635 C   0  0  0  0  0  0  0  0  0  0  0  0
   -2.3299   -0.8802   -0.0927 C   0  0  1  0  0  0  0  0  0  0  0  0
   -3.1715   -1.4278    0.9880 N   0  0  0  0  0  0  0  0  0  0  0  0
   -2.8947    0.4087   -0.5039 C   0  0  0  0  0  0  0  0  0  0  0  0
   -2.4402    1.1861   -1.5780 N   0  0  0  0  0  0  0  0  0  0  0  0
   -3.8820    0.8693    0.1623 O   0  0  0  0  0  0  0  0  0  0  0  0
    1.7952   -1.9855    0.9546 H   0  0  0  0  0  0  0  0  0  0  0  0
    1.3972   -2.3415   -0.7648 H   0  0  0  0  0  0  0  0  0  0  0  0
    2.9910   -1.6799   -0.3264 H   0  0  0  0  0  0  0  0  0  0  0  0
    1.8457    0.0957   -1.2854 H   0  0  0  0  0  0  0  0  0  0  0  0
    1.1230    1.7031    0.3683 H   0  0  0  0  0  0  0  0  0  0  0  0
    1.0022    0.4690    1.6562 H   0  0  0  0  0  0  0  0  0  0  0  0
    4.0724    1.8929    2.6936 H   0  0  0  0  0  0  0  0  0  0  0  0
    2.6599    2.8260    2.1922 H   0  0  0  0  0  0  0  0  0  0  0  0
   -0.3143    0.7357   -0.7615 H   0  0  0  0  0  0  0  0  0  0  0  0
   -0.6068   -1.8655    0.6581 H   0  0  0  0  0  0  0  0  0  0  0  0
   -0.8538   -0.2438    1.3213 H   0  0  0  0  0  0  0  0  0  0  0  0
   -2.4475   -1.5842   -0.9603 H   0  0  0  0  0  0  0  0  0  0  0  0
   -4.0945   -1.6215    0.5158 H   0  0  0  0  0  0  0  0  0  0  0  0
   -3.3457   -0.6515    1.6592 H   0  0  0  0  0  0  0  0  0  0  0  0
   -2.1462    2.1638   -1.4239 H   0  0  0  0  0  0  0  0  0  0  0  0
   -2.3960    0.7876   -2.5309 H   0  0  0  0  0  0  0  0  0  0  0  0
  1  2  1  0
  2  3  1  0
  3  4  1  0
  4  5  1  0
  4  6  2  0
  2  7  1  0
  7  8  1  0
  8  9  1  0
  9 10  1  0
  9 11  1  0
 11 12  1  0
 11 13  2  0
  1 14  1  0
  1 15  1  0
  1 16  1  0
  2 17  1  6
  3 18  1  0
  3 19  1  0
  5 20  1  0
  5 21  1  0
  7 22  1  0
  8 23  1  0
  8 24  1  0
  9 25  1  6
 10 26  1  0
 10 27  1  0
 12 28  1  0
 12 29  1  0
M  END
$$$$
