
     RDKit          3D

 22 22  0  0  0  0  0  0  0  0999 V2000
    3.2040    1.1381   -0.3523 C   0  0  0  0  0  0  0  0  0  0  0  0
    2.6963   -0.0139    0.4653 C   0  0  2  0  0  0  0  0  0  0  0  0
    3.0754   -1.2173   -0.1227 O   0  0  0  0  0  0  0  0  0  0  0  0
    1.2111   -0.0192    0.5748 C   0  0  0  0  0  0  0  0  0  0  0  0
    0.7108    0.9743    1.0746 O   0  0  0  0  0  0  0  0  0  0  0  0
    0.3840   -1.1639    0.1047 C   0  0  0  0  0  0  0  0  0  0  0  0
   -1.0362   -0.8205    0.3715 C   0  0  0  0  0  0  0  0  0  0  0  0
   -1.7793   -1.0605    1.4625 N   0  0  0  0  0  0  0  0  0  0  0  0
   -2.9899   -0.5719    1.2460 N   0  0  0  0  0  0  0  0  0  0  0  0
   -3.0508   -0.0240    0.0490 N   0  0  0  0  0  0  0  0  0  0  0  0
   -4.1695    0.6292   -0.6083 C   0  0  0  0  0  0  0  0  0  0  0  0
   -1.8638   -0.1722   -0.4888 N   0  0  0  0  0  0  0  0  0  0  0  0
    2.5387    2.0351   -0.2416 H   0  0  0  0  0  0  0  0  0  0  0  0
    3.3028    0.8962   -1.4239 H   0  0  0  0  0  0  0  0  0  0  0  0
    4.2055    1.4201    0.0490 H   0  0  0  0  0  0  0  0  0  0  0  0
    3.1149    0.0825    1.5032 H   0  0  0  0  0  0  0  0  0  0  0  0
    2.5886   -1.2755   -0.9813 H   0  0  0  0  0  0  0  0  0  0  0  0
    0.5056   -1.2321   -1.0062 H   0  0  0  0  0  0  0  0  0  0  0  0
    0.6751   -2.1186    0.5848 H   0  0  0  0  0  0  0  0  0  0  0  0
   -4.6128    1.3123    0.1722 H   0  0  0  0  0  0  0  0  0  0  0  0
   -4.9059   -0.0809   -1.0105 H   0  0  0  0  0  0  0  0  0  0  0  0
   -3.8045    1.2828   -1.4221 H   0  0  0  0  0  0  0  0  0  0  0  0
  1  2  1  0
  2  3  1  0
  2  4  1  0
  4  5  2  0
  4  6  1  0
  6  7  1  0
  7  8  1  0
  8  9  2  0
  9 10  1  0
 10 11  1  0
 10 12  1  0
 12  7  2  0
  1 13  1  0
  1 14  1  0
  1 15  1  0
  2 16  1  1
  3 17  1  0
  6 18  1  0
  6 19  1  0
 11 20  1  0
 11 21  1  0
 11 22  1  0
M  END
$$$$

     RDKit          3D

 22 22  0  0  0  0  0  0  0  0999 V2000
   -3.4309   -0.5398   -0.3913 C   0  0  0  0  0  0  0  0  0  0  0  0
   -2.6398    0.3741    0.5136 C   0  0  2  0  0  0  0  0  0  0  0  0
   -3.1925    1.6359    0.4898 O   0  0  0  0  0  0  0  0  0  0  0  0
   -1.2103    0.4114    0.1224 C   0  0  0  0  0  0  0  0  0  0  0  0
   -0.7046    1.4884   -0.1618 O   0  0  0  0  0  0  0  0  0  0  0  0
   -0.3952   -0.8290    0.0722 C   0  0  0  0  0  0  0  0  0  0  0  0
    0.9880   -0.5095   -0.3451 C   0  0  0  0  0  0  0  0  0  0  0  0
    1.4074   -0.4924   -1.6201 N   0  0  0  0  0  0  0  0  0  0  0  0
    2.6721   -0.1734   -1.6138 N   0  0  0  0  0  0  0  0  0  0  0  0
    3.0828    0.0169   -0.3649 N   0  0  0  0  0  0  0  0  0  0  0  0
    4.4400    0.3851    0.0140 C   0  0  0  0  0  0  0  0  0  0  0  0
    2.0480   -0.1904    0.4042 N   0  0  0  0  0  0  0  0  0  0  0  0
   -3.0884   -0.4458   -1.4309 H   0  0  0  0  0  0  0  0  0  0  0  0
   -3.2956   -1.6027   -0.0719 H   0  0  0  0  0  0  0  0  0  0  0  0
   -4.5107   -0.3202   -0.2771 H   0  0  0  0  0  0  0  0  0  0  0  0
   -2.6884   -0.0171    1.5647 H   0  0  0  0  0  0  0  0  0  0  0  0
   -2.6440    2.2585    1.0108 H   0  0  0  0  0  0  0  0  0  0  0  0
   -0.8592   -1.5591   -0.6417 H   0  0  0  0  0  0  0  0  0  0  0  0
   -0.3544   -1.3394    1.0639 H   0  0  0  0  0  0  0  0  0  0  0  0
    5.1836   -0.3169   -0.4455 H   0  0  0  0  0  0  0  0  0  0  0  0
    4.5112    0.3318    1.1324 H   0  0  0  0  0  0  0  0  0  0  0  0
    4.6810    1.4338   -0.2549 H   0  0  0  0  0  0  0  0  0  0  0  0
  1  2  1  0
  2  3  1  0
  2  4  1  0
  4  5  2  0
  4  6  1  0
  6  7  1  0
  7  8  1  0
  8  9  2  0
  9 10  1  0
 10 11  1  0
 10 12  1  0
 12  7  2  0
  1 13  1  0
  1 14  1  0
  1 15  1  0
  2 16  1  1
  3 17  1  0
  6 18  1  0
  6 19  1  0
 11 20  1  0
 11 21  1  0
 11 22  1  0
M  END
$$$$

     RDKit          3D

 22 22  0  0  0  0  0  0  0  0999 V2000
   -3.3673   -0.4368    0.3899 C   0  0  0  0  0  0  0  0  0  0  0  0
   -2.5692    0.7228   -0.1659 C   0  0  2  0  0  0  0  0  0  0  0  0
   -3.1533    1.1896   -1.3407 O   0  0  0  0  0  0  0  0  0  0  0  0
   -1.1677    0.3461   -0.4661 C   0  0  0  0  0  0  0  0  0  0  0  0
   -0.6908    0.4550   -1.5628 O   0  0  0  0  0  0  0  0  0  0  0  0
   -0.3290   -0.1850    0.6370 C   0  0  0  0  0  0  0  0  0  0  0  0
    1.0350   -0.5222    0.2213 C   0  0  0  0  0  0  0  0  0  0  0  0
    1.4734   -1.7010   -0.2453 N   0  0  0  0  0  0  0  0  0  0  0  0
    2.7771   -1.5830   -0.5057 N   0  0  0  0  0  0  0  0  0  0  0  0
    3.1537   -0.3558   -0.2098 N   0  0  0  0  0  0  0  0  0  0  0  0
    4.4920    0.1817   -0.3475 C   0  0  0  0  0  0  0  0  0  0  0  0
    2.0845    0.2984    0.2374 N   0  0  0  0  0  0  0  0  0  0  0  0
   -4.3495   -0.0374    0.7108 H   0  0  0  0  0  0  0  0  0  0  0  0
   -2.8258   -0.8380    1.2577 H   0  0  0  0  0  0  0  0  0  0  0  0
   -3.4829   -1.2122   -0.3882 H   0  0  0  0  0  0  0  0  0  0  0  0
   -2.5647    1.5204    0.6107 H   0  0  0  0  0  0  0  0  0  0  0  0
   -3.9249    1.7777   -1.1323 H   0  0  0  0  0  0  0  0  0  0  0  0
   -0.8045   -1.0966    1.0978 H   0  0  0  0  0  0  0  0  0  0  0  0
   -0.3307    0.5985    1.4380 H   0  0  0  0  0  0  0  0  0  0  0  0
    4.5664    1.1787    0.1183 H   0  0  0  0  0  0  0  0  0  0  0  0
    5.2057   -0.5122    0.1796 H   0  0  0  0  0  0  0  0  0  0  0  0
    4.7725    0.2111   -1.4122 H   0  0  0  0  0  0  0  0  0  0  0  0
  1  2  1  0
  2  3  1  0
  2  4  1  0
  4  5  2  0
  4  6  1  0
  6  7  1  0
  7  8  1  0
  8  9  2  0
  9 10  1  0
 10 11  1  0
 10 12  1  0
 12  7  2  0
  1 13  1  0
  1 14  1  0
  1 15  1  0
  2 16  1  1
  3 17  1  0
  6 18  1  0
  6 19  1  0
 11 20  1  0
 11 21  1  0
 11 22  1  0
M  END
$$$$

     RDKit          3D

 22 22  0  0  0  0  0  0  0  0999 V2000
   -3.3317    0.8634   -0.6997 C   0  0  0  0  0  0  0  0  0  0  0  0
   -2.7124   -0.3409   -0.0232 C   0  0  2  0  0  0  0  0  0  0  0  0
   -2.9761   -0.3035    1.3429 O   0  0  0  0  0  0  0  0  0  0  0  0
   -1.2496   -0.4018   -0.2215 C   0  0  0  0  0  0  0  0  0  0  0  0
   -0.8218   -0.4411   -1.3476 O   0  0  0  0  0  0  0  0  0  0  0  0
   -0.3281   -0.4143    0.9343 C   0  0  0  0  0  0  0  0  0  0  0  0
    1.0752   -0.4788    0.4539 C   0  0  0  0  0  0  0  0  0  0  0  0
    1.7372   -1.6230    0.2344 N   0  0  0  0  0  0  0  0  0  0  0  0
    2.9557   -1.3256   -0.1850 N   0  0  0  0  0  0  0  0  0  0  0  0
    3.0503    0.0029   -0.2259 N   0  0  0  0  0  0  0  0  0  0  0  0
    4.2279    0.7493   -0.6340 C   0  0  0  0  0  0  0  0  0  0  0  0
    1.9093    0.5543    0.1615 N   0  0  0  0  0  0  0  0  0  0  0  0
   -3.1331    1.7721   -0.1254 H   0  0  0  0  0  0  0  0  0  0  0  0
   -4.4118    0.6583   -0.8230 H   0  0  0  0  0  0  0  0  0  0  0  0
   -2.8277    0.9837   -1.6882 H   0  0  0  0  0  0  0  0  0  0  0  0
   -3.1786   -1.2458   -0.5003 H   0  0  0  0  0  0  0  0  0  0  0  0
   -2.5604   -1.1154    1.7308 H   0  0  0  0  0  0  0  0  0  0  0  0
   -0.5229   -1.2218    1.6444 H   0  0  0  0  0  0  0  0  0  0  0  0
   -0.4742    0.5612    1.4677 H   0  0  0  0  0  0  0  0  0  0  0  0
    4.0039    1.3207   -1.5602 H   0  0  0  0  0  0  0  0  0  0  0  0
    4.4986    1.3983    0.2203 H   0  0  0  0  0  0  0  0  0  0  0  0
    5.0703    0.0477   -0.8134 H   0  0  0  0  0  0  0  0  0  0  0  0
  1  2  1  0
  2  3  1  0
  2  4  1  0
  4  5  2  0
  4  6  1  0
  6  7  1  0
  7  8  1  0
  8  9  2  0
  9 10  1  0
 10 11  1  0
 10 12  1  0
 12  7  2  0
  1 13  1  0
  1 14  1  0
  1 15  1  0
  2 16  1  6
  3 17  1  0
  6 18  1  0
  6 19  1  0
 11 20  1  0
 11 21  1  0
 11 22  1  0
M  END
$$$$

     RDKit          3D

 22 22  0  0  0  0  0  0  0  0999 V2000
   -3.5505   -0.1795    0.5239 C   0  0  0  0  0  0  0  0  0  0  0  0
   -2.4652    0.8616    0.3066 C   0  0  2  0  0  0  0  0  0  0  0  0
   -2.7127    1.4796   -0.9074 O   0  0  0  0  0  0  0  0  0  0  0  0
   -1.1315    0.2140    0.2760 C   0  0  0  0  0  0  0  0  0  0  0  0
   -0.7495   -0.3810    1.2706 O   0  0  0  0  0  0  0  0  0  0  0  0
   -0.3002    0.2956   -0.9321 C   0  0  0  0  0  0  0  0  0  0  0  0
    0.9740   -0.4310   -0.6974 C   0  0  0  0  0  0  0  0  0  0  0  0
    1.2754   -1.7149   -0.9214 N   0  0  0  0  0  0  0  0  0  0  0  0
    2.5341   -1.8640   -0.5461 N   0  0  0  0  0  0  0  0  0  0  0  0
    3.0278   -0.7155   -0.0953 N   0  0  0  0  0  0  0  0  0  0  0  0
    4.3583   -0.4559    0.4063 C   0  0  0  0  0  0  0  0  0  0  0  0
    2.0672    0.1643   -0.1892 N   0  0  0  0  0  0  0  0  0  0  0  0
   -3.8580   -0.5429   -0.4633 H   0  0  0  0  0  0  0  0  0  0  0  0
   -4.3404    0.2993    1.1074 H   0  0  0  0  0  0  0  0  0  0  0  0
   -3.1608   -1.0567    1.0882 H   0  0  0  0  0  0  0  0  0  0  0  0
   -2.4856    1.6469    1.0904 H   0  0  0  0  0  0  0  0  0  0  0  0
   -2.7245    2.4563   -0.8462 H   0  0  0  0  0  0  0  0  0  0  0  0
   -0.0578    1.3375   -1.2261 H   0  0  0  0  0  0  0  0  0  0  0  0
   -0.8105   -0.1865   -1.8017 H   0  0  0  0  0  0  0  0  0  0  0  0
    4.3914    0.5027    0.9206 H   0  0  0  0  0  0  0  0  0  0  0  0
    4.6915   -1.3071    1.0543 H   0  0  0  0  0  0  0  0  0  0  0  0
    5.0275   -0.4227   -0.5027 H   0  0  0  0  0  0  0  0  0  0  0  0
  1  2  1  0
  2  3  1  0
  2  4  1  0
  4  5  2  0
  4  6  1  0
  6  7  1  0
  7  8  1  0
  8  9  2  0
  9 10  1  0
 10 11  1  0
 10 12  1  0
 12  7  2  0
  1 13  1  0
  1 14  1  0
  1 15  1  0
  2 16  1  1
  3 17  1  0
  6 18  1  0
  6 19  1  0
 11 20  1  0
 11 21  1  0
 11 22  1  0
M  END
$$$$

     RDKit          3D

 22 22  0  0  0  0  0  0  0  0999 V2000
   -3.6015   -0.5674    0.2400 C   0  0  0  0  0  0  0  0  0  0  0  0
   -2.6104    0.5251    0.5599 C   0  0  2  0  0  0  0  0  0  0  0  0
   -2.7976    1.5763   -0.3316 O   0  0  0  0  0  0  0  0  0  0  0  0
   -1.2269    0.0164    0.4344 C   0  0  0  0  0  0  0  0  0  0  0  0
   -0.8548   -0.8978    1.1195 O   0  0  0  0  0  0  0  0  0  0  0  0
   -0.2925    0.6358   -0.5409 C   0  0  0  0  0  0  0  0  0  0  0  0
    1.0368   -0.0244   -0.5031 C   0  0  0  0  0  0  0  0  0  0  0  0
    1.4513   -1.0791   -1.2276 N   0  0  0  0  0  0  0  0  0  0  0  0
    2.6877   -1.3669   -0.9095 N   0  0  0  0  0  0  0  0  0  0  0  0
    3.0911   -0.5226    0.0080 N   0  0  0  0  0  0  0  0  0  0  0  0
    4.3917   -0.4815    0.6410 C   0  0  0  0  0  0  0  0  0  0  0  0
    2.1000    0.3018    0.2680 N   0  0  0  0  0  0  0  0  0  0  0  0
   -3.0862   -1.5327    0.2196 H   0  0  0  0  0  0  0  0  0  0  0  0
   -4.3410   -0.5998    1.0565 H   0  0  0  0  0  0  0  0  0  0  0  0
   -4.1544   -0.3315   -0.6894 H   0  0  0  0  0  0  0  0  0  0  0  0
   -2.7478    0.9022    1.6047 H   0  0  0  0  0  0  0  0  0  0  0  0
   -2.3864    2.4103    0.0081 H   0  0  0  0  0  0  0  0  0  0  0  0
   -0.7332    0.6272   -1.5501 H   0  0  0  0  0  0  0  0  0  0  0  0
   -0.1862    1.7181   -0.2390 H   0  0  0  0  0  0  0  0  0  0  0  0
    5.1359   -1.1053    0.1000 H   0  0  0  0  0  0  0  0  0  0  0  0
    4.7393    0.5841    0.5549 H   0  0  0  0  0  0  0  0  0  0  0  0
    4.3850   -0.7883    1.6912 H   0  0  0  0  0  0  0  0  0  0  0  0
  1  2  1  0
  2  3  1  0
  2  4  1  0
  4  5  2  0
  4  6  1  0
  6  7  1  0
  7  8  1  0
  8  9  2  0
  9 10  1  0
 10 11  1  0
 10 12  1  0
 12  7  2  0
  1 13  1  0
  1 14  1  0
  1 15  1  0
  2 16  1  1
  3 17  1  0
  6 18  1  0
  6 19  1  0
 11 20  1  0
 11 21  1  0
 11 22  1  0
M  END
$$$$

     RDKit          3D

 22 22  0  0  0  0  0  0  0  0999 V2000
   -3.1290   -1.3715    0.3032 C   0  0  0  0  0  0  0  0  0  0  0  0
   -2.7405    0.0783   -0.0093 C   0  0  2  0  0  0  0  0  0  0  0  0
   -3.0072    0.2928   -1.3487 O   0  0  0  0  0  0  0  0  0  0  0  0
   -1.2997    0.3048    0.2912 C   0  0  0  0  0  0  0  0  0  0  0  0
   -0.8726    0.1593    1.4460 O   0  0  0  0  0  0  0  0  0  0  0  0
   -0.4173    0.7005   -0.8134 C   0  0  0  0  0  0  0  0  0  0  0  0
    0.9854    0.8976   -0.4021 C   0  0  0  0  0  0  0  0  0  0  0  0
    1.5987    2.0261    0.0384 N   0  0  0  0  0  0  0  0  0  0  0  0
    2.8642    1.7383    0.2932 N   0  0  0  0  0  0  0  0  0  0  0  0
    3.0751    0.4664    0.0296 N   0  0  0  0  0  0  0  0  0  0  0  0
    4.3171   -0.2962    0.1597 C   0  0  0  0  0  0  0  0  0  0  0  0
    1.9510   -0.0407   -0.3874 N   0  0  0  0  0  0  0  0  0  0  0  0
   -2.7469   -2.0732   -0.4421 H   0  0  0  0  0  0  0  0  0  0  0  0
   -4.2424   -1.4033    0.2388 H   0  0  0  0  0  0  0  0  0  0  0  0
   -2.8117   -1.6316    1.3438 H   0  0  0  0  0  0  0  0  0  0  0  0
   -3.4001    0.7173    0.6084 H   0  0  0  0  0  0  0  0  0  0  0  0
   -2.7633   -0.4931   -1.8989 H   0  0  0  0  0  0  0  0  0  0  0  0
   -0.4298   -0.1409   -1.5616 H   0  0  0  0  0  0  0  0  0  0  0  0
   -0.8360    1.5859   -1.3239 H   0  0  0  0  0  0  0  0  0  0  0  0
    5.1572    0.3184   -0.2198 H   0  0  0  0  0  0  0  0  0  0  0  0
    4.2743   -1.1994   -0.4849 H   0  0  0  0  0  0  0  0  0  0  0  0
    4.4734   -0.6358    1.2029 H   0  0  0  0  0  0  0  0  0  0  0  0
  1  2  1  0
  2  3  1  0
  2  4  1  0
  4  5  2  0
  4  6  1  0
  6  7  1  0
  7  8  1  0
  8  9  2  0
  9 10  1  0
 10 11  1  0
 10 12  1  0
 12  7  2  0
  1 13  1  0
  1 14  1  0
  1 15  1  0
  2 16  1  1
  3 17  1  0
  6 18  1  0
  6 19  1  0
 11 20  1  0
 11 21  1  0
 11 22  1  0
M  END
$$$$

     RDKit          3D

 22 22  0  0  0  0  0  0  0  0999 V2000
    3.0249   -0.9917    0.4352 C   0  0  0  0  0  0  0  0  0  0  0  0
    2.7215    0.4556    0.1211 C   0  0  2  0  0  0  0  0  0  0  0  0
    3.3426    1.3276    1.0116 O   0  0  0  0  0  0  0  0  0  0  0  0
    1.2456    0.6731    0.0760 C   0  0  0  0  0  0  0  0  0  0  0  0
    0.7184    1.5126    0.7490 O   0  0  0  0  0  0  0  0  0  0  0  0
    0.4673   -0.2031   -0.8440 C   0  0  0  0  0  0  0  0  0  0  0  0
   -0.9780    0.0944   -0.8117 C   0  0  0  0  0  0  0  0  0  0  0  0
   -1.6777    0.9578   -1.5599 N   0  0  0  0  0  0  0  0  0  0  0  0
   -2.9392    0.8757   -1.1688 N   0  0  0  0  0  0  0  0  0  0  0  0
   -3.0682   -0.0036   -0.2039 N   0  0  0  0  0  0  0  0  0  0  0  0
   -4.2968   -0.3880    0.5003 C   0  0  0  0  0  0  0  0  0  0  0  0
   -1.8590   -0.4858    0.0168 N   0  0  0  0  0  0  0  0  0  0  0  0
    4.0748   -1.0987    0.7666 H   0  0  0  0  0  0  0  0  0  0  0  0
    2.3291   -1.3694    1.2145 H   0  0  0  0  0  0  0  0  0  0  0  0
    2.8249   -1.6031   -0.4734 H   0  0  0  0  0  0  0  0  0  0  0  0
    3.1021    0.7318   -0.8943 H   0  0  0  0  0  0  0  0  0  0  0  0
    3.3438    2.2236    0.5748 H   0  0  0  0  0  0  0  0  0  0  0  0
    0.6730   -1.2495   -0.5533 H   0  0  0  0  0  0  0  0  0  0  0  0
    0.8073   -0.0514   -1.8959 H   0  0  0  0  0  0  0  0  0  0  0  0
   -5.0920   -0.4479   -0.2817 H   0  0  0  0  0  0  0  0  0  0  0  0
   -4.1894   -1.3693    0.9815 H   0  0  0  0  0  0  0  0  0  0  0  0
   -4.5750    0.4092    1.2165 H   0  0  0  0  0  0  0  0  0  0  0  0
  1  2  1  0
  2  3  1  0
  2  4  1  0
  4  5  2  0
  4  6  1  0
  6  7  1  0
  7  8  1  0
  8  9  2  0
  9 10  1  0
 10 11  1  0
 10 12  1  0
 12  7  2  0
  1 13  1  0
  1 14  1  0
  1 15  1  0
  2 16  1  6
  3 17  1  0
  6 18  1  0
  6 19  1  0
 11 20  1  0
 11 21  1  0
 11 22  1  0
M  END
$$$$
