
     RDKit          3D

 29 30  0  0  0  0  0  0  0  0999 V2000
    4.3741   -0.4002   -1.1965 C   0  0  0  0  0  0  0  0  0  0  0  0
    3.2789   -0.0104   -0.3335 N   0  0  0  0  0  0  0  0  0  0  0  0
    3.2928   -0.0879    0.9789 N   0  0  0  0  0  0  0  0  0  0  0  0
    2.1133    0.3582    1.4297 N   0  0  0  0  0  0  0  0  0  0  0  0
    1.3437    0.7230    0.3812 C   0  0  0  0  0  0  0  0  0  0  0  0
   -0.0147    1.2611    0.4559 C   0  0  0  0  0  0  0  0  0  0  0  0
   -1.0821    0.1962    0.4158 C   0  0  2  0  0  0  0  0  0  0  0  0
   -0.9736   -0.7834    1.5484 C   0  0  0  0  0  0  0  0  0  0  0  0
   -2.0093   -1.7092    1.3979 O   0  0  0  0  0  0  0  0  0  0  0  0
   -1.0751   -0.5209   -0.9256 C   0  0  0  0  0  0  0  0  0  0  0  0
   -2.4277   -0.2036   -1.5497 C   0  0  0  0  0  0  0  0  0  0  0  0
   -2.7167    1.0843   -0.9410 N   0  0  0  0  0  0  0  0  0  0  0  0
   -2.4736    0.7900    0.4595 C   0  0  0  0  0  0  0  0  0  0  0  0
    2.1004    0.4805   -0.7047 N   0  0  0  0  0  0  0  0  0  0  0  0
    4.7949   -1.3733   -0.8233 H   0  0  0  0  0  0  0  0  0  0  0  0
    5.2002    0.3330   -1.0910 H   0  0  0  0  0  0  0  0  0  0  0  0
    4.0792   -0.5058   -2.2457 H   0  0  0  0  0  0  0  0  0  0  0  0
   -0.1976    1.8523    1.3921 H   0  0  0  0  0  0  0  0  0  0  0  0
   -0.2133    1.9620   -0.3815 H   0  0  0  0  0  0  0  0  0  0  0  0
    0.0095   -1.2866    1.6056 H   0  0  0  0  0  0  0  0  0  0  0  0
   -1.2135   -0.2168    2.4862 H   0  0  0  0  0  0  0  0  0  0  0  0
   -1.7084   -2.5839    1.0999 H   0  0  0  0  0  0  0  0  0  0  0  0
   -0.9163   -1.5920   -0.7742 H   0  0  0  0  0  0  0  0  0  0  0  0
   -0.2899   -0.0847   -1.5723 H   0  0  0  0  0  0  0  0  0  0  0  0
   -2.3733   -0.1582   -2.6477 H   0  0  0  0  0  0  0  0  0  0  0  0
   -3.1662   -0.9564   -1.2055 H   0  0  0  0  0  0  0  0  0  0  0  0
   -2.0210    1.7726   -1.3069 H   0  0  0  0  0  0  0  0  0  0  0  0
   -2.5356    1.6801    1.1030 H   0  0  0  0  0  0  0  0  0  0  0  0
   -3.1793   -0.0201    0.7589 H   0  0  0  0  0  0  0  0  0  0  0  0
  1  2  1  0
  2  3  1  0
  3  4  2  0
  4  5  1  0
  5  6  1  0
  7  6  1  6
  7  8  1  0
  8  9  1  0
  7 10  1  0
 10 11  1  0
 11 12  1  0
 12 13  1  0
  5 14  2  0
 14  2  1  0
 13  7  1  0
  1 15  1  0
  1 16  1  0
  1 17  1  0
  6 18  1  0
  6 19  1  0
  8 20  1  0
  8 21  1  0
  9 22  1  0
 10 23  1  0
 10 24  1  0
 11 25  1  0
 11 26  1  0
 12 27  1  0
 13 28  1  0
 13 29  1  0
M  END
$$$$

     RDKit          3D

 29 30  0  0  0  0  0  0  0  0999 V2000
    4.6041    0.0766    1.2326 C   0  0  0  0  0  0  0  0  0  0  0  0
    3.4340   -0.1881    0.3776 N   0  0  0  0  0  0  0  0  0  0  0  0
    3.2656   -1.2449   -0.3983 N   0  0  0  0  0  0  0  0  0  0  0  0
    2.1003   -1.1423   -1.0152 N   0  0  0  0  0  0  0  0  0  0  0  0
    1.5021   -0.0005   -0.6340 C   0  0  0  0  0  0  0  0  0  0  0  0
    0.1861    0.5329   -1.0631 C   0  0  0  0  0  0  0  0  0  0  0  0
   -0.9326    0.0780   -0.1958 C   0  0  2  0  0  0  0  0  0  0  0  0
   -1.1121   -1.4069   -0.1488 C   0  0  0  0  0  0  0  0  0  0  0  0
   -1.3734   -1.9510   -1.3890 O   0  0  0  0  0  0  0  0  0  0  0  0
   -2.2213    0.6589   -0.7970 C   0  0  0  0  0  0  0  0  0  0  0  0
   -3.1452    0.5629    0.3953 C   0  0  0  0  0  0  0  0  0  0  0  0
   -2.3364    0.4993    1.5723 N   0  0  0  0  0  0  0  0  0  0  0  0
   -0.9546    0.6865    1.1714 C   0  0  0  0  0  0  0  0  0  0  0  0
    2.3646    0.5600    0.2305 N   0  0  0  0  0  0  0  0  0  0  0  0
    4.3575    0.8631    1.9473 H   0  0  0  0  0  0  0  0  0  0  0  0
    4.9256   -0.8694    1.6794 H   0  0  0  0  0  0  0  0  0  0  0  0
    5.3838    0.4723    0.5408 H   0  0  0  0  0  0  0  0  0  0  0  0
   -0.0597    0.2514   -2.1202 H   0  0  0  0  0  0  0  0  0  0  0  0
    0.2227    1.6367   -1.0361 H   0  0  0  0  0  0  0  0  0  0  0  0
   -0.2726   -1.8971    0.3870 H   0  0  0  0  0  0  0  0  0  0  0  0
   -2.0217   -1.5996    0.4894 H   0  0  0  0  0  0  0  0  0  0  0  0
   -2.1705   -2.5515   -1.3744 H   0  0  0  0  0  0  0  0  0  0  0  0
   -2.5597    0.0922   -1.6664 H   0  0  0  0  0  0  0  0  0  0  0  0
   -2.0116    1.7230   -0.9957 H   0  0  0  0  0  0  0  0  0  0  0  0
   -3.7140   -0.4030    0.2603 H   0  0  0  0  0  0  0  0  0  0  0  0
   -3.8306    1.4206    0.3504 H   0  0  0  0  0  0  0  0  0  0  0  0
   -2.6044    1.1972    2.3095 H   0  0  0  0  0  0  0  0  0  0  0  0
   -0.2986    0.1740    1.8797 H   0  0  0  0  0  0  0  0  0  0  0  0
   -0.7277    1.7685    1.0823 H   0  0  0  0  0  0  0  0  0  0  0  0
  1  2  1  0
  2  3  1  0
  3  4  2  0
  4  5  1  0
  5  6  1  0
  7  6  1  6
  7  8  1  0
  8  9  1  0
  7 10  1  0
 10 11  1  0
 11 12  1  0
 12 13  1  0
  5 14  2  0
 14  2  1  0
 13  7  1  0
  1 15  1  0
  1 16  1  0
  1 17  1  0
  6 18  1  0
  6 19  1  0
  8 20  1  0
  8 21  1  0
  9 22  1  0
 10 23  1  0
 10 24  1  0
 11 25  1  0
 11 26  1  0
 12 27  1  0
 13 28  1  0
 13 29  1  0
M  END
$$$$

     RDKit          3D

 29 30  0  0  0  0  0  0  0  0999 V2000
    4.5985   -0.2698   -0.6667 C   0  0  0  0  0  0  0  0  0  0  0  0
    3.3157    0.2213   -0.2040 N   0  0  0  0  0  0  0  0  0  0  0  0
    3.0280    1.5252   -0.1951 N   0  0  0  0  0  0  0  0  0  0  0  0
    1.8058    1.6165    0.2756 N   0  0  0  0  0  0  0  0  0  0  0  0
    1.3028    0.4096    0.5682 C   0  0  0  0  0  0  0  0  0  0  0  0
   -0.0249    0.0545    1.1157 C   0  0  0  0  0  0  0  0  0  0  0  0
   -1.0593   -0.1898    0.0560 C   0  0  2  0  0  0  0  0  0  0  0  0
   -0.6951   -1.3112   -0.8724 C   0  0  0  0  0  0  0  0  0  0  0  0
   -0.5481   -2.4852   -0.1664 O   0  0  0  0  0  0  0  0  0  0  0  0
   -1.3205    1.0953   -0.6866 C   0  0  0  0  0  0  0  0  0  0  0  0
   -2.6307    1.5558   -0.0351 C   0  0  0  0  0  0  0  0  0  0  0  0
   -3.3331    0.2943    0.0771 N   0  0  0  0  0  0  0  0  0  0  0  0
   -2.3528   -0.5447    0.7414 C   0  0  0  0  0  0  0  0  0  0  0  0
    2.2745   -0.4681    0.2579 N   0  0  0  0  0  0  0  0  0  0  0  0
    4.7420    0.0323   -1.7373 H   0  0  0  0  0  0  0  0  0  0  0  0
    5.4083    0.2309   -0.0703 H   0  0  0  0  0  0  0  0  0  0  0  0
    4.6766   -1.3541   -0.5582 H   0  0  0  0  0  0  0  0  0  0  0  0
    0.0163   -0.7926    1.8200 H   0  0  0  0  0  0  0  0  0  0  0  0
   -0.3820    0.9310    1.7165 H   0  0  0  0  0  0  0  0  0  0  0  0
   -1.5723   -1.4562   -1.5586 H   0  0  0  0  0  0  0  0  0  0  0  0
    0.1961   -1.0867   -1.4997 H   0  0  0  0  0  0  0  0  0  0  0  0
   -1.2909   -3.1125   -0.2962 H   0  0  0  0  0  0  0  0  0  0  0  0
   -0.5851    1.8805   -0.4983 H   0  0  0  0  0  0  0  0  0  0  0  0
   -1.4527    0.9468   -1.7721 H   0  0  0  0  0  0  0  0  0  0  0  0
   -3.1501    2.3066   -0.6281 H   0  0  0  0  0  0  0  0  0  0  0  0
   -2.3778    1.8734    0.9983 H   0  0  0  0  0  0  0  0  0  0  0  0
   -3.6477   -0.0848   -0.8312 H   0  0  0  0  0  0  0  0  0  0  0  0
   -2.6012   -1.6220    0.6766 H   0  0  0  0  0  0  0  0  0  0  0  0
   -2.3402   -0.1964    1.8145 H   0  0  0  0  0  0  0  0  0  0  0  0
  1  2  1  0
  2  3  1  0
  3  4  2  0
  4  5  1  0
  5  6  1  0
  7  6  1  1
  7  8  1  0
  8  9  1  0
  7 10  1  0
 10 11  1  0
 11 12  1  0
 12 13  1  0
  5 14  2  0
 14  2  1  0
 13  7  1  0
  1 15  1  0
  1 16  1  0
  1 17  1  0
  6 18  1  0
  6 19  1  0
  8 20  1  0
  8 21  1  0
  9 22  1  0
 10 23  1  0
 10 24  1  0
 11 25  1  0
 11 26  1  0
 12 27  1  0
 13 28  1  0
 13 29  1  0
M  END
$$$$

     RDKit          3D

 29 30  0  0  0  0  0  0  0  0999 V2000
    4.5839    0.6779   -0.3436 C   0  0  0  0  0  0  0  0  0  0  0  0
    3.3998   -0.1758   -0.1884 N   0  0  0  0  0  0  0  0  0  0  0  0
    3.2278   -1.4141   -0.5543 N   0  0  0  0  0  0  0  0  0  0  0  0
    2.0012   -1.7709   -0.2098 N   0  0  0  0  0  0  0  0  0  0  0  0
    1.3725   -0.7440    0.3885 C   0  0  0  0  0  0  0  0  0  0  0  0
    0.0326   -0.6145    0.9455 C   0  0  0  0  0  0  0  0  0  0  0  0
   -1.0268   -0.1425    0.0147 C   0  0  2  0  0  0  0  0  0  0  0  0
   -0.7021    1.2300   -0.5379 C   0  0  0  0  0  0  0  0  0  0  0  0
   -0.5849    2.1795    0.4647 O   0  0  0  0  0  0  0  0  0  0  0  0
   -2.3116    0.0119    0.8197 C   0  0  0  0  0  0  0  0  0  0  0  0
   -3.3750   -0.1568   -0.2136 C   0  0  0  0  0  0  0  0  0  0  0  0
   -2.8494   -0.9487   -1.2792 N   0  0  0  0  0  0  0  0  0  0  0  0
   -1.4109   -1.0319   -1.0865 C   0  0  0  0  0  0  0  0  0  0  0  0
    2.2921    0.2388    0.3794 N   0  0  0  0  0  0  0  0  0  0  0  0
    5.3866    0.1474   -0.8835 H   0  0  0  0  0  0  0  0  0  0  0  0
    4.3147    1.6409   -0.8256 H   0  0  0  0  0  0  0  0  0  0  0  0
    4.9330    0.9188    0.6922 H   0  0  0  0  0  0  0  0  0  0  0  0
   -0.2451   -1.5798    1.4161 H   0  0  0  0  0  0  0  0  0  0  0  0
    0.0651    0.1202    1.7983 H   0  0  0  0  0  0  0  0  0  0  0  0
   -1.4300    1.5490   -1.3052 H   0  0  0  0  0  0  0  0  0  0  0  0
    0.2881    1.1895   -1.0662 H   0  0  0  0  0  0  0  0  0  0  0  0
    0.0690    2.8699    0.2232 H   0  0  0  0  0  0  0  0  0  0  0  0
   -2.3223   -0.8095    1.5596 H   0  0  0  0  0  0  0  0  0  0  0  0
   -2.3065    1.0144    1.2924 H   0  0  0  0  0  0  0  0  0  0  0  0
   -4.2797   -0.6293    0.2364 H   0  0  0  0  0  0  0  0  0  0  0  0
   -3.6901    0.8522   -0.5864 H   0  0  0  0  0  0  0  0  0  0  0  0
   -3.3088   -1.8777   -1.2731 H   0  0  0  0  0  0  0  0  0  0  0  0
   -1.1608   -2.0946   -0.9775 H   0  0  0  0  0  0  0  0  0  0  0  0
   -0.9624   -0.6503   -2.0503 H   0  0  0  0  0  0  0  0  0  0  0  0
  1  2  1  0
  2  3  1  0
  3  4  2  0
  4  5  1  0
  5  6  1  0
  7  6  1  1
  7  8  1  0
  8  9  1  0
  7 10  1  0
 10 11  1  0
 11 12  1  0
 12 13  1  0
  5 14  2  0
 14  2  1  0
 13  7  1  0
  1 15  1  0
  1 16  1  0
  1 17  1  0
  6 18  1  0
  6 19  1  0
  8 20  1  0
  8 21  1  0
  9 22  1  0
 10 23  1  0
 10 24  1  0
 11 25  1  0
 11 26  1  0
 12 27  1  0
 13 28  1  0
 13 29  1  0
M  END
$$$$

     RDKit          3D

 29 30  0  0  0  0  0  0  0  0999 V2000
    4.6301   -0.7453    0.0507 C   0  0  0  0  0  0  0  0  0  0  0  0
    3.3942    0.0177    0.0979 N   0  0  0  0  0  0  0  0  0  0  0  0
    3.1619    1.0501    0.8667 N   0  0  0  0  0  0  0  0  0  0  0  0
    1.9374    1.4976    0.6500 N   0  0  0  0  0  0  0  0  0  0  0  0
    1.3720    0.7248   -0.2874 C   0  0  0  0  0  0  0  0  0  0  0  0
    0.0259    0.8199   -0.8650 C   0  0  0  0  0  0  0  0  0  0  0  0
   -1.0094    0.0273   -0.1315 C   0  0  2  0  0  0  0  0  0  0  0  0
   -0.6725   -1.4477   -0.1078 C   0  0  0  0  0  0  0  0  0  0  0  0
   -1.6742   -2.1267    0.5886 O   0  0  0  0  0  0  0  0  0  0  0  0
   -2.3335    0.2274   -0.8786 C   0  0  0  0  0  0  0  0  0  0  0  0
   -3.0092    1.2446    0.0337 C   0  0  0  0  0  0  0  0  0  0  0  0
   -2.7104    0.6502    1.3464 N   0  0  0  0  0  0  0  0  0  0  0  0
   -1.2658    0.5362    1.2554 C   0  0  0  0  0  0  0  0  0  0  0  0
    2.3008   -0.1985   -0.6221 N   0  0  0  0  0  0  0  0  0  0  0  0
    4.4951   -1.7048   -0.4761 H   0  0  0  0  0  0  0  0  0  0  0  0
    5.3634   -0.1274   -0.5162 H   0  0  0  0  0  0  0  0  0  0  0  0
    5.0037   -0.9087    1.0650 H   0  0  0  0  0  0  0  0  0  0  0  0
   -0.3068    1.8771   -0.8960 H   0  0  0  0  0  0  0  0  0  0  0  0
    0.0388    0.4509   -1.9246 H   0  0  0  0  0  0  0  0  0  0  0  0
    0.2777   -1.5824    0.4287 H   0  0  0  0  0  0  0  0  0  0  0  0
   -0.6559   -1.8488   -1.1360 H   0  0  0  0  0  0  0  0  0  0  0  0
   -1.9244   -2.9725    0.1753 H   0  0  0  0  0  0  0  0  0  0  0  0
   -2.1671    0.6194   -1.8938 H   0  0  0  0  0  0  0  0  0  0  0  0
   -2.9271   -0.7017   -0.8720 H   0  0  0  0  0  0  0  0  0  0  0  0
   -4.0786    1.3338   -0.1471 H   0  0  0  0  0  0  0  0  0  0  0  0
   -2.4708    2.2171   -0.0608 H   0  0  0  0  0  0  0  0  0  0  0  0
   -3.0775   -0.3411    1.2707 H   0  0  0  0  0  0  0  0  0  0  0  0
   -0.8599   -0.1546    2.0168 H   0  0  0  0  0  0  0  0  0  0  0  0
   -0.8580    1.5661    1.3322 H   0  0  0  0  0  0  0  0  0  0  0  0
  1  2  1  0
  2  3  1  0
  3  4  2  0
  4  5  1  0
  5  6  1  0
  7  6  1  6
  7  8  1  0
  8  9  1  0
  7 10  1  0
 10 11  1  0
 11 12  1  0
 12 13  1  0
  5 14  2  0
 14  2  1  0
 13  7  1  0
  1 15  1  0
  1 16  1  0
  1 17  1  0
  6 18  1  0
  6 19  1  0
  8 20  1  0
  8 21  1  0
  9 22  1  0
 10 23  1  0
 10 24  1  0
 11 25  1  0
 11 26  1  0
 12 27  1  0
 13 28  1  0
 13 29  1  0
M  END
$$$$

     RDKit          3D

 29 30  0  0  0  0  0  0  0  0999 V2000
    5.0133    0.1101    0.3069 C   0  0  0  0  0  0  0  0  0  0  0  0
    3.5734    0.1018    0.0401 N   0  0  0  0  0  0  0  0  0  0  0  0
    2.9814    0.1107   -1.1407 N   0  0  0  0  0  0  0  0  0  0  0  0
    1.6731    0.0988   -1.0055 N   0  0  0  0  0  0  0  0  0  0  0  0
    1.3973    0.0813    0.3160 C   0  0  0  0  0  0  0  0  0  0  0  0
    0.1153    0.0629    1.0324 C   0  0  0  0  0  0  0  0  0  0  0  0
   -1.0755    0.0700    0.1337 C   0  0  2  0  0  0  0  0  0  0  0  0
   -1.1359    1.2827   -0.7506 C   0  0  0  0  0  0  0  0  0  0  0  0
   -1.1932    2.4292    0.0410 O   0  0  0  0  0  0  0  0  0  0  0  0
   -2.3170    0.0813    1.0042 C   0  0  0  0  0  0  0  0  0  0  0  0
   -3.0363   -1.1983    0.6846 C   0  0  0  0  0  0  0  0  0  0  0  0
   -2.5246   -1.6816   -0.5610 N   0  0  0  0  0  0  0  0  0  0  0  0
   -1.1826   -1.1788   -0.7092 C   0  0  0  0  0  0  0  0  0  0  0  0
    2.5976    0.0837    0.9310 N   0  0  0  0  0  0  0  0  0  0  0  0
    5.2853   -0.6572    1.0413 H   0  0  0  0  0  0  0  0  0  0  0  0
    5.2459    1.0965    0.7644 H   0  0  0  0  0  0  0  0  0  0  0  0
    5.5345   -0.0154   -0.6575 H   0  0  0  0  0  0  0  0  0  0  0  0
    0.0438    0.9654    1.6865 H   0  0  0  0  0  0  0  0  0  0  0  0
    0.0802   -0.8475    1.6635 H   0  0  0  0  0  0  0  0  0  0  0  0
   -2.1041    1.2395   -1.3155 H   0  0  0  0  0  0  0  0  0  0  0  0
   -0.2925    1.3475   -1.4391 H   0  0  0  0  0  0  0  0  0  0  0  0
   -2.1160    2.7223    0.2248 H   0  0  0  0  0  0  0  0  0  0  0  0
   -2.0666    0.1821    2.0746 H   0  0  0  0  0  0  0  0  0  0  0  0
   -3.0030    0.9201    0.7471 H   0  0  0  0  0  0  0  0  0  0  0  0
   -4.1470   -1.0215    0.6565 H   0  0  0  0  0  0  0  0  0  0  0  0
   -2.8171   -1.9784    1.4651 H   0  0  0  0  0  0  0  0  0  0  0  0
   -3.1325   -1.5399   -1.3720 H   0  0  0  0  0  0  0  0  0  0  0  0
   -0.9138   -0.9235   -1.7475 H   0  0  0  0  0  0  0  0  0  0  0  0
   -0.4834   -1.9440   -0.3106 H   0  0  0  0  0  0  0  0  0  0  0  0
  1  2  1  0
  2  3  1  0
  3  4  2  0
  4  5  1  0
  5  6  1  0
  7  6  1  1
  7  8  1  0
  8  9  1  0
  7 10  1  0
 10 11  1  0
 11 12  1  0
 12 13  1  0
  5 14  2  0
 14  2  1  0
 13  7  1  0
  1 15  1  0
  1 16  1  0
  1 17  1  0
  6 18  1  0
  6 19  1  0
  8 20  1  0
  8 21  1  0
  9 22  1  0
 10 23  1  0
 10 24  1  0
 11 25  1  0
 11 26  1  0
 12 27  1  0
 13 28  1  0
 13 29  1  0
M  END
$$$$

     RDKit          3D

 29 30  0  0  0  0  0  0  0  0999 V2000
    4.5263    0.5888    0.0611 C   0  0  0  0  0  0  0  0  0  0  0  0
    3.2170    0.0997   -0.3830 N   0  0  0  0  0  0  0  0  0  0  0  0
    2.7922    0.0980   -1.6188 N   0  0  0  0  0  0  0  0  0  0  0  0
    1.5827   -0.4052   -1.6721 N   0  0  0  0  0  0  0  0  0  0  0  0
    1.2052   -0.7442   -0.4239 C   0  0  0  0  0  0  0  0  0  0  0  0
   -0.0881   -1.3347   -0.1166 C   0  0  0  0  0  0  0  0  0  0  0  0
   -1.1821   -0.3747    0.1952 C   0  0  2  0  0  0  0  0  0  0  0  0
   -2.4277   -1.2171    0.4816 C   0  0  0  0  0  0  0  0  0  0  0  0
   -2.7075   -1.9623   -0.6534 O   0  0  0  0  0  0  0  0  0  0  0  0
   -1.5325    0.5511   -0.9237 C   0  0  0  0  0  0  0  0  0  0  0  0
   -2.0012    1.7943   -0.1548 C   0  0  0  0  0  0  0  0  0  0  0  0
   -0.9360    1.8844    0.8466 N   0  0  0  0  0  0  0  0  0  0  0  0
   -0.9497    0.5075    1.3594 C   0  0  0  0  0  0  0  0  0  0  0  0
    2.2563   -0.4116    0.3502 N   0  0  0  0  0  0  0  0  0  0  0  0
    5.1397   -0.2692    0.3695 H   0  0  0  0  0  0  0  0  0  0  0  0
    4.3686    1.2811    0.9187 H   0  0  0  0  0  0  0  0  0  0  0  0
    5.0001    1.1610   -0.7569 H   0  0  0  0  0  0  0  0  0  0  0  0
   -0.4141   -1.9770   -0.9599 H   0  0  0  0  0  0  0  0  0  0  0  0
   -0.0181   -2.0401    0.7634 H   0  0  0  0  0  0  0  0  0  0  0  0
   -2.1814   -1.8764    1.3248 H   0  0  0  0  0  0  0  0  0  0  0  0
   -3.2720   -0.5546    0.7366 H   0  0  0  0  0  0  0  0  0  0  0  0
   -2.4265   -2.9084   -0.5539 H   0  0  0  0  0  0  0  0  0  0  0  0
   -2.3976    0.2227   -1.5298 H   0  0  0  0  0  0  0  0  0  0  0  0
   -0.6781    0.8142   -1.5751 H   0  0  0  0  0  0  0  0  0  0  0  0
   -2.9409    1.5471    0.3642 H   0  0  0  0  0  0  0  0  0  0  0  0
   -2.0480    2.6805   -0.7919 H   0  0  0  0  0  0  0  0  0  0  0  0
   -0.0636    2.0737    0.3063 H   0  0  0  0  0  0  0  0  0  0  0  0
   -1.7896    0.4846    2.1003 H   0  0  0  0  0  0  0  0  0  0  0  0
   -0.0335    0.2867    1.9360 H   0  0  0  0  0  0  0  0  0  0  0  0
  1  2  1  0
  2  3  1  0
  3  4  2  0
  4  5  1  0
  5  6  1  0
  7  6  1  6
  7  8  1  0
  8  9  1  0
  7 10  1  0
 10 11  1  0
 11 12  1  0
 12 13  1  0
  5 14  2  0
 14  2  1  0
 13  7  1  0
  1 15  1  0
  1 16  1  0
  1 17  1  0
  6 18  1  0
  6 19  1  0
  8 20  1  0
  8 21  1  0
  9 22  1  0
 10 23  1  0
 10 24  1  0
 11 25  1  0
 11 26  1  0
 12 27  1  0
 13 28  1  0
 13 29  1  0
M  END
$$$$

     RDKit          3D

 29 30  0  0  0  0  0  0  0  0999 V2000
    4.8644    0.4595    0.2918 C   0  0  0  0  0  0  0  0  0  0  0  0
    3.4026    0.4144    0.2535 N   0  0  0  0  0  0  0  0  0  0  0  0
    2.6476    1.0772    1.1117 N   0  0  0  0  0  0  0  0  0  0  0  0
    1.3942    0.8154    0.7934 N   0  0  0  0  0  0  0  0  0  0  0  0
    1.3404   -0.0028   -0.2528 C   0  0  0  0  0  0  0  0  0  0  0  0
    0.1693   -0.5582   -0.9480 C   0  0  0  0  0  0  0  0  0  0  0  0
   -1.1231   -0.0732   -0.3454 C   0  0  2  0  0  0  0  0  0  0  0  0
   -1.3003    1.4114   -0.3930 C   0  0  0  0  0  0  0  0  0  0  0  0
   -1.2705    1.7915   -1.7536 O   0  0  0  0  0  0  0  0  0  0  0  0
   -1.2045   -0.5797    1.0956 C   0  0  0  0  0  0  0  0  0  0  0  0
   -2.6575   -0.9374    1.2072 C   0  0  0  0  0  0  0  0  0  0  0  0
   -2.8484   -1.6939   -0.0414 N   0  0  0  0  0  0  0  0  0  0  0  0
   -2.3089   -0.7496   -1.0012 C   0  0  0  0  0  0  0  0  0  0  0  0
    2.6279   -0.2443   -0.5790 N   0  0  0  0  0  0  0  0  0  0  0  0
    5.2697    1.1694   -0.4310 H   0  0  0  0  0  0  0  0  0  0  0  0
    5.2272    0.7105    1.2993 H   0  0  0  0  0  0  0  0  0  0  0  0
    5.2112   -0.5641    0.0368 H   0  0  0  0  0  0  0  0  0  0  0  0
    0.1817   -1.6718   -0.7864 H   0  0  0  0  0  0  0  0  0  0  0  0
    0.1954   -0.3184   -2.0315 H   0  0  0  0  0  0  0  0  0  0  0  0
   -0.5566    1.9590    0.1798 H   0  0  0  0  0  0  0  0  0  0  0  0
   -2.3229    1.6394    0.0036 H   0  0  0  0  0  0  0  0  0  0  0  0
   -1.7751    2.6365   -1.8593 H   0  0  0  0  0  0  0  0  0  0  0  0
   -0.6166   -1.5097    1.1340 H   0  0  0  0  0  0  0  0  0  0  0  0
   -0.8811    0.1921    1.8136 H   0  0  0  0  0  0  0  0  0  0  0  0
   -3.2987   -0.0472    1.1209 H   0  0  0  0  0  0  0  0  0  0  0  0
   -2.8902   -1.5735    2.0792 H   0  0  0  0  0  0  0  0  0  0  0  0
   -2.2816   -2.5775   -0.0001 H   0  0  0  0  0  0  0  0  0  0  0  0
   -2.0747   -1.1897   -1.9707 H   0  0  0  0  0  0  0  0  0  0  0  0
   -3.1209    0.0147   -1.1598 H   0  0  0  0  0  0  0  0  0  0  0  0
  1  2  1  0
  2  3  1  0
  3  4  2  0
  4  5  1  0
  5  6  1  0
  7  6  1  6
  7  8  1  0
  8  9  1  0
  7 10  1  0
 10 11  1  0
 11 12  1  0
 12 13  1  0
  5 14  2  0
 14  2  1  0
 13  7  1  0
  1 15  1  0
  1 16  1  0
  1 17  1  0
  6 18  1  0
  6 19  1  0
  8 20  1  0
  8 21  1  0
  9 22  1  0
 10 23  1  0
 10 24  1  0
 11 25  1  0
 11 26  1  0
 12 27  1  0
 13 28  1  0
 13 29  1  0
M  END
$$$$
