
     RDKit          3D

 19 19  0  0  0  0  0  0  0  0999 V2000
    2.6281   -0.5333   -0.1626 N   0  0  0  0  0  0  0  0  0  0  0  0
    1.3057   -0.5757   -0.4081 O   0  0  0  0  0  0  0  0  0  0  0  0
    0.5570    0.1026    0.5429 C   0  0  2  0  0  0  0  0  0  0  0  0
   -0.4811   -0.8865    1.0580 C   0  0  0  0  0  0  0  0  0  0  0  0
   -1.2962   -1.1808   -0.5203 S   0  0  0  0  0  6  0  0  0  0  0  0
   -2.6971   -1.5893   -0.3537 O   0  0  0  0  0  0  0  0  0  0  0  0
   -0.4454   -2.1250   -1.2788 O   0  0  0  0  0  0  0  0  0  0  0  0
   -1.1342    0.4919   -1.1527 C   0  0  0  0  0  0  0  0  0  0  0  0
   -0.2593    1.1696   -0.1385 C   0  0  1  0  0  0  0  0  0  0  0  0
   -1.0777    1.7826    0.8026 O   0  0  0  0  0  0  0  0  0  0  0  0
    2.8814    0.2942    0.4258 H   0  0  0  0  0  0  0  0  0  0  0  0
    3.1597   -0.5334   -1.0672 H   0  0  0  0  0  0  0  0  0  0  0  0
    1.1412    0.5615    1.3344 H   0  0  0  0  0  0  0  0  0  0  0  0
   -0.0543   -1.7871    1.4761 H   0  0  0  0  0  0  0  0  0  0  0  0
   -1.2180   -0.3617    1.6850 H   0  0  0  0  0  0  0  0  0  0  0  0
   -2.1645    0.9101   -1.1571 H   0  0  0  0  0  0  0  0  0  0  0  0
   -0.6642    0.5100   -2.1431 H   0  0  0  0  0  0  0  0  0  0  0  0
    0.4464    1.8701   -0.6248 H   0  0  0  0  0  0  0  0  0  0  0  0
   -0.6277    1.8801    1.6819 H   0  0  0  0  0  0  0  0  0  0  0  0
  1  2  1  0
  2  3  1  0
  3  4  1  0
  4  5  1  0
  5  6  2  0
  5  7  2  0
  5  8  1  0
  8  9  1  0
  9 10  1  0
  9  3  1  0
  1 11  1  0
  1 12  1  0
  3 13  1  1
  4 14  1  0
  4 15  1  0
  8 16  1  0
  8 17  1  0
  9 18  1  6
 10 19  1  0
M  END
$$$$

     RDKit          3D

 19 19  0  0  0  0  0  0  0  0999 V2000
    2.8162   -0.3465   -0.7242 N   0  0  0  0  0  0  0  0  0  0  0  0
    1.5396   -0.4758   -1.1366 O   0  0  0  0  0  0  0  0  0  0  0  0
    0.6158   -0.2687   -0.1185 C   0  0  2  0  0  0  0  0  0  0  0  0
   -0.2969   -1.4468   -0.0034 C   0  0  0  0  0  0  0  0  0  0  0  0
   -1.8162   -0.7101    0.6185 S   0  0  0  0  0  6  0  0  0  0  0  0
   -2.8563   -0.6840   -0.4370 O   0  0  0  0  0  0  0  0  0  0  0  0
   -2.2384   -1.2923    1.8990 O   0  0  0  0  0  0  0  0  0  0  0  0
   -1.1572    0.9559    0.8089 C   0  0  0  0  0  0  0  0  0  0  0  0
   -0.2879    0.9271   -0.4546 C   0  0  1  0  0  0  0  0  0  0  0  0
    0.4147    2.0705   -0.6388 O   0  0  0  0  0  0  0  0  0  0  0  0
    3.0633   -1.1384   -0.0934 H   0  0  0  0  0  0  0  0  0  0  0  0
    2.9247    0.5569   -0.2198 H   0  0  0  0  0  0  0  0  0  0  0  0
    1.0857   -0.0334    0.8560 H   0  0  0  0  0  0  0  0  0  0  0  0
    0.0672   -2.1026    0.8124 H   0  0  0  0  0  0  0  0  0  0  0  0
   -0.5088   -1.9549   -0.9401 H   0  0  0  0  0  0  0  0  0  0  0  0
   -1.9294    1.7085    0.7669 H   0  0  0  0  0  0  0  0  0  0  0  0
   -0.4802    0.9811    1.6565 H   0  0  0  0  0  0  0  0  0  0  0  0
   -0.9091    0.6261   -1.3140 H   0  0  0  0  0  0  0  0  0  0  0  0
   -0.0467    2.6273   -1.3377 H   0  0  0  0  0  0  0  0  0  0  0  0
  1  2  1  0
  2  3  1  0
  3  4  1  0
  4  5  1  0
  5  6  2  0
  5  7  2  0
  5  8  1  0
  8  9  1  0
  9 10  1  0
  9  3  1  0
  1 11  1  0
  1 12  1  0
  3 13  1  1
  4 14  1  0
  4 15  1  0
  8 16  1  0
  8 17  1  0
  9 18  1  6
 10 19  1  0
M  END
$$$$

     RDKit          3D

 19 19  0  0  0  0  0  0  0  0999 V2000
    2.4946   -0.4767   -0.9265 N   0  0  0  0  0  0  0  0  0  0  0  0
    1.2010   -0.4517   -0.7867 O   0  0  0  0  0  0  0  0  0  0  0  0
    0.7065    0.0370    0.3977 C   0  0  2  0  0  0  0  0  0  0  0  0
   -0.2111   -1.0120    1.0428 C   0  0  0  0  0  0  0  0  0  0  0  0
   -1.5985   -0.9496   -0.1017 S   0  0  0  0  0  6  0  0  0  0  0  0
   -2.8652   -0.7108    0.6295 O   0  0  0  0  0  0  0  0  0  0  0  0
   -1.6152   -2.1387   -0.9868 O   0  0  0  0  0  0  0  0  0  0  0  0
   -1.1377    0.5353   -1.0084 C   0  0  0  0  0  0  0  0  0  0  0  0
   -0.2443    1.1860    0.0417 C   0  0  1  0  0  0  0  0  0  0  0  0
   -0.9898    1.5485    1.1481 O   0  0  0  0  0  0  0  0  0  0  0  0
    3.0572    0.2302   -0.4454 H   0  0  0  0  0  0  0  0  0  0  0  0
    2.9502   -1.3711   -1.1332 H   0  0  0  0  0  0  0  0  0  0  0  0
    1.4538    0.3638    1.1218 H   0  0  0  0  0  0  0  0  0  0  0  0
   -0.5530   -0.6462    2.0108 H   0  0  0  0  0  0  0  0  0  0  0  0
    0.2404   -2.0007    1.0419 H   0  0  0  0  0  0  0  0  0  0  0  0
   -0.5267    0.2461   -1.8650 H   0  0  0  0  0  0  0  0  0  0  0  0
   -2.0207    1.1495   -1.2472 H   0  0  0  0  0  0  0  0  0  0  0  0
    0.3629    1.9935   -0.3731 H   0  0  0  0  0  0  0  0  0  0  0  0
   -0.7045    2.4678    1.4399 H   0  0  0  0  0  0  0  0  0  0  0  0
  1  2  1  0
  2  3  1  0
  3  4  1  0
  4  5  1  0
  5  6  2  0
  5  7  2  0
  5  8  1  0
  8  9  1  0
  9 10  1  0
  9  3  1  0
  1 11  1  0
  1 12  1  0
  3 13  1  1
  4 14  1  0
  4 15  1  0
  8 16  1  0
  8 17  1  0
  9 18  1  6
 10 19  1  0
M  END
$$$$

     RDKit          3D

 19 19  0  0  0  0  0  0  0  0999 V2000
    2.7433    0.3846   -0.4921 N   0  0  0  0  0  0  0  0  0  0  0  0
    1.8288    0.3519    0.4748 O   0  0  0  0  0  0  0  0  0  0  0  0
    0.5618    0.1967   -0.0859 C   0  0  2  0  0  0  0  0  0  0  0  0
   -0.2491    1.3966    0.2896 C   0  0  0  0  0  0  0  0  0  0  0  0
   -1.9223    0.7586    0.1542 S   0  0  0  0  0  6  0  0  0  0  0  0
   -2.4651    0.9274   -1.2197 O   0  0  0  0  0  0  0  0  0  0  0  0
   -2.7861    1.3089    1.2234 O   0  0  0  0  0  0  0  0  0  0  0  0
   -1.5286   -0.9599    0.4130 C   0  0  0  0  0  0  0  0  0  0  0  0
   -0.0534   -1.0300    0.4656 C   0  0  1  0  0  0  0  0  0  0  0  0
    0.3534   -2.1138   -0.3496 O   0  0  0  0  0  0  0  0  0  0  0  0
    3.3255   -0.4735   -0.5643 H   0  0  0  0  0  0  0  0  0  0  0  0
    3.3100    1.2599   -0.5118 H   0  0  0  0  0  0  0  0  0  0  0  0
    0.6517    0.1420   -1.1823 H   0  0  0  0  0  0  0  0  0  0  0  0
   -0.0160    1.7259    1.3045 H   0  0  0  0  0  0  0  0  0  0  0  0
   -0.1165    2.1666   -0.4908 H   0  0  0  0  0  0  0  0  0  0  0  0
   -1.9706   -1.2769    1.4018 H   0  0  0  0  0  0  0  0  0  0  0  0
   -2.0036   -1.6081   -0.3555 H   0  0  0  0  0  0  0  0  0  0  0  0
    0.3109   -1.2587    1.4800 H   0  0  0  0  0  0  0  0  0  0  0  0
    0.0260   -1.8980   -1.2749 H   0  0  0  0  0  0  0  0  0  0  0  0
  1  2  1  0
  2  3  1  0
  3  4  1  0
  4  5  1  0
  5  6  2  0
  5  7  2  0
  5  8  1  0
  8  9  1  0
  9 10  1  0
  9  3  1  0
  1 11  1  0
  1 12  1  0
  3 13  1  6
  4 14  1  0
  4 15  1  0
  8 16  1  0
  8 17  1  0
  9 18  1  1
 10 19  1  0
M  END
$$$$

     RDKit          3D

 19 19  0  0  0  0  0  0  0  0999 V2000
    2.7111   -0.5138    0.3973 N   0  0  0  0  0  0  0  0  0  0  0  0
    1.7758   -0.6027   -0.5787 O   0  0  0  0  0  0  0  0  0  0  0  0
    0.5594   -0.2852   -0.0227 C   0  0  2  0  0  0  0  0  0  0  0  0
   -0.4728   -1.3864   -0.1798 C   0  0  0  0  0  0  0  0  0  0  0  0
   -1.8713   -0.4522    0.4674 S   0  0  0  0  0  6  0  0  0  0  0  0
   -1.8069   -0.3991    1.9461 O   0  0  0  0  0  0  0  0  0  0  0  0
   -3.1551   -0.9461   -0.0766 O   0  0  0  0  0  0  0  0  0  0  0  0
   -1.4030    1.1294   -0.2088 C   0  0  0  0  0  0  0  0  0  0  0  0
   -0.0339    0.8889   -0.7599 C   0  0  1  0  0  0  0  0  0  0  0  0
    0.7630    2.0007   -0.4750 O   0  0  0  0  0  0  0  0  0  0  0  0
    3.6735   -0.5904    0.0090 H   0  0  0  0  0  0  0  0  0  0  0  0
    2.5516   -1.1891    1.1760 H   0  0  0  0  0  0  0  0  0  0  0  0
    0.6007   -0.0358    1.0550 H   0  0  0  0  0  0  0  0  0  0  0  0
   -0.2594   -2.2640    0.4207 H   0  0  0  0  0  0  0  0  0  0  0  0
   -0.6827   -1.5921   -1.2495 H   0  0  0  0  0  0  0  0  0  0  0  0
   -1.4553    1.9338    0.5429 H   0  0  0  0  0  0  0  0  0  0  0  0
   -2.0923    1.3046   -1.0779 H   0  0  0  0  0  0  0  0  0  0  0  0
   -0.0134    0.7042   -1.8508 H   0  0  0  0  0  0  0  0  0  0  0  0
    0.6109    2.2951    0.4652 H   0  0  0  0  0  0  0  0  0  0  0  0
  1  2  1  0
  2  3  1  0
  3  4  1  0
  4  5  1  0
  5  6  2  0
  5  7  2  0
  5  8  1  0
  8  9  1  0
  9 10  1  0
  9  3  1  0
  1 11  1  0
  1 12  1  0
  3 13  1  1
  4 14  1  0
  4 15  1  0
  8 16  1  0
  8 17  1  0
  9 18  1  6
 10 19  1  0
M  END
$$$$

     RDKit          3D

 19 19  0  0  0  0  0  0  0  0999 V2000
   -2.4978    1.0483   -0.2714 N   0  0  0  0  0  0  0  0  0  0  0  0
   -1.1610    0.9863   -0.4592 O   0  0  0  0  0  0  0  0  0  0  0  0
   -0.6409   -0.0561    0.2649 C   0  0  2  0  0  0  0  0  0  0  0  0
    0.3607    0.4168    1.3098 C   0  0  0  0  0  0  0  0  0  0  0  0
    1.6853    0.8579    0.1944 S   0  0  0  0  0  6  0  0  0  0  0  0
    1.4303    2.1435   -0.5033 O   0  0  0  0  0  0  0  0  0  0  0  0
    2.9926    0.7914    0.8893 O   0  0  0  0  0  0  0  0  0  0  0  0
    1.4358   -0.5014   -0.9330 C   0  0  0  0  0  0  0  0  0  0  0  0
    0.0759   -1.0151   -0.6242 C   0  0  1  0  0  0  0  0  0  0  0  0
    0.0700   -2.2674   -0.0125 O   0  0  0  0  0  0  0  0  0  0  0  0
   -2.8990    1.9368   -0.5898 H   0  0  0  0  0  0  0  0  0  0  0  0
   -2.6996    0.8971    0.7441 H   0  0  0  0  0  0  0  0  0  0  0  0
   -1.4428   -0.5663    0.8060 H   0  0  0  0  0  0  0  0  0  0  0  0
    0.6911   -0.4589    1.8698 H   0  0  0  0  0  0  0  0  0  0  0  0
   -0.0108    1.2500    1.8768 H   0  0  0  0  0  0  0  0  0  0  0  0
    1.6097   -0.2248   -1.9708 H   0  0  0  0  0  0  0  0  0  0  0  0
    2.1724   -1.2936   -0.6214 H   0  0  0  0  0  0  0  0  0  0  0  0
   -0.5353   -1.0992   -1.5706 H   0  0  0  0  0  0  0  0  0  0  0  0
   -0.6367   -2.8455   -0.3988 H   0  0  0  0  0  0  0  0  0  0  0  0
  1  2  1  0
  2  3  1  0
  3  4  1  0
  4  5  1  0
  5  6  2  0
  5  7  2  0
  5  8  1  0
  8  9  1  0
  9 10  1  0
  9  3  1  0
  1 11  1  0
  1 12  1  0
  3 13  1  1
  4 14  1  0
  4 15  1  0
  8 16  1  0
  8 17  1  0
  9 18  1  6
 10 19  1  0
M  END
$$$$

     RDKit          3D

 19 19  0  0  0  0  0  0  0  0999 V2000
    2.7632    0.4835   -0.1619 N   0  0  0  0  0  0  0  0  0  0  0  0
    1.7249    0.2686   -0.9943 O   0  0  0  0  0  0  0  0  0  0  0  0
    0.6307   -0.0692   -0.2373 C   0  0  2  0  0  0  0  0  0  0  0  0
    0.1032   -1.4553   -0.5872 C   0  0  0  0  0  0  0  0  0  0  0  0
   -1.5464   -1.3642    0.1121 S   0  0  0  0  0  6  0  0  0  0  0  0
   -2.5395   -1.7474   -0.9256 O   0  0  0  0  0  0  0  0  0  0  0  0
   -1.6713   -2.1457    1.3581 O   0  0  0  0  0  0  0  0  0  0  0  0
   -1.6092    0.3994    0.4665 C   0  0  0  0  0  0  0  0  0  0  0  0
   -0.5009    0.8925   -0.4590 C   0  0  1  0  0  0  0  0  0  0  0  0
   -0.1040    2.1378   -0.0359 O   0  0  0  0  0  0  0  0  0  0  0  0
    3.5953   -0.0784   -0.4445 H   0  0  0  0  0  0  0  0  0  0  0  0
    3.0251    1.4863   -0.0836 H   0  0  0  0  0  0  0  0  0  0  0  0
    0.8564   -0.0839    0.8524 H   0  0  0  0  0  0  0  0  0  0  0  0
    0.7055   -2.2174   -0.0507 H   0  0  0  0  0  0  0  0  0  0  0  0
    0.0775   -1.6291   -1.6741 H   0  0  0  0  0  0  0  0  0  0  0  0
   -1.3043    0.5739    1.5044 H   0  0  0  0  0  0  0  0  0  0  0  0
   -2.5879    0.8018    0.2124 H   0  0  0  0  0  0  0  0  0  0  0  0
   -0.8510    0.8971   -1.5101 H   0  0  0  0  0  0  0  0  0  0  0  0
   -0.7671    2.8498   -0.1449 H   0  0  0  0  0  0  0  0  0  0  0  0
  1  2  1  0
  2  3  1  0
  3  4  1  0
  4  5  1  0
  5  6  2  0
  5  7  2  0
  5  8  1  0
  8  9  1  0
  9 10  1  0
  9  3  1  0
  1 11  1  0
  1 12  1  0
  3 13  1  1
  4 14  1  0
  4 15  1  0
  8 16  1  0
  8 17  1  0
  9 18  1  6
 10 19  1  0
M  END
$$$$

     RDKit          3D

 19 19  0  0  0  0  0  0  0  0999 V2000
    2.6519    0.1106   -0.9499 N   0  0  0  0  0  0  0  0  0  0  0  0
    1.5152   -0.4510   -0.5215 O   0  0  0  0  0  0  0  0  0  0  0  0
    0.5708    0.4304   -0.0763 C   0  0  2  0  0  0  0  0  0  0  0  0
    0.1312    0.2020    1.3445 C   0  0  0  0  0  0  0  0  0  0  0  0
   -1.3122   -0.8268    1.1812 S   0  0  0  0  0  6  0  0  0  0  0  0
   -1.1673   -2.1147    1.9204 O   0  0  0  0  0  0  0  0  0  0  0  0
   -2.5597   -0.0786    1.5745 O   0  0  0  0  0  0  0  0  0  0  0  0
   -1.2547   -1.0570   -0.5843 C   0  0  0  0  0  0  0  0  0  0  0  0
   -0.6484    0.2934   -0.9559 C   0  0  1  0  0  0  0  0  0  0  0  0
   -1.6099    1.2554   -0.7026 O   0  0  0  0  0  0  0  0  0  0  0  0
    3.4682   -0.5234   -0.8995 H   0  0  0  0  0  0  0  0  0  0  0  0
    2.8315    1.0548   -0.5530 H   0  0  0  0  0  0  0  0  0  0  0  0
    0.9041    1.4931   -0.1424 H   0  0  0  0  0  0  0  0  0  0  0  0
    0.9350   -0.3122    1.8771 H   0  0  0  0  0  0  0  0  0  0  0  0
   -0.0956    1.1415    1.8814 H   0  0  0  0  0  0  0  0  0  0  0  0
   -2.2452   -1.1679   -1.0273 H   0  0  0  0  0  0  0  0  0  0  0  0
   -0.5454   -1.8550   -0.8397 H   0  0  0  0  0  0  0  0  0  0  0  0
   -0.3193    0.2645   -1.9992 H   0  0  0  0  0  0  0  0  0  0  0  0
   -1.2501    2.1408   -0.5275 H   0  0  0  0  0  0  0  0  0  0  0  0
  1  2  1  0
  2  3  1  0
  3  4  1  0
  4  5  1  0
  5  6  2  0
  5  7  2  0
  5  8  1  0
  8  9  1  0
  9 10  1  0
  9  3  1  0
  1 11  1  0
  1 12  1  0
  3 13  1  1
  4 14  1  0
  4 15  1  0
  8 16  1  0
  8 17  1  0
  9 18  1  6
 10 19  1  0
M  END
$$$$
