
     RDKit          3D

 30 30  0  0  0  0  0  0  0  0999 V2000
   -0.9632    1.7750    1.0211 O   0  0  0  0  0  0  0  0  0  0  0  0
   -1.4901    0.5267    1.1219 C   0  0  0  0  0  0  0  0  0  0  0  0
   -1.1167   -0.4671    0.0766 C   0  0  0  0  0  0  0  0  0  0  0  0
   -1.7726    0.0206   -1.2233 C   0  0  0  0  0  0  0  0  0  0  0  0
   -1.0349    1.1302   -1.7066 O   0  0  0  0  0  0  0  0  0  0  0  0
   -1.8909   -1.7526    0.4488 C   0  0  0  0  0  0  0  0  0  0  0  0
   -3.2069   -1.5225    0.6718 O   0  0  0  0  0  0  0  0  0  0  0  0
    0.2028   -0.8451   -0.0886 N   0  0  0  0  0  0  0  0  0  0  0  0
    1.2690   -0.0698   -0.4807 C   0  0  1  0  0  0  0  0  0  0  0  0
    1.7206    1.0795    0.3500 C   0  0  0  0  0  0  0  0  0  0  0  0
    3.2484    1.0530    0.1342 C   0  0  0  0  0  0  0  0  0  0  0  0
    3.5061   -0.2846    0.2115 O   0  0  0  0  0  0  0  0  0  0  0  0
    2.5294   -0.9668   -0.4558 C   0  0  0  0  0  0  0  0  0  0  0  0
   -1.0906    2.2382    1.8813 H   0  0  0  0  0  0  0  0  0  0  0  0
   -2.6142    0.6469    1.1832 H   0  0  0  0  0  0  0  0  0  0  0  0
   -1.2345    0.1652    2.1632 H   0  0  0  0  0  0  0  0  0  0  0  0
   -2.7683    0.4489   -1.0104 H   0  0  0  0  0  0  0  0  0  0  0  0
   -1.8814   -0.7457   -1.9788 H   0  0  0  0  0  0  0  0  0  0  0  0
   -1.6417    1.6257   -2.3052 H   0  0  0  0  0  0  0  0  0  0  0  0
   -1.7343   -2.4670   -0.3968 H   0  0  0  0  0  0  0  0  0  0  0  0
   -1.4101   -2.1579    1.3614 H   0  0  0  0  0  0  0  0  0  0  0  0
   -3.6681   -0.8559    0.1360 H   0  0  0  0  0  0  0  0  0  0  0  0
    0.4407   -1.7801    0.2945 H   0  0  0  0  0  0  0  0  0  0  0  0
    1.2437    0.3128   -1.5350 H   0  0  0  0  0  0  0  0  0  0  0  0
    1.5936    0.9809    1.4240 H   0  0  0  0  0  0  0  0  0  0  0  0
    1.4372    2.0693   -0.0826 H   0  0  0  0  0  0  0  0  0  0  0  0
    3.5117    1.4334   -0.8740 H   0  0  0  0  0  0  0  0  0  0  0  0
    3.7198    1.6241    0.9503 H   0  0  0  0  0  0  0  0  0  0  0  0
    2.3153   -1.8878    0.1604 H   0  0  0  0  0  0  0  0  0  0  0  0
    2.7805   -1.3278   -1.4524 H   0  0  0  0  0  0  0  0  0  0  0  0
  1  2  1  0
  2  3  1  0
  3  4  1  0
  4  5  1  0
  3  6  1  0
  6  7  1  0
  3  8  1  0
  8  9  1  0
  9 10  1  0
 10 11  1  0
 11 12  1  0
 12 13  1  0
 13  9  1  0
  1 14  1  0
  2 15  1  0
  2 16  1  0
  4 17  1  0
  4 18  1  0
  5 19  1  0
  6 20  1  0
  6 21  1  0
  7 22  1  0
  8 23  1  0
  9 24  1  6
 10 25  1  0
 10 26  1  0
 11 27  1  0
 11 28  1  0
 13 29  1  0
 13 30  1  0
M  END
$$$$

     RDKit          3D

 30 30  0  0  0  0  0  0  0  0999 V2000
   -2.3170   -1.6174   -1.4302 O   0  0  0  0  0  0  0  0  0  0  0  0
   -2.0820   -1.3094   -0.0998 C   0  0  0  0  0  0  0  0  0  0  0  0
   -1.1642   -0.0700   -0.0325 C   0  0  0  0  0  0  0  0  0  0  0  0
   -1.1494    0.2944    1.4313 C   0  0  0  0  0  0  0  0  0  0  0  0
   -2.5071    0.5118    1.7741 O   0  0  0  0  0  0  0  0  0  0  0  0
   -1.9954    0.9861   -0.7588 C   0  0  0  0  0  0  0  0  0  0  0  0
   -1.3254    2.1749   -0.9041 O   0  0  0  0  0  0  0  0  0  0  0  0
    0.0280   -0.3867   -0.6630 N   0  0  0  0  0  0  0  0  0  0  0  0
    1.2464    0.2045   -0.4078 C   0  0  1  0  0  0  0  0  0  0  0  0
    1.9224    0.0110    0.9152 C   0  0  0  0  0  0  0  0  0  0  0  0
    3.3516    0.4518    0.5203 C   0  0  0  0  0  0  0  0  0  0  0  0
    3.4193    0.4759   -0.8504 O   0  0  0  0  0  0  0  0  0  0  0  0
    2.3682   -0.3419   -1.3144 C   0  0  0  0  0  0  0  0  0  0  0  0
   -1.9454   -2.5053   -1.6936 H   0  0  0  0  0  0  0  0  0  0  0  0
   -1.6041   -2.1396    0.4145 H   0  0  0  0  0  0  0  0  0  0  0  0
   -3.0274   -1.0069    0.4355 H   0  0  0  0  0  0  0  0  0  0  0  0
   -0.6167    1.2696    1.6202 H   0  0  0  0  0  0  0  0  0  0  0  0
   -0.7714   -0.5297    2.0267 H   0  0  0  0  0  0  0  0  0  0  0  0
   -2.7039    0.1853    2.6648 H   0  0  0  0  0  0  0  0  0  0  0  0
   -2.3513    0.5893   -1.7135 H   0  0  0  0  0  0  0  0  0  0  0  0
   -2.8818    1.1590   -0.1129 H   0  0  0  0  0  0  0  0  0  0  0  0
   -1.2648    2.3749   -1.8779 H   0  0  0  0  0  0  0  0  0  0  0  0
    0.1478   -1.4469   -0.7197 H   0  0  0  0  0  0  0  0  0  0  0  0
    1.3009    1.3082   -0.5844 H   0  0  0  0  0  0  0  0  0  0  0  0
    2.0348   -1.0588    1.1982 H   0  0  0  0  0  0  0  0  0  0  0  0
    1.5709    0.6316    1.7341 H   0  0  0  0  0  0  0  0  0  0  0  0
    3.4665    1.5079    0.8953 H   0  0  0  0  0  0  0  0  0  0  0  0
    4.1136   -0.1670    0.9978 H   0  0  0  0  0  0  0  0  0  0  0  0
    2.5916   -1.4026   -1.0828 H   0  0  0  0  0  0  0  0  0  0  0  0
    2.1454   -0.1539   -2.3821 H   0  0  0  0  0  0  0  0  0  0  0  0
  1  2  1  0
  2  3  1  0
  3  4  1  0
  4  5  1  0
  3  6  1  0
  6  7  1  0
  3  8  1  0
  8  9  1  0
  9 10  1  0
 10 11  1  0
 11 12  1  0
 12 13  1  0
 13  9  1  0
  1 14  1  0
  2 15  1  0
  2 16  1  0
  4 17  1  0
  4 18  1  0
  5 19  1  0
  6 20  1  0
  6 21  1  0
  7 22  1  0
  8 23  1  0
  9 24  1  6
 10 25  1  0
 10 26  1  0
 11 27  1  0
 11 28  1  0
 13 29  1  0
 13 30  1  0
M  END
$$$$

     RDKit          3D

 30 30  0  0  0  0  0  0  0  0999 V2000
   -1.7844    0.2760   -2.2357 O   0  0  0  0  0  0  0  0  0  0  0  0
   -0.7600   -0.3190   -1.4662 C   0  0  0  0  0  0  0  0  0  0  0  0
   -0.9578   -0.0640   -0.0103 C   0  0  0  0  0  0  0  0  0  0  0  0
   -2.3402   -0.7668    0.2694 C   0  0  0  0  0  0  0  0  0  0  0  0
   -3.2732   -0.2006   -0.5643 O   0  0  0  0  0  0  0  0  0  0  0  0
   -1.3109    1.3963    0.2701 C   0  0  0  0  0  0  0  0  0  0  0  0
   -1.8480    1.5500    1.5464 O   0  0  0  0  0  0  0  0  0  0  0  0
   -0.0565   -0.6358    0.8172 N   0  0  0  0  0  0  0  0  0  0  0  0
    1.2788   -0.5727    1.0090 C   0  0  1  0  0  0  0  0  0  0  0  0
    2.0785   -1.1445   -0.1367 C   0  0  0  0  0  0  0  0  0  0  0  0
    2.8312    0.0279   -0.6991 C   0  0  0  0  0  0  0  0  0  0  0  0
    2.1401    1.1324   -0.2288 O   0  0  0  0  0  0  0  0  0  0  0  0
    1.9343    0.7810    1.1145 C   0  0  0  0  0  0  0  0  0  0  0  0
   -1.5477    1.1831   -2.5149 H   0  0  0  0  0  0  0  0  0  0  0  0
   -0.8002   -1.3937   -1.6662 H   0  0  0  0  0  0  0  0  0  0  0  0
    0.2297    0.0424   -1.8702 H   0  0  0  0  0  0  0  0  0  0  0  0
   -2.1631   -1.8531    0.0908 H   0  0  0  0  0  0  0  0  0  0  0  0
   -2.6022   -0.5704    1.3233 H   0  0  0  0  0  0  0  0  0  0  0  0
   -3.8838   -0.8754   -0.9671 H   0  0  0  0  0  0  0  0  0  0  0  0
   -0.3927    2.0017    0.2285 H   0  0  0  0  0  0  0  0  0  0  0  0
   -2.0633    1.7754   -0.4361 H   0  0  0  0  0  0  0  0  0  0  0  0
   -1.2489    2.0001    2.1740 H   0  0  0  0  0  0  0  0  0  0  0  0
   -0.4816   -1.3163    1.5274 H   0  0  0  0  0  0  0  0  0  0  0  0
    1.6243   -1.1496    1.9275 H   0  0  0  0  0  0  0  0  0  0  0  0
    1.4613   -1.5886   -0.9380 H   0  0  0  0  0  0  0  0  0  0  0  0
    2.8059   -1.9272    0.2461 H   0  0  0  0  0  0  0  0  0  0  0  0
    3.8348    0.0690   -0.2153 H   0  0  0  0  0  0  0  0  0  0  0  0
    2.9104   -0.0084   -1.8074 H   0  0  0  0  0  0  0  0  0  0  0  0
    1.4350    1.5335    1.6850 H   0  0  0  0  0  0  0  0  0  0  0  0
    2.9504    0.6175    1.5271 H   0  0  0  0  0  0  0  0  0  0  0  0
  1  2  1  0
  2  3  1  0
  3  4  1  0
  4  5  1  0
  3  6  1  0
  6  7  1  0
  3  8  1  0
  8  9  1  0
  9 10  1  0
 10 11  1  0
 11 12  1  0
 12 13  1  0
 13  9  1  0
  1 14  1  0
  2 15  1  0
  2 16  1  0
  4 17  1  0
  4 18  1  0
  5 19  1  0
  6 20  1  0
  6 21  1  0
  7 22  1  0
  8 23  1  0
  9 24  1  1
 10 25  1  0
 10 26  1  0
 11 27  1  0
 11 28  1  0
 13 29  1  0
 13 30  1  0
M  END
$$$$

     RDKit          3D

 30 30  0  0  0  0  0  0  0  0999 V2000
   -1.4319   -1.8587   -1.7399 O   0  0  0  0  0  0  0  0  0  0  0  0
   -1.6977   -1.3875   -0.4850 C   0  0  0  0  0  0  0  0  0  0  0  0
   -1.2081    0.0394   -0.2357 C   0  0  0  0  0  0  0  0  0  0  0  0
   -1.8891    0.8809   -1.3300 C   0  0  0  0  0  0  0  0  0  0  0  0
   -1.5628    2.2052   -1.2739 O   0  0  0  0  0  0  0  0  0  0  0  0
   -1.7612    0.4309    1.0945 C   0  0  0  0  0  0  0  0  0  0  0  0
   -1.2797   -0.3117    2.1576 O   0  0  0  0  0  0  0  0  0  0  0  0
    0.1560    0.2107   -0.3763 N   0  0  0  0  0  0  0  0  0  0  0  0
    1.1244   -0.4411    0.3912 C   0  0  1  0  0  0  0  0  0  0  0  0
    2.3556   -0.6078   -0.5413 C   0  0  0  0  0  0  0  0  0  0  0  0
    3.0916    0.6755   -0.2784 C   0  0  0  0  0  0  0  0  0  0  0  0
    2.4039    1.3894    0.7007 O   0  0  0  0  0  0  0  0  0  0  0  0
    1.7963    0.3718    1.4779 C   0  0  0  0  0  0  0  0  0  0  0  0
   -1.1449   -2.8237   -1.6256 H   0  0  0  0  0  0  0  0  0  0  0  0
   -2.7940   -1.3608   -0.3496 H   0  0  0  0  0  0  0  0  0  0  0  0
   -1.3179   -2.0602    0.3224 H   0  0  0  0  0  0  0  0  0  0  0  0
   -3.0022    0.7643   -1.2143 H   0  0  0  0  0  0  0  0  0  0  0  0
   -1.6288    0.4720   -2.3223 H   0  0  0  0  0  0  0  0  0  0  0  0
   -1.1117    2.4586   -0.4348 H   0  0  0  0  0  0  0  0  0  0  0  0
   -2.8962    0.3151    1.1151 H   0  0  0  0  0  0  0  0  0  0  0  0
   -1.6164    1.5260    1.2680 H   0  0  0  0  0  0  0  0  0  0  0  0
   -1.9820   -0.4310    2.8757 H   0  0  0  0  0  0  0  0  0  0  0  0
    0.5030    0.7483   -1.2030 H   0  0  0  0  0  0  0  0  0  0  0  0
    0.9023   -1.4623    0.7421 H   0  0  0  0  0  0  0  0  0  0  0  0
    2.9606   -1.4643   -0.2616 H   0  0  0  0  0  0  0  0  0  0  0  0
    2.0136   -0.6191   -1.5877 H   0  0  0  0  0  0  0  0  0  0  0  0
    4.1058    0.4876    0.1722 H   0  0  0  0  0  0  0  0  0  0  0  0
    3.1545    1.3268   -1.1759 H   0  0  0  0  0  0  0  0  0  0  0  0
    2.6081   -0.2744    1.8938 H   0  0  0  0  0  0  0  0  0  0  0  0
    1.1489    0.8000    2.2239 H   0  0  0  0  0  0  0  0  0  0  0  0
  1  2  1  0
  2  3  1  0
  3  4  1  0
  4  5  1  0
  3  6  1  0
  6  7  1  0
  3  8  1  0
  8  9  1  0
  9 10  1  0
 10 11  1  0
 11 12  1  0
 12 13  1  0
 13  9  1  0
  1 14  1  0
  2 15  1  0
  2 16  1  0
  4 17  1  0
  4 18  1  0
  5 19  1  0
  6 20  1  0
  6 21  1  0
  7 22  1  0
  8 23  1  0
  9 24  1  1
 10 25  1  0
 10 26  1  0
 11 27  1  0
 11 28  1  0
 13 29  1  0
 13 30  1  0
M  END
$$$$

     RDKit          3D

 30 30  0  0  0  0  0  0  0  0999 V2000
   -2.7030   -1.2185   -1.2034 O   0  0  0  0  0  0  0  0  0  0  0  0
   -1.4347   -1.4922   -0.6368 C   0  0  0  0  0  0  0  0  0  0  0  0
   -1.0421   -0.2282    0.1015 C   0  0  0  0  0  0  0  0  0  0  0  0
   -1.1998    0.9193   -0.8504 C   0  0  0  0  0  0  0  0  0  0  0  0
   -1.0635    2.1432   -0.1971 O   0  0  0  0  0  0  0  0  0  0  0  0
   -2.1098   -0.1182    1.2230 C   0  0  0  0  0  0  0  0  0  0  0  0
   -3.3726   -0.0824    0.7060 O   0  0  0  0  0  0  0  0  0  0  0  0
    0.1787   -0.2560    0.7458 N   0  0  0  0  0  0  0  0  0  0  0  0
    1.4191   -0.4510    0.1656 C   0  0  1  0  0  0  0  0  0  0  0  0
    1.9485    0.5493   -0.8176 C   0  0  0  0  0  0  0  0  0  0  0  0
    3.4550    0.4923   -0.5371 C   0  0  0  0  0  0  0  0  0  0  0  0
    3.6324   -0.3306    0.5406 O   0  0  0  0  0  0  0  0  0  0  0  0
    2.4747   -0.2924    1.2897 C   0  0  0  0  0  0  0  0  0  0  0  0
   -3.2517   -2.0457   -1.2415 H   0  0  0  0  0  0  0  0  0  0  0  0
   -1.5963   -2.2958    0.0837 H   0  0  0  0  0  0  0  0  0  0  0  0
   -0.7773   -1.7221   -1.4788 H   0  0  0  0  0  0  0  0  0  0  0  0
   -2.1790    0.8695   -1.3994 H   0  0  0  0  0  0  0  0  0  0  0  0
   -0.4425    0.8557   -1.6357 H   0  0  0  0  0  0  0  0  0  0  0  0
   -1.9097    2.6150   -0.1000 H   0  0  0  0  0  0  0  0  0  0  0  0
   -1.9953   -1.0416    1.8262 H   0  0  0  0  0  0  0  0  0  0  0  0
   -1.8806    0.7361    1.8632 H   0  0  0  0  0  0  0  0  0  0  0  0
   -3.8071    0.7771    0.6590 H   0  0  0  0  0  0  0  0  0  0  0  0
    0.1784    0.0042    1.7661 H   0  0  0  0  0  0  0  0  0  0  0  0
    1.5853   -1.4505   -0.3098 H   0  0  0  0  0  0  0  0  0  0  0  0
    1.5675    1.5575   -0.6028 H   0  0  0  0  0  0  0  0  0  0  0  0
    1.7607    0.2627   -1.8781 H   0  0  0  0  0  0  0  0  0  0  0  0
    3.9444    0.1038   -1.4331 H   0  0  0  0  0  0  0  0  0  0  0  0
    3.8591    1.5038   -0.3514 H   0  0  0  0  0  0  0  0  0  0  0  0
    2.3532    0.7248    1.6798 H   0  0  0  0  0  0  0  0  0  0  0  0
    2.4080   -1.0890    2.0226 H   0  0  0  0  0  0  0  0  0  0  0  0
  1  2  1  0
  2  3  1  0
  3  4  1  0
  4  5  1  0
  3  6  1  0
  6  7  1  0
  3  8  1  0
  8  9  1  0
  9 10  1  0
 10 11  1  0
 11 12  1  0
 12 13  1  0
 13  9  1  0
  1 14  1  0
  2 15  1  0
  2 16  1  0
  4 17  1  0
  4 18  1  0
  5 19  1  0
  6 20  1  0
  6 21  1  0
  7 22  1  0
  8 23  1  0
  9 24  1  6
 10 25  1  0
 10 26  1  0
 11 27  1  0
 11 28  1  0
 13 29  1  0
 13 30  1  0
M  END
$$$$

     RDKit          3D

 30 30  0  0  0  0  0  0  0  0999 V2000
   -1.7854    0.7732    1.9527 O   0  0  0  0  0  0  0  0  0  0  0  0
   -1.7376   -0.3448    1.0974 C   0  0  0  0  0  0  0  0  0  0  0  0
   -1.1649    0.0310   -0.2515 C   0  0  0  0  0  0  0  0  0  0  0  0
   -1.3912   -1.1592   -1.1528 C   0  0  0  0  0  0  0  0  0  0  0  0
   -2.6917   -1.6476   -1.0545 O   0  0  0  0  0  0  0  0  0  0  0  0
   -2.0304    1.1285   -0.8243 C   0  0  0  0  0  0  0  0  0  0  0  0
   -1.8888    2.2462   -0.0259 O   0  0  0  0  0  0  0  0  0  0  0  0
    0.1501    0.5328   -0.2697 N   0  0  0  0  0  0  0  0  0  0  0  0
    1.2092   -0.2943    0.1190 C   0  0  1  0  0  0  0  0  0  0  0  0
    2.3344   -0.1751   -0.8962 C   0  0  0  0  0  0  0  0  0  0  0  0
    3.5471    0.1710   -0.0693 C   0  0  0  0  0  0  0  0  0  0  0  0
    3.1298    0.4776    1.1998 O   0  0  0  0  0  0  0  0  0  0  0  0
    1.8779   -0.0669    1.4218 C   0  0  0  0  0  0  0  0  0  0  0  0
   -1.9771    0.4096    2.8382 H   0  0  0  0  0  0  0  0  0  0  0  0
   -1.2306   -1.2126    1.5465 H   0  0  0  0  0  0  0  0  0  0  0  0
   -2.8224   -0.6383    0.9834 H   0  0  0  0  0  0  0  0  0  0  0  0
   -0.6859   -1.9729   -1.0660 H   0  0  0  0  0  0  0  0  0  0  0  0
   -1.3179   -0.8373   -2.2413 H   0  0  0  0  0  0  0  0  0  0  0  0
   -2.7981   -2.4446   -0.5166 H   0  0  0  0  0  0  0  0  0  0  0  0
   -1.6095    1.3525   -1.8461 H   0  0  0  0  0  0  0  0  0  0  0  0
   -3.0955    0.8344   -0.9505 H   0  0  0  0  0  0  0  0  0  0  0  0
   -1.6029    3.0086   -0.5756 H   0  0  0  0  0  0  0  0  0  0  0  0
    0.2330    1.5406   -0.0767 H   0  0  0  0  0  0  0  0  0  0  0  0
    0.8832   -1.3585    0.0831 H   0  0  0  0  0  0  0  0  0  0  0  0
    2.1617    0.7193   -1.5631 H   0  0  0  0  0  0  0  0  0  0  0  0
    2.5339   -1.0922   -1.4406 H   0  0  0  0  0  0  0  0  0  0  0  0
    4.3142   -0.6252   -0.0853 H   0  0  0  0  0  0  0  0  0  0  0  0
    4.0774    1.0857   -0.4574 H   0  0  0  0  0  0  0  0  0  0  0  0
    2.0175   -1.0381    1.9844 H   0  0  0  0  0  0  0  0  0  0  0  0
    1.3604    0.5968    2.1370 H   0  0  0  0  0  0  0  0  0  0  0  0
  1  2  1  0
  2  3  1  0
  3  4  1  0
  4  5  1  0
  3  6  1  0
  6  7  1  0
  3  8  1  0
  8  9  1  0
  9 10  1  0
 10 11  1  0
 11 12  1  0
 12 13  1  0
 13  9  1  0
  1 14  1  0
  2 15  1  0
  2 16  1  0
  4 17  1  0
  4 18  1  0
  5 19  1  0
  6 20  1  0
  6 21  1  0
  7 22  1  0
  8 23  1  0
  9 24  1  1
 10 25  1  0
 10 26  1  0
 11 27  1  0
 11 28  1  0
 13 29  1  0
 13 30  1  0
M  END
$$$$

     RDKit          3D

 30 30  0  0  0  0  0  0  0  0999 V2000
   -0.9802   -1.6115    1.3466 O   0  0  0  0  0  0  0  0  0  0  0  0
   -1.2270   -0.2551    1.1687 C   0  0  0  0  0  0  0  0  0  0  0  0
   -1.0681    0.1040   -0.2845 C   0  0  0  0  0  0  0  0  0  0  0  0
   -1.6628    1.4569   -0.5901 C   0  0  0  0  0  0  0  0  0  0  0  0
   -2.9439    1.5303   -0.0473 O   0  0  0  0  0  0  0  0  0  0  0  0
   -1.9961   -0.8751   -1.0498 C   0  0  0  0  0  0  0  0  0  0  0  0
   -3.3072   -0.7472   -0.7282 O   0  0  0  0  0  0  0  0  0  0  0  0
    0.2056   -0.1518   -0.7566 N   0  0  0  0  0  0  0  0  0  0  0  0
    1.3789    0.4268   -0.3380 C   0  0  1  0  0  0  0  0  0  0  0  0
    1.9265    0.2247    1.0158 C   0  0  0  0  0  0  0  0  0  0  0  0
    3.3319   -0.3560    0.7822 C   0  0  0  0  0  0  0  0  0  0  0  0
    3.6702    0.1599   -0.4396 O   0  0  0  0  0  0  0  0  0  0  0  0
    2.5345   -0.1233   -1.2045 C   0  0  0  0  0  0  0  0  0  0  0  0
   -1.5209   -2.0335    2.0306 H   0  0  0  0  0  0  0  0  0  0  0  0
   -0.6641    0.4142    1.8509 H   0  0  0  0  0  0  0  0  0  0  0  0
   -2.2902   -0.1211    1.5109 H   0  0  0  0  0  0  0  0  0  0  0  0
   -1.0866    2.2959   -0.2365 H   0  0  0  0  0  0  0  0  0  0  0  0
   -1.7832    1.5827   -1.6974 H   0  0  0  0  0  0  0  0  0  0  0  0
   -3.0303    2.4046    0.4071 H   0  0  0  0  0  0  0  0  0  0  0  0
   -1.8736   -0.6305   -2.1273 H   0  0  0  0  0  0  0  0  0  0  0  0
   -1.5799   -1.9043   -0.8870 H   0  0  0  0  0  0  0  0  0  0  0  0
   -3.5944   -0.8285    0.1875 H   0  0  0  0  0  0  0  0  0  0  0  0
    0.2815   -0.8901   -1.5077 H   0  0  0  0  0  0  0  0  0  0  0  0
    1.4606    1.5440   -0.5571 H   0  0  0  0  0  0  0  0  0  0  0  0
    2.0677    1.1720    1.5845 H   0  0  0  0  0  0  0  0  0  0  0  0
    1.4492   -0.4895    1.6776 H   0  0  0  0  0  0  0  0  0  0  0  0
    3.2363   -1.4667    0.7549 H   0  0  0  0  0  0  0  0  0  0  0  0
    3.9676   -0.0559    1.6275 H   0  0  0  0  0  0  0  0  0  0  0  0
    2.6281    0.4241   -2.1497 H   0  0  0  0  0  0  0  0  0  0  0  0
    2.4701   -1.2003   -1.3435 H   0  0  0  0  0  0  0  0  0  0  0  0
  1  2  1  0
  2  3  1  0
  3  4  1  0
  4  5  1  0
  3  6  1  0
  6  7  1  0
  3  8  1  0
  8  9  1  0
  9 10  1  0
 10 11  1  0
 11 12  1  0
 12 13  1  0
 13  9  1  0
  1 14  1  0
  2 15  1  0
  2 16  1  0
  4 17  1  0
  4 18  1  0
  5 19  1  0
  6 20  1  0
  6 21  1  0
  7 22  1  0
  8 23  1  0
  9 24  1  6
 10 25  1  0
 10 26  1  0
 11 27  1  0
 11 28  1  0
 13 29  1  0
 13 30  1  0
M  END
$$$$

     RDKit          3D

 30 30  0  0  0  0  0  0  0  0999 V2000
   -2.3545    1.2395    1.5758 O   0  0  0  0  0  0  0  0  0  0  0  0
   -1.0729    0.6838    1.3286 C   0  0  0  0  0  0  0  0  0  0  0  0
   -1.0767   -0.0913    0.0378 C   0  0  0  0  0  0  0  0  0  0  0  0
   -2.1006   -1.2418    0.1953 C   0  0  0  0  0  0  0  0  0  0  0  0
   -1.6537   -2.0877    1.2155 O   0  0  0  0  0  0  0  0  0  0  0  0
   -1.6760    0.7982   -1.0377 C   0  0  0  0  0  0  0  0  0  0  0  0
   -2.8872    1.3270   -0.5897 O   0  0  0  0  0  0  0  0  0  0  0  0
    0.1275   -0.6878   -0.2865 N   0  0  0  0  0  0  0  0  0  0  0  0
    1.3168   -0.0496   -0.5513 C   0  0  1  0  0  0  0  0  0  0  0  0
    2.0131    0.7550    0.4843 C   0  0  0  0  0  0  0  0  0  0  0  0
    3.4709    0.6166    0.0064 C   0  0  0  0  0  0  0  0  0  0  0  0
    3.5241   -0.4164   -0.8798 O   0  0  0  0  0  0  0  0  0  0  0  0
    2.3786   -1.1523   -0.7796 C   0  0  0  0  0  0  0  0  0  0  0  0
   -2.8937    0.5770    2.0775 H   0  0  0  0  0  0  0  0  0  0  0  0
   -0.7283    0.0987    2.1958 H   0  0  0  0  0  0  0  0  0  0  0  0
   -0.4202    1.5790    1.2338 H   0  0  0  0  0  0  0  0  0  0  0  0
   -2.0622   -1.8299   -0.7463 H   0  0  0  0  0  0  0  0  0  0  0  0
   -3.1060   -0.8577    0.3540 H   0  0  0  0  0  0  0  0  0  0  0  0
   -2.3664   -2.7514    1.3669 H   0  0  0  0  0  0  0  0  0  0  0  0
   -1.9240    0.2021   -1.9552 H   0  0  0  0  0  0  0  0  0  0  0  0
   -1.0086    1.6035   -1.3616 H   0  0  0  0  0  0  0  0  0  0  0  0
   -2.9648    2.2979   -0.7646 H   0  0  0  0  0  0  0  0  0  0  0  0
    0.1334   -1.7367   -0.3398 H   0  0  0  0  0  0  0  0  0  0  0  0
    1.2870    0.5256   -1.4999 H   0  0  0  0  0  0  0  0  0  0  0  0
    1.9427    0.2767    1.5018 H   0  0  0  0  0  0  0  0  0  0  0  0
    1.7522    1.8345    0.5070 H   0  0  0  0  0  0  0  0  0  0  0  0
    4.1550    0.4148    0.8499 H   0  0  0  0  0  0  0  0  0  0  0  0
    3.7259    1.5798   -0.4824 H   0  0  0  0  0  0  0  0  0  0  0  0
    2.1143   -1.7491   -1.6698 H   0  0  0  0  0  0  0  0  0  0  0  0
    2.3545   -1.7579    0.1551 H   0  0  0  0  0  0  0  0  0  0  0  0
  1  2  1  0
  2  3  1  0
  3  4  1  0
  4  5  1  0
  3  6  1  0
  6  7  1  0
  3  8  1  0
  8  9  1  0
  9 10  1  0
 10 11  1  0
 11 12  1  0
 12 13  1  0
 13  9  1  0
  1 14  1  0
  2 15  1  0
  2 16  1  0
  4 17  1  0
  4 18  1  0
  5 19  1  0
  6 20  1  0
  6 21  1  0
  7 22  1  0
  8 23  1  0
  9 24  1  6
 10 25  1  0
 10 26  1  0
 11 27  1  0
 11 28  1  0
 13 29  1  0
 13 30  1  0
M  END
$$$$
