
     RDKit          3D

 22 22  0  0  0  0  0  0  0  0999 V2000
    3.6644    0.5310    0.4389 C   0  0  0  0  0  0  0  0  0  0  0  0
    2.4084   -0.3211    0.4129 C   0  0  0  0  0  0  0  0  0  0  0  0
    2.4967   -1.5337    0.6579 O   0  0  0  0  0  0  0  0  0  0  0  0
    1.1499    0.2530    0.1140 N   0  0  0  0  0  0  0  0  0  0  0  0
   -0.1024   -0.3971    0.0499 C   0  0  0  0  0  0  0  0  0  0  0  0
   -0.2610   -1.7102    0.2770 N   0  0  0  0  0  0  0  0  0  0  0  0
   -1.4384   -2.3728    0.2266 C   0  0  0  0  0  0  0  0  0  0  0  0
   -1.5041   -3.6117    0.4535 O   0  0  0  0  0  0  0  0  0  0  0  0
   -2.5625   -1.6534   -0.0799 C   0  0  0  0  0  0  0  0  0  0  0  0
   -2.4351   -0.3452   -0.3107 N   0  0  0  0  0  0  0  0  0  0  0  0
   -1.2422    0.3360   -0.2615 C   0  0  0  0  0  0  0  0  0  0  0  0
   -1.2778    1.7586   -0.5388 C   0  0  0  0  0  0  0  0  0  0  0  0
   -2.5624    2.3444   -0.8438 N   0  0  0  0  0  0  0  0  0  0  0  0
   -0.3413    2.5461   -0.5485 O   0  0  0  0  0  0  0  0  0  0  0  0
    4.4402   -0.0197    0.9888 H   0  0  0  0  0  0  0  0  0  0  0  0
    3.3965    1.4190    1.0545 H   0  0  0  0  0  0  0  0  0  0  0  0
    3.9436    0.8631   -0.5597 H   0  0  0  0  0  0  0  0  0  0  0  0
    1.2104    1.2925   -0.0756 H   0  0  0  0  0  0  0  0  0  0  0  0
    0.5629   -2.3116    0.5158 H   0  0  0  0  0  0  0  0  0  0  0  0
   -3.5196   -2.1680   -0.1254 H   0  0  0  0  0  0  0  0  0  0  0  0
   -2.8891    2.4757   -1.8088 H   0  0  0  0  0  0  0  0  0  0  0  0
   -3.1371    2.6252   -0.0371 H   0  0  0  0  0  0  0  0  0  0  0  0
  1  2  1  0
  2  3  2  0
  2  4  1  0
  4  5  1  0
  5  6  1  0
  6  7  1  0
  7  8  2  0
  7  9  1  0
  9 10  2  0
 10 11  1  0
 11 12  1  0
 12 13  1  0
 12 14  2  0
 11  5  2  0
  1 15  1  0
  1 16  1  0
  1 17  1  0
  4 18  1  0
  6 19  1  0
  9 20  1  0
 13 21  1  0
 13 22  1  0
M  END
$$$$

     RDKit          3D

 22 22  0  0  0  0  0  0  0  0999 V2000
    3.6760    0.2186   -0.2647 C   0  0  0  0  0  0  0  0  0  0  0  0
    2.3377   -0.4808   -0.2709 C   0  0  0  0  0  0  0  0  0  0  0  0
    2.4242   -1.7014   -0.4774 O   0  0  0  0  0  0  0  0  0  0  0  0
    1.1481    0.2594   -0.0539 N   0  0  0  0  0  0  0  0  0  0  0  0
   -0.1213   -0.3483   -0.0508 C   0  0  0  0  0  0  0  0  0  0  0  0
   -0.3069   -1.6724   -0.2521 N   0  0  0  0  0  0  0  0  0  0  0  0
   -1.5196   -2.2798   -0.2535 C   0  0  0  0  0  0  0  0  0  0  0  0
   -1.6644   -3.4985   -0.4409 O   0  0  0  0  0  0  0  0  0  0  0  0
   -2.5982   -1.4771   -0.0353 C   0  0  0  0  0  0  0  0  0  0  0  0
   -2.4878   -0.1667    0.1699 N   0  0  0  0  0  0  0  0  0  0  0  0
   -1.2437    0.4384    0.1684 C   0  0  0  0  0  0  0  0  0  0  0  0
   -1.2250    1.8616    0.3994 C   0  0  0  0  0  0  0  0  0  0  0  0
   -2.4757    2.5628    0.6149 N   0  0  0  0  0  0  0  0  0  0  0  0
   -0.2233    2.5560    0.4320 O   0  0  0  0  0  0  0  0  0  0  0  0
    3.5237    1.1889    0.2344 H   0  0  0  0  0  0  0  0  0  0  0  0
    4.3430   -0.3901    0.3877 H   0  0  0  0  0  0  0  0  0  0  0  0
    4.0501    0.2654   -1.2827 H   0  0  0  0  0  0  0  0  0  0  0  0
    1.2958    1.2944    0.1033 H   0  0  0  0  0  0  0  0  0  0  0  0
    0.5051   -2.3015   -0.4205 H   0  0  0  0  0  0  0  0  0  0  0  0
   -3.6087   -1.9043   -0.0235 H   0  0  0  0  0  0  0  0  0  0  0  0
   -3.1969    2.4076   -0.1231 H   0  0  0  0  0  0  0  0  0  0  0  0
   -2.6322    3.1679    1.4393 H   0  0  0  0  0  0  0  0  0  0  0  0
  1  2  1  0
  2  3  2  0
  2  4  1  0
  4  5  1  0
  5  6  1  0
  6  7  1  0
  7  8  2  0
  7  9  1  0
  9 10  2  0
 10 11  1  0
 11 12  1  0
 12 13  1  0
 12 14  2  0
 11  5  2  0
  1 15  1  0
  1 16  1  0
  1 17  1  0
  4 18  1  0
  6 19  1  0
  9 20  1  0
 13 21  1  0
 13 22  1  0
M  END
$$$$

     RDKit          3D

 22 22  0  0  0  0  0  0  0  0999 V2000
    3.6321    0.1424   -0.5196 C   0  0  0  0  0  0  0  0  0  0  0  0
    2.3099    0.6628   -0.0313 C   0  0  0  0  0  0  0  0  0  0  0  0
    2.3325    1.7464    0.5370 O   0  0  0  0  0  0  0  0  0  0  0  0
    1.1327   -0.0781   -0.2320 N   0  0  0  0  0  0  0  0  0  0  0  0
   -0.1535    0.3156    0.1836 C   0  0  0  0  0  0  0  0  0  0  0  0
   -0.3232    1.4886    0.8300 N   0  0  0  0  0  0  0  0  0  0  0  0
   -1.5554    1.8822    1.2369 C   0  0  0  0  0  0  0  0  0  0  0  0
   -1.7261    2.9803    1.8439 O   0  0  0  0  0  0  0  0  0  0  0  0
   -2.6288    1.0685    0.9809 C   0  0  0  0  0  0  0  0  0  0  0  0
   -2.4600   -0.0894    0.3425 N   0  0  0  0  0  0  0  0  0  0  0  0
   -1.2264   -0.5221   -0.0852 C   0  0  0  0  0  0  0  0  0  0  0  0
   -1.1379   -1.7875   -0.7672 C   0  0  0  0  0  0  0  0  0  0  0  0
   -2.3877   -2.5099   -0.9465 N   0  0  0  0  0  0  0  0  0  0  0  0
   -0.1505   -2.3581   -1.2279 O   0  0  0  0  0  0  0  0  0  0  0  0
    3.4942   -0.8244   -1.0016 H   0  0  0  0  0  0  0  0  0  0  0  0
    4.1292    0.8733   -1.1812 H   0  0  0  0  0  0  0  0  0  0  0  0
    4.2628   -0.0025    0.3710 H   0  0  0  0  0  0  0  0  0  0  0  0
    1.2639   -1.0062   -0.7431 H   0  0  0  0  0  0  0  0  0  0  0  0
    0.4396    2.1549    1.0584 H   0  0  0  0  0  0  0  0  0  0  0  0
   -3.6025    1.4219    1.3247 H   0  0  0  0  0  0  0  0  0  0  0  0
   -2.6172   -3.2381   -0.2478 H   0  0  0  0  0  0  0  0  0  0  0  0
   -3.0276   -2.3206   -1.7255 H   0  0  0  0  0  0  0  0  0  0  0  0
  1  2  1  0
  2  3  2  0
  2  4  1  0
  4  5  1  0
  5  6  1  0
  6  7  1  0
  7  8  2  0
  7  9  1  0
  9 10  2  0
 10 11  1  0
 11 12  1  0
 12 13  1  0
 12 14  2  0
 11  5  2  0
  1 15  1  0
  1 16  1  0
  1 17  1  0
  4 18  1  0
  6 19  1  0
  9 20  1  0
 13 21  1  0
 13 22  1  0
M  END
$$$$

     RDKit          3D

 22 22  0  0  0  0  0  0  0  0999 V2000
    3.6780    0.1597    0.1560 C   0  0  0  0  0  0  0  0  0  0  0  0
    2.3704   -0.5627    0.3470 C   0  0  0  0  0  0  0  0  0  0  0  0
    2.3642   -1.7107    0.7766 O   0  0  0  0  0  0  0  0  0  0  0  0
    1.1874    0.1395    0.0121 N   0  0  0  0  0  0  0  0  0  0  0  0
   -0.1265   -0.3483    0.1148 C   0  0  0  0  0  0  0  0  0  0  0  0
   -0.3810   -1.5865    0.5632 N   0  0  0  0  0  0  0  0  0  0  0  0
   -1.6524   -2.0900    0.6745 C   0  0  0  0  0  0  0  0  0  0  0  0
   -1.8497   -3.2517    1.0977 O   0  0  0  0  0  0  0  0  0  0  0  0
   -2.7220   -1.3234    0.3223 C   0  0  0  0  0  0  0  0  0  0  0  0
   -2.4644   -0.0896   -0.1242 N   0  0  0  0  0  0  0  0  0  0  0  0
   -1.2000    0.4160   -0.2367 C   0  0  0  0  0  0  0  0  0  0  0  0
   -1.1186    1.7651   -0.7372 C   0  0  0  0  0  0  0  0  0  0  0  0
   -2.3614    2.4387   -1.0651 N   0  0  0  0  0  0  0  0  0  0  0  0
   -0.0708    2.4356   -0.9248 O   0  0  0  0  0  0  0  0  0  0  0  0
    4.0836   -0.0082   -0.8580 H   0  0  0  0  0  0  0  0  0  0  0  0
    4.3411   -0.2153    0.9615 H   0  0  0  0  0  0  0  0  0  0  0  0
    3.5379    1.2558    0.3807 H   0  0  0  0  0  0  0  0  0  0  0  0
    1.3225    1.1418   -0.3551 H   0  0  0  0  0  0  0  0  0  0  0  0
    0.3701   -2.2451    0.8556 H   0  0  0  0  0  0  0  0  0  0  0  0
   -3.7539   -1.6493    0.3817 H   0  0  0  0  0  0  0  0  0  0  0  0
   -2.9228    2.8080   -0.2984 H   0  0  0  0  0  0  0  0  0  0  0  0
   -2.6317    2.5207   -2.0442 H   0  0  0  0  0  0  0  0  0  0  0  0
  1  2  1  0
  2  3  2  0
  2  4  1  0
  4  5  1  0
  5  6  1  0
  6  7  1  0
  7  8  2  0
  7  9  1  0
  9 10  2  0
 10 11  1  0
 11 12  1  0
 12 13  1  0
 12 14  2  0
 11  5  2  0
  1 15  1  0
  1 16  1  0
  1 17  1  0
  4 18  1  0
  6 19  1  0
  9 20  1  0
 13 21  1  0
 13 22  1  0
M  END
$$$$

     RDKit          3D

 22 22  0  0  0  0  0  0  0  0999 V2000
    3.6843   -0.0851   -0.1292 C   0  0  0  0  0  0  0  0  0  0  0  0
    2.3275   -0.7168    0.1285 C   0  0  0  0  0  0  0  0  0  0  0  0
    2.3002   -1.9027    0.5053 O   0  0  0  0  0  0  0  0  0  0  0  0
    1.1690    0.0698   -0.0715 N   0  0  0  0  0  0  0  0  0  0  0  0
   -0.1506   -0.3708    0.1241 C   0  0  0  0  0  0  0  0  0  0  0  0
   -0.4700   -1.6082    0.5297 N   0  0  0  0  0  0  0  0  0  0  0  0
   -1.7319   -2.0665    0.7284 C   0  0  0  0  0  0  0  0  0  0  0  0
   -1.9505   -3.2450    1.1110 O   0  0  0  0  0  0  0  0  0  0  0  0
   -2.7409   -1.1692    0.4870 C   0  0  0  0  0  0  0  0  0  0  0  0
   -2.4561    0.0650    0.0840 N   0  0  0  0  0  0  0  0  0  0  0  0
   -1.1765    0.5355   -0.1194 C   0  0  0  0  0  0  0  0  0  0  0  0
   -1.0265    1.9081   -0.5605 C   0  0  0  0  0  0  0  0  0  0  0  0
   -2.2391    2.6834   -0.7546 N   0  0  0  0  0  0  0  0  0  0  0  0
   -0.0011    2.5092   -0.7945 O   0  0  0  0  0  0  0  0  0  0  0  0
    4.0397   -0.4380   -1.1141 H   0  0  0  0  0  0  0  0  0  0  0  0
    3.6028    0.9986   -0.1478 H   0  0  0  0  0  0  0  0  0  0  0  0
    4.3476   -0.3681    0.7097 H   0  0  0  0  0  0  0  0  0  0  0  0
    1.3788    1.0475   -0.3901 H   0  0  0  0  0  0  0  0  0  0  0  0
    0.2709   -2.3107    0.7207 H   0  0  0  0  0  0  0  0  0  0  0  0
   -3.7738   -1.4479    0.6192 H   0  0  0  0  0  0  0  0  0  0  0  0
   -2.2823    3.6945   -0.5777 H   0  0  0  0  0  0  0  0  0  0  0  0
   -3.1216    2.2176   -1.0884 H   0  0  0  0  0  0  0  0  0  0  0  0
  1  2  1  0
  2  3  2  0
  2  4  1  0
  4  5  1  0
  5  6  1  0
  6  7  1  0
  7  8  2  0
  7  9  1  0
  9 10  2  0
 10 11  1  0
 11 12  1  0
 12 13  1  0
 12 14  2  0
 11  5  2  0
  1 15  1  0
  1 16  1  0
  1 17  1  0
  4 18  1  0
  6 19  1  0
  9 20  1  0
 13 21  1  0
 13 22  1  0
M  END
$$$$

     RDKit          3D

 22 22  0  0  0  0  0  0  0  0999 V2000
    3.6565    0.0379    0.5704 C   0  0  0  0  0  0  0  0  0  0  0  0
    2.3757   -0.6362    0.1888 C   0  0  0  0  0  0  0  0  0  0  0  0
    2.4066   -1.8193   -0.1336 O   0  0  0  0  0  0  0  0  0  0  0  0
    1.1724    0.0925    0.2068 N   0  0  0  0  0  0  0  0  0  0  0  0
   -0.1146   -0.3746   -0.1185 C   0  0  0  0  0  0  0  0  0  0  0  0
   -0.3573   -1.6415   -0.5058 N   0  0  0  0  0  0  0  0  0  0  0  0
   -1.6067   -2.0809   -0.8178 C   0  0  0  0  0  0  0  0  0  0  0  0
   -1.8334   -3.2658   -1.1800 O   0  0  0  0  0  0  0  0  0  0  0  0
   -2.6843   -1.2304   -0.7468 C   0  0  0  0  0  0  0  0  0  0  0  0
   -2.4647    0.0144   -0.3691 N   0  0  0  0  0  0  0  0  0  0  0  0
   -1.2212    0.4593   -0.0566 C   0  0  0  0  0  0  0  0  0  0  0  0
   -1.1770    1.8597    0.3374 C   0  0  0  0  0  0  0  0  0  0  0  0
   -2.3880    2.6306    0.3660 N   0  0  0  0  0  0  0  0  0  0  0  0
   -0.1349    2.4578    0.6615 O   0  0  0  0  0  0  0  0  0  0  0  0
    4.5214   -0.5047    0.0924 H   0  0  0  0  0  0  0  0  0  0  0  0
    3.7978   -0.0672    1.6531 H   0  0  0  0  0  0  0  0  0  0  0  0
    3.7163    1.0699    0.2209 H   0  0  0  0  0  0  0  0  0  0  0  0
    1.2967    1.0824    0.4995 H   0  0  0  0  0  0  0  0  0  0  0  0
    0.3975   -2.3435   -0.5849 H   0  0  0  0  0  0  0  0  0  0  0  0
   -3.6923   -1.5583   -0.9911 H   0  0  0  0  0  0  0  0  0  0  0  0
   -2.7619    3.0590    1.2269 H   0  0  0  0  0  0  0  0  0  0  0  0
   -2.9046    2.7587   -0.5194 H   0  0  0  0  0  0  0  0  0  0  0  0
  1  2  1  0
  2  3  2  0
  2  4  1  0
  4  5  1  0
  5  6  1  0
  6  7  1  0
  7  8  2  0
  7  9  1  0
  9 10  2  0
 10 11  1  0
 11 12  1  0
 12 13  1  0
 12 14  2  0
 11  5  2  0
  1 15  1  0
  1 16  1  0
  1 17  1  0
  4 18  1  0
  6 19  1  0
  9 20  1  0
 13 21  1  0
 13 22  1  0
M  END
$$$$

     RDKit          3D

 22 22  0  0  0  0  0  0  0  0999 V2000
    3.6840    0.0941   -0.3823 C   0  0  0  0  0  0  0  0  0  0  0  0
    2.3672   -0.6383   -0.1763 C   0  0  0  0  0  0  0  0  0  0  0  0
    2.3475   -1.8681   -0.0506 O   0  0  0  0  0  0  0  0  0  0  0  0
    1.1673    0.1005   -0.1300 N   0  0  0  0  0  0  0  0  0  0  0  0
   -0.1142   -0.3970    0.0488 C   0  0  0  0  0  0  0  0  0  0  0  0
   -0.4052   -1.6971    0.2088 N   0  0  0  0  0  0  0  0  0  0  0  0
   -1.6690   -2.1746    0.3839 C   0  0  0  0  0  0  0  0  0  0  0  0
   -1.8142   -3.4308    0.5249 O   0  0  0  0  0  0  0  0  0  0  0  0
   -2.7321   -1.3172    0.4044 C   0  0  0  0  0  0  0  0  0  0  0  0
   -2.4809   -0.0236    0.2490 N   0  0  0  0  0  0  0  0  0  0  0  0
   -1.2067    0.4705    0.0713 C   0  0  0  0  0  0  0  0  0  0  0  0
   -1.0996    1.9063   -0.0840 C   0  0  0  0  0  0  0  0  0  0  0  0
   -2.3381    2.6672   -0.0361 N   0  0  0  0  0  0  0  0  0  0  0  0
   -0.0816    2.5803   -0.2541 O   0  0  0  0  0  0  0  0  0  0  0  0
    4.4240   -0.5979   -0.8311 H   0  0  0  0  0  0  0  0  0  0  0  0
    3.5482    0.9563   -1.0352 H   0  0  0  0  0  0  0  0  0  0  0  0
    4.0238    0.4001    0.6430 H   0  0  0  0  0  0  0  0  0  0  0  0
    1.3283    1.1560   -0.2524 H   0  0  0  0  0  0  0  0  0  0  0  0
    0.3744   -2.3602    0.1972 H   0  0  0  0  0  0  0  0  0  0  0  0
   -3.7328   -1.7256    0.5461 H   0  0  0  0  0  0  0  0  0  0  0  0
   -2.9256    2.7075    0.8235 H   0  0  0  0  0  0  0  0  0  0  0  0
   -2.6646    3.1915   -0.8687 H   0  0  0  0  0  0  0  0  0  0  0  0
  1  2  1  0
  2  3  2  0
  2  4  1  0
  4  5  1  0
  5  6  1  0
  6  7  1  0
  7  8  2  0
  7  9  1  0
  9 10  2  0
 10 11  1  0
 11 12  1  0
 12 13  1  0
 12 14  2  0
 11  5  2  0
  1 15  1  0
  1 16  1  0
  1 17  1  0
  4 18  1  0
  6 19  1  0
  9 20  1  0
 13 21  1  0
 13 22  1  0
M  END
$$$$

     RDKit          3D

 22 22  0  0  0  0  0  0  0  0999 V2000
    3.5467   -1.0449    0.2540 C   0  0  0  0  0  0  0  0  0  0  0  0
    2.4235   -0.0056    0.1790 C   0  0  0  0  0  0  0  0  0  0  0  0
    2.7147    1.1944    0.2091 O   0  0  0  0  0  0  0  0  0  0  0  0
    1.0851   -0.4515    0.0775 N   0  0  0  0  0  0  0  0  0  0  0  0
   -0.0366    0.3868    0.0011 C   0  0  0  0  0  0  0  0  0  0  0  0
    0.0659    1.7495    0.0184 N   0  0  0  0  0  0  0  0  0  0  0  0
   -1.0323    2.5372   -0.0566 C   0  0  0  0  0  0  0  0  0  0  0  0
   -0.8600    3.8063   -0.0348 O   0  0  0  0  0  0  0  0  0  0  0  0
   -2.2864    1.9999   -0.1526 C   0  0  0  0  0  0  0  0  0  0  0  0
   -2.3858    0.6803   -0.1694 N   0  0  0  0  0  0  0  0  0  0  0  0
   -1.2944   -0.1558   -0.0952 C   0  0  0  0  0  0  0  0  0  0  0  0
   -1.5604   -1.5670   -0.1248 C   0  0  0  0  0  0  0  0  0  0  0  0
   -2.9463   -1.9847   -0.2298 N   0  0  0  0  0  0  0  0  0  0  0  0
   -0.7683   -2.5040   -0.0732 O   0  0  0  0  0  0  0  0  0  0  0  0
    4.1617   -0.8492   -0.6322 H   0  0  0  0  0  0  0  0  0  0  0  0
    4.1486   -0.8572    1.1486 H   0  0  0  0  0  0  0  0  0  0  0  0
    3.1265   -2.0504    0.2057 H   0  0  0  0  0  0  0  0  0  0  0  0
    0.9600   -1.5094    0.0606 H   0  0  0  0  0  0  0  0  0  0  0  0
    0.9671    2.2175    0.0880 H   0  0  0  0  0  0  0  0  0  0  0  0
   -3.1375    2.6403   -0.2105 H   0  0  0  0  0  0  0  0  0  0  0  0
   -3.5686   -1.7288    0.5643 H   0  0  0  0  0  0  0  0  0  0  0  0
   -3.3232   -2.5035   -1.0273 H   0  0  0  0  0  0  0  0  0  0  0  0
  1  2  1  0
  2  3  2  0
  2  4  1  0
  4  5  1  0
  5  6  1  0
  6  7  1  0
  7  8  2  0
  7  9  1  0
  9 10  2  0
 10 11  1  0
 11 12  1  0
 12 13  1  0
 12 14  2  0
 11  5  2  0
  1 15  1  0
  1 16  1  0
  1 17  1  0
  4 18  1  0
  6 19  1  0
  9 20  1  0
 13 21  1  0
 13 22  1  0
M  END
$$$$
