
     RDKit          3D

 28 27  0  0  0  0  0  0  0  0999 V2000
   -3.0220    1.1391    0.8710 C   0  0  0  0  0  0  0  0  0  0  0  0
   -2.4276   -0.0099    0.0949 C   0  0  0  0  0  0  0  0  0  0  0  0
   -2.4948    0.3526   -1.3887 C   0  0  0  0  0  0  0  0  0  0  0  0
   -0.6931   -0.1025    0.5896 S   0  0  0  0  0  6  0  0  0  0  0  0
   -0.7067   -0.3524    2.0673 O   0  0  0  0  0  0  0  0  0  0  0  0
   -0.1070    1.2620    0.2581 O   0  0  0  0  0  0  0  0  0  0  0  0
    0.1040   -1.3899   -0.3082 C   0  0  0  0  0  0  0  0  0  0  0  0
    1.5267   -1.5651    0.0578 C   0  0  2  0  0  0  0  0  0  0  0  0
    1.7337   -1.8696    1.4095 O   0  0  0  0  0  0  0  0  0  0  0  0
    2.4694   -0.4889   -0.3761 C   0  0  0  0  0  0  0  0  0  0  0  0
    2.3842    0.7262    0.3581 N   0  0  0  0  0  0  0  0  0  0  0  0
    3.2908    1.6830   -0.1077 N   0  0  0  0  0  0  0  0  0  0  0  0
   -2.4519    2.0595    0.6244 H   0  0  0  0  0  0  0  0  0  0  0  0
   -4.0806    1.2731    0.5413 H   0  0  0  0  0  0  0  0  0  0  0  0
   -2.9758    0.9633    1.9577 H   0  0  0  0  0  0  0  0  0  0  0  0
   -2.9299   -0.9587    0.3051 H   0  0  0  0  0  0  0  0  0  0  0  0
   -1.8653    1.2470   -1.5536 H   0  0  0  0  0  0  0  0  0  0  0  0
   -2.0787   -0.5216   -1.9299 H   0  0  0  0  0  0  0  0  0  0  0  0
   -3.5487    0.5378   -1.6424 H   0  0  0  0  0  0  0  0  0  0  0  0
    0.0675   -1.0820   -1.3970 H   0  0  0  0  0  0  0  0  0  0  0  0
   -0.4765   -2.3515   -0.2181 H   0  0  0  0  0  0  0  0  0  0  0  0
    1.8609   -2.5575   -0.4683 H   0  0  0  0  0  0  0  0  0  0  0  0
    1.4951   -1.0935    1.9696 H   0  0  0  0  0  0  0  0  0  0  0  0
    3.5212   -0.8590   -0.3344 H   0  0  0  0  0  0  0  0  0  0  0  0
    2.2294   -0.2418   -1.4433 H   0  0  0  0  0  0  0  0  0  0  0  0
    2.4629    0.5928    1.3956 H   0  0  0  0  0  0  0  0  0  0  0  0
    3.9654    1.1841   -0.7340 H   0  0  0  0  0  0  0  0  0  0  0  0
    2.7472    2.4234   -0.5986 H   0  0  0  0  0  0  0  0  0  0  0  0
  1  2  1  0
  2  3  1  0
  2  4  1  0
  4  5  2  0
  4  6  2  0
  4  7  1  0
  7  8  1  0
  8  9  1  0
  8 10  1  0
 10 11  1  0
 11 12  1  0
  1 13  1  0
  1 14  1  0
  1 15  1  0
  2 16  1  0
  3 17  1  0
  3 18  1  0
  3 19  1  0
  7 20  1  0
  7 21  1  0
  8 22  1  6
  9 23  1  0
 10 24  1  0
 10 25  1  0
 11 26  1  0
 12 27  1  0
 12 28  1  0
M  END
$$$$

     RDKit          3D

 28 27  0  0  0  0  0  0  0  0999 V2000
    2.9817   -0.7255   -0.8039 C   0  0  0  0  0  0  0  0  0  0  0  0
    2.7255    0.4054    0.1796 C   0  0  0  0  0  0  0  0  0  0  0  0
    2.5034    1.6528   -0.6278 C   0  0  0  0  0  0  0  0  0  0  0  0
    1.3508    0.0213    1.2236 S   0  0  0  0  0  6  0  0  0  0  0  0
    1.6467   -1.2624    1.9446 O   0  0  0  0  0  0  0  0  0  0  0  0
    1.2002    1.0996    2.2556 O   0  0  0  0  0  0  0  0  0  0  0  0
   -0.1558   -0.1285    0.3017 C   0  0  0  0  0  0  0  0  0  0  0  0
   -1.2965   -0.4566    1.2405 C   0  0  2  0  0  0  0  0  0  0  0  0
   -0.9672   -1.6819    1.8667 O   0  0  0  0  0  0  0  0  0  0  0  0
   -2.5866   -0.6746    0.5266 C   0  0  0  0  0  0  0  0  0  0  0  0
   -3.0613    0.4997   -0.1695 N   0  0  0  0  0  0  0  0  0  0  0  0
   -4.2524    0.2993   -0.8281 N   0  0  0  0  0  0  0  0  0  0  0  0
    2.1163   -0.7574   -1.4819 H   0  0  0  0  0  0  0  0  0  0  0  0
    3.0863   -1.6982   -0.2733 H   0  0  0  0  0  0  0  0  0  0  0  0
    3.9046   -0.4506   -1.3610 H   0  0  0  0  0  0  0  0  0  0  0  0
    3.6382    0.4886    0.7980 H   0  0  0  0  0  0  0  0  0  0  0  0
    2.1510    1.3855   -1.6462 H   0  0  0  0  0  0  0  0  0  0  0  0
    3.4795    2.1924   -0.6827 H   0  0  0  0  0  0  0  0  0  0  0  0
    1.7864    2.3585   -0.1585 H   0  0  0  0  0  0  0  0  0  0  0  0
   -0.0802   -0.9476   -0.4414 H   0  0  0  0  0  0  0  0  0  0  0  0
   -0.3775    0.8090   -0.2218 H   0  0  0  0  0  0  0  0  0  0  0  0
   -1.3735    0.3069    2.0329 H   0  0  0  0  0  0  0  0  0  0  0  0
   -0.7638   -2.3799    1.1887 H   0  0  0  0  0  0  0  0  0  0  0  0
   -3.3655   -0.9827    1.2405 H   0  0  0  0  0  0  0  0  0  0  0  0
   -2.4663   -1.5116   -0.1935 H   0  0  0  0  0  0  0  0  0  0  0  0
   -2.3481    1.0103   -0.6939 H   0  0  0  0  0  0  0  0  0  0  0  0
   -4.4017    0.8944   -1.6505 H   0  0  0  0  0  0  0  0  0  0  0  0
   -5.0741    0.2337   -0.2134 H   0  0  0  0  0  0  0  0  0  0  0  0
  1  2  1  0
  2  3  1  0
  2  4  1  0
  4  5  2  0
  4  6  2  0
  4  7  1  0
  7  8  1  0
  8  9  1  0
  8 10  1  0
 10 11  1  0
 11 12  1  0
  1 13  1  0
  1 14  1  0
  1 15  1  0
  2 16  1  0
  3 17  1  0
  3 18  1  0
  3 19  1  0
  7 20  1  0
  7 21  1  0
  8 22  1  1
  9 23  1  0
 10 24  1  0
 10 25  1  0
 11 26  1  0
 12 27  1  0
 12 28  1  0
M  END
$$$$

     RDKit          3D

 28 27  0  0  0  0  0  0  0  0999 V2000
   -3.2922    0.0222    1.5530 C   0  0  0  0  0  0  0  0  0  0  0  0
   -2.4993    0.3886    0.3223 C   0  0  0  0  0  0  0  0  0  0  0  0
   -3.2096   -0.1872   -0.8905 C   0  0  0  0  0  0  0  0  0  0  0  0
   -0.8414   -0.2797    0.4190 S   0  0  0  0  0  6  0  0  0  0  0  0
   -0.9329   -1.7733    0.5300 O   0  0  0  0  0  0  0  0  0  0  0  0
   -0.2292    0.2457    1.6653 O   0  0  0  0  0  0  0  0  0  0  0  0
    0.0446    0.1364   -1.0447 C   0  0  0  0  0  0  0  0  0  0  0  0
    1.4561   -0.3852   -1.0612 C   0  0  2  0  0  0  0  0  0  0  0  0
    1.5173   -1.7532   -0.9684 O   0  0  0  0  0  0  0  0  0  0  0  0
    2.2997    0.3060   -0.0141 C   0  0  0  0  0  0  0  0  0  0  0  0
    3.7012   -0.0582   -0.1353 N   0  0  0  0  0  0  0  0  0  0  0  0
    4.4080    0.6091    0.8504 N   0  0  0  0  0  0  0  0  0  0  0  0
   -2.6321   -0.4647    2.3148 H   0  0  0  0  0  0  0  0  0  0  0  0
   -3.7934    0.8919    2.0152 H   0  0  0  0  0  0  0  0  0  0  0  0
   -4.0635   -0.7481    1.3057 H   0  0  0  0  0  0  0  0  0  0  0  0
   -2.4760    1.4903    0.2216 H   0  0  0  0  0  0  0  0  0  0  0  0
   -4.1789    0.3664   -0.9800 H   0  0  0  0  0  0  0  0  0  0  0  0
   -2.6454    0.0185   -1.8066 H   0  0  0  0  0  0  0  0  0  0  0  0
   -3.3744   -1.2793   -0.7361 H   0  0  0  0  0  0  0  0  0  0  0  0
   -0.4957   -0.3003   -1.9114 H   0  0  0  0  0  0  0  0  0  0  0  0
    0.1024    1.2307   -1.2150 H   0  0  0  0  0  0  0  0  0  0  0  0
    1.8664   -0.0817   -2.0711 H   0  0  0  0  0  0  0  0  0  0  0  0
    1.6245   -2.0284   -0.0186 H   0  0  0  0  0  0  0  0  0  0  0  0
    2.2396    1.4074   -0.1129 H   0  0  0  0  0  0  0  0  0  0  0  0
    1.9833   -0.0192    0.9954 H   0  0  0  0  0  0  0  0  0  0  0  0
    4.0735    0.0464   -1.0883 H   0  0  0  0  0  0  0  0  0  0  0  0
    5.4141    0.7642    0.6261 H   0  0  0  0  0  0  0  0  0  0  0  0
    3.9334    1.4348    1.2356 H   0  0  0  0  0  0  0  0  0  0  0  0
  1  2  1  0
  2  3  1  0
  2  4  1  0
  4  5  2  0
  4  6  2  0
  4  7  1  0
  7  8  1  0
  8  9  1  0
  8 10  1  0
 10 11  1  0
 11 12  1  0
  1 13  1  0
  1 14  1  0
  1 15  1  0
  2 16  1  0
  3 17  1  0
  3 18  1  0
  3 19  1  0
  7 20  1  0
  7 21  1  0
  8 22  1  6
  9 23  1  0
 10 24  1  0
 10 25  1  0
 11 26  1  0
 12 27  1  0
 12 28  1  0
M  END
$$$$

     RDKit          3D

 28 27  0  0  0  0  0  0  0  0999 V2000
    3.6892   -1.1403   -0.2451 C   0  0  0  0  0  0  0  0  0  0  0  0
    2.5518   -0.2542   -0.7161 C   0  0  0  0  0  0  0  0  0  0  0  0
    2.9392    1.1731   -0.4084 C   0  0  0  0  0  0  0  0  0  0  0  0
    1.0857   -0.7595    0.1002 S   0  0  0  0  0  6  0  0  0  0  0  0
    1.3133   -0.5955    1.5927 O   0  0  0  0  0  0  0  0  0  0  0  0
    0.8217   -2.1933   -0.2439 O   0  0  0  0  0  0  0  0  0  0  0  0
   -0.3266    0.1854   -0.3261 C   0  0  0  0  0  0  0  0  0  0  0  0
   -1.5113   -0.3790    0.4655 C   0  0  2  0  0  0  0  0  0  0  0  0
   -1.7185   -1.7201    0.1427 O   0  0  0  0  0  0  0  0  0  0  0  0
   -2.7401    0.4527    0.2846 C   0  0  0  0  0  0  0  0  0  0  0  0
   -3.2354    0.4448   -1.0735 N   0  0  0  0  0  0  0  0  0  0  0  0
   -4.3665    1.2089   -1.2455 N   0  0  0  0  0  0  0  0  0  0  0  0
    3.3623   -1.8516    0.5465 H   0  0  0  0  0  0  0  0  0  0  0  0
    4.1126   -1.7556   -1.0737 H   0  0  0  0  0  0  0  0  0  0  0  0
    4.5260   -0.5536    0.1915 H   0  0  0  0  0  0  0  0  0  0  0  0
    2.4626   -0.3285   -1.8202 H   0  0  0  0  0  0  0  0  0  0  0  0
    2.7309    1.4053    0.6458 H   0  0  0  0  0  0  0  0  0  0  0  0
    2.4900    1.9001   -1.1123 H   0  0  0  0  0  0  0  0  0  0  0  0
    4.0386    1.2451   -0.5393 H   0  0  0  0  0  0  0  0  0  0  0  0
   -0.2317    1.2618   -0.1886 H   0  0  0  0  0  0  0  0  0  0  0  0
   -0.5841    0.0088   -1.3989 H   0  0  0  0  0  0  0  0  0  0  0  0
   -1.2665   -0.3657    1.5578 H   0  0  0  0  0  0  0  0  0  0  0  0
   -1.7646   -1.8042   -0.8334 H   0  0  0  0  0  0  0  0  0  0  0  0
   -2.5188    1.4746    0.6327 H   0  0  0  0  0  0  0  0  0  0  0  0
   -3.5215    0.0448    0.9534 H   0  0  0  0  0  0  0  0  0  0  0  0
   -2.4997    0.5956   -1.7824 H   0  0  0  0  0  0  0  0  0  0  0  0
   -5.1911    0.7098   -1.6144 H   0  0  0  0  0  0  0  0  0  0  0  0
   -4.6476    1.5902   -0.2979 H   0  0  0  0  0  0  0  0  0  0  0  0
  1  2  1  0
  2  3  1  0
  2  4  1  0
  4  5  2  0
  4  6  2  0
  4  7  1  0
  7  8  1  0
  8  9  1  0
  8 10  1  0
 10 11  1  0
 11 12  1  0
  1 13  1  0
  1 14  1  0
  1 15  1  0
  2 16  1  0
  3 17  1  0
  3 18  1  0
  3 19  1  0
  7 20  1  0
  7 21  1  0
  8 22  1  1
  9 23  1  0
 10 24  1  0
 10 25  1  0
 11 26  1  0
 12 27  1  0
 12 28  1  0
M  END
$$$$

     RDKit          3D

 28 27  0  0  0  0  0  0  0  0999 V2000
   -2.8069   -1.2507    0.7461 C   0  0  0  0  0  0  0  0  0  0  0  0
   -2.6671   -0.2430   -0.3576 C   0  0  0  0  0  0  0  0  0  0  0  0
   -3.9451    0.5838   -0.5290 C   0  0  0  0  0  0  0  0  0  0  0  0
   -1.2770    0.8543   -0.0478 S   0  0  0  0  0  6  0  0  0  0  0  0
   -1.5234    1.5013    1.2841 O   0  0  0  0  0  0  0  0  0  0  0  0
   -1.1903    1.9043   -1.1067 O   0  0  0  0  0  0  0  0  0  0  0  0
    0.1670   -0.1486    0.0353 C   0  0  0  0  0  0  0  0  0  0  0  0
    1.4195    0.6360    0.2917 C   0  0  2  0  0  0  0  0  0  0  0  0
    1.5780    1.5592   -0.7663 O   0  0  0  0  0  0  0  0  0  0  0  0
    2.5833   -0.3468    0.1659 C   0  0  0  0  0  0  0  0  0  0  0  0
    3.8065    0.4178    0.2852 N   0  0  0  0  0  0  0  0  0  0  0  0
    4.8828   -0.4396    0.1761 N   0  0  0  0  0  0  0  0  0  0  0  0
   -2.9807   -2.2851    0.3306 H   0  0  0  0  0  0  0  0  0  0  0  0
   -1.9179   -1.3367    1.3878 H   0  0  0  0  0  0  0  0  0  0  0  0
   -3.7356   -1.0222    1.3258 H   0  0  0  0  0  0  0  0  0  0  0  0
   -2.5364   -0.7948   -1.3106 H   0  0  0  0  0  0  0  0  0  0  0  0
   -3.9792    1.4404    0.1481 H   0  0  0  0  0  0  0  0  0  0  0  0
   -3.9167    0.9912   -1.5647 H   0  0  0  0  0  0  0  0  0  0  0  0
   -4.7840   -0.1102   -0.4629 H   0  0  0  0  0  0  0  0  0  0  0  0
    0.0110   -0.8930    0.8469 H   0  0  0  0  0  0  0  0  0  0  0  0
    0.2742   -0.6920   -0.9134 H   0  0  0  0  0  0  0  0  0  0  0  0
    1.4290    1.1711    1.2415 H   0  0  0  0  0  0  0  0  0  0  0  0
    2.2472    1.2718   -1.4131 H   0  0  0  0  0  0  0  0  0  0  0  0
    2.4910   -0.8565   -0.7999 H   0  0  0  0  0  0  0  0  0  0  0  0
    2.4737   -1.0641    1.0137 H   0  0  0  0  0  0  0  0  0  0  0  0
    3.7590    0.9235    1.1952 H   0  0  0  0  0  0  0  0  0  0  0  0
    4.6396   -1.4288    0.0443 H   0  0  0  0  0  0  0  0  0  0  0  0
    5.4987   -0.3425    0.9963 H   0  0  0  0  0  0  0  0  0  0  0  0
  1  2  1  0
  2  3  1  0
  2  4  1  0
  4  5  2  0
  4  6  2  0
  4  7  1  0
  7  8  1  0
  8  9  1  0
  8 10  1  0
 10 11  1  0
 11 12  1  0
  1 13  1  0
  1 14  1  0
  1 15  1  0
  2 16  1  0
  3 17  1  0
  3 18  1  0
  3 19  1  0
  7 20  1  0
  7 21  1  0
  8 22  1  1
  9 23  1  0
 10 24  1  0
 10 25  1  0
 11 26  1  0
 12 27  1  0
 12 28  1  0
M  END
$$$$

     RDKit          3D

 28 27  0  0  0  0  0  0  0  0999 V2000
   -3.7131    0.0378    0.7439 C   0  0  0  0  0  0  0  0  0  0  0  0
   -2.4063    0.6830    0.3272 C   0  0  0  0  0  0  0  0  0  0  0  0
   -2.6106    1.4137   -0.9800 C   0  0  0  0  0  0  0  0  0  0  0  0
   -1.2184   -0.6332    0.1759 S   0  0  0  0  0  6  0  0  0  0  0  0
   -1.1667   -1.3346    1.5038 O   0  0  0  0  0  0  0  0  0  0  0  0
   -1.7508   -1.6033   -0.8217 O   0  0  0  0  0  0  0  0  0  0  0  0
    0.3781   -0.0110   -0.2876 C   0  0  0  0  0  0  0  0  0  0  0  0
    1.3033   -1.2248   -0.3846 C   0  0  2  0  0  0  0  0  0  0  0  0
    1.3217   -1.8284    0.8725 O   0  0  0  0  0  0  0  0  0  0  0  0
    2.6785   -0.6950   -0.7240 C   0  0  0  0  0  0  0  0  0  0  0  0
    3.0395    0.2657    0.2754 N   0  0  0  0  0  0  0  0  0  0  0  0
    4.2827    0.8416    0.0970 N   0  0  0  0  0  0  0  0  0  0  0  0
   -4.1536   -0.3918   -0.1999 H   0  0  0  0  0  0  0  0  0  0  0  0
   -4.3978    0.7541    1.2345 H   0  0  0  0  0  0  0  0  0  0  0  0
   -3.4550   -0.8213    1.3996 H   0  0  0  0  0  0  0  0  0  0  0  0
   -2.0958    1.4237    1.1024 H   0  0  0  0  0  0  0  0  0  0  0  0
   -1.7340    1.3798   -1.6392 H   0  0  0  0  0  0  0  0  0  0  0  0
   -3.4804    1.0306   -1.5263 H   0  0  0  0  0  0  0  0  0  0  0  0
   -2.8322    2.4912   -0.7610 H   0  0  0  0  0  0  0  0  0  0  0  0
    0.7712    0.7178    0.4142 H   0  0  0  0  0  0  0  0  0  0  0  0
    0.3379    0.4123   -1.3097 H   0  0  0  0  0  0  0  0  0  0  0  0
    0.9089   -1.9173   -1.1540 H   0  0  0  0  0  0  0  0  0  0  0  0
    2.2774   -1.9706    1.1294 H   0  0  0  0  0  0  0  0  0  0  0  0
    3.3703   -1.5473   -0.7994 H   0  0  0  0  0  0  0  0  0  0  0  0
    2.5918   -0.1668   -1.7169 H   0  0  0  0  0  0  0  0  0  0  0  0
    2.8003    0.0085    1.2362 H   0  0  0  0  0  0  0  0  0  0  0  0
    4.1317    1.7792   -0.3729 H   0  0  0  0  0  0  0  0  0  0  0  0
    4.8212    0.9064    0.9719 H   0  0  0  0  0  0  0  0  0  0  0  0
  1  2  1  0
  2  3  1  0
  2  4  1  0
  4  5  2  0
  4  6  2  0
  4  7  1  0
  7  8  1  0
  8  9  1  0
  8 10  1  0
 10 11  1  0
 11 12  1  0
  1 13  1  0
  1 14  1  0
  1 15  1  0
  2 16  1  0
  3 17  1  0
  3 18  1  0
  3 19  1  0
  7 20  1  0
  7 21  1  0
  8 22  1  6
  9 23  1  0
 10 24  1  0
 10 25  1  0
 11 26  1  0
 12 27  1  0
 12 28  1  0
M  END
$$$$

     RDKit          3D

 28 27  0  0  0  0  0  0  0  0999 V2000
    3.7778   -0.8596   -0.0532 C   0  0  0  0  0  0  0  0  0  0  0  0
    2.5973    0.0863    0.1569 C   0  0  0  0  0  0  0  0  0  0  0  0
    2.6619    1.2089   -0.8318 C   0  0  0  0  0  0  0  0  0  0  0  0
    1.1338   -0.8744    0.0543 S   0  0  0  0  0  6  0  0  0  0  0  0
    1.2331   -1.9790    1.0737 O   0  0  0  0  0  0  0  0  0  0  0  0
    1.0008   -1.5289   -1.2861 O   0  0  0  0  0  0  0  0  0  0  0  0
   -0.3258    0.0615    0.4155 C   0  0  0  0  0  0  0  0  0  0  0  0
   -1.5201   -0.8933    0.2900 C   0  0  2  0  0  0  0  0  0  0  0  0
   -1.5717   -1.3988   -0.9966 O   0  0  0  0  0  0  0  0  0  0  0  0
   -2.7742   -0.1182    0.6423 C   0  0  0  0  0  0  0  0  0  0  0  0
   -2.9575    0.9912   -0.2512 N   0  0  0  0  0  0  0  0  0  0  0  0
   -4.1226    1.6719    0.1134 N   0  0  0  0  0  0  0  0  0  0  0  0
    4.7430   -0.3567    0.0293 H   0  0  0  0  0  0  0  0  0  0  0  0
    3.6383   -1.6735    0.7116 H   0  0  0  0  0  0  0  0  0  0  0  0
    3.6161   -1.3544   -1.0358 H   0  0  0  0  0  0  0  0  0  0  0  0
    2.6655    0.4802    1.2085 H   0  0  0  0  0  0  0  0  0  0  0  0
    3.4953    1.0130   -1.5683 H   0  0  0  0  0  0  0  0  0  0  0  0
    2.9918    2.1559   -0.3115 H   0  0  0  0  0  0  0  0  0  0  0  0
    1.7169    1.3891   -1.3745 H   0  0  0  0  0  0  0  0  0  0  0  0
   -0.4532    0.9219   -0.2679 H   0  0  0  0  0  0  0  0  0  0  0  0
   -0.2510    0.4287    1.4529 H   0  0  0  0  0  0  0  0  0  0  0  0
   -1.3994   -1.7181    1.0223 H   0  0  0  0  0  0  0  0  0  0  0  0
   -1.9351   -2.3055   -1.0650 H   0  0  0  0  0  0  0  0  0  0  0  0
   -3.6451   -0.8141    0.5962 H   0  0  0  0  0  0  0  0  0  0  0  0
   -2.7460    0.2649    1.6764 H   0  0  0  0  0  0  0  0  0  0  0  0
   -3.0019    0.7400   -1.2460 H   0  0  0  0  0  0  0  0  0  0  0  0
   -3.9648    2.3362    0.8791 H   0  0  0  0  0  0  0  0  0  0  0  0
   -4.6031    2.1248   -0.6939 H   0  0  0  0  0  0  0  0  0  0  0  0
  1  2  1  0
  2  3  1  0
  2  4  1  0
  4  5  2  0
  4  6  2  0
  4  7  1  0
  7  8  1  0
  8  9  1  0
  8 10  1  0
 10 11  1  0
 11 12  1  0
  1 13  1  0
  1 14  1  0
  1 15  1  0
  2 16  1  0
  3 17  1  0
  3 18  1  0
  3 19  1  0
  7 20  1  0
  7 21  1  0
  8 22  1  1
  9 23  1  0
 10 24  1  0
 10 25  1  0
 11 26  1  0
 12 27  1  0
 12 28  1  0
M  END
$$$$

     RDKit          3D

 28 27  0  0  0  0  0  0  0  0999 V2000
    2.1631   -1.0468   -1.5770 C   0  0  0  0  0  0  0  0  0  0  0  0
    2.4532    0.2047   -0.7763 C   0  0  0  0  0  0  0  0  0  0  0  0
    3.8976    0.1042   -0.3187 C   0  0  0  0  0  0  0  0  0  0  0  0
    1.3497    0.2476    0.6056 S   0  0  0  0  0  6  0  0  0  0  0  0
    1.4832   -1.0526    1.3501 O   0  0  0  0  0  0  0  0  0  0  0  0
    1.6187    1.4071    1.4923 O   0  0  0  0  0  0  0  0  0  0  0  0
   -0.3188    0.3232   -0.0500 C   0  0  0  0  0  0  0  0  0  0  0  0
   -1.2536    0.3595    1.1342 C   0  0  2  0  0  0  0  0  0  0  0  0
   -1.0759   -0.7857    1.8917 O   0  0  0  0  0  0  0  0  0  0  0  0
   -2.6761    0.5239    0.6785 C   0  0  0  0  0  0  0  0  0  0  0  0
   -3.1184   -0.5881   -0.1330 N   0  0  0  0  0  0  0  0  0  0  0  0
   -4.4417   -0.3285   -0.4875 N   0  0  0  0  0  0  0  0  0  0  0  0
    2.4037   -1.9066   -0.9130 H   0  0  0  0  0  0  0  0  0  0  0  0
    1.0955   -1.0587   -1.8786 H   0  0  0  0  0  0  0  0  0  0  0  0
    2.8439   -1.0513   -2.4564 H   0  0  0  0  0  0  0  0  0  0  0  0
    2.2937    1.1319   -1.3708 H   0  0  0  0  0  0  0  0  0  0  0  0
    4.1595    0.8992    0.3973 H   0  0  0  0  0  0  0  0  0  0  0  0
    4.0337   -0.9064    0.1049 H   0  0  0  0  0  0  0  0  0  0  0  0
    4.5247    0.2545   -1.2241 H   0  0  0  0  0  0  0  0  0  0  0  0
   -0.5056   -0.5304   -0.7307 H   0  0  0  0  0  0  0  0  0  0  0  0
   -0.4718    1.2674   -0.6175 H   0  0  0  0  0  0  0  0  0  0  0  0
   -0.9366    1.2410    1.7500 H   0  0  0  0  0  0  0  0  0  0  0  0
   -1.0952   -0.6102    2.8461 H   0  0  0  0  0  0  0  0  0  0  0  0
   -2.7895    1.4561    0.0983 H   0  0  0  0  0  0  0  0  0  0  0  0
   -3.3024    0.5857    1.5974 H   0  0  0  0  0  0  0  0  0  0  0  0
   -2.5014   -0.7566   -0.9326 H   0  0  0  0  0  0  0  0  0  0  0  0
   -4.7237    0.6599   -0.3214 H   0  0  0  0  0  0  0  0  0  0  0  0
   -5.1096   -1.0317   -0.1587 H   0  0  0  0  0  0  0  0  0  0  0  0
  1  2  1  0
  2  3  1  0
  2  4  1  0
  4  5  2  0
  4  6  2  0
  4  7  1  0
  7  8  1  0
  8  9  1  0
  8 10  1  0
 10 11  1  0
 11 12  1  0
  1 13  1  0
  1 14  1  0
  1 15  1  0
  2 16  1  0
  3 17  1  0
  3 18  1  0
  3 19  1  0
  7 20  1  0
  7 21  1  0
  8 22  1  1
  9 23  1  0
 10 24  1  0
 10 25  1  0
 11 26  1  0
 12 27  1  0
 12 28  1  0
M  END
$$$$
