
     RDKit          3D

 27 26  0  0  0  0  0  0  0  0999 V2000
    0.2345    0.8899    1.4452 C   0  0  0  0  0  0  0  0  0  0  0  0
   -0.1621    0.3786    0.0554 C   0  0  0  0  0  0  0  0  0  0  0  0
   -0.8673    1.5018   -0.6350 C   0  0  0  0  0  0  0  0  0  0  0  0
   -1.0248   -0.8185    0.2592 C   0  0  1  0  0  0  0  0  0  0  0  0
   -2.1424   -0.4490    0.9859 O   0  0  0  0  0  0  0  0  0  0  0  0
   -1.4572   -1.5062   -0.9906 C   0  0  0  0  0  0  0  0  0  0  0  0
   -2.2413   -0.7390   -1.8171 O   0  0  0  0  0  0  0  0  0  0  0  0
    1.1166    0.0962   -0.6789 C   0  0  1  0  0  0  0  0  0  0  0  0
    1.8259    1.3137   -0.7437 O   0  0  0  0  0  0  0  0  0  0  0  0
    2.0092   -0.8665    0.0730 C   0  0  0  0  0  0  0  0  0  0  0  0
    3.1992   -0.9780   -0.6688 O   0  0  0  0  0  0  0  0  0  0  0  0
    1.1006    1.5695    1.3900 H   0  0  0  0  0  0  0  0  0  0  0  0
    0.4470    0.0300    2.1173 H   0  0  0  0  0  0  0  0  0  0  0  0
   -0.6533    1.4126    1.8899 H   0  0  0  0  0  0  0  0  0  0  0  0
   -1.7811    1.8283   -0.1230 H   0  0  0  0  0  0  0  0  0  0  0  0
   -1.0296    1.2568   -1.7092 H   0  0  0  0  0  0  0  0  0  0  0  0
   -0.1465    2.3715   -0.6527 H   0  0  0  0  0  0  0  0  0  0  0  0
   -0.4693   -1.5611    0.8785 H   0  0  0  0  0  0  0  0  0  0  0  0
   -2.7585    0.1471    0.4931 H   0  0  0  0  0  0  0  0  0  0  0  0
   -0.6183   -1.9046   -1.5925 H   0  0  0  0  0  0  0  0  0  0  0  0
   -2.0617   -2.3930   -0.6883 H   0  0  0  0  0  0  0  0  0  0  0  0
   -3.0733   -0.4158   -1.4420 H   0  0  0  0  0  0  0  0  0  0  0  0
    0.9511   -0.2899   -1.7030 H   0  0  0  0  0  0  0  0  0  0  0  0
    2.1872    1.4874   -1.6340 H   0  0  0  0  0  0  0  0  0  0  0  0
    1.5574   -1.8717    0.1648 H   0  0  0  0  0  0  0  0  0  0  0  0
    2.2679   -0.4308    1.0580 H   0  0  0  0  0  0  0  0  0  0  0  0
    3.5899   -0.0594   -0.7509 H   0  0  0  0  0  0  0  0  0  0  0  0
  1  2  1  0
  2  3  1  0
  2  4  1  0
  4  5  1  0
  4  6  1  0
  6  7  1  0
  2  8  1  0
  8  9  1  0
  8 10  1  0
 10 11  1  0
  1 12  1  0
  1 13  1  0
  1 14  1  0
  3 15  1  0
  3 16  1  0
  3 17  1  0
  4 18  1  1
  5 19  1  0
  6 20  1  0
  6 21  1  0
  7 22  1  0
  8 23  1  6
  9 24  1  0
 10 25  1  0
 10 26  1  0
 11 27  1  0
M  END
$$$$

     RDKit          3D

 27 26  0  0  0  0  0  0  0  0999 V2000
   -0.8991   -1.6899    0.0172 C   0  0  0  0  0  0  0  0  0  0  0  0
    0.0390   -0.4952    0.2862 C   0  0  0  0  0  0  0  0  0  0  0  0
    0.3804   -0.5412    1.7298 C   0  0  0  0  0  0  0  0  0  0  0  0
   -0.6939    0.7402   -0.1345 C   0  0  1  0  0  0  0  0  0  0  0  0
   -1.0370    0.7377   -1.4699 O   0  0  0  0  0  0  0  0  0  0  0  0
   -1.9540    0.9843    0.6598 C   0  0  0  0  0  0  0  0  0  0  0  0
   -2.4943    2.2154    0.2905 O   0  0  0  0  0  0  0  0  0  0  0  0
    1.2064   -0.6969   -0.6297 C   0  0  1  0  0  0  0  0  0  0  0  0
    0.8258   -0.7172   -1.9741 O   0  0  0  0  0  0  0  0  0  0  0  0
    2.3382    0.2512   -0.4664 C   0  0  0  0  0  0  0  0  0  0  0  0
    2.0764    1.5463   -0.8377 O   0  0  0  0  0  0  0  0  0  0  0  0
   -1.8172   -1.5898    0.5965 H   0  0  0  0  0  0  0  0  0  0  0  0
   -1.0216   -1.8747   -1.0519 H   0  0  0  0  0  0  0  0  0  0  0  0
   -0.3557   -2.5823    0.4408 H   0  0  0  0  0  0  0  0  0  0  0  0
   -0.5208   -0.8294    2.3158 H   0  0  0  0  0  0  0  0  0  0  0  0
    1.1032   -1.3907    1.8792 H   0  0  0  0  0  0  0  0  0  0  0  0
    0.7890    0.4012    2.1424 H   0  0  0  0  0  0  0  0  0  0  0  0
   -0.0434    1.6151    0.0523 H   0  0  0  0  0  0  0  0  0  0  0  0
   -1.5514   -0.0370   -1.7626 H   0  0  0  0  0  0  0  0  0  0  0  0
   -1.7527    1.0321    1.7492 H   0  0  0  0  0  0  0  0  0  0  0  0
   -2.7356    0.2277    0.4770 H   0  0  0  0  0  0  0  0  0  0  0  0
   -3.0410    2.0628   -0.5262 H   0  0  0  0  0  0  0  0  0  0  0  0
    1.6615   -1.7332   -0.4772 H   0  0  0  0  0  0  0  0  0  0  0  0
    1.0138    0.1291   -2.4213 H   0  0  0  0  0  0  0  0  0  0  0  0
    3.1539   -0.1162   -1.1576 H   0  0  0  0  0  0  0  0  0  0  0  0
    2.7879    0.1650    0.5477 H   0  0  0  0  0  0  0  0  0  0  0  0
    2.5422    2.1854   -0.2754 H   0  0  0  0  0  0  0  0  0  0  0  0
  1  2  1  0
  2  3  1  0
  2  4  1  0
  4  5  1  0
  4  6  1  0
  6  7  1  0
  2  8  1  0
  8  9  1  0
  8 10  1  0
 10 11  1  0
  1 12  1  0
  1 13  1  0
  1 14  1  0
  3 15  1  0
  3 16  1  0
  3 17  1  0
  4 18  1  6
  5 19  1  0
  6 20  1  0
  6 21  1  0
  7 22  1  0
  8 23  1  1
  9 24  1  0
 10 25  1  0
 10 26  1  0
 11 27  1  0
M  END
$$$$

     RDKit          3D

 27 26  0  0  0  0  0  0  0  0999 V2000
    0.4777   -1.2691    1.4624 C   0  0  0  0  0  0  0  0  0  0  0  0
    0.0419   -0.6778    0.1101 C   0  0  0  0  0  0  0  0  0  0  0  0
    0.0749   -1.8314   -0.8729 C   0  0  0  0  0  0  0  0  0  0  0  0
   -1.3383   -0.2028    0.2814 C   0  0  1  0  0  0  0  0  0  0  0  0
   -1.4065    0.7848    1.2908 O   0  0  0  0  0  0  0  0  0  0  0  0
   -2.0914    0.1855   -0.9295 C   0  0  0  0  0  0  0  0  0  0  0  0
   -1.7021    1.3310   -1.5584 O   0  0  0  0  0  0  0  0  0  0  0  0
    1.0811    0.2939   -0.2853 C   0  0  1  0  0  0  0  0  0  0  0  0
    0.8961    0.9468   -1.4721 O   0  0  0  0  0  0  0  0  0  0  0  0
    1.3888    1.3240    0.8085 C   0  0  0  0  0  0  0  0  0  0  0  0
    2.5519    1.9736    0.3915 O   0  0  0  0  0  0  0  0  0  0  0  0
    0.1473   -0.5927    2.2784 H   0  0  0  0  0  0  0  0  0  0  0  0
    1.5683   -1.4583    1.4750 H   0  0  0  0  0  0  0  0  0  0  0  0
   -0.1103   -2.2032    1.5823 H   0  0  0  0  0  0  0  0  0  0  0  0
   -0.5107   -2.6995   -0.5248 H   0  0  0  0  0  0  0  0  0  0  0  0
   -0.2696   -1.4435   -1.8644 H   0  0  0  0  0  0  0  0  0  0  0  0
    1.1443   -2.1495   -1.0488 H   0  0  0  0  0  0  0  0  0  0  0  0
   -1.9128   -1.0645    0.7494 H   0  0  0  0  0  0  0  0  0  0  0  0
   -1.8174    1.6159    0.9615 H   0  0  0  0  0  0  0  0  0  0  0  0
   -2.1517   -0.7014   -1.6009 H   0  0  0  0  0  0  0  0  0  0  0  0
   -3.1646    0.3546   -0.6148 H   0  0  0  0  0  0  0  0  0  0  0  0
   -2.1329    2.1572   -1.2556 H   0  0  0  0  0  0  0  0  0  0  0  0
    2.0421   -0.2764   -0.3922 H   0  0  0  0  0  0  0  0  0  0  0  0
    1.7553    1.3550   -1.7429 H   0  0  0  0  0  0  0  0  0  0  0  0
    1.6083    0.8500    1.7686 H   0  0  0  0  0  0  0  0  0  0  0  0
    0.5858    2.0830    0.8686 H   0  0  0  0  0  0  0  0  0  0  0  0
    3.2444    1.3151    0.1345 H   0  0  0  0  0  0  0  0  0  0  0  0
  1  2  1  0
  2  3  1  0
  2  4  1  0
  4  5  1  0
  4  6  1  0
  6  7  1  0
  2  8  1  0
  8  9  1  0
  8 10  1  0
 10 11  1  0
  1 12  1  0
  1 13  1  0
  1 14  1  0
  3 15  1  0
  3 16  1  0
  3 17  1  0
  4 18  1  1
  5 19  1  0
  6 20  1  0
  6 21  1  0
  7 22  1  0
  8 23  1  6
  9 24  1  0
 10 25  1  0
 10 26  1  0
 11 27  1  0
M  END
$$$$

     RDKit          3D

 27 26  0  0  0  0  0  0  0  0999 V2000
    0.5696    0.8370   -1.2504 C   0  0  0  0  0  0  0  0  0  0  0  0
    0.0329    0.3806    0.0912 C   0  0  0  0  0  0  0  0  0  0  0  0
    0.4896    1.4958    1.0615 C   0  0  0  0  0  0  0  0  0  0  0  0
   -1.4365    0.4255    0.1058 C   0  0  1  0  0  0  0  0  0  0  0  0
   -1.7787    1.7844   -0.1379 O   0  0  0  0  0  0  0  0  0  0  0  0
   -2.1961   -0.4100   -0.8453 C   0  0  0  0  0  0  0  0  0  0  0  0
   -1.9399   -1.7686   -0.6831 O   0  0  0  0  0  0  0  0  0  0  0  0
    0.7141   -0.8574    0.5714 C   0  0  1  0  0  0  0  0  0  0  0  0
    0.6190   -1.9628   -0.2280 O   0  0  0  0  0  0  0  0  0  0  0  0
    2.1891   -0.6170    0.8442 C   0  0  0  0  0  0  0  0  0  0  0  0
    2.9108   -0.3958   -0.3214 O   0  0  0  0  0  0  0  0  0  0  0  0
   -0.2142    1.4796   -1.7437 H   0  0  0  0  0  0  0  0  0  0  0  0
    1.4624    1.4854   -1.1547 H   0  0  0  0  0  0  0  0  0  0  0  0
    0.7303   -0.0099   -1.9449 H   0  0  0  0  0  0  0  0  0  0  0  0
   -0.2256    2.3255    0.9586 H   0  0  0  0  0  0  0  0  0  0  0  0
    0.5054    1.0540    2.0748 H   0  0  0  0  0  0  0  0  0  0  0  0
    1.5163    1.7860    0.7546 H   0  0  0  0  0  0  0  0  0  0  0  0
   -1.8270    0.2316    1.1397 H   0  0  0  0  0  0  0  0  0  0  0  0
   -2.7090    1.8547   -0.4565 H   0  0  0  0  0  0  0  0  0  0  0  0
   -2.1309   -0.0929   -1.9030 H   0  0  0  0  0  0  0  0  0  0  0  0
   -3.2904   -0.2958   -0.5818 H   0  0  0  0  0  0  0  0  0  0  0  0
   -2.5792   -2.2104   -0.0655 H   0  0  0  0  0  0  0  0  0  0  0  0
    0.2911   -1.1625    1.5762 H   0  0  0  0  0  0  0  0  0  0  0  0
    0.5651   -2.8176    0.2467 H   0  0  0  0  0  0  0  0  0  0  0  0
    2.3837    0.1493    1.5919 H   0  0  0  0  0  0  0  0  0  0  0  0
    2.6113   -1.5744    1.2734 H   0  0  0  0  0  0  0  0  0  0  0  0
    2.7367   -1.1143   -0.9736 H   0  0  0  0  0  0  0  0  0  0  0  0
  1  2  1  0
  2  3  1  0
  2  4  1  0
  4  5  1  0
  4  6  1  0
  6  7  1  0
  2  8  1  0
  8  9  1  0
  8 10  1  0
 10 11  1  0
  1 12  1  0
  1 13  1  0
  1 14  1  0
  3 15  1  0
  3 16  1  0
  3 17  1  0
  4 18  1  1
  5 19  1  0
  6 20  1  0
  6 21  1  0
  7 22  1  0
  8 23  1  1
  9 24  1  0
 10 25  1  0
 10 26  1  0
 11 27  1  0
M  END
$$$$

     RDKit          3D

 27 26  0  0  0  0  0  0  0  0999 V2000
   -0.4130   -2.0985    0.0181 C   0  0  0  0  0  0  0  0  0  0  0  0
   -0.0440   -0.5802   -0.2507 C   0  0  0  0  0  0  0  0  0  0  0  0
    0.6666   -0.5863   -1.5797 C   0  0  0  0  0  0  0  0  0  0  0  0
    0.8629   -0.2754    0.8852 C   0  0  1  0  0  0  0  0  0  0  0  0
    1.9715   -1.2100    0.8025 O   0  0  0  0  0  0  0  0  0  0  0  0
    1.6002    1.0524    0.8043 C   0  0  0  0  0  0  0  0  0  0  0  0
    2.5289    1.0471    1.8932 O   0  0  0  0  0  0  0  0  0  0  0  0
   -1.3504    0.0801   -0.3530 C   0  0  1  0  0  0  0  0  0  0  0  0
   -2.1384    0.0067    0.7937 O   0  0  0  0  0  0  0  0  0  0  0  0
   -1.5170    1.3752   -1.0243 C   0  0  0  0  0  0  0  0  0  0  0  0
   -1.2493    2.4955   -0.2593 O   0  0  0  0  0  0  0  0  0  0  0  0
   -1.0689   -2.4539   -0.7717 H   0  0  0  0  0  0  0  0  0  0  0  0
    0.5470   -2.6166    0.0899 H   0  0  0  0  0  0  0  0  0  0  0  0
   -0.9069   -2.0604    1.0041 H   0  0  0  0  0  0  0  0  0  0  0  0
   -0.0059   -1.1042   -2.3204 H   0  0  0  0  0  0  0  0  0  0  0  0
    0.7785    0.4457   -1.9653 H   0  0  0  0  0  0  0  0  0  0  0  0
    1.6153   -1.1470   -1.5390 H   0  0  0  0  0  0  0  0  0  0  0  0
    0.4758   -0.3937    1.8872 H   0  0  0  0  0  0  0  0  0  0  0  0
    2.5901   -1.0361    1.5324 H   0  0  0  0  0  0  0  0  0  0  0  0
    2.2341    1.1020   -0.1048 H   0  0  0  0  0  0  0  0  0  0  0  0
    0.9568    1.9220    0.8967 H   0  0  0  0  0  0  0  0  0  0  0  0
    2.0022    1.3539    2.6825 H   0  0  0  0  0  0  0  0  0  0  0  0
   -1.9967   -0.6450   -1.0621 H   0  0  0  0  0  0  0  0  0  0  0  0
   -3.0973    0.0895    0.5799 H   0  0  0  0  0  0  0  0  0  0  0  0
   -1.0245    1.4334   -2.0288 H   0  0  0  0  0  0  0  0  0  0  0  0
   -2.6186    1.4757   -1.2970 H   0  0  0  0  0  0  0  0  0  0  0  0
   -1.3991    2.3278    0.6863 H   0  0  0  0  0  0  0  0  0  0  0  0
  1  2  1  0
  2  3  1  0
  2  4  1  0
  4  5  1  0
  4  6  1  0
  6  7  1  0
  2  8  1  0
  8  9  1  0
  8 10  1  0
 10 11  1  0
  1 12  1  0
  1 13  1  0
  1 14  1  0
  3 15  1  0
  3 16  1  0
  3 17  1  0
  4 18  1  1
  5 19  1  0
  6 20  1  0
  6 21  1  0
  7 22  1  0
  8 23  1  6
  9 24  1  0
 10 25  1  0
 10 26  1  0
 11 27  1  0
M  END
$$$$

     RDKit          3D

 27 26  0  0  0  0  0  0  0  0999 V2000
    0.5143   -1.1799   -1.4142 C   0  0  0  0  0  0  0  0  0  0  0  0
    0.0276   -0.4445   -0.1357 C   0  0  0  0  0  0  0  0  0  0  0  0
   -0.1128   -1.4740    0.9282 C   0  0  0  0  0  0  0  0  0  0  0  0
   -1.2992    0.1625   -0.5573 C   0  0  1  0  0  0  0  0  0  0  0  0
   -2.1461   -0.9165   -0.9517 O   0  0  0  0  0  0  0  0  0  0  0  0
   -2.0125    0.9206    0.5135 C   0  0  0  0  0  0  0  0  0  0  0  0
   -3.2524    1.3402   -0.0556 O   0  0  0  0  0  0  0  0  0  0  0  0
    0.9968    0.6322    0.2263 C   0  0  1  0  0  0  0  0  0  0  0  0
    0.5986    1.2752    1.3613 O   0  0  0  0  0  0  0  0  0  0  0  0
    2.4073    0.0866    0.3072 C   0  0  0  0  0  0  0  0  0  0  0  0
    3.2853    1.1449    0.5288 O   0  0  0  0  0  0  0  0  0  0  0  0
    0.7799   -0.4568   -2.1953 H   0  0  0  0  0  0  0  0  0  0  0  0
   -0.3632   -1.7412   -1.7668 H   0  0  0  0  0  0  0  0  0  0  0  0
    1.3126   -1.8864   -1.1654 H   0  0  0  0  0  0  0  0  0  0  0  0
    0.3151   -2.4704    0.6232 H   0  0  0  0  0  0  0  0  0  0  0  0
   -1.1438   -1.6740    1.2488 H   0  0  0  0  0  0  0  0  0  0  0  0
    0.4530   -1.2143    1.8653 H   0  0  0  0  0  0  0  0  0  0  0  0
   -1.1679    0.8221   -1.4321 H   0  0  0  0  0  0  0  0  0  0  0  0
   -2.7081   -1.2076   -0.1916 H   0  0  0  0  0  0  0  0  0  0  0  0
   -2.2887    0.3260    1.4026 H   0  0  0  0  0  0  0  0  0  0  0  0
   -1.4646    1.8655    0.7792 H   0  0  0  0  0  0  0  0  0  0  0  0
   -3.0953    2.1539   -0.6061 H   0  0  0  0  0  0  0  0  0  0  0  0
    1.0419    1.4132   -0.5908 H   0  0  0  0  0  0  0  0  0  0  0  0
    1.3278    1.5149    1.9828 H   0  0  0  0  0  0  0  0  0  0  0  0
    2.5111   -0.6883    1.0763 H   0  0  0  0  0  0  0  0  0  0  0  0
    2.6471   -0.3249   -0.6948 H   0  0  0  0  0  0  0  0  0  0  0  0
    2.8363    2.0207    0.4302 H   0  0  0  0  0  0  0  0  0  0  0  0
  1  2  1  0
  2  3  1  0
  2  4  1  0
  4  5  1  0
  4  6  1  0
  6  7  1  0
  2  8  1  0
  8  9  1  0
  8 10  1  0
 10 11  1  0
  1 12  1  0
  1 13  1  0
  1 14  1  0
  3 15  1  0
  3 16  1  0
  3 17  1  0
  4 18  1  6
  5 19  1  0
  6 20  1  0
  6 21  1  0
  7 22  1  0
  8 23  1  6
  9 24  1  0
 10 25  1  0
 10 26  1  0
 11 27  1  0
M  END
$$$$

     RDKit          3D

 27 26  0  0  0  0  0  0  0  0999 V2000
   -0.4385    1.6357   -0.8847 C   0  0  0  0  0  0  0  0  0  0  0  0
    0.0070    0.5073    0.0208 C   0  0  0  0  0  0  0  0  0  0  0  0
    0.7016    1.1745    1.2069 C   0  0  0  0  0  0  0  0  0  0  0  0
    1.0199   -0.3221   -0.6862 C   0  0  1  0  0  0  0  0  0  0  0  0
    2.1042    0.5181   -0.9999 O   0  0  0  0  0  0  0  0  0  0  0  0
    1.5893   -1.4275    0.1849 C   0  0  0  0  0  0  0  0  0  0  0  0
    2.5773   -2.1317   -0.5005 O   0  0  0  0  0  0  0  0  0  0  0  0
   -1.1807   -0.2014    0.5370 C   0  0  1  0  0  0  0  0  0  0  0  0
   -1.9569    0.7132    1.2521 O   0  0  0  0  0  0  0  0  0  0  0  0
   -2.0488   -0.8902   -0.4388 C   0  0  0  0  0  0  0  0  0  0  0  0
   -3.0624   -1.5517    0.2567 O   0  0  0  0  0  0  0  0  0  0  0  0
    0.4896    2.1385   -1.2415 H   0  0  0  0  0  0  0  0  0  0  0  0
   -1.0449    1.2562   -1.7268 H   0  0  0  0  0  0  0  0  0  0  0  0
   -0.9842    2.3734   -0.2549 H   0  0  0  0  0  0  0  0  0  0  0  0
    0.4025    0.7013    2.1665 H   0  0  0  0  0  0  0  0  0  0  0  0
    0.4205    2.2486    1.2928 H   0  0  0  0  0  0  0  0  0  0  0  0
    1.7999    1.1622    1.0576 H   0  0  0  0  0  0  0  0  0  0  0  0
    0.6980   -0.7765   -1.6213 H   0  0  0  0  0  0  0  0  0  0  0  0
    2.2183    0.6434   -1.9623 H   0  0  0  0  0  0  0  0  0  0  0  0
    0.7962   -2.1878    0.4312 H   0  0  0  0  0  0  0  0  0  0  0  0
    1.9926   -1.0767    1.1320 H   0  0  0  0  0  0  0  0  0  0  0  0
    3.0093   -1.4881   -1.1368 H   0  0  0  0  0  0  0  0  0  0  0  0
   -0.8366   -0.9573    1.2928 H   0  0  0  0  0  0  0  0  0  0  0  0
   -1.4214    1.4373    1.6246 H   0  0  0  0  0  0  0  0  0  0  0  0
   -1.5731   -1.6308   -1.0819 H   0  0  0  0  0  0  0  0  0  0  0  0
   -2.5145   -0.1287   -1.1048 H   0  0  0  0  0  0  0  0  0  0  0  0
   -2.7644   -1.7391    1.1847 H   0  0  0  0  0  0  0  0  0  0  0  0
  1  2  1  0
  2  3  1  0
  2  4  1  0
  4  5  1  0
  4  6  1  0
  6  7  1  0
  2  8  1  0
  8  9  1  0
  8 10  1  0
 10 11  1  0
  1 12  1  0
  1 13  1  0
  1 14  1  0
  3 15  1  0
  3 16  1  0
  3 17  1  0
  4 18  1  6
  5 19  1  0
  6 20  1  0
  6 21  1  0
  7 22  1  0
  8 23  1  1
  9 24  1  0
 10 25  1  0
 10 26  1  0
 11 27  1  0
M  END
$$$$

     RDKit          3D

 27 26  0  0  0  0  0  0  0  0999 V2000
   -0.1508   -1.5995   -0.4028 C   0  0  0  0  0  0  0  0  0  0  0  0
   -0.0846   -0.1725    0.0786 C   0  0  0  0  0  0  0  0  0  0  0  0
   -0.1151   -0.0409    1.5819 C   0  0  0  0  0  0  0  0  0  0  0  0
    1.2317    0.3928   -0.4338 C   0  0  1  0  0  0  0  0  0  0  0  0
    1.3436    1.7059   -0.0117 O   0  0  0  0  0  0  0  0  0  0  0  0
    2.3752   -0.4698   -0.0205 C   0  0  0  0  0  0  0  0  0  0  0  0
    3.5855   -0.0003   -0.5359 O   0  0  0  0  0  0  0  0  0  0  0  0
   -1.2573    0.6318   -0.4450 C   0  0  1  0  0  0  0  0  0  0  0  0
   -1.3307    0.6908   -1.8092 O   0  0  0  0  0  0  0  0  0  0  0  0
   -2.5356    0.1214    0.1726 C   0  0  0  0  0  0  0  0  0  0  0  0
   -3.6082    0.9791   -0.1693 O   0  0  0  0  0  0  0  0  0  0  0  0
    0.2991   -1.6227   -1.4281 H   0  0  0  0  0  0  0  0  0  0  0  0
    0.4838   -2.2534    0.2363 H   0  0  0  0  0  0  0  0  0  0  0  0
   -1.1518   -2.0199   -0.4725 H   0  0  0  0  0  0  0  0  0  0  0  0
   -0.8385   -0.7437    2.0451 H   0  0  0  0  0  0  0  0  0  0  0  0
   -0.5059    0.9943    1.8030 H   0  0  0  0  0  0  0  0  0  0  0  0
    0.8565   -0.1013    2.0759 H   0  0  0  0  0  0  0  0  0  0  0  0
    1.2352    0.3924   -1.5626 H   0  0  0  0  0  0  0  0  0  0  0  0
    2.0269    1.8373    0.6821 H   0  0  0  0  0  0  0  0  0  0  0  0
    2.5148   -0.6195    1.0466 H   0  0  0  0  0  0  0  0  0  0  0  0
    2.2339   -1.4839   -0.4729 H   0  0  0  0  0  0  0  0  0  0  0  0
    4.0473    0.5623    0.1620 H   0  0  0  0  0  0  0  0  0  0  0  0
   -1.1433    1.6911   -0.0781 H   0  0  0  0  0  0  0  0  0  0  0  0
   -0.7501    0.0681   -2.2949 H   0  0  0  0  0  0  0  0  0  0  0  0
   -2.5047    0.1279    1.2693 H   0  0  0  0  0  0  0  0  0  0  0  0
   -2.8180   -0.8809   -0.2285 H   0  0  0  0  0  0  0  0  0  0  0  0
   -3.4388    1.8130    0.3455 H   0  0  0  0  0  0  0  0  0  0  0  0
  1  2  1  0
  2  3  1  0
  2  4  1  0
  4  5  1  0
  4  6  1  0
  6  7  1  0
  2  8  1  0
  8  9  1  0
  8 10  1  0
 10 11  1  0
  1 12  1  0
  1 13  1  0
  1 14  1  0
  3 15  1  0
  3 16  1  0
  3 17  1  0
  4 18  1  6
  5 19  1  0
  6 20  1  0
  6 21  1  0
  7 22  1  0
  8 23  1  1
  9 24  1  0
 10 25  1  0
 10 26  1  0
 11 27  1  0
M  END
$$$$
