
     RDKit          3D

 21 21  0  0  0  0  0  0  0  0999 V2000
    2.6269   -0.8516    0.2804 C   0  0  0  0  0  0  0  0  0  0  0  0
    1.6138   -0.4156   -0.5698 O   0  0  0  0  0  0  0  0  0  0  0  0
    0.3619   -0.4977    0.0149 C   0  0  2  0  0  0  0  0  0  0  0  0
   -0.4596   -1.4937   -0.7112 C   0  0  0  0  0  0  0  0  0  0  0  0
    0.0871   -2.5209   -1.2122 O   0  0  0  0  0  0  0  0  0  0  0  0
   -1.8489   -1.2687   -0.8270 N   0  0  0  0  0  0  0  0  0  0  0  0
   -2.4318    0.0329   -0.7830 C   0  0  0  0  0  0  0  0  0  0  0  0
   -1.5936    1.0404   -0.1289 C   0  0  0  0  0  0  0  0  0  0  0  0
   -2.1378    2.1109    0.2698 O   0  0  0  0  0  0  0  0  0  0  0  0
   -0.2161    0.8111    0.0462 N   0  0  0  0  0  0  0  0  0  0  0  0
    0.6532    1.9660    0.2689 C   0  0  0  0  0  0  0  0  0  0  0  0
    2.4439   -1.9298    0.5628 H   0  0  0  0  0  0  0  0  0  0  0  0
    3.5996   -0.8644   -0.2516 H   0  0  0  0  0  0  0  0  0  0  0  0
    2.6975   -0.2539    1.2114 H   0  0  0  0  0  0  0  0  0  0  0  0
    0.5150   -0.9045    1.0417 H   0  0  0  0  0  0  0  0  0  0  0  0
   -2.4864   -2.0937   -0.9514 H   0  0  0  0  0  0  0  0  0  0  0  0
   -3.4306   -0.0095   -0.2697 H   0  0  0  0  0  0  0  0  0  0  0  0
   -2.6723    0.3271   -1.8361 H   0  0  0  0  0  0  0  0  0  0  0  0
    1.4021    1.7605    1.0557 H   0  0  0  0  0  0  0  0  0  0  0  0
    0.0504    2.8547    0.5419 H   0  0  0  0  0  0  0  0  0  0  0  0
    1.2258    2.2005   -0.6593 H   0  0  0  0  0  0  0  0  0  0  0  0
  1  2  1  0
  2  3  1  0
  3  4  1  0
  4  5  2  0
  4  6  1  0
  6  7  1  0
  7  8  1  0
  8  9  2  0
  8 10  1  0
 10 11  1  0
 10  3  1  0
  1 12  1  0
  1 13  1  0
  1 14  1  0
  3 15  1  1
  6 16  1  0
  7 17  1  0
  7 18  1  0
 11 19  1  0
 11 20  1  0
 11 21  1  0
M  END
$$$$

     RDKit          3D

 21 21  0  0  0  0  0  0  0  0999 V2000
    2.6690    0.8496    0.2908 C   0  0  0  0  0  0  0  0  0  0  0  0
    1.5984    0.7908   -0.5993 O   0  0  0  0  0  0  0  0  0  0  0  0
    0.6380   -0.0259   -0.0779 C   0  0  2  0  0  0  0  0  0  0  0  0
    0.3872   -1.1796   -1.0159 C   0  0  0  0  0  0  0  0  0  0  0  0
    1.0743   -1.3308   -2.0606 O   0  0  0  0  0  0  0  0  0  0  0  0
   -0.6605   -2.0608   -0.6359 N   0  0  0  0  0  0  0  0  0  0  0  0
   -1.7153   -1.6921    0.2903 C   0  0  0  0  0  0  0  0  0  0  0  0
   -1.7154   -0.2397    0.5403 C   0  0  0  0  0  0  0  0  0  0  0  0
   -2.7095    0.2447    1.1576 O   0  0  0  0  0  0  0  0  0  0  0  0
   -0.6435    0.6144    0.1116 N   0  0  0  0  0  0  0  0  0  0  0  0
   -0.8990    2.0057   -0.0964 C   0  0  0  0  0  0  0  0  0  0  0  0
    3.4865    1.4990   -0.0740 H   0  0  0  0  0  0  0  0  0  0  0  0
    2.3214    1.1748    1.3025 H   0  0  0  0  0  0  0  0  0  0  0  0
    3.0837   -0.1715    0.4233 H   0  0  0  0  0  0  0  0  0  0  0  0
    0.9483   -0.4250    0.8991 H   0  0  0  0  0  0  0  0  0  0  0  0
   -0.6578   -3.0205   -1.0536 H   0  0  0  0  0  0  0  0  0  0  0  0
   -2.6787   -1.9451   -0.2255 H   0  0  0  0  0  0  0  0  0  0  0  0
   -1.6174   -2.3049    1.2012 H   0  0  0  0  0  0  0  0  0  0  0  0
   -0.9702    2.2941   -1.1570 H   0  0  0  0  0  0  0  0  0  0  0  0
   -1.8394    2.2965    0.4232 H   0  0  0  0  0  0  0  0  0  0  0  0
   -0.0999    2.6262    0.3564 H   0  0  0  0  0  0  0  0  0  0  0  0
  1  2  1  0
  2  3  1  0
  3  4  1  0
  4  5  2  0
  4  6  1  0
  6  7  1  0
  7  8  1  0
  8  9  2  0
  8 10  1  0
 10 11  1  0
 10  3  1  0
  1 12  1  0
  1 13  1  0
  1 14  1  0
  3 15  1  1
  6 16  1  0
  7 17  1  0
  7 18  1  0
 11 19  1  0
 11 20  1  0
 11 21  1  0
M  END
$$$$

     RDKit          3D

 21 21  0  0  0  0  0  0  0  0999 V2000
    2.8072   -0.2447    0.2012 C   0  0  0  0  0  0  0  0  0  0  0  0
    1.7162   -0.0087   -0.6430 O   0  0  0  0  0  0  0  0  0  0  0  0
    0.5262   -0.3839   -0.0696 C   0  0  2  0  0  0  0  0  0  0  0  0
   -0.2409   -1.3619   -0.8952 C   0  0  0  0  0  0  0  0  0  0  0  0
    0.3293   -1.9759   -1.8173 O   0  0  0  0  0  0  0  0  0  0  0  0
   -1.6143   -1.5640   -0.5997 N   0  0  0  0  0  0  0  0  0  0  0  0
   -2.2164   -0.8147    0.4989 C   0  0  0  0  0  0  0  0  0  0  0  0
   -1.6637    0.5646    0.5456 C   0  0  0  0  0  0  0  0  0  0  0  0
   -2.3582    1.5116    0.9974 O   0  0  0  0  0  0  0  0  0  0  0  0
   -0.3558    0.7833    0.0759 N   0  0  0  0  0  0  0  0  0  0  0  0
    0.0734    2.1157   -0.2425 C   0  0  0  0  0  0  0  0  0  0  0  0
    2.8544   -1.3297    0.4303 H   0  0  0  0  0  0  0  0  0  0  0  0
    3.7361    0.0139   -0.3455 H   0  0  0  0  0  0  0  0  0  0  0  0
    2.7726    0.3501    1.1231 H   0  0  0  0  0  0  0  0  0  0  0  0
    0.6362   -0.8037    0.9508 H   0  0  0  0  0  0  0  0  0  0  0  0
   -2.1644   -2.2404   -1.1699 H   0  0  0  0  0  0  0  0  0  0  0  0
   -3.3115   -0.8171    0.4125 H   0  0  0  0  0  0  0  0  0  0  0  0
   -1.9660   -1.2953    1.4723 H   0  0  0  0  0  0  0  0  0  0  0  0
    1.1384    2.1964   -0.4931 H   0  0  0  0  0  0  0  0  0  0  0  0
   -0.5539    2.5463   -1.0726 H   0  0  0  0  0  0  0  0  0  0  0  0
   -0.1450    2.7580    0.6404 H   0  0  0  0  0  0  0  0  0  0  0  0
  1  2  1  0
  2  3  1  0
  3  4  1  0
  4  5  2  0
  4  6  1  0
  6  7  1  0
  7  8  1  0
  8  9  2  0
  8 10  1  0
 10 11  1  0
 10  3  1  0
  1 12  1  0
  1 13  1  0
  1 14  1  0
  3 15  1  1
  6 16  1  0
  7 17  1  0
  7 18  1  0
 11 19  1  0
 11 20  1  0
 11 21  1  0
M  END
$$$$

     RDKit          3D

 21 21  0  0  0  0  0  0  0  0999 V2000
   -2.7620   -0.1433   -0.4864 C   0  0  0  0  0  0  0  0  0  0  0  0
   -1.7319    0.1181    0.4027 O   0  0  0  0  0  0  0  0  0  0  0  0
   -0.5087   -0.3519   -0.0014 C   0  0  2  0  0  0  0  0  0  0  0  0
    0.1085   -1.3050    0.9603 C   0  0  0  0  0  0  0  0  0  0  0  0
   -0.5501   -1.9454    1.8182 O   0  0  0  0  0  0  0  0  0  0  0  0
    1.5150   -1.5037    0.9088 N   0  0  0  0  0  0  0  0  0  0  0  0
    2.2702   -0.9347   -0.1998 C   0  0  0  0  0  0  0  0  0  0  0  0
    1.7854    0.4648   -0.3623 C   0  0  0  0  0  0  0  0  0  0  0  0
    2.5825    1.3646   -0.7264 O   0  0  0  0  0  0  0  0  0  0  0  0
    0.4225    0.7710   -0.1036 N   0  0  0  0  0  0  0  0  0  0  0  0
   -0.0379    2.1373    0.0544 C   0  0  0  0  0  0  0  0  0  0  0  0
   -2.6244    0.2883   -1.4784 H   0  0  0  0  0  0  0  0  0  0  0  0
   -2.9760   -1.2475   -0.5049 H   0  0  0  0  0  0  0  0  0  0  0  0
   -3.6837    0.3158   -0.0396 H   0  0  0  0  0  0  0  0  0  0  0  0
   -0.5352   -0.8706   -0.9820 H   0  0  0  0  0  0  0  0  0  0  0  0
    2.0556   -2.0380    1.6217 H   0  0  0  0  0  0  0  0  0  0  0  0
    3.3511   -0.9883   -0.0292 H   0  0  0  0  0  0  0  0  0  0  0  0
    1.9487   -1.4816   -1.1104 H   0  0  0  0  0  0  0  0  0  0  0  0
   -0.9442    2.0774    0.7209 H   0  0  0  0  0  0  0  0  0  0  0  0
    0.7319    2.8062    0.4740 H   0  0  0  0  0  0  0  0  0  0  0  0
   -0.4172    2.4666   -0.9368 H   0  0  0  0  0  0  0  0  0  0  0  0
  1  2  1  0
  2  3  1  0
  3  4  1  0
  4  5  2  0
  4  6  1  0
  6  7  1  0
  7  8  1  0
  8  9  2  0
  8 10  1  0
 10 11  1  0
 10  3  1  0
  1 12  1  0
  1 13  1  0
  1 14  1  0
  3 15  1  6
  6 16  1  0
  7 17  1  0
  7 18  1  0
 11 19  1  0
 11 20  1  0
 11 21  1  0
M  END
$$$$

     RDKit          3D

 21 21  0  0  0  0  0  0  0  0999 V2000
    2.4999    0.9555   -0.1449 C   0  0  0  0  0  0  0  0  0  0  0  0
    1.4677    0.0779   -0.4059 O   0  0  0  0  0  0  0  0  0  0  0  0
    0.5081    0.0326    0.5885 C   0  0  2  0  0  0  0  0  0  0  0  0
    0.1957   -1.3452    1.0340 C   0  0  0  0  0  0  0  0  0  0  0  0
    0.7334   -1.7985    2.0733 O   0  0  0  0  0  0  0  0  0  0  0  0
   -0.6964   -2.2079    0.3423 N   0  0  0  0  0  0  0  0  0  0  0  0
   -1.0762   -1.7655   -1.0091 C   0  0  0  0  0  0  0  0  0  0  0  0
   -1.4543   -0.3177   -0.8548 C   0  0  0  0  0  0  0  0  0  0  0  0
   -2.4515    0.1143   -1.4880 O   0  0  0  0  0  0  0  0  0  0  0  0
   -0.7207    0.5646   -0.0205 N   0  0  0  0  0  0  0  0  0  0  0  0
   -1.1677    1.9064    0.2085 C   0  0  0  0  0  0  0  0  0  0  0  0
    2.1556    2.0046   -0.0219 H   0  0  0  0  0  0  0  0  0  0  0  0
    3.1605    0.9575   -1.0390 H   0  0  0  0  0  0  0  0  0  0  0  0
    3.1432    0.6412    0.7090 H   0  0  0  0  0  0  0  0  0  0  0  0
    0.7321    0.7144    1.4341 H   0  0  0  0  0  0  0  0  0  0  0  0
   -1.0682   -3.0981    0.7465 H   0  0  0  0  0  0  0  0  0  0  0  0
   -0.1633   -1.7869   -1.6250 H   0  0  0  0  0  0  0  0  0  0  0  0
   -1.9101   -2.3550   -1.3874 H   0  0  0  0  0  0  0  0  0  0  0  0
   -1.1216    2.5183   -0.7107 H   0  0  0  0  0  0  0  0  0  0  0  0
   -0.5434    2.3320    1.0235 H   0  0  0  0  0  0  0  0  0  0  0  0
   -2.2227    1.8557    0.5476 H   0  0  0  0  0  0  0  0  0  0  0  0
  1  2  1  0
  2  3  1  0
  3  4  1  0
  4  5  2  0
  4  6  1  0
  6  7  1  0
  7  8  1  0
  8  9  2  0
  8 10  1  0
 10 11  1  0
 10  3  1  0
  1 12  1  0
  1 13  1  0
  1 14  1  0
  3 15  1  1
  6 16  1  0
  7 17  1  0
  7 18  1  0
 11 19  1  0
 11 20  1  0
 11 21  1  0
M  END
$$$$

     RDKit          3D

 21 21  0  0  0  0  0  0  0  0999 V2000
    2.7825    0.1630   -0.1397 C   0  0  0  0  0  0  0  0  0  0  0  0
    1.6326    0.0951   -0.9241 O   0  0  0  0  0  0  0  0  0  0  0  0
    0.5774   -0.2586   -0.1331 C   0  0  2  0  0  0  0  0  0  0  0  0
   -0.0765   -1.5307   -0.5718 C   0  0  0  0  0  0  0  0  0  0  0  0
    0.4660   -2.2584   -1.4155 O   0  0  0  0  0  0  0  0  0  0  0  0
   -1.3346   -1.8307    0.0385 N   0  0  0  0  0  0  0  0  0  0  0  0
   -1.8319   -1.0060    1.1496 C   0  0  0  0  0  0  0  0  0  0  0  0
   -1.6029    0.4164    0.7089 C   0  0  0  0  0  0  0  0  0  0  0  0
   -2.4034    1.3354    1.0599 O   0  0  0  0  0  0  0  0  0  0  0  0
   -0.4829    0.7427   -0.1078 N   0  0  0  0  0  0  0  0  0  0  0  0
   -0.4413    1.9770   -0.8356 C   0  0  0  0  0  0  0  0  0  0  0  0
    2.6776    0.9222    0.6819 H   0  0  0  0  0  0  0  0  0  0  0  0
    3.6820    0.4343   -0.6955 H   0  0  0  0  0  0  0  0  0  0  0  0
    2.9685   -0.8100    0.3588 H   0  0  0  0  0  0  0  0  0  0  0  0
    0.8903   -0.4004    0.9111 H   0  0  0  0  0  0  0  0  0  0  0  0
   -1.8993   -2.6368   -0.3069 H   0  0  0  0  0  0  0  0  0  0  0  0
   -2.9115   -1.1299    1.2452 H   0  0  0  0  0  0  0  0  0  0  0  0
   -1.2636   -1.2089    2.0810 H   0  0  0  0  0  0  0  0  0  0  0  0
   -0.8537    1.8557   -1.8630 H   0  0  0  0  0  0  0  0  0  0  0  0
    0.5410    2.4328   -0.9216 H   0  0  0  0  0  0  0  0  0  0  0  0
   -1.1162    2.6957   -0.3204 H   0  0  0  0  0  0  0  0  0  0  0  0
  1  2  1  0
  2  3  1  0
  3  4  1  0
  4  5  2  0
  4  6  1  0
  6  7  1  0
  7  8  1  0
  8  9  2  0
  8 10  1  0
 10 11  1  0
 10  3  1  0
  1 12  1  0
  1 13  1  0
  1 14  1  0
  3 15  1  1
  6 16  1  0
  7 17  1  0
  7 18  1  0
 11 19  1  0
 11 20  1  0
 11 21  1  0
M  END
$$$$

     RDKit          3D

 21 21  0  0  0  0  0  0  0  0999 V2000
    2.8152   -0.1489    0.0578 C   0  0  0  0  0  0  0  0  0  0  0  0
    1.6626   -0.0029   -0.7000 O   0  0  0  0  0  0  0  0  0  0  0  0
    0.5165   -0.3675   -0.0464 C   0  0  2  0  0  0  0  0  0  0  0  0
   -0.2234   -1.4648   -0.7297 C   0  0  0  0  0  0  0  0  0  0  0  0
    0.2539   -2.1431   -1.6639 O   0  0  0  0  0  0  0  0  0  0  0  0
   -1.5474   -1.7641   -0.3018 N   0  0  0  0  0  0  0  0  0  0  0  0
   -2.2864   -0.7853    0.4799 C   0  0  0  0  0  0  0  0  0  0  0  0
   -1.8139    0.5575    0.0201 C   0  0  0  0  0  0  0  0  0  0  0  0
   -2.5987    1.4677   -0.3436 O   0  0  0  0  0  0  0  0  0  0  0  0
   -0.4057    0.7699    0.0104 N   0  0  0  0  0  0  0  0  0  0  0  0
    0.1185    2.1124    0.0567 C   0  0  0  0  0  0  0  0  0  0  0  0
    3.6749    0.1729   -0.5659 H   0  0  0  0  0  0  0  0  0  0  0  0
    2.8222    0.4571    0.9681 H   0  0  0  0  0  0  0  0  0  0  0  0
    2.9848   -1.2294    0.2787 H   0  0  0  0  0  0  0  0  0  0  0  0
    0.7105   -0.7213    0.9897 H   0  0  0  0  0  0  0  0  0  0  0  0
   -1.9962   -2.6910   -0.5477 H   0  0  0  0  0  0  0  0  0  0  0  0
   -3.3806   -0.8352    0.2779 H   0  0  0  0  0  0  0  0  0  0  0  0
   -2.0603   -0.8688    1.5656 H   0  0  0  0  0  0  0  0  0  0  0  0
   -0.6761    2.8433   -0.1380 H   0  0  0  0  0  0  0  0  0  0  0  0
    0.5307    2.3523    1.0695 H   0  0  0  0  0  0  0  0  0  0  0  0
    0.8989    2.2891   -0.7375 H   0  0  0  0  0  0  0  0  0  0  0  0
  1  2  1  0
  2  3  1  0
  3  4  1  0
  4  5  2  0
  4  6  1  0
  6  7  1  0
  7  8  1  0
  8  9  2  0
  8 10  1  0
 10 11  1  0
 10  3  1  0
  1 12  1  0
  1 13  1  0
  1 14  1  0
  3 15  1  1
  6 16  1  0
  7 17  1  0
  7 18  1  0
 11 19  1  0
 11 20  1  0
 11 21  1  0
M  END
$$$$

     RDKit          3D

 21 21  0  0  0  0  0  0  0  0999 V2000
    1.6579   -1.9477    0.7580 C   0  0  0  0  0  0  0  0  0  0  0  0
    1.2049   -0.6342    0.6492 O   0  0  0  0  0  0  0  0  0  0  0  0
    0.3453   -0.4769   -0.4235 C   0  0  2  0  0  0  0  0  0  0  0  0
    0.8853    0.5641   -1.3547 C   0  0  0  0  0  0  0  0  0  0  0  0
    1.3736    0.2849   -2.4720 O   0  0  0  0  0  0  0  0  0  0  0  0
    0.8203    1.9167   -0.9091 N   0  0  0  0  0  0  0  0  0  0  0  0
   -0.1550    2.3368    0.0779 C   0  0  0  0  0  0  0  0  0  0  0  0
   -1.1901    1.3212    0.2891 C   0  0  0  0  0  0  0  0  0  0  0  0
   -2.3408    1.6771    0.6443 O   0  0  0  0  0  0  0  0  0  0  0  0
   -0.9388   -0.0577    0.1061 N   0  0  0  0  0  0  0  0  0  0  0  0
   -1.9044   -1.0907    0.4218 C   0  0  0  0  0  0  0  0  0  0  0  0
    0.8011   -2.6290    0.9011 H   0  0  0  0  0  0  0  0  0  0  0  0
    2.3037   -2.0274    1.6519 H   0  0  0  0  0  0  0  0  0  0  0  0
    2.2232   -2.2197   -0.1478 H   0  0  0  0  0  0  0  0  0  0  0  0
    0.2232   -1.4489   -0.9449 H   0  0  0  0  0  0  0  0  0  0  0  0
    1.4908    2.6079   -1.3066 H   0  0  0  0  0  0  0  0  0  0  0  0
   -0.6572    3.2468   -0.3556 H   0  0  0  0  0  0  0  0  0  0  0  0
    0.2989    2.6671    1.0225 H   0  0  0  0  0  0  0  0  0  0  0  0
   -2.8904   -0.6370    0.6468 H   0  0  0  0  0  0  0  0  0  0  0  0
   -1.5138   -1.7166    1.2305 H   0  0  0  0  0  0  0  0  0  0  0  0
   -2.0379   -1.7369   -0.4849 H   0  0  0  0  0  0  0  0  0  0  0  0
  1  2  1  0
  2  3  1  0
  3  4  1  0
  4  5  2  0
  4  6  1  0
  6  7  1  0
  7  8  1  0
  8  9  2  0
  8 10  1  0
 10 11  1  0
 10  3  1  0
  1 12  1  0
  1 13  1  0
  1 14  1  0
  3 15  1  6
  6 16  1  0
  7 17  1  0
  7 18  1  0
 11 19  1  0
 11 20  1  0
 11 21  1  0
M  END
$$$$
