
     RDKit          3D

 23 24  0  0  0  0  0  0  0  0999 V2000
    3.5160    0.1589   -0.0308 N   0  0  0  0  0  0  0  0  0  0  0  0
    2.1180   -0.1454    0.0093 C   0  0  0  0  0  0  0  0  0  0  0  0
    1.2740    0.7040    0.4655 N   0  0  0  0  0  0  0  0  0  0  0  0
   -0.1020    0.4877    0.5427 C   0  0  1  0  0  0  0  0  0  0  0  0
   -0.5409   -0.0558    1.7558 O   0  0  0  0  0  0  0  0  0  0  0  0
   -1.0151    1.6139    0.1287 C   0  0  0  0  0  0  0  0  0  0  0  0
   -2.3278    0.8718   -0.1608 C   0  0  0  0  0  0  0  0  0  0  0  0
   -1.9568   -0.6199   -0.2066 C   0  0  0  0  0  0  0  0  0  0  0  0
   -0.5184   -0.5081   -0.5514 C   0  0  2  0  0  0  0  0  0  0  0  0
    0.3224   -1.6731   -0.4785 C   0  0  0  0  0  0  0  0  0  0  0  0
   -0.1027   -2.8260   -0.3899 O   0  0  0  0  0  0  0  0  0  0  0  0
    1.7235   -1.4376   -0.5142 N   0  0  0  0  0  0  0  0  0  0  0  0
    3.8582    0.7934   -0.7697 H   0  0  0  0  0  0  0  0  0  0  0  0
    4.1649   -0.2486    0.6651 H   0  0  0  0  0  0  0  0  0  0  0  0
   -0.2471    0.5167    2.5141 H   0  0  0  0  0  0  0  0  0  0  0  0
   -0.6212    1.9961   -0.8461 H   0  0  0  0  0  0  0  0  0  0  0  0
   -1.1489    2.3865    0.8857 H   0  0  0  0  0  0  0  0  0  0  0  0
   -3.0791    1.0731    0.6211 H   0  0  0  0  0  0  0  0  0  0  0  0
   -2.6788    1.1203   -1.1837 H   0  0  0  0  0  0  0  0  0  0  0  0
   -2.5797   -1.1752   -0.9006 H   0  0  0  0  0  0  0  0  0  0  0  0
   -2.0489   -0.9633    0.8549 H   0  0  0  0  0  0  0  0  0  0  0  0
   -0.4384    0.0442   -1.5348 H   0  0  0  0  0  0  0  0  0  0  0  0
    2.4289   -2.1137   -0.8759 H   0  0  0  0  0  0  0  0  0  0  0  0
  1  2  1  0
  2  3  2  0
  3  4  1  0
  4  5  1  1
  4  6  1  0
  6  7  1  0
  7  8  1  0
  8  9  1  0
  9 10  1  0
 10 11  2  0
 10 12  1  0
 12  2  1  0
  9  4  1  0
  1 13  1  0
  1 14  1  0
  5 15  1  0
  6 16  1  0
  6 17  1  0
  7 18  1  0
  7 19  1  0
  8 20  1  0
  8 21  1  0
  9 22  1  6
 12 23  1  0
M  END
$$$$

     RDKit          3D

 23 24  0  0  0  0  0  0  0  0999 V2000
    3.2631   -1.1607   -0.1888 N   0  0  0  0  0  0  0  0  0  0  0  0
    2.0241   -0.4811   -0.0856 C   0  0  0  0  0  0  0  0  0  0  0  0
    1.0362   -0.7890   -0.8481 N   0  0  0  0  0  0  0  0  0  0  0  0
   -0.1933   -0.1155   -0.7522 C   0  0  1  0  0  0  0  0  0  0  0  0
   -0.1483    1.0200   -1.5659 O   0  0  0  0  0  0  0  0  0  0  0  0
   -1.4471   -0.8972   -1.0216 C   0  0  0  0  0  0  0  0  0  0  0  0
   -2.4838   -0.4258   -0.0141 C   0  0  0  0  0  0  0  0  0  0  0  0
   -1.7945    0.8031    0.6074 C   0  0  0  0  0  0  0  0  0  0  0  0
   -0.4183    0.2669    0.7037 C   0  0  2  0  0  0  0  0  0  0  0  0
    0.6641    1.1824    1.0564 C   0  0  0  0  0  0  0  0  0  0  0  0
    0.6075    2.3573    1.4130 O   0  0  0  0  0  0  0  0  0  0  0  0
    1.9551    0.5314    0.9431 N   0  0  0  0  0  0  0  0  0  0  0  0
    4.1311   -0.6127   -0.2517 H   0  0  0  0  0  0  0  0  0  0  0  0
    3.2865   -2.1944   -0.2000 H   0  0  0  0  0  0  0  0  0  0  0  0
    0.4674    1.7111   -1.2251 H   0  0  0  0  0  0  0  0  0  0  0  0
   -1.8376   -0.5914   -2.0357 H   0  0  0  0  0  0  0  0  0  0  0  0
   -1.3186   -1.9776   -1.0396 H   0  0  0  0  0  0  0  0  0  0  0  0
   -2.5688   -1.2357    0.7400 H   0  0  0  0  0  0  0  0  0  0  0  0
   -3.4308   -0.1438   -0.4631 H   0  0  0  0  0  0  0  0  0  0  0  0
   -2.2631    1.0709    1.5672 H   0  0  0  0  0  0  0  0  0  0  0  0
   -1.8779    1.5963   -0.1602 H   0  0  0  0  0  0  0  0  0  0  0  0
   -0.4194   -0.6905    1.2732 H   0  0  0  0  0  0  0  0  0  0  0  0
    2.7664    0.7761    1.5478 H   0  0  0  0  0  0  0  0  0  0  0  0
  1  2  1  0
  2  3  2  0
  3  4  1  0
  4  5  1  6
  4  6  1  0
  6  7  1  0
  7  8  1  0
  8  9  1  0
  9 10  1  0
 10 11  2  0
 10 12  1  0
 12  2  1  0
  9  4  1  0
  1 13  1  0
  1 14  1  0
  5 15  1  0
  6 16  1  0
  6 17  1  0
  7 18  1  0
  7 19  1  0
  8 20  1  0
  8 21  1  0
  9 22  1  1
 12 23  1  0
M  END
$$$$

     RDKit          3D

 23 24  0  0  0  0  0  0  0  0999 V2000
    3.4038   -0.8716    0.2874 N   0  0  0  0  0  0  0  0  0  0  0  0
    2.0952   -0.2894    0.1551 C   0  0  0  0  0  0  0  0  0  0  0  0
    1.1061   -1.0459   -0.1584 N   0  0  0  0  0  0  0  0  0  0  0  0
   -0.1865   -0.5293   -0.3038 C   0  0  1  0  0  0  0  0  0  0  0  0
   -0.4908   -0.1170   -1.6079 O   0  0  0  0  0  0  0  0  0  0  0  0
   -1.3449   -1.3794    0.1548 C   0  0  0  0  0  0  0  0  0  0  0  0
   -2.4608   -0.3239    0.0847 C   0  0  0  0  0  0  0  0  0  0  0  0
   -1.8092    0.9978    0.5090 C   0  0  0  0  0  0  0  0  0  0  0  0
   -0.3759    0.6292    0.6710 C   0  0  2  0  0  0  0  0  0  0  0  0
    0.6292    1.6267    0.3208 C   0  0  0  0  0  0  0  0  0  0  0  0
    0.4664    2.7983   -0.0376 O   0  0  0  0  0  0  0  0  0  0  0  0
    1.9785    1.1193    0.4260 N   0  0  0  0  0  0  0  0  0  0  0  0
    3.5467   -1.7235    0.8351 H   0  0  0  0  0  0  0  0  0  0  0  0
    4.1774   -0.3775   -0.2013 H   0  0  0  0  0  0  0  0  0  0  0  0
   -0.2054   -0.8791   -2.1935 H   0  0  0  0  0  0  0  0  0  0  0  0
   -1.5781   -2.2122   -0.5071 H   0  0  0  0  0  0  0  0  0  0  0  0
   -1.2618   -1.6516    1.2158 H   0  0  0  0  0  0  0  0  0  0  0  0
   -3.3122   -0.5870    0.7096 H   0  0  0  0  0  0  0  0  0  0  0  0
   -2.7467   -0.1769   -0.9849 H   0  0  0  0  0  0  0  0  0  0  0  0
   -2.0195    1.8099   -0.1788 H   0  0  0  0  0  0  0  0  0  0  0  0
   -2.2308    1.2246    1.5222 H   0  0  0  0  0  0  0  0  0  0  0  0
   -0.1701    0.2316    1.6824 H   0  0  0  0  0  0  0  0  0  0  0  0
    2.7897    1.7271    0.6686 H   0  0  0  0  0  0  0  0  0  0  0  0
  1  2  1  0
  2  3  2  0
  3  4  1  0
  4  5  1  6
  4  6  1  0
  6  7  1  0
  7  8  1  0
  8  9  1  0
  9 10  1  0
 10 11  2  0
 10 12  1  0
 12  2  1  0
  9  4  1  0
  1 13  1  0
  1 14  1  0
  5 15  1  0
  6 16  1  0
  6 17  1  0
  7 18  1  0
  7 19  1  0
  8 20  1  0
  8 21  1  0
  9 22  1  1
 12 23  1  0
M  END
$$$$

     RDKit          3D

 23 24  0  0  0  0  0  0  0  0999 V2000
    3.4908    0.5898   -0.1499 N   0  0  0  0  0  0  0  0  0  0  0  0
    2.1342    0.1690    0.0347 C   0  0  0  0  0  0  0  0  0  0  0  0
    1.1648    1.0035    0.0702 N   0  0  0  0  0  0  0  0  0  0  0  0
   -0.1679    0.6273    0.2524 C   0  0  1  0  0  0  0  0  0  0  0  0
   -0.6082    0.7020    1.5803 O   0  0  0  0  0  0  0  0  0  0  0  0
   -1.2106    1.3415   -0.5767 C   0  0  0  0  0  0  0  0  0  0  0  0
   -2.4141    0.4117   -0.3512 C   0  0  0  0  0  0  0  0  0  0  0  0
   -1.8263   -0.9394    0.0837 C   0  0  0  0  0  0  0  0  0  0  0  0
   -0.4046   -0.7750   -0.3051 C   0  0  2  0  0  0  0  0  0  0  0  0
    0.5786   -1.6644    0.2759 C   0  0  0  0  0  0  0  0  0  0  0  0
    0.2960   -2.7059    0.8589 O   0  0  0  0  0  0  0  0  0  0  0  0
    1.9395   -1.2660    0.1374 N   0  0  0  0  0  0  0  0  0  0  0  0
    4.0202    0.9285    0.6730 H   0  0  0  0  0  0  0  0  0  0  0  0
    3.9478    0.5615   -1.0847 H   0  0  0  0  0  0  0  0  0  0  0  0
   -0.8153    1.6702    1.7611 H   0  0  0  0  0  0  0  0  0  0  0  0
   -1.4131    2.3629   -0.2531 H   0  0  0  0  0  0  0  0  0  0  0  0
   -0.9101    1.2436   -1.6405 H   0  0  0  0  0  0  0  0  0  0  0  0
   -2.9446    0.2161   -1.3054 H   0  0  0  0  0  0  0  0  0  0  0  0
   -3.0606    0.8185    0.4375 H   0  0  0  0  0  0  0  0  0  0  0  0
   -2.3471   -1.7803   -0.3896 H   0  0  0  0  0  0  0  0  0  0  0  0
   -1.8970   -0.9590    1.1923 H   0  0  0  0  0  0  0  0  0  0  0  0
   -0.3065   -0.6511   -1.4110 H   0  0  0  0  0  0  0  0  0  0  0  0
    2.7541   -1.9051    0.1094 H   0  0  0  0  0  0  0  0  0  0  0  0
  1  2  1  0
  2  3  2  0
  3  4  1  0
  4  5  1  1
  4  6  1  0
  6  7  1  0
  7  8  1  0
  8  9  1  0
  9 10  1  0
 10 11  2  0
 10 12  1  0
 12  2  1  0
  9  4  1  0
  1 13  1  0
  1 14  1  0
  5 15  1  0
  6 16  1  0
  6 17  1  0
  7 18  1  0
  7 19  1  0
  8 20  1  0
  8 21  1  0
  9 22  1  6
 12 23  1  0
M  END
$$$$

     RDKit          3D

 23 24  0  0  0  0  0  0  0  0999 V2000
    3.4164   -0.4356   -0.5717 N   0  0  0  0  0  0  0  0  0  0  0  0
    2.0638    0.0167   -0.3675 C   0  0  0  0  0  0  0  0  0  0  0  0
    1.1202   -0.8100   -0.6587 N   0  0  0  0  0  0  0  0  0  0  0  0
   -0.2359   -0.4638   -0.4987 C   0  0  1  0  0  0  0  0  0  0  0  0
   -0.7963    0.1335   -1.6342 O   0  0  0  0  0  0  0  0  0  0  0  0
   -1.1793   -1.5625   -0.0831 C   0  0  0  0  0  0  0  0  0  0  0  0
   -2.3432   -0.7990    0.5668 C   0  0  0  0  0  0  0  0  0  0  0  0
   -1.8580    0.6534    0.6996 C   0  0  0  0  0  0  0  0  0  0  0  0
   -0.3859    0.4644    0.6989 C   0  0  2  0  0  0  0  0  0  0  0  0
    0.4266    1.6606    0.3747 C   0  0  0  0  0  0  0  0  0  0  0  0
    0.0408    2.8236    0.2750 O   0  0  0  0  0  0  0  0  0  0  0  0
    1.8206    1.3201    0.1695 N   0  0  0  0  0  0  0  0  0  0  0  0
    3.9769   -0.1972   -1.3983 H   0  0  0  0  0  0  0  0  0  0  0  0
    3.8516   -1.0387    0.1603 H   0  0  0  0  0  0  0  0  0  0  0  0
   -0.1102    0.3678   -2.3125 H   0  0  0  0  0  0  0  0  0  0  0  0
   -1.5894   -2.0278   -1.0029 H   0  0  0  0  0  0  0  0  0  0  0  0
   -0.7314   -2.2856    0.6180 H   0  0  0  0  0  0  0  0  0  0  0  0
   -3.2588   -0.8711   -0.0226 H   0  0  0  0  0  0  0  0  0  0  0  0
   -2.4333   -1.1737    1.5965 H   0  0  0  0  0  0  0  0  0  0  0  0
   -2.1470    1.1922   -0.2160 H   0  0  0  0  0  0  0  0  0  0  0  0
   -2.2270    1.1187    1.6224 H   0  0  0  0  0  0  0  0  0  0  0  0
   -0.0007   -0.0736    1.5889 H   0  0  0  0  0  0  0  0  0  0  0  0
    2.5793    1.9875    0.3956 H   0  0  0  0  0  0  0  0  0  0  0  0
  1  2  1  0
  2  3  2  0
  3  4  1  0
  4  5  1  6
  4  6  1  0
  6  7  1  0
  7  8  1  0
  8  9  1  0
  9 10  1  0
 10 11  2  0
 10 12  1  0
 12  2  1  0
  9  4  1  0
  1 13  1  0
  1 14  1  0
  5 15  1  0
  6 16  1  0
  6 17  1  0
  7 18  1  0
  7 19  1  0
  8 20  1  0
  8 21  1  0
  9 22  1  1
 12 23  1  0
M  END
$$$$

     RDKit          3D

 23 24  0  0  0  0  0  0  0  0999 V2000
    3.5364   -0.4578    0.4144 N   0  0  0  0  0  0  0  0  0  0  0  0
    2.1826   -0.0834    0.1735 C   0  0  0  0  0  0  0  0  0  0  0  0
    1.2490   -0.9468    0.0308 N   0  0  0  0  0  0  0  0  0  0  0  0
   -0.0832   -0.6216   -0.2095 C   0  0  1  0  0  0  0  0  0  0  0  0
   -0.3615   -0.5615   -1.5882 O   0  0  0  0  0  0  0  0  0  0  0  0
   -1.1368   -1.4594    0.4864 C   0  0  0  0  0  0  0  0  0  0  0  0
   -2.3812   -0.5985    0.2204 C   0  0  0  0  0  0  0  0  0  0  0  0
   -1.8546    0.8273   -0.0121 C   0  0  0  0  0  0  0  0  0  0  0  0
   -0.4466    0.7134    0.4303 C   0  0  2  0  0  0  0  0  0  0  0  0
    0.5155    1.6768   -0.0639 C   0  0  0  0  0  0  0  0  0  0  0  0
    0.2087    2.7267   -0.6214 O   0  0  0  0  0  0  0  0  0  0  0  0
    1.8845    1.3380    0.1343 N   0  0  0  0  0  0  0  0  0  0  0  0
    4.1186   -0.9059   -0.3121 H   0  0  0  0  0  0  0  0  0  0  0  0
    3.9446   -0.2736    1.3462 H   0  0  0  0  0  0  0  0  0  0  0  0
   -1.1382   -1.0917   -1.8361 H   0  0  0  0  0  0  0  0  0  0  0  0
   -0.9486   -1.3954    1.5660 H   0  0  0  0  0  0  0  0  0  0  0  0
   -1.2382   -2.4638    0.0812 H   0  0  0  0  0  0  0  0  0  0  0  0
   -2.8343   -1.0110   -0.7043 H   0  0  0  0  0  0  0  0  0  0  0  0
   -3.0656   -0.6167    1.0896 H   0  0  0  0  0  0  0  0  0  0  0  0
   -1.9249    1.0440   -1.0994 H   0  0  0  0  0  0  0  0  0  0  0  0
   -2.4640    1.5722    0.5352 H   0  0  0  0  0  0  0  0  0  0  0  0
   -0.4236    0.5743    1.5334 H   0  0  0  0  0  0  0  0  0  0  0  0
    2.6613    2.0147    0.2465 H   0  0  0  0  0  0  0  0  0  0  0  0
  1  2  1  0
  2  3  2  0
  3  4  1  0
  4  5  1  6
  4  6  1  0
  6  7  1  0
  7  8  1  0
  8  9  1  0
  9 10  1  0
 10 11  2  0
 10 12  1  0
 12  2  1  0
  9  4  1  0
  1 13  1  0
  1 14  1  0
  5 15  1  0
  6 16  1  0
  6 17  1  0
  7 18  1  0
  7 19  1  0
  8 20  1  0
  8 21  1  0
  9 22  1  1
 12 23  1  0
M  END
$$$$

     RDKit          3D

 23 24  0  0  0  0  0  0  0  0999 V2000
    3.4459   -0.8915    0.0614 N   0  0  0  0  0  0  0  0  0  0  0  0
    2.1210   -0.3639    0.0526 C   0  0  0  0  0  0  0  0  0  0  0  0
    1.1278   -0.9414   -0.5212 N   0  0  0  0  0  0  0  0  0  0  0  0
   -0.1560   -0.3875   -0.5090 C   0  0  1  0  0  0  0  0  0  0  0  0
   -0.4258    0.4642   -1.5927 O   0  0  0  0  0  0  0  0  0  0  0  0
   -1.3277   -1.3282   -0.4092 C   0  0  0  0  0  0  0  0  0  0  0  0
   -2.4647   -0.2986   -0.2875 C   0  0  0  0  0  0  0  0  0  0  0  0
   -1.8152    0.9431    0.3491 C   0  0  0  0  0  0  0  0  0  0  0  0
   -0.4636    0.4565    0.7338 C   0  0  2  0  0  0  0  0  0  0  0  0
    0.6076    1.4297    0.8259 C   0  0  0  0  0  0  0  0  0  0  0  0
    0.4469    2.6404    0.9395 O   0  0  0  0  0  0  0  0  0  0  0  0
    1.9272    0.8820    0.7754 N   0  0  0  0  0  0  0  0  0  0  0  0
    3.9516   -1.1858    0.9147 H   0  0  0  0  0  0  0  0  0  0  0  0
    3.9425   -0.9891   -0.8520 H   0  0  0  0  0  0  0  0  0  0  0  0
   -0.1396   -0.0145   -2.4062 H   0  0  0  0  0  0  0  0  0  0  0  0
   -1.4566   -1.9856   -1.2632 H   0  0  0  0  0  0  0  0  0  0  0  0
   -1.2598   -1.8420    0.5688 H   0  0  0  0  0  0  0  0  0  0  0  0
   -3.2982   -0.6741    0.3012 H   0  0  0  0  0  0  0  0  0  0  0  0
   -2.7548   -0.0596   -1.3418 H   0  0  0  0  0  0  0  0  0  0  0  0
   -1.7519    1.7447   -0.4013 H   0  0  0  0  0  0  0  0  0  0  0  0
   -2.4414    1.2623    1.2054 H   0  0  0  0  0  0  0  0  0  0  0  0
   -0.5536   -0.1992    1.6277 H   0  0  0  0  0  0  0  0  0  0  0  0
    2.7385    1.3379    1.2286 H   0  0  0  0  0  0  0  0  0  0  0  0
  1  2  1  0
  2  3  2  0
  3  4  1  0
  4  5  1  6
  4  6  1  0
  6  7  1  0
  7  8  1  0
  8  9  1  0
  9 10  1  0
 10 11  2  0
 10 12  1  0
 12  2  1  0
  9  4  1  0
  1 13  1  0
  1 14  1  0
  5 15  1  0
  6 16  1  0
  6 17  1  0
  7 18  1  0
  7 19  1  0
  8 20  1  0
  8 21  1  0
  9 22  1  1
 12 23  1  0
M  END
$$$$

     RDKit          3D

 23 24  0  0  0  0  0  0  0  0999 V2000
    3.4060   -0.8792    0.3118 N   0  0  0  0  0  0  0  0  0  0  0  0
    2.0878   -0.3430    0.1222 C   0  0  0  0  0  0  0  0  0  0  0  0
    1.0698   -1.1204    0.1879 N   0  0  0  0  0  0  0  0  0  0  0  0
   -0.2185   -0.6190    0.0022 C   0  0  1  0  0  0  0  0  0  0  0  0
   -0.5333   -0.5929   -1.3600 O   0  0  0  0  0  0  0  0  0  0  0  0
   -1.3691   -1.2475    0.7121 C   0  0  0  0  0  0  0  0  0  0  0  0
   -2.4689   -0.2432    0.3547 C   0  0  0  0  0  0  0  0  0  0  0  0
   -1.7483    1.0969    0.3224 C   0  0  0  0  0  0  0  0  0  0  0  0
   -0.2997    0.7954    0.5581 C   0  0  2  0  0  0  0  0  0  0  0  0
    0.6626    1.5781   -0.2315 C   0  0  0  0  0  0  0  0  0  0  0  0
    0.4360    2.5559   -0.9490 O   0  0  0  0  0  0  0  0  0  0  0  0
    2.0196    1.0728   -0.0936 N   0  0  0  0  0  0  0  0  0  0  0  0
    3.6694   -1.8411    0.0023 H   0  0  0  0  0  0  0  0  0  0  0  0
    4.1409   -0.3091    0.7707 H   0  0  0  0  0  0  0  0  0  0  0  0
   -0.6355   -1.5309   -1.6536 H   0  0  0  0  0  0  0  0  0  0  0  0
   -1.5747   -2.2230    0.2489 H   0  0  0  0  0  0  0  0  0  0  0  0
   -1.2907   -1.2716    1.8001 H   0  0  0  0  0  0  0  0  0  0  0  0
   -3.2840   -0.2580    1.1018 H   0  0  0  0  0  0  0  0  0  0  0  0
   -2.8271   -0.4875   -0.6671 H   0  0  0  0  0  0  0  0  0  0  0  0
   -2.1208    1.6748    1.1934 H   0  0  0  0  0  0  0  0  0  0  0  0
   -1.9553    1.6722   -0.5862 H   0  0  0  0  0  0  0  0  0  0  0  0
   -0.0192    0.8223    1.6212 H   0  0  0  0  0  0  0  0  0  0  0  0
    2.8529    1.6982   -0.1564 H   0  0  0  0  0  0  0  0  0  0  0  0
  1  2  1  0
  2  3  2  0
  3  4  1  0
  4  5  1  6
  4  6  1  0
  6  7  1  0
  7  8  1  0
  8  9  1  0
  9 10  1  0
 10 11  2  0
 10 12  1  0
 12  2  1  0
  9  4  1  0
  1 13  1  0
  1 14  1  0
  5 15  1  0
  6 16  1  0
  6 17  1  0
  7 18  1  0
  7 19  1  0
  8 20  1  0
  8 21  1  0
  9 22  1  1
 12 23  1  0
M  END
$$$$
