
     RDKit          3D

 20 20  0  0  0  0  0  0  0  0999 V2000
   -2.7239    1.3957    0.3586 N   0  0  0  0  0  0  0  0  0  0  0  0
   -1.3154    1.2163    0.4500 C   0  0  0  0  0  0  0  0  0  0  0  0
   -0.6450    2.0760    1.0689 O   0  0  0  0  0  0  0  0  0  0  0  0
   -0.7415    0.0179   -0.1978 C   0  0  2  0  0  0  0  0  0  0  0  0
   -1.2889   -1.2499    0.3548 C   0  0  0  0  0  0  0  0  0  0  0  0
   -2.3821   -1.4357    0.9478 O   0  0  0  0  0  0  0  0  0  0  0  0
   -0.2905   -2.2283    0.0633 N   0  0  0  0  0  0  0  0  0  0  0  0
    0.9414   -1.5786   -0.2451 C   0  0  0  0  0  0  0  0  0  0  0  0
    1.9511   -2.1437   -0.7360 O   0  0  0  0  0  0  0  0  0  0  0  0
    0.7315   -0.1571    0.1397 C   0  0  1  0  0  0  0  0  0  0  0  0
    1.5929    0.7624   -0.5855 C   0  0  0  0  0  0  0  0  0  0  0  0
    2.9912    0.7115   -0.3691 N   0  0  0  0  0  0  0  0  0  0  0  0
    1.1165    1.5827   -1.3842 O   0  0  0  0  0  0  0  0  0  0  0  0
   -3.3777    0.5870    0.3318 H   0  0  0  0  0  0  0  0  0  0  0  0
   -3.1664    2.3414    0.3142 H   0  0  0  0  0  0  0  0  0  0  0  0
   -0.8818    0.0919   -1.2873 H   0  0  0  0  0  0  0  0  0  0  0  0
   -0.4632   -3.2658    0.0803 H   0  0  0  0  0  0  0  0  0  0  0  0
    0.8367   -0.1008    1.2469 H   0  0  0  0  0  0  0  0  0  0  0  0
    3.4186    0.3525    0.5309 H   0  0  0  0  0  0  0  0  0  0  0  0
    3.6963    1.0246   -1.0822 H   0  0  0  0  0  0  0  0  0  0  0  0
  1  2  1  0
  2  3  2  0
  2  4  1  0
  4  5  1  0
  5  6  2  0
  5  7  1  0
  7  8  1  0
  8  9  2  0
  8 10  1  0
 10 11  1  0
 11 12  1  0
 11 13  2  0
 10  4  1  0
  1 14  1  0
  1 15  1  0
  4 16  1  6
  7 17  1  0
 10 18  1  1
 12 19  1  0
 12 20  1  0
M  END
$$$$

     RDKit          3D

 20 20  0  0  0  0  0  0  0  0999 V2000
   -2.3201    1.0249    0.5641 N   0  0  0  0  0  0  0  0  0  0  0  0
   -1.5250    0.9121   -0.6240 C   0  0  0  0  0  0  0  0  0  0  0  0
   -1.7306    1.6801   -1.5873 O   0  0  0  0  0  0  0  0  0  0  0  0
   -0.4718   -0.0986   -0.7164 C   0  0  2  0  0  0  0  0  0  0  0  0
   -1.0508   -1.4833   -0.5607 C   0  0  0  0  0  0  0  0  0  0  0  0
   -2.2226   -1.8624   -0.8084 O   0  0  0  0  0  0  0  0  0  0  0  0
    0.0404   -2.2816   -0.0626 N   0  0  0  0  0  0  0  0  0  0  0  0
    1.1191   -1.4287    0.3169 C   0  0  0  0  0  0  0  0  0  0  0  0
    2.3156   -1.7030    0.5052 O   0  0  0  0  0  0  0  0  0  0  0  0
    0.4827   -0.0778    0.4467 C   0  0  1  0  0  0  0  0  0  0  0  0
    1.4252    1.0153    0.4585 C   0  0  0  0  0  0  0  0  0  0  0  0
    2.3644    1.2446   -0.5698 N   0  0  0  0  0  0  0  0  0  0  0  0
    1.4316    1.8262    1.4301 O   0  0  0  0  0  0  0  0  0  0  0  0
   -1.9799    0.7138    1.4889 H   0  0  0  0  0  0  0  0  0  0  0  0
   -3.2681    1.4366    0.4690 H   0  0  0  0  0  0  0  0  0  0  0  0
    0.0146   -0.0849   -1.6912 H   0  0  0  0  0  0  0  0  0  0  0  0
    0.0451   -3.3277    0.0112 H   0  0  0  0  0  0  0  0  0  0  0  0
   -0.1196   -0.1147    1.3699 H   0  0  0  0  0  0  0  0  0  0  0  0
    2.7179    0.4284   -1.1077 H   0  0  0  0  0  0  0  0  0  0  0  0
    2.7320    2.1810   -0.8307 H   0  0  0  0  0  0  0  0  0  0  0  0
  1  2  1  0
  2  3  2  0
  2  4  1  0
  4  5  1  0
  5  6  2  0
  5  7  1  0
  7  8  1  0
  8  9  2  0
  8 10  1  0
 10 11  1  0
 11 12  1  0
 11 13  2  0
 10  4  1  0
  1 14  1  0
  1 15  1  0
  4 16  1  6
  7 17  1  0
 10 18  1  1
 12 19  1  0
 12 20  1  0
M  END
$$$$

     RDKit          3D

 20 20  0  0  0  0  0  0  0  0999 V2000
    2.9756   -0.7028   -0.2564 N   0  0  0  0  0  0  0  0  0  0  0  0
    1.8533   -0.2313    0.4439 C   0  0  0  0  0  0  0  0  0  0  0  0
    2.0518    0.4398    1.4899 O   0  0  0  0  0  0  0  0  0  0  0  0
    0.4452   -0.4942   -0.0028 C   0  0  2  0  0  0  0  0  0  0  0  0
    0.3314    0.1112   -1.3624 C   0  0  0  0  0  0  0  0  0  0  0  0
    0.5933   -0.4053   -2.4795 O   0  0  0  0  0  0  0  0  0  0  0  0
   -0.1519    1.4562   -1.1966 N   0  0  0  0  0  0  0  0  0  0  0  0
   -0.7510    1.5687    0.0858 C   0  0  0  0  0  0  0  0  0  0  0  0
   -1.3851    2.5692    0.4973 O   0  0  0  0  0  0  0  0  0  0  0  0
   -0.5058    0.3313    0.8392 C   0  0  1  0  0  0  0  0  0  0  0  0
   -1.7500   -0.4043    1.1587 C   0  0  0  0  0  0  0  0  0  0  0  0
   -2.6273   -0.8826    0.1458 N   0  0  0  0  0  0  0  0  0  0  0  0
   -2.0866   -0.6392    2.3491 O   0  0  0  0  0  0  0  0  0  0  0  0
    3.3267   -1.6583   -0.0836 H   0  0  0  0  0  0  0  0  0  0  0  0
    3.4581   -0.1049   -0.9458 H   0  0  0  0  0  0  0  0  0  0  0  0
    0.2017   -1.5596   -0.0228 H   0  0  0  0  0  0  0  0  0  0  0  0
   -0.0486    2.1952   -1.9429 H   0  0  0  0  0  0  0  0  0  0  0  0
    0.0206    0.5540    1.7908 H   0  0  0  0  0  0  0  0  0  0  0  0
   -2.2766   -1.2200   -0.7843 H   0  0  0  0  0  0  0  0  0  0  0  0
   -3.6750   -0.9231    0.2766 H   0  0  0  0  0  0  0  0  0  0  0  0
  1  2  1  0
  2  3  2  0
  2  4  1  0
  4  5  1  0
  5  6  2  0
  5  7  1  0
  7  8  1  0
  8  9  2  0
  8 10  1  0
 10 11  1  0
 11 12  1  0
 11 13  2  0
 10  4  1  0
  1 14  1  0
  1 15  1  0
  4 16  1  6
  7 17  1  0
 10 18  1  1
 12 19  1  0
 12 20  1  0
M  END
$$$$

     RDKit          3D

 20 20  0  0  0  0  0  0  0  0999 V2000
    2.6773   -1.1914   -0.4281 N   0  0  0  0  0  0  0  0  0  0  0  0
    1.4814   -0.8493    0.2585 C   0  0  0  0  0  0  0  0  0  0  0  0
    1.3545   -1.3005    1.4240 O   0  0  0  0  0  0  0  0  0  0  0  0
    0.4152   -0.0227   -0.2989 C   0  0  2  0  0  0  0  0  0  0  0  0
    0.8170    1.3262   -0.6764 C   0  0  0  0  0  0  0  0  0  0  0  0
    1.7112    1.6415   -1.4844 O   0  0  0  0  0  0  0  0  0  0  0  0
    0.0079    2.2407    0.0403 N   0  0  0  0  0  0  0  0  0  0  0  0
   -0.6920    1.5424    1.0758 C   0  0  0  0  0  0  0  0  0  0  0  0
   -1.2047    2.0300    2.1197 O   0  0  0  0  0  0  0  0  0  0  0  0
   -0.7125    0.1245    0.7070 C   0  0  1  0  0  0  0  0  0  0  0  0
   -2.0037   -0.2062    0.0670 C   0  0  0  0  0  0  0  0  0  0  0  0
   -2.1534   -1.5221   -0.4707 N   0  0  0  0  0  0  0  0  0  0  0  0
   -2.9235    0.6523    0.0079 O   0  0  0  0  0  0  0  0  0  0  0  0
    3.5704   -1.2384    0.1060 H   0  0  0  0  0  0  0  0  0  0  0  0
    2.6980   -1.3954   -1.4353 H   0  0  0  0  0  0  0  0  0  0  0  0
    0.0080   -0.5782   -1.1942 H   0  0  0  0  0  0  0  0  0  0  0  0
   -0.1185    3.2761   -0.0968 H   0  0  0  0  0  0  0  0  0  0  0  0
   -0.5123   -0.5405    1.5730 H   0  0  0  0  0  0  0  0  0  0  0  0
   -2.4241   -2.2776    0.1912 H   0  0  0  0  0  0  0  0  0  0  0  0
   -1.9964   -1.7113   -1.4855 H   0  0  0  0  0  0  0  0  0  0  0  0
  1  2  1  0
  2  3  2  0
  2  4  1  0
  4  5  1  0
  5  6  2  0
  5  7  1  0
  7  8  1  0
  8  9  2  0
  8 10  1  0
 10 11  1  0
 11 12  1  0
 11 13  2  0
 10  4  1  0
  1 14  1  0
  1 15  1  0
  4 16  1  6
  7 17  1  0
 10 18  1  1
 12 19  1  0
 12 20  1  0
M  END
$$$$

     RDKit          3D

 20 20  0  0  0  0  0  0  0  0999 V2000
   -2.6353   -0.8935    0.3573 N   0  0  0  0  0  0  0  0  0  0  0  0
   -1.2246   -0.9518    0.2627 C   0  0  0  0  0  0  0  0  0  0  0  0
   -0.6507   -2.0341    0.5047 O   0  0  0  0  0  0  0  0  0  0  0  0
   -0.4774    0.2307   -0.1090 C   0  0  2  0  0  0  0  0  0  0  0  0
   -0.8531    0.7499   -1.4712 C   0  0  0  0  0  0  0  0  0  0  0  0
   -1.8454    0.4966   -2.1689 O   0  0  0  0  0  0  0  0  0  0  0  0
    0.2360    1.6395   -1.7976 N   0  0  0  0  0  0  0  0  0  0  0  0
    1.3760    1.2544   -1.0431 C   0  0  0  0  0  0  0  0  0  0  0  0
    2.4828    1.8439   -1.0562 O   0  0  0  0  0  0  0  0  0  0  0  0
    0.9966    0.0476   -0.2609 C   0  0  1  0  0  0  0  0  0  0  0  0
    1.7220   -0.0495    1.0067 C   0  0  0  0  0  0  0  0  0  0  0  0
    1.4102   -1.0891    1.9163 N   0  0  0  0  0  0  0  0  0  0  0  0
    2.6213    0.7637    1.3224 O   0  0  0  0  0  0  0  0  0  0  0  0
   -3.2555   -1.7344    0.2102 H   0  0  0  0  0  0  0  0  0  0  0  0
   -3.1640   -0.0027    0.5820 H   0  0  0  0  0  0  0  0  0  0  0  0
   -0.6433    1.0507    0.6201 H   0  0  0  0  0  0  0  0  0  0  0  0
    0.1502    2.4335   -2.4912 H   0  0  0  0  0  0  0  0  0  0  0  0
    1.2026   -0.8341   -0.9332 H   0  0  0  0  0  0  0  0  0  0  0  0
    0.7730   -0.8498    2.7236 H   0  0  0  0  0  0  0  0  0  0  0  0
    1.7787   -2.0713    1.8252 H   0  0  0  0  0  0  0  0  0  0  0  0
  1  2  1  0
  2  3  2  0
  2  4  1  0
  4  5  1  0
  5  6  2  0
  5  7  1  0
  7  8  1  0
  8  9  2  0
  8 10  1  0
 10 11  1  0
 11 12  1  0
 11 13  2  0
 10  4  1  0
  1 14  1  0
  1 15  1  0
  4 16  1  1
  7 17  1  0
 10 18  1  6
 12 19  1  0
 12 20  1  0
M  END
$$$$

     RDKit          3D

 20 20  0  0  0  0  0  0  0  0999 V2000
   -1.8210    2.0741    1.3332 N   0  0  0  0  0  0  0  0  0  0  0  0
   -0.6469    1.3030    1.1092 C   0  0  0  0  0  0  0  0  0  0  0  0
    0.3269    1.4451    1.8794 O   0  0  0  0  0  0  0  0  0  0  0  0
   -0.6420    0.3733   -0.0247 C   0  0  2  0  0  0  0  0  0  0  0  0
   -1.7054   -0.6622    0.0627 C   0  0  0  0  0  0  0  0  0  0  0  0
   -2.7547   -0.6165    0.7456 O   0  0  0  0  0  0  0  0  0  0  0  0
   -1.2516   -1.7027   -0.8032 N   0  0  0  0  0  0  0  0  0  0  0  0
    0.1336   -1.5014   -1.0980 C   0  0  0  0  0  0  0  0  0  0  0  0
    0.7533   -2.0834   -2.0188 O   0  0  0  0  0  0  0  0  0  0  0  0
    0.5784   -0.4997   -0.0927 C   0  0  1  0  0  0  0  0  0  0  0  0
    1.8031    0.1874   -0.4518 C   0  0  0  0  0  0  0  0  0  0  0  0
    3.0436   -0.4630   -0.5653 N   0  0  0  0  0  0  0  0  0  0  0  0
    1.7655    1.4222   -0.6742 O   0  0  0  0  0  0  0  0  0  0  0  0
   -2.0059    2.5601    2.2448 H   0  0  0  0  0  0  0  0  0  0  0  0
   -2.5644    2.2001    0.6041 H   0  0  0  0  0  0  0  0  0  0  0  0
   -0.8011    0.8926   -1.0033 H   0  0  0  0  0  0  0  0  0  0  0  0
   -1.8621   -2.4823   -1.1536 H   0  0  0  0  0  0  0  0  0  0  0  0
    0.6500   -1.0480    0.8709 H   0  0  0  0  0  0  0  0  0  0  0  0
    3.2978   -1.2230    0.0813 H   0  0  0  0  0  0  0  0  0  0  0  0
    3.7027   -0.1757   -1.3022 H   0  0  0  0  0  0  0  0  0  0  0  0
  1  2  1  0
  2  3  2  0
  2  4  1  0
  4  5  1  0
  5  6  2  0
  5  7  1  0
  7  8  1  0
  8  9  2  0
  8 10  1  0
 10 11  1  0
 11 12  1  0
 11 13  2  0
 10  4  1  0
  1 14  1  0
  1 15  1  0
  4 16  1  6
  7 17  1  0
 10 18  1  1
 12 19  1  0
 12 20  1  0
M  END
$$$$

     RDKit          3D

 20 20  0  0  0  0  0  0  0  0999 V2000
    2.6261   -0.4422   -0.2125 N   0  0  0  0  0  0  0  0  0  0  0  0
    1.5145   -0.4962   -1.0994 C   0  0  0  0  0  0  0  0  0  0  0  0
    1.5903   -1.1038   -2.1997 O   0  0  0  0  0  0  0  0  0  0  0  0
    0.2677    0.1813   -0.6925 C   0  0  2  0  0  0  0  0  0  0  0  0
    0.4442    1.6357   -0.4737 C   0  0  0  0  0  0  0  0  0  0  0  0
    1.2508    2.3427   -1.1156 O   0  0  0  0  0  0  0  0  0  0  0  0
   -0.4432    2.0745    0.5686 N   0  0  0  0  0  0  0  0  0  0  0  0
   -0.7924    0.9047    1.2989 C   0  0  0  0  0  0  0  0  0  0  0  0
   -1.5067    0.8947    2.3161 O   0  0  0  0  0  0  0  0  0  0  0  0
   -0.1836   -0.2947    0.6735 C   0  0  1  0  0  0  0  0  0  0  0  0
   -1.1712   -1.3722    0.4687 C   0  0  0  0  0  0  0  0  0  0  0  0
   -2.3809   -1.1737   -0.2332 N   0  0  0  0  0  0  0  0  0  0  0  0
   -0.9169   -2.5014    0.9395 O   0  0  0  0  0  0  0  0  0  0  0  0
    2.9616    0.4486    0.2204 H   0  0  0  0  0  0  0  0  0  0  0  0
    3.0989   -1.3510   -0.0113 H   0  0  0  0  0  0  0  0  0  0  0  0
   -0.5534    0.0400   -1.4145 H   0  0  0  0  0  0  0  0  0  0  0  0
   -0.7501    3.0457    0.7337 H   0  0  0  0  0  0  0  0  0  0  0  0
    0.6794   -0.6429    1.2668 H   0  0  0  0  0  0  0  0  0  0  0  0
   -2.6035   -1.6566   -1.1463 H   0  0  0  0  0  0  0  0  0  0  0  0
   -3.1315   -0.5331    0.1124 H   0  0  0  0  0  0  0  0  0  0  0  0
  1  2  1  0
  2  3  2  0
  2  4  1  0
  4  5  1  0
  5  6  2  0
  5  7  1  0
  7  8  1  0
  8  9  2  0
  8 10  1  0
 10 11  1  0
 11 12  1  0
 11 13  2  0
 10  4  1  0
  1 14  1  0
  1 15  1  0
  4 16  1  6
  7 17  1  0
 10 18  1  1
 12 19  1  0
 12 20  1  0
M  END
$$$$

     RDKit          3D

 20 20  0  0  0  0  0  0  0  0999 V2000
   -2.4347    1.6679    0.2845 N   0  0  0  0  0  0  0  0  0  0  0  0
   -1.9609    0.4711   -0.2725 C   0  0  0  0  0  0  0  0  0  0  0  0
   -2.8250   -0.4609   -0.4131 O   0  0  0  0  0  0  0  0  0  0  0  0
   -0.5967    0.2007   -0.6974 C   0  0  2  0  0  0  0  0  0  0  0  0
   -0.5033   -1.1772   -1.2313 C   0  0  0  0  0  0  0  0  0  0  0  0
   -0.6478   -1.5393   -2.4262 O   0  0  0  0  0  0  0  0  0  0  0  0
   -0.2167   -2.0352   -0.1375 N   0  0  0  0  0  0  0  0  0  0  0  0
    0.4159   -1.2489    0.8428 C   0  0  0  0  0  0  0  0  0  0  0  0
    0.9142   -1.7045    1.9233 O   0  0  0  0  0  0  0  0  0  0  0  0
    0.4083    0.1807    0.4185 C   0  0  1  0  0  0  0  0  0  0  0  0
    1.7480    0.4665   -0.1551 C   0  0  0  0  0  0  0  0  0  0  0  0
    2.9297    0.5196    0.6523 N   0  0  0  0  0  0  0  0  0  0  0  0
    1.9058    0.6762   -1.3843 O   0  0  0  0  0  0  0  0  0  0  0  0
   -3.0067    1.6433    1.1388 H   0  0  0  0  0  0  0  0  0  0  0  0
   -2.2125    2.5689   -0.1576 H   0  0  0  0  0  0  0  0  0  0  0  0
   -0.3017    0.9616   -1.4491 H   0  0  0  0  0  0  0  0  0  0  0  0
   -0.4243   -3.0695   -0.0440 H   0  0  0  0  0  0  0  0  0  0  0  0
    0.1549    0.8607    1.2506 H   0  0  0  0  0  0  0  0  0  0  0  0
    3.3990    1.4166    0.8170 H   0  0  0  0  0  0  0  0  0  0  0  0
    3.2546   -0.3980    1.0403 H   0  0  0  0  0  0  0  0  0  0  0  0
  1  2  1  0
  2  3  2  0
  2  4  1  0
  4  5  1  0
  5  6  2  0
  5  7  1  0
  7  8  1  0
  8  9  2  0
  8 10  1  0
 10 11  1  0
 11 12  1  0
 11 13  2  0
 10  4  1  0
  1 14  1  0
  1 15  1  0
  4 16  1  6
  7 17  1  0
 10 18  1  1
 12 19  1  0
 12 20  1  0
M  END
$$$$
