
     RDKit          3D

 24 24  0  0  0  0  0  0  0  0999 V2000
    3.1916    0.6069    0.0607 N   0  0  0  0  0  0  0  0  0  0  0  0
    2.8742   -0.7437   -0.2379 C   0  0  0  0  0  0  0  0  0  0  0  0
    4.0161   -1.6770   -0.9216 S   0  0  0  0  0  0  0  0  0  0  0  0
    1.5722   -1.2110    0.0769 N   0  0  0  0  0  0  0  0  0  0  0  0
    0.6052   -0.3434    0.6793 C   0  0  1  0  0  0  0  0  0  0  0  0
    0.3118    0.8412   -0.1851 C   0  0  0  0  0  0  0  0  0  0  0  0
   -1.1348    1.1117    0.0741 C   0  0  2  0  0  0  0  0  0  0  0  0
   -1.3486    2.2323    0.8707 O   0  0  0  0  0  0  0  0  0  0  0  0
   -1.6234   -0.1497    0.7076 C   0  0  1  0  0  0  0  0  0  0  0  0
   -2.7058   -0.7336   -0.2086 C   0  0  0  0  0  0  0  0  0  0  0  0
   -3.1188   -1.9227    0.3763 O   0  0  0  0  0  0  0  0  0  0  0  0
   -0.5825   -1.0293    0.8079 O   0  0  0  0  0  0  0  0  0  0  0  0
    3.2270    1.3392   -0.7012 H   0  0  0  0  0  0  0  0  0  0  0  0
    3.4017    0.9359    1.0319 H   0  0  0  0  0  0  0  0  0  0  0  0
    1.3764   -2.2195   -0.1605 H   0  0  0  0  0  0  0  0  0  0  0  0
    0.9945    0.0352    1.6481 H   0  0  0  0  0  0  0  0  0  0  0  0
    0.4602    0.5737   -1.2476 H   0  0  0  0  0  0  0  0  0  0  0  0
    0.9744    1.6957    0.0582 H   0  0  0  0  0  0  0  0  0  0  0  0
   -1.6408    1.3287   -0.9107 H   0  0  0  0  0  0  0  0  0  0  0  0
   -0.5482    2.5104    1.3790 H   0  0  0  0  0  0  0  0  0  0  0  0
   -2.1183    0.0811    1.6847 H   0  0  0  0  0  0  0  0  0  0  0  0
   -2.2609   -0.9047   -1.2234 H   0  0  0  0  0  0  0  0  0  0  0  0
   -3.5416   -0.0056   -0.2559 H   0  0  0  0  0  0  0  0  0  0  0  0
   -2.3814   -2.3517    0.8787 H   0  0  0  0  0  0  0  0  0  0  0  0
  1  2  1  0
  2  3  2  0
  2  4  1  0
  4  5  1  0
  5  6  1  0
  6  7  1  0
  7  8  1  0
  7  9  1  0
  9 10  1  0
 10 11  1  0
  9 12  1  0
 12  5  1  0
  1 13  1  0
  1 14  1  0
  4 15  1  0
  5 16  1  1
  6 17  1  0
  6 18  1  0
  7 19  1  6
  8 20  1  0
  9 21  1  1
 10 22  1  0
 10 23  1  0
 11 24  1  0
M  END
$$$$

     RDKit          3D

 24 24  0  0  0  0  0  0  0  0999 V2000
    3.9754    0.3610   -0.5841 N   0  0  0  0  0  0  0  0  0  0  0  0
    2.8097   -0.2425   -0.0304 C   0  0  0  0  0  0  0  0  0  0  0  0
    2.8048   -1.8528    0.2853 S   0  0  0  0  0  0  0  0  0  0  0  0
    1.6811    0.5596    0.2354 N   0  0  0  0  0  0  0  0  0  0  0  0
    0.4991   -0.0681    0.7999 C   0  0  1  0  0  0  0  0  0  0  0  0
   -0.5950    0.9307    1.0144 C   0  0  0  0  0  0  0  0  0  0  0  0
   -1.8331    0.0825    0.7295 C   0  0  2  0  0  0  0  0  0  0  0  0
   -2.1448   -0.5808    1.9038 O   0  0  0  0  0  0  0  0  0  0  0  0
   -1.2748   -0.8588   -0.3139 C   0  0  1  0  0  0  0  0  0  0  0  0
   -1.4748   -0.2874   -1.6972 C   0  0  0  0  0  0  0  0  0  0  0  0
   -2.8473   -0.1193   -1.9226 O   0  0  0  0  0  0  0  0  0  0  0  0
    0.0560   -1.0357   -0.0608 O   0  0  0  0  0  0  0  0  0  0  0  0
    3.8292    1.1151   -1.2863 H   0  0  0  0  0  0  0  0  0  0  0  0
    4.9243    0.0554   -0.2938 H   0  0  0  0  0  0  0  0  0  0  0  0
    1.6989    1.5689    0.0319 H   0  0  0  0  0  0  0  0  0  0  0  0
    0.7893   -0.4598    1.8015 H   0  0  0  0  0  0  0  0  0  0  0  0
   -0.5422    1.7114    0.2267 H   0  0  0  0  0  0  0  0  0  0  0  0
   -0.6160    1.3689    2.0122 H   0  0  0  0  0  0  0  0  0  0  0  0
   -2.6570    0.7080    0.3389 H   0  0  0  0  0  0  0  0  0  0  0  0
   -1.9646    0.0247    2.6510 H   0  0  0  0  0  0  0  0  0  0  0  0
   -1.8148   -1.8211   -0.2464 H   0  0  0  0  0  0  0  0  0  0  0  0
   -1.0731   -1.0449   -2.4226 H   0  0  0  0  0  0  0  0  0  0  0  0
   -0.8981    0.6287   -1.8581 H   0  0  0  0  0  0  0  0  0  0  0  0
   -3.3323   -0.7437   -1.3142 H   0  0  0  0  0  0  0  0  0  0  0  0
  1  2  1  0
  2  3  2  0
  2  4  1  0
  4  5  1  0
  5  6  1  0
  6  7  1  0
  7  8  1  0
  7  9  1  0
  9 10  1  0
 10 11  1  0
  9 12  1  0
 12  5  1  0
  1 13  1  0
  1 14  1  0
  4 15  1  0
  5 16  1  1
  6 17  1  0
  6 18  1  0
  7 19  1  6
  8 20  1  0
  9 21  1  6
 10 22  1  0
 10 23  1  0
 11 24  1  0
M  END
$$$$

     RDKit          3D

 24 24  0  0  0  0  0  0  0  0999 V2000
    3.3872    0.1822   -0.4320 N   0  0  0  0  0  0  0  0  0  0  0  0
    2.9521    0.0421    0.9088 C   0  0  0  0  0  0  0  0  0  0  0  0
    4.0637   -0.3413    2.0362 S   0  0  0  0  0  0  0  0  0  0  0  0
    1.6137    0.2210    1.2886 N   0  0  0  0  0  0  0  0  0  0  0  0
    0.5575    0.5650    0.3425 C   0  0  1  0  0  0  0  0  0  0  0  0
    0.5108   -0.5512   -0.6808 C   0  0  0  0  0  0  0  0  0  0  0  0
   -0.9222   -0.4638   -1.1641 C   0  0  2  0  0  0  0  0  0  0  0  0
   -1.0284    0.3014   -2.3182 O   0  0  0  0  0  0  0  0  0  0  0  0
   -1.6171    0.1555    0.0166 C   0  0  1  0  0  0  0  0  0  0  0  0
   -2.4995   -0.9314    0.6308 C   0  0  0  0  0  0  0  0  0  0  0  0
   -3.1064   -0.4850    1.7808 O   0  0  0  0  0  0  0  0  0  0  0  0
   -0.6651    0.4791    0.9510 O   0  0  0  0  0  0  0  0  0  0  0  0
    4.0290   -0.5297   -0.8627 H   0  0  0  0  0  0  0  0  0  0  0  0
    3.0812    0.9948   -1.0241 H   0  0  0  0  0  0  0  0  0  0  0  0
    1.3400    0.1088    2.2832 H   0  0  0  0  0  0  0  0  0  0  0  0
    0.7724    1.5427   -0.1284 H   0  0  0  0  0  0  0  0  0  0  0  0
    0.7124   -1.5173   -0.1828 H   0  0  0  0  0  0  0  0  0  0  0  0
    1.1711   -0.3637   -1.5393 H   0  0  0  0  0  0  0  0  0  0  0  0
   -1.2570   -1.4881   -1.3929 H   0  0  0  0  0  0  0  0  0  0  0  0
   -1.9309    0.1286   -2.7067 H   0  0  0  0  0  0  0  0  0  0  0  0
   -2.2134    1.0318   -0.2676 H   0  0  0  0  0  0  0  0  0  0  0  0
   -1.7848   -1.7484    0.9342 H   0  0  0  0  0  0  0  0  0  0  0  0
   -3.1752   -1.3797   -0.1061 H   0  0  0  0  0  0  0  0  0  0  0  0
   -3.9910   -0.0700    1.6331 H   0  0  0  0  0  0  0  0  0  0  0  0
  1  2  1  0
  2  3  2  0
  2  4  1  0
  4  5  1  0
  5  6  1  0
  6  7  1  0
  7  8  1  0
  7  9  1  0
  9 10  1  0
 10 11  1  0
  9 12  1  0
 12  5  1  0
  1 13  1  0
  1 14  1  0
  4 15  1  0
  5 16  1  6
  6 17  1  0
  6 18  1  0
  7 19  1  6
  8 20  1  0
  9 21  1  6
 10 22  1  0
 10 23  1  0
 11 24  1  0
M  END
$$$$

     RDKit          3D

 24 24  0  0  0  0  0  0  0  0999 V2000
    3.0405    1.0905    0.3151 N   0  0  0  0  0  0  0  0  0  0  0  0
    2.8054    0.1200    1.3106 C   0  0  0  0  0  0  0  0  0  0  0  0
    3.8150    0.0791    2.5856 S   0  0  0  0  0  0  0  0  0  0  0  0
    1.7106   -0.7722    1.1629 N   0  0  0  0  0  0  0  0  0  0  0  0
    0.8466   -0.6889    0.0082 C   0  0  1  0  0  0  0  0  0  0  0  0
   -0.2064   -1.7500    0.1337 C   0  0  0  0  0  0  0  0  0  0  0  0
   -1.4569   -0.9120    0.3136 C   0  0  2  0  0  0  0  0  0  0  0  0
   -2.5935   -1.5455   -0.1292 O   0  0  0  0  0  0  0  0  0  0  0  0
   -1.0808    0.2883   -0.5310 C   0  0  1  0  0  0  0  0  0  0  0  0
   -2.0038    1.4501   -0.2891 C   0  0  0  0  0  0  0  0  0  0  0  0
   -1.6079    2.6016   -0.9232 O   0  0  0  0  0  0  0  0  0  0  0  0
    0.2154    0.5362   -0.0918 O   0  0  0  0  0  0  0  0  0  0  0  0
    2.2575    1.6712   -0.0219 H   0  0  0  0  0  0  0  0  0  0  0  0
    3.9850    1.2185   -0.0717 H   0  0  0  0  0  0  0  0  0  0  0  0
    1.5489   -1.4820    1.9034 H   0  0  0  0  0  0  0  0  0  0  0  0
    1.4965   -0.8267   -0.8807 H   0  0  0  0  0  0  0  0  0  0  0  0
   -0.3182   -2.2686   -0.8464 H   0  0  0  0  0  0  0  0  0  0  0  0
   -0.0375   -2.4512    0.9668 H   0  0  0  0  0  0  0  0  0  0  0  0
   -1.5441   -0.5563    1.3727 H   0  0  0  0  0  0  0  0  0  0  0  0
   -3.1712   -1.8683    0.6217 H   0  0  0  0  0  0  0  0  0  0  0  0
   -1.0246   -0.0001   -1.5971 H   0  0  0  0  0  0  0  0  0  0  0  0
   -2.9953    1.1594   -0.7312 H   0  0  0  0  0  0  0  0  0  0  0  0
   -2.1927    1.5719    0.7969 H   0  0  0  0  0  0  0  0  0  0  0  0
   -1.4884    3.3350   -0.2861 H   0  0  0  0  0  0  0  0  0  0  0  0
  1  2  1  0
  2  3  2  0
  2  4  1  0
  4  5  1  0
  5  6  1  0
  6  7  1  0
  7  8  1  0
  7  9  1  0
  9 10  1  0
 10 11  1  0
  9 12  1  0
 12  5  1  0
  1 13  1  0
  1 14  1  0
  4 15  1  0
  5 16  1  6
  6 17  1  0
  6 18  1  0
  7 19  1  1
  8 20  1  0
  9 21  1  6
 10 22  1  0
 10 23  1  0
 11 24  1  0
M  END
$$$$

     RDKit          3D

 24 24  0  0  0  0  0  0  0  0999 V2000
    4.2623    0.6248   -0.0299 N   0  0  0  0  0  0  0  0  0  0  0  0
    2.8560    0.6317   -0.2817 C   0  0  0  0  0  0  0  0  0  0  0  0
    2.2440    1.9179   -1.0718 S   0  0  0  0  0  0  0  0  0  0  0  0
    1.9963   -0.4104    0.1192 N   0  0  0  0  0  0  0  0  0  0  0  0
    0.6151   -0.3475   -0.1579 C   0  0  1  0  0  0  0  0  0  0  0  0
   -0.1868   -1.5146    0.3195 C   0  0  0  0  0  0  0  0  0  0  0  0
   -1.5996   -0.9810    0.1685 C   0  0  2  0  0  0  0  0  0  0  0  0
   -2.1607   -1.3945   -1.0354 O   0  0  0  0  0  0  0  0  0  0  0  0
   -1.3401    0.5105    0.0511 C   0  0  1  0  0  0  0  0  0  0  0  0
   -2.3557    1.3203    0.7953 C   0  0  0  0  0  0  0  0  0  0  0  0
   -3.6055    1.0404    0.2453 O   0  0  0  0  0  0  0  0  0  0  0  0
   -0.0408    0.7097    0.5175 O   0  0  0  0  0  0  0  0  0  0  0  0
    4.6278    0.0888    0.7796 H   0  0  0  0  0  0  0  0  0  0  0  0
    4.9270    1.1466   -0.6423 H   0  0  0  0  0  0  0  0  0  0  0  0
    2.4015   -1.2224    0.6213 H   0  0  0  0  0  0  0  0  0  0  0  0
    0.3732   -0.1732   -1.2401 H   0  0  0  0  0  0  0  0  0  0  0  0
   -0.0110   -1.6837    1.3984 H   0  0  0  0  0  0  0  0  0  0  0  0
   -0.0356   -2.4330   -0.2787 H   0  0  0  0  0  0  0  0  0  0  0  0
   -2.2401   -1.2370    1.0291 H   0  0  0  0  0  0  0  0  0  0  0  0
   -1.4164   -1.6218   -1.6465 H   0  0  0  0  0  0  0  0  0  0  0  0
   -1.3440    0.8455   -1.0142 H   0  0  0  0  0  0  0  0  0  0  0  0
   -2.3391    1.0664    1.8833 H   0  0  0  0  0  0  0  0  0  0  0  0
   -2.1347    2.3827    0.6321 H   0  0  0  0  0  0  0  0  0  0  0  0
   -3.4932    0.7337   -0.6847 H   0  0  0  0  0  0  0  0  0  0  0  0
  1  2  1  0
  2  3  2  0
  2  4  1  0
  4  5  1  0
  5  6  1  0
  6  7  1  0
  7  8  1  0
  7  9  1  0
  9 10  1  0
 10 11  1  0
  9 12  1  0
 12  5  1  0
  1 13  1  0
  1 14  1  0
  4 15  1  0
  5 16  1  6
  6 17  1  0
  6 18  1  0
  7 19  1  1
  8 20  1  0
  9 21  1  6
 10 22  1  0
 10 23  1  0
 11 24  1  0
M  END
$$$$

     RDKit          3D

 24 24  0  0  0  0  0  0  0  0999 V2000
    3.4048    0.3144    0.6657 N   0  0  0  0  0  0  0  0  0  0  0  0
    3.0975   -0.4121   -0.5074 C   0  0  0  0  0  0  0  0  0  0  0  0
    4.2888   -0.7568   -1.5573 S   0  0  0  0  0  0  0  0  0  0  0  0
    1.7842   -0.8412   -0.7830 N   0  0  0  0  0  0  0  0  0  0  0  0
    0.6579   -0.5822    0.0909 C   0  0  1  0  0  0  0  0  0  0  0  0
    0.4007    0.8719    0.3064 C   0  0  0  0  0  0  0  0  0  0  0  0
   -1.1233    0.9474    0.1339 C   0  0  2  0  0  0  0  0  0  0  0  0
   -1.7078    1.7792    1.0589 O   0  0  0  0  0  0  0  0  0  0  0  0
   -1.4929   -0.5063    0.3096 C   0  0  1  0  0  0  0  0  0  0  0  0
   -2.8891   -0.8159   -0.1397 C   0  0  0  0  0  0  0  0  0  0  0  0
   -3.1336   -0.4833   -1.4590 O   0  0  0  0  0  0  0  0  0  0  0  0
   -0.5144   -1.1556   -0.3968 O   0  0  0  0  0  0  0  0  0  0  0  0
    4.1734    1.0247    0.7199 H   0  0  0  0  0  0  0  0  0  0  0  0
    2.8694    0.1822    1.5716 H   0  0  0  0  0  0  0  0  0  0  0  0
    1.5984   -1.3720   -1.6546 H   0  0  0  0  0  0  0  0  0  0  0  0
    0.8590   -1.0810    1.0728 H   0  0  0  0  0  0  0  0  0  0  0  0
    0.9238    1.5365   -0.3874 H   0  0  0  0  0  0  0  0  0  0  0  0
    0.5741    1.1423    1.3807 H   0  0  0  0  0  0  0  0  0  0  0  0
   -1.3001    1.2884   -0.8970 H   0  0  0  0  0  0  0  0  0  0  0  0
   -1.8441    2.6737    0.6122 H   0  0  0  0  0  0  0  0  0  0  0  0
   -1.4089   -0.7543    1.3733 H   0  0  0  0  0  0  0  0  0  0  0  0
   -3.1043   -1.8635    0.0936 H   0  0  0  0  0  0  0  0  0  0  0  0
   -3.5773   -0.1916    0.4857 H   0  0  0  0  0  0  0  0  0  0  0  0
   -2.5366   -0.9450   -2.0927 H   0  0  0  0  0  0  0  0  0  0  0  0
  1  2  1  0
  2  3  2  0
  2  4  1  0
  4  5  1  0
  5  6  1  0
  6  7  1  0
  7  8  1  0
  7  9  1  0
  9 10  1  0
 10 11  1  0
  9 12  1  0
 12  5  1  0
  1 13  1  0
  1 14  1  0
  4 15  1  0
  5 16  1  1
  6 17  1  0
  6 18  1  0
  7 19  1  6
  8 20  1  0
  9 21  1  1
 10 22  1  0
 10 23  1  0
 11 24  1  0
M  END
$$$$

     RDKit          3D

 24 24  0  0  0  0  0  0  0  0999 V2000
    3.3795   -0.2239   -0.3211 N   0  0  0  0  0  0  0  0  0  0  0  0
    2.9351   -0.4436    1.0041 C   0  0  0  0  0  0  0  0  0  0  0  0
    3.9845   -1.0321    2.0942 S   0  0  0  0  0  0  0  0  0  0  0  0
    1.6138   -0.1626    1.3841 N   0  0  0  0  0  0  0  0  0  0  0  0
    0.6782    0.3605    0.4181 C   0  0  1  0  0  0  0  0  0  0  0  0
    0.5061   -0.5932   -0.7276 C   0  0  0  0  0  0  0  0  0  0  0  0
   -1.0084   -0.6682   -0.8661 C   0  0  2  0  0  0  0  0  0  0  0  0
   -1.3940   -0.6693   -2.2039 O   0  0  0  0  0  0  0  0  0  0  0  0
   -1.4144    0.6050   -0.1594 C   0  0  1  0  0  0  0  0  0  0  0  0
   -2.8715    0.6083    0.2211 C   0  0  0  0  0  0  0  0  0  0  0  0
   -3.0806    1.7413    1.0194 O   0  0  0  0  0  0  0  0  0  0  0  0
   -0.5879    0.5480    0.9789 O   0  0  0  0  0  0  0  0  0  0  0  0
    4.0030    0.6026   -0.5645 H   0  0  0  0  0  0  0  0  0  0  0  0
    3.1396   -0.8328   -1.1343 H   0  0  0  0  0  0  0  0  0  0  0  0
    1.3045   -0.3285    2.3558 H   0  0  0  0  0  0  0  0  0  0  0  0
    0.9937    1.3768    0.0483 H   0  0  0  0  0  0  0  0  0  0  0  0
    0.8910   -0.1252   -1.6520 H   0  0  0  0  0  0  0  0  0  0  0  0
    0.9447   -1.5911   -0.5285 H   0  0  0  0  0  0  0  0  0  0  0  0
   -1.3576   -1.5363   -0.3083 H   0  0  0  0  0  0  0  0  0  0  0  0
   -2.2195   -1.2041   -2.2885 H   0  0  0  0  0  0  0  0  0  0  0  0
   -1.1875    1.4974   -0.7577 H   0  0  0  0  0  0  0  0  0  0  0  0
   -3.4629    0.7428   -0.6899 H   0  0  0  0  0  0  0  0  0  0  0  0
   -3.1530   -0.3126    0.7593 H   0  0  0  0  0  0  0  0  0  0  0  0
   -2.6364    1.6409    1.9184 H   0  0  0  0  0  0  0  0  0  0  0  0
  1  2  1  0
  2  3  2  0
  2  4  1  0
  4  5  1  0
  5  6  1  0
  6  7  1  0
  7  8  1  0
  7  9  1  0
  9 10  1  0
 10 11  1  0
  9 12  1  0
 12  5  1  0
  1 13  1  0
  1 14  1  0
  4 15  1  0
  5 16  1  6
  6 17  1  0
  6 18  1  0
  7 19  1  1
  8 20  1  0
  9 21  1  6
 10 22  1  0
 10 23  1  0
 11 24  1  0
M  END
$$$$

     RDKit          3D

 24 24  0  0  0  0  0  0  0  0999 V2000
   -3.1660   -0.1652    0.2523 N   0  0  0  0  0  0  0  0  0  0  0  0
   -2.4502   -1.4046    0.1739 C   0  0  0  0  0  0  0  0  0  0  0  0
   -3.0970   -2.8113    0.6521 S   0  0  0  0  0  0  0  0  0  0  0  0
   -1.1380   -1.3690   -0.3421 N   0  0  0  0  0  0  0  0  0  0  0  0
   -0.5396   -0.1248   -0.7755 C   0  0  1  0  0  0  0  0  0  0  0  0
   -0.4784    0.8455    0.3700 C   0  0  0  0  0  0  0  0  0  0  0  0
    0.9087    1.3972    0.3124 C   0  0  2  0  0  0  0  0  0  0  0  0
    0.9142    2.6511   -0.2966 O   0  0  0  0  0  0  0  0  0  0  0  0
    1.6260    0.4114   -0.5644 C   0  0  1  0  0  0  0  0  0  0  0  0
    2.3815   -0.6035    0.2920 C   0  0  0  0  0  0  0  0  0  0  0  0
    2.9964   -1.5030   -0.5652 O   0  0  0  0  0  0  0  0  0  0  0  0
    0.7057   -0.2726   -1.3041 O   0  0  0  0  0  0  0  0  0  0  0  0
   -3.7038    0.1633   -0.5718 H   0  0  0  0  0  0  0  0  0  0  0  0
   -3.0957    0.3398    1.1631 H   0  0  0  0  0  0  0  0  0  0  0  0
   -0.6082   -2.2604   -0.4044 H   0  0  0  0  0  0  0  0  0  0  0  0
   -1.1833    0.3626   -1.5637 H   0  0  0  0  0  0  0  0  0  0  0  0
   -1.1983    1.6834    0.2700 H   0  0  0  0  0  0  0  0  0  0  0  0
   -0.6214    0.3211    1.3594 H   0  0  0  0  0  0  0  0  0  0  0  0
    1.3664    1.4809    1.3262 H   0  0  0  0  0  0  0  0  0  0  0  0
    0.7751    3.3683    0.3793 H   0  0  0  0  0  0  0  0  0  0  0  0
    2.4090    0.9073   -1.1881 H   0  0  0  0  0  0  0  0  0  0  0  0
    1.7172   -1.1429    0.9735 H   0  0  0  0  0  0  0  0  0  0  0  0
    3.1519   -0.0942    0.9129 H   0  0  0  0  0  0  0  0  0  0  0  0
    2.3278   -2.1804   -0.8612 H   0  0  0  0  0  0  0  0  0  0  0  0
  1  2  1  0
  2  3  2  0
  2  4  1  0
  4  5  1  0
  5  6  1  0
  6  7  1  0
  7  8  1  0
  7  9  1  0
  9 10  1  0
 10 11  1  0
  9 12  1  0
 12  5  1  0
  1 13  1  0
  1 14  1  0
  4 15  1  0
  5 16  1  6
  6 17  1  0
  6 18  1  0
  7 19  1  1
  8 20  1  0
  9 21  1  6
 10 22  1  0
 10 23  1  0
 11 24  1  0
M  END
$$$$
