
     RDKit          3D

 26 25  0  0  0  0  0  0  0  0999 V2000
    3.4385   -1.0912   -0.7461 N   0  0  0  0  0  0  0  0  0  0  0  0
    2.1213   -0.5724   -0.8957 C   0  0  0  0  0  0  0  0  0  0  0  0
    1.6367   -0.5698   -2.0609 O   0  0  0  0  0  0  0  0  0  0  0  0
    1.4040   -0.0744    0.2925 C   0  0  1  0  0  0  0  0  0  0  0  0
    2.2295    1.0454    0.8984 C   0  0  0  0  0  0  0  0  0  0  0  0
    3.4859    0.5686    1.2141 O   0  0  0  0  0  0  0  0  0  0  0  0
    0.0937    0.4106   -0.0402 N   0  0  0  0  0  0  0  0  0  0  0  0
   -1.0492   -0.1584    0.5610 C   0  0  0  0  0  0  0  0  0  0  0  0
   -0.8773   -1.0923    1.3864 O   0  0  0  0  0  0  0  0  0  0  0  0
   -2.3812    0.3601    0.1998 C   0  0  1  0  0  0  0  0  0  0  0  0
   -2.2835    1.4168   -0.7567 N   0  0  0  0  0  0  0  0  0  0  0  0
   -3.2022   -0.8089   -0.3285 C   0  0  0  0  0  0  0  0  0  0  0  0
   -3.2288   -1.7670    0.6769 O   0  0  0  0  0  0  0  0  0  0  0  0
    4.2317   -0.4317   -0.7668 H   0  0  0  0  0  0  0  0  0  0  0  0
    3.6354   -2.1138   -0.6159 H   0  0  0  0  0  0  0  0  0  0  0  0
    1.3382   -0.8890    1.0295 H   0  0  0  0  0  0  0  0  0  0  0  0
    1.7131    1.4712    1.7864 H   0  0  0  0  0  0  0  0  0  0  0  0
    2.2877    1.8524    0.1369 H   0  0  0  0  0  0  0  0  0  0  0  0
    3.3744   -0.3292    1.6098 H   0  0  0  0  0  0  0  0  0  0  0  0
    0.0255    1.1923   -0.7371 H   0  0  0  0  0  0  0  0  0  0  0  0
   -2.9427    0.7335    1.0971 H   0  0  0  0  0  0  0  0  0  0  0  0
   -3.1453    1.9583   -0.8884 H   0  0  0  0  0  0  0  0  0  0  0  0
   -1.8465    1.1246   -1.6373 H   0  0  0  0  0  0  0  0  0  0  0  0
   -4.2564   -0.4848   -0.4895 H   0  0  0  0  0  0  0  0  0  0  0  0
   -2.7494   -1.1695   -1.2596 H   0  0  0  0  0  0  0  0  0  0  0  0
   -3.0534   -2.6735    0.3339 H   0  0  0  0  0  0  0  0  0  0  0  0
  1  2  1  0
  2  3  2  0
  2  4  1  0
  4  5  1  0
  5  6  1  0
  4  7  1  0
  7  8  1  0
  8  9  2  0
  8 10  1  0
 10 11  1  0
 10 12  1  0
 12 13  1  0
  1 14  1  0
  1 15  1  0
  4 16  1  1
  5 17  1  0
  5 18  1  0
  6 19  1  0
  7 20  1  0
 10 21  1  1
 11 22  1  0
 11 23  1  0
 12 24  1  0
 12 25  1  0
 13 26  1  0
M  END
$$$$

     RDKit          3D

 26 25  0  0  0  0  0  0  0  0999 V2000
   -3.9012    0.8382   -0.2752 N   0  0  0  0  0  0  0  0  0  0  0  0
   -2.6178    0.3500   -0.5990 C   0  0  0  0  0  0  0  0  0  0  0  0
   -2.4229   -0.2290   -1.6974 O   0  0  0  0  0  0  0  0  0  0  0  0
   -1.4467    0.4829    0.3075 C   0  0  1  0  0  0  0  0  0  0  0  0
   -1.8075   -0.2351    1.6029 C   0  0  0  0  0  0  0  0  0  0  0  0
   -2.9668    0.3137    2.1530 O   0  0  0  0  0  0  0  0  0  0  0  0
   -0.2570   -0.0905   -0.2440 N   0  0  0  0  0  0  0  0  0  0  0  0
    0.9484    0.6026   -0.4544 C   0  0  0  0  0  0  0  0  0  0  0  0
    1.0006    1.8187   -0.1391 O   0  0  0  0  0  0  0  0  0  0  0  0
    2.1692   -0.0230   -1.0305 C   0  0  1  0  0  0  0  0  0  0  0  0
    3.2571    0.8953   -1.1402 N   0  0  0  0  0  0  0  0  0  0  0  0
    2.5229   -1.2001   -0.1351 C   0  0  0  0  0  0  0  0  0  0  0  0
    3.5982   -1.9192   -0.5951 O   0  0  0  0  0  0  0  0  0  0  0  0
   -4.6114    0.2222    0.1525 H   0  0  0  0  0  0  0  0  0  0  0  0
   -4.1526    1.8321   -0.4637 H   0  0  0  0  0  0  0  0  0  0  0  0
   -1.3347    1.5564    0.5639 H   0  0  0  0  0  0  0  0  0  0  0  0
   -0.9723   -0.1310    2.3223 H   0  0  0  0  0  0  0  0  0  0  0  0
   -1.9670   -1.3324    1.4042 H   0  0  0  0  0  0  0  0  0  0  0  0
   -3.0246   -0.0464    3.0945 H   0  0  0  0  0  0  0  0  0  0  0  0
   -0.2857   -1.0991   -0.5103 H   0  0  0  0  0  0  0  0  0  0  0  0
    1.9803   -0.4447   -2.0452 H   0  0  0  0  0  0  0  0  0  0  0  0
    3.2635    1.4658   -1.9919 H   0  0  0  0  0  0  0  0  0  0  0  0
    4.1838    0.4997   -0.8787 H   0  0  0  0  0  0  0  0  0  0  0  0
    2.7660   -0.7952    0.8849 H   0  0  0  0  0  0  0  0  0  0  0  0
    1.6449   -1.8489   -0.0114 H   0  0  0  0  0  0  0  0  0  0  0  0
    4.4331   -1.4831   -0.2747 H   0  0  0  0  0  0  0  0  0  0  0  0
  1  2  1  0
  2  3  2  0
  2  4  1  0
  4  5  1  0
  5  6  1  0
  4  7  1  0
  7  8  1  0
  8  9  2  0
  8 10  1  0
 10 11  1  0
 10 12  1  0
 12 13  1  0
  1 14  1  0
  1 15  1  0
  4 16  1  1
  5 17  1  0
  5 18  1  0
  6 19  1  0
  7 20  1  0
 10 21  1  6
 11 22  1  0
 11 23  1  0
 12 24  1  0
 12 25  1  0
 13 26  1  0
M  END
$$$$

     RDKit          3D

 26 25  0  0  0  0  0  0  0  0999 V2000
   -3.7203   -0.9943   -0.4771 N   0  0  0  0  0  0  0  0  0  0  0  0
   -2.4892   -0.7049    0.1404 C   0  0  0  0  0  0  0  0  0  0  0  0
   -2.3075   -0.8986    1.3819 O   0  0  0  0  0  0  0  0  0  0  0  0
   -1.3709   -0.1594   -0.6736 C   0  0  1  0  0  0  0  0  0  0  0  0
   -1.8627    1.1399   -1.2770 C   0  0  0  0  0  0  0  0  0  0  0  0
   -2.1948    2.0302   -0.2511 O   0  0  0  0  0  0  0  0  0  0  0  0
   -0.2159    0.0648    0.1369 N   0  0  0  0  0  0  0  0  0  0  0  0
    0.9961   -0.6418   -0.1974 C   0  0  0  0  0  0  0  0  0  0  0  0
    0.9933   -1.4174   -1.1742 O   0  0  0  0  0  0  0  0  0  0  0  0
    2.2246   -0.4617    0.5915 C   0  0  1  0  0  0  0  0  0  0  0  0
    3.2642   -1.2913    0.0238 N   0  0  0  0  0  0  0  0  0  0  0  0
    2.6311    0.9992    0.4631 C   0  0  0  0  0  0  0  0  0  0  0  0
    2.8148    1.3655   -0.8530 O   0  0  0  0  0  0  0  0  0  0  0  0
   -4.6124   -0.7819    0.0206 H   0  0  0  0  0  0  0  0  0  0  0  0
   -3.8008   -1.4192   -1.4268 H   0  0  0  0  0  0  0  0  0  0  0  0
   -1.1292   -0.8807   -1.4702 H   0  0  0  0  0  0  0  0  0  0  0  0
   -1.0226    1.6078   -1.8549 H   0  0  0  0  0  0  0  0  0  0  0  0
   -2.7376    0.9367   -1.9015 H   0  0  0  0  0  0  0  0  0  0  0  0
   -2.6303    1.4662    0.4573 H   0  0  0  0  0  0  0  0  0  0  0  0
   -0.1803    0.6984    0.9500 H   0  0  0  0  0  0  0  0  0  0  0  0
    2.0273   -0.7133    1.6449 H   0  0  0  0  0  0  0  0  0  0  0  0
    3.1848   -1.2795   -1.0055 H   0  0  0  0  0  0  0  0  0  0  0  0
    3.2562   -2.2589    0.3575 H   0  0  0  0  0  0  0  0  0  0  0  0
    1.8637    1.6700    0.9007 H   0  0  0  0  0  0  0  0  0  0  0  0
    3.5491    1.1415    1.0910 H   0  0  0  0  0  0  0  0  0  0  0  0
    3.4692    0.7825   -1.3159 H   0  0  0  0  0  0  0  0  0  0  0  0
  1  2  1  0
  2  3  2  0
  2  4  1  0
  4  5  1  0
  5  6  1  0
  4  7  1  0
  7  8  1  0
  8  9  2  0
  8 10  1  0
 10 11  1  0
 10 12  1  0
 12 13  1  0
  1 14  1  0
  1 15  1  0
  4 16  1  6
  5 17  1  0
  5 18  1  0
  6 19  1  0
  7 20  1  0
 10 21  1  1
 11 22  1  0
 11 23  1  0
 12 24  1  0
 12 25  1  0
 13 26  1  0
M  END
$$$$

     RDKit          3D

 26 25  0  0  0  0  0  0  0  0999 V2000
   -3.8053    1.1692    0.6966 N   0  0  0  0  0  0  0  0  0  0  0  0
   -2.4273    1.2680    0.3788 C   0  0  0  0  0  0  0  0  0  0  0  0
   -1.9194    2.4069    0.2692 O   0  0  0  0  0  0  0  0  0  0  0  0
   -1.6545    0.0180    0.1917 C   0  0  1  0  0  0  0  0  0  0  0  0
   -2.2861   -0.8760   -0.8580 C   0  0  0  0  0  0  0  0  0  0  0  0
   -1.5451   -2.0548   -0.9033 O   0  0  0  0  0  0  0  0  0  0  0  0
   -0.2913    0.3263   -0.1213 N   0  0  0  0  0  0  0  0  0  0  0  0
    0.7677   -0.0634    0.7224 C   0  0  0  0  0  0  0  0  0  0  0  0
    0.4614   -0.7053    1.7819 O   0  0  0  0  0  0  0  0  0  0  0  0
    2.1773    0.2042    0.4870 C   0  0  1  0  0  0  0  0  0  0  0  0
    2.9518   -0.3239    1.5244 N   0  0  0  0  0  0  0  0  0  0  0  0
    2.7183   -0.2307   -0.8325 C   0  0  0  0  0  0  0  0  0  0  0  0
    4.0315    0.2187   -0.9718 O   0  0  0  0  0  0  0  0  0  0  0  0
   -4.1874    0.4227    1.3290 H   0  0  0  0  0  0  0  0  0  0  0  0
   -4.4872    1.8507    0.3012 H   0  0  0  0  0  0  0  0  0  0  0  0
   -1.6640   -0.5453    1.1620 H   0  0  0  0  0  0  0  0  0  0  0  0
   -2.3115   -0.3661   -1.8340 H   0  0  0  0  0  0  0  0  0  0  0  0
   -3.3091   -1.1172   -0.4828 H   0  0  0  0  0  0  0  0  0  0  0  0
   -1.0431   -2.0976   -1.7720 H   0  0  0  0  0  0  0  0  0  0  0  0
   -0.0589    0.8435   -0.9773 H   0  0  0  0  0  0  0  0  0  0  0  0
    2.2947    1.3310    0.5116 H   0  0  0  0  0  0  0  0  0  0  0  0
    2.6512   -1.1647    1.9984 H   0  0  0  0  0  0  0  0  0  0  0  0
    3.8034    0.1332    1.8094 H   0  0  0  0  0  0  0  0  0  0  0  0
    2.7829   -1.3539   -0.8651 H   0  0  0  0  0  0  0  0  0  0  0  0
    2.1621    0.0800   -1.7052 H   0  0  0  0  0  0  0  0  0  0  0  0
    4.1879    0.6269   -1.8404 H   0  0  0  0  0  0  0  0  0  0  0  0
  1  2  1  0
  2  3  2  0
  2  4  1  0
  4  5  1  0
  5  6  1  0
  4  7  1  0
  7  8  1  0
  8  9  2  0
  8 10  1  0
 10 11  1  0
 10 12  1  0
 12 13  1  0
  1 14  1  0
  1 15  1  0
  4 16  1  1
  5 17  1  0
  5 18  1  0
  6 19  1  0
  7 20  1  0
 10 21  1  6
 11 22  1  0
 11 23  1  0
 12 24  1  0
 12 25  1  0
 13 26  1  0
M  END
$$$$

     RDKit          3D

 26 25  0  0  0  0  0  0  0  0999 V2000
   -3.8802    0.5853   -0.2638 N   0  0  0  0  0  0  0  0  0  0  0  0
   -2.5014    0.9313   -0.0396 C   0  0  0  0  0  0  0  0  0  0  0  0
   -2.1660    2.1036    0.2691 O   0  0  0  0  0  0  0  0  0  0  0  0
   -1.5195   -0.1756   -0.1961 C   0  0  1  0  0  0  0  0  0  0  0  0
   -1.6232   -0.6405   -1.6508 C   0  0  0  0  0  0  0  0  0  0  0  0
   -1.3510    0.4590   -2.4787 O   0  0  0  0  0  0  0  0  0  0  0  0
   -0.1958    0.3181    0.0569 N   0  0  0  0  0  0  0  0  0  0  0  0
    0.6360   -0.2647    1.0486 C   0  0  0  0  0  0  0  0  0  0  0  0
    0.2375   -1.2352    1.7388 O   0  0  0  0  0  0  0  0  0  0  0  0
    1.9824    0.2708    1.2748 C   0  0  1  0  0  0  0  0  0  0  0  0
    2.6390   -0.4717    2.3212 N   0  0  0  0  0  0  0  0  0  0  0  0
    2.8016    0.2478   -0.0079 C   0  0  0  0  0  0  0  0  0  0  0  0
    2.9595   -1.0781   -0.4223 O   0  0  0  0  0  0  0  0  0  0  0  0
   -4.5398    1.3390   -0.5553 H   0  0  0  0  0  0  0  0  0  0  0  0
   -4.2320   -0.3767   -0.1458 H   0  0  0  0  0  0  0  0  0  0  0  0
   -1.7225   -1.0142    0.4761 H   0  0  0  0  0  0  0  0  0  0  0  0
   -0.9296   -1.4738   -1.8505 H   0  0  0  0  0  0  0  0  0  0  0  0
   -2.6559   -0.9528   -1.8905 H   0  0  0  0  0  0  0  0  0  0  0  0
   -0.3862    0.5511   -2.5820 H   0  0  0  0  0  0  0  0  0  0  0  0
    0.1540    1.1309   -0.5125 H   0  0  0  0  0  0  0  0  0  0  0  0
    1.8940    1.3299    1.5846 H   0  0  0  0  0  0  0  0  0  0  0  0
    2.4587   -1.4887    2.2276 H   0  0  0  0  0  0  0  0  0  0  0  0
    2.2215   -0.1555    3.2265 H   0  0  0  0  0  0  0  0  0  0  0  0
    3.7483    0.7678    0.1560 H   0  0  0  0  0  0  0  0  0  0  0  0
    2.2366    0.7659   -0.7876 H   0  0  0  0  0  0  0  0  0  0  0  0
    3.7341   -1.4729    0.0567 H   0  0  0  0  0  0  0  0  0  0  0  0
  1  2  1  0
  2  3  2  0
  2  4  1  0
  4  5  1  0
  5  6  1  0
  4  7  1  0
  7  8  1  0
  8  9  2  0
  8 10  1  0
 10 11  1  0
 10 12  1  0
 12 13  1  0
  1 14  1  0
  1 15  1  0
  4 16  1  1
  5 17  1  0
  5 18  1  0
  6 19  1  0
  7 20  1  0
 10 21  1  1
 11 22  1  0
 11 23  1  0
 12 24  1  0
 12 25  1  0
 13 26  1  0
M  END
$$$$

     RDKit          3D

 26 25  0  0  0  0  0  0  0  0999 V2000
   -2.1396    2.2283   -0.0115 N   0  0  0  0  0  0  0  0  0  0  0  0
   -2.1810    0.9898   -0.6434 C   0  0  0  0  0  0  0  0  0  0  0  0
   -2.4291    0.8517   -1.8366 O   0  0  0  0  0  0  0  0  0  0  0  0
   -1.9160   -0.2079    0.2449 C   0  0  1  0  0  0  0  0  0  0  0  0
   -2.4945   -1.4333   -0.2892 C   0  0  0  0  0  0  0  0  0  0  0  0
   -2.3412   -2.5106    0.5644 O   0  0  0  0  0  0  0  0  0  0  0  0
   -0.4920   -0.2533    0.5208 N   0  0  0  0  0  0  0  0  0  0  0  0
    0.5435   -0.0126   -0.3942 C   0  0  0  0  0  0  0  0  0  0  0  0
    0.2563    0.1973   -1.6087 O   0  0  0  0  0  0  0  0  0  0  0  0
    1.9522    0.0044    0.1077 C   0  0  1  0  0  0  0  0  0  0  0  0
    2.2691   -0.8083    1.1840 N   0  0  0  0  0  0  0  0  0  0  0  0
    2.9738    0.0561   -0.9649 C   0  0  0  0  0  0  0  0  0  0  0  0
    4.1572    0.5658   -0.3622 O   0  0  0  0  0  0  0  0  0  0  0  0
   -1.1916    2.7252   -0.0138 H   0  0  0  0  0  0  0  0  0  0  0  0
   -2.9368    2.6581    0.4420 H   0  0  0  0  0  0  0  0  0  0  0  0
   -2.4394    0.0770    1.2100 H   0  0  0  0  0  0  0  0  0  0  0  0
   -2.1723   -1.6769   -1.3331 H   0  0  0  0  0  0  0  0  0  0  0  0
   -3.6125   -1.2741   -0.3772 H   0  0  0  0  0  0  0  0  0  0  0  0
   -2.4600   -2.1147    1.4872 H   0  0  0  0  0  0  0  0  0  0  0  0
   -0.1626   -0.4737    1.5131 H   0  0  0  0  0  0  0  0  0  0  0  0
    2.0421    1.1102    0.5781 H   0  0  0  0  0  0  0  0  0  0  0  0
    2.2533   -0.4090    2.1302 H   0  0  0  0  0  0  0  0  0  0  0  0
    2.5520   -1.7728    1.0764 H   0  0  0  0  0  0  0  0  0  0  0  0
    3.2039   -0.8822   -1.4512 H   0  0  0  0  0  0  0  0  0  0  0  0
    2.6890    0.8757   -1.6900 H   0  0  0  0  0  0  0  0  0  0  0  0
    4.0761    1.4900   -0.0829 H   0  0  0  0  0  0  0  0  0  0  0  0
  1  2  1  0
  2  3  2  0
  2  4  1  0
  4  5  1  0
  5  6  1  0
  4  7  1  0
  7  8  1  0
  8  9  2  0
  8 10  1  0
 10 11  1  0
 10 12  1  0
 12 13  1  0
  1 14  1  0
  1 15  1  0
  4 16  1  1
  5 17  1  0
  5 18  1  0
  6 19  1  0
  7 20  1  0
 10 21  1  1
 11 22  1  0
 11 23  1  0
 12 24  1  0
 12 25  1  0
 13 26  1  0
M  END
$$$$

     RDKit          3D

 26 25  0  0  0  0  0  0  0  0999 V2000
   -3.2590    1.8064    0.5369 N   0  0  0  0  0  0  0  0  0  0  0  0
   -2.0203    1.3375    0.0554 C   0  0  0  0  0  0  0  0  0  0  0  0
   -1.2974    2.1148   -0.6209 O   0  0  0  0  0  0  0  0  0  0  0  0
   -1.5071   -0.0276    0.2962 C   0  0  1  0  0  0  0  0  0  0  0  0
   -2.4934   -1.0965   -0.1006 C   0  0  0  0  0  0  0  0  0  0  0  0
   -2.7113   -1.1425   -1.4690 O   0  0  0  0  0  0  0  0  0  0  0  0
   -0.2106   -0.2275   -0.3172 N   0  0  0  0  0  0  0  0  0  0  0  0
    0.9556   -0.4910    0.4486 C   0  0  0  0  0  0  0  0  0  0  0  0
    0.8314   -0.5476    1.6993 O   0  0  0  0  0  0  0  0  0  0  0  0
    2.2951   -0.6994   -0.1539 C   0  0  1  0  0  0  0  0  0  0  0  0
    2.2450   -0.5991   -1.5863 N   0  0  0  0  0  0  0  0  0  0  0  0
    3.2936    0.2848    0.3926 C   0  0  0  0  0  0  0  0  0  0  0  0
    3.4040    0.2544    1.7593 O   0  0  0  0  0  0  0  0  0  0  0  0
   -4.1705    1.6480    0.0528 H   0  0  0  0  0  0  0  0  0  0  0  0
   -3.2825    2.3458    1.4296 H   0  0  0  0  0  0  0  0  0  0  0  0
   -1.3656   -0.1234    1.3978 H   0  0  0  0  0  0  0  0  0  0  0  0
   -3.4001   -0.9678    0.4930 H   0  0  0  0  0  0  0  0  0  0  0  0
   -2.0329   -2.0734    0.1882 H   0  0  0  0  0  0  0  0  0  0  0  0
   -3.4197   -1.8178   -1.6216 H   0  0  0  0  0  0  0  0  0  0  0  0
   -0.1041   -0.1799   -1.3745 H   0  0  0  0  0  0  0  0  0  0  0  0
    2.6060   -1.7429    0.1273 H   0  0  0  0  0  0  0  0  0  0  0  0
    3.1874   -0.8659   -1.9512 H   0  0  0  0  0  0  0  0  0  0  0  0
    2.1225    0.4145   -1.8488 H   0  0  0  0  0  0  0  0  0  0  0  0
    4.2938    0.0366   -0.0309 H   0  0  0  0  0  0  0  0  0  0  0  0
    3.0351    1.3006    0.0234 H   0  0  0  0  0  0  0  0  0  0  0  0
    3.0049    1.0590    2.1746 H   0  0  0  0  0  0  0  0  0  0  0  0
  1  2  1  0
  2  3  2  0
  2  4  1  0
  4  5  1  0
  5  6  1  0
  4  7  1  0
  7  8  1  0
  8  9  2  0
  8 10  1  0
 10 11  1  0
 10 12  1  0
 12 13  1  0
  1 14  1  0
  1 15  1  0
  4 16  1  1
  5 17  1  0
  5 18  1  0
  6 19  1  0
  7 20  1  0
 10 21  1  6
 11 22  1  0
 11 23  1  0
 12 24  1  0
 12 25  1  0
 13 26  1  0
M  END
$$$$

     RDKit          3D

 26 25  0  0  0  0  0  0  0  0999 V2000
    3.5591    1.0002   -0.8016 N   0  0  0  0  0  0  0  0  0  0  0  0
    2.2267    0.9094   -0.3197 C   0  0  0  0  0  0  0  0  0  0  0  0
    1.6177    1.9762   -0.0718 O   0  0  0  0  0  0  0  0  0  0  0  0
    1.5233   -0.3738   -0.0961 C   0  0  1  0  0  0  0  0  0  0  0  0
    2.3660   -1.1659    0.8762 C   0  0  0  0  0  0  0  0  0  0  0  0
    3.6200   -1.3325    0.2840 O   0  0  0  0  0  0  0  0  0  0  0  0
    0.1953   -0.1288    0.3928 N   0  0  0  0  0  0  0  0  0  0  0  0
   -0.9992   -0.5058   -0.2801 C   0  0  0  0  0  0  0  0  0  0  0  0
   -0.9079   -1.0963   -1.3823 O   0  0  0  0  0  0  0  0  0  0  0  0
   -2.3587   -0.2351    0.2575 C   0  0  1  0  0  0  0  0  0  0  0  0
   -2.3242    0.4439    1.5215 N   0  0  0  0  0  0  0  0  0  0  0  0
   -3.0931    0.6646   -0.7451 C   0  0  0  0  0  0  0  0  0  0  0  0
   -4.3786    0.9311   -0.3444 O   0  0  0  0  0  0  0  0  0  0  0  0
    4.2887    1.3288   -0.1118 H   0  0  0  0  0  0  0  0  0  0  0  0
    3.8114    0.7537   -1.7947 H   0  0  0  0  0  0  0  0  0  0  0  0
    1.5201   -0.9020   -1.0793 H   0  0  0  0  0  0  0  0  0  0  0  0
    2.5333   -0.6025    1.8147 H   0  0  0  0  0  0  0  0  0  0  0  0
    1.9681   -2.1633    1.0910 H   0  0  0  0  0  0  0  0  0  0  0  0
    3.6022   -2.0080   -0.4372 H   0  0  0  0  0  0  0  0  0  0  0  0
    0.0706    0.3593    1.3050 H   0  0  0  0  0  0  0  0  0  0  0  0
   -2.9550   -1.1707    0.3850 H   0  0  0  0  0  0  0  0  0  0  0  0
   -3.0112    0.0783    2.2174 H   0  0  0  0  0  0  0  0  0  0  0  0
   -2.5580    1.4736    1.4142 H   0  0  0  0  0  0  0  0  0  0  0  0
   -3.1242    0.0579   -1.6926 H   0  0  0  0  0  0  0  0  0  0  0  0
   -2.4808    1.5470   -0.9638 H   0  0  0  0  0  0  0  0  0  0  0  0
   -4.7115    0.1609    0.1697 H   0  0  0  0  0  0  0  0  0  0  0  0
  1  2  1  0
  2  3  2  0
  2  4  1  0
  4  5  1  0
  5  6  1  0
  4  7  1  0
  7  8  1  0
  8  9  2  0
  8 10  1  0
 10 11  1  0
 10 12  1  0
 12 13  1  0
  1 14  1  0
  1 15  1  0
  4 16  1  6
  5 17  1  0
  5 18  1  0
  6 19  1  0
  7 20  1  0
 10 21  1  1
 11 22  1  0
 11 23  1  0
 12 24  1  0
 12 25  1  0
 13 26  1  0
M  END
$$$$
