
     RDKit          3D

 23 23  0  0  0  0  0  0  0  0999 V2000
   -4.2931    1.4899   -0.3948 N   0  0  0  0  0  0  0  0  0  0  0  0
   -3.8281    0.2981    0.2752 C   0  0  0  0  0  0  0  0  0  0  0  0
   -2.3845    0.0558    0.0709 C   0  0  0  0  0  0  0  0  0  0  0  0
   -1.9698   -0.6948   -0.9914 C   0  0  0  0  0  0  0  0  0  0  0  0
   -0.6680   -0.9344   -1.2067 N   0  0  0  0  0  0  0  0  0  0  0  0
    0.2912   -0.4385   -0.3745 C   0  0  0  0  0  0  0  0  0  0  0  0
    1.7027   -0.7183   -0.6375 C   0  0  0  0  0  0  0  0  0  0  0  0
    2.0088   -1.4172   -1.6352 O   0  0  0  0  0  0  0  0  0  0  0  0
    2.7282   -0.2269    0.1952 N   0  0  0  0  0  0  0  0  0  0  0  0
    4.1011   -0.5128   -0.0808 C   0  0  0  0  0  0  0  0  0  0  0  0
    5.1433   -0.0180    0.7586 N   0  0  0  0  0  0  0  0  0  0  0  0
    4.3395   -1.2174   -1.0940 O   0  0  0  0  0  0  0  0  0  0  0  0
   -0.1297    0.3187    0.6968 C   0  0  0  0  0  0  0  0  0  0  0  0
   -1.4520    0.5486    0.8957 N   0  0  0  0  0  0  0  0  0  0  0  0
   -5.1860    1.3515   -0.9099 H   0  0  0  0  0  0  0  0  0  0  0  0
   -3.5581    1.9725   -0.9479 H   0  0  0  0  0  0  0  0  0  0  0  0
   -4.3946   -0.5882   -0.0705 H   0  0  0  0  0  0  0  0  0  0  0  0
   -3.9872    0.4844    1.3770 H   0  0  0  0  0  0  0  0  0  0  0  0
   -2.6844   -1.1227   -1.6974 H   0  0  0  0  0  0  0  0  0  0  0  0
    2.5539    0.3575    1.0380 H   0  0  0  0  0  0  0  0  0  0  0  0
    6.1074   -0.3790    0.6050 H   0  0  0  0  0  0  0  0  0  0  0  0
    4.9427    0.6704    1.4874 H   0  0  0  0  0  0  0  0  0  0  0  0
    0.6167    0.7205    1.3679 H   0  0  0  0  0  0  0  0  0  0  0  0
  1  2  1  0
  2  3  1  0
  3  4  2  0
  4  5  1  0
  5  6  2  0
  6  7  1  0
  7  8  2  0
  7  9  1  0
  9 10  1  0
 10 11  1  0
 10 12  2  0
  6 13  1  0
 13 14  2  0
 14  3  1  0
  1 15  1  0
  1 16  1  0
  2 17  1  0
  2 18  1  0
  4 19  1  0
  9 20  1  0
 11 21  1  0
 11 22  1  0
 13 23  1  0
M  END
$$$$

     RDKit          3D

 23 23  0  0  0  0  0  0  0  0999 V2000
   -4.0098    1.2757   -1.1672 N   0  0  0  0  0  0  0  0  0  0  0  0
   -3.8881    0.1979   -0.2123 C   0  0  0  0  0  0  0  0  0  0  0  0
   -2.4506   -0.0538    0.0288 C   0  0  0  0  0  0  0  0  0  0  0  0
   -2.0364   -1.0548    0.9190 C   0  0  0  0  0  0  0  0  0  0  0  0
   -0.7376   -1.2460    1.1049 N   0  0  0  0  0  0  0  0  0  0  0  0
    0.2132   -0.5123    0.4686 C   0  0  0  0  0  0  0  0  0  0  0  0
    1.6268   -0.7762    0.7201 C   0  0  0  0  0  0  0  0  0  0  0  0
    1.9378   -1.6879    1.5300 O   0  0  0  0  0  0  0  0  0  0  0  0
    2.6690   -0.0729    0.1119 N   0  0  0  0  0  0  0  0  0  0  0  0
    4.0600   -0.3564    0.3806 C   0  0  0  0  0  0  0  0  0  0  0  0
    5.0478    0.4102   -0.2843 N   0  0  0  0  0  0  0  0  0  0  0  0
    4.3128   -1.2730    1.1940 O   0  0  0  0  0  0  0  0  0  0  0  0
   -0.2432    0.4575   -0.3946 C   0  0  0  0  0  0  0  0  0  0  0  0
   -1.5445    0.6910   -0.6178 N   0  0  0  0  0  0  0  0  0  0  0  0
   -4.0740    0.8315   -2.1189 H   0  0  0  0  0  0  0  0  0  0  0  0
   -3.1572    1.8977   -1.1100 H   0  0  0  0  0  0  0  0  0  0  0  0
   -4.3277    0.4952    0.7684 H   0  0  0  0  0  0  0  0  0  0  0  0
   -4.4060   -0.7160   -0.6049 H   0  0  0  0  0  0  0  0  0  0  0  0
   -2.8183   -1.6270    1.4148 H   0  0  0  0  0  0  0  0  0  0  0  0
    2.4617    0.6894   -0.5646 H   0  0  0  0  0  0  0  0  0  0  0  0
    5.9724   -0.0148   -0.4593 H   0  0  0  0  0  0  0  0  0  0  0  0
    4.8779    1.3817   -0.6019 H   0  0  0  0  0  0  0  0  0  0  0  0
    0.5141    1.0632   -0.9203 H   0  0  0  0  0  0  0  0  0  0  0  0
  1  2  1  0
  2  3  1  0
  3  4  2  0
  4  5  1  0
  5  6  2  0
  6  7  1  0
  7  8  2  0
  7  9  1  0
  9 10  1  0
 10 11  1  0
 10 12  2  0
  6 13  1  0
 13 14  2  0
 14  3  1  0
  1 15  1  0
  1 16  1  0
  2 17  1  0
  2 18  1  0
  4 19  1  0
  9 20  1  0
 11 21  1  0
 11 22  1  0
 13 23  1  0
M  END
$$$$

     RDKit          3D

 23 23  0  0  0  0  0  0  0  0999 V2000
   -4.4918   -0.0351   -0.5801 N   0  0  0  0  0  0  0  0  0  0  0  0
   -3.8402    0.1147    0.6821 C   0  0  0  0  0  0  0  0  0  0  0  0
   -2.3617   -0.0542    0.6069 C   0  0  0  0  0  0  0  0  0  0  0  0
   -1.8275   -1.3173    0.7790 C   0  0  0  0  0  0  0  0  0  0  0  0
   -0.5095   -1.5250    0.7214 N   0  0  0  0  0  0  0  0  0  0  0  0
    0.3115   -0.4842    0.4916 C   0  0  0  0  0  0  0  0  0  0  0  0
    1.7493   -0.7281    0.4317 C   0  0  0  0  0  0  0  0  0  0  0  0
    2.1792   -1.9212    0.5993 O   0  0  0  0  0  0  0  0  0  0  0  0
    2.6997    0.2926    0.1963 N   0  0  0  0  0  0  0  0  0  0  0  0
    4.1033   -0.0422    0.1539 C   0  0  0  0  0  0  0  0  0  0  0  0
    5.0529    0.9885   -0.0831 N   0  0  0  0  0  0  0  0  0  0  0  0
    4.4215   -1.2294    0.3283 O   0  0  0  0  0  0  0  0  0  0  0  0
   -0.1955    0.7773    0.3180 C   0  0  0  0  0  0  0  0  0  0  0  0
   -1.5357    0.9809    0.3778 N   0  0  0  0  0  0  0  0  0  0  0  0
   -4.1960   -0.8462   -1.1401 H   0  0  0  0  0  0  0  0  0  0  0  0
   -4.4433    0.8277   -1.1481 H   0  0  0  0  0  0  0  0  0  0  0  0
   -4.2789   -0.5174    1.4937 H   0  0  0  0  0  0  0  0  0  0  0  0
   -4.0113    1.1771    1.0152 H   0  0  0  0  0  0  0  0  0  0  0  0
   -2.5098   -2.1595    0.9661 H   0  0  0  0  0  0  0  0  0  0  0  0
    2.4046    1.2941    0.0511 H   0  0  0  0  0  0  0  0  0  0  0  0
    4.9971    1.5837   -0.9353 H   0  0  0  0  0  0  0  0  0  0  0  0
    5.8256    1.1763    0.5841 H   0  0  0  0  0  0  0  0  0  0  0  0
    0.4568    1.6469    0.1283 H   0  0  0  0  0  0  0  0  0  0  0  0
  1  2  1  0
  2  3  1  0
  3  4  2  0
  4  5  1  0
  5  6  2  0
  6  7  1  0
  7  8  2  0
  7  9  1  0
  9 10  1  0
 10 11  1  0
 10 12  2  0
  6 13  1  0
 13 14  2  0
 14  3  1  0
  1 15  1  0
  1 16  1  0
  2 17  1  0
  2 18  1  0
  4 19  1  0
  9 20  1  0
 11 21  1  0
 11 22  1  0
 13 23  1  0
M  END
$$$$

     RDKit          3D

 23 23  0  0  0  0  0  0  0  0999 V2000
   -4.5386   -0.0296    0.4472 N   0  0  0  0  0  0  0  0  0  0  0  0
   -3.7884    0.7989   -0.4837 C   0  0  0  0  0  0  0  0  0  0  0  0
   -2.3566    0.4036   -0.4623 C   0  0  0  0  0  0  0  0  0  0  0  0
   -1.4530    0.9872    0.4045 C   0  0  0  0  0  0  0  0  0  0  0  0
   -0.1566    0.6328    0.4276 N   0  0  0  0  0  0  0  0  0  0  0  0
    0.3301   -0.3144   -0.3978 C   0  0  0  0  0  0  0  0  0  0  0  0
    1.7459   -0.7026   -0.3739 C   0  0  0  0  0  0  0  0  0  0  0  0
    2.1155   -1.5918   -1.1745 O   0  0  0  0  0  0  0  0  0  0  0  0
    2.6792   -0.1166    0.5043 N   0  0  0  0  0  0  0  0  0  0  0  0
    4.0583   -0.4871    0.5354 C   0  0  0  0  0  0  0  0  0  0  0  0
    4.9739    0.1152    1.4249 N   0  0  0  0  0  0  0  0  0  0  0  0
    4.4726   -1.3751   -0.2508 O   0  0  0  0  0  0  0  0  0  0  0  0
   -0.5641   -0.9020   -1.2658 C   0  0  0  0  0  0  0  0  0  0  0  0
   -1.8587   -0.5417   -1.2823 N   0  0  0  0  0  0  0  0  0  0  0  0
   -4.1137    0.1227    1.3910 H   0  0  0  0  0  0  0  0  0  0  0  0
   -4.3646   -1.0435    0.2121 H   0  0  0  0  0  0  0  0  0  0  0  0
   -4.2174    0.7891   -1.4995 H   0  0  0  0  0  0  0  0  0  0  0  0
   -3.9023    1.8598   -0.1235 H   0  0  0  0  0  0  0  0  0  0  0  0
   -1.8612    1.7542    1.0686 H   0  0  0  0  0  0  0  0  0  0  0  0
    2.3388    0.6196    1.1570 H   0  0  0  0  0  0  0  0  0  0  0  0
    5.3957    1.0612    1.2743 H   0  0  0  0  0  0  0  0  0  0  0  0
    5.2675   -0.3868    2.2927 H   0  0  0  0  0  0  0  0  0  0  0  0
   -0.2024   -1.6531   -1.9275 H   0  0  0  0  0  0  0  0  0  0  0  0
  1  2  1  0
  2  3  1  0
  3  4  2  0
  4  5  1  0
  5  6  2  0
  6  7  1  0
  7  8  2  0
  7  9  1  0
  9 10  1  0
 10 11  1  0
 10 12  2  0
  6 13  1  0
 13 14  2  0
 14  3  1  0
  1 15  1  0
  1 16  1  0
  2 17  1  0
  2 18  1  0
  4 19  1  0
  9 20  1  0
 11 21  1  0
 11 22  1  0
 13 23  1  0
M  END
$$$$

     RDKit          3D

 23 23  0  0  0  0  0  0  0  0999 V2000
   -4.5153   -0.1638   -0.7996 N   0  0  0  0  0  0  0  0  0  0  0  0
   -3.8215    0.0597    0.4357 C   0  0  0  0  0  0  0  0  0  0  0  0
   -2.3628   -0.0992    0.3369 C   0  0  0  0  0  0  0  0  0  0  0  0
   -1.4949    0.9336    0.0250 C   0  0  0  0  0  0  0  0  0  0  0  0
   -0.1680    0.7366   -0.0531 N   0  0  0  0  0  0  0  0  0  0  0  0
    0.3743   -0.4815    0.1703 C   0  0  0  0  0  0  0  0  0  0  0  0
    1.7989   -0.7264    0.0940 C   0  0  0  0  0  0  0  0  0  0  0  0
    2.2328   -1.8822    0.3134 O   0  0  0  0  0  0  0  0  0  0  0  0
    2.7525    0.2730   -0.2183 N   0  0  0  0  0  0  0  0  0  0  0  0
    4.1289    0.0007   -0.2841 C   0  0  0  0  0  0  0  0  0  0  0  0
    5.0345    1.0515   -0.6034 N   0  0  0  0  0  0  0  0  0  0  0  0
    4.5853   -1.1642   -0.0647 O   0  0  0  0  0  0  0  0  0  0  0  0
   -0.4789   -1.5187    0.4818 C   0  0  0  0  0  0  0  0  0  0  0  0
   -1.8046   -1.3024    0.5555 N   0  0  0  0  0  0  0  0  0  0  0  0
   -3.9095   -0.1931   -1.6364 H   0  0  0  0  0  0  0  0  0  0  0  0
   -5.2644    0.5825   -0.8669 H   0  0  0  0  0  0  0  0  0  0  0  0
   -4.1932   -0.7070    1.1626 H   0  0  0  0  0  0  0  0  0  0  0  0
   -4.0281    1.0384    0.8884 H   0  0  0  0  0  0  0  0  0  0  0  0
   -1.9442    1.9072   -0.1521 H   0  0  0  0  0  0  0  0  0  0  0  0
    2.3866    1.2360   -0.4007 H   0  0  0  0  0  0  0  0  0  0  0  0
    6.0351    1.0424   -0.3234 H   0  0  0  0  0  0  0  0  0  0  0  0
    4.7065    1.8903   -1.1472 H   0  0  0  0  0  0  0  0  0  0  0  0
   -0.0500   -2.5132    0.6655 H   0  0  0  0  0  0  0  0  0  0  0  0
  1  2  1  0
  2  3  1  0
  3  4  2  0
  4  5  1  0
  5  6  2  0
  6  7  1  0
  7  8  2  0
  7  9  1  0
  9 10  1  0
 10 11  1  0
 10 12  2  0
  6 13  1  0
 13 14  2  0
 14  3  1  0
  1 15  1  0
  1 16  1  0
  2 17  1  0
  2 18  1  0
  4 19  1  0
  9 20  1  0
 11 21  1  0
 11 22  1  0
 13 23  1  0
M  END
$$$$

     RDKit          3D

 23 23  0  0  0  0  0  0  0  0999 V2000
    4.6672    0.2900   -0.0488 N   0  0  0  0  0  0  0  0  0  0  0  0
    3.6753   -0.4130   -0.8392 C   0  0  0  0  0  0  0  0  0  0  0  0
    2.2931   -0.1106   -0.3868 C   0  0  0  0  0  0  0  0  0  0  0  0
    1.2656   -0.7285   -1.0695 C   0  0  0  0  0  0  0  0  0  0  0  0
   -0.0225   -0.4820   -0.6905 N   0  0  0  0  0  0  0  0  0  0  0  0
   -0.3086    0.3446    0.3272 C   0  0  0  0  0  0  0  0  0  0  0  0
   -1.6951    0.5907    0.7120 C   0  0  0  0  0  0  0  0  0  0  0  0
   -2.0040    1.3582    1.6594 O   0  0  0  0  0  0  0  0  0  0  0  0
   -2.7737   -0.0322    0.0267 N   0  0  0  0  0  0  0  0  0  0  0  0
   -4.1330    0.2280    0.4268 C   0  0  0  0  0  0  0  0  0  0  0  0
   -5.2027   -0.3997   -0.2647 N   0  0  0  0  0  0  0  0  0  0  0  0
   -4.3786    1.0069    1.3840 O   0  0  0  0  0  0  0  0  0  0  0  0
    0.7432    0.9417    0.9833 C   0  0  0  0  0  0  0  0  0  0  0  0
    2.0253    0.7177    0.6318 N   0  0  0  0  0  0  0  0  0  0  0  0
    5.5743   -0.2146   -0.1842 H   0  0  0  0  0  0  0  0  0  0  0  0
    4.4278    0.2514    0.9878 H   0  0  0  0  0  0  0  0  0  0  0  0
    3.8259   -0.0878   -1.8974 H   0  0  0  0  0  0  0  0  0  0  0  0
    3.8483   -1.5058   -0.7902 H   0  0  0  0  0  0  0  0  0  0  0  0
    1.4834   -1.4087   -1.9058 H   0  0  0  0  0  0  0  0  0  0  0  0
   -2.5763   -0.6767   -0.7650 H   0  0  0  0  0  0  0  0  0  0  0  0
   -6.1561    0.0250   -0.2858 H   0  0  0  0  0  0  0  0  0  0  0  0
   -5.0582   -1.3026   -0.7687 H   0  0  0  0  0  0  0  0  0  0  0  0
    0.4795    1.6081    1.8058 H   0  0  0  0  0  0  0  0  0  0  0  0
  1  2  1  0
  2  3  1  0
  3  4  2  0
  4  5  1  0
  5  6  2  0
  6  7  1  0
  7  8  2  0
  7  9  1  0
  9 10  1  0
 10 11  1  0
 10 12  2  0
  6 13  1  0
 13 14  2  0
 14  3  1  0
  1 15  1  0
  1 16  1  0
  2 17  1  0
  2 18  1  0
  4 19  1  0
  9 20  1  0
 11 21  1  0
 11 22  1  0
 13 23  1  0
M  END
$$$$

     RDKit          3D

 23 23  0  0  0  0  0  0  0  0999 V2000
   -4.1957    1.1028    0.5645 N   0  0  0  0  0  0  0  0  0  0  0  0
   -3.8271   -0.0397   -0.2063 C   0  0  0  0  0  0  0  0  0  0  0  0
   -2.3628   -0.2508   -0.2659 C   0  0  0  0  0  0  0  0  0  0  0  0
   -1.5295    0.6156    0.3850 C   0  0  0  0  0  0  0  0  0  0  0  0
   -0.1955    0.4107    0.3218 N   0  0  0  0  0  0  0  0  0  0  0  0
    0.3276   -0.6155   -0.3595 C   0  0  0  0  0  0  0  0  0  0  0  0
    1.7543   -0.8325   -0.4257 C   0  0  0  0  0  0  0  0  0  0  0  0
    2.2866   -1.7801   -1.0519 O   0  0  0  0  0  0  0  0  0  0  0  0
    2.6116    0.0730    0.2536 N   0  0  0  0  0  0  0  0  0  0  0  0
    4.0246   -0.0765    0.2337 C   0  0  0  0  0  0  0  0  0  0  0  0
    4.9023    0.8201    0.9081 N   0  0  0  0  0  0  0  0  0  0  0  0
    4.4818   -1.0520   -0.4162 O   0  0  0  0  0  0  0  0  0  0  0  0
   -0.5164   -1.4808   -1.0103 C   0  0  0  0  0  0  0  0  0  0  0  0
   -1.8691   -1.2883   -0.9569 N   0  0  0  0  0  0  0  0  0  0  0  0
   -4.2449    0.9290    1.5899 H   0  0  0  0  0  0  0  0  0  0  0  0
   -3.7587    1.9887    0.2906 H   0  0  0  0  0  0  0  0  0  0  0  0
   -4.2872   -0.9363    0.2894 H   0  0  0  0  0  0  0  0  0  0  0  0
   -4.2723    0.0503   -1.2196 H   0  0  0  0  0  0  0  0  0  0  0  0
   -1.9012    1.4752    0.9596 H   0  0  0  0  0  0  0  0  0  0  0  0
    2.2334    0.8898    0.7981 H   0  0  0  0  0  0  0  0  0  0  0  0
    5.2488    0.5750    1.8434 H   0  0  0  0  0  0  0  0  0  0  0  0
    5.1751    1.7241    0.4192 H   0  0  0  0  0  0  0  0  0  0  0  0
   -0.0855   -2.3018   -1.5547 H   0  0  0  0  0  0  0  0  0  0  0  0
  1  2  1  0
  2  3  1  0
  3  4  2  0
  4  5  1  0
  5  6  2  0
  6  7  1  0
  7  8  2  0
  7  9  1  0
  9 10  1  0
 10 11  1  0
 10 12  2  0
  6 13  1  0
 13 14  2  0
 14  3  1  0
  1 15  1  0
  1 16  1  0
  2 17  1  0
  2 18  1  0
  4 19  1  0
  9 20  1  0
 11 21  1  0
 11 22  1  0
 13 23  1  0
M  END
$$$$

     RDKit          3D

 23 23  0  0  0  0  0  0  0  0999 V2000
   -4.6027    0.3598   -0.5678 N   0  0  0  0  0  0  0  0  0  0  0  0
   -3.6994    1.1453    0.2488 C   0  0  0  0  0  0  0  0  0  0  0  0
   -2.3335    0.6365    0.0200 C   0  0  0  0  0  0  0  0  0  0  0  0
   -1.2256    1.1929    0.6703 C   0  0  0  0  0  0  0  0  0  0  0  0
    0.0149    0.7183    0.4518 N   0  0  0  0  0  0  0  0  0  0  0  0
    0.2492   -0.3010   -0.3914 C   0  0  0  0  0  0  0  0  0  0  0  0
    1.5817   -0.8335   -0.6458 C   0  0  0  0  0  0  0  0  0  0  0  0
    1.7299   -1.7842   -1.4430 O   0  0  0  0  0  0  0  0  0  0  0  0
    2.7467   -0.3192   -0.0229 N   0  0  0  0  0  0  0  0  0  0  0  0
    4.0380   -0.8498   -0.2819 C   0  0  0  0  0  0  0  0  0  0  0  0
    5.2029   -0.3375    0.3392 N   0  0  0  0  0  0  0  0  0  0  0  0
    4.2016   -1.8230   -1.0962 O   0  0  0  0  0  0  0  0  0  0  0  0
   -0.8484   -0.8399   -1.0251 C   0  0  0  0  0  0  0  0  0  0  0  0
   -2.1016   -0.3727   -0.8149 N   0  0  0  0  0  0  0  0  0  0  0  0
   -4.0775    0.0819   -1.4273 H   0  0  0  0  0  0  0  0  0  0  0  0
   -4.9468   -0.4937   -0.1137 H   0  0  0  0  0  0  0  0  0  0  0  0
   -3.9595    1.0847    1.3295 H   0  0  0  0  0  0  0  0  0  0  0  0
   -3.8227    2.1985   -0.0627 H   0  0  0  0  0  0  0  0  0  0  0  0
   -1.4441    2.0120    1.3432 H   0  0  0  0  0  0  0  0  0  0  0  0
    2.6445    0.4700    0.6420 H   0  0  0  0  0  0  0  0  0  0  0  0
    5.2090   -0.0269    1.3367 H   0  0  0  0  0  0  0  0  0  0  0  0
    6.0996   -0.2551   -0.1902 H   0  0  0  0  0  0  0  0  0  0  0  0
   -0.6565   -1.6633   -1.7058 H   0  0  0  0  0  0  0  0  0  0  0  0
  1  2  1  0
  2  3  1  0
  3  4  2  0
  4  5  1  0
  5  6  2  0
  6  7  1  0
  7  8  2  0
  7  9  1  0
  9 10  1  0
 10 11  1  0
 10 12  2  0
  6 13  1  0
 13 14  2  0
 14  3  1  0
  1 15  1  0
  1 16  1  0
  2 17  1  0
  2 18  1  0
  4 19  1  0
  9 20  1  0
 11 21  1  0
 11 22  1  0
 13 23  1  0
M  END
$$$$
