
     RDKit          3D

 20 20  0  0  0  0  0  0  0  0999 V2000
    0.8502    1.9669   -1.4613 O   0  0  0  0  0  0  0  0  0  0  0  0
    1.1561    1.0845   -0.6188 C   0  0  0  0  0  0  0  0  0  0  0  0
    2.2594    1.2951    0.1918 O   0  0  0  0  0  0  0  0  0  0  0  0
    0.3859   -0.1763   -0.4533 C   0  0  0  0  0  0  0  0  0  0  0  0
    1.2347   -1.3779   -0.6422 C   0  0  0  0  0  0  0  0  0  0  0  0
    0.9275   -2.2548   -1.5072 O   0  0  0  0  0  0  0  0  0  0  0  0
    2.3763   -1.5941    0.0998 O   0  0  0  0  0  0  0  0  0  0  0  0
   -0.2477   -0.2279    0.9396 C   0  0  0  0  0  0  0  0  0  0  0  0
   -1.5648    0.4595    0.7042 C   0  0  2  0  0  0  0  0  0  0  0  0
   -2.6296   -0.2537    1.2271 O   0  0  0  0  0  0  0  0  0  0  0  0
   -1.7119    0.5169   -0.8028 C   0  0  0  0  0  0  0  0  0  0  0  0
   -0.6832   -0.2348   -1.3340 O   0  0  0  0  0  0  0  0  0  0  0  0
    2.9018    2.0315   -0.0296 H   0  0  0  0  0  0  0  0  0  0  0  0
    2.8340   -2.5130    0.0983 H   0  0  0  0  0  0  0  0  0  0  0  0
    0.3709    0.3803    1.6242 H   0  0  0  0  0  0  0  0  0  0  0  0
   -0.3620   -1.2844    1.2775 H   0  0  0  0  0  0  0  0  0  0  0  0
   -1.5479    1.4933    1.1037 H   0  0  0  0  0  0  0  0  0  0  0  0
   -2.2770   -0.9101    1.8787 H   0  0  0  0  0  0  0  0  0  0  0  0
   -2.6657    0.0424   -1.1445 H   0  0  0  0  0  0  0  0  0  0  0  0
   -1.6070    1.5567   -1.1510 H   0  0  0  0  0  0  0  0  0  0  0  0
  1  2  2  0
  2  3  1  0
  2  4  1  0
  4  5  1  0
  5  6  2  0
  5  7  1  0
  4  8  1  0
  8  9  1  0
  9 10  1  0
  9 11  1  0
 11 12  1  0
 12  4  1  0
  3 13  1  0
  7 14  1  0
  8 15  1  0
  8 16  1  0
  9 17  1  1
 10 18  1  0
 11 19  1  0
 11 20  1  0
M  END
$$$$

     RDKit          3D

 20 20  0  0  0  0  0  0  0  0999 V2000
    0.6517    2.3023   -1.1935 O   0  0  0  0  0  0  0  0  0  0  0  0
    0.9033    1.5993   -0.1847 C   0  0  0  0  0  0  0  0  0  0  0  0
    1.4731    2.2122    0.9248 O   0  0  0  0  0  0  0  0  0  0  0  0
    0.5868    0.1371   -0.2029 C   0  0  0  0  0  0  0  0  0  0  0  0
    1.8383   -0.5861    0.0418 C   0  0  0  0  0  0  0  0  0  0  0  0
    2.4895   -0.4049    1.1027 O   0  0  0  0  0  0  0  0  0  0  0  0
    2.2986   -1.4757   -0.9124 O   0  0  0  0  0  0  0  0  0  0  0  0
   -0.4531   -0.1338    0.8766 C   0  0  0  0  0  0  0  0  0  0  0  0
   -1.7221   -0.0322    0.0276 C   0  0  2  0  0  0  0  0  0  0  0  0
   -2.7890   -0.6718    0.5947 O   0  0  0  0  0  0  0  0  0  0  0  0
   -1.2147   -0.7209   -1.2293 C   0  0  0  0  0  0  0  0  0  0  0  0
    0.0377   -0.2003   -1.4068 O   0  0  0  0  0  0  0  0  0  0  0  0
    1.1749    3.1533    1.1831 H   0  0  0  0  0  0  0  0  0  0  0  0
    2.9571   -2.2172   -0.6908 H   0  0  0  0  0  0  0  0  0  0  0  0
   -0.4268    0.6134    1.6753 H   0  0  0  0  0  0  0  0  0  0  0  0
   -0.2903   -1.1447    1.2567 H   0  0  0  0  0  0  0  0  0  0  0  0
   -1.9183    1.0222   -0.1753 H   0  0  0  0  0  0  0  0  0  0  0  0
   -2.5955   -1.1127    1.4527 H   0  0  0  0  0  0  0  0  0  0  0  0
   -1.8766   -0.5342   -2.0949 H   0  0  0  0  0  0  0  0  0  0  0  0
   -1.1245   -1.8054   -1.0456 H   0  0  0  0  0  0  0  0  0  0  0  0
  1  2  2  0
  2  3  1  0
  2  4  1  0
  4  5  1  0
  5  6  2  0
  5  7  1  0
  4  8  1  0
  8  9  1  0
  9 10  1  0
  9 11  1  0
 11 12  1  0
 12  4  1  0
  3 13  1  0
  7 14  1  0
  8 15  1  0
  8 16  1  0
  9 17  1  6
 10 18  1  0
 11 19  1  0
 11 20  1  0
M  END
$$$$

     RDKit          3D

 20 20  0  0  0  0  0  0  0  0999 V2000
    1.5112    1.7817    1.3448 O   0  0  0  0  0  0  0  0  0  0  0  0
    1.0109    1.5981    0.2043 C   0  0  0  0  0  0  0  0  0  0  0  0
    0.9401    2.6415   -0.6812 O   0  0  0  0  0  0  0  0  0  0  0  0
    0.5157    0.2246   -0.1176 C   0  0  0  0  0  0  0  0  0  0  0  0
    1.6455   -0.7571   -0.0448 C   0  0  0  0  0  0  0  0  0  0  0  0
    1.9906   -1.4330   -1.0482 O   0  0  0  0  0  0  0  0  0  0  0  0
    2.3394   -0.9374    1.1524 O   0  0  0  0  0  0  0  0  0  0  0  0
   -0.5440   -0.1377    0.8598 C   0  0  0  0  0  0  0  0  0  0  0  0
   -1.7364   -0.4707    0.0056 C   0  0  2  0  0  0  0  0  0  0  0  0
   -2.1248   -1.7968    0.1381 O   0  0  0  0  0  0  0  0  0  0  0  0
   -1.3205   -0.0871   -1.3617 C   0  0  0  0  0  0  0  0  0  0  0  0
    0.0135    0.2107   -1.3782 O   0  0  0  0  0  0  0  0  0  0  0  0
    1.7499    3.2773   -0.7407 H   0  0  0  0  0  0  0  0  0  0  0  0
    3.1204   -1.5945    1.1458 H   0  0  0  0  0  0  0  0  0  0  0  0
   -0.2815   -1.0479    1.4439 H   0  0  0  0  0  0  0  0  0  0  0  0
   -0.8207    0.6783    1.5594 H   0  0  0  0  0  0  0  0  0  0  0  0
   -2.6201    0.1683    0.2875 H   0  0  0  0  0  0  0  0  0  0  0  0
   -1.9787   -2.1204    1.0560 H   0  0  0  0  0  0  0  0  0  0  0  0
   -1.9239    0.7594   -1.7874 H   0  0  0  0  0  0  0  0  0  0  0  0
   -1.4866   -0.9572   -2.0377 H   0  0  0  0  0  0  0  0  0  0  0  0
  1  2  2  0
  2  3  1  0
  2  4  1  0
  4  5  1  0
  5  6  2  0
  5  7  1  0
  4  8  1  0
  8  9  1  0
  9 10  1  0
  9 11  1  0
 11 12  1  0
 12  4  1  0
  3 13  1  0
  7 14  1  0
  8 15  1  0
  8 16  1  0
  9 17  1  1
 10 18  1  0
 11 19  1  0
 11 20  1  0
M  END
$$$$

     RDKit          3D

 20 20  0  0  0  0  0  0  0  0999 V2000
   -2.0656   -0.8630   -1.8543 O   0  0  0  0  0  0  0  0  0  0  0  0
   -1.6000   -1.0105   -0.7151 C   0  0  0  0  0  0  0  0  0  0  0  0
   -1.9756   -2.0772    0.0796 O   0  0  0  0  0  0  0  0  0  0  0  0
   -0.6159   -0.0232   -0.1849 C   0  0  0  0  0  0  0  0  0  0  0  0
   -1.2146    1.3512   -0.2250 C   0  0  0  0  0  0  0  0  0  0  0  0
   -1.6251    1.8082   -1.3177 O   0  0  0  0  0  0  0  0  0  0  0  0
   -1.2868    2.0604    0.9628 O   0  0  0  0  0  0  0  0  0  0  0  0
    0.6236    0.0313   -1.0554 C   0  0  0  0  0  0  0  0  0  0  0  0
    1.6687    0.2462    0.0229 C   0  0  2  0  0  0  0  0  0  0  0  0
    2.9384   -0.0921   -0.3915 O   0  0  0  0  0  0  0  0  0  0  0  0
    1.1106   -0.7493    1.0383 C   0  0  0  0  0  0  0  0  0  0  0  0
   -0.2223   -0.3600    1.0849 O   0  0  0  0  0  0  0  0  0  0  0  0
   -2.8674   -2.5655   -0.0737 H   0  0  0  0  0  0  0  0  0  0  0  0
   -2.0311    2.7671    1.0563 H   0  0  0  0  0  0  0  0  0  0  0  0
    0.5955    0.8616   -1.7823 H   0  0  0  0  0  0  0  0  0  0  0  0
    0.8157   -0.9504   -1.5095 H   0  0  0  0  0  0  0  0  0  0  0  0
    1.5668    1.2705    0.4040 H   0  0  0  0  0  0  0  0  0  0  0  0
    3.4402    0.7317   -0.5738 H   0  0  0  0  0  0  0  0  0  0  0  0
    1.6068   -0.6979    1.9998 H   0  0  0  0  0  0  0  0  0  0  0  0
    1.1383   -1.7391    0.5465 H   0  0  0  0  0  0  0  0  0  0  0  0
  1  2  2  0
  2  3  1  0
  2  4  1  0
  4  5  1  0
  5  6  2  0
  5  7  1  0
  4  8  1  0
  8  9  1  0
  9 10  1  0
  9 11  1  0
 11 12  1  0
 12  4  1  0
  3 13  1  0
  7 14  1  0
  8 15  1  0
  8 16  1  0
  9 17  1  1
 10 18  1  0
 11 19  1  0
 11 20  1  0
M  END
$$$$

     RDKit          3D

 20 20  0  0  0  0  0  0  0  0999 V2000
    2.3130   -0.3967    1.4917 O   0  0  0  0  0  0  0  0  0  0  0  0
    1.7803   -0.8212    0.4327 C   0  0  0  0  0  0  0  0  0  0  0  0
    2.2853   -1.9672   -0.1713 O   0  0  0  0  0  0  0  0  0  0  0  0
    0.6367   -0.0629   -0.1070 C   0  0  0  0  0  0  0  0  0  0  0  0
    1.0374    1.3389   -0.2670 C   0  0  0  0  0  0  0  0  0  0  0  0
    0.8632    1.8843   -1.4015 O   0  0  0  0  0  0  0  0  0  0  0  0
    1.5898    2.1098    0.7232 O   0  0  0  0  0  0  0  0  0  0  0  0
   -0.4925   -0.1744    0.9258 C   0  0  0  0  0  0  0  0  0  0  0  0
   -1.6483    0.2657    0.0145 C   0  0  2  0  0  0  0  0  0  0  0  0
   -2.8509   -0.1462    0.5265 O   0  0  0  0  0  0  0  0  0  0  0  0
   -1.2470   -0.4646   -1.2494 C   0  0  0  0  0  0  0  0  0  0  0  0
    0.1140   -0.5873   -1.2581 O   0  0  0  0  0  0  0  0  0  0  0  0
    3.2863   -2.1344   -0.1516 H   0  0  0  0  0  0  0  0  0  0  0  0
    1.3259    3.0989    0.8156 H   0  0  0  0  0  0  0  0  0  0  0  0
   -0.6213   -1.2313    1.1558 H   0  0  0  0  0  0  0  0  0  0  0  0
   -0.3571    0.4944    1.7682 H   0  0  0  0  0  0  0  0  0  0  0  0
   -1.5933    1.3542   -0.1745 H   0  0  0  0  0  0  0  0  0  0  0  0
   -3.0625   -1.0524    0.2270 H   0  0  0  0  0  0  0  0  0  0  0  0
   -1.6806   -0.0037   -2.1558 H   0  0  0  0  0  0  0  0  0  0  0  0
   -1.6783   -1.5038   -1.1448 H   0  0  0  0  0  0  0  0  0  0  0  0
  1  2  2  0
  2  3  1  0
  2  4  1  0
  4  5  1  0
  5  6  2  0
  5  7  1  0
  4  8  1  0
  8  9  1  0
  9 10  1  0
  9 11  1  0
 11 12  1  0
 12  4  1  0
  3 13  1  0
  7 14  1  0
  8 15  1  0
  8 16  1  0
  9 17  1  6
 10 18  1  0
 11 19  1  0
 11 20  1  0
M  END
$$$$

     RDKit          3D

 20 20  0  0  0  0  0  0  0  0999 V2000
   -2.1871    0.3786   -1.7530 O   0  0  0  0  0  0  0  0  0  0  0  0
   -1.8575   -0.4528   -0.8655 C   0  0  0  0  0  0  0  0  0  0  0  0
   -2.6064   -1.6019   -0.7122 O   0  0  0  0  0  0  0  0  0  0  0  0
   -0.6742   -0.1300   -0.0417 C   0  0  0  0  0  0  0  0  0  0  0  0
   -0.8088    1.1730    0.6158 C   0  0  0  0  0  0  0  0  0  0  0  0
   -0.6821    1.3152    1.8383 O   0  0  0  0  0  0  0  0  0  0  0  0
   -1.0887    2.2857   -0.1652 O   0  0  0  0  0  0  0  0  0  0  0  0
    0.6077   -0.1595   -0.8786 C   0  0  0  0  0  0  0  0  0  0  0  0
    1.6205   -0.0816    0.2724 C   0  0  2  0  0  0  0  0  0  0  0  0
    2.8460   -0.5983   -0.0840 O   0  0  0  0  0  0  0  0  0  0  0  0
    0.9024   -0.8792    1.3160 C   0  0  0  0  0  0  0  0  0  0  0  0
   -0.3957   -1.0972    0.8974 O   0  0  0  0  0  0  0  0  0  0  0  0
   -3.4088   -1.7402   -1.2946 H   0  0  0  0  0  0  0  0  0  0  0  0
   -0.8388    3.2139    0.1639 H   0  0  0  0  0  0  0  0  0  0  0  0
    0.6396   -1.1466   -1.3592 H   0  0  0  0  0  0  0  0  0  0  0  0
    0.6821    0.6948   -1.5538 H   0  0  0  0  0  0  0  0  0  0  0  0
    1.6685    0.9769    0.5690 H   0  0  0  0  0  0  0  0  0  0  0  0
    3.2855    0.0623   -0.6769 H   0  0  0  0  0  0  0  0  0  0  0  0
    0.8905   -0.3472    2.2884 H   0  0  0  0  0  0  0  0  0  0  0  0
    1.4052   -1.8658    1.4236 H   0  0  0  0  0  0  0  0  0  0  0  0
  1  2  2  0
  2  3  1  0
  2  4  1  0
  4  5  1  0
  5  6  2  0
  5  7  1  0
  4  8  1  0
  8  9  1  0
  9 10  1  0
  9 11  1  0
 11 12  1  0
 12  4  1  0
  3 13  1  0
  7 14  1  0
  8 15  1  0
  8 16  1  0
  9 17  1  1
 10 18  1  0
 11 19  1  0
 11 20  1  0
M  END
$$$$

     RDKit          3D

 20 20  0  0  0  0  0  0  0  0999 V2000
   -1.6687    0.2095   -2.2467 O   0  0  0  0  0  0  0  0  0  0  0  0
   -1.1903    0.7569   -1.2138 C   0  0  0  0  0  0  0  0  0  0  0  0
   -1.1946    2.1474   -1.1966 O   0  0  0  0  0  0  0  0  0  0  0  0
   -0.6545   -0.0555   -0.0839 C   0  0  0  0  0  0  0  0  0  0  0  0
   -1.6764   -0.9545    0.4817 C   0  0  0  0  0  0  0  0  0  0  0  0
   -2.2623   -1.8468   -0.2015 O   0  0  0  0  0  0  0  0  0  0  0  0
   -2.0321   -0.8452    1.8080 O   0  0  0  0  0  0  0  0  0  0  0  0
    0.5542   -0.8468   -0.5866 C   0  0  0  0  0  0  0  0  0  0  0  0
    1.6631    0.0961   -0.1137 C   0  0  2  0  0  0  0  0  0  0  0  0
    2.8847   -0.4979   -0.0534 O   0  0  0  0  0  0  0  0  0  0  0  0
    1.0711    0.3900    1.2733 C   0  0  0  0  0  0  0  0  0  0  0  0
   -0.2067    0.7951    0.8895 O   0  0  0  0  0  0  0  0  0  0  0  0
   -1.3009    2.6986   -2.0410 H   0  0  0  0  0  0  0  0  0  0  0  0
   -2.9368   -1.1345    2.1787 H   0  0  0  0  0  0  0  0  0  0  0  0
    0.5490   -0.9823   -1.6673 H   0  0  0  0  0  0  0  0  0  0  0  0
    0.6707   -1.7695   -0.0069 H   0  0  0  0  0  0  0  0  0  0  0  0
    1.5861    0.9982   -0.7210 H   0  0  0  0  0  0  0  0  0  0  0  0
    3.5788    0.2295   -0.1445 H   0  0  0  0  0  0  0  0  0  0  0  0
    0.9461   -0.5518    1.8521 H   0  0  0  0  0  0  0  0  0  0  0  0
    1.6196    1.1633    1.7937 H   0  0  0  0  0  0  0  0  0  0  0  0
  1  2  2  0
  2  3  1  0
  2  4  1  0
  4  5  1  0
  5  6  2  0
  5  7  1  0
  4  8  1  0
  8  9  1  0
  9 10  1  0
  9 11  1  0
 11 12  1  0
 12  4  1  0
  3 13  1  0
  7 14  1  0
  8 15  1  0
  8 16  1  0
  9 17  1  6
 10 18  1  0
 11 19  1  0
 11 20  1  0
M  END
$$$$

     RDKit          3D

 20 20  0  0  0  0  0  0  0  0999 V2000
   -1.9256   -1.3531    1.1868 O   0  0  0  0  0  0  0  0  0  0  0  0
   -1.3897   -1.0630    0.0870 C   0  0  0  0  0  0  0  0  0  0  0  0
   -1.5712   -1.9020   -0.9936 O   0  0  0  0  0  0  0  0  0  0  0  0
   -0.5693    0.1977    0.0050 C   0  0  0  0  0  0  0  0  0  0  0  0
   -1.4039    1.3347    0.4270 C   0  0  0  0  0  0  0  0  0  0  0  0
   -1.9542    1.3159    1.5547 O   0  0  0  0  0  0  0  0  0  0  0  0
   -1.6163    2.4461   -0.3742 O   0  0  0  0  0  0  0  0  0  0  0  0
    0.5988   -0.0290    0.9584 C   0  0  0  0  0  0  0  0  0  0  0  0
    1.5887   -0.5859   -0.0471 C   0  0  2  0  0  0  0  0  0  0  0  0
    2.8848   -0.5600    0.3937 O   0  0  0  0  0  0  0  0  0  0  0  0
    1.3275    0.4370   -1.1600 C   0  0  0  0  0  0  0  0  0  0  0  0
   -0.0500    0.3845   -1.2464 O   0  0  0  0  0  0  0  0  0  0  0  0
   -2.4667   -2.3966   -1.1227 H   0  0  0  0  0  0  0  0  0  0  0  0
   -2.5226    2.9369   -0.3863 H   0  0  0  0  0  0  0  0  0  0  0  0
    0.3563   -0.7402    1.7531 H   0  0  0  0  0  0  0  0  0  0  0  0
    0.9735    0.9488    1.3322 H   0  0  0  0  0  0  0  0  0  0  0  0
    1.2363   -1.5575   -0.3981 H   0  0  0  0  0  0  0  0  0  0  0  0
    3.0729   -1.4262    0.8425 H   0  0  0  0  0  0  0  0  0  0  0  0
    1.8407    0.1835   -2.0799 H   0  0  0  0  0  0  0  0  0  0  0  0
    1.5901    1.4283   -0.7322 H   0  0  0  0  0  0  0  0  0  0  0  0
  1  2  2  0
  2  3  1  0
  2  4  1  0
  4  5  1  0
  5  6  2  0
  5  7  1  0
  4  8  1  0
  8  9  1  0
  9 10  1  0
  9 11  1  0
 11 12  1  0
 12  4  1  0
  3 13  1  0
  7 14  1  0
  8 15  1  0
  8 16  1  0
  9 17  1  6
 10 18  1  0
 11 19  1  0
 11 20  1  0
M  END
$$$$
