
     RDKit          3D

 19 19  0  0  0  0  0  0  0  0999 V2000
    2.2828   -1.1776   -0.5099 O   0  0  0  0  0  0  0  0  0  0  0  0
    2.9177   -0.1155   -0.2117 C   0  0  0  0  0  0  0  0  0  0  0  0
    4.2821   -0.1901    0.0639 O   0  0  0  0  0  0  0  0  0  0  0  0
    2.1521    1.1479   -0.1765 C   0  0  0  0  0  0  0  0  0  0  0  0
    0.7390    0.8917   -0.5484 C   0  0  0  0  0  0  0  0  0  0  0  0
    0.2250    1.3235   -1.6265 O   0  0  0  0  0  0  0  0  0  0  0  0
   -0.1239    0.1573    0.2545 O   0  0  0  0  0  0  0  0  0  0  0  0
   -1.4388   -0.0746   -0.0876 C   0  0  2  0  0  0  0  0  0  0  0  0
   -2.4898    0.1659    0.9705 C   0  0  0  0  0  0  0  0  0  0  0  0
   -3.1969   -0.9057    0.2612 C   0  0  0  0  0  0  0  0  0  0  0  0
   -4.3637   -1.2667    0.0295 O   0  0  0  0  0  0  0  0  0  0  0  0
   -1.9315   -1.4361   -0.0977 N   0  0  0  0  0  0  0  0  0  0  0  0
    4.6073   -0.9577    0.6205 H   0  0  0  0  0  0  0  0  0  0  0  0
    2.6057    1.8430   -0.9363 H   0  0  0  0  0  0  0  0  0  0  0  0
    2.2016    1.6061    0.8569 H   0  0  0  0  0  0  0  0  0  0  0  0
   -1.6992    0.4342   -1.0396 H   0  0  0  0  0  0  0  0  0  0  0  0
   -2.9555    1.1768    0.9703 H   0  0  0  0  0  0  0  0  0  0  0  0
   -2.1726   -0.1990    1.9840 H   0  0  0  0  0  0  0  0  0  0  0  0
   -1.6414   -2.4235   -0.2617 H   0  0  0  0  0  0  0  0  0  0  0  0
  1  2  2  0
  2  3  1  0
  2  4  1  0
  4  5  1  0
  5  6  2  0
  5  7  1  0
  7  8  1  0
  8  9  1  0
  9 10  1  0
 10 11  2  0
 10 12  1  0
 12  8  1  0
  3 13  1  0
  4 14  1  0
  4 15  1  0
  8 16  1  6
  9 17  1  0
  9 18  1  0
 12 19  1  0
M  END
$$$$

     RDKit          3D

 19 19  0  0  0  0  0  0  0  0999 V2000
    4.3028   -0.9638   -0.9288 O   0  0  0  0  0  0  0  0  0  0  0  0
    3.2084   -0.4796   -0.6117 C   0  0  0  0  0  0  0  0  0  0  0  0
    3.0479    0.9052   -0.6914 O   0  0  0  0  0  0  0  0  0  0  0  0
    2.0655   -1.3447   -0.1489 C   0  0  0  0  0  0  0  0  0  0  0  0
    0.9388   -0.4528    0.2501 C   0  0  0  0  0  0  0  0  0  0  0  0
    1.1706    0.4758    1.0981 O   0  0  0  0  0  0  0  0  0  0  0  0
   -0.3405   -0.5458   -0.2229 O   0  0  0  0  0  0  0  0  0  0  0  0
   -1.3191    0.3459    0.2254 C   0  0  2  0  0  0  0  0  0  0  0  0
   -2.6490   -0.2299    0.6343 C   0  0  0  0  0  0  0  0  0  0  0  0
   -3.1656    1.0455    0.0508 C   0  0  0  0  0  0  0  0  0  0  0  0
   -4.1014    1.8567    0.1990 O   0  0  0  0  0  0  0  0  0  0  0  0
   -2.0712    1.0048   -0.8491 N   0  0  0  0  0  0  0  0  0  0  0  0
    3.4547    1.3748   -1.5149 H   0  0  0  0  0  0  0  0  0  0  0  0
    1.7396   -2.0329   -0.9466 H   0  0  0  0  0  0  0  0  0  0  0  0
    2.4424   -1.9526    0.7086 H   0  0  0  0  0  0  0  0  0  0  0  0
   -0.9771    1.1056    0.9909 H   0  0  0  0  0  0  0  0  0  0  0  0
   -2.8366   -0.3829    1.6934 H   0  0  0  0  0  0  0  0  0  0  0  0
   -2.9473   -1.0573   -0.0586 H   0  0  0  0  0  0  0  0  0  0  0  0
   -1.9627    1.3279   -1.8218 H   0  0  0  0  0  0  0  0  0  0  0  0
  1  2  2  0
  2  3  1  0
  2  4  1  0
  4  5  1  0
  5  6  2  0
  5  7  1  0
  7  8  1  0
  8  9  1  0
  9 10  1  0
 10 11  2  0
 10 12  1  0
 12  8  1  0
  3 13  1  0
  4 14  1  0
  4 15  1  0
  8 16  1  1
  9 17  1  0
  9 18  1  0
 12 19  1  0
M  END
$$$$

     RDKit          3D

 19 19  0  0  0  0  0  0  0  0999 V2000
    3.6548   -0.8622    1.3096 O   0  0  0  0  0  0  0  0  0  0  0  0
    3.1617   -0.1969    0.3845 C   0  0  0  0  0  0  0  0  0  0  0  0
    3.6070    1.1234    0.2303 O   0  0  0  0  0  0  0  0  0  0  0  0
    2.1324   -0.6940   -0.5756 C   0  0  0  0  0  0  0  0  0  0  0  0
    0.8501   -0.7808    0.1546 C   0  0  0  0  0  0  0  0  0  0  0  0
    0.7305   -1.3701    1.2488 O   0  0  0  0  0  0  0  0  0  0  0  0
   -0.2558   -0.1771   -0.4028 O   0  0  0  0  0  0  0  0  0  0  0  0
   -1.5434   -0.1671    0.1643 C   0  0  2  0  0  0  0  0  0  0  0  0
   -2.5763   -0.3453   -0.9105 C   0  0  0  0  0  0  0  0  0  0  0  0
   -3.2177    0.8630   -0.3205 C   0  0  0  0  0  0  0  0  0  0  0  0
   -4.3700    1.3738   -0.3284 O   0  0  0  0  0  0  0  0  0  0  0  0
   -1.9937    1.2301    0.2694 N   0  0  0  0  0  0  0  0  0  0  0  0
    3.9074    1.7063    1.0163 H   0  0  0  0  0  0  0  0  0  0  0  0
    2.0642   -0.0215   -1.4431 H   0  0  0  0  0  0  0  0  0  0  0  0
    2.4752   -1.6899   -0.9477 H   0  0  0  0  0  0  0  0  0  0  0  0
   -1.6884   -0.7215    1.1140 H   0  0  0  0  0  0  0  0  0  0  0  0
   -3.1393   -1.2746   -0.8153 H   0  0  0  0  0  0  0  0  0  0  0  0
   -2.2255   -0.1250   -1.9381 H   0  0  0  0  0  0  0  0  0  0  0  0
   -1.5729    2.1295    0.6331 H   0  0  0  0  0  0  0  0  0  0  0  0
  1  2  2  0
  2  3  1  0
  2  4  1  0
  4  5  1  0
  5  6  2  0
  5  7  1  0
  7  8  1  0
  8  9  1  0
  9 10  1  0
 10 11  2  0
 10 12  1  0
 12  8  1  0
  3 13  1  0
  4 14  1  0
  4 15  1  0
  8 16  1  1
  9 17  1  0
  9 18  1  0
 12 19  1  0
M  END
$$$$

     RDKit          3D

 19 19  0  0  0  0  0  0  0  0999 V2000
    3.2462   -0.2026   -1.8548 O   0  0  0  0  0  0  0  0  0  0  0  0
    3.2679   -0.1337   -0.5889 C   0  0  0  0  0  0  0  0  0  0  0  0
    4.3765    0.4201    0.0323 O   0  0  0  0  0  0  0  0  0  0  0  0
    2.1171   -0.6404    0.1998 C   0  0  0  0  0  0  0  0  0  0  0  0
    0.8390   -0.0383   -0.2569 C   0  0  0  0  0  0  0  0  0  0  0  0
    0.7931    0.7993   -1.1759 O   0  0  0  0  0  0  0  0  0  0  0  0
   -0.3268   -0.4167    0.3540 O   0  0  0  0  0  0  0  0  0  0  0  0
   -1.5471    0.1814   -0.0924 C   0  0  2  0  0  0  0  0  0  0  0  0
   -2.4627    0.6394    1.0103 C   0  0  0  0  0  0  0  0  0  0  0  0
   -3.5451   -0.0400    0.2907 C   0  0  0  0  0  0  0  0  0  0  0  0
   -4.8112    0.0417    0.3387 O   0  0  0  0  0  0  0  0  0  0  0  0
   -2.5907   -0.7757   -0.4308 N   0  0  0  0  0  0  0  0  0  0  0  0
    4.9011    1.1933   -0.3742 H   0  0  0  0  0  0  0  0  0  0  0  0
    2.3163   -0.4155    1.2677 H   0  0  0  0  0  0  0  0  0  0  0  0
    2.1164   -1.7459    0.1079 H   0  0  0  0  0  0  0  0  0  0  0  0
   -1.4134    0.9107   -0.8914 H   0  0  0  0  0  0  0  0  0  0  0  0
   -2.1676    0.1505    1.9661 H   0  0  0  0  0  0  0  0  0  0  0  0
   -2.5183    1.7230    1.0868 H   0  0  0  0  0  0  0  0  0  0  0  0
   -2.5907   -1.6505   -0.9889 H   0  0  0  0  0  0  0  0  0  0  0  0
  1  2  2  0
  2  3  1  0
  2  4  1  0
  4  5  1  0
  5  6  2  0
  5  7  1  0
  7  8  1  0
  8  9  1  0
  9 10  1  0
 10 11  2  0
 10 12  1  0
 12  8  1  0
  3 13  1  0
  4 14  1  0
  4 15  1  0
  8 16  1  6
  9 17  1  0
  9 18  1  0
 12 19  1  0
M  END
$$$$

     RDKit          3D

 19 19  0  0  0  0  0  0  0  0999 V2000
   -2.9093   -0.1820    1.2871 O   0  0  0  0  0  0  0  0  0  0  0  0
   -3.1520   -0.3109    0.0590 C   0  0  0  0  0  0  0  0  0  0  0  0
   -4.4772   -0.2183   -0.3529 O   0  0  0  0  0  0  0  0  0  0  0  0
   -2.0497   -0.5570   -0.9016 C   0  0  0  0  0  0  0  0  0  0  0  0
   -0.7393   -0.6860   -0.1535 C   0  0  0  0  0  0  0  0  0  0  0  0
   -0.7215   -1.4515    0.8146 O   0  0  0  0  0  0  0  0  0  0  0  0
    0.3738    0.0134   -0.5309 O   0  0  0  0  0  0  0  0  0  0  0  0
    1.5804   -0.0918    0.1356 C   0  0  2  0  0  0  0  0  0  0  0  0
    2.1010    1.2607    0.6897 C   0  0  0  0  0  0  0  0  0  0  0  0
    3.4025    0.6111    0.4228 C   0  0  0  0  0  0  0  0  0  0  0  0
    4.5707    0.5564    0.8540 O   0  0  0  0  0  0  0  0  0  0  0  0
    2.7845   -0.0376   -0.6664 N   0  0  0  0  0  0  0  0  0  0  0  0
   -5.1990   -0.0524    0.3392 H   0  0  0  0  0  0  0  0  0  0  0  0
   -1.9356    0.2655   -1.6394 H   0  0  0  0  0  0  0  0  0  0  0  0
   -2.1873   -1.5136   -1.4015 H   0  0  0  0  0  0  0  0  0  0  0  0
    1.6878   -0.7997    0.9712 H   0  0  0  0  0  0  0  0  0  0  0  0
    1.8696    2.1019    0.0076 H   0  0  0  0  0  0  0  0  0  0  0  0
    1.8462    1.3948    1.7522 H   0  0  0  0  0  0  0  0  0  0  0  0
    3.1545   -0.3029   -1.5977 H   0  0  0  0  0  0  0  0  0  0  0  0
  1  2  2  0
  2  3  1  0
  2  4  1  0
  4  5  1  0
  5  6  2  0
  5  7  1  0
  7  8  1  0
  8  9  1  0
  9 10  1  0
 10 11  2  0
 10 12  1  0
 12  8  1  0
  3 13  1  0
  4 14  1  0
  4 15  1  0
  8 16  1  1
  9 17  1  0
  9 18  1  0
 12 19  1  0
M  END
$$$$

     RDKit          3D

 19 19  0  0  0  0  0  0  0  0999 V2000
   -3.2032   -1.5418   -0.9069 O   0  0  0  0  0  0  0  0  0  0  0  0
   -3.1908   -0.6437   -0.0408 C   0  0  0  0  0  0  0  0  0  0  0  0
   -4.3462    0.1532    0.1042 O   0  0  0  0  0  0  0  0  0  0  0  0
   -1.9806   -0.4333    0.8074 C   0  0  0  0  0  0  0  0  0  0  0  0
   -0.8421   -0.1997   -0.1082 C   0  0  0  0  0  0  0  0  0  0  0  0
   -0.9686   -0.1950   -1.3637 O   0  0  0  0  0  0  0  0  0  0  0  0
    0.4540    0.0346    0.3591 O   0  0  0  0  0  0  0  0  0  0  0  0
    1.5348    0.2614   -0.5258 C   0  0  2  0  0  0  0  0  0  0  0  0
    2.7834   -0.5196   -0.1875 C   0  0  0  0  0  0  0  0  0  0  0  0
    3.0305    0.5840    0.7536 C   0  0  0  0  0  0  0  0  0  0  0  0
    3.6488    0.7279    1.8233 O   0  0  0  0  0  0  0  0  0  0  0  0
    2.2592    1.4282   -0.0747 N   0  0  0  0  0  0  0  0  0  0  0  0
   -4.7925    0.4811   -0.7722 H   0  0  0  0  0  0  0  0  0  0  0  0
   -1.8236   -1.3242    1.4135 H   0  0  0  0  0  0  0  0  0  0  0  0
   -2.1300    0.4774    1.4222 H   0  0  0  0  0  0  0  0  0  0  0  0
    1.2756    0.2448   -1.6052 H   0  0  0  0  0  0  0  0  0  0  0  0
    3.4881   -0.4701   -1.0473 H   0  0  0  0  0  0  0  0  0  0  0  0
    2.6194   -1.5101    0.2604 H   0  0  0  0  0  0  0  0  0  0  0  0
    2.1837    2.4449   -0.3116 H   0  0  0  0  0  0  0  0  0  0  0  0
  1  2  2  0
  2  3  1  0
  2  4  1  0
  4  5  1  0
  5  6  2  0
  5  7  1  0
  7  8  1  0
  8  9  1  0
  9 10  1  0
 10 11  2  0
 10 12  1  0
 12  8  1  0
  3 13  1  0
  4 14  1  0
  4 15  1  0
  8 16  1  6
  9 17  1  0
  9 18  1  0
 12 19  1  0
M  END
$$$$

     RDKit          3D

 19 19  0  0  0  0  0  0  0  0999 V2000
   -4.1629    0.4388    0.3969 O   0  0  0  0  0  0  0  0  0  0  0  0
   -2.9564    0.2795    0.0896 C   0  0  0  0  0  0  0  0  0  0  0  0
   -2.3535    1.2893   -0.6570 O   0  0  0  0  0  0  0  0  0  0  0  0
   -2.2323   -0.9570    0.5276 C   0  0  0  0  0  0  0  0  0  0  0  0
   -0.8782   -1.0199   -0.0585 C   0  0  0  0  0  0  0  0  0  0  0  0
   -0.6867   -1.8479   -0.9999 O   0  0  0  0  0  0  0  0  0  0  0  0
    0.1714   -0.2267    0.3658 O   0  0  0  0  0  0  0  0  0  0  0  0
    1.4197   -0.3599   -0.2497 C   0  0  2  0  0  0  0  0  0  0  0  0
    2.6229   -0.2529    0.6283 C   0  0  0  0  0  0  0  0  0  0  0  0
    2.6471    1.1767    0.2984 C   0  0  0  0  0  0  0  0  0  0  0  0
    3.1693    2.2063    0.7734 O   0  0  0  0  0  0  0  0  0  0  0  0
    1.8181    0.9206   -0.8092 N   0  0  0  0  0  0  0  0  0  0  0  0
   -2.4223    2.2616   -0.3214 H   0  0  0  0  0  0  0  0  0  0  0  0
   -2.8683   -1.8051    0.1558 H   0  0  0  0  0  0  0  0  0  0  0  0
   -2.2142   -1.0473    1.6138 H   0  0  0  0  0  0  0  0  0  0  0  0
    1.4338   -1.1481   -1.0247 H   0  0  0  0  0  0  0  0  0  0  0  0
    2.4586   -0.5131    1.6949 H   0  0  0  0  0  0  0  0  0  0  0  0
    3.4918   -0.7798    0.1432 H   0  0  0  0  0  0  0  0  0  0  0  0
    1.5419    1.3848   -1.7020 H   0  0  0  0  0  0  0  0  0  0  0  0
  1  2  2  0
  2  3  1  0
  2  4  1  0
  4  5  1  0
  5  6  2  0
  5  7  1  0
  7  8  1  0
  8  9  1  0
  9 10  1  0
 10 11  2  0
 10 12  1  0
 12  8  1  0
  3 13  1  0
  4 14  1  0
  4 15  1  0
  8 16  1  6
  9 17  1  0
  9 18  1  0
 12 19  1  0
M  END
$$$$

     RDKit          3D

 19 19  0  0  0  0  0  0  0  0999 V2000
    4.3587    0.3307    1.2026 O   0  0  0  0  0  0  0  0  0  0  0  0
    3.2872    0.2679    0.5420 C   0  0  0  0  0  0  0  0  0  0  0  0
    3.3863    0.4019   -0.8209 O   0  0  0  0  0  0  0  0  0  0  0  0
    1.9773    0.0615    1.1749 C   0  0  0  0  0  0  0  0  0  0  0  0
    0.9188    0.0338    0.1414 C   0  0  0  0  0  0  0  0  0  0  0  0
    1.2117    0.1785   -1.0936 O   0  0  0  0  0  0  0  0  0  0  0  0
   -0.4215   -0.1445    0.4228 O   0  0  0  0  0  0  0  0  0  0  0  0
   -1.3941   -0.1636   -0.5969 C   0  0  2  0  0  0  0  0  0  0  0  0
   -2.5411    0.7702   -0.2744 C   0  0  0  0  0  0  0  0  0  0  0  0
   -3.3689   -0.4527   -0.0243 C   0  0  0  0  0  0  0  0  0  0  0  0
   -4.5216   -0.5603    0.4631 O   0  0  0  0  0  0  0  0  0  0  0  0
   -2.3260   -1.2676   -0.5447 N   0  0  0  0  0  0  0  0  0  0  0  0
    4.2017    0.0983   -1.3683 H   0  0  0  0  0  0  0  0  0  0  0  0
    1.9922   -0.8668    1.7795 H   0  0  0  0  0  0  0  0  0  0  0  0
    1.8338    0.9062    1.9031 H   0  0  0  0  0  0  0  0  0  0  0  0
   -1.0198   -0.0283   -1.6234 H   0  0  0  0  0  0  0  0  0  0  0  0
   -2.8951    1.3485   -1.1493 H   0  0  0  0  0  0  0  0  0  0  0  0
   -2.4028    1.3595    0.6534 H   0  0  0  0  0  0  0  0  0  0  0  0
   -2.2770   -2.2733   -0.7871 H   0  0  0  0  0  0  0  0  0  0  0  0
  1  2  2  0
  2  3  1  0
  2  4  1  0
  4  5  1  0
  5  6  2  0
  5  7  1  0
  7  8  1  0
  8  9  1  0
  9 10  1  0
 10 11  2  0
 10 12  1  0
 12  8  1  0
  3 13  1  0
  4 14  1  0
  4 15  1  0
  8 16  1  6
  9 17  1  0
  9 18  1  0
 12 19  1  0
M  END
$$$$
