
     RDKit          3D

 21 22  0  0  0  0  0  0  0  0999 V2000
    2.0718   -0.2416   -1.2808 N   0  0  0  0  0  0  0  0  0  0  0  0
    1.3493   -0.4002   -0.0350 C   0  0  2  0  0  0  0  0  0  0  0  0
    0.1271   -1.0335   -0.1703 C   0  0  1  0  0  0  0  0  0  0  0  0
   -0.7562   -1.9602   -0.3530 O   0  0  0  0  0  0  0  0  0  0  0  0
   -1.9126   -1.1341   -0.0309 C   0  0  0  0  0  0  0  0  0  0  0  0
   -1.3343   -0.1202    0.9727 C   0  0  1  0  0  0  0  0  0  0  0  0
   -0.2362   -0.9494    1.2185 O   0  0  0  0  0  0  0  0  0  0  0  0
   -0.6399    1.0850    0.5006 C   0  0  1  0  0  0  0  0  0  0  0  0
   -0.8813    2.0708    1.4840 F   0  0  0  0  0  0  0  0  0  0  0  0
    0.9165    1.0164    0.4997 C   0  0  2  0  0  0  0  0  0  0  0  0
    1.3128    1.9492   -0.4558 O   0  0  0  0  0  0  0  0  0  0  0  0
    2.7363   -1.0714   -1.3336 H   0  0  0  0  0  0  0  0  0  0  0  0
    1.3907   -0.4222   -2.0707 H   0  0  0  0  0  0  0  0  0  0  0  0
    2.0808   -0.7999    0.7254 H   0  0  0  0  0  0  0  0  0  0  0  0
   -0.3529   -0.2877   -0.8890 H   0  0  0  0  0  0  0  0  0  0  0  0
   -2.6710   -1.7076    0.4591 H   0  0  0  0  0  0  0  0  0  0  0  0
   -2.1690   -0.6063   -0.9448 H   0  0  0  0  0  0  0  0  0  0  0  0
   -1.9825   -0.0092    1.8462 H   0  0  0  0  0  0  0  0  0  0  0  0
   -1.0167    1.5603   -0.4235 H   0  0  0  0  0  0  0  0  0  0  0  0
    1.3202    1.1807    1.4937 H   0  0  0  0  0  0  0  0  0  0  0  0
    0.6472    1.8810   -1.2128 H   0  0  0  0  0  0  0  0  0  0  0  0
  1  2  1  0
  2  3  1  0
  3  4  1  0
  4  5  1  0
  5  6  1  0
  6  7  1  0
  6  8  1  0
  8  9  1  0
  8 10  1  0
 10 11  1  0
 10  2  1  0
  7  3  1  0
  1 12  1  0
  1 13  1  0
  2 14  1  1
  3 15  1  6
  5 16  1  0
  5 17  1  0
  6 18  1  1
  8 19  1  6
 10 20  1  1
 11 21  1  0
M  END
$$$$

     RDKit          3D

 21 22  0  0  0  0  0  0  0  0999 V2000
    1.8415   -1.0935   -1.0319 N   0  0  0  0  0  0  0  0  0  0  0  0
    1.0034   -0.8480    0.1299 C   0  0  2  0  0  0  0  0  0  0  0  0
   -0.3414   -1.0668   -0.1158 C   0  0  1  0  0  0  0  0  0  0  0  0
   -1.4600   -1.6759   -0.3329 O   0  0  0  0  0  0  0  0  0  0  0  0
   -2.2922   -0.4813   -0.2893 C   0  0  0  0  0  0  0  0  0  0  0  0
   -1.5207    0.4411    0.6715 C   0  0  1  0  0  0  0  0  0  0  0  0
   -0.7993   -0.6589    1.1841 O   0  0  0  0  0  0  0  0  0  0  0  0
   -0.4078    1.2623    0.1866 C   0  0  1  0  0  0  0  0  0  0  0  0
   -0.3996    2.4135    1.0074 F   0  0  0  0  0  0  0  0  0  0  0  0
    1.0224    0.6954    0.4411 C   0  0  2  0  0  0  0  0  0  0  0  0
    1.8211    1.3118   -0.5195 O   0  0  0  0  0  0  0  0  0  0  0  0
    2.8245   -0.8058   -0.8933 H   0  0  0  0  0  0  0  0  0  0  0  0
    1.8254   -2.1176   -1.1853 H   0  0  0  0  0  0  0  0  0  0  0  0
    1.4755   -1.3492    1.0150 H   0  0  0  0  0  0  0  0  0  0  0  0
   -0.4531   -0.3276   -0.9781 H   0  0  0  0  0  0  0  0  0  0  0  0
   -3.2588   -0.6948    0.1095 H   0  0  0  0  0  0  0  0  0  0  0  0
   -2.2183   -0.0447   -1.2792 H   0  0  0  0  0  0  0  0  0  0  0  0
   -2.1850    0.8838    1.4177 H   0  0  0  0  0  0  0  0  0  0  0  0
   -0.4893    1.6859   -0.8320 H   0  0  0  0  0  0  0  0  0  0  0  0
    1.3339    0.8649    1.4684 H   0  0  0  0  0  0  0  0  0  0  0  0
    2.6777    1.6054   -0.1739 H   0  0  0  0  0  0  0  0  0  0  0  0
  1  2  1  0
  2  3  1  0
  3  4  1  0
  4  5  1  0
  5  6  1  0
  6  7  1  0
  6  8  1  0
  8  9  1  0
  8 10  1  0
 10 11  1  0
 10  2  1  0
  7  3  1  0
  1 12  1  0
  1 13  1  0
  2 14  1  1
  3 15  1  6
  5 16  1  0
  5 17  1  0
  6 18  1  1
  8 19  1  6
 10 20  1  1
 11 21  1  0
M  END
$$$$

     RDKit          3D

 21 22  0  0  0  0  0  0  0  0999 V2000
    2.2408   -0.9723   -0.2080 N   0  0  0  0  0  0  0  0  0  0  0  0
    1.1097   -0.5726    0.6032 C   0  0  2  0  0  0  0  0  0  0  0  0
   -0.1044   -1.0820    0.1879 C   0  0  1  0  0  0  0  0  0  0  0  0
   -1.0658   -1.9170   -0.0375 O   0  0  0  0  0  0  0  0  0  0  0  0
   -2.0283   -0.9206   -0.4913 C   0  0  0  0  0  0  0  0  0  0  0  0
   -1.5995    0.3438    0.2735 C   0  0  1  0  0  0  0  0  0  0  0  0
   -0.8925   -0.4309    1.2001 O   0  0  0  0  0  0  0  0  0  0  0  0
   -0.5126    1.1960   -0.2262 C   0  0  1  0  0  0  0  0  0  0  0  0
   -0.8397    2.5006    0.2099 F   0  0  0  0  0  0  0  0  0  0  0  0
    0.8813    0.9780    0.4380 C   0  0  2  0  0  0  0  0  0  0  0  0
    1.8011    1.4330   -0.5031 O   0  0  0  0  0  0  0  0  0  0  0  0
    3.1098   -1.1141    0.3620 H   0  0  0  0  0  0  0  0  0  0  0  0
    2.0291   -1.9186   -0.6177 H   0  0  0  0  0  0  0  0  0  0  0  0
    1.4183   -0.7145    1.6626 H   0  0  0  0  0  0  0  0  0  0  0  0
   -0.1095   -0.6299   -0.8599 H   0  0  0  0  0  0  0  0  0  0  0  0
   -3.0174   -1.1681   -0.1436 H   0  0  0  0  0  0  0  0  0  0  0  0
   -1.8878   -0.7649   -1.5566 H   0  0  0  0  0  0  0  0  0  0  0  0
   -2.4529    0.8470    0.7390 H   0  0  0  0  0  0  0  0  0  0  0  0
   -0.4142    1.3135   -1.3180 H   0  0  0  0  0  0  0  0  0  0  0  0
    0.9360    1.4704    1.4038 H   0  0  0  0  0  0  0  0  0  0  0  0
    1.3985    2.1232   -1.1182 H   0  0  0  0  0  0  0  0  0  0  0  0
  1  2  1  0
  2  3  1  0
  3  4  1  0
  4  5  1  0
  5  6  1  0
  6  7  1  0
  6  8  1  0
  8  9  1  0
  8 10  1  0
 10 11  1  0
 10  2  1  0
  7  3  1  0
  1 12  1  0
  1 13  1  0
  2 14  1  1
  3 15  1  6
  5 16  1  0
  5 17  1  0
  6 18  1  1
  8 19  1  6
 10 20  1  1
 11 21  1  0
M  END
$$$$

     RDKit          3D

 21 22  0  0  0  0  0  0  0  0999 V2000
    2.3196   -0.6105   -0.2559 N   0  0  0  0  0  0  0  0  0  0  0  0
    1.1917   -0.3879    0.6318 C   0  0  2  0  0  0  0  0  0  0  0  0
    0.0577   -1.1031    0.2936 C   0  0  1  0  0  0  0  0  0  0  0  0
   -0.7742   -2.0849    0.1585 O   0  0  0  0  0  0  0  0  0  0  0  0
   -1.8688   -1.2806   -0.3707 C   0  0  0  0  0  0  0  0  0  0  0  0
   -1.6253    0.1027    0.2559 C   0  0  1  0  0  0  0  0  0  0  0  0
   -0.8170   -0.4828    1.2515 O   0  0  0  0  0  0  0  0  0  0  0  0
   -0.6710    1.0459   -0.3323 C   0  0  1  0  0  0  0  0  0  0  0  0
   -1.1738    2.3346   -0.0344 F   0  0  0  0  0  0  0  0  0  0  0  0
    0.7302    1.0913    0.3486 C   0  0  2  0  0  0  0  0  0  0  0  0
    1.6190    1.7392   -0.4484 O   0  0  0  0  0  0  0  0  0  0  0  0
    2.0067   -0.2594   -1.2103 H   0  0  0  0  0  0  0  0  0  0  0  0
    2.4456   -1.6542   -0.3984 H   0  0  0  0  0  0  0  0  0  0  0  0
    1.5862   -0.4500    1.6615 H   0  0  0  0  0  0  0  0  0  0  0  0
   -0.0113   -0.7574   -0.7916 H   0  0  0  0  0  0  0  0  0  0  0  0
   -1.7084   -1.1967   -1.4401 H   0  0  0  0  0  0  0  0  0  0  0  0
   -2.8132   -1.6350   -0.0147 H   0  0  0  0  0  0  0  0  0  0  0  0
   -2.5455    0.5263    0.6704 H   0  0  0  0  0  0  0  0  0  0  0  0
   -0.5751    1.0709   -1.4316 H   0  0  0  0  0  0  0  0  0  0  0  0
    0.5676    1.5340    1.3486 H   0  0  0  0  0  0  0  0  0  0  0  0
    2.0593    2.4577    0.1079 H   0  0  0  0  0  0  0  0  0  0  0  0
  1  2  1  0
  2  3  1  0
  3  4  1  0
  4  5  1  0
  5  6  1  0
  6  7  1  0
  6  8  1  0
  8  9  1  0
  8 10  1  0
 10 11  1  0
 10  2  1  0
  7  3  1  0
  1 12  1  0
  1 13  1  0
  2 14  1  1
  3 15  1  6
  5 16  1  0
  5 17  1  0
  6 18  1  1
  8 19  1  6
 10 20  1  1
 11 21  1  0
M  END
$$$$

     RDKit          3D

 21 22  0  0  0  0  0  0  0  0999 V2000
   -2.1537   -0.8370    0.8352 N   0  0  0  0  0  0  0  0  0  0  0  0
   -1.3222   -0.4336   -0.2576 C   0  0  2  0  0  0  0  0  0  0  0  0
   -0.0884   -1.0514   -0.3292 C   0  0  1  0  0  0  0  0  0  0  0  0
    0.8155   -1.9613   -0.5132 O   0  0  0  0  0  0  0  0  0  0  0  0
    1.9574   -1.0684   -0.3726 C   0  0  0  0  0  0  0  0  0  0  0  0
    1.3995    0.2781   -0.8731 C   0  0  1  0  0  0  0  0  0  0  0  0
    0.3490   -0.3744   -1.5203 O   0  0  0  0  0  0  0  0  0  0  0  0
    0.6423    1.1499    0.0297 C   0  0  1  0  0  0  0  0  0  0  0  0
    0.8964    2.4723   -0.4028 F   0  0  0  0  0  0  0  0  0  0  0  0
   -0.9084    1.0776   -0.0986 C   0  0  2  0  0  0  0  0  0  0  0  0
   -1.3846    1.4788    1.1460 O   0  0  0  0  0  0  0  0  0  0  0  0
   -2.5395   -0.0873    1.4075 H   0  0  0  0  0  0  0  0  0  0  0  0
   -1.8555   -1.6900    1.3269 H   0  0  0  0  0  0  0  0  0  0  0  0
   -1.9859   -0.4817   -1.1728 H   0  0  0  0  0  0  0  0  0  0  0  0
    0.3281   -0.6913    0.6701 H   0  0  0  0  0  0  0  0  0  0  0  0
    2.1245   -0.9498    0.6997 H   0  0  0  0  0  0  0  0  0  0  0  0
    2.7768   -1.3832   -0.9793 H   0  0  0  0  0  0  0  0  0  0  0  0
    2.0969    0.7581   -1.5669 H   0  0  0  0  0  0  0  0  0  0  0  0
    0.9550    1.1789    1.0928 H   0  0  0  0  0  0  0  0  0  0  0  0
   -1.2663    1.6572   -0.9391 H   0  0  0  0  0  0  0  0  0  0  0  0
   -0.8368    0.9587    1.8176 H   0  0  0  0  0  0  0  0  0  0  0  0
  1  2  1  0
  2  3  1  0
  3  4  1  0
  4  5  1  0
  5  6  1  0
  6  7  1  0
  6  8  1  0
  8  9  1  0
  8 10  1  0
 10 11  1  0
 10  2  1  0
  7  3  1  0
  1 12  1  0
  1 13  1  0
  2 14  1  6
  3 15  1  1
  5 16  1  0
  5 17  1  0
  6 18  1  6
  8 19  1  1
 10 20  1  6
 11 21  1  0
M  END
$$$$

     RDKit          3D

 21 22  0  0  0  0  0  0  0  0999 V2000
   -1.3018    1.9956   -0.4335 N   0  0  0  0  0  0  0  0  0  0  0  0
   -0.5631    1.1679    0.5180 C   0  0  2  0  0  0  0  0  0  0  0  0
    0.7062    0.8257    0.0867 C   0  0  1  0  0  0  0  0  0  0  0  0
    1.9578    0.9179   -0.2167 O   0  0  0  0  0  0  0  0  0  0  0  0
    2.1436   -0.4973   -0.5099 C   0  0  0  0  0  0  0  0  0  0  0  0
    1.1046   -1.1819    0.3953 C   0  0  1  0  0  0  0  0  0  0  0  0
    1.0204   -0.0262    1.2009 O   0  0  0  0  0  0  0  0  0  0  0  0
   -0.2940   -1.2995   -0.0184 C   0  0  1  0  0  0  0  0  0  0  0  0
   -0.7655   -2.4889    0.5846 F   0  0  0  0  0  0  0  0  0  0  0  0
   -1.2740   -0.2385    0.5718 C   0  0  2  0  0  0  0  0  0  0  0  0
   -2.3717   -0.2203   -0.2874 O   0  0  0  0  0  0  0  0  0  0  0  0
   -1.7470    2.7904    0.0381 H   0  0  0  0  0  0  0  0  0  0  0  0
   -0.5734    2.4051   -1.0872 H   0  0  0  0  0  0  0  0  0  0  0  0
   -0.6886    1.6140    1.5290 H   0  0  0  0  0  0  0  0  0  0  0  0
    0.3949    0.3290   -0.8925 H   0  0  0  0  0  0  0  0  0  0  0  0
    1.8022   -0.5966   -1.5372 H   0  0  0  0  0  0  0  0  0  0  0  0
    3.1271   -0.8231   -0.2605 H   0  0  0  0  0  0  0  0  0  0  0  0
    1.5420   -2.0244    0.9407 H   0  0  0  0  0  0  0  0  0  0  0  0
   -0.5050   -1.4673   -1.0921 H   0  0  0  0  0  0  0  0  0  0  0  0
   -1.5234   -0.4808    1.6097 H   0  0  0  0  0  0  0  0  0  0  0  0
   -2.1914   -0.7005   -1.1393 H   0  0  0  0  0  0  0  0  0  0  0  0
  1  2  1  0
  2  3  1  0
  3  4  1  0
  4  5  1  0
  5  6  1  0
  6  7  1  0
  6  8  1  0
  8  9  1  0
  8 10  1  0
 10 11  1  0
 10  2  1  0
  7  3  1  0
  1 12  1  0
  1 13  1  0
  2 14  1  1
  3 15  1  6
  5 16  1  0
  5 17  1  0
  6 18  1  1
  8 19  1  6
 10 20  1  1
 11 21  1  0
M  END
$$$$

     RDKit          3D

 21 22  0  0  0  0  0  0  0  0999 V2000
   -1.8524    1.5271   -0.5509 N   0  0  0  0  0  0  0  0  0  0  0  0
   -0.8331    1.0734    0.3610 C   0  0  2  0  0  0  0  0  0  0  0  0
    0.4494    1.0788   -0.1585 C   0  0  1  0  0  0  0  0  0  0  0  0
    1.5867    1.5042   -0.6016 O   0  0  0  0  0  0  0  0  0  0  0  0
    2.2016    0.1889   -0.7211 C   0  0  0  0  0  0  0  0  0  0  0  0
    1.4907   -0.6302    0.3697 C   0  0  1  0  0  0  0  0  0  0  0  0
    1.0859    0.5541    1.0191 O   0  0  0  0  0  0  0  0  0  0  0  0
    0.1823   -1.2413    0.1263 C   0  0  1  0  0  0  0  0  0  0  0  0
    0.1561   -2.4112    0.9200 F   0  0  0  0  0  0  0  0  0  0  0  0
   -1.0522   -0.4578    0.6695 C   0  0  2  0  0  0  0  0  0  0  0  0
   -2.1166   -0.8817   -0.1105 O   0  0  0  0  0  0  0  0  0  0  0  0
   -2.1810    0.8248   -1.2194 H   0  0  0  0  0  0  0  0  0  0  0  0
   -2.5622    2.1362   -0.1320 H   0  0  0  0  0  0  0  0  0  0  0  0
   -1.0145    1.5963    1.3287 H   0  0  0  0  0  0  0  0  0  0  0  0
    0.2573    0.3607   -1.0244 H   0  0  0  0  0  0  0  0  0  0  0  0
    3.2466    0.2324   -0.4819 H   0  0  0  0  0  0  0  0  0  0  0  0
    1.9088   -0.1957   -1.6904 H   0  0  0  0  0  0  0  0  0  0  0  0
    2.2055   -1.1932    0.9762 H   0  0  0  0  0  0  0  0  0  0  0  0
   -0.0187   -1.6343   -0.8910 H   0  0  0  0  0  0  0  0  0  0  0  0
   -1.1718   -0.6117    1.7385 H   0  0  0  0  0  0  0  0  0  0  0  0
   -1.9685   -1.8198   -0.4531 H   0  0  0  0  0  0  0  0  0  0  0  0
  1  2  1  0
  2  3  1  0
  3  4  1  0
  4  5  1  0
  5  6  1  0
  6  7  1  0
  6  8  1  0
  8  9  1  0
  8 10  1  0
 10 11  1  0
 10  2  1  0
  7  3  1  0
  1 12  1  0
  1 13  1  0
  2 14  1  1
  3 15  1  6
  5 16  1  0
  5 17  1  0
  6 18  1  1
  8 19  1  6
 10 20  1  1
 11 21  1  0
M  END
$$$$

     RDKit          3D

 21 22  0  0  0  0  0  0  0  0999 V2000
    2.1957   -1.0751   -0.2284 N   0  0  0  0  0  0  0  0  0  0  0  0
    1.1208   -0.5572    0.6031 C   0  0  2  0  0  0  0  0  0  0  0  0
   -0.1429   -1.0364    0.3080 C   0  0  1  0  0  0  0  0  0  0  0  0
   -1.1575   -1.8345    0.2174 O   0  0  0  0  0  0  0  0  0  0  0  0
   -2.0948   -0.8313   -0.2722 C   0  0  0  0  0  0  0  0  0  0  0  0
   -1.5580    0.4677    0.3557 C   0  0  1  0  0  0  0  0  0  0  0  0
   -0.8334   -0.2582    1.3009 O   0  0  0  0  0  0  0  0  0  0  0  0
   -0.4684    1.2139   -0.2838 C   0  0  1  0  0  0  0  0  0  0  0  0
   -0.6937    2.5718    0.0381 F   0  0  0  0  0  0  0  0  0  0  0  0
    0.9546    0.9827    0.3088 C   0  0  2  0  0  0  0  0  0  0  0  0
    1.8340    1.3120   -0.7188 O   0  0  0  0  0  0  0  0  0  0  0  0
    1.8717   -1.9676   -0.7072 H   0  0  0  0  0  0  0  0  0  0  0  0
    3.0336   -1.3563    0.3232 H   0  0  0  0  0  0  0  0  0  0  0  0
    1.4815   -0.6246    1.6526 H   0  0  0  0  0  0  0  0  0  0  0  0
   -0.1919   -0.6801   -0.7748 H   0  0  0  0  0  0  0  0  0  0  0  0
   -1.9749   -0.7873   -1.3523 H   0  0  0  0  0  0  0  0  0  0  0  0
   -3.0788   -1.0070    0.1197 H   0  0  0  0  0  0  0  0  0  0  0  0
   -2.3618    1.0578    0.8125 H   0  0  0  0  0  0  0  0  0  0  0  0
   -0.4338    1.2263   -1.3901 H   0  0  0  0  0  0  0  0  0  0  0  0
    1.0987    1.5537    1.2190 H   0  0  0  0  0  0  0  0  0  0  0  0
    1.3990    1.6296   -1.5314 H   0  0  0  0  0  0  0  0  0  0  0  0
  1  2  1  0
  2  3  1  0
  3  4  1  0
  4  5  1  0
  5  6  1  0
  6  7  1  0
  6  8  1  0
  8  9  1  0
  8 10  1  0
 10 11  1  0
 10  2  1  0
  7  3  1  0
  1 12  1  0
  1 13  1  0
  2 14  1  1
  3 15  1  6
  5 16  1  0
  5 17  1  0
  6 18  1  1
  8 19  1  6
 10 20  1  1
 11 21  1  0
M  END
$$$$
