
     RDKit          3D

 26 26  0  0  0  0  0  0  0  0999 V2000
   -3.0383   -1.0476   -0.0954 C   0  0  0  0  0  0  0  0  0  0  0  0
   -2.0332   -0.7541   -1.0169 O   0  0  0  0  0  0  0  0  0  0  0  0
   -1.0231   -0.1154   -0.3555 C   0  0  2  0  0  0  0  0  0  0  0  0
   -0.7765    1.2980   -0.8821 C   0  0  0  0  0  0  0  0  0  0  0  0
    0.2789    1.8979    0.0564 C   0  0  2  0  0  0  0  0  0  0  0  0
    0.4660    3.2403   -0.1626 O   0  0  0  0  0  0  0  0  0  0  0  0
    1.4636    1.1554   -0.0066 O   0  0  0  0  0  0  0  0  0  0  0  0
    1.2182   -0.0959    0.5186 C   0  0  2  0  0  0  0  0  0  0  0  0
    2.4733   -0.8684    0.8223 C   0  0  0  0  0  0  0  0  0  0  0  0
    3.2518   -1.0731   -0.3138 O   0  0  0  0  0  0  0  0  0  0  0  0
    0.3050   -0.8277   -0.4370 C   0  0  1  0  0  0  0  0  0  0  0  0
    0.1980   -2.1783   -0.1329 O   0  0  0  0  0  0  0  0  0  0  0  0
   -3.8998   -1.5682   -0.5477 H   0  0  0  0  0  0  0  0  0  0  0  0
   -2.5867   -1.6128    0.7568 H   0  0  0  0  0  0  0  0  0  0  0  0
   -3.3585   -0.0637    0.3557 H   0  0  0  0  0  0  0  0  0  0  0  0
   -1.2418    0.0135    0.7353 H   0  0  0  0  0  0  0  0  0  0  0  0
   -0.4058    1.2416   -1.9126 H   0  0  0  0  0  0  0  0  0  0  0  0
   -1.6794    1.9158   -0.7645 H   0  0  0  0  0  0  0  0  0  0  0  0
   -0.1310    1.7067    1.0913 H   0  0  0  0  0  0  0  0  0  0  0  0
    0.0349    3.7464    0.5971 H   0  0  0  0  0  0  0  0  0  0  0  0
    0.6660    0.0375    1.4628 H   0  0  0  0  0  0  0  0  0  0  0  0
    2.1608   -1.8468    1.2416 H   0  0  0  0  0  0  0  0  0  0  0  0
    3.0114   -0.3306    1.6160 H   0  0  0  0  0  0  0  0  0  0  0  0
    4.0982   -0.5619   -0.2449 H   0  0  0  0  0  0  0  0  0  0  0  0
    0.7142   -0.6832   -1.4579 H   0  0  0  0  0  0  0  0  0  0  0  0
   -0.1662   -2.6257   -0.9237 H   0  0  0  0  0  0  0  0  0  0  0  0
  1  2  1  0
  2  3  1  0
  3  4  1  0
  4  5  1  0
  5  6  1  0
  5  7  1  0
  7  8  1  0
  8  9  1  0
  9 10  1  0
  8 11  1  0
 11 12  1  0
 11  3  1  0
  1 13  1  0
  1 14  1  0
  1 15  1  0
  3 16  1  1
  4 17  1  0
  4 18  1  0
  5 19  1  1
  6 20  1  0
  8 21  1  1
  9 22  1  0
  9 23  1  0
 10 24  1  0
 11 25  1  6
 12 26  1  0
M  END
$$$$

     RDKit          3D

 26 26  0  0  0  0  0  0  0  0999 V2000
   -3.1399   -0.9259    0.4811 C   0  0  0  0  0  0  0  0  0  0  0  0
   -2.3808   -0.0602   -0.2836 O   0  0  0  0  0  0  0  0  0  0  0  0
   -1.0745    0.0618    0.1287 C   0  0  2  0  0  0  0  0  0  0  0  0
   -0.7350    1.4538    0.6060 C   0  0  0  0  0  0  0  0  0  0  0  0
    0.7295    1.5275    0.9343 C   0  0  2  0  0  0  0  0  0  0  0  0
    1.0879    2.7932    1.3669 O   0  0  0  0  0  0  0  0  0  0  0  0
    1.5272    1.0753   -0.1106 O   0  0  0  0  0  0  0  0  0  0  0  0
    1.2893   -0.2847   -0.2523 C   0  0  2  0  0  0  0  0  0  0  0  0
    2.3695   -0.9789   -1.0421 C   0  0  0  0  0  0  0  0  0  0  0  0
    3.5657   -0.7993   -0.3650 O   0  0  0  0  0  0  0  0  0  0  0  0
   -0.0762   -0.4522   -0.8883 C   0  0  1  0  0  0  0  0  0  0  0  0
   -0.2855   -1.8279   -1.0320 O   0  0  0  0  0  0  0  0  0  0  0  0
   -2.7689   -1.9537    0.5026 H   0  0  0  0  0  0  0  0  0  0  0  0
   -4.1641   -0.9319    0.0365 H   0  0  0  0  0  0  0  0  0  0  0  0
   -3.2592   -0.4647    1.4860 H   0  0  0  0  0  0  0  0  0  0  0  0
   -0.9591   -0.6072    1.0241 H   0  0  0  0  0  0  0  0  0  0  0  0
   -1.2927    1.6045    1.5629 H   0  0  0  0  0  0  0  0  0  0  0  0
   -1.0746    2.2453   -0.0875 H   0  0  0  0  0  0  0  0  0  0  0  0
    0.9045    0.8216    1.7873 H   0  0  0  0  0  0  0  0  0  0  0  0
    0.7219    3.4875    0.7704 H   0  0  0  0  0  0  0  0  0  0  0  0
    1.2655   -0.7351    0.7563 H   0  0  0  0  0  0  0  0  0  0  0  0
    2.4635   -0.6217   -2.0720 H   0  0  0  0  0  0  0  0  0  0  0  0
    2.1261   -2.0640   -1.0449 H   0  0  0  0  0  0  0  0  0  0  0  0
    3.4890   -0.1934    0.4035 H   0  0  0  0  0  0  0  0  0  0  0  0
   -0.1419    0.0729   -1.8505 H   0  0  0  0  0  0  0  0  0  0  0  0
   -0.1873   -2.2428   -0.1390 H   0  0  0  0  0  0  0  0  0  0  0  0
  1  2  1  0
  2  3  1  0
  3  4  1  0
  4  5  1  0
  5  6  1  0
  5  7  1  0
  7  8  1  0
  8  9  1  0
  9 10  1  0
  8 11  1  0
 11 12  1  0
 11  3  1  0
  1 13  1  0
  1 14  1  0
  1 15  1  0
  3 16  1  1
  4 17  1  0
  4 18  1  0
  5 19  1  1
  6 20  1  0
  8 21  1  1
  9 22  1  0
  9 23  1  0
 10 24  1  0
 11 25  1  6
 12 26  1  0
M  END
$$$$

     RDKit          3D

 26 26  0  0  0  0  0  0  0  0999 V2000
   -2.9955   -1.3136    0.3259 C   0  0  0  0  0  0  0  0  0  0  0  0
   -2.2069   -0.7905   -0.7222 O   0  0  0  0  0  0  0  0  0  0  0  0
   -1.1424   -0.1574   -0.1549 C   0  0  2  0  0  0  0  0  0  0  0  0
   -1.0682    1.3241   -0.5047 C   0  0  0  0  0  0  0  0  0  0  0  0
    0.0340    1.9148    0.3366 C   0  0  2  0  0  0  0  0  0  0  0  0
    0.2182    3.2351   -0.1292 O   0  0  0  0  0  0  0  0  0  0  0  0
    1.2265    1.2715    0.2399 O   0  0  0  0  0  0  0  0  0  0  0  0
    1.2113   -0.0838    0.3359 C   0  0  2  0  0  0  0  0  0  0  0  0
    2.5783   -0.6051   -0.0897 C   0  0  0  0  0  0  0  0  0  0  0  0
    3.5517   -0.0805    0.7408 O   0  0  0  0  0  0  0  0  0  0  0  0
    0.2040   -0.7164   -0.6139 C   0  0  1  0  0  0  0  0  0  0  0  0
    0.2461   -2.0802   -0.5904 O   0  0  0  0  0  0  0  0  0  0  0  0
   -3.8778   -1.8423   -0.0354 H   0  0  0  0  0  0  0  0  0  0  0  0
   -3.2916   -0.4054    0.9267 H   0  0  0  0  0  0  0  0  0  0  0  0
   -2.3438   -1.9268    0.9919 H   0  0  0  0  0  0  0  0  0  0  0  0
   -1.1496   -0.2032    0.9673 H   0  0  0  0  0  0  0  0  0  0  0  0
   -2.0128    1.8178   -0.2840 H   0  0  0  0  0  0  0  0  0  0  0  0
   -0.8160    1.4568   -1.5894 H   0  0  0  0  0  0  0  0  0  0  0  0
   -0.3490    2.0286    1.3823 H   0  0  0  0  0  0  0  0  0  0  0  0
    0.2512    3.1347   -1.1326 H   0  0  0  0  0  0  0  0  0  0  0  0
    0.9956   -0.4888    1.3440 H   0  0  0  0  0  0  0  0  0  0  0  0
    2.5768   -1.7134    0.0045 H   0  0  0  0  0  0  0  0  0  0  0  0
    2.7705   -0.3184   -1.1610 H   0  0  0  0  0  0  0  0  0  0  0  0
    4.3328   -0.6861    0.8138 H   0  0  0  0  0  0  0  0  0  0  0  0
    0.4484   -0.3153   -1.6359 H   0  0  0  0  0  0  0  0  0  0  0  0
    0.6083   -2.4562    0.2336 H   0  0  0  0  0  0  0  0  0  0  0  0
  1  2  1  0
  2  3  1  0
  3  4  1  0
  4  5  1  0
  5  6  1  0
  5  7  1  0
  7  8  1  0
  8  9  1  0
  9 10  1  0
  8 11  1  0
 11 12  1  0
 11  3  1  0
  1 13  1  0
  1 14  1  0
  1 15  1  0
  3 16  1  1
  4 17  1  0
  4 18  1  0
  5 19  1  1
  6 20  1  0
  8 21  1  1
  9 22  1  0
  9 23  1  0
 10 24  1  0
 11 25  1  6
 12 26  1  0
M  END
$$$$

     RDKit          3D

 26 26  0  0  0  0  0  0  0  0999 V2000
    2.6063    1.7533   -0.1451 C   0  0  0  0  0  0  0  0  0  0  0  0
    2.0924    0.6615   -0.8429 O   0  0  0  0  0  0  0  0  0  0  0  0
    1.0308    0.1626   -0.1561 C   0  0  2  0  0  0  0  0  0  0  0  0
    1.2341   -1.2865    0.2912 C   0  0  0  0  0  0  0  0  0  0  0  0
    0.0270   -1.6642    1.1241 C   0  0  2  0  0  0  0  0  0  0  0  0
    0.1681   -3.0144    1.4466 O   0  0  0  0  0  0  0  0  0  0  0  0
   -1.1676   -1.4853    0.4524 O   0  0  0  0  0  0  0  0  0  0  0  0
   -1.3262   -0.1488    0.1039 C   0  0  2  0  0  0  0  0  0  0  0  0
   -2.7094    0.1735   -0.3732 C   0  0  0  0  0  0  0  0  0  0  0  0
   -2.7402    1.5322   -0.6893 O   0  0  0  0  0  0  0  0  0  0  0  0
   -0.2652    0.1488   -0.9344 C   0  0  1  0  0  0  0  0  0  0  0  0
   -0.4946    1.3029   -1.6384 O   0  0  0  0  0  0  0  0  0  0  0  0
    2.9141    1.3733    0.8509 H   0  0  0  0  0  0  0  0  0  0  0  0
    1.7819    2.4757    0.0245 H   0  0  0  0  0  0  0  0  0  0  0  0
    3.4279    2.2551   -0.6851 H   0  0  0  0  0  0  0  0  0  0  0  0
    0.8347    0.7337    0.7744 H   0  0  0  0  0  0  0  0  0  0  0  0
    1.3170   -1.9122   -0.6173 H   0  0  0  0  0  0  0  0  0  0  0  0
    2.1151   -1.3423    0.9539 H   0  0  0  0  0  0  0  0  0  0  0  0
    0.0890   -1.0960    2.0726 H   0  0  0  0  0  0  0  0  0  0  0  0
    1.0572   -3.1538    1.8693 H   0  0  0  0  0  0  0  0  0  0  0  0
   -1.1308    0.4785    1.0023 H   0  0  0  0  0  0  0  0  0  0  0  0
   -3.4023    0.0257    0.4689 H   0  0  0  0  0  0  0  0  0  0  0  0
   -2.9982   -0.3832   -1.2813 H   0  0  0  0  0  0  0  0  0  0  0  0
   -3.1783    2.0720    0.0115 H   0  0  0  0  0  0  0  0  0  0  0  0
   -0.2472   -0.7278   -1.6266 H   0  0  0  0  0  0  0  0  0  0  0  0
   -1.0357    1.0659   -2.4571 H   0  0  0  0  0  0  0  0  0  0  0  0
  1  2  1  0
  2  3  1  0
  3  4  1  0
  4  5  1  0
  5  6  1  0
  5  7  1  0
  7  8  1  0
  8  9  1  0
  9 10  1  0
  8 11  1  0
 11 12  1  0
 11  3  1  0
  1 13  1  0
  1 14  1  0
  1 15  1  0
  3 16  1  1
  4 17  1  0
  4 18  1  0
  5 19  1  1
  6 20  1  0
  8 21  1  1
  9 22  1  0
  9 23  1  0
 10 24  1  0
 11 25  1  6
 12 26  1  0
M  END
$$$$

     RDKit          3D

 26 26  0  0  0  0  0  0  0  0999 V2000
   -2.9162   -1.4973    0.6523 C   0  0  0  0  0  0  0  0  0  0  0  0
   -2.0764   -1.0396   -0.3614 O   0  0  0  0  0  0  0  0  0  0  0  0
   -1.0779   -0.2661    0.2165 C   0  0  2  0  0  0  0  0  0  0  0  0
   -1.1449    1.1256   -0.3166 C   0  0  0  0  0  0  0  0  0  0  0  0
    0.1091    1.8891    0.0255 C   0  0  2  0  0  0  0  0  0  0  0  0
    0.0311    3.1537   -0.5496 O   0  0  0  0  0  0  0  0  0  0  0  0
    1.1900    1.1939   -0.4881 O   0  0  0  0  0  0  0  0  0  0  0  0
    1.3791   -0.0030    0.1763 C   0  0  2  0  0  0  0  0  0  0  0  0
    2.6774   -0.6046   -0.3366 C   0  0  0  0  0  0  0  0  0  0  0  0
    3.7501    0.2263   -0.1017 O   0  0  0  0  0  0  0  0  0  0  0  0
    0.2406   -0.9445   -0.0780 C   0  0  1  0  0  0  0  0  0  0  0  0
    0.3229   -2.0602    0.7519 O   0  0  0  0  0  0  0  0  0  0  0  0
   -3.7171   -2.1122    0.2312 H   0  0  0  0  0  0  0  0  0  0  0  0
   -3.3275   -0.6436    1.2008 H   0  0  0  0  0  0  0  0  0  0  0  0
   -2.3172   -2.1523    1.3169 H   0  0  0  0  0  0  0  0  0  0  0  0
   -1.2057   -0.2118    1.3344 H   0  0  0  0  0  0  0  0  0  0  0  0
   -1.2785    1.1622   -1.4152 H   0  0  0  0  0  0  0  0  0  0  0  0
   -2.0016    1.6437    0.1421 H   0  0  0  0  0  0  0  0  0  0  0  0
    0.1722    1.9460    1.1317 H   0  0  0  0  0  0  0  0  0  0  0  0
   -0.6259    3.6802   -0.0647 H   0  0  0  0  0  0  0  0  0  0  0  0
    1.4725    0.1277    1.2676 H   0  0  0  0  0  0  0  0  0  0  0  0
    2.5915   -0.7527   -1.4344 H   0  0  0  0  0  0  0  0  0  0  0  0
    2.8556   -1.5940    0.1045 H   0  0  0  0  0  0  0  0  0  0  0  0
    3.4615    1.0918    0.2341 H   0  0  0  0  0  0  0  0  0  0  0  0
    0.2637   -1.2338   -1.1476 H   0  0  0  0  0  0  0  0  0  0  0  0
    1.1718   -2.1245    1.2425 H   0  0  0  0  0  0  0  0  0  0  0  0
  1  2  1  0
  2  3  1  0
  3  4  1  0
  4  5  1  0
  5  6  1  0
  5  7  1  0
  7  8  1  0
  8  9  1  0
  9 10  1  0
  8 11  1  0
 11 12  1  0
 11  3  1  0
  1 13  1  0
  1 14  1  0
  1 15  1  0
  3 16  1  1
  4 17  1  0
  4 18  1  0
  5 19  1  1
  6 20  1  0
  8 21  1  1
  9 22  1  0
  9 23  1  0
 10 24  1  0
 11 25  1  6
 12 26  1  0
M  END
$$$$

     RDKit          3D

 26 26  0  0  0  0  0  0  0  0999 V2000
    3.2705   -0.7703   -0.2870 C   0  0  0  0  0  0  0  0  0  0  0  0
    2.2015   -0.5698    0.5883 O   0  0  0  0  0  0  0  0  0  0  0  0
    1.1074   -0.0283   -0.0674 C   0  0  2  0  0  0  0  0  0  0  0  0
    0.8244    1.3474    0.5067 C   0  0  0  0  0  0  0  0  0  0  0  0
   -0.5004    1.8162   -0.0793 C   0  0  2  0  0  0  0  0  0  0  0  0
   -0.7292    3.1241    0.2743 O   0  0  0  0  0  0  0  0  0  0  0  0
   -1.4863    0.9544    0.3620 O   0  0  0  0  0  0  0  0  0  0  0  0
   -1.3250   -0.2555   -0.3088 C   0  0  2  0  0  0  0  0  0  0  0  0
   -2.5490   -1.1040   -0.0648 C   0  0  0  0  0  0  0  0  0  0  0  0
   -3.6739   -0.4460   -0.5409 O   0  0  0  0  0  0  0  0  0  0  0  0
   -0.0581   -0.9527    0.0655 C   0  0  1  0  0  0  0  0  0  0  0  0
    0.1208   -2.0115   -0.8498 O   0  0  0  0  0  0  0  0  0  0  0  0
    4.1394   -1.2004    0.2339 H   0  0  0  0  0  0  0  0  0  0  0  0
    2.9945   -1.4465   -1.1180 H   0  0  0  0  0  0  0  0  0  0  0  0
    3.5272    0.2394   -0.7093 H   0  0  0  0  0  0  0  0  0  0  0  0
    1.3777    0.1037   -1.1315 H   0  0  0  0  0  0  0  0  0  0  0  0
    1.5904    2.0592    0.1670 H   0  0  0  0  0  0  0  0  0  0  0  0
    0.8176    1.3477    1.6044 H   0  0  0  0  0  0  0  0  0  0  0  0
   -0.3914    1.7020   -1.1879 H   0  0  0  0  0  0  0  0  0  0  0  0
   -1.2067    3.1520    1.1515 H   0  0  0  0  0  0  0  0  0  0  0  0
   -1.2897   -0.0617   -1.4076 H   0  0  0  0  0  0  0  0  0  0  0  0
   -2.6574   -1.1901    1.0524 H   0  0  0  0  0  0  0  0  0  0  0  0
   -2.4793   -2.0995   -0.5088 H   0  0  0  0  0  0  0  0  0  0  0  0
   -3.4576    0.5261   -0.5631 H   0  0  0  0  0  0  0  0  0  0  0  0
   -0.1681   -1.3463    1.0945 H   0  0  0  0  0  0  0  0  0  0  0  0
    0.0005   -2.8896   -0.4333 H   0  0  0  0  0  0  0  0  0  0  0  0
  1  2  1  0
  2  3  1  0
  3  4  1  0
  4  5  1  0
  5  6  1  0
  5  7  1  0
  7  8  1  0
  8  9  1  0
  9 10  1  0
  8 11  1  0
 11 12  1  0
 11  3  1  0
  1 13  1  0
  1 14  1  0
  1 15  1  0
  3 16  1  6
  4 17  1  0
  4 18  1  0
  5 19  1  6
  6 20  1  0
  8 21  1  6
  9 22  1  0
  9 23  1  0
 10 24  1  0
 11 25  1  1
 12 26  1  0
M  END
$$$$

     RDKit          3D

 26 26  0  0  0  0  0  0  0  0999 V2000
   -3.3542   -0.1598   -0.0074 C   0  0  0  0  0  0  0  0  0  0  0  0
   -2.2453    0.2180   -0.7585 O   0  0  0  0  0  0  0  0  0  0  0  0
   -1.0782    0.2412   -0.0196 C   0  0  2  0  0  0  0  0  0  0  0  0
   -0.4981    1.6038   -0.0364 C   0  0  0  0  0  0  0  0  0  0  0  0
    0.9666    1.7041    0.1321 C   0  0  2  0  0  0  0  0  0  0  0  0
    1.4033    2.8456   -0.5832 O   0  0  0  0  0  0  0  0  0  0  0  0
    1.7026    0.6474   -0.3207 O   0  0  0  0  0  0  0  0  0  0  0  0
    1.1943   -0.5326    0.2012 C   0  0  2  0  0  0  0  0  0  0  0  0
    2.1664   -1.6677    0.1579 C   0  0  0  0  0  0  0  0  0  0  0  0
    3.2851   -1.2956    0.9096 O   0  0  0  0  0  0  0  0  0  0  0  0
   -0.0893   -0.8067   -0.5261 C   0  0  1  0  0  0  0  0  0  0  0  0
   -0.5676   -2.0766   -0.3876 O   0  0  0  0  0  0  0  0  0  0  0  0
   -3.5585    0.5032    0.8377 H   0  0  0  0  0  0  0  0  0  0  0  0
   -3.1777   -1.2243    0.3051 H   0  0  0  0  0  0  0  0  0  0  0  0
   -4.2218   -0.1978   -0.6994 H   0  0  0  0  0  0  0  0  0  0  0  0
   -1.3108   -0.0595    1.0421 H   0  0  0  0  0  0  0  0  0  0  0  0
   -0.9804    2.1874    0.8026 H   0  0  0  0  0  0  0  0  0  0  0  0
   -0.8317    2.1557   -0.9629 H   0  0  0  0  0  0  0  0  0  0  0  0
    1.2389    1.8961    1.1881 H   0  0  0  0  0  0  0  0  0  0  0  0
    1.3028    2.6462   -1.5631 H   0  0  0  0  0  0  0  0  0  0  0  0
    0.9552   -0.3245    1.2742 H   0  0  0  0  0  0  0  0  0  0  0  0
    2.4711   -1.9307   -0.8654 H   0  0  0  0  0  0  0  0  0  0  0  0
    1.7074   -2.5238    0.6960 H   0  0  0  0  0  0  0  0  0  0  0  0
    3.9101   -0.7464    0.3393 H   0  0  0  0  0  0  0  0  0  0  0  0
    0.0359   -0.5931   -1.6239 H   0  0  0  0  0  0  0  0  0  0  0  0
   -0.4263   -2.5094    0.4684 H   0  0  0  0  0  0  0  0  0  0  0  0
  1  2  1  0
  2  3  1  0
  3  4  1  0
  4  5  1  0
  5  6  1  0
  5  7  1  0
  7  8  1  0
  8  9  1  0
  9 10  1  0
  8 11  1  0
 11 12  1  0
 11  3  1  0
  1 13  1  0
  1 14  1  0
  1 15  1  0
  3 16  1  1
  4 17  1  0
  4 18  1  0
  5 19  1  1
  6 20  1  0
  8 21  1  1
  9 22  1  0
  9 23  1  0
 10 24  1  0
 11 25  1  6
 12 26  1  0
M  END
$$$$

     RDKit          3D

 26 26  0  0  0  0  0  0  0  0999 V2000
    2.8821   -1.3778    0.4552 C   0  0  0  0  0  0  0  0  0  0  0  0
    2.0756   -0.3678    0.9424 O   0  0  0  0  0  0  0  0  0  0  0  0
    1.0081   -0.0719    0.1073 C   0  0  2  0  0  0  0  0  0  0  0  0
    1.0253    1.3908   -0.3160 C   0  0  0  0  0  0  0  0  0  0  0  0
   -0.2263    1.6827   -1.1035 C   0  0  2  0  0  0  0  0  0  0  0  0
   -0.2774    2.9878   -1.5252 O   0  0  0  0  0  0  0  0  0  0  0  0
   -1.3807    1.4274   -0.3483 O   0  0  0  0  0  0  0  0  0  0  0  0
   -1.4030    0.0417   -0.1419 C   0  0  2  0  0  0  0  0  0  0  0  0
   -2.7664   -0.4412    0.2737 C   0  0  0  0  0  0  0  0  0  0  0  0
   -2.6796   -1.8217    0.4518 O   0  0  0  0  0  0  0  0  0  0  0  0
   -0.3215   -0.2873    0.8318 C   0  0  1  0  0  0  0  0  0  0  0  0
   -0.4137   -1.5447    1.3782 O   0  0  0  0  0  0  0  0  0  0  0  0
    3.3132   -1.0913   -0.5400 H   0  0  0  0  0  0  0  0  0  0  0  0
    2.3816   -2.3600    0.3878 H   0  0  0  0  0  0  0  0  0  0  0  0
    3.7411   -1.4783    1.1498 H   0  0  0  0  0  0  0  0  0  0  0  0
    0.9779   -0.6842   -0.7988 H   0  0  0  0  0  0  0  0  0  0  0  0
    1.0608    2.0597    0.5757 H   0  0  0  0  0  0  0  0  0  0  0  0
    1.8829    1.5704   -0.9947 H   0  0  0  0  0  0  0  0  0  0  0  0
   -0.2782    0.9505   -1.9610 H   0  0  0  0  0  0  0  0  0  0  0  0
    0.5808    3.3573   -1.8360 H   0  0  0  0  0  0  0  0  0  0  0  0
   -1.1416   -0.4167   -1.1150 H   0  0  0  0  0  0  0  0  0  0  0  0
   -3.4344   -0.2944   -0.6253 H   0  0  0  0  0  0  0  0  0  0  0  0
   -3.1618    0.0736    1.1533 H   0  0  0  0  0  0  0  0  0  0  0  0
   -2.5800   -2.2300   -0.4541 H   0  0  0  0  0  0  0  0  0  0  0  0
   -0.3267    0.4491    1.6737 H   0  0  0  0  0  0  0  0  0  0  0  0
   -0.5380   -1.5238    2.3793 H   0  0  0  0  0  0  0  0  0  0  0  0
  1  2  1  0
  2  3  1  0
  3  4  1  0
  4  5  1  0
  5  6  1  0
  5  7  1  0
  7  8  1  0
  8  9  1  0
  9 10  1  0
  8 11  1  0
 11 12  1  0
 11  3  1  0
  1 13  1  0
  1 14  1  0
  1 15  1  0
  3 16  1  6
  4 17  1  0
  4 18  1  0
  5 19  1  6
  6 20  1  0
  8 21  1  6
  9 22  1  0
  9 23  1  0
 10 24  1  0
 11 25  1  1
 12 26  1  0
M  END
$$$$
