
     RDKit          3D

 26 25  0  0  0  0  0  0  0  0999 V2000
    1.5171   -0.6575    0.8605 O   0  0  0  0  0  0  0  0  0  0  0  0
    1.3450   -0.2181   -0.3012 C   0  0  0  0  0  0  0  0  0  0  0  0
    2.4215   -0.0241   -1.2975 C   0  0  0  0  0  0  0  0  0  0  0  0
    3.7896   -0.3601   -0.8132 C   0  0  0  0  0  0  0  0  0  0  0  0
    4.2226    0.4362    0.3166 N   0  0  0  0  0  0  0  0  0  0  0  0
    5.4945    0.0442    0.6636 O   0  0  0  0  0  0  0  0  0  0  0  0
   -0.0174    0.1048   -0.6363 N   0  0  0  0  0  0  0  0  0  0  0  0
   -1.0600   -0.0759    0.3090 C   0  0  0  0  0  0  0  0  0  0  0  0
   -0.8030   -0.5294    1.4750 O   0  0  0  0  0  0  0  0  0  0  0  0
   -2.4759    0.2395    0.0176 C   0  0  0  0  0  0  0  0  0  0  0  0
   -3.3709   -0.0396    1.1776 C   0  0  0  0  0  0  0  0  0  0  0  0
   -4.7372    0.3021    0.7916 N   0  0  0  0  0  0  0  0  0  0  0  0
   -5.6183    0.0860    1.7686 O   0  0  0  0  0  0  0  0  0  0  0  0
    2.3420    1.0512   -1.6203 H   0  0  0  0  0  0  0  0  0  0  0  0
    2.2159   -0.5970   -2.2406 H   0  0  0  0  0  0  0  0  0  0  0  0
    4.5502   -0.1744   -1.6129 H   0  0  0  0  0  0  0  0  0  0  0  0
    3.9098   -1.4387   -0.5657 H   0  0  0  0  0  0  0  0  0  0  0  0
    3.6435    0.1616    1.1354 H   0  0  0  0  0  0  0  0  0  0  0  0
    6.0031   -0.2707   -0.1106 H   0  0  0  0  0  0  0  0  0  0  0  0
   -0.2738    0.4772   -1.5750 H   0  0  0  0  0  0  0  0  0  0  0  0
   -2.8004   -0.3706   -0.8399 H   0  0  0  0  0  0  0  0  0  0  0  0
   -2.5732    1.3241   -0.2578 H   0  0  0  0  0  0  0  0  0  0  0  0
   -3.3146   -1.0751    1.5140 H   0  0  0  0  0  0  0  0  0  0  0  0
   -3.1262    0.6039    2.0588 H   0  0  0  0  0  0  0  0  0  0  0  0
   -4.8035    1.2852    0.4906 H   0  0  0  0  0  0  0  0  0  0  0  0
   -6.4801   -0.2846    1.4048 H   0  0  0  0  0  0  0  0  0  0  0  0
  1  2  2  0
  2  3  1  0
  3  4  1  0
  4  5  1  0
  5  6  1  0
  2  7  1  0
  7  8  1  0
  8  9  2  0
  8 10  1  0
 10 11  1  0
 11 12  1  0
 12 13  1  0
  3 14  1  0
  3 15  1  0
  4 16  1  0
  4 17  1  0
  5 18  1  0
  6 19  1  0
  7 20  1  0
 10 21  1  0
 10 22  1  0
 11 23  1  0
 11 24  1  0
 12 25  1  0
 13 26  1  0
M  END
$$$$

     RDKit          3D

 26 25  0  0  0  0  0  0  0  0999 V2000
    1.4118    0.9358   -0.6096 O   0  0  0  0  0  0  0  0  0  0  0  0
    1.3782   -0.0926    0.1124 C   0  0  0  0  0  0  0  0  0  0  0  0
    2.5820   -0.7954    0.5975 C   0  0  0  0  0  0  0  0  0  0  0  0
    3.8794   -0.2136    0.1378 C   0  0  0  0  0  0  0  0  0  0  0  0
    4.0727   -0.1959   -1.2872 N   0  0  0  0  0  0  0  0  0  0  0  0
    5.3110    0.3616   -1.4868 O   0  0  0  0  0  0  0  0  0  0  0  0
    0.0573   -0.5542    0.4451 N   0  0  0  0  0  0  0  0  0  0  0  0
   -1.0915    0.1401   -0.0345 C   0  0  0  0  0  0  0  0  0  0  0  0
   -0.9517    1.1651   -0.7548 O   0  0  0  0  0  0  0  0  0  0  0  0
   -2.4403   -0.3653    0.3292 C   0  0  0  0  0  0  0  0  0  0  0  0
   -3.4597    0.5519   -0.3078 C   0  0  0  0  0  0  0  0  0  0  0  0
   -4.7888    0.0520    0.0523 N   0  0  0  0  0  0  0  0  0  0  0  0
   -5.6811    0.8791   -0.5228 O   0  0  0  0  0  0  0  0  0  0  0  0
    2.4918   -1.8699    0.4044 H   0  0  0  0  0  0  0  0  0  0  0  0
    2.5856   -0.6980    1.7198 H   0  0  0  0  0  0  0  0  0  0  0  0
    4.7011   -0.7745    0.6414 H   0  0  0  0  0  0  0  0  0  0  0  0
    4.0119    0.8480    0.4832 H   0  0  0  0  0  0  0  0  0  0  0  0
    3.3839    0.4692   -1.6957 H   0  0  0  0  0  0  0  0  0  0  0  0
    5.5686    0.9505   -0.7441 H   0  0  0  0  0  0  0  0  0  0  0  0
   -0.0497   -1.3991    1.0387 H   0  0  0  0  0  0  0  0  0  0  0  0
   -2.5656   -1.3797   -0.1132 H   0  0  0  0  0  0  0  0  0  0  0  0
   -2.5824   -0.4724    1.4052 H   0  0  0  0  0  0  0  0  0  0  0  0
   -3.3736    0.5779   -1.4035 H   0  0  0  0  0  0  0  0  0  0  0  0
   -3.2849    1.5586    0.0836 H   0  0  0  0  0  0  0  0  0  0  0  0
   -4.8921   -0.9393   -0.2404 H   0  0  0  0  0  0  0  0  0  0  0  0
   -6.2738    1.2602    0.1524 H   0  0  0  0  0  0  0  0  0  0  0  0
  1  2  2  0
  2  3  1  0
  3  4  1  0
  4  5  1  0
  5  6  1  0
  2  7  1  0
  7  8  1  0
  8  9  2  0
  8 10  1  0
 10 11  1  0
 11 12  1  0
 12 13  1  0
  3 14  1  0
  3 15  1  0
  4 16  1  0
  4 17  1  0
  5 18  1  0
  6 19  1  0
  7 20  1  0
 10 21  1  0
 10 22  1  0
 11 23  1  0
 11 24  1  0
 12 25  1  0
 13 26  1  0
M  END
$$$$

     RDKit          3D

 26 25  0  0  0  0  0  0  0  0999 V2000
    1.1300   -1.0599   -0.4088 O   0  0  0  0  0  0  0  0  0  0  0  0
    1.2278   -0.0347    0.3153 C   0  0  0  0  0  0  0  0  0  0  0  0
    2.5785    0.5131    0.5925 C   0  0  0  0  0  0  0  0  0  0  0  0
    3.6565   -0.3087   -0.0857 C   0  0  0  0  0  0  0  0  0  0  0  0
    3.4187   -0.2813   -1.4936 N   0  0  0  0  0  0  0  0  0  0  0  0
    4.3294   -0.9888   -2.2013 O   0  0  0  0  0  0  0  0  0  0  0  0
    0.0920    0.6134    0.8743 N   0  0  0  0  0  0  0  0  0  0  0  0
   -1.1926    0.0645    0.5907 C   0  0  0  0  0  0  0  0  0  0  0  0
   -1.2759   -0.9587   -0.1332 O   0  0  0  0  0  0  0  0  0  0  0  0
   -2.4452    0.6562    1.1192 C   0  0  0  0  0  0  0  0  0  0  0  0
   -3.6296   -0.1339    0.6547 C   0  0  0  0  0  0  0  0  0  0  0  0
   -3.7102   -0.1492   -0.7741 N   0  0  0  0  0  0  0  0  0  0  0  0
   -4.7427   -0.8359   -1.2553 O   0  0  0  0  0  0  0  0  0  0  0  0
    2.7740    0.5553    1.6841 H   0  0  0  0  0  0  0  0  0  0  0  0
    2.6401    1.5729    0.2268 H   0  0  0  0  0  0  0  0  0  0  0  0
    3.4861   -1.3685    0.2635 H   0  0  0  0  0  0  0  0  0  0  0  0
    4.6567   -0.0085    0.2330 H   0  0  0  0  0  0  0  0  0  0  0  0
    3.3473    0.6890   -1.8637 H   0  0  0  0  0  0  0  0  0  0  0  0
    5.0219   -1.2812   -1.5511 H   0  0  0  0  0  0  0  0  0  0  0  0
    0.1804    1.4588    1.4708 H   0  0  0  0  0  0  0  0  0  0  0  0
   -2.3505    0.6349    2.2328 H   0  0  0  0  0  0  0  0  0  0  0  0
   -2.5788    1.7069    0.7742 H   0  0  0  0  0  0  0  0  0  0  0  0
   -4.5796    0.2574    1.0691 H   0  0  0  0  0  0  0  0  0  0  0  0
   -3.4585   -1.2015    0.9781 H   0  0  0  0  0  0  0  0  0  0  0  0
   -3.5249    0.7561   -1.2284 H   0  0  0  0  0  0  0  0  0  0  0  0
   -5.0509   -0.3509   -2.0841 H   0  0  0  0  0  0  0  0  0  0  0  0
  1  2  2  0
  2  3  1  0
  3  4  1  0
  4  5  1  0
  5  6  1  0
  2  7  1  0
  7  8  1  0
  8  9  2  0
  8 10  1  0
 10 11  1  0
 11 12  1  0
 12 13  1  0
  3 14  1  0
  3 15  1  0
  4 16  1  0
  4 17  1  0
  5 18  1  0
  6 19  1  0
  7 20  1  0
 10 21  1  0
 10 22  1  0
 11 23  1  0
 11 24  1  0
 12 25  1  0
 13 26  1  0
M  END
$$$$

     RDKit          3D

 26 25  0  0  0  0  0  0  0  0999 V2000
    1.5744   -0.9663   -0.7495 O   0  0  0  0  0  0  0  0  0  0  0  0
    1.2656   -0.1196    0.1432 C   0  0  0  0  0  0  0  0  0  0  0  0
    2.2920    0.4970    1.0380 C   0  0  0  0  0  0  0  0  0  0  0  0
    3.6647   -0.0488    0.6921 C   0  0  0  0  0  0  0  0  0  0  0  0
    4.6047    0.5935    1.5988 N   0  0  0  0  0  0  0  0  0  0  0  0
    5.8250    0.1256    1.3108 O   0  0  0  0  0  0  0  0  0  0  0  0
   -0.0934    0.2658    0.3114 N   0  0  0  0  0  0  0  0  0  0  0  0
   -1.0933   -0.3000   -0.5212 C   0  0  0  0  0  0  0  0  0  0  0  0
   -0.7942   -1.1327   -1.4000 O   0  0  0  0  0  0  0  0  0  0  0  0
   -2.5000    0.1060   -0.3394 C   0  0  0  0  0  0  0  0  0  0  0  0
   -3.3850   -0.6111   -1.3197 C   0  0  0  0  0  0  0  0  0  0  0  0
   -4.7602   -0.1954   -1.1210 N   0  0  0  0  0  0  0  0  0  0  0  0
   -5.6116   -0.7908   -1.9576 O   0  0  0  0  0  0  0  0  0  0  0  0
    2.2953    1.5952    0.8798 H   0  0  0  0  0  0  0  0  0  0  0  0
    2.0291    0.3318    2.0941 H   0  0  0  0  0  0  0  0  0  0  0  0
    3.9007    0.2218   -0.3437 H   0  0  0  0  0  0  0  0  0  0  0  0
    3.6965   -1.1505    0.7887 H   0  0  0  0  0  0  0  0  0  0  0  0
    4.4850    1.6071    1.4973 H   0  0  0  0  0  0  0  0  0  0  0  0
    6.1565    0.6368    0.5083 H   0  0  0  0  0  0  0  0  0  0  0  0
   -0.3257    0.9765    1.0659 H   0  0  0  0  0  0  0  0  0  0  0  0
   -2.5606    1.2111   -0.4402 H   0  0  0  0  0  0  0  0  0  0  0  0
   -2.8777   -0.1299    0.6772 H   0  0  0  0  0  0  0  0  0  0  0  0
   -3.1099   -0.4334   -2.3724 H   0  0  0  0  0  0  0  0  0  0  0  0
   -3.2718   -1.7007   -1.1246 H   0  0  0  0  0  0  0  0  0  0  0  0
   -4.9956   -0.3309   -0.1235 H   0  0  0  0  0  0  0  0  0  0  0  0
   -6.4105   -0.2583   -2.1639 H   0  0  0  0  0  0  0  0  0  0  0  0
  1  2  2  0
  2  3  1  0
  3  4  1  0
  4  5  1  0
  5  6  1  0
  2  7  1  0
  7  8  1  0
  8  9  2  0
  8 10  1  0
 10 11  1  0
 11 12  1  0
 12 13  1  0
  3 14  1  0
  3 15  1  0
  4 16  1  0
  4 17  1  0
  5 18  1  0
  6 19  1  0
  7 20  1  0
 10 21  1  0
 10 22  1  0
 11 23  1  0
 11 24  1  0
 12 25  1  0
 13 26  1  0
M  END
$$$$

     RDKit          3D

 26 25  0  0  0  0  0  0  0  0999 V2000
   -1.1402   -0.9252    1.0555 O   0  0  0  0  0  0  0  0  0  0  0  0
   -1.0962   -0.0666    0.1300 C   0  0  0  0  0  0  0  0  0  0  0  0
   -2.2755    0.3699   -0.6311 C   0  0  0  0  0  0  0  0  0  0  0  0
   -3.5453   -0.3227   -0.1832 C   0  0  0  0  0  0  0  0  0  0  0  0
   -4.6196    0.2179   -1.0318 N   0  0  0  0  0  0  0  0  0  0  0  0
   -5.7883   -0.3378   -0.7087 O   0  0  0  0  0  0  0  0  0  0  0  0
    0.1647    0.5069   -0.1903 N   0  0  0  0  0  0  0  0  0  0  0  0
    1.3571    0.1491    0.4883 C   0  0  0  0  0  0  0  0  0  0  0  0
    1.2645   -0.7057    1.3978 O   0  0  0  0  0  0  0  0  0  0  0  0
    2.6531    0.7429    0.1545 C   0  0  0  0  0  0  0  0  0  0  0  0
    3.8089    0.2362    0.9453 C   0  0  0  0  0  0  0  0  0  0  0  0
    4.0403   -1.1703    0.8017 N   0  0  0  0  0  0  0  0  0  0  0  0
    5.1279   -1.4696    1.5829 O   0  0  0  0  0  0  0  0  0  0  0  0
   -2.3708    1.4577   -0.6162 H   0  0  0  0  0  0  0  0  0  0  0  0
   -2.0786    0.0935   -1.7086 H   0  0  0  0  0  0  0  0  0  0  0  0
   -3.7532   -0.0067    0.8564 H   0  0  0  0  0  0  0  0  0  0  0  0
   -3.4976   -1.4062   -0.3303 H   0  0  0  0  0  0  0  0  0  0  0  0
   -4.4247    0.0256   -2.0389 H   0  0  0  0  0  0  0  0  0  0  0  0
   -6.4638    0.3414   -0.4729 H   0  0  0  0  0  0  0  0  0  0  0  0
    0.2004    1.2241   -0.9636 H   0  0  0  0  0  0  0  0  0  0  0  0
    2.6323    1.8642    0.2206 H   0  0  0  0  0  0  0  0  0  0  0  0
    2.9008    0.5526   -0.9323 H   0  0  0  0  0  0  0  0  0  0  0  0
    4.7261    0.7458    0.5268 H   0  0  0  0  0  0  0  0  0  0  0  0
    3.7853    0.5610    2.0138 H   0  0  0  0  0  0  0  0  0  0  0  0
    3.2795   -1.7946    1.0853 H   0  0  0  0  0  0  0  0  0  0  0  0
    5.1129   -0.8835    2.3785 H   0  0  0  0  0  0  0  0  0  0  0  0
  1  2  2  0
  2  3  1  0
  3  4  1  0
  4  5  1  0
  5  6  1  0
  2  7  1  0
  7  8  1  0
  8  9  2  0
  8 10  1  0
 10 11  1  0
 11 12  1  0
 12 13  1  0
  3 14  1  0
  3 15  1  0
  4 16  1  0
  4 17  1  0
  5 18  1  0
  6 19  1  0
  7 20  1  0
 10 21  1  0
 10 22  1  0
 11 23  1  0
 11 24  1  0
 12 25  1  0
 13 26  1  0
M  END
$$$$

     RDKit          3D

 26 25  0  0  0  0  0  0  0  0999 V2000
   -1.2272    0.3378   -1.2109 O   0  0  0  0  0  0  0  0  0  0  0  0
   -1.2595    0.2569    0.0350 C   0  0  0  0  0  0  0  0  0  0  0  0
   -2.5073    0.4853    0.7697 C   0  0  0  0  0  0  0  0  0  0  0  0
   -3.6803    0.7862   -0.1239 C   0  0  0  0  0  0  0  0  0  0  0  0
   -3.9833   -0.2620   -1.0387 N   0  0  0  0  0  0  0  0  0  0  0  0
   -5.0111   -0.0240   -1.8428 O   0  0  0  0  0  0  0  0  0  0  0  0
   -0.0492   -0.0650    0.7413 N   0  0  0  0  0  0  0  0  0  0  0  0
    1.1828   -0.2928    0.0464 C   0  0  0  0  0  0  0  0  0  0  0  0
    1.1290   -0.1920   -1.2064 O   0  0  0  0  0  0  0  0  0  0  0  0
    2.4073   -0.6200    0.7804 C   0  0  0  0  0  0  0  0  0  0  0  0
    3.6084   -0.8199   -0.0742 C   0  0  0  0  0  0  0  0  0  0  0  0
    4.0034    0.2974   -0.8702 N   0  0  0  0  0  0  0  0  0  0  0  0
    5.1187   -0.0970   -1.5696 O   0  0  0  0  0  0  0  0  0  0  0  0
   -2.7573   -0.3889    1.4323 H   0  0  0  0  0  0  0  0  0  0  0  0
   -2.3673    1.3851    1.4220 H   0  0  0  0  0  0  0  0  0  0  0  0
   -3.4879    1.7660   -0.6296 H   0  0  0  0  0  0  0  0  0  0  0  0
   -4.5806    0.9400    0.5215 H   0  0  0  0  0  0  0  0  0  0  0  0
   -3.2192   -0.8351   -1.3864 H   0  0  0  0  0  0  0  0  0  0  0  0
   -5.3502    0.9186   -1.7919 H   0  0  0  0  0  0  0  0  0  0  0  0
   -0.0276   -0.1441    1.7906 H   0  0  0  0  0  0  0  0  0  0  0  0
    2.3037   -1.5127    1.4330 H   0  0  0  0  0  0  0  0  0  0  0  0
    2.6208    0.2288    1.4932 H   0  0  0  0  0  0  0  0  0  0  0  0
    4.4562   -1.0985    0.6080 H   0  0  0  0  0  0  0  0  0  0  0  0
    3.4345   -1.7431   -0.6861 H   0  0  0  0  0  0  0  0  0  0  0  0
    3.3051    0.5323   -1.5999 H   0  0  0  0  0  0  0  0  0  0  0  0
    5.9381    0.1604   -1.0624 H   0  0  0  0  0  0  0  0  0  0  0  0
  1  2  2  0
  2  3  1  0
  3  4  1  0
  4  5  1  0
  5  6  1  0
  2  7  1  0
  7  8  1  0
  8  9  2  0
  8 10  1  0
 10 11  1  0
 11 12  1  0
 12 13  1  0
  3 14  1  0
  3 15  1  0
  4 16  1  0
  4 17  1  0
  5 18  1  0
  6 19  1  0
  7 20  1  0
 10 21  1  0
 10 22  1  0
 11 23  1  0
 11 24  1  0
 12 25  1  0
 13 26  1  0
M  END
$$$$

     RDKit          3D

 26 25  0  0  0  0  0  0  0  0999 V2000
    1.2109   -1.3293   -0.5739 O   0  0  0  0  0  0  0  0  0  0  0  0
    1.2159   -0.2521    0.0572 C   0  0  0  0  0  0  0  0  0  0  0  0
    2.4727    0.3883    0.5584 C   0  0  0  0  0  0  0  0  0  0  0  0
    3.6485   -0.4946    0.1594 C   0  0  0  0  0  0  0  0  0  0  0  0
    4.8559    0.1449    0.6551 N   0  0  0  0  0  0  0  0  0  0  0  0
    5.9428   -0.5948    0.3310 O   0  0  0  0  0  0  0  0  0  0  0  0
   -0.0003    0.4406    0.3406 N   0  0  0  0  0  0  0  0  0  0  0  0
   -1.2263   -0.1487   -0.1278 C   0  0  0  0  0  0  0  0  0  0  0  0
   -1.1904   -1.2374   -0.7616 O   0  0  0  0  0  0  0  0  0  0  0  0
   -2.4879    0.5724    0.1675 C   0  0  0  0  0  0  0  0  0  0  0  0
   -3.6296   -0.2045   -0.4025 C   0  0  0  0  0  0  0  0  0  0  0  0
   -4.9117    0.4172   -0.1675 N   0  0  0  0  0  0  0  0  0  0  0  0
   -5.9351   -0.2640   -0.6698 O   0  0  0  0  0  0  0  0  0  0  0  0
    2.4545    0.5353    1.6568 H   0  0  0  0  0  0  0  0  0  0  0  0
    2.5465    1.3636    0.0375 H   0  0  0  0  0  0  0  0  0  0  0  0
    3.5640   -1.4966    0.6080 H   0  0  0  0  0  0  0  0  0  0  0  0
    3.6459   -0.6174   -0.9284 H   0  0  0  0  0  0  0  0  0  0  0  0
    4.9898    1.0898    0.2737 H   0  0  0  0  0  0  0  0  0  0  0  0
    5.7800   -1.5510    0.5241 H   0  0  0  0  0  0  0  0  0  0  0  0
   -0.0017    1.3405    0.8673 H   0  0  0  0  0  0  0  0  0  0  0  0
   -2.6510    0.7126    1.2479 H   0  0  0  0  0  0  0  0  0  0  0  0
   -2.4329    1.5764   -0.3432 H   0  0  0  0  0  0  0  0  0  0  0  0
   -3.6237   -1.2373   -0.0368 H   0  0  0  0  0  0  0  0  0  0  0  0
   -3.5008   -0.2529   -1.5151 H   0  0  0  0  0  0  0  0  0  0  0  0
   -4.9221    1.4276   -0.2955 H   0  0  0  0  0  0  0  0  0  0  0  0
   -5.8141   -0.2944   -1.6620 H   0  0  0  0  0  0  0  0  0  0  0  0
  1  2  2  0
  2  3  1  0
  3  4  1  0
  4  5  1  0
  5  6  1  0
  2  7  1  0
  7  8  1  0
  8  9  2  0
  8 10  1  0
 10 11  1  0
 11 12  1  0
 12 13  1  0
  3 14  1  0
  3 15  1  0
  4 16  1  0
  4 17  1  0
  5 18  1  0
  6 19  1  0
  7 20  1  0
 10 21  1  0
 10 22  1  0
 11 23  1  0
 11 24  1  0
 12 25  1  0
 13 26  1  0
M  END
$$$$

     RDKit          3D

 26 25  0  0  0  0  0  0  0  0999 V2000
    1.0713   -1.1145    1.4246 O   0  0  0  0  0  0  0  0  0  0  0  0
    1.1774   -0.3893    0.4077 C   0  0  0  0  0  0  0  0  0  0  0  0
    2.4770    0.0690   -0.1362 C   0  0  0  0  0  0  0  0  0  0  0  0
    3.6443   -0.4301    0.6629 C   0  0  0  0  0  0  0  0  0  0  0  0
    4.8530    0.0916    0.0221 N   0  0  0  0  0  0  0  0  0  0  0  0
    5.8998   -0.3812    0.7745 O   0  0  0  0  0  0  0  0  0  0  0  0
    0.0015    0.0317   -0.2817 N   0  0  0  0  0  0  0  0  0  0  0  0
   -1.3074   -0.3367    0.1342 C   0  0  0  0  0  0  0  0  0  0  0  0
   -1.4367   -1.0633    1.1514 O   0  0  0  0  0  0  0  0  0  0  0  0
   -2.4784    0.1461   -0.6423 C   0  0  0  0  0  0  0  0  0  0  0  0
   -3.7541   -0.3921    0.0163 C   0  0  0  0  0  0  0  0  0  0  0  0
   -4.8579    0.0986   -0.7660 N   0  0  0  0  0  0  0  0  0  0  0  0
   -6.0569   -0.2804   -0.3263 O   0  0  0  0  0  0  0  0  0  0  0  0
    2.6201   -0.1764   -1.1984 H   0  0  0  0  0  0  0  0  0  0  0  0
    2.4827    1.1853   -0.0544 H   0  0  0  0  0  0  0  0  0  0  0  0
    3.5873   -0.1092    1.7167 H   0  0  0  0  0  0  0  0  0  0  0  0
    3.6675   -1.5548    0.6831 H   0  0  0  0  0  0  0  0  0  0  0  0
    4.9538   -0.3814   -0.9068 H   0  0  0  0  0  0  0  0  0  0  0  0
    6.6801   -0.5254    0.1731 H   0  0  0  0  0  0  0  0  0  0  0  0
    0.0818    0.6353   -1.1288 H   0  0  0  0  0  0  0  0  0  0  0  0
   -2.5340    1.2545   -0.6691 H   0  0  0  0  0  0  0  0  0  0  0  0
   -2.4319   -0.1796   -1.7063 H   0  0  0  0  0  0  0  0  0  0  0  0
   -3.7293   -1.4868    0.0058 H   0  0  0  0  0  0  0  0  0  0  0  0
   -3.7749    0.0341    1.0521 H   0  0  0  0  0  0  0  0  0  0  0  0
   -4.7613    1.0872   -1.0139 H   0  0  0  0  0  0  0  0  0  0  0  0
   -6.0750   -0.6006    0.6056 H   0  0  0  0  0  0  0  0  0  0  0  0
  1  2  2  0
  2  3  1  0
  3  4  1  0
  4  5  1  0
  5  6  1  0
  2  7  1  0
  7  8  1  0
  8  9  2  0
  8 10  1  0
 10 11  1  0
 11 12  1  0
 12 13  1  0
  3 14  1  0
  3 15  1  0
  4 16  1  0
  4 17  1  0
  5 18  1  0
  6 19  1  0
  7 20  1  0
 10 21  1  0
 10 22  1  0
 11 23  1  0
 11 24  1  0
 12 25  1  0
 13 26  1  0
M  END
$$$$
