
     RDKit          3D

  9  8  0  0  0  0  0  0  0  0999 V2000
    1.3775   -0.4814   -0.3681 N   0  0  0  0  0  0  0  0  0  0  0  0
    0.0422    0.4749    0.1885 S   0  0  0  0  0  6  0  0  0  0  0  0
   -1.4296   -0.3799    0.0039 N   0  0  0  0  0  0  0  0  0  0  0  0
    0.1848    0.8722    1.6131 O   0  0  0  0  0  0  0  0  0  0  0  0
   -0.0264    1.7258   -0.6445 O   0  0  0  0  0  0  0  0  0  0  0  0
    1.2982   -1.4782   -0.0600 H   0  0  0  0  0  0  0  0  0  0  0  0
    2.2824   -0.0982   -0.0487 H   0  0  0  0  0  0  0  0  0  0  0  0
   -1.5062   -0.9024   -0.8814 H   0  0  0  0  0  0  0  0  0  0  0  0
   -2.2229    0.2671    0.1974 H   0  0  0  0  0  0  0  0  0  0  0  0
  1  2  1  0
  2  3  1  0
  2  4  2  0
  2  5  2  0
  1  6  1  0
  1  7  1  0
  3  8  1  0
  3  9  1  0
M  END
$$$$

     RDKit          3D

  9  8  0  0  0  0  0  0  0  0999 V2000
    1.2861   -0.7148   -0.0857 N   0  0  0  0  0  0  0  0  0  0  0  0
    0.1736    0.5896   -0.0132 S   0  0  0  0  0  6  0  0  0  0  0  0
   -1.4130   -0.0280    0.1272 N   0  0  0  0  0  0  0  0  0  0  0  0
    0.1992    1.3833   -1.3045 O   0  0  0  0  0  0  0  0  0  0  0  0
    0.5702    1.4806    1.1093 O   0  0  0  0  0  0  0  0  0  0  0  0
    1.8126   -0.6435   -0.9596 H   0  0  0  0  0  0  0  0  0  0  0  0
    0.8890   -1.6290    0.1461 H   0  0  0  0  0  0  0  0  0  0  0  0
   -2.0415    0.5912    0.6499 H   0  0  0  0  0  0  0  0  0  0  0  0
   -1.4763   -1.0294    0.3305 H   0  0  0  0  0  0  0  0  0  0  0  0
  1  2  1  0
  2  3  1  0
  2  4  2  0
  2  5  2  0
  1  6  1  0
  1  7  1  0
  3  8  1  0
  3  9  1  0
M  END
$$$$

     RDKit          3D

  9  8  0  0  0  0  0  0  0  0999 V2000
    1.4111   -0.4723    0.1799 N   0  0  0  0  0  0  0  0  0  0  0  0
   -0.0180    0.4579   -0.1631 S   0  0  0  0  0  6  0  0  0  0  0  0
   -1.3628   -0.4956    0.2908 N   0  0  0  0  0  0  0  0  0  0  0  0
    0.0311    1.7830    0.5160 O   0  0  0  0  0  0  0  0  0  0  0  0
   -0.1331    0.7325   -1.6500 O   0  0  0  0  0  0  0  0  0  0  0  0
    2.2190    0.1210    0.4104 H   0  0  0  0  0  0  0  0  0  0  0  0
    1.5908   -1.1925   -0.5391 H   0  0  0  0  0  0  0  0  0  0  0  0
   -1.5694   -0.5042    1.2966 H   0  0  0  0  0  0  0  0  0  0  0  0
   -2.1688   -0.4298   -0.3415 H   0  0  0  0  0  0  0  0  0  0  0  0
  1  2  1  0
  2  3  1  0
  2  4  2  0
  2  5  2  0
  1  6  1  0
  1  7  1  0
  3  8  1  0
  3  9  1  0
M  END
$$$$

     RDKit          3D

  9  8  0  0  0  0  0  0  0  0999 V2000
    1.2073   -0.2939    0.4464 N   0  0  0  0  0  0  0  0  0  0  0  0
    0.0243    0.6150   -0.3057 S   0  0  0  0  0  6  0  0  0  0  0  0
   -1.4596   -0.3127   -0.3223 N   0  0  0  0  0  0  0  0  0  0  0  0
   -0.1631    1.9253    0.3784 O   0  0  0  0  0  0  0  0  0  0  0  0
    0.3323    0.8907   -1.7691 O   0  0  0  0  0  0  0  0  0  0  0  0
    1.3023   -1.2732    0.2229 H   0  0  0  0  0  0  0  0  0  0  0  0
    1.6946    0.0856    1.2470 H   0  0  0  0  0  0  0  0  0  0  0  0
   -1.1435   -1.2956   -0.5680 H   0  0  0  0  0  0  0  0  0  0  0  0
   -1.7945   -0.3412    0.6704 H   0  0  0  0  0  0  0  0  0  0  0  0
  1  2  1  0
  2  3  1  0
  2  4  2  0
  2  5  2  0
  1  6  1  0
  1  7  1  0
  3  8  1  0
  3  9  1  0
M  END
$$$$

     RDKit          3D

  9  8  0  0  0  0  0  0  0  0999 V2000
    1.5285    0.1197   -0.3418 N   0  0  0  0  0  0  0  0  0  0  0  0
    0.0818    0.1022    0.6385 S   0  0  0  0  0  6  0  0  0  0  0  0
   -1.2026   -0.3335   -0.4562 N   0  0  0  0  0  0  0  0  0  0  0  0
   -0.1648    1.4267    1.2732 O   0  0  0  0  0  0  0  0  0  0  0  0
    0.2603   -0.9714    1.6711 O   0  0  0  0  0  0  0  0  0  0  0  0
    1.4320    0.8818   -1.0443 H   0  0  0  0  0  0  0  0  0  0  0  0
    1.5430   -0.8238   -0.8055 H   0  0  0  0  0  0  0  0  0  0  0  0
   -1.5589    0.5070   -0.9424 H   0  0  0  0  0  0  0  0  0  0  0  0
   -1.9194   -0.9086    0.0075 H   0  0  0  0  0  0  0  0  0  0  0  0
  1  2  1  0
  2  3  1  0
  2  4  2  0
  2  5  2  0
  1  6  1  0
  1  7  1  0
  3  8  1  0
  3  9  1  0
M  END
$$$$

     RDKit          3D

  9  8  0  0  0  0  0  0  0  0999 V2000
    1.4986    0.2637   -0.0316 N   0  0  0  0  0  0  0  0  0  0  0  0
   -0.1986    0.6642    0.0263 S   0  0  0  0  0  6  0  0  0  0  0  0
   -1.0895   -0.7523    0.0661 N   0  0  0  0  0  0  0  0  0  0  0  0
   -0.4299    1.4507    1.2856 O   0  0  0  0  0  0  0  0  0  0  0  0
   -0.5012    1.5044   -1.1793 O   0  0  0  0  0  0  0  0  0  0  0  0
    1.6341   -0.4264    0.7605 H   0  0  0  0  0  0  0  0  0  0  0  0
    1.6658   -0.2839   -0.9097 H   0  0  0  0  0  0  0  0  0  0  0  0
   -0.7165   -1.5542    0.5524 H   0  0  0  0  0  0  0  0  0  0  0  0
   -1.8627   -0.8663   -0.5704 H   0  0  0  0  0  0  0  0  0  0  0  0
  1  2  1  0
  2  3  1  0
  2  4  2  0
  2  5  2  0
  1  6  1  0
  1  7  1  0
  3  8  1  0
  3  9  1  0
M  END
$$$$

     RDKit          3D

  9  8  0  0  0  0  0  0  0  0999 V2000
   -1.4267   -0.4716    0.0510 N   0  0  0  0  0  0  0  0  0  0  0  0
   -0.0210    0.4854    0.3195 S   0  0  0  0  0  6  0  0  0  0  0  0
    1.3980   -0.4206    0.0402 N   0  0  0  0  0  0  0  0  0  0  0  0
    0.0104    1.6788   -0.6144 O   0  0  0  0  0  0  0  0  0  0  0  0
   -0.1099    1.0222    1.7178 O   0  0  0  0  0  0  0  0  0  0  0  0
   -2.1511    0.1058   -0.3992 H   0  0  0  0  0  0  0  0  0  0  0  0
   -1.2206   -1.3661   -0.4108 H   0  0  0  0  0  0  0  0  0  0  0  0
    2.2260    0.1766   -0.0988 H   0  0  0  0  0  0  0  0  0  0  0  0
    1.2949   -1.2104   -0.6053 H   0  0  0  0  0  0  0  0  0  0  0  0
  1  2  1  0
  2  3  1  0
  2  4  2  0
  2  5  2  0
  1  6  1  0
  1  7  1  0
  3  8  1  0
  3  9  1  0
M  END
$$$$

     RDKit          3D

  9  8  0  0  0  0  0  0  0  0999 V2000
   -1.3907   -0.4568   -0.0789 N   0  0  0  0  0  0  0  0  0  0  0  0
   -0.1017    0.6972   -0.0389 S   0  0  0  0  0  6  0  0  0  0  0  0
    1.4079   -0.0488    0.2497 N   0  0  0  0  0  0  0  0  0  0  0  0
   -0.3605    1.7764    0.9568 O   0  0  0  0  0  0  0  0  0  0  0  0
   -0.0380    1.3491   -1.4005 O   0  0  0  0  0  0  0  0  0  0  0  0
   -1.1420   -1.1383   -0.8434 H   0  0  0  0  0  0  0  0  0  0  0  0
   -1.5130   -0.9482    0.8252 H   0  0  0  0  0  0  0  0  0  0  0  0
    1.7368   -0.4594   -0.6546 H   0  0  0  0  0  0  0  0  0  0  0  0
    1.4014   -0.7710    0.9847 H   0  0  0  0  0  0  0  0  0  0  0  0
  1  2  1  0
  2  3  1  0
  2  4  2  0
  2  5  2  0
  1  6  1  0
  1  7  1  0
  3  8  1  0
  3  9  1  0
M  END
$$$$
