
     RDKit          3D

 33 33  0  0  0  0  0  0  0  0999 V2000
    2.9275   -0.7424   -1.1747 C   0  0  0  0  0  0  0  0  0  0  0  0
    1.9439   -0.3377   -0.1009 C   0  0  1  0  0  0  0  0  0  0  0  0
    2.6836    0.6715    0.7665 C   0  0  0  0  0  0  0  0  0  0  0  0
    3.8150    0.0909    1.3308 O   0  0  0  0  0  0  0  0  0  0  0  0
    0.7920    0.3389   -0.6433 N   0  0  0  0  0  0  0  0  0  0  0  0
    0.0158   -0.4711   -1.5343 C   0  0  0  0  0  0  0  0  0  0  0  0
   -0.9864   -1.3630   -0.8862 C   0  0  0  0  0  0  0  0  0  0  0  0
   -1.6190   -0.7792    0.2820 N   0  0  0  0  0  0  0  0  0  0  0  0
   -2.9622   -1.2449    0.3648 C   0  0  0  0  0  0  0  0  0  0  0  0
   -1.4716    0.6465    0.1661 C   0  0  1  0  0  0  0  0  0  0  0  0
   -2.2648    1.4267    1.1718 C   0  0  0  0  0  0  0  0  0  0  0  0
   -2.0218    2.7907    0.9384 O   0  0  0  0  0  0  0  0  0  0  0  0
    0.0195    0.9088    0.4351 C   0  0  0  0  0  0  0  0  0  0  0  0
    3.8833   -1.0028   -0.6520 H   0  0  0  0  0  0  0  0  0  0  0  0
    2.6338   -1.6476   -1.7285 H   0  0  0  0  0  0  0  0  0  0  0  0
    3.1732    0.1101   -1.8279 H   0  0  0  0  0  0  0  0  0  0  0  0
    1.6961   -1.2062    0.5296 H   0  0  0  0  0  0  0  0  0  0  0  0
    2.0562    1.2036    1.4760 H   0  0  0  0  0  0  0  0  0  0  0  0
    3.0650    1.4477    0.0401 H   0  0  0  0  0  0  0  0  0  0  0  0
    3.5534   -0.4313    2.1181 H   0  0  0  0  0  0  0  0  0  0  0  0
    0.7090   -1.1140   -2.1261 H   0  0  0  0  0  0  0  0  0  0  0  0
   -0.4425    0.2147   -2.2943 H   0  0  0  0  0  0  0  0  0  0  0  0
   -1.8164   -1.5143   -1.6386 H   0  0  0  0  0  0  0  0  0  0  0  0
   -0.5919   -2.3768   -0.6846 H   0  0  0  0  0  0  0  0  0  0  0  0
   -3.3592   -1.2408    1.4175 H   0  0  0  0  0  0  0  0  0  0  0  0
   -3.6488   -0.7542   -0.3446 H   0  0  0  0  0  0  0  0  0  0  0  0
   -2.9513   -2.3375    0.0805 H   0  0  0  0  0  0  0  0  0  0  0  0
   -1.6912    0.9597   -0.8566 H   0  0  0  0  0  0  0  0  0  0  0  0
   -3.3363    1.2595    1.1376 H   0  0  0  0  0  0  0  0  0  0  0  0
   -1.9088    1.2321    2.2038 H   0  0  0  0  0  0  0  0  0  0  0  0
   -2.3583    2.9900    0.0221 H   0  0  0  0  0  0  0  0  0  0  0  0
    0.2317    0.3179    1.3675 H   0  0  0  0  0  0  0  0  0  0  0  0
    0.2317    1.9544    0.6442 H   0  0  0  0  0  0  0  0  0  0  0  0
  1  2  1  0
  2  3  1  0
  3  4  1  0
  2  5  1  0
  5  6  1  0
  6  7  1  0
  7  8  1  0
  8  9  1  0
  8 10  1  0
 10 11  1  0
 11 12  1  0
 10 13  1  0
 13  5  1  0
  1 14  1  0
  1 15  1  0
  1 16  1  0
  2 17  1  1
  3 18  1  0
  3 19  1  0
  4 20  1  0
  6 21  1  0
  6 22  1  0
  7 23  1  0
  7 24  1  0
  9 25  1  0
  9 26  1  0
  9 27  1  0
 10 28  1  6
 11 29  1  0
 11 30  1  0
 12 31  1  0
 13 32  1  0
 13 33  1  0
M  END
$$$$

     RDKit          3D

 33 33  0  0  0  0  0  0  0  0999 V2000
    1.8370    0.0631    1.3634 C   0  0  0  0  0  0  0  0  0  0  0  0
    2.0097    0.1443   -0.1291 C   0  0  1  0  0  0  0  0  0  0  0  0
    3.2144   -0.6262   -0.6082 C   0  0  0  0  0  0  0  0  0  0  0  0
    4.3030   -0.1442    0.1485 O   0  0  0  0  0  0  0  0  0  0  0  0
    0.7873   -0.2066   -0.7969 N   0  0  0  0  0  0  0  0  0  0  0  0
    0.3042   -1.5089   -0.6185 C   0  0  0  0  0  0  0  0  0  0  0  0
   -1.1664   -1.6984   -0.6380 C   0  0  0  0  0  0  0  0  0  0  0  0
   -1.9528   -0.6279   -0.1719 N   0  0  0  0  0  0  0  0  0  0  0  0
   -2.2806   -0.6921    1.1931 C   0  0  0  0  0  0  0  0  0  0  0  0
   -1.5517    0.6115   -0.7167 C   0  0  1  0  0  0  0  0  0  0  0  0
   -2.2164    1.8251   -0.0754 C   0  0  0  0  0  0  0  0  0  0  0  0
   -3.5836    1.8279   -0.1910 O   0  0  0  0  0  0  0  0  0  0  0  0
   -0.0991    0.8742   -0.7776 C   0  0  0  0  0  0  0  0  0  0  0  0
    0.8753   -0.4004    1.6613 H   0  0  0  0  0  0  0  0  0  0  0  0
    2.6705   -0.5322    1.7819 H   0  0  0  0  0  0  0  0  0  0  0  0
    1.8589    1.0609    1.8491 H   0  0  0  0  0  0  0  0  0  0  0  0
    2.2087    1.2197   -0.3702 H   0  0  0  0  0  0  0  0  0  0  0  0
    3.1429   -1.7095   -0.3850 H   0  0  0  0  0  0  0  0  0  0  0  0
    3.3731   -0.4097   -1.6724 H   0  0  0  0  0  0  0  0  0  0  0  0
    4.1205    0.7894    0.4650 H   0  0  0  0  0  0  0  0  0  0  0  0
    0.7265   -2.1498   -1.4473 H   0  0  0  0  0  0  0  0  0  0  0  0
    0.7224   -1.9601    0.3060 H   0  0  0  0  0  0  0  0  0  0  0  0
   -1.4213   -2.6174   -0.0401 H   0  0  0  0  0  0  0  0  0  0  0  0
   -1.5042   -1.9501   -1.6778 H   0  0  0  0  0  0  0  0  0  0  0  0
   -2.6156    0.2194    1.6769 H   0  0  0  0  0  0  0  0  0  0  0  0
   -1.4346   -1.1602    1.7797 H   0  0  0  0  0  0  0  0  0  0  0  0
   -3.1246   -1.4382    1.3108 H   0  0  0  0  0  0  0  0  0  0  0  0
   -1.9458    0.6246   -1.7811 H   0  0  0  0  0  0  0  0  0  0  0  0
   -1.8359    2.7037   -0.6659 H   0  0  0  0  0  0  0  0  0  0  0  0
   -1.8490    1.9986    0.9595 H   0  0  0  0  0  0  0  0  0  0  0  0
   -3.8631    2.7981   -0.1294 H   0  0  0  0  0  0  0  0  0  0  0  0
    0.1760    1.5524    0.0818 H   0  0  0  0  0  0  0  0  0  0  0  0
    0.1142    1.5188   -1.6847 H   0  0  0  0  0  0  0  0  0  0  0  0
  1  2  1  0
  2  3  1  0
  3  4  1  0
  2  5  1  0
  5  6  1  0
  6  7  1  0
  7  8  1  0
  8  9  1  0
  8 10  1  0
 10 11  1  0
 11 12  1  0
 10 13  1  0
 13  5  1  0
  1 14  1  0
  1 15  1  0
  1 16  1  0
  2 17  1  1
  3 18  1  0
  3 19  1  0
  4 20  1  0
  6 21  1  0
  6 22  1  0
  7 23  1  0
  7 24  1  0
  9 25  1  0
  9 26  1  0
  9 27  1  0
 10 28  1  6
 11 29  1  0
 11 30  1  0
 12 31  1  0
 13 32  1  0
 13 33  1  0
M  END
$$$$

     RDKit          3D

 33 33  0  0  0  0  0  0  0  0999 V2000
    2.4214   -0.2937   -1.2522 C   0  0  0  0  0  0  0  0  0  0  0  0
    2.1385   -0.3283    0.2083 C   0  0  1  0  0  0  0  0  0  0  0  0
    2.9102    0.7472    0.9928 C   0  0  0  0  0  0  0  0  0  0  0  0
    4.2307    0.8053    0.6098 O   0  0  0  0  0  0  0  0  0  0  0  0
    0.7751   -0.3911    0.6033 N   0  0  0  0  0  0  0  0  0  0  0  0
    0.1321   -1.5973    0.1842 C   0  0  0  0  0  0  0  0  0  0  0  0
   -1.2756   -1.6795    0.7424 C   0  0  0  0  0  0  0  0  0  0  0  0
   -2.0285   -0.4722    0.4584 N   0  0  0  0  0  0  0  0  0  0  0  0
   -3.3124   -0.8570   -0.0187 C   0  0  0  0  0  0  0  0  0  0  0  0
   -1.3083    0.4356   -0.3893 C   0  0  1  0  0  0  0  0  0  0  0  0
   -2.0754    1.6969   -0.6011 C   0  0  0  0  0  0  0  0  0  0  0  0
   -2.3461    2.3948    0.5716 O   0  0  0  0  0  0  0  0  0  0  0  0
    0.0086    0.7927    0.2782 C   0  0  0  0  0  0  0  0  0  0  0  0
    3.2019   -1.0590   -1.5462 H   0  0  0  0  0  0  0  0  0  0  0  0
    1.5065   -0.5717   -1.8089 H   0  0  0  0  0  0  0  0  0  0  0  0
    2.8109    0.6995   -1.5848 H   0  0  0  0  0  0  0  0  0  0  0  0
    2.6121   -1.2926    0.5854 H   0  0  0  0  0  0  0  0  0  0  0  0
    2.9185    0.4431    2.0817 H   0  0  0  0  0  0  0  0  0  0  0  0
    2.4127    1.7197    0.9135 H   0  0  0  0  0  0  0  0  0  0  0  0
    4.4085    0.5909   -0.3407 H   0  0  0  0  0  0  0  0  0  0  0  0
    0.6991   -2.4526    0.5566 H   0  0  0  0  0  0  0  0  0  0  0  0
    0.0681   -1.6128   -0.9153 H   0  0  0  0  0  0  0  0  0  0  0  0
   -1.7432   -2.5760    0.2879 H   0  0  0  0  0  0  0  0  0  0  0  0
   -1.2775   -1.8263    1.8353 H   0  0  0  0  0  0  0  0  0  0  0  0
   -3.6353   -0.3754   -0.9398 H   0  0  0  0  0  0  0  0  0  0  0  0
   -4.0650   -0.6939    0.8096 H   0  0  0  0  0  0  0  0  0  0  0  0
   -3.3724   -1.9695   -0.2204 H   0  0  0  0  0  0  0  0  0  0  0  0
   -1.0880   -0.0031   -1.3802 H   0  0  0  0  0  0  0  0  0  0  0  0
   -1.4563    2.3441   -1.2910 H   0  0  0  0  0  0  0  0  0  0  0  0
   -3.0358    1.5649   -1.1268 H   0  0  0  0  0  0  0  0  0  0  0  0
   -1.6333    3.0133    0.8220 H   0  0  0  0  0  0  0  0  0  0  0  0
   -0.1915    1.3248    1.2354 H   0  0  0  0  0  0  0  0  0  0  0  0
    0.5895    1.4791   -0.3612 H   0  0  0  0  0  0  0  0  0  0  0  0
  1  2  1  0
  2  3  1  0
  3  4  1  0
  2  5  1  0
  5  6  1  0
  6  7  1  0
  7  8  1  0
  8  9  1  0
  8 10  1  0
 10 11  1  0
 11 12  1  0
 10 13  1  0
 13  5  1  0
  1 14  1  0
  1 15  1  0
  1 16  1  0
  2 17  1  1
  3 18  1  0
  3 19  1  0
  4 20  1  0
  6 21  1  0
  6 22  1  0
  7 23  1  0
  7 24  1  0
  9 25  1  0
  9 26  1  0
  9 27  1  0
 10 28  1  6
 11 29  1  0
 11 30  1  0
 12 31  1  0
 13 32  1  0
 13 33  1  0
M  END
$$$$

     RDKit          3D

 33 33  0  0  0  0  0  0  0  0999 V2000
    2.6327    0.8954   -0.9625 C   0  0  0  0  0  0  0  0  0  0  0  0
    2.0688   -0.4700   -0.6477 C   0  0  1  0  0  0  0  0  0  0  0  0
    3.1252   -1.2148    0.1424 C   0  0  0  0  0  0  0  0  0  0  0  0
    3.4218   -0.5114    1.3025 O   0  0  0  0  0  0  0  0  0  0  0  0
    0.8834   -0.3325    0.1302 N   0  0  0  0  0  0  0  0  0  0  0  0
    0.2412   -1.5345    0.5029 C   0  0  0  0  0  0  0  0  0  0  0  0
   -1.2144   -1.6120    0.1724 C   0  0  0  0  0  0  0  0  0  0  0  0
   -1.9331   -0.3905    0.4802 N   0  0  0  0  0  0  0  0  0  0  0  0
   -3.3063   -0.6074    0.1518 C   0  0  0  0  0  0  0  0  0  0  0  0
   -1.3384    0.6698   -0.2630 C   0  0  1  0  0  0  0  0  0  0  0  0
   -1.9939    2.0197    0.0397 C   0  0  0  0  0  0  0  0  0  0  0  0
   -1.8633    2.3242    1.4072 O   0  0  0  0  0  0  0  0  0  0  0  0
    0.1166    0.8144   -0.0573 C   0  0  0  0  0  0  0  0  0  0  0  0
    2.2995    1.2863   -1.9416 H   0  0  0  0  0  0  0  0  0  0  0  0
    2.3990    1.6304   -0.1443 H   0  0  0  0  0  0  0  0  0  0  0  0
    3.7578    0.8758   -0.9949 H   0  0  0  0  0  0  0  0  0  0  0  0
    1.9238   -1.0357   -1.5935 H   0  0  0  0  0  0  0  0  0  0  0  0
    4.0615   -1.2009   -0.4819 H   0  0  0  0  0  0  0  0  0  0  0  0
    2.8229   -2.2528    0.3690 H   0  0  0  0  0  0  0  0  0  0  0  0
    2.7654    0.2090    1.4186 H   0  0  0  0  0  0  0  0  0  0  0  0
    0.7460   -2.3875    0.0031 H   0  0  0  0  0  0  0  0  0  0  0  0
    0.3929   -1.7033    1.6030 H   0  0  0  0  0  0  0  0  0  0  0  0
   -1.6721   -2.4713    0.6679 H   0  0  0  0  0  0  0  0  0  0  0  0
   -1.3060   -1.7447   -0.9433 H   0  0  0  0  0  0  0  0  0  0  0  0
   -3.9468    0.2699    0.1823 H   0  0  0  0  0  0  0  0  0  0  0  0
   -3.6754   -1.4323    0.8305 H   0  0  0  0  0  0  0  0  0  0  0  0
   -3.3944   -1.0561   -0.8817 H   0  0  0  0  0  0  0  0  0  0  0  0
   -1.5411    0.4914   -1.3515 H   0  0  0  0  0  0  0  0  0  0  0  0
   -3.0525    2.0415   -0.2899 H   0  0  0  0  0  0  0  0  0  0  0  0
   -1.4745    2.8382   -0.4968 H   0  0  0  0  0  0  0  0  0  0  0  0
   -2.7500    2.6835    1.6840 H   0  0  0  0  0  0  0  0  0  0  0  0
    0.5310    1.3978   -0.9304 H   0  0  0  0  0  0  0  0  0  0  0  0
    0.2726    1.5103    0.8186 H   0  0  0  0  0  0  0  0  0  0  0  0
  1  2  1  0
  2  3  1  0
  3  4  1  0
  2  5  1  0
  5  6  1  0
  6  7  1  0
  7  8  1  0
  8  9  1  0
  8 10  1  0
 10 11  1  0
 11 12  1  0
 10 13  1  0
 13  5  1  0
  1 14  1  0
  1 15  1  0
  1 16  1  0
  2 17  1  6
  3 18  1  0
  3 19  1  0
  4 20  1  0
  6 21  1  0
  6 22  1  0
  7 23  1  0
  7 24  1  0
  9 25  1  0
  9 26  1  0
  9 27  1  0
 10 28  1  6
 11 29  1  0
 11 30  1  0
 12 31  1  0
 13 32  1  0
 13 33  1  0
M  END
$$$$

     RDKit          3D

 33 33  0  0  0  0  0  0  0  0999 V2000
    2.6899   -1.0864   -0.3797 C   0  0  0  0  0  0  0  0  0  0  0  0
    2.0640    0.0761    0.3960 C   0  0  1  0  0  0  0  0  0  0  0  0
    2.8085    1.3150   -0.0237 C   0  0  0  0  0  0  0  0  0  0  0  0
    4.1600    1.0984    0.2995 O   0  0  0  0  0  0  0  0  0  0  0  0
    0.6832    0.0841    0.1597 N   0  0  0  0  0  0  0  0  0  0  0  0
    0.1763    0.2845   -1.1234 C   0  0  0  0  0  0  0  0  0  0  0  0
   -1.2539    0.7599   -1.1822 C   0  0  0  0  0  0  0  0  0  0  0  0
   -1.8333    0.8422    0.1377 N   0  0  0  0  0  0  0  0  0  0  0  0
   -3.1295    1.4047    0.1914 C   0  0  0  0  0  0  0  0  0  0  0  0
   -1.6110   -0.3194    0.9322 C   0  0  1  0  0  0  0  0  0  0  0  0
   -2.2339   -1.5691    0.3588 C   0  0  0  0  0  0  0  0  0  0  0  0
   -1.9990   -2.6820    1.1558 O   0  0  0  0  0  0  0  0  0  0  0  0
   -0.1438   -0.4487    1.1750 C   0  0  0  0  0  0  0  0  0  0  0  0
    2.4192   -2.0055    0.1925 H   0  0  0  0  0  0  0  0  0  0  0  0
    3.7926   -0.9769   -0.4269 H   0  0  0  0  0  0  0  0  0  0  0  0
    2.2080   -1.1120   -1.3608 H   0  0  0  0  0  0  0  0  0  0  0  0
    2.3304   -0.1062    1.4564 H   0  0  0  0  0  0  0  0  0  0  0  0
    2.5022    2.2157    0.5117 H   0  0  0  0  0  0  0  0  0  0  0  0
    2.7843    1.4211   -1.1376 H   0  0  0  0  0  0  0  0  0  0  0  0
    4.6612    1.9317    0.3721 H   0  0  0  0  0  0  0  0  0  0  0  0
    0.8452    1.0203   -1.6602 H   0  0  0  0  0  0  0  0  0  0  0  0
    0.2564   -0.6487   -1.7166 H   0  0  0  0  0  0  0  0  0  0  0  0
   -1.2740    1.7836   -1.6096 H   0  0  0  0  0  0  0  0  0  0  0  0
   -1.8394    0.1242   -1.8764 H   0  0  0  0  0  0  0  0  0  0  0  0
   -3.1909    2.0282    1.1320 H   0  0  0  0  0  0  0  0  0  0  0  0
   -3.9004    0.6136    0.3323 H   0  0  0  0  0  0  0  0  0  0  0  0
   -3.3460    2.0798   -0.6374 H   0  0  0  0  0  0  0  0  0  0  0  0
   -2.1124   -0.1566    1.9157 H   0  0  0  0  0  0  0  0  0  0  0  0
   -1.9031   -1.7648   -0.6868 H   0  0  0  0  0  0  0  0  0  0  0  0
   -3.3356   -1.4433    0.3035 H   0  0  0  0  0  0  0  0  0  0  0  0
   -1.4899   -3.3879    0.7091 H   0  0  0  0  0  0  0  0  0  0  0  0
    0.1282   -1.5089    1.4583 H   0  0  0  0  0  0  0  0  0  0  0  0
    0.0863    0.1333    2.1167 H   0  0  0  0  0  0  0  0  0  0  0  0
  1  2  1  0
  2  3  1  0
  3  4  1  0
  2  5  1  0
  5  6  1  0
  6  7  1  0
  7  8  1  0
  8  9  1  0
  8 10  1  0
 10 11  1  0
 11 12  1  0
 10 13  1  0
 13  5  1  0
  1 14  1  0
  1 15  1  0
  1 16  1  0
  2 17  1  1
  3 18  1  0
  3 19  1  0
  4 20  1  0
  6 21  1  0
  6 22  1  0
  7 23  1  0
  7 24  1  0
  9 25  1  0
  9 26  1  0
  9 27  1  0
 10 28  1  1
 11 29  1  0
 11 30  1  0
 12 31  1  0
 13 32  1  0
 13 33  1  0
M  END
$$$$

     RDKit          3D

 33 33  0  0  0  0  0  0  0  0999 V2000
   -2.3419   -0.0056   -1.8934 C   0  0  0  0  0  0  0  0  0  0  0  0
   -1.8965    0.2338   -0.4783 C   0  0  1  0  0  0  0  0  0  0  0  0
   -2.9204   -0.2715    0.4954 C   0  0  0  0  0  0  0  0  0  0  0  0
   -2.9365   -1.6549    0.5740 O   0  0  0  0  0  0  0  0  0  0  0  0
   -0.6000   -0.1244   -0.1598 N   0  0  0  0  0  0  0  0  0  0  0  0
   -0.0847   -1.3993   -0.2374 C   0  0  0  0  0  0  0  0  0  0  0  0
    1.0406   -1.6381    0.7656 C   0  0  0  0  0  0  0  0  0  0  0  0
    2.0684   -0.6021    0.6576 N   0  0  0  0  0  0  0  0  0  0  0  0
    2.4753   -0.5550   -0.7304 C   0  0  0  0  0  0  0  0  0  0  0  0
    1.4098    0.6149    1.0783 C   0  0  1  0  0  0  0  0  0  0  0  0
    2.3350    1.7962    1.1520 C   0  0  0  0  0  0  0  0  0  0  0  0
    2.9269    2.0975   -0.0656 O   0  0  0  0  0  0  0  0  0  0  0  0
    0.2363    0.9682    0.2418 C   0  0  0  0  0  0  0  0  0  0  0  0
   -3.2401   -0.6725   -1.9006 H   0  0  0  0  0  0  0  0  0  0  0  0
   -2.6379    0.9158   -2.4342 H   0  0  0  0  0  0  0  0  0  0  0  0
   -1.5909   -0.5183   -2.5259 H   0  0  0  0  0  0  0  0  0  0  0  0
   -1.9592    1.3764   -0.3682 H   0  0  0  0  0  0  0  0  0  0  0  0
   -3.9383    0.1194    0.2624 H   0  0  0  0  0  0  0  0  0  0  0  0
   -2.7208    0.0934    1.5362 H   0  0  0  0  0  0  0  0  0  0  0  0
   -3.8601   -1.9716    0.7977 H   0  0  0  0  0  0  0  0  0  0  0  0
    0.3620   -1.7017   -1.2166 H   0  0  0  0  0  0  0  0  0  0  0  0
   -0.8338   -2.1772   -0.0069 H   0  0  0  0  0  0  0  0  0  0  0  0
    0.6319   -1.5654    1.7954 H   0  0  0  0  0  0  0  0  0  0  0  0
    1.5480   -2.6051    0.5598 H   0  0  0  0  0  0  0  0  0  0  0  0
    1.6887   -0.1731   -1.4061 H   0  0  0  0  0  0  0  0  0  0  0  0
    3.4452   -0.0367   -0.8664 H   0  0  0  0  0  0  0  0  0  0  0  0
    2.6598   -1.6168   -1.0290 H   0  0  0  0  0  0  0  0  0  0  0  0
    1.0550    0.4299    2.1256 H   0  0  0  0  0  0  0  0  0  0  0  0
    1.7181    2.6757    1.4319 H   0  0  0  0  0  0  0  0  0  0  0  0
    3.0891    1.6687    1.9645 H   0  0  0  0  0  0  0  0  0  0  0  0
    2.7693    3.0376   -0.3417 H   0  0  0  0  0  0  0  0  0  0  0  0
    0.5201    1.6123   -0.6399 H   0  0  0  0  0  0  0  0  0  0  0  0
   -0.4183    1.6497    0.8626 H   0  0  0  0  0  0  0  0  0  0  0  0
  1  2  1  0
  2  3  1  0
  3  4  1  0
  2  5  1  0
  5  6  1  0
  6  7  1  0
  7  8  1  0
  8  9  1  0
  8 10  1  0
 10 11  1  0
 11 12  1  0
 10 13  1  0
 13  5  1  0
  1 14  1  0
  1 15  1  0
  1 16  1  0
  2 17  1  6
  3 18  1  0
  3 19  1  0
  4 20  1  0
  6 21  1  0
  6 22  1  0
  7 23  1  0
  7 24  1  0
  9 25  1  0
  9 26  1  0
  9 27  1  0
 10 28  1  1
 11 29  1  0
 11 30  1  0
 12 31  1  0
 13 32  1  0
 13 33  1  0
M  END
$$$$

     RDKit          3D

 33 33  0  0  0  0  0  0  0  0999 V2000
   -2.9458    0.1953   -0.9493 C   0  0  0  0  0  0  0  0  0  0  0  0
   -2.0654    0.2787    0.2824 C   0  0  1  0  0  0  0  0  0  0  0  0
   -2.4419   -0.7532    1.2806 C   0  0  0  0  0  0  0  0  0  0  0  0
   -3.8169   -0.6981    1.5062 O   0  0  0  0  0  0  0  0  0  0  0  0
   -0.7245    0.3862   -0.0750 N   0  0  0  0  0  0  0  0  0  0  0  0
   -0.3489    1.5620   -0.8017 C   0  0  0  0  0  0  0  0  0  0  0  0
    1.1303    1.7389   -0.7355 C   0  0  0  0  0  0  0  0  0  0  0  0
    1.8313    0.7548    0.0445 N   0  0  0  0  0  0  0  0  0  0  0  0
    3.2161    1.0699   -0.0543 C   0  0  0  0  0  0  0  0  0  0  0  0
    1.4979   -0.6100   -0.2665 C   0  0  1  0  0  0  0  0  0  0  0  0
    1.8669   -1.5582    0.8325 C   0  0  0  0  0  0  0  0  0  0  0  0
    3.1903   -1.6063    1.1705 O   0  0  0  0  0  0  0  0  0  0  0  0
   -0.0073   -0.7794   -0.4607 C   0  0  0  0  0  0  0  0  0  0  0  0
   -2.9279   -0.8244   -1.3910 H   0  0  0  0  0  0  0  0  0  0  0  0
   -3.9844    0.4357   -0.6058 H   0  0  0  0  0  0  0  0  0  0  0  0
   -2.6619    0.9719   -1.6566 H   0  0  0  0  0  0  0  0  0  0  0  0
   -2.3550    1.2727    0.7464 H   0  0  0  0  0  0  0  0  0  0  0  0
   -1.9867   -0.5433    2.2928 H   0  0  0  0  0  0  0  0  0  0  0  0
   -2.1790   -1.7886    1.0501 H   0  0  0  0  0  0  0  0  0  0  0  0
   -4.2261   -1.5706    1.3742 H   0  0  0  0  0  0  0  0  0  0  0  0
   -0.6767    1.4497   -1.8538 H   0  0  0  0  0  0  0  0  0  0  0  0
   -0.8928    2.4301   -0.3809 H   0  0  0  0  0  0  0  0  0  0  0  0
    1.5863    1.7450   -1.7439 H   0  0  0  0  0  0  0  0  0  0  0  0
    1.3370    2.7277   -0.2746 H   0  0  0  0  0  0  0  0  0  0  0  0
    3.9159    0.2173   -0.0674 H   0  0  0  0  0  0  0  0  0  0  0  0
    3.4288    1.6527   -0.9877 H   0  0  0  0  0  0  0  0  0  0  0  0
    3.4459    1.7883    0.7837 H   0  0  0  0  0  0  0  0  0  0  0  0
    2.0693   -0.8891   -1.1704 H   0  0  0  0  0  0  0  0  0  0  0  0
    1.1872   -1.3775    1.6994 H   0  0  0  0  0  0  0  0  0  0  0  0
    1.5945   -2.6031    0.4972 H   0  0  0  0  0  0  0  0  0  0  0  0
    3.5126   -2.4978    1.4518 H   0  0  0  0  0  0  0  0  0  0  0  0
   -0.1519   -0.9127   -1.5584 H   0  0  0  0  0  0  0  0  0  0  0  0
   -0.4171   -1.6645    0.0212 H   0  0  0  0  0  0  0  0  0  0  0  0
  1  2  1  0
  2  3  1  0
  3  4  1  0
  2  5  1  0
  5  6  1  0
  6  7  1  0
  7  8  1  0
  8  9  1  0
  8 10  1  0
 10 11  1  0
 11 12  1  0
 10 13  1  0
 13  5  1  0
  1 14  1  0
  1 15  1  0
  1 16  1  0
  2 17  1  1
  3 18  1  0
  3 19  1  0
  4 20  1  0
  6 21  1  0
  6 22  1  0
  7 23  1  0
  7 24  1  0
  9 25  1  0
  9 26  1  0
  9 27  1  0
 10 28  1  6
 11 29  1  0
 11 30  1  0
 12 31  1  0
 13 32  1  0
 13 33  1  0
M  END
$$$$

     RDKit          3D

 33 33  0  0  0  0  0  0  0  0999 V2000
   -2.8170   -0.9806   -1.1679 C   0  0  0  0  0  0  0  0  0  0  0  0
   -2.1984    0.1303   -0.3089 C   0  0  1  0  0  0  0  0  0  0  0  0
   -2.9358    0.2167    0.9855 C   0  0  0  0  0  0  0  0  0  0  0  0
   -2.5174    1.2318    1.8084 O   0  0  0  0  0  0  0  0  0  0  0  0
   -0.8060   -0.0885   -0.2427 N   0  0  0  0  0  0  0  0  0  0  0  0
   -0.3668   -1.2919    0.3776 C   0  0  0  0  0  0  0  0  0  0  0  0
    0.9756   -1.6314   -0.2281 C   0  0  0  0  0  0  0  0  0  0  0  0
    1.8770   -0.5470   -0.3488 N   0  0  0  0  0  0  0  0  0  0  0  0
    3.1075   -0.8998    0.3485 C   0  0  0  0  0  0  0  0  0  0  0  0
    1.4555    0.7377    0.0608 C   0  0  1  0  0  0  0  0  0  0  0  0
    2.0906    1.7428   -0.9135 C   0  0  0  0  0  0  0  0  0  0  0  0
    3.4618    1.6885   -0.8995 O   0  0  0  0  0  0  0  0  0  0  0  0
    0.0025    1.0014    0.1648 C   0  0  0  0  0  0  0  0  0  0  0  0
   -3.4286   -1.6394   -0.5103 H   0  0  0  0  0  0  0  0  0  0  0  0
   -2.0344   -1.5727   -1.6758 H   0  0  0  0  0  0  0  0  0  0  0  0
   -3.4474   -0.5299   -1.9607 H   0  0  0  0  0  0  0  0  0  0  0  0
   -2.3590    1.1099   -0.8405 H   0  0  0  0  0  0  0  0  0  0  0  0
   -2.9000   -0.7263    1.5688 H   0  0  0  0  0  0  0  0  0  0  0  0
   -4.0279    0.3536    0.7348 H   0  0  0  0  0  0  0  0  0  0  0  0
   -2.8031    2.1317    1.4563 H   0  0  0  0  0  0  0  0  0  0  0  0
   -1.0404   -2.1634    0.2176 H   0  0  0  0  0  0  0  0  0  0  0  0
   -0.2821   -1.1466    1.4882 H   0  0  0  0  0  0  0  0  0  0  0  0
    1.3683   -2.5118    0.3007 H   0  0  0  0  0  0  0  0  0  0  0  0
    0.7467   -1.9872   -1.2767 H   0  0  0  0  0  0  0  0  0  0  0  0
    3.0122   -0.6478    1.4206 H   0  0  0  0  0  0  0  0  0  0  0  0
    3.2148   -2.0062    0.2706 H   0  0  0  0  0  0  0  0  0  0  0  0
    3.9956   -0.4396   -0.0979 H   0  0  0  0  0  0  0  0  0  0  0  0
    1.9357    0.9814    1.0504 H   0  0  0  0  0  0  0  0  0  0  0  0
    1.7545    2.7704   -0.6535 H   0  0  0  0  0  0  0  0  0  0  0  0
    1.7426    1.5519   -1.9530 H   0  0  0  0  0  0  0  0  0  0  0  0
    3.7721    1.9635    0.0144 H   0  0  0  0  0  0  0  0  0  0  0  0
   -0.2671    1.9275   -0.4155 H   0  0  0  0  0  0  0  0  0  0  0  0
   -0.2814    1.2713    1.2255 H   0  0  0  0  0  0  0  0  0  0  0  0
  1  2  1  0
  2  3  1  0
  3  4  1  0
  2  5  1  0
  5  6  1  0
  6  7  1  0
  7  8  1  0
  8  9  1  0
  8 10  1  0
 10 11  1  0
 11 12  1  0
 10 13  1  0
 13  5  1  0
  1 14  1  0
  1 15  1  0
  1 16  1  0
  2 17  1  6
  3 18  1  0
  3 19  1  0
  4 20  1  0
  6 21  1  0
  6 22  1  0
  7 23  1  0
  7 24  1  0
  9 25  1  0
  9 26  1  0
  9 27  1  0
 10 28  1  1
 11 29  1  0
 11 30  1  0
 12 31  1  0
 13 32  1  0
 13 33  1  0
M  END
$$$$
