
     RDKit          3D

 27 27  0  0  0  0  0  0  0  0999 V2000
   -4.0829   -0.2943    0.0272 C   0  0  0  0  0  0  0  0  0  0  0  0
   -2.8394    0.3939    0.6060 C   0  0  1  0  0  0  0  0  0  0  0  0
   -1.9181   -0.6904    0.8960 N   0  0  0  0  0  0  0  0  0  0  0  0
   -0.6063   -0.7671    0.3529 C   0  0  0  0  0  0  0  0  0  0  0  0
   -0.0352   -1.8958    0.1749 O   0  0  0  0  0  0  0  0  0  0  0  0
    0.0256    0.5231    0.0205 C   0  0  1  0  0  0  0  0  0  0  0  0
    1.3695    0.4216   -0.6006 C   0  0  0  0  0  0  0  0  0  0  0  0
    2.3950   -0.2593    0.2323 C   0  0  0  0  0  0  0  0  0  0  0  0
    3.6970   -0.3036   -0.4863 C   0  0  0  0  0  0  0  0  0  0  0  0
    4.8344   -0.9102    0.1158 N   0  0  0  0  0  0  0  0  0  0  0  0
    3.8547    0.1821   -1.6365 O   0  0  0  0  0  0  0  0  0  0  0  0
   -0.8883    1.2646   -0.7837 N   0  0  0  0  0  0  0  0  0  0  0  0
   -2.2737    1.2016   -0.5247 C   0  0  0  0  0  0  0  0  0  0  0  0
   -3.0862    1.8332   -1.2490 O   0  0  0  0  0  0  0  0  0  0  0  0
   -4.9436    0.3696   -0.0110 H   0  0  0  0  0  0  0  0  0  0  0  0
   -3.8006   -0.6284   -0.9975 H   0  0  0  0  0  0  0  0  0  0  0  0
   -4.2671   -1.2375    0.6007 H   0  0  0  0  0  0  0  0  0  0  0  0
   -3.0886    1.0041    1.4741 H   0  0  0  0  0  0  0  0  0  0  0  0
   -2.2186   -1.4791    1.5439 H   0  0  0  0  0  0  0  0  0  0  0  0
    0.1528    1.1153    0.9765 H   0  0  0  0  0  0  0  0  0  0  0  0
    1.2754    0.0018   -1.6193 H   0  0  0  0  0  0  0  0  0  0  0  0
    1.7310    1.4786   -0.7571 H   0  0  0  0  0  0  0  0  0  0  0  0
    2.1710   -1.2625    0.5721 H   0  0  0  0  0  0  0  0  0  0  0  0
    2.5705    0.3606    1.1581 H   0  0  0  0  0  0  0  0  0  0  0  0
    4.8589   -1.0306    1.1520 H   0  0  0  0  0  0  0  0  0  0  0  0
    5.6520   -1.2438   -0.4286 H   0  0  0  0  0  0  0  0  0  0  0  0
   -0.5391    1.8523   -1.5610 H   0  0  0  0  0  0  0  0  0  0  0  0
  1  2  1  0
  2  3  1  0
  3  4  1  0
  4  5  2  0
  4  6  1  0
  6  7  1  0
  7  8  1  0
  8  9  1  0
  9 10  1  0
  9 11  2  0
  6 12  1  0
 12 13  1  0
 13 14  2  0
 13  2  1  0
  1 15  1  0
  1 16  1  0
  1 17  1  0
  2 18  1  1
  3 19  1  0
  6 20  1  1
  7 21  1  0
  7 22  1  0
  8 23  1  0
  8 24  1  0
 10 25  1  0
 10 26  1  0
 12 27  1  0
M  END
$$$$

     RDKit          3D

 27 27  0  0  0  0  0  0  0  0999 V2000
    3.6565   -1.2914    0.8908 C   0  0  0  0  0  0  0  0  0  0  0  0
    2.3440   -0.5326    0.8095 C   0  0  1  0  0  0  0  0  0  0  0  0
    2.4099    0.2683   -0.3988 N   0  0  0  0  0  0  0  0  0  0  0  0
    1.2478    0.4548   -1.1946 C   0  0  0  0  0  0  0  0  0  0  0  0
    1.3073    0.7209   -2.4308 O   0  0  0  0  0  0  0  0  0  0  0  0
   -0.0679    0.3160   -0.4747 C   0  0  1  0  0  0  0  0  0  0  0  0
   -1.1426    0.4412   -1.4956 C   0  0  0  0  0  0  0  0  0  0  0  0
   -2.5266    0.3219   -0.9231 C   0  0  0  0  0  0  0  0  0  0  0  0
   -2.8402    1.3621    0.0748 C   0  0  0  0  0  0  0  0  0  0  0  0
   -4.0817    1.3492    0.7893 N   0  0  0  0  0  0  0  0  0  0  0  0
   -2.0423    2.2753    0.3232 O   0  0  0  0  0  0  0  0  0  0  0  0
   -0.0347   -1.0283    0.1096 N   0  0  0  0  0  0  0  0  0  0  0  0
    1.1761   -1.4649    0.7541 C   0  0  0  0  0  0  0  0  0  0  0  0
    1.2025   -2.6206    1.2478 O   0  0  0  0  0  0  0  0  0  0  0  0
    4.4366   -0.5743    1.1958 H   0  0  0  0  0  0  0  0  0  0  0  0
    3.8975   -1.6220   -0.1351 H   0  0  0  0  0  0  0  0  0  0  0  0
    3.5959   -2.1806    1.5318 H   0  0  0  0  0  0  0  0  0  0  0  0
    2.2749    0.1548    1.6878 H   0  0  0  0  0  0  0  0  0  0  0  0
    3.3044    0.7174   -0.7019 H   0  0  0  0  0  0  0  0  0  0  0  0
   -0.1132    1.0280    0.3505 H   0  0  0  0  0  0  0  0  0  0  0  0
   -1.0547   -0.3427   -2.2804 H   0  0  0  0  0  0  0  0  0  0  0  0
   -1.0841    1.4350   -1.9913 H   0  0  0  0  0  0  0  0  0  0  0  0
   -2.7368   -0.6935   -0.5287 H   0  0  0  0  0  0  0  0  0  0  0  0
   -3.2356    0.4659   -1.7673 H   0  0  0  0  0  0  0  0  0  0  0  0
   -4.5340    2.2592    0.9926 H   0  0  0  0  0  0  0  0  0  0  0  0
   -4.5156    0.4605    1.0941 H   0  0  0  0  0  0  0  0  0  0  0  0
   -0.8433   -1.6795    0.0802 H   0  0  0  0  0  0  0  0  0  0  0  0
  1  2  1  0
  2  3  1  0
  3  4  1  0
  4  5  2  0
  4  6  1  0
  6  7  1  0
  7  8  1  0
  8  9  1  0
  9 10  1  0
  9 11  2  0
  6 12  1  0
 12 13  1  0
 13 14  2  0
 13  2  1  0
  1 15  1  0
  1 16  1  0
  1 17  1  0
  2 18  1  1
  3 19  1  0
  6 20  1  1
  7 21  1  0
  7 22  1  0
  8 23  1  0
  8 24  1  0
 10 25  1  0
 10 26  1  0
 12 27  1  0
M  END
$$$$

     RDKit          3D

 27 27  0  0  0  0  0  0  0  0999 V2000
   -3.9983    0.2252   -0.0449 C   0  0  0  0  0  0  0  0  0  0  0  0
   -2.5766    0.7661   -0.2165 C   0  0  1  0  0  0  0  0  0  0  0  0
   -1.7970    0.3337    0.9121 N   0  0  0  0  0  0  0  0  0  0  0  0
   -0.3806    0.3301    0.7896 C   0  0  0  0  0  0  0  0  0  0  0  0
    0.3176    0.5474    1.8165 O   0  0  0  0  0  0  0  0  0  0  0  0
    0.2922    0.0785   -0.5102 C   0  0  1  0  0  0  0  0  0  0  0  0
    1.2650   -1.0501   -0.4141 C   0  0  0  0  0  0  0  0  0  0  0  0
    2.3752   -0.8825    0.5590 C   0  0  0  0  0  0  0  0  0  0  0  0
    3.2457    0.2888    0.2872 C   0  0  0  0  0  0  0  0  0  0  0  0
    4.3382    0.6325    1.1300 N   0  0  0  0  0  0  0  0  0  0  0  0
    3.0542    1.0334   -0.7074 O   0  0  0  0  0  0  0  0  0  0  0  0
   -0.6999   -0.3249   -1.5189 N   0  0  0  0  0  0  0  0  0  0  0  0
   -2.0203    0.1927   -1.4686 C   0  0  0  0  0  0  0  0  0  0  0  0
   -2.7592    0.1757   -2.5028 O   0  0  0  0  0  0  0  0  0  0  0  0
   -4.2920    0.2942    1.0185 H   0  0  0  0  0  0  0  0  0  0  0  0
   -4.7178    0.7691   -0.6913 H   0  0  0  0  0  0  0  0  0  0  0  0
   -4.0382   -0.8501   -0.3429 H   0  0  0  0  0  0  0  0  0  0  0  0
   -2.6549    1.8694   -0.2982 H   0  0  0  0  0  0  0  0  0  0  0  0
   -2.2793    0.0285    1.8065 H   0  0  0  0  0  0  0  0  0  0  0  0
    0.7402    1.0304   -0.8543 H   0  0  0  0  0  0  0  0  0  0  0  0
    0.6946   -1.9670   -0.0969 H   0  0  0  0  0  0  0  0  0  0  0  0
    1.7053   -1.3033   -1.3988 H   0  0  0  0  0  0  0  0  0  0  0  0
    2.0755   -0.9585    1.6268 H   0  0  0  0  0  0  0  0  0  0  0  0
    3.0546   -1.7781    0.4143 H   0  0  0  0  0  0  0  0  0  0  0  0
    4.6942    1.6077    1.1989 H   0  0  0  0  0  0  0  0  0  0  0  0
    4.8264   -0.0972    1.7173 H   0  0  0  0  0  0  0  0  0  0  0  0
   -0.4648   -0.9916   -2.2866 H   0  0  0  0  0  0  0  0  0  0  0  0
  1  2  1  0
  2  3  1  0
  3  4  1  0
  4  5  2  0
  4  6  1  0
  6  7  1  0
  7  8  1  0
  8  9  1  0
  9 10  1  0
  9 11  2  0
  6 12  1  0
 12 13  1  0
 13 14  2  0
 13  2  1  0
  1 15  1  0
  1 16  1  0
  1 17  1  0
  2 18  1  6
  3 19  1  0
  6 20  1  6
  7 21  1  0
  7 22  1  0
  8 23  1  0
  8 24  1  0
 10 25  1  0
 10 26  1  0
 12 27  1  0
M  END
$$$$

     RDKit          3D

 27 27  0  0  0  0  0  0  0  0999 V2000
   -3.5325    0.9274   -0.4192 C   0  0  0  0  0  0  0  0  0  0  0  0
   -2.4838    0.5865    0.6194 C   0  0  1  0  0  0  0  0  0  0  0  0
   -2.2671   -0.8231    0.6424 N   0  0  0  0  0  0  0  0  0  0  0  0
   -1.0104   -1.3529    0.9637 C   0  0  0  0  0  0  0  0  0  0  0  0
   -0.9096   -2.4941    1.5096 O   0  0  0  0  0  0  0  0  0  0  0  0
    0.2192   -0.5736    0.6637 C   0  0  1  0  0  0  0  0  0  0  0  0
    0.7957   -0.9870   -0.6640 C   0  0  0  0  0  0  0  0  0  0  0  0
    2.0294   -0.2708   -1.0711 C   0  0  0  0  0  0  0  0  0  0  0  0
    3.1881   -0.4215   -0.1728 C   0  0  0  0  0  0  0  0  0  0  0  0
    4.3923    0.2786   -0.4001 N   0  0  0  0  0  0  0  0  0  0  0  0
    3.1082   -1.1849    0.8122 O   0  0  0  0  0  0  0  0  0  0  0  0
   -0.0103    0.8470    0.7232 N   0  0  0  0  0  0  0  0  0  0  0  0
   -1.2634    1.3673    0.3734 C   0  0  0  0  0  0  0  0  0  0  0  0
   -1.3124    2.5302   -0.1607 O   0  0  0  0  0  0  0  0  0  0  0  0
   -4.5546    0.9741    0.0568 H   0  0  0  0  0  0  0  0  0  0  0  0
   -3.3541    1.9097   -0.8657 H   0  0  0  0  0  0  0  0  0  0  0  0
   -3.5900    0.1616   -1.2065 H   0  0  0  0  0  0  0  0  0  0  0  0
   -2.8983    0.9286    1.6002 H   0  0  0  0  0  0  0  0  0  0  0  0
   -3.0625   -1.4623    0.4150 H   0  0  0  0  0  0  0  0  0  0  0  0
    0.9385   -0.8320    1.4656 H   0  0  0  0  0  0  0  0  0  0  0  0
    0.8882   -2.0927   -0.7390 H   0  0  0  0  0  0  0  0  0  0  0  0
    0.0081   -0.7250   -1.4305 H   0  0  0  0  0  0  0  0  0  0  0  0
    2.3748   -0.6672   -2.0707 H   0  0  0  0  0  0  0  0  0  0  0  0
    1.7707    0.7951   -1.2513 H   0  0  0  0  0  0  0  0  0  0  0  0
    4.5953    1.2269    0.0158 H   0  0  0  0  0  0  0  0  0  0  0  0
    5.1503   -0.1135   -0.9987 H   0  0  0  0  0  0  0  0  0  0  0  0
    0.7901    1.4678    1.0353 H   0  0  0  0  0  0  0  0  0  0  0  0
  1  2  1  0
  2  3  1  0
  3  4  1  0
  4  5  2  0
  4  6  1  0
  6  7  1  0
  7  8  1  0
  8  9  1  0
  9 10  1  0
  9 11  2  0
  6 12  1  0
 12 13  1  0
 13 14  2  0
 13  2  1  0
  1 15  1  0
  1 16  1  0
  1 17  1  0
  2 18  1  1
  3 19  1  0
  6 20  1  1
  7 21  1  0
  7 22  1  0
  8 23  1  0
  8 24  1  0
 10 25  1  0
 10 26  1  0
 12 27  1  0
M  END
$$$$

     RDKit          3D

 27 27  0  0  0  0  0  0  0  0999 V2000
    4.1183    0.3906    0.2153 C   0  0  0  0  0  0  0  0  0  0  0  0
    2.7241    0.6153   -0.3287 C   0  0  1  0  0  0  0  0  0  0  0  0
    2.2887   -0.5048   -1.1516 N   0  0  0  0  0  0  0  0  0  0  0  0
    0.9205   -0.8782   -1.2474 C   0  0  0  0  0  0  0  0  0  0  0  0
    0.5400   -1.8708   -1.9124 O   0  0  0  0  0  0  0  0  0  0  0  0
   -0.0863   -0.0660   -0.5372 C   0  0  1  0  0  0  0  0  0  0  0  0
   -1.4092   -0.7932   -0.4055 C   0  0  0  0  0  0  0  0  0  0  0  0
   -2.3627    0.0973    0.3178 C   0  0  0  0  0  0  0  0  0  0  0  0
   -3.7050   -0.5333    0.4985 C   0  0  0  0  0  0  0  0  0  0  0  0
   -4.6853    0.2270    1.1728 N   0  0  0  0  0  0  0  0  0  0  0  0
   -3.9667   -1.6824    0.0778 O   0  0  0  0  0  0  0  0  0  0  0  0
    0.4868    0.2641    0.7558 N   0  0  0  0  0  0  0  0  0  0  0  0
    1.7604    0.8931    0.7601 C   0  0  0  0  0  0  0  0  0  0  0  0
    2.1178    1.6942    1.6664 O   0  0  0  0  0  0  0  0  0  0  0  0
    4.1196    0.5993    1.3000 H   0  0  0  0  0  0  0  0  0  0  0  0
    4.4054   -0.6393   -0.0458 H   0  0  0  0  0  0  0  0  0  0  0  0
    4.7898    1.1517   -0.2516 H   0  0  0  0  0  0  0  0  0  0  0  0
    2.6988    1.5103   -1.0168 H   0  0  0  0  0  0  0  0  0  0  0  0
    2.9928   -1.0536   -1.6888 H   0  0  0  0  0  0  0  0  0  0  0  0
   -0.2224    0.8817   -1.0952 H   0  0  0  0  0  0  0  0  0  0  0  0
   -1.7356   -1.0426   -1.4363 H   0  0  0  0  0  0  0  0  0  0  0  0
   -1.2818   -1.7596    0.1243 H   0  0  0  0  0  0  0  0  0  0  0  0
   -2.5415    1.0031   -0.3267 H   0  0  0  0  0  0  0  0  0  0  0  0
   -1.9248    0.4241    1.2597 H   0  0  0  0  0  0  0  0  0  0  0  0
   -5.2916    0.8667    0.6326 H   0  0  0  0  0  0  0  0  0  0  0  0
   -4.7826    0.1331    2.1963 H   0  0  0  0  0  0  0  0  0  0  0  0
    0.0324    0.0723    1.6683 H   0  0  0  0  0  0  0  0  0  0  0  0
  1  2  1  0
  2  3  1  0
  3  4  1  0
  4  5  2  0
  4  6  1  0
  6  7  1  0
  7  8  1  0
  8  9  1  0
  9 10  1  0
  9 11  2  0
  6 12  1  0
 12 13  1  0
 13 14  2  0
 13  2  1  0
  1 15  1  0
  1 16  1  0
  1 17  1  0
  2 18  1  6
  3 19  1  0
  6 20  1  6
  7 21  1  0
  7 22  1  0
  8 23  1  0
  8 24  1  0
 10 25  1  0
 10 26  1  0
 12 27  1  0
M  END
$$$$

     RDKit          3D

 27 27  0  0  0  0  0  0  0  0999 V2000
   -2.6332   -0.7672    0.8474 C   0  0  0  0  0  0  0  0  0  0  0  0
   -2.4002    0.2337   -0.2531 C   0  0  1  0  0  0  0  0  0  0  0  0
   -1.4096    1.2366    0.0830 N   0  0  0  0  0  0  0  0  0  0  0  0
   -0.1793    1.2057   -0.6238 C   0  0  0  0  0  0  0  0  0  0  0  0
    0.4613    2.2816   -0.7207 O   0  0  0  0  0  0  0  0  0  0  0  0
    0.3058   -0.0261   -1.2084 C   0  0  1  0  0  0  0  0  0  0  0  0
    1.0276   -0.9956   -0.3312 C   0  0  0  0  0  0  0  0  0  0  0  0
    2.2699   -0.5499    0.3316 C   0  0  0  0  0  0  0  0  0  0  0  0
    2.1678    0.5374    1.3104 C   0  0  0  0  0  0  0  0  0  0  0  0
    3.2929    1.3046    1.6884 N   0  0  0  0  0  0  0  0  0  0  0  0
    1.0770    0.8180    1.8466 O   0  0  0  0  0  0  0  0  0  0  0  0
   -0.7846   -0.7956   -1.8120 N   0  0  0  0  0  0  0  0  0  0  0  0
   -2.1146   -0.3972   -1.5662 C   0  0  0  0  0  0  0  0  0  0  0  0
   -3.0377   -0.5704   -2.4341 O   0  0  0  0  0  0  0  0  0  0  0  0
   -2.0821   -1.6868    0.6455 H   0  0  0  0  0  0  0  0  0  0  0  0
   -3.7456   -0.9533    0.9089 H   0  0  0  0  0  0  0  0  0  0  0  0
   -2.3653   -0.3022    1.8288 H   0  0  0  0  0  0  0  0  0  0  0  0
   -3.3522    0.8245   -0.4133 H   0  0  0  0  0  0  0  0  0  0  0  0
   -1.6490    1.9257    0.8219 H   0  0  0  0  0  0  0  0  0  0  0  0
    0.9888    0.2435   -2.0722 H   0  0  0  0  0  0  0  0  0  0  0  0
    1.2881   -1.8723   -1.0051 H   0  0  0  0  0  0  0  0  0  0  0  0
    0.2845   -1.4371    0.3754 H   0  0  0  0  0  0  0  0  0  0  0  0
    3.0937   -0.3808   -0.4071 H   0  0  0  0  0  0  0  0  0  0  0  0
    2.6620   -1.4383    0.9264 H   0  0  0  0  0  0  0  0  0  0  0  0
    3.9372    0.9675    2.4202 H   0  0  0  0  0  0  0  0  0  0  0  0
    3.4619    2.2092    1.2217 H   0  0  0  0  0  0  0  0  0  0  0  0
   -0.5652   -1.6150   -2.4092 H   0  0  0  0  0  0  0  0  0  0  0  0
  1  2  1  0
  2  3  1  0
  3  4  1  0
  4  5  2  0
  4  6  1  0
  6  7  1  0
  7  8  1  0
  8  9  1  0
  9 10  1  0
  9 11  2  0
  6 12  1  0
 12 13  1  0
 13 14  2  0
 13  2  1  0
  1 15  1  0
  1 16  1  0
  1 17  1  0
  2 18  1  6
  3 19  1  0
  6 20  1  6
  7 21  1  0
  7 22  1  0
  8 23  1  0
  8 24  1  0
 10 25  1  0
 10 26  1  0
 12 27  1  0
M  END
$$$$

     RDKit          3D

 27 27  0  0  0  0  0  0  0  0999 V2000
   -3.0118    0.5939   -0.6449 C   0  0  0  0  0  0  0  0  0  0  0  0
   -2.5352   -0.5782    0.1883 C   0  0  1  0  0  0  0  0  0  0  0  0
   -1.4559   -1.2998   -0.4533 N   0  0  0  0  0  0  0  0  0  0  0  0
   -0.1827   -1.3779    0.1685 C   0  0  0  0  0  0  0  0  0  0  0  0
    0.5903   -2.3785   -0.0278 O   0  0  0  0  0  0  0  0  0  0  0  0
    0.2058   -0.2466    1.0536 C   0  0  1  0  0  0  0  0  0  0  0  0
    0.6637    0.9166    0.2148 C   0  0  0  0  0  0  0  0  0  0  0  0
    1.8362    0.6386   -0.6601 C   0  0  0  0  0  0  0  0  0  0  0  0
    3.0661    0.2442    0.0492 C   0  0  0  0  0  0  0  0  0  0  0  0
    4.2599   -0.1255   -0.6608 N   0  0  0  0  0  0  0  0  0  0  0  0
    3.1241    0.2149    1.3027 O   0  0  0  0  0  0  0  0  0  0  0  0
   -0.8915    0.2355    1.8638 N   0  0  0  0  0  0  0  0  0  0  0  0
   -2.1997   -0.1758    1.5549 C   0  0  0  0  0  0  0  0  0  0  0  0
   -3.0731   -0.1966    2.4480 O   0  0  0  0  0  0  0  0  0  0  0  0
   -3.9900    0.3681   -1.1304 H   0  0  0  0  0  0  0  0  0  0  0  0
   -2.3107    0.8233   -1.4752 H   0  0  0  0  0  0  0  0  0  0  0  0
   -3.1687    1.4536    0.0173 H   0  0  0  0  0  0  0  0  0  0  0  0
   -3.3972   -1.3075    0.2565 H   0  0  0  0  0  0  0  0  0  0  0  0
   -1.6225   -1.7555   -1.3625 H   0  0  0  0  0  0  0  0  0  0  0  0
    1.0232   -0.6267    1.7346 H   0  0  0  0  0  0  0  0  0  0  0  0
    0.9473    1.7511    0.9161 H   0  0  0  0  0  0  0  0  0  0  0  0
   -0.1928    1.2165   -0.4170 H   0  0  0  0  0  0  0  0  0  0  0  0
    2.0370    1.4683   -1.3708 H   0  0  0  0  0  0  0  0  0  0  0  0
    1.5509   -0.2238   -1.3274 H   0  0  0  0  0  0  0  0  0  0  0  0
    4.6281   -1.0869   -0.5606 H   0  0  0  0  0  0  0  0  0  0  0  0
    4.7550    0.5816   -1.2792 H   0  0  0  0  0  0  0  0  0  0  0  0
   -0.6559    0.8730    2.6486 H   0  0  0  0  0  0  0  0  0  0  0  0
  1  2  1  0
  2  3  1  0
  3  4  1  0
  4  5  2  0
  4  6  1  0
  6  7  1  0
  7  8  1  0
  8  9  1  0
  9 10  1  0
  9 11  2  0
  6 12  1  0
 12 13  1  0
 13 14  2  0
 13  2  1  0
  1 15  1  0
  1 16  1  0
  1 17  1  0
  2 18  1  1
  3 19  1  0
  6 20  1  1
  7 21  1  0
  7 22  1  0
  8 23  1  0
  8 24  1  0
 10 25  1  0
 10 26  1  0
 12 27  1  0
M  END
$$$$

     RDKit          3D

 27 27  0  0  0  0  0  0  0  0999 V2000
   -3.8461    0.8923   -0.4643 C   0  0  0  0  0  0  0  0  0  0  0  0
   -2.7483    0.1802    0.2962 C   0  0  1  0  0  0  0  0  0  0  0  0
   -2.2691   -0.9659   -0.4418 N   0  0  0  0  0  0  0  0  0  0  0  0
   -1.0580   -1.5758   -0.0187 C   0  0  0  0  0  0  0  0  0  0  0  0
   -0.8906   -2.8170   -0.2142 O   0  0  0  0  0  0  0  0  0  0  0  0
    0.0256   -0.8193    0.6456 C   0  0  1  0  0  0  0  0  0  0  0  0
    1.1974   -0.7646   -0.3223 C   0  0  0  0  0  0  0  0  0  0  0  0
    2.3283   -0.0036    0.3090 C   0  0  0  0  0  0  0  0  0  0  0  0
    3.4609    0.0512   -0.6184 C   0  0  0  0  0  0  0  0  0  0  0  0
    4.6749    0.7047   -0.3018 N   0  0  0  0  0  0  0  0  0  0  0  0
    3.3583   -0.5064   -1.7525 O   0  0  0  0  0  0  0  0  0  0  0  0
   -0.3656    0.5128    0.9983 N   0  0  0  0  0  0  0  0  0  0  0  0
   -1.6030    1.0874    0.5323 C   0  0  0  0  0  0  0  0  0  0  0  0
   -1.7149    2.3124    0.3310 O   0  0  0  0  0  0  0  0  0  0  0  0
   -3.4087    1.5419   -1.2434 H   0  0  0  0  0  0  0  0  0  0  0  0
   -4.5064    0.1305   -0.9604 H   0  0  0  0  0  0  0  0  0  0  0  0
   -4.4420    1.4945    0.2540 H   0  0  0  0  0  0  0  0  0  0  0  0
   -3.1383   -0.1599    1.2893 H   0  0  0  0  0  0  0  0  0  0  0  0
   -2.8106   -1.3298   -1.2676 H   0  0  0  0  0  0  0  0  0  0  0  0
    0.3207   -1.3778    1.5482 H   0  0  0  0  0  0  0  0  0  0  0  0
    0.8960   -0.2746   -1.2699 H   0  0  0  0  0  0  0  0  0  0  0  0
    1.5064   -1.8108   -0.5410 H   0  0  0  0  0  0  0  0  0  0  0  0
    1.9752    1.0352    0.5308 H   0  0  0  0  0  0  0  0  0  0  0  0
    2.5860   -0.5199    1.2598 H   0  0  0  0  0  0  0  0  0  0  0  0
    5.2680    0.3584    0.4719 H   0  0  0  0  0  0  0  0  0  0  0  0
    4.9544    1.5298   -0.8563 H   0  0  0  0  0  0  0  0  0  0  0  0
    0.2495    1.0941    1.6075 H   0  0  0  0  0  0  0  0  0  0  0  0
  1  2  1  0
  2  3  1  0
  3  4  1  0
  4  5  2  0
  4  6  1  0
  6  7  1  0
  7  8  1  0
  8  9  1  0
  9 10  1  0
  9 11  2  0
  6 12  1  0
 12 13  1  0
 13 14  2  0
 13  2  1  0
  1 15  1  0
  1 16  1  0
  1 17  1  0
  2 18  1  1
  3 19  1  0
  6 20  1  1
  7 21  1  0
  7 22  1  0
  8 23  1  0
  8 24  1  0
 10 25  1  0
 10 26  1  0
 12 27  1  0
M  END
$$$$
