
     RDKit          3D

 21 21  0  0  0  0  0  0  0  0999 V2000
    2.2491   -0.1245    0.2018 C   0  0  0  0  0  0  0  0  0  0  0  0
    0.8740    0.1365   -0.4032 C   0  0  2  0  0  0  0  0  0  0  0  0
    0.3959    1.4574    0.1204 C   0  0  0  0  0  0  0  0  0  0  0  0
   -0.9411    1.7460   -0.3819 N   0  0  0  0  0  0  0  0  0  0  0  0
   -1.8389    0.6167   -0.3282 C   0  0  0  0  0  0  0  0  0  0  0  0
   -2.9189    0.6322   -0.9289 O   0  0  0  0  0  0  0  0  0  0  0  0
   -1.3433   -0.5255    0.4967 C   0  0  1  0  0  0  0  0  0  0  0  0
   -2.2632   -1.5355    0.6209 O   0  0  0  0  0  0  0  0  0  0  0  0
   -0.0328   -1.0079   -0.1112 C   0  0  1  0  0  0  0  0  0  0  0  0
   -0.2639   -1.7333   -1.2839 O   0  0  0  0  0  0  0  0  0  0  0  0
    2.1679   -0.9132    0.9906 H   0  0  0  0  0  0  0  0  0  0  0  0
    2.9357   -0.5014   -0.5852 H   0  0  0  0  0  0  0  0  0  0  0  0
    2.6712    0.8032    0.6460 H   0  0  0  0  0  0  0  0  0  0  0  0
    1.0057    0.2482   -1.5137 H   0  0  0  0  0  0  0  0  0  0  0  0
    0.4071    1.5083    1.2228 H   0  0  0  0  0  0  0  0  0  0  0  0
    1.1012    2.2339   -0.2460 H   0  0  0  0  0  0  0  0  0  0  0  0
   -1.2414    2.6626   -0.7462 H   0  0  0  0  0  0  0  0  0  0  0  0
   -1.0651   -0.1425    1.5227 H   0  0  0  0  0  0  0  0  0  0  0  0
   -2.7579   -1.4397    1.4948 H   0  0  0  0  0  0  0  0  0  0  0  0
    0.3984   -1.7304    0.6231 H   0  0  0  0  0  0  0  0  0  0  0  0
    0.4603   -2.3911   -1.4114 H   0  0  0  0  0  0  0  0  0  0  0  0
  1  2  1  0
  2  3  1  0
  3  4  1  0
  4  5  1  0
  5  6  2  0
  5  7  1  0
  7  8  1  0
  7  9  1  0
  9 10  1  0
  9  2  1  0
  1 11  1  0
  1 12  1  0
  1 13  1  0
  2 14  1  6
  3 15  1  0
  3 16  1  0
  4 17  1  0
  7 18  1  1
  8 19  1  0
  9 20  1  1
 10 21  1  0
M  END
$$$$

     RDKit          3D

 21 21  0  0  0  0  0  0  0  0999 V2000
   -2.1983    0.3614    0.1817 C   0  0  0  0  0  0  0  0  0  0  0  0
   -0.7914    0.0486   -0.1667 C   0  0  2  0  0  0  0  0  0  0  0  0
   -0.5516   -1.4310   -0.4417 C   0  0  0  0  0  0  0  0  0  0  0  0
    0.8279   -1.5349   -0.9024 N   0  0  0  0  0  0  0  0  0  0  0  0
    1.8420   -0.6232   -0.5247 C   0  0  0  0  0  0  0  0  0  0  0  0
    3.0481   -0.8916   -0.7292 O   0  0  0  0  0  0  0  0  0  0  0  0
    1.5111    0.6894    0.1301 C   0  0  1  0  0  0  0  0  0  0  0  0
    1.1853    1.5636   -0.9218 O   0  0  0  0  0  0  0  0  0  0  0  0
    0.2112    0.4489    0.8860 C   0  0  1  0  0  0  0  0  0  0  0  0
   -0.1692    1.5250    1.6410 O   0  0  0  0  0  0  0  0  0  0  0  0
   -2.3934    1.4347   -0.1043 H   0  0  0  0  0  0  0  0  0  0  0  0
   -2.8611   -0.2277   -0.5032 H   0  0  0  0  0  0  0  0  0  0  0  0
   -2.4763    0.1951    1.2211 H   0  0  0  0  0  0  0  0  0  0  0  0
   -0.5591    0.5668   -1.1424 H   0  0  0  0  0  0  0  0  0  0  0  0
   -0.7296   -1.9648    0.4964 H   0  0  0  0  0  0  0  0  0  0  0  0
   -1.2737   -1.7342   -1.2048 H   0  0  0  0  0  0  0  0  0  0  0  0
    1.0538   -2.3128   -1.5297 H   0  0  0  0  0  0  0  0  0  0  0  0
    2.3080    1.0574    0.7679 H   0  0  0  0  0  0  0  0  0  0  0  0
    1.9777    2.0286   -1.2804 H   0  0  0  0  0  0  0  0  0  0  0  0
    0.4280   -0.4273    1.5652 H   0  0  0  0  0  0  0  0  0  0  0  0
   -0.3894    1.2281    2.5619 H   0  0  0  0  0  0  0  0  0  0  0  0
  1  2  1  0
  2  3  1  0
  3  4  1  0
  4  5  1  0
  5  6  2  0
  5  7  1  0
  7  8  1  0
  7  9  1  0
  9 10  1  0
  9  2  1  0
  1 11  1  0
  1 12  1  0
  1 13  1  0
  2 14  1  6
  3 15  1  0
  3 16  1  0
  4 17  1  0
  7 18  1  1
  8 19  1  0
  9 20  1  1
 10 21  1  0
M  END
$$$$

     RDKit          3D

 21 21  0  0  0  0  0  0  0  0999 V2000
    2.0499   -0.2516    0.5662 C   0  0  0  0  0  0  0  0  0  0  0  0
    0.9666   -0.0161   -0.4743 C   0  0  2  0  0  0  0  0  0  0  0  0
    0.5743    1.4120   -0.4603 C   0  0  0  0  0  0  0  0  0  0  0  0
   -0.6272    1.7073    0.2564 N   0  0  0  0  0  0  0  0  0  0  0  0
   -1.5440    0.7429    0.7458 C   0  0  0  0  0  0  0  0  0  0  0  0
   -2.6335    1.0778    1.2313 O   0  0  0  0  0  0  0  0  0  0  0  0
   -1.1728   -0.6761    0.6652 C   0  0  1  0  0  0  0  0  0  0  0  0
   -2.3498   -1.3852    0.3311 O   0  0  0  0  0  0  0  0  0  0  0  0
   -0.1541   -0.9916   -0.3629 C   0  0  1  0  0  0  0  0  0  0  0  0
   -0.7950   -1.1049   -1.6091 O   0  0  0  0  0  0  0  0  0  0  0  0
    2.3864    0.7298    1.0034 H   0  0  0  0  0  0  0  0  0  0  0  0
    2.9522   -0.7173    0.1458 H   0  0  0  0  0  0  0  0  0  0  0  0
    1.7089   -0.8834    1.4002 H   0  0  0  0  0  0  0  0  0  0  0  0
    1.4645   -0.2118   -1.4710 H   0  0  0  0  0  0  0  0  0  0  0  0
    0.4777    1.8607   -1.4831 H   0  0  0  0  0  0  0  0  0  0  0  0
    1.3958    2.0150    0.0250 H   0  0  0  0  0  0  0  0  0  0  0  0
   -0.8532    2.7104    0.4369 H   0  0  0  0  0  0  0  0  0  0  0  0
   -0.8644   -1.0336    1.6642 H   0  0  0  0  0  0  0  0  0  0  0  0
   -2.6513   -0.9988   -0.5257 H   0  0  0  0  0  0  0  0  0  0  0  0
    0.3004   -1.9923   -0.1024 H   0  0  0  0  0  0  0  0  0  0  0  0
   -0.6313   -1.9931   -1.9827 H   0  0  0  0  0  0  0  0  0  0  0  0
  1  2  1  0
  2  3  1  0
  3  4  1  0
  4  5  1  0
  5  6  2  0
  5  7  1  0
  7  8  1  0
  7  9  1  0
  9 10  1  0
  9  2  1  0
  1 11  1  0
  1 12  1  0
  1 13  1  0
  2 14  1  6
  3 15  1  0
  3 16  1  0
  4 17  1  0
  7 18  1  1
  8 19  1  0
  9 20  1  1
 10 21  1  0
M  END
$$$$

     RDKit          3D

 21 21  0  0  0  0  0  0  0  0999 V2000
   -2.0399   -1.0433    0.1346 C   0  0  0  0  0  0  0  0  0  0  0  0
   -0.7879   -0.2206    0.4142 C   0  0  2  0  0  0  0  0  0  0  0  0
   -1.0619    1.1954    0.0587 C   0  0  0  0  0  0  0  0  0  0  0  0
    0.0712    1.9097   -0.4435 N   0  0  0  0  0  0  0  0  0  0  0  0
    1.3318    1.3296   -0.7347 C   0  0  0  0  0  0  0  0  0  0  0  0
    2.1653    1.8959   -1.4832 O   0  0  0  0  0  0  0  0  0  0  0  0
    1.6166    0.0024   -0.1003 C   0  0  1  0  0  0  0  0  0  0  0  0
    1.9428    0.1605    1.2553 O   0  0  0  0  0  0  0  0  0  0  0  0
    0.3716   -0.8348   -0.2865 C   0  0  1  0  0  0  0  0  0  0  0  0
    0.6359   -2.0720    0.3458 O   0  0  0  0  0  0  0  0  0  0  0  0
   -2.2475   -1.1498   -0.9346 H   0  0  0  0  0  0  0  0  0  0  0  0
   -1.9321   -2.0071    0.6606 H   0  0  0  0  0  0  0  0  0  0  0  0
   -2.8836   -0.5066    0.6418 H   0  0  0  0  0  0  0  0  0  0  0  0
   -0.6090   -0.3386    1.5234 H   0  0  0  0  0  0  0  0  0  0  0  0
   -1.4156    1.7528    0.9741 H   0  0  0  0  0  0  0  0  0  0  0  0
   -1.8902    1.3205   -0.6774 H   0  0  0  0  0  0  0  0  0  0  0  0
   -0.0385    2.9362   -0.6081 H   0  0  0  0  0  0  0  0  0  0  0  0
    2.4668   -0.4622   -0.6519 H   0  0  0  0  0  0  0  0  0  0  0  0
    2.7572   -0.3573    1.4825 H   0  0  0  0  0  0  0  0  0  0  0  0
    0.2344   -0.9977   -1.3579 H   0  0  0  0  0  0  0  0  0  0  0  0
    1.3125   -2.5127   -0.2129 H   0  0  0  0  0  0  0  0  0  0  0  0
  1  2  1  0
  2  3  1  0
  3  4  1  0
  4  5  1  0
  5  6  2  0
  5  7  1  0
  7  8  1  0
  7  9  1  0
  9 10  1  0
  9  2  1  0
  1 11  1  0
  1 12  1  0
  1 13  1  0
  2 14  1  1
  3 15  1  0
  3 16  1  0
  4 17  1  0
  7 18  1  6
  8 19  1  0
  9 20  1  6
 10 21  1  0
M  END
$$$$

     RDKit          3D

 21 21  0  0  0  0  0  0  0  0999 V2000
   -2.2635   -0.4006   -0.1014 C   0  0  0  0  0  0  0  0  0  0  0  0
   -0.9042    0.1945    0.2240 C   0  0  2  0  0  0  0  0  0  0  0  0
   -0.5181    1.1341   -0.9116 C   0  0  0  0  0  0  0  0  0  0  0  0
    0.7337    1.7503   -0.5183 N   0  0  0  0  0  0  0  0  0  0  0  0
    1.7301    0.8614   -0.0260 C   0  0  0  0  0  0  0  0  0  0  0  0
    2.7780    1.3240    0.4969 O   0  0  0  0  0  0  0  0  0  0  0  0
    1.4566   -0.5926   -0.1675 C   0  0  1  0  0  0  0  0  0  0  0  0
    2.4160   -1.3186    0.5752 O   0  0  0  0  0  0  0  0  0  0  0  0
    0.1091   -0.8787    0.4130 C   0  0  1  0  0  0  0  0  0  0  0  0
    0.2928   -1.1118    1.7936 O   0  0  0  0  0  0  0  0  0  0  0  0
   -2.5391   -0.2004   -1.1459 H   0  0  0  0  0  0  0  0  0  0  0  0
   -2.2080   -1.5095    0.0673 H   0  0  0  0  0  0  0  0  0  0  0  0
   -3.0494    0.0031    0.5678 H   0  0  0  0  0  0  0  0  0  0  0  0
   -0.9674    0.8510    1.1415 H   0  0  0  0  0  0  0  0  0  0  0  0
   -1.3057    1.8490   -1.1352 H   0  0  0  0  0  0  0  0  0  0  0  0
   -0.3632    0.4872   -1.7995 H   0  0  0  0  0  0  0  0  0  0  0  0
    0.8602    2.7796   -0.6040 H   0  0  0  0  0  0  0  0  0  0  0  0
    1.5188   -0.8809   -1.2413 H   0  0  0  0  0  0  0  0  0  0  0  0
    2.6327   -2.1350    0.0282 H   0  0  0  0  0  0  0  0  0  0  0  0
   -0.3037   -1.8357    0.0113 H   0  0  0  0  0  0  0  0  0  0  0  0
   -0.1055   -0.3705    2.3320 H   0  0  0  0  0  0  0  0  0  0  0  0
  1  2  1  0
  2  3  1  0
  3  4  1  0
  4  5  1  0
  5  6  2  0
  5  7  1  0
  7  8  1  0
  7  9  1  0
  9 10  1  0
  9  2  1  0
  1 11  1  0
  1 12  1  0
  1 13  1  0
  2 14  1  1
  3 15  1  0
  3 16  1  0
  4 17  1  0
  7 18  1  6
  8 19  1  0
  9 20  1  6
 10 21  1  0
M  END
$$$$

     RDKit          3D

 21 21  0  0  0  0  0  0  0  0999 V2000
   -2.1035   -0.8475   -0.0778 C   0  0  0  0  0  0  0  0  0  0  0  0
   -0.8198   -0.1743    0.3548 C   0  0  2  0  0  0  0  0  0  0  0  0
   -0.8791    1.2874    0.0223 C   0  0  0  0  0  0  0  0  0  0  0  0
    0.3660    1.8063   -0.4996 N   0  0  0  0  0  0  0  0  0  0  0  0
    1.5978    1.1873   -0.1579 C   0  0  0  0  0  0  0  0  0  0  0  0
    2.6368    1.8827   -0.2031 O   0  0  0  0  0  0  0  0  0  0  0  0
    1.6090   -0.2487    0.2369 C   0  0  1  0  0  0  0  0  0  0  0  0
    1.5665   -0.3703    1.6261 O   0  0  0  0  0  0  0  0  0  0  0  0
    0.3299   -0.8511   -0.3619 C   0  0  1  0  0  0  0  0  0  0  0  0
    0.2870   -2.2157   -0.2310 O   0  0  0  0  0  0  0  0  0  0  0  0
   -2.0121   -1.9425    0.0805 H   0  0  0  0  0  0  0  0  0  0  0  0
   -2.9484   -0.4729    0.5375 H   0  0  0  0  0  0  0  0  0  0  0  0
   -2.2985   -0.5846   -1.1358 H   0  0  0  0  0  0  0  0  0  0  0  0
   -0.6851   -0.3643    1.4445 H   0  0  0  0  0  0  0  0  0  0  0  0
   -1.1774    1.8802    0.9355 H   0  0  0  0  0  0  0  0  0  0  0  0
   -1.7149    1.4615   -0.7054 H   0  0  0  0  0  0  0  0  0  0  0  0
    0.3361    2.6545   -1.1394 H   0  0  0  0  0  0  0  0  0  0  0  0
    2.4885   -0.7304   -0.1987 H   0  0  0  0  0  0  0  0  0  0  0  0
    2.4943   -0.1956    1.9522 H   0  0  0  0  0  0  0  0  0  0  0  0
    0.2744   -0.5248   -1.4267 H   0  0  0  0  0  0  0  0  0  0  0  0
    0.6526   -2.6371   -1.0530 H   0  0  0  0  0  0  0  0  0  0  0  0
  1  2  1  0
  2  3  1  0
  3  4  1  0
  4  5  1  0
  5  6  2  0
  5  7  1  0
  7  8  1  0
  7  9  1  0
  9 10  1  0
  9  2  1  0
  1 11  1  0
  1 12  1  0
  1 13  1  0
  2 14  1  1
  3 15  1  0
  3 16  1  0
  4 17  1  0
  7 18  1  6
  8 19  1  0
  9 20  1  6
 10 21  1  0
M  END
$$$$

     RDKit          3D

 21 21  0  0  0  0  0  0  0  0999 V2000
   -1.9184    0.1077    0.6583 C   0  0  0  0  0  0  0  0  0  0  0  0
   -0.8975    0.5717   -0.3767 C   0  0  2  0  0  0  0  0  0  0  0  0
   -0.7019   -0.4100   -1.4663 C   0  0  0  0  0  0  0  0  0  0  0  0
    0.4296   -1.2706   -1.3204 N   0  0  0  0  0  0  0  0  0  0  0  0
    1.4744   -1.0063   -0.3695 C   0  0  0  0  0  0  0  0  0  0  0  0
    2.6236   -1.3994   -0.5929 O   0  0  0  0  0  0  0  0  0  0  0  0
    1.0575   -0.2517    0.8475 C   0  0  1  0  0  0  0  0  0  0  0  0
    2.0867    0.0147    1.7060 O   0  0  0  0  0  0  0  0  0  0  0  0
    0.3325    0.9794    0.3549 C   0  0  1  0  0  0  0  0  0  0  0  0
    1.1385    1.8093   -0.3995 O   0  0  0  0  0  0  0  0  0  0  0  0
   -1.6958   -0.9691    0.8654 H   0  0  0  0  0  0  0  0  0  0  0  0
   -1.8042    0.7158    1.5736 H   0  0  0  0  0  0  0  0  0  0  0  0
   -2.9280    0.2459    0.2360 H   0  0  0  0  0  0  0  0  0  0  0  0
   -1.3440    1.5039   -0.8311 H   0  0  0  0  0  0  0  0  0  0  0  0
   -1.6146   -1.0739   -1.4960 H   0  0  0  0  0  0  0  0  0  0  0  0
   -0.6315    0.0526   -2.4884 H   0  0  0  0  0  0  0  0  0  0  0  0
    0.4754   -2.1187   -1.9414 H   0  0  0  0  0  0  0  0  0  0  0  0
    0.2963   -0.8546    1.4093 H   0  0  0  0  0  0  0  0  0  0  0  0
    2.2433   -0.8234    2.2464 H   0  0  0  0  0  0  0  0  0  0  0  0
    0.0037    1.5363    1.2783 H   0  0  0  0  0  0  0  0  0  0  0  0
    1.3743    2.6405    0.1065 H   0  0  0  0  0  0  0  0  0  0  0  0
  1  2  1  0
  2  3  1  0
  3  4  1  0
  4  5  1  0
  5  6  2  0
  5  7  1  0
  7  8  1  0
  7  9  1  0
  9 10  1  0
  9  2  1  0
  1 11  1  0
  1 12  1  0
  1 13  1  0
  2 14  1  6
  3 15  1  0
  3 16  1  0
  4 17  1  0
  7 18  1  1
  8 19  1  0
  9 20  1  1
 10 21  1  0
M  END
$$$$

     RDKit          3D

 21 21  0  0  0  0  0  0  0  0999 V2000
   -1.9914   -0.9803    0.2343 C   0  0  0  0  0  0  0  0  0  0  0  0
   -0.7883   -0.1086    0.2273 C   0  0  2  0  0  0  0  0  0  0  0  0
   -0.9991    1.1750   -0.5724 C   0  0  0  0  0  0  0  0  0  0  0  0
    0.3179    1.7709   -0.8158 N   0  0  0  0  0  0  0  0  0  0  0  0
    1.4699    1.3869   -0.0732 C   0  0  0  0  0  0  0  0  0  0  0  0
    2.3237    2.2695    0.1589 O   0  0  0  0  0  0  0  0  0  0  0  0
    1.6259   -0.0336    0.4005 C   0  0  1  0  0  0  0  0  0  0  0  0
    1.3676   -0.1233    1.7742 O   0  0  0  0  0  0  0  0  0  0  0  0
    0.4560   -0.7555   -0.2828 C   0  0  1  0  0  0  0  0  0  0  0  0
    0.5161   -2.1088   -0.1228 O   0  0  0  0  0  0  0  0  0  0  0  0
   -1.9915   -1.5507    1.2074 H   0  0  0  0  0  0  0  0  0  0  0  0
   -2.0076   -1.6830   -0.6295 H   0  0  0  0  0  0  0  0  0  0  0  0
   -2.8916   -0.3339    0.2805 H   0  0  0  0  0  0  0  0  0  0  0  0
   -0.6117    0.2347    1.2869 H   0  0  0  0  0  0  0  0  0  0  0  0
   -1.5057    0.9141   -1.5044 H   0  0  0  0  0  0  0  0  0  0  0  0
   -1.6295    1.8492    0.0458 H   0  0  0  0  0  0  0  0  0  0  0  0
    0.3835    2.4985   -1.5644 H   0  0  0  0  0  0  0  0  0  0  0  0
    2.5888   -0.4577    0.1252 H   0  0  0  0  0  0  0  0  0  0  0  0
    1.7136   -1.0003    2.0679 H   0  0  0  0  0  0  0  0  0  0  0  0
    0.5640   -0.4901   -1.3743 H   0  0  0  0  0  0  0  0  0  0  0  0
    1.0894   -2.4728   -0.8694 H   0  0  0  0  0  0  0  0  0  0  0  0
  1  2  1  0
  2  3  1  0
  3  4  1  0
  4  5  1  0
  5  6  2  0
  5  7  1  0
  7  8  1  0
  7  9  1  0
  9 10  1  0
  9  2  1  0
  1 11  1  0
  1 12  1  0
  1 13  1  0
  2 14  1  1
  3 15  1  0
  3 16  1  0
  4 17  1  0
  7 18  1  1
  8 19  1  0
  9 20  1  6
 10 21  1  0
M  END
$$$$
