
     RDKit          3D

 27 27  0  0  0  0  0  0  0  0999 V2000
    4.0844    0.5197    0.6528 O   0  0  0  0  0  0  0  0  0  0  0  0
    2.8892    0.5287   -0.0486 C   0  0  0  0  0  0  0  0  0  0  0  0
    1.9249   -0.3657    0.7387 C   0  0  0  0  0  0  0  0  0  0  0  0
    0.6212   -0.3582   -0.0229 C   0  0  2  0  0  0  0  0  0  0  0  0
    0.1965    0.9894   -0.0644 O   0  0  0  0  0  0  0  0  0  0  0  0
   -0.7910    1.0342   -1.0375 C   0  0  2  0  0  0  0  0  0  0  0  0
   -1.0262    2.3939   -1.3108 O   0  0  0  0  0  0  0  0  0  0  0  0
   -2.0250    0.3994   -0.4966 C   0  0  2  0  0  0  0  0  0  0  0  0
   -2.8598    1.4325   -0.0106 O   0  0  0  0  0  0  0  0  0  0  0  0
   -1.8125   -0.6480    0.5248 C   0  0  2  0  0  0  0  0  0  0  0  0
   -2.2671   -0.1410    1.7642 O   0  0  0  0  0  0  0  0  0  0  0  0
   -0.4407   -1.1893    0.6391 C   0  0  1  0  0  0  0  0  0  0  0  0
   -0.3153   -2.5129    0.1921 O   0  0  0  0  0  0  0  0  0  0  0  0
    4.7792    0.0440    0.1651 H   0  0  0  0  0  0  0  0  0  0  0  0
    2.4736    1.5301   -0.1643 H   0  0  0  0  0  0  0  0  0  0  0  0
    3.0759    0.1228   -1.0563 H   0  0  0  0  0  0  0  0  0  0  0  0
    2.3124   -1.3777    0.8330 H   0  0  0  0  0  0  0  0  0  0  0  0
    1.7514    0.1071    1.7199 H   0  0  0  0  0  0  0  0  0  0  0  0
    0.8122   -0.6939   -1.0411 H   0  0  0  0  0  0  0  0  0  0  0  0
   -0.4501    0.5517   -1.9751 H   0  0  0  0  0  0  0  0  0  0  0  0
   -0.9257    2.6106   -2.2552 H   0  0  0  0  0  0  0  0  0  0  0  0
   -2.5948   -0.0177   -1.3778 H   0  0  0  0  0  0  0  0  0  0  0  0
   -3.7888    1.3191   -0.2838 H   0  0  0  0  0  0  0  0  0  0  0  0
   -2.5074   -1.5128    0.3116 H   0  0  0  0  0  0  0  0  0  0  0  0
   -2.0791   -0.8365    2.4644 H   0  0  0  0  0  0  0  0  0  0  0  0
   -0.1683   -1.2319    1.7348 H   0  0  0  0  0  0  0  0  0  0  0  0
   -0.8690   -2.6977   -0.5955 H   0  0  0  0  0  0  0  0  0  0  0  0
  1  2  1  0
  2  3  1  0
  3  4  1  0
  4  5  1  0
  5  6  1  0
  6  7  1  0
  6  8  1  0
  8  9  1  0
  8 10  1  0
 10 11  1  0
 10 12  1  0
 12 13  1  0
 12  4  1  0
  1 14  1  0
  2 15  1  0
  2 16  1  0
  3 17  1  0
  3 18  1  0
  4 19  1  6
  6 20  1  6
  7 21  1  0
  8 22  1  6
  9 23  1  0
 10 24  1  6
 11 25  1  0
 12 26  1  1
 13 27  1  0
M  END
$$$$

     RDKit          3D

 27 27  0  0  0  0  0  0  0  0999 V2000
    2.7493    0.7534    1.1319 O   0  0  0  0  0  0  0  0  0  0  0  0
    2.7176   -0.4789    0.4863 C   0  0  0  0  0  0  0  0  0  0  0  0
    1.9942   -0.4333   -0.8205 C   0  0  0  0  0  0  0  0  0  0  0  0
    0.5628   -0.0115   -0.7081 C   0  0  2  0  0  0  0  0  0  0  0  0
    0.3634    1.2311   -0.1779 O   0  0  0  0  0  0  0  0  0  0  0  0
   -0.8760    1.6921   -0.5110 C   0  0  2  0  0  0  0  0  0  0  0  0
   -1.1257    2.8364    0.2827 O   0  0  0  0  0  0  0  0  0  0  0  0
   -2.0069    0.7640   -0.3529 C   0  0  2  0  0  0  0  0  0  0  0  0
   -2.8119    1.1292    0.7519 O   0  0  0  0  0  0  0  0  0  0  0  0
   -1.7003   -0.6760   -0.2283 C   0  0  2  0  0  0  0  0  0  0  0  0
   -2.4945   -1.3281    0.7315 O   0  0  0  0  0  0  0  0  0  0  0  0
   -0.2600   -0.9791    0.1169 C   0  0  1  0  0  0  0  0  0  0  0  0
    0.0866   -2.2738   -0.1922 O   0  0  0  0  0  0  0  0  0  0  0  0
    3.5170    0.7130    1.7691 H   0  0  0  0  0  0  0  0  0  0  0  0
    2.3754   -1.2947    1.1494 H   0  0  0  0  0  0  0  0  0  0  0  0
    3.7913   -0.7228    0.2510 H   0  0  0  0  0  0  0  0  0  0  0  0
    2.5450    0.2139   -1.5299 H   0  0  0  0  0  0  0  0  0  0  0  0
    2.0133   -1.4548   -1.2516 H   0  0  0  0  0  0  0  0  0  0  0  0
    0.1446   -0.0076   -1.7499 H   0  0  0  0  0  0  0  0  0  0  0  0
   -0.8140    2.0974   -1.5628 H   0  0  0  0  0  0  0  0  0  0  0  0
   -0.3873    3.4731    0.2360 H   0  0  0  0  0  0  0  0  0  0  0  0
   -2.6944    0.8927   -1.2408 H   0  0  0  0  0  0  0  0  0  0  0  0
   -2.6215    0.5591    1.5292 H   0  0  0  0  0  0  0  0  0  0  0  0
   -1.9011   -1.2191   -1.1983 H   0  0  0  0  0  0  0  0  0  0  0  0
   -3.1971   -1.8832    0.3116 H   0  0  0  0  0  0  0  0  0  0  0  0
   -0.1420   -0.7984    1.2049 H   0  0  0  0  0  0  0  0  0  0  0  0
    0.1720   -2.7939    0.6360 H   0  0  0  0  0  0  0  0  0  0  0  0
  1  2  1  0
  2  3  1  0
  3  4  1  0
  4  5  1  0
  5  6  1  0
  6  7  1  0
  6  8  1  0
  8  9  1  0
  8 10  1  0
 10 11  1  0
 10 12  1  0
 12 13  1  0
 12  4  1  0
  1 14  1  0
  2 15  1  0
  2 16  1  0
  3 17  1  0
  3 18  1  0
  4 19  1  6
  6 20  1  6
  7 21  1  0
  8 22  1  6
  9 23  1  0
 10 24  1  6
 11 25  1  0
 12 26  1  1
 13 27  1  0
M  END
$$$$

     RDKit          3D

 27 27  0  0  0  0  0  0  0  0999 V2000
    2.9088   -0.4681    1.0122 O   0  0  0  0  0  0  0  0  0  0  0  0
    2.9721   -0.0128   -0.2861 C   0  0  0  0  0  0  0  0  0  0  0  0
    1.8055    0.8043   -0.7354 C   0  0  0  0  0  0  0  0  0  0  0  0
    0.4931    0.0608   -0.6845 C   0  0  2  0  0  0  0  0  0  0  0  0
   -0.4682    0.9560   -1.1365 O   0  0  0  0  0  0  0  0  0  0  0  0
   -1.6924    0.3097   -1.1742 C   0  0  2  0  0  0  0  0  0  0  0  0
   -2.5504    1.0345   -1.9590 O   0  0  0  0  0  0  0  0  0  0  0  0
   -2.1460    0.2689    0.2926 C   0  0  2  0  0  0  0  0  0  0  0  0
   -2.0621    1.5574    0.8404 O   0  0  0  0  0  0  0  0  0  0  0  0
   -1.2483   -0.7084    0.9679 C   0  0  2  0  0  0  0  0  0  0  0  0
   -1.4319   -0.5586    2.3612 O   0  0  0  0  0  0  0  0  0  0  0  0
    0.1995   -0.5950    0.5930 C   0  0  1  0  0  0  0  0  0  0  0  0
    0.7563   -1.8948    0.6514 O   0  0  0  0  0  0  0  0  0  0  0  0
    3.3072    0.2008    1.6282 H   0  0  0  0  0  0  0  0  0  0  0  0
    3.8812    0.6419   -0.3550 H   0  0  0  0  0  0  0  0  0  0  0  0
    3.1348   -0.8750   -0.9753 H   0  0  0  0  0  0  0  0  0  0  0  0
    1.6558    1.7060   -0.0734 H   0  0  0  0  0  0  0  0  0  0  0  0
    1.9570    1.2365   -1.7539 H   0  0  0  0  0  0  0  0  0  0  0  0
    0.5634   -0.7314   -1.4877 H   0  0  0  0  0  0  0  0  0  0  0  0
   -1.5812   -0.7481   -1.4951 H   0  0  0  0  0  0  0  0  0  0  0  0
   -3.4437    1.0811   -1.5642 H   0  0  0  0  0  0  0  0  0  0  0  0
   -3.1997   -0.0337    0.3660 H   0  0  0  0  0  0  0  0  0  0  0  0
   -2.5711    2.1431    0.1939 H   0  0  0  0  0  0  0  0  0  0  0  0
   -1.6244   -1.7283    0.7371 H   0  0  0  0  0  0  0  0  0  0  0  0
   -0.8891   -1.2355    2.8049 H   0  0  0  0  0  0  0  0  0  0  0  0
    0.6820   -0.0386    1.4225 H   0  0  0  0  0  0  0  0  0  0  0  0
    0.5915   -2.3725   -0.1912 H   0  0  0  0  0  0  0  0  0  0  0  0
  1  2  1  0
  2  3  1  0
  3  4  1  0
  4  5  1  0
  5  6  1  0
  6  7  1  0
  6  8  1  0
  8  9  1  0
  8 10  1  0
 10 11  1  0
 10 12  1  0
 12 13  1  0
 12  4  1  0
  1 14  1  0
  2 15  1  0
  2 16  1  0
  3 17  1  0
  3 18  1  0
  4 19  1  6
  6 20  1  6
  7 21  1  0
  8 22  1  6
  9 23  1  0
 10 24  1  6
 11 25  1  0
 12 26  1  1
 13 27  1  0
M  END
$$$$

     RDKit          3D

 27 27  0  0  0  0  0  0  0  0999 V2000
    4.1471   -0.3327   -0.7956 O   0  0  0  0  0  0  0  0  0  0  0  0
    2.8835   -0.6632   -0.3501 C   0  0  0  0  0  0  0  0  0  0  0  0
    1.9434    0.4631   -0.7278 C   0  0  0  0  0  0  0  0  0  0  0  0
    0.5731    0.0907   -0.2374 C   0  0  2  0  0  0  0  0  0  0  0  0
    0.1166   -1.0818   -0.7955 O   0  0  0  0  0  0  0  0  0  0  0  0
   -1.0160   -1.5317   -0.1516 C   0  0  2  0  0  0  0  0  0  0  0  0
   -1.3871   -2.7375   -0.7652 O   0  0  0  0  0  0  0  0  0  0  0  0
   -2.1317   -0.5397   -0.3447 C   0  0  2  0  0  0  0  0  0  0  0  0
   -2.3311   -0.3251   -1.7134 O   0  0  0  0  0  0  0  0  0  0  0  0
   -1.7006    0.7626    0.3072 C   0  0  2  0  0  0  0  0  0  0  0  0
   -2.6771    1.7255    0.2933 O   0  0  0  0  0  0  0  0  0  0  0  0
   -0.4378    1.2029   -0.4445 C   0  0  1  0  0  0  0  0  0  0  0  0
    0.0369    2.4138    0.0065 O   0  0  0  0  0  0  0  0  0  0  0  0
    4.3044    0.6189   -0.5190 H   0  0  0  0  0  0  0  0  0  0  0  0
    2.8922   -0.6911    0.7722 H   0  0  0  0  0  0  0  0  0  0  0  0
    2.5056   -1.6098   -0.7507 H   0  0  0  0  0  0  0  0  0  0  0  0
    1.9226    0.5810   -1.8263 H   0  0  0  0  0  0  0  0  0  0  0  0
    2.2758    1.3889   -0.2288 H   0  0  0  0  0  0  0  0  0  0  0  0
    0.6162   -0.0732    0.8796 H   0  0  0  0  0  0  0  0  0  0  0  0
   -0.8129   -1.6851    0.9200 H   0  0  0  0  0  0  0  0  0  0  0  0
   -0.8161   -3.4339   -0.3532 H   0  0  0  0  0  0  0  0  0  0  0  0
   -3.0510   -0.9305    0.1253 H   0  0  0  0  0  0  0  0  0  0  0  0
   -3.2787   -0.3489   -1.9349 H   0  0  0  0  0  0  0  0  0  0  0  0
   -1.3587    0.4849    1.3393 H   0  0  0  0  0  0  0  0  0  0  0  0
   -2.4229    2.4349    0.9197 H   0  0  0  0  0  0  0  0  0  0  0  0
   -0.6722    1.2311   -1.5277 H   0  0  0  0  0  0  0  0  0  0  0  0
   -0.1233    2.5859    0.9551 H   0  0  0  0  0  0  0  0  0  0  0  0
  1  2  1  0
  2  3  1  0
  3  4  1  0
  4  5  1  0
  5  6  1  0
  6  7  1  0
  6  8  1  0
  8  9  1  0
  8 10  1  0
 10 11  1  0
 10 12  1  0
 12 13  1  0
 12  4  1  0
  1 14  1  0
  2 15  1  0
  2 16  1  0
  3 17  1  0
  3 18  1  0
  4 19  1  1
  6 20  1  1
  7 21  1  0
  8 22  1  1
  9 23  1  0
 10 24  1  1
 11 25  1  0
 12 26  1  6
 13 27  1  0
M  END
$$$$

     RDKit          3D

 27 27  0  0  0  0  0  0  0  0999 V2000
   -2.9225   -0.0451    1.2442 O   0  0  0  0  0  0  0  0  0  0  0  0
   -2.9940   -0.0859   -0.1530 C   0  0  0  0  0  0  0  0  0  0  0  0
   -1.9350    0.8438   -0.6762 C   0  0  0  0  0  0  0  0  0  0  0  0
   -0.5872    0.4055   -0.1825 C   0  0  2  0  0  0  0  0  0  0  0  0
    0.4216    1.2651   -0.6615 O   0  0  0  0  0  0  0  0  0  0  0  0
    1.3910    1.3032    0.3471 C   0  0  2  0  0  0  0  0  0  0  0  0
    2.4373    2.1330   -0.0201 O   0  0  0  0  0  0  0  0  0  0  0  0
    1.8579   -0.0938    0.6790 C   0  0  2  0  0  0  0  0  0  0  0  0
    3.2416   -0.1168    0.5648 O   0  0  0  0  0  0  0  0  0  0  0  0
    1.3038   -1.1141   -0.2800 C   0  0  2  0  0  0  0  0  0  0  0  0
    2.0440   -1.1110   -1.4809 O   0  0  0  0  0  0  0  0  0  0  0  0
   -0.1758   -0.9801   -0.5416 C   0  0  1  0  0  0  0  0  0  0  0  0
   -0.8911   -1.9691    0.1448 O   0  0  0  0  0  0  0  0  0  0  0  0
   -3.8258   -0.0880    1.6616 H   0  0  0  0  0  0  0  0  0  0  0  0
   -2.8500   -1.0972   -0.5632 H   0  0  0  0  0  0  0  0  0  0  0  0
   -4.0180    0.2811   -0.4403 H   0  0  0  0  0  0  0  0  0  0  0  0
   -2.1294    1.8418   -0.2131 H   0  0  0  0  0  0  0  0  0  0  0  0
   -1.9695    0.9760   -1.7772 H   0  0  0  0  0  0  0  0  0  0  0  0
   -0.5950    0.5084    0.9375 H   0  0  0  0  0  0  0  0  0  0  0  0
    0.8972    1.7425    1.2296 H   0  0  0  0  0  0  0  0  0  0  0  0
    2.6291    2.8457    0.6472 H   0  0  0  0  0  0  0  0  0  0  0  0
    1.5971   -0.3511    1.7189 H   0  0  0  0  0  0  0  0  0  0  0  0
    3.6443    0.7464    0.8588 H   0  0  0  0  0  0  0  0  0  0  0  0
    1.4604   -2.1248    0.1521 H   0  0  0  0  0  0  0  0  0  0  0  0
    2.8569   -1.6995   -1.3844 H   0  0  0  0  0  0  0  0  0  0  0  0
   -0.3132   -1.1768   -1.6377 H   0  0  0  0  0  0  0  0  0  0  0  0
   -0.5755   -2.8388   -0.1740 H   0  0  0  0  0  0  0  0  0  0  0  0
  1  2  1  0
  2  3  1  0
  3  4  1  0
  4  5  1  0
  5  6  1  0
  6  7  1  0
  6  8  1  0
  8  9  1  0
  8 10  1  0
 10 11  1  0
 10 12  1  0
 12 13  1  0
 12  4  1  0
  1 14  1  0
  2 15  1  0
  2 16  1  0
  3 17  1  0
  3 18  1  0
  4 19  1  1
  6 20  1  1
  7 21  1  0
  8 22  1  1
  9 23  1  0
 10 24  1  1
 11 25  1  0
 12 26  1  6
 13 27  1  0
M  END
$$$$

     RDKit          3D

 27 27  0  0  0  0  0  0  0  0999 V2000
    2.8277   -1.0534   -1.2164 O   0  0  0  0  0  0  0  0  0  0  0  0
    3.1368   -0.0296   -0.3198 C   0  0  0  0  0  0  0  0  0  0  0  0
    1.9105    0.8180   -0.0846 C   0  0  0  0  0  0  0  0  0  0  0  0
    0.7701   -0.0308    0.5013 C   0  0  2  0  0  0  0  0  0  0  0  0
    0.5008   -0.9931   -0.3875 O   0  0  0  0  0  0  0  0  0  0  0  0
   -0.7379   -1.3113   -0.7416 C   0  0  2  0  0  0  0  0  0  0  0  0
   -1.0349   -0.7439   -2.0023 O   0  0  0  0  0  0  0  0  0  0  0  0
   -1.8460   -0.9311    0.1893 C   0  0  2  0  0  0  0  0  0  0  0  0
   -3.0463   -1.0132   -0.5548 O   0  0  0  0  0  0  0  0  0  0  0  0
   -1.6881    0.5058    0.5967 C   0  0  2  0  0  0  0  0  0  0  0  0
   -2.1513    1.2852   -0.4845 O   0  0  0  0  0  0  0  0  0  0  0  0
   -0.2868    0.8753    0.9570 C   0  0  1  0  0  0  0  0  0  0  0  0
   -0.2550    1.0361    2.3637 O   0  0  0  0  0  0  0  0  0  0  0  0
    2.7226   -1.9177   -0.7461 H   0  0  0  0  0  0  0  0  0  0  0  0
    3.5109   -0.4261    0.6379 H   0  0  0  0  0  0  0  0  0  0  0  0
    3.8907    0.6003   -0.7954 H   0  0  0  0  0  0  0  0  0  0  0  0
    2.1906    1.6394    0.5958 H   0  0  0  0  0  0  0  0  0  0  0  0
    1.6143    1.2508   -1.0470 H   0  0  0  0  0  0  0  0  0  0  0  0
    1.2394   -0.5252    1.4046 H   0  0  0  0  0  0  0  0  0  0  0  0
   -0.8109   -2.4164   -0.9028 H   0  0  0  0  0  0  0  0  0  0  0  0
   -0.7290    0.2041   -2.0295 H   0  0  0  0  0  0  0  0  0  0  0  0
   -1.9463   -1.6279    1.0257 H   0  0  0  0  0  0  0  0  0  0  0  0
   -2.9864   -0.3479   -1.3038 H   0  0  0  0  0  0  0  0  0  0  0  0
   -2.4048    0.6949    1.4234 H   0  0  0  0  0  0  0  0  0  0  0  0
   -3.1078    1.4932   -0.4079 H   0  0  0  0  0  0  0  0  0  0  0  0
   -0.1357    1.9295    0.5738 H   0  0  0  0  0  0  0  0  0  0  0  0
   -1.1471    1.0350    2.7549 H   0  0  0  0  0  0  0  0  0  0  0  0
  1  2  1  0
  2  3  1  0
  3  4  1  0
  4  5  1  0
  5  6  1  0
  6  7  1  0
  6  8  1  0
  8  9  1  0
  8 10  1  0
 10 11  1  0
 10 12  1  0
 12 13  1  0
 12  4  1  0
  1 14  1  0
  2 15  1  0
  2 16  1  0
  3 17  1  0
  3 18  1  0
  4 19  1  1
  6 20  1  6
  7 21  1  0
  8 22  1  1
  9 23  1  0
 10 24  1  1
 11 25  1  0
 12 26  1  6
 13 27  1  0
M  END
$$$$

     RDKit          3D

 27 27  0  0  0  0  0  0  0  0999 V2000
    2.9074    0.8390    1.0466 O   0  0  0  0  0  0  0  0  0  0  0  0
    3.0495    0.0890   -0.1248 C   0  0  0  0  0  0  0  0  0  0  0  0
    1.8925   -0.8621   -0.2517 C   0  0  0  0  0  0  0  0  0  0  0  0
    0.5816   -0.1181   -0.3101 C   0  0  2  0  0  0  0  0  0  0  0  0
    0.3706    0.6441    0.8321 O   0  0  0  0  0  0  0  0  0  0  0  0
   -0.7395    1.4370    0.6827 C   0  0  2  0  0  0  0  0  0  0  0  0
   -0.8811    2.2052    1.8484 O   0  0  0  0  0  0  0  0  0  0  0  0
   -2.0108    0.7065    0.4307 C   0  0  2  0  0  0  0  0  0  0  0  0
   -2.6006    0.1851    1.5745 O   0  0  0  0  0  0  0  0  0  0  0  0
   -1.8178   -0.3147   -0.6501 C   0  0  2  0  0  0  0  0  0  0  0  0
   -2.9159   -1.1209   -0.8563 O   0  0  0  0  0  0  0  0  0  0  0  0
   -0.5538   -1.1348   -0.3612 C   0  0  1  0  0  0  0  0  0  0  0  0
   -0.3002   -2.0249   -1.3775 O   0  0  0  0  0  0  0  0  0  0  0  0
    3.7836    0.9475    1.4975 H   0  0  0  0  0  0  0  0  0  0  0  0
    3.9857   -0.5125   -0.0243 H   0  0  0  0  0  0  0  0  0  0  0  0
    3.1073    0.7522   -1.0162 H   0  0  0  0  0  0  0  0  0  0  0  0
    1.8945   -1.5547    0.6101 H   0  0  0  0  0  0  0  0  0  0  0  0
    2.0084   -1.4828   -1.1625 H   0  0  0  0  0  0  0  0  0  0  0  0
    0.5294    0.4705   -1.2442 H   0  0  0  0  0  0  0  0  0  0  0  0
   -0.5444    2.1127   -0.1991 H   0  0  0  0  0  0  0  0  0  0  0  0
   -0.2686    2.9762    1.7803 H   0  0  0  0  0  0  0  0  0  0  0  0
   -2.7497    1.4594    0.0262 H   0  0  0  0  0  0  0  0  0  0  0  0
   -2.3170   -0.7142    1.8019 H   0  0  0  0  0  0  0  0  0  0  0  0
   -1.5703    0.2623   -1.5899 H   0  0  0  0  0  0  0  0  0  0  0  0
   -3.0455   -1.2102   -1.8501 H   0  0  0  0  0  0  0  0  0  0  0  0
   -0.6451   -1.6460    0.6284 H   0  0  0  0  0  0  0  0  0  0  0  0
   -1.1500   -2.3909   -1.7415 H   0  0  0  0  0  0  0  0  0  0  0  0
  1  2  1  0
  2  3  1  0
  3  4  1  0
  4  5  1  0
  5  6  1  0
  6  7  1  0
  6  8  1  0
  8  9  1  0
  8 10  1  0
 10 11  1  0
 10 12  1  0
 12 13  1  0
 12  4  1  0
  1 14  1  0
  2 15  1  0
  2 16  1  0
  3 17  1  0
  3 18  1  0
  4 19  1  6
  6 20  1  6
  7 21  1  0
  8 22  1  6
  9 23  1  0
 10 24  1  6
 11 25  1  0
 12 26  1  1
 13 27  1  0
M  END
$$$$

     RDKit          3D

 27 27  0  0  0  0  0  0  0  0999 V2000
    2.5730   -0.9354    1.3030 O   0  0  0  0  0  0  0  0  0  0  0  0
    2.8616    0.2168    0.6177 C   0  0  0  0  0  0  0  0  0  0  0  0
    2.1435    0.3659   -0.6814 C   0  0  0  0  0  0  0  0  0  0  0  0
    0.6523    0.3793   -0.5642 C   0  0  2  0  0  0  0  0  0  0  0  0
    0.1453    1.3908    0.2110 O   0  0  0  0  0  0  0  0  0  0  0  0
   -1.2158    1.5096   -0.0962 C   0  0  2  0  0  0  0  0  0  0  0  0
   -1.7825    2.6500    0.4493 O   0  0  0  0  0  0  0  0  0  0  0  0
   -1.9891    0.2754    0.2903 C   0  0  2  0  0  0  0  0  0  0  0  0
   -2.0204    0.0761    1.6580 O   0  0  0  0  0  0  0  0  0  0  0  0
   -1.3903   -0.9156   -0.4241 C   0  0  2  0  0  0  0  0  0  0  0  0
   -2.0121   -2.1003   -0.1323 O   0  0  0  0  0  0  0  0  0  0  0  0
    0.0947   -0.9322   -0.0514 C   0  0  1  0  0  0  0  0  0  0  0  0
    0.7582   -2.0021   -0.5951 O   0  0  0  0  0  0  0  0  0  0  0  0
    2.7674   -0.7523    2.2739 H   0  0  0  0  0  0  0  0  0  0  0  0
    3.9534    0.3098    0.4068 H   0  0  0  0  0  0  0  0  0  0  0  0
    2.6176    1.0878    1.2719 H   0  0  0  0  0  0  0  0  0  0  0  0
    2.4189   -0.4493   -1.3813 H   0  0  0  0  0  0  0  0  0  0  0  0
    2.4560    1.3279   -1.1370 H   0  0  0  0  0  0  0  0  0  0  0  0
    0.2411    0.5081   -1.5931 H   0  0  0  0  0  0  0  0  0  0  0  0
   -1.2585    1.5707   -1.2180 H   0  0  0  0  0  0  0  0  0  0  0  0
   -2.3406    3.0950   -0.2411 H   0  0  0  0  0  0  0  0  0  0  0  0
   -3.0236    0.4129   -0.0943 H   0  0  0  0  0  0  0  0  0  0  0  0
   -2.8497   -0.4211    1.8851 H   0  0  0  0  0  0  0  0  0  0  0  0
   -1.4110   -0.6998   -1.5227 H   0  0  0  0  0  0  0  0  0  0  0  0
   -2.6738   -2.2730   -0.8752 H   0  0  0  0  0  0  0  0  0  0  0  0
    0.1131   -0.9550    1.0728 H   0  0  0  0  0  0  0  0  0  0  0  0
    0.1713   -2.7401   -0.8325 H   0  0  0  0  0  0  0  0  0  0  0  0
  1  2  1  0
  2  3  1  0
  3  4  1  0
  4  5  1  0
  5  6  1  0
  6  7  1  0
  6  8  1  0
  8  9  1  0
  8 10  1  0
 10 11  1  0
 10 12  1  0
 12 13  1  0
 12  4  1  0
  1 14  1  0
  2 15  1  0
  2 16  1  0
  3 17  1  0
  3 18  1  0
  4 19  1  6
  6 20  1  6
  7 21  1  0
  8 22  1  6
  9 23  1  0
 10 24  1  6
 11 25  1  0
 12 26  1  1
 13 27  1  0
M  END
$$$$
