
     RDKit          3D

 28 28  0  0  0  0  0  0  0  0999 V2000
    3.1434   -1.5572    0.3148 C   0  0  0  0  0  0  0  0  0  0  0  0
    1.9226   -0.9217    0.0839 O   0  0  0  0  0  0  0  0  0  0  0  0
    1.8382    0.3245   -0.5048 C   0  0  0  0  0  0  0  0  0  0  0  0
    2.9011    0.8927   -0.8384 O   0  0  0  0  0  0  0  0  0  0  0  0
    0.4849    0.9344   -0.7167 C   0  0  2  0  0  0  0  0  0  0  0  0
    0.5788    2.3360   -0.1888 C   0  0  0  0  0  0  0  0  0  0  0  0
   -0.5948    3.0247   -0.4880 O   0  0  0  0  0  0  0  0  0  0  0  0
   -0.5394    0.1377   -0.2363 N   0  0  0  0  0  0  0  0  0  0  0  0
   -0.6745   -0.1826    1.1182 C   0  0  0  0  0  0  0  0  0  0  0  0
   -2.0534   -0.5897    1.5483 C   0  0  0  0  0  0  0  0  0  0  0  0
   -2.7714   -1.2957    0.6202 O   0  0  0  0  0  0  0  0  0  0  0  0
   -2.1332   -1.5622   -0.5620 C   0  0  0  0  0  0  0  0  0  0  0  0
   -1.6002   -0.2324   -1.1105 C   0  0  0  0  0  0  0  0  0  0  0  0
    3.2326   -2.5238   -0.2124 H   0  0  0  0  0  0  0  0  0  0  0  0
    3.9801   -0.9312   -0.0470 H   0  0  0  0  0  0  0  0  0  0  0  0
    3.3175   -1.7081    1.4042 H   0  0  0  0  0  0  0  0  0  0  0  0
    0.3805    1.0186   -1.8281 H   0  0  0  0  0  0  0  0  0  0  0  0
    1.3942    2.8400   -0.7539 H   0  0  0  0  0  0  0  0  0  0  0  0
    0.8482    2.3952    0.8726 H   0  0  0  0  0  0  0  0  0  0  0  0
   -0.8978    2.8623   -1.3980 H   0  0  0  0  0  0  0  0  0  0  0  0
    0.0197   -1.0013    1.3950 H   0  0  0  0  0  0  0  0  0  0  0  0
   -0.3798    0.6782    1.7902 H   0  0  0  0  0  0  0  0  0  0  0  0
   -1.9845   -1.2145    2.4649 H   0  0  0  0  0  0  0  0  0  0  0  0
   -2.6615    0.2950    1.8373 H   0  0  0  0  0  0  0  0  0  0  0  0
   -2.8641   -1.9306   -1.3003 H   0  0  0  0  0  0  0  0  0  0  0  0
   -1.3020   -2.2514   -0.4275 H   0  0  0  0  0  0  0  0  0  0  0  0
   -2.4029    0.5247   -1.0678 H   0  0  0  0  0  0  0  0  0  0  0  0
   -1.1824   -0.3612   -2.1267 H   0  0  0  0  0  0  0  0  0  0  0  0
  1  2  1  0
  2  3  1  0
  3  4  2  0
  3  5  1  0
  5  6  1  0
  6  7  1  0
  5  8  1  0
  8  9  1  0
  9 10  1  0
 10 11  1  0
 11 12  1  0
 12 13  1  0
 13  8  1  0
  1 14  1  0
  1 15  1  0
  1 16  1  0
  5 17  1  6
  6 18  1  0
  6 19  1  0
  7 20  1  0
  9 21  1  0
  9 22  1  0
 10 23  1  0
 10 24  1  0
 12 25  1  0
 12 26  1  0
 13 27  1  0
 13 28  1  0
M  END
$$$$

     RDKit          3D

 28 28  0  0  0  0  0  0  0  0999 V2000
    3.5806    0.1845   -1.2617 C   0  0  0  0  0  0  0  0  0  0  0  0
    2.4943    0.9916   -0.8770 O   0  0  0  0  0  0  0  0  0  0  0  0
    1.2907    0.3724   -0.5231 C   0  0  0  0  0  0  0  0  0  0  0  0
    1.2465   -0.8937   -0.5703 O   0  0  0  0  0  0  0  0  0  0  0  0
    0.0994    1.1181   -0.1068 C   0  0  2  0  0  0  0  0  0  0  0  0
    0.2785    1.9219    1.1599 C   0  0  0  0  0  0  0  0  0  0  0  0
    1.3563    2.7960    1.0895 O   0  0  0  0  0  0  0  0  0  0  0  0
   -1.0299    0.2597    0.0780 N   0  0  0  0  0  0  0  0  0  0  0  0
   -1.5054   -0.3876   -1.0879 C   0  0  0  0  0  0  0  0  0  0  0  0
   -2.3968   -1.5603   -0.9008 C   0  0  0  0  0  0  0  0  0  0  0  0
   -2.8377   -1.7118    0.4128 O   0  0  0  0  0  0  0  0  0  0  0  0
   -1.7699   -1.7558    1.3047 C   0  0  0  0  0  0  0  0  0  0  0  0
   -1.0245   -0.4714    1.2993 C   0  0  0  0  0  0  0  0  0  0  0  0
    3.4844   -0.8426   -0.8481 H   0  0  0  0  0  0  0  0  0  0  0  0
    4.5045    0.6276   -0.8529 H   0  0  0  0  0  0  0  0  0  0  0  0
    3.6845    0.1444   -2.3765 H   0  0  0  0  0  0  0  0  0  0  0  0
   -0.1629    1.8584   -0.9149 H   0  0  0  0  0  0  0  0  0  0  0  0
   -0.6847    2.4654    1.3283 H   0  0  0  0  0  0  0  0  0  0  0  0
    0.3995    1.2070    1.9955 H   0  0  0  0  0  0  0  0  0  0  0  0
    1.6210    2.9050    0.1566 H   0  0  0  0  0  0  0  0  0  0  0  0
   -0.6765   -0.6322   -1.7667 H   0  0  0  0  0  0  0  0  0  0  0  0
   -2.1010    0.3987   -1.6566 H   0  0  0  0  0  0  0  0  0  0  0  0
   -3.3084   -1.4787   -1.5259 H   0  0  0  0  0  0  0  0  0  0  0  0
   -1.8716   -2.4830   -1.2479 H   0  0  0  0  0  0  0  0  0  0  0  0
   -1.0891   -2.6113    1.0913 H   0  0  0  0  0  0  0  0  0  0  0  0
   -2.2170   -1.8955    2.3233 H   0  0  0  0  0  0  0  0  0  0  0  0
   -1.4172    0.1969    2.1049 H   0  0  0  0  0  0  0  0  0  0  0  0
    0.0524   -0.7238    1.5306 H   0  0  0  0  0  0  0  0  0  0  0  0
  1  2  1  0
  2  3  1  0
  3  4  2  0
  3  5  1  0
  5  6  1  0
  6  7  1  0
  5  8  1  0
  8  9  1  0
  9 10  1  0
 10 11  1  0
 11 12  1  0
 12 13  1  0
 13  8  1  0
  1 14  1  0
  1 15  1  0
  1 16  1  0
  5 17  1  6
  6 18  1  0
  6 19  1  0
  7 20  1  0
  9 21  1  0
  9 22  1  0
 10 23  1  0
 10 24  1  0
 12 25  1  0
 12 26  1  0
 13 27  1  0
 13 28  1  0
M  END
$$$$

     RDKit          3D

 28 28  0  0  0  0  0  0  0  0999 V2000
    3.8276   -1.0405    0.5488 C   0  0  0  0  0  0  0  0  0  0  0  0
    2.6612   -0.6149   -0.0992 O   0  0  0  0  0  0  0  0  0  0  0  0
    1.7373    0.2902    0.3860 C   0  0  0  0  0  0  0  0  0  0  0  0
    1.9341    0.7971    1.5134 O   0  0  0  0  0  0  0  0  0  0  0  0
    0.5357    0.6493   -0.4238 C   0  0  2  0  0  0  0  0  0  0  0  0
    0.1955    2.1227   -0.2167 C   0  0  0  0  0  0  0  0  0  0  0  0
    1.3421    2.8475   -0.5216 O   0  0  0  0  0  0  0  0  0  0  0  0
   -0.5628   -0.1955   -0.1589 N   0  0  0  0  0  0  0  0  0  0  0  0
   -1.1649   -0.1734    1.1153 C   0  0  0  0  0  0  0  0  0  0  0  0
   -2.5267   -0.8690    0.9861 C   0  0  0  0  0  0  0  0  0  0  0  0
   -2.4607   -1.9797    0.1823 O   0  0  0  0  0  0  0  0  0  0  0  0
   -2.1012   -1.7382   -1.1097 C   0  0  0  0  0  0  0  0  0  0  0  0
   -1.5493   -0.3058   -1.1936 C   0  0  0  0  0  0  0  0  0  0  0  0
    4.0765   -0.4667    1.4565 H   0  0  0  0  0  0  0  0  0  0  0  0
    4.6699   -0.9301   -0.1886 H   0  0  0  0  0  0  0  0  0  0  0  0
    3.7875   -2.1380    0.7843 H   0  0  0  0  0  0  0  0  0  0  0  0
    0.8299    0.5487   -1.4893 H   0  0  0  0  0  0  0  0  0  0  0  0
   -0.1281    2.3095    0.8277 H   0  0  0  0  0  0  0  0  0  0  0  0
   -0.5929    2.3652   -0.9424 H   0  0  0  0  0  0  0  0  0  0  0  0
    1.1017    3.6489   -1.0642 H   0  0  0  0  0  0  0  0  0  0  0  0
   -1.4390    0.8778    1.4337 H   0  0  0  0  0  0  0  0  0  0  0  0
   -0.5819   -0.5979    1.9544 H   0  0  0  0  0  0  0  0  0  0  0  0
   -3.3099   -0.1527    0.6828 H   0  0  0  0  0  0  0  0  0  0  0  0
   -2.7820   -1.2086    2.0173 H   0  0  0  0  0  0  0  0  0  0  0  0
   -1.2166   -2.3895   -1.3599 H   0  0  0  0  0  0  0  0  0  0  0  0
   -2.8686   -1.9390   -1.8597 H   0  0  0  0  0  0  0  0  0  0  0  0
   -1.0550   -0.1598   -2.1920 H   0  0  0  0  0  0  0  0  0  0  0  0
   -2.3595    0.4425   -1.0691 H   0  0  0  0  0  0  0  0  0  0  0  0
  1  2  1  0
  2  3  1  0
  3  4  2  0
  3  5  1  0
  5  6  1  0
  6  7  1  0
  5  8  1  0
  8  9  1  0
  9 10  1  0
 10 11  1  0
 11 12  1  0
 12 13  1  0
 13  8  1  0
  1 14  1  0
  1 15  1  0
  1 16  1  0
  5 17  1  6
  6 18  1  0
  6 19  1  0
  7 20  1  0
  9 21  1  0
  9 22  1  0
 10 23  1  0
 10 24  1  0
 12 25  1  0
 12 26  1  0
 13 27  1  0
 13 28  1  0
M  END
$$$$

     RDKit          3D

 28 28  0  0  0  0  0  0  0  0999 V2000
    3.9975    0.0001    1.2912 C   0  0  0  0  0  0  0  0  0  0  0  0
    2.9336   -0.3906    0.4572 O   0  0  0  0  0  0  0  0  0  0  0  0
    1.6384    0.0960    0.5697 C   0  0  0  0  0  0  0  0  0  0  0  0
    1.4425    0.9358    1.4843 O   0  0  0  0  0  0  0  0  0  0  0  0
    0.5484   -0.3559   -0.3449 C   0  0  2  0  0  0  0  0  0  0  0  0
    1.0092   -0.0199   -1.7418 C   0  0  0  0  0  0  0  0  0  0  0  0
    1.1797    1.3516   -1.9264 O   0  0  0  0  0  0  0  0  0  0  0  0
   -0.7178    0.2674   -0.0288 N   0  0  0  0  0  0  0  0  0  0  0  0
   -1.1889   -0.0572    1.2585 C   0  0  0  0  0  0  0  0  0  0  0  0
   -2.6640   -0.1171    1.4563 C   0  0  0  0  0  0  0  0  0  0  0  0
   -3.2024   -0.9033    0.4391 O   0  0  0  0  0  0  0  0  0  0  0  0
   -3.0511   -0.1249   -0.7277 C   0  0  0  0  0  0  0  0  0  0  0  0
   -1.6062   -0.0076   -1.1188 C   0  0  0  0  0  0  0  0  0  0  0  0
    4.7407    0.6386    0.7722 H   0  0  0  0  0  0  0  0  0  0  0  0
    4.5596   -0.9485    1.5366 H   0  0  0  0  0  0  0  0  0  0  0  0
    3.6703    0.4181    2.2474 H   0  0  0  0  0  0  0  0  0  0  0  0
    0.3912   -1.4502   -0.3097 H   0  0  0  0  0  0  0  0  0  0  0  0
    0.3662   -0.3833   -2.5451 H   0  0  0  0  0  0  0  0  0  0  0  0
    2.0047   -0.5343   -1.8660 H   0  0  0  0  0  0  0  0  0  0  0  0
    1.5665    1.4702   -2.8299 H   0  0  0  0  0  0  0  0  0  0  0  0
   -0.7566   -1.0216    1.6563 H   0  0  0  0  0  0  0  0  0  0  0  0
   -0.8166    0.7297    1.9805 H   0  0  0  0  0  0  0  0  0  0  0  0
   -3.1162    0.9050    1.3671 H   0  0  0  0  0  0  0  0  0  0  0  0
   -2.8792   -0.5386    2.4515 H   0  0  0  0  0  0  0  0  0  0  0  0
   -3.5488    0.8437   -0.5372 H   0  0  0  0  0  0  0  0  0  0  0  0
   -3.6251   -0.6610   -1.5108 H   0  0  0  0  0  0  0  0  0  0  0  0
   -1.3515   -0.9697   -1.6381 H   0  0  0  0  0  0  0  0  0  0  0  0
   -1.5238    0.8276   -1.8429 H   0  0  0  0  0  0  0  0  0  0  0  0
  1  2  1  0
  2  3  1  0
  3  4  2  0
  3  5  1  0
  5  6  1  0
  6  7  1  0
  5  8  1  0
  8  9  1  0
  9 10  1  0
 10 11  1  0
 11 12  1  0
 12 13  1  0
 13  8  1  0
  1 14  1  0
  1 15  1  0
  1 16  1  0
  5 17  1  6
  6 18  1  0
  6 19  1  0
  7 20  1  0
  9 21  1  0
  9 22  1  0
 10 23  1  0
 10 24  1  0
 12 25  1  0
 12 26  1  0
 13 27  1  0
 13 28  1  0
M  END
$$$$

     RDKit          3D

 28 28  0  0  0  0  0  0  0  0999 V2000
    3.8145    1.4926    0.4933 C   0  0  0  0  0  0  0  0  0  0  0  0
    2.6625    0.7203    0.8623 O   0  0  0  0  0  0  0  0  0  0  0  0
    1.6143    0.6074   -0.0363 C   0  0  0  0  0  0  0  0  0  0  0  0
    1.7209    1.1876   -1.1369 O   0  0  0  0  0  0  0  0  0  0  0  0
    0.4077   -0.1659    0.2760 C   0  0  2  0  0  0  0  0  0  0  0  0
    0.7369   -1.5901    0.6586 C   0  0  0  0  0  0  0  0  0  0  0  0
    1.1784   -2.2406   -0.4904 O   0  0  0  0  0  0  0  0  0  0  0  0
   -0.5806   -0.1559   -0.7278 N   0  0  0  0  0  0  0  0  0  0  0  0
   -1.1536    1.1501   -0.9903 C   0  0  0  0  0  0  0  0  0  0  0  0
   -2.4330    1.3068   -0.1813 C   0  0  0  0  0  0  0  0  0  0  0  0
   -3.2985    0.2788   -0.4601 O   0  0  0  0  0  0  0  0  0  0  0  0
   -2.7670   -0.9089    0.0562 C   0  0  0  0  0  0  0  0  0  0  0  0
   -1.5306   -1.1958   -0.7784 C   0  0  0  0  0  0  0  0  0  0  0  0
    3.9326    2.2592    1.3014 H   0  0  0  0  0  0  0  0  0  0  0  0
    3.7140    1.9400   -0.4954 H   0  0  0  0  0  0  0  0  0  0  0  0
    4.6544    0.7643    0.4731 H   0  0  0  0  0  0  0  0  0  0  0  0
    0.0264    0.2896    1.2564 H   0  0  0  0  0  0  0  0  0  0  0  0
   -0.1290   -2.1287    1.0762 H   0  0  0  0  0  0  0  0  0  0  0  0
    1.5598   -1.5988    1.4274 H   0  0  0  0  0  0  0  0  0  0  0  0
    1.9503   -2.8211   -0.3280 H   0  0  0  0  0  0  0  0  0  0  0  0
   -1.4411    1.1712   -2.0596 H   0  0  0  0  0  0  0  0  0  0  0  0
   -0.4371    1.9371   -0.7974 H   0  0  0  0  0  0  0  0  0  0  0  0
   -2.2187    1.3493    0.9004 H   0  0  0  0  0  0  0  0  0  0  0  0
   -2.9186    2.2645   -0.4677 H   0  0  0  0  0  0  0  0  0  0  0  0
   -3.4978   -1.7090   -0.1167 H   0  0  0  0  0  0  0  0  0  0  0  0
   -2.5041   -0.8048    1.1264 H   0  0  0  0  0  0  0  0  0  0  0  0
   -1.9083   -1.2177   -1.8560 H   0  0  0  0  0  0  0  0  0  0  0  0
   -1.1547   -2.1813   -0.5721 H   0  0  0  0  0  0  0  0  0  0  0  0
  1  2  1  0
  2  3  1  0
  3  4  2  0
  3  5  1  0
  5  6  1  0
  6  7  1  0
  5  8  1  0
  8  9  1  0
  9 10  1  0
 10 11  1  0
 11 12  1  0
 12 13  1  0
 13  8  1  0
  1 14  1  0
  1 15  1  0
  1 16  1  0
  5 17  1  1
  6 18  1  0
  6 19  1  0
  7 20  1  0
  9 21  1  0
  9 22  1  0
 10 23  1  0
 10 24  1  0
 12 25  1  0
 12 26  1  0
 13 27  1  0
 13 28  1  0
M  END
$$$$

     RDKit          3D

 28 28  0  0  0  0  0  0  0  0999 V2000
    3.8651    1.3490   -0.8089 C   0  0  0  0  0  0  0  0  0  0  0  0
    2.7940    0.9041   -0.0205 O   0  0  0  0  0  0  0  0  0  0  0  0
    1.5905    0.4669   -0.5260 C   0  0  0  0  0  0  0  0  0  0  0  0
    1.4188    0.4569   -1.7595 O   0  0  0  0  0  0  0  0  0  0  0  0
    0.5351    0.0227    0.3759 C   0  0  2  0  0  0  0  0  0  0  0  0
    1.0763   -1.1942    1.1379 C   0  0  0  0  0  0  0  0  0  0  0  0
    1.2928   -2.1743    0.1558 O   0  0  0  0  0  0  0  0  0  0  0  0
   -0.6711   -0.3956   -0.2643 N   0  0  0  0  0  0  0  0  0  0  0  0
   -1.3603    0.6017   -1.0115 C   0  0  0  0  0  0  0  0  0  0  0  0
   -2.2347    1.3772   -0.0368 C   0  0  0  0  0  0  0  0  0  0  0  0
   -3.3735    0.6048    0.1703 O   0  0  0  0  0  0  0  0  0  0  0  0
   -3.0656   -0.7340    0.2132 C   0  0  0  0  0  0  0  0  0  0  0  0
   -1.6207   -0.9864    0.6616 C   0  0  0  0  0  0  0  0  0  0  0  0
    4.6392    0.5550   -0.8566 H   0  0  0  0  0  0  0  0  0  0  0  0
    3.5018    1.5403   -1.8378 H   0  0  0  0  0  0  0  0  0  0  0  0
    4.2888    2.2899   -0.3881 H   0  0  0  0  0  0  0  0  0  0  0  0
    0.2797    0.7785    1.1515 H   0  0  0  0  0  0  0  0  0  0  0  0
    0.3125   -1.5270    1.8661 H   0  0  0  0  0  0  0  0  0  0  0  0
    2.0419   -0.9202    1.6418 H   0  0  0  0  0  0  0  0  0  0  0  0
    1.5791   -3.0147    0.5830 H   0  0  0  0  0  0  0  0  0  0  0  0
   -2.0577    0.0601   -1.7181 H   0  0  0  0  0  0  0  0  0  0  0  0
   -0.7609    1.2672   -1.6271 H   0  0  0  0  0  0  0  0  0  0  0  0
   -1.7016    1.4291    0.9393 H   0  0  0  0  0  0  0  0  0  0  0  0
   -2.4593    2.3990   -0.3910 H   0  0  0  0  0  0  0  0  0  0  0  0
   -3.2426   -1.2811   -0.7232 H   0  0  0  0  0  0  0  0  0  0  0  0
   -3.6967   -1.1847    1.0257 H   0  0  0  0  0  0  0  0  0  0  0  0
   -1.4935   -0.6018    1.7015 H   0  0  0  0  0  0  0  0  0  0  0  0
   -1.4775   -2.0882    0.5940 H   0  0  0  0  0  0  0  0  0  0  0  0
  1  2  1  0
  2  3  1  0
  3  4  2  0
  3  5  1  0
  5  6  1  0
  6  7  1  0
  5  8  1  0
  8  9  1  0
  9 10  1  0
 10 11  1  0
 11 12  1  0
 12 13  1  0
 13  8  1  0
  1 14  1  0
  1 15  1  0
  1 16  1  0
  5 17  1  1
  6 18  1  0
  6 19  1  0
  7 20  1  0
  9 21  1  0
  9 22  1  0
 10 23  1  0
 10 24  1  0
 12 25  1  0
 12 26  1  0
 13 27  1  0
 13 28  1  0
M  END
$$$$

     RDKit          3D

 28 28  0  0  0  0  0  0  0  0999 V2000
    3.2621   -1.6186    0.6668 C   0  0  0  0  0  0  0  0  0  0  0  0
    2.0131   -1.0524    0.3189 O   0  0  0  0  0  0  0  0  0  0  0  0
    1.8643    0.0904   -0.4480 C   0  0  0  0  0  0  0  0  0  0  0  0
    2.9140    0.6453   -0.8514 O   0  0  0  0  0  0  0  0  0  0  0  0
    0.5701    0.6820   -0.8121 C   0  0  2  0  0  0  0  0  0  0  0  0
    0.5217    2.1285   -0.3669 C   0  0  0  0  0  0  0  0  0  0  0  0
    0.5182    2.1385    1.0243 O   0  0  0  0  0  0  0  0  0  0  0  0
   -0.5643    0.0210   -0.3119 N   0  0  0  0  0  0  0  0  0  0  0  0
   -0.7707   -0.0818    1.0708 C   0  0  0  0  0  0  0  0  0  0  0  0
   -1.5157   -1.4061    1.3152 C   0  0  0  0  0  0  0  0  0  0  0  0
   -2.7184   -1.4038    0.6500 O   0  0  0  0  0  0  0  0  0  0  0  0
   -2.9043   -0.4047   -0.2652 C   0  0  0  0  0  0  0  0  0  0  0  0
   -1.6886   -0.1439   -1.1498 C   0  0  0  0  0  0  0  0  0  0  0  0
    3.4311   -1.6224    1.7772 H   0  0  0  0  0  0  0  0  0  0  0  0
    4.1197   -1.0523    0.2394 H   0  0  0  0  0  0  0  0  0  0  0  0
    3.3589   -2.6652    0.3134 H   0  0  0  0  0  0  0  0  0  0  0  0
    0.5453    0.6991   -1.9455 H   0  0  0  0  0  0  0  0  0  0  0  0
    1.3575    2.7186   -0.7894 H   0  0  0  0  0  0  0  0  0  0  0  0
   -0.4579    2.5438   -0.7118 H   0  0  0  0  0  0  0  0  0  0  0  0
    0.4091    3.0423    1.4127 H   0  0  0  0  0  0  0  0  0  0  0  0
   -1.4827    0.7127    1.3993 H   0  0  0  0  0  0  0  0  0  0  0  0
    0.1382   -0.0470    1.6671 H   0  0  0  0  0  0  0  0  0  0  0  0
   -1.6773   -1.5440    2.4000 H   0  0  0  0  0  0  0  0  0  0  0  0
   -0.8477   -2.1892    0.8774 H   0  0  0  0  0  0  0  0  0  0  0  0
   -3.1821    0.5666    0.1969 H   0  0  0  0  0  0  0  0  0  0  0  0
   -3.7175   -0.7237   -0.9725 H   0  0  0  0  0  0  0  0  0  0  0  0
   -1.5938   -0.8843   -1.9637 H   0  0  0  0  0  0  0  0  0  0  0  0
   -1.9022    0.8506   -1.6453 H   0  0  0  0  0  0  0  0  0  0  0  0
  1  2  1  0
  2  3  1  0
  3  4  2  0
  3  5  1  0
  5  6  1  0
  6  7  1  0
  5  8  1  0
  8  9  1  0
  9 10  1  0
 10 11  1  0
 11 12  1  0
 12 13  1  0
 13  8  1  0
  1 14  1  0
  1 15  1  0
  1 16  1  0
  5 17  1  6
  6 18  1  0
  6 19  1  0
  7 20  1  0
  9 21  1  0
  9 22  1  0
 10 23  1  0
 10 24  1  0
 12 25  1  0
 12 26  1  0
 13 27  1  0
 13 28  1  0
M  END
$$$$

     RDKit          3D

 28 28  0  0  0  0  0  0  0  0999 V2000
    4.1068   -0.0087    0.5461 C   0  0  0  0  0  0  0  0  0  0  0  0
    2.9159   -0.0321   -0.1827 O   0  0  0  0  0  0  0  0  0  0  0  0
    1.6531    0.0916    0.4166 C   0  0  0  0  0  0  0  0  0  0  0  0
    1.6146    0.2257    1.6441 O   0  0  0  0  0  0  0  0  0  0  0  0
    0.4976    0.0485   -0.4736 C   0  0  2  0  0  0  0  0  0  0  0  0
    0.5408    1.2841   -1.4149 C   0  0  0  0  0  0  0  0  0  0  0  0
    1.7776    1.3897   -2.0068 O   0  0  0  0  0  0  0  0  0  0  0  0
   -0.7960    0.0201    0.0822 N   0  0  0  0  0  0  0  0  0  0  0  0
   -1.6919   -0.6310   -0.9056 C   0  0  0  0  0  0  0  0  0  0  0  0
   -3.1173   -0.3593   -0.5331 C   0  0  0  0  0  0  0  0  0  0  0  0
   -3.3316   -0.9955    0.6981 O   0  0  0  0  0  0  0  0  0  0  0  0
   -2.5030   -0.4517    1.6634 C   0  0  0  0  0  0  0  0  0  0  0  0
   -1.0224   -0.6861    1.2961 C   0  0  0  0  0  0  0  0  0  0  0  0
    4.2610   -0.9882    1.0781 H   0  0  0  0  0  0  0  0  0  0  0  0
    4.1719    0.7681    1.3210 H   0  0  0  0  0  0  0  0  0  0  0  0
    4.9539    0.0429   -0.1939 H   0  0  0  0  0  0  0  0  0  0  0  0
    0.5833   -0.8054   -1.2211 H   0  0  0  0  0  0  0  0  0  0  0  0
   -0.2530    1.2491   -2.1732 H   0  0  0  0  0  0  0  0  0  0  0  0
    0.3444    2.1905   -0.7877 H   0  0  0  0  0  0  0  0  0  0  0  0
    2.0355    2.3393   -2.0979 H   0  0  0  0  0  0  0  0  0  0  0  0
   -1.5003   -1.7347   -0.7635 H   0  0  0  0  0  0  0  0  0  0  0  0
   -1.3768   -0.3347   -1.8944 H   0  0  0  0  0  0  0  0  0  0  0  0
   -3.2996    0.7214   -0.5100 H   0  0  0  0  0  0  0  0  0  0  0  0
   -3.7588   -0.9076   -1.2666 H   0  0  0  0  0  0  0  0  0  0  0  0
   -2.6949    0.6512    1.6744 H   0  0  0  0  0  0  0  0  0  0  0  0
   -2.7223   -0.8710    2.6587 H   0  0  0  0  0  0  0  0  0  0  0  0
   -0.4305   -0.4057    2.1657 H   0  0  0  0  0  0  0  0  0  0  0  0
   -0.9579   -1.8105    1.1803 H   0  0  0  0  0  0  0  0  0  0  0  0
  1  2  1  0
  2  3  1  0
  3  4  2  0
  3  5  1  0
  5  6  1  0
  6  7  1  0
  5  8  1  0
  8  9  1  0
  9 10  1  0
 10 11  1  0
 11 12  1  0
 12 13  1  0
 13  8  1  0
  1 14  1  0
  1 15  1  0
  1 16  1  0
  5 17  1  6
  6 18  1  0
  6 19  1  0
  7 20  1  0
  9 21  1  0
  9 22  1  0
 10 23  1  0
 10 24  1  0
 12 25  1  0
 12 26  1  0
 13 27  1  0
 13 28  1  0
M  END
$$$$
