
     RDKit          3D

 24 24  0  0  0  0  0  0  0  0999 V2000
    2.1504   -0.8492    1.2876 N   0  0  0  0  0  0  0  0  0  0  0  0
    1.8866    0.4379    0.6860 C   0  0  0  0  0  0  0  0  0  0  0  0
    1.0856    0.1970   -0.5993 C   0  0  2  0  0  0  0  0  0  0  0  0
    0.7814    1.4280   -1.2595 N   0  0  0  0  0  0  0  0  0  0  0  0
   -0.1726   -0.5161   -0.1898 C   0  0  1  0  0  0  0  0  0  0  0  0
   -1.0035    0.2989    0.7850 C   0  0  0  0  0  0  0  0  0  0  0  0
   -2.3034   -0.4815    0.6910 C   0  0  0  0  0  0  0  0  0  0  0  0
   -2.4765   -0.5942   -0.7399 N   0  0  0  0  0  0  0  0  0  0  0  0
   -1.1610   -0.6457   -1.3300 C   0  0  0  0  0  0  0  0  0  0  0  0
    2.6848   -0.7561    2.1685 H   0  0  0  0  0  0  0  0  0  0  0  0
    2.5815   -1.5192    0.6273 H   0  0  0  0  0  0  0  0  0  0  0  0
    1.3028    1.0469    1.4008 H   0  0  0  0  0  0  0  0  0  0  0  0
    2.8219    0.9960    0.4713 H   0  0  0  0  0  0  0  0  0  0  0  0
    1.6587   -0.4768   -1.2478 H   0  0  0  0  0  0  0  0  0  0  0  0
    0.5791    2.2152   -0.5997 H   0  0  0  0  0  0  0  0  0  0  0  0
    1.5460    1.6927   -1.9198 H   0  0  0  0  0  0  0  0  0  0  0  0
    0.0150   -1.5029    0.2592 H   0  0  0  0  0  0  0  0  0  0  0  0
   -0.5826    0.2954    1.8021 H   0  0  0  0  0  0  0  0  0  0  0  0
   -1.1728    1.2941    0.3691 H   0  0  0  0  0  0  0  0  0  0  0  0
   -2.0987   -1.4877    1.1086 H   0  0  0  0  0  0  0  0  0  0  0  0
   -3.1349    0.0397    1.1916 H   0  0  0  0  0  0  0  0  0  0  0  0
   -2.9766    0.2627   -1.0626 H   0  0  0  0  0  0  0  0  0  0  0  0
   -1.0132   -1.6029   -1.8770 H   0  0  0  0  0  0  0  0  0  0  0  0
   -0.9979    0.2279   -2.0229 H   0  0  0  0  0  0  0  0  0  0  0  0
  1  2  1  0
  2  3  1  0
  3  4  1  0
  3  5  1  0
  5  6  1  0
  6  7  1  0
  7  8  1  0
  8  9  1  0
  9  5  1  0
  1 10  1  0
  1 11  1  0
  2 12  1  0
  2 13  1  0
  3 14  1  6
  4 15  1  0
  4 16  1  0
  5 17  1  1
  6 18  1  0
  6 19  1  0
  7 20  1  0
  7 21  1  0
  8 22  1  0
  9 23  1  0
  9 24  1  0
M  END
$$$$

     RDKit          3D

 24 24  0  0  0  0  0  0  0  0999 V2000
    3.0339   -0.9382    0.2929 N   0  0  0  0  0  0  0  0  0  0  0  0
    1.5914   -0.8819    0.4431 C   0  0  0  0  0  0  0  0  0  0  0  0
    1.0441    0.3287   -0.2632 C   0  0  2  0  0  0  0  0  0  0  0  0
    1.6561    1.4993    0.3402 N   0  0  0  0  0  0  0  0  0  0  0  0
   -0.4331    0.4718   -0.1585 C   0  0  1  0  0  0  0  0  0  0  0  0
   -1.2178   -0.6661   -0.7256 C   0  0  0  0  0  0  0  0  0  0  0  0
   -2.5406   -0.5479   -0.0054 C   0  0  0  0  0  0  0  0  0  0  0  0
   -2.3921    0.4870    0.9918 N   0  0  0  0  0  0  0  0  0  0  0  0
   -0.9567    0.5501    1.2405 C   0  0  0  0  0  0  0  0  0  0  0  0
    3.3138   -1.7736   -0.3040 H   0  0  0  0  0  0  0  0  0  0  0  0
    3.3898   -0.1102   -0.2432 H   0  0  0  0  0  0  0  0  0  0  0  0
    1.3802   -0.8045    1.5303 H   0  0  0  0  0  0  0  0  0  0  0  0
    1.1481   -1.8195    0.0530 H   0  0  0  0  0  0  0  0  0  0  0  0
    1.3345    0.3097   -1.3220 H   0  0  0  0  0  0  0  0  0  0  0  0
    1.3745    2.3724   -0.1832 H   0  0  0  0  0  0  0  0  0  0  0  0
    1.3869    1.5757    1.3568 H   0  0  0  0  0  0  0  0  0  0  0  0
   -0.7434    1.3941   -0.6858 H   0  0  0  0  0  0  0  0  0  0  0  0
   -0.8055   -1.6631   -0.5108 H   0  0  0  0  0  0  0  0  0  0  0  0
   -1.3683   -0.5409   -1.8170 H   0  0  0  0  0  0  0  0  0  0  0  0
   -3.3380   -0.2397   -0.7288 H   0  0  0  0  0  0  0  0  0  0  0  0
   -2.8406   -1.4834    0.5026 H   0  0  0  0  0  0  0  0  0  0  0  0
   -2.6347    1.3986    0.5229 H   0  0  0  0  0  0  0  0  0  0  0  0
   -0.6652    1.4644    1.7758 H   0  0  0  0  0  0  0  0  0  0  0  0
   -0.7172   -0.3828    1.8245 H   0  0  0  0  0  0  0  0  0  0  0  0
  1  2  1  0
  2  3  1  0
  3  4  1  0
  3  5  1  0
  5  6  1  0
  6  7  1  0
  7  8  1  0
  8  9  1  0
  9  5  1  0
  1 10  1  0
  1 11  1  0
  2 12  1  0
  2 13  1  0
  3 14  1  6
  4 15  1  0
  4 16  1  0
  5 17  1  6
  6 18  1  0
  6 19  1  0
  7 20  1  0
  7 21  1  0
  8 22  1  0
  9 23  1  0
  9 24  1  0
M  END
$$$$

     RDKit          3D

 24 24  0  0  0  0  0  0  0  0999 V2000
    2.3173    0.6574    1.0099 N   0  0  0  0  0  0  0  0  0  0  0  0
    1.9280   -0.7029    0.7329 C   0  0  0  0  0  0  0  0  0  0  0  0
    0.9218   -0.6632   -0.4006 C   0  0  2  0  0  0  0  0  0  0  0  0
    1.5768   -0.0567   -1.5404 N   0  0  0  0  0  0  0  0  0  0  0  0
   -0.2014    0.2568    0.0195 C   0  0  1  0  0  0  0  0  0  0  0  0
   -1.2508    0.3328   -1.0960 C   0  0  0  0  0  0  0  0  0  0  0  0
   -2.4380    0.8355   -0.2715 C   0  0  0  0  0  0  0  0  0  0  0  0
   -2.4006   -0.1647    0.8031 N   0  0  0  0  0  0  0  0  0  0  0  0
   -1.0059   -0.2726    1.1609 C   0  0  0  0  0  0  0  0  0  0  0  0
    1.7766    1.0831    1.7905 H   0  0  0  0  0  0  0  0  0  0  0  0
    2.2705    1.2730    0.1603 H   0  0  0  0  0  0  0  0  0  0  0  0
    1.4031   -1.1594    1.6050 H   0  0  0  0  0  0  0  0  0  0  0  0
    2.8102   -1.3383    0.4648 H   0  0  0  0  0  0  0  0  0  0  0  0
    0.5319   -1.6547   -0.6305 H   0  0  0  0  0  0  0  0  0  0  0  0
    2.6099    0.0281   -1.4216 H   0  0  0  0  0  0  0  0  0  0  0  0
    1.3934   -0.5732   -2.4271 H   0  0  0  0  0  0  0  0  0  0  0  0
    0.1418    1.2878    0.1911 H   0  0  0  0  0  0  0  0  0  0  0  0
   -0.9669    1.0106   -1.8894 H   0  0  0  0  0  0  0  0  0  0  0  0
   -1.4632   -0.6972   -1.3902 H   0  0  0  0  0  0  0  0  0  0  0  0
   -3.3742    0.7961   -0.8313 H   0  0  0  0  0  0  0  0  0  0  0  0
   -2.2118    1.8362    0.1208 H   0  0  0  0  0  0  0  0  0  0  0  0
   -2.7023   -1.0623    0.3405 H   0  0  0  0  0  0  0  0  0  0  0  0
   -0.7990   -1.3378    1.3893 H   0  0  0  0  0  0  0  0  0  0  0  0
   -0.8670    0.2857    2.1099 H   0  0  0  0  0  0  0  0  0  0  0  0
  1  2  1  0
  2  3  1  0
  3  4  1  0
  3  5  1  0
  5  6  1  0
  6  7  1  0
  7  8  1  0
  8  9  1  0
  9  5  1  0
  1 10  1  0
  1 11  1  0
  2 12  1  0
  2 13  1  0
  3 14  1  6
  4 15  1  0
  4 16  1  0
  5 17  1  1
  6 18  1  0
  6 19  1  0
  7 20  1  0
  7 21  1  0
  8 22  1  0
  9 23  1  0
  9 24  1  0
M  END
$$$$

     RDKit          3D

 24 24  0  0  0  0  0  0  0  0999 V2000
    2.9019   -0.7284   -0.6347 N   0  0  0  0  0  0  0  0  0  0  0  0
    1.4679   -0.7840   -0.3696 C   0  0  0  0  0  0  0  0  0  0  0  0
    1.0016    0.6067   -0.1171 C   0  0  2  0  0  0  0  0  0  0  0  0
    1.6659    1.1868    1.0000 N   0  0  0  0  0  0  0  0  0  0  0  0
   -0.4881    0.6979    0.1204 C   0  0  1  0  0  0  0  0  0  0  0  0
   -1.3081    0.2097   -1.0259 C   0  0  0  0  0  0  0  0  0  0  0  0
   -2.3923   -0.6468   -0.3923 C   0  0  0  0  0  0  0  0  0  0  0  0
   -2.3997   -0.2108    1.0109 N   0  0  0  0  0  0  0  0  0  0  0  0
   -0.9522   -0.1579    1.2632 C   0  0  0  0  0  0  0  0  0  0  0  0
    3.3935   -1.4396   -0.0793 H   0  0  0  0  0  0  0  0  0  0  0  0
    3.1039   -0.8934   -1.6449 H   0  0  0  0  0  0  0  0  0  0  0  0
    1.0050   -1.2685   -1.2291 H   0  0  0  0  0  0  0  0  0  0  0  0
    1.3194   -1.3763    0.5563 H   0  0  0  0  0  0  0  0  0  0  0  0
    1.2099    1.2562   -1.0083 H   0  0  0  0  0  0  0  0  0  0  0  0
    2.4984    1.7521    0.7812 H   0  0  0  0  0  0  0  0  0  0  0  0
    1.0412    1.5956    1.7188 H   0  0  0  0  0  0  0  0  0  0  0  0
   -0.7971    1.7391    0.3428 H   0  0  0  0  0  0  0  0  0  0  0  0
   -0.7221   -0.3295   -1.7732 H   0  0  0  0  0  0  0  0  0  0  0  0
   -1.8519    1.0566   -1.5304 H   0  0  0  0  0  0  0  0  0  0  0  0
   -3.3923   -0.4336   -0.8132 H   0  0  0  0  0  0  0  0  0  0  0  0
   -2.1744   -1.7211   -0.4687 H   0  0  0  0  0  0  0  0  0  0  0  0
   -2.7656    0.7695    1.0275 H   0  0  0  0  0  0  0  0  0  0  0  0
   -0.5894   -1.1830    1.2482 H   0  0  0  0  0  0  0  0  0  0  0  0
   -0.7755    0.3029    2.2519 H   0  0  0  0  0  0  0  0  0  0  0  0
  1  2  1  0
  2  3  1  0
  3  4  1  0
  3  5  1  0
  5  6  1  0
  6  7  1  0
  7  8  1  0
  8  9  1  0
  9  5  1  0
  1 10  1  0
  1 11  1  0
  2 12  1  0
  2 13  1  0
  3 14  1  6
  4 15  1  0
  4 16  1  0
  5 17  1  1
  6 18  1  0
  6 19  1  0
  7 20  1  0
  7 21  1  0
  8 22  1  0
  9 23  1  0
  9 24  1  0
M  END
$$$$

     RDKit          3D

 24 24  0  0  0  0  0  0  0  0999 V2000
    3.0760    0.0298   -0.6674 N   0  0  0  0  0  0  0  0  0  0  0  0
    1.6544    0.2685   -0.8344 C   0  0  0  0  0  0  0  0  0  0  0  0
    0.9309   -0.3710    0.2933 C   0  0  2  0  0  0  0  0  0  0  0  0
    1.2100   -1.7951    0.2712 N   0  0  0  0  0  0  0  0  0  0  0  0
   -0.5495   -0.1922    0.2777 C   0  0  1  0  0  0  0  0  0  0  0  0
   -1.0034    1.2370    0.3299 C   0  0  0  0  0  0  0  0  0  0  0  0
   -2.4823    1.0383   -0.0181 C   0  0  0  0  0  0  0  0  0  0  0  0
   -2.5538   -0.1292   -0.8450 N   0  0  0  0  0  0  0  0  0  0  0  0
   -1.2235   -0.6792   -0.9583 C   0  0  0  0  0  0  0  0  0  0  0  0
    3.2201   -0.7763   -0.0262 H   0  0  0  0  0  0  0  0  0  0  0  0
    3.5789    0.8878   -0.3485 H   0  0  0  0  0  0  0  0  0  0  0  0
    1.3646   -0.2422   -1.7983 H   0  0  0  0  0  0  0  0  0  0  0  0
    1.4975    1.3585   -0.9142 H   0  0  0  0  0  0  0  0  0  0  0  0
    1.3130    0.0105    1.2612 H   0  0  0  0  0  0  0  0  0  0  0  0
    1.7578   -2.1023   -0.5404 H   0  0  0  0  0  0  0  0  0  0  0  0
    1.4702   -2.1872    1.1797 H   0  0  0  0  0  0  0  0  0  0  0  0
   -0.9631   -0.7016    1.1743 H   0  0  0  0  0  0  0  0  0  0  0  0
   -0.8847    1.7157    1.3050 H   0  0  0  0  0  0  0  0  0  0  0  0
   -0.5894    1.8468   -0.5066 H   0  0  0  0  0  0  0  0  0  0  0  0
   -2.9756    0.7790    0.9631 H   0  0  0  0  0  0  0  0  0  0  0  0
   -2.9238    1.9384   -0.4690 H   0  0  0  0  0  0  0  0  0  0  0  0
   -2.9951    0.0448   -1.7796 H   0  0  0  0  0  0  0  0  0  0  0  0
   -0.7106   -0.1941   -1.8370 H   0  0  0  0  0  0  0  0  0  0  0  0
   -1.2186   -1.7850   -1.0382 H   0  0  0  0  0  0  0  0  0  0  0  0
  1  2  1  0
  2  3  1  0
  3  4  1  0
  3  5  1  0
  5  6  1  0
  6  7  1  0
  7  8  1  0
  8  9  1  0
  9  5  1  0
  1 10  1  0
  1 11  1  0
  2 12  1  0
  2 13  1  0
  3 14  1  1
  4 15  1  0
  4 16  1  0
  5 17  1  1
  6 18  1  0
  6 19  1  0
  7 20  1  0
  7 21  1  0
  8 22  1  0
  9 23  1  0
  9 24  1  0
M  END
$$$$

     RDKit          3D

 24 24  0  0  0  0  0  0  0  0999 V2000
   -1.9464    1.4975   -0.3221 N   0  0  0  0  0  0  0  0  0  0  0  0
   -1.9311    0.1769    0.2377 C   0  0  0  0  0  0  0  0  0  0  0  0
   -1.0266   -0.8042   -0.4099 C   0  0  2  0  0  0  0  0  0  0  0  0
   -1.2155   -2.0645    0.3467 N   0  0  0  0  0  0  0  0  0  0  0  0
    0.4185   -0.5340   -0.4118 C   0  0  1  0  0  0  0  0  0  0  0  0
    0.9007    0.7100   -1.0879 C   0  0  0  0  0  0  0  0  0  0  0  0
    2.2086    1.0238   -0.3397 C   0  0  0  0  0  0  0  0  0  0  0  0
    2.4155   -0.0822    0.5761 N   0  0  0  0  0  0  0  0  0  0  0  0
    1.0228   -0.3622    0.9678 C   0  0  0  0  0  0  0  0  0  0  0  0
   -2.7030    1.6254   -1.0557 H   0  0  0  0  0  0  0  0  0  0  0  0
   -2.1761    2.1725    0.4405 H   0  0  0  0  0  0  0  0  0  0  0  0
   -2.9885   -0.2104    0.1181 H   0  0  0  0  0  0  0  0  0  0  0  0
   -1.7900    0.2322    1.3403 H   0  0  0  0  0  0  0  0  0  0  0  0
   -1.3716   -0.9541   -1.4561 H   0  0  0  0  0  0  0  0  0  0  0  0
   -0.6537   -2.8292   -0.0499 H   0  0  0  0  0  0  0  0  0  0  0  0
   -1.0179   -1.8248    1.3311 H   0  0  0  0  0  0  0  0  0  0  0  0
    0.9673   -1.3878   -0.8949 H   0  0  0  0  0  0  0  0  0  0  0  0
    0.2418    1.5800   -1.0219 H   0  0  0  0  0  0  0  0  0  0  0  0
    1.1922    0.5097   -2.1630 H   0  0  0  0  0  0  0  0  0  0  0  0
    3.0411    1.1619   -1.0350 H   0  0  0  0  0  0  0  0  0  0  0  0
    2.0828    1.9398    0.2718 H   0  0  0  0  0  0  0  0  0  0  0  0
    2.7279   -0.8976    0.0020 H   0  0  0  0  0  0  0  0  0  0  0  0
    0.6545    0.5705    1.4328 H   0  0  0  0  0  0  0  0  0  0  0  0
    0.9465   -1.2491    1.5899 H   0  0  0  0  0  0  0  0  0  0  0  0
  1  2  1  0
  2  3  1  0
  3  4  1  0
  3  5  1  0
  5  6  1  0
  6  7  1  0
  7  8  1  0
  8  9  1  0
  9  5  1  0
  1 10  1  0
  1 11  1  0
  2 12  1  0
  2 13  1  0
  3 14  1  6
  4 15  1  0
  4 16  1  0
  5 17  1  6
  6 18  1  0
  6 19  1  0
  7 20  1  0
  7 21  1  0
  8 22  1  0
  9 23  1  0
  9 24  1  0
M  END
$$$$

     RDKit          3D

 24 24  0  0  0  0  0  0  0  0999 V2000
    2.7266   -0.2742    0.5031 N   0  0  0  0  0  0  0  0  0  0  0  0
    1.8077   -1.2712    0.0312 C   0  0  0  0  0  0  0  0  0  0  0  0
    0.6596   -0.5964   -0.7221 C   0  0  2  0  0  0  0  0  0  0  0  0
    1.2067    0.1200   -1.8229 N   0  0  0  0  0  0  0  0  0  0  0  0
   -0.1069    0.3237    0.2254 C   0  0  1  0  0  0  0  0  0  0  0  0
   -1.2375    0.9936   -0.5006 C   0  0  0  0  0  0  0  0  0  0  0  0
   -2.3784    1.0233    0.4967 C   0  0  0  0  0  0  0  0  0  0  0  0
   -2.1765   -0.1627    1.2847 N   0  0  0  0  0  0  0  0  0  0  0  0
   -0.7672   -0.4402    1.3253 C   0  0  0  0  0  0  0  0  0  0  0  0
    3.1087    0.3066   -0.2753 H   0  0  0  0  0  0  0  0  0  0  0  0
    2.3901    0.2618    1.3153 H   0  0  0  0  0  0  0  0  0  0  0  0
    2.3283   -1.9797   -0.6301 H   0  0  0  0  0  0  0  0  0  0  0  0
    1.4042   -1.8012    0.9073 H   0  0  0  0  0  0  0  0  0  0  0  0
   -0.0534   -1.3533   -1.1036 H   0  0  0  0  0  0  0  0  0  0  0  0
    1.6951    1.0037   -1.5743 H   0  0  0  0  0  0  0  0  0  0  0  0
    0.5960    0.1913   -2.6547 H   0  0  0  0  0  0  0  0  0  0  0  0
    0.6191    1.0348    0.6595 H   0  0  0  0  0  0  0  0  0  0  0  0
   -0.9290    2.0070   -0.8117 H   0  0  0  0  0  0  0  0  0  0  0  0
   -1.5668    0.4323   -1.3956 H   0  0  0  0  0  0  0  0  0  0  0  0
   -2.3741    1.9505    1.1045 H   0  0  0  0  0  0  0  0  0  0  0  0
   -3.3276    0.9133   -0.0717 H   0  0  0  0  0  0  0  0  0  0  0  0
   -2.6737   -0.9597    0.8101 H   0  0  0  0  0  0  0  0  0  0  0  0
   -0.6022   -1.5283    1.1515 H   0  0  0  0  0  0  0  0  0  0  0  0
   -0.3488   -0.1948    2.3378 H   0  0  0  0  0  0  0  0  0  0  0  0
  1  2  1  0
  2  3  1  0
  3  4  1  0
  3  5  1  0
  5  6  1  0
  6  7  1  0
  7  8  1  0
  8  9  1  0
  9  5  1  0
  1 10  1  0
  1 11  1  0
  2 12  1  0
  2 13  1  0
  3 14  1  6
  4 15  1  0
  4 16  1  0
  5 17  1  1
  6 18  1  0
  6 19  1  0
  7 20  1  0
  7 21  1  0
  8 22  1  0
  9 23  1  0
  9 24  1  0
M  END
$$$$

     RDKit          3D

 24 24  0  0  0  0  0  0  0  0999 V2000
   -2.1862   -1.4868    0.7178 N   0  0  0  0  0  0  0  0  0  0  0  0
   -2.2295   -0.1885    0.1403 C   0  0  0  0  0  0  0  0  0  0  0  0
   -0.9933    0.6314    0.3262 C   0  0  2  0  0  0  0  0  0  0  0  0
   -1.2571    1.9165   -0.3417 N   0  0  0  0  0  0  0  0  0  0  0  0
    0.2338    0.0608   -0.2867 C   0  0  1  0  0  0  0  0  0  0  0  0
    1.3836    1.0223    0.0007 C   0  0  0  0  0  0  0  0  0  0  0  0
    2.5992    0.1620    0.2003 C   0  0  0  0  0  0  0  0  0  0  0  0
    2.0782   -1.0547    0.7168 N   0  0  0  0  0  0  0  0  0  0  0  0
    0.7193   -1.2078    0.3039 C   0  0  0  0  0  0  0  0  0  0  0  0
   -3.1244   -1.7607    1.0840 H   0  0  0  0  0  0  0  0  0  0  0  0
   -1.9624   -2.1868   -0.0330 H   0  0  0  0  0  0  0  0  0  0  0  0
   -2.4724   -0.2735   -0.9333 H   0  0  0  0  0  0  0  0  0  0  0  0
   -3.0710    0.3765    0.6172 H   0  0  0  0  0  0  0  0  0  0  0  0
   -0.7938    0.8761    1.3750 H   0  0  0  0  0  0  0  0  0  0  0  0
   -0.9656    1.8943   -1.3312 H   0  0  0  0  0  0  0  0  0  0  0  0
   -0.8666    2.7086    0.2002 H   0  0  0  0  0  0  0  0  0  0  0  0
    0.1480    0.0234   -1.4069 H   0  0  0  0  0  0  0  0  0  0  0  0
    1.5443    1.7165   -0.8396 H   0  0  0  0  0  0  0  0  0  0  0  0
    1.2176    1.5906    0.9422 H   0  0  0  0  0  0  0  0  0  0  0  0
    3.1753   -0.0101   -0.7121 H   0  0  0  0  0  0  0  0  0  0  0  0
    3.2929    0.6008    0.9609 H   0  0  0  0  0  0  0  0  0  0  0  0
    2.6706   -1.8585    0.4646 H   0  0  0  0  0  0  0  0  0  0  0  0
    0.1453   -1.5627    1.1880 H   0  0  0  0  0  0  0  0  0  0  0  0
    0.7142   -1.9897   -0.5117 H   0  0  0  0  0  0  0  0  0  0  0  0
  1  2  1  0
  2  3  1  0
  3  4  1  0
  3  5  1  0
  5  6  1  0
  6  7  1  0
  7  8  1  0
  8  9  1  0
  9  5  1  0
  1 10  1  0
  1 11  1  0
  2 12  1  0
  2 13  1  0
  3 14  1  1
  4 15  1  0
  4 16  1  0
  5 17  1  6
  6 18  1  0
  6 19  1  0
  7 20  1  0
  7 21  1  0
  8 22  1  0
  9 23  1  0
  9 24  1  0
M  END
$$$$
