
     RDKit          3D

 21 21  0  0  0  0  0  0  0  0999 V2000
    4.0031   -0.2520    0.0471 N   0  0  0  0  0  0  0  0  0  0  0  0
    2.4439    0.4121   -0.1624 S   0  0  0  0  0  6  0  0  0  0  0  0
    2.1240    1.3123    1.0389 O   0  0  0  0  0  0  0  0  0  0  0  0
    2.3118    1.2462   -1.3852 O   0  0  0  0  0  0  0  0  0  0  0  0
    1.2150   -0.8036   -0.1405 N   0  0  0  0  0  0  0  0  0  0  0  0
   -0.0395   -0.1635   -0.3891 C   0  0  0  0  0  0  0  0  0  0  0  0
   -1.1598   -0.7141    0.3976 C   0  0  0  0  0  0  0  0  0  0  0  0
   -1.8792    0.4755    1.1118 C   0  0  0  0  0  0  0  0  0  0  0  0
   -2.5421    0.6751   -0.1694 N   0  0  0  0  0  0  0  0  0  0  0  0
   -2.4950   -0.7810   -0.3009 C   0  0  0  0  0  0  0  0  0  0  0  0
    4.7183    0.1833   -0.5589 H   0  0  0  0  0  0  0  0  0  0  0  0
    4.0266   -1.2826    0.1027 H   0  0  0  0  0  0  0  0  0  0  0  0
    1.5114   -1.4437   -0.9431 H   0  0  0  0  0  0  0  0  0  0  0  0
   -0.3321   -0.4632   -1.4909 H   0  0  0  0  0  0  0  0  0  0  0  0
    0.0406    0.9199   -0.4335 H   0  0  0  0  0  0  0  0  0  0  0  0
   -0.9230   -1.5443    1.0894 H   0  0  0  0  0  0  0  0  0  0  0  0
   -1.2178    1.2882    1.4321 H   0  0  0  0  0  0  0  0  0  0  0  0
   -2.6351    0.1681    1.8489 H   0  0  0  0  0  0  0  0  0  0  0  0
   -3.5200    1.0483   -0.0424 H   0  0  0  0  0  0  0  0  0  0  0  0
   -3.3063   -1.2428    0.2823 H   0  0  0  0  0  0  0  0  0  0  0  0
   -2.3447   -1.1389   -1.3344 H   0  0  0  0  0  0  0  0  0  0  0  0
  1  2  1  0
  2  3  2  0
  2  4  2  0
  2  5  1  0
  5  6  1  0
  6  7  1  0
  7  8  1  0
  8  9  1  0
  9 10  1  0
 10  7  1  0
  1 11  1  0
  1 12  1  0
  5 13  1  0
  6 14  1  0
  6 15  1  0
  7 16  1  0
  8 17  1  0
  8 18  1  0
  9 19  1  0
 10 20  1  0
 10 21  1  0
M  END
$$$$

     RDKit          3D

 21 21  0  0  0  0  0  0  0  0999 V2000
    3.9390    0.5288    0.0166 N   0  0  0  0  0  0  0  0  0  0  0  0
    2.4931   -0.2073    0.5838 S   0  0  0  0  0  6  0  0  0  0  0  0
    2.3557   -0.2204    2.0556 O   0  0  0  0  0  0  0  0  0  0  0  0
    2.4851   -1.6734    0.1369 O   0  0  0  0  0  0  0  0  0  0  0  0
    1.1136    0.5061   -0.1596 N   0  0  0  0  0  0  0  0  0  0  0  0
   -0.0463   -0.1811    0.3909 C   0  0  0  0  0  0  0  0  0  0  0  0
   -1.1757   -0.2436   -0.5589 C   0  0  0  0  0  0  0  0  0  0  0  0
   -2.3394   -1.0534   -0.0141 C   0  0  0  0  0  0  0  0  0  0  0  0
   -2.9796    0.2028    0.3257 N   0  0  0  0  0  0  0  0  0  0  0  0
   -2.1455    0.8780   -0.6467 C   0  0  0  0  0  0  0  0  0  0  0  0
    4.3848   -0.0361   -0.7226 H   0  0  0  0  0  0  0  0  0  0  0  0
    3.6637    1.4445   -0.4140 H   0  0  0  0  0  0  0  0  0  0  0  0
    1.1005    1.5435   -0.0101 H   0  0  0  0  0  0  0  0  0  0  0  0
   -0.3637    0.3429    1.3576 H   0  0  0  0  0  0  0  0  0  0  0  0
    0.2350   -1.1877    0.7208 H   0  0  0  0  0  0  0  0  0  0  0  0
   -0.7956   -0.6031   -1.5531 H   0  0  0  0  0  0  0  0  0  0  0  0
   -2.8080   -1.6216   -0.8415 H   0  0  0  0  0  0  0  0  0  0  0  0
   -2.0406   -1.6486    0.8660 H   0  0  0  0  0  0  0  0  0  0  0  0
   -2.7088    0.4661    1.2865 H   0  0  0  0  0  0  0  0  0  0  0  0
   -1.7432    1.8579   -0.3301 H   0  0  0  0  0  0  0  0  0  0  0  0
   -2.6245    0.9056   -1.6565 H   0  0  0  0  0  0  0  0  0  0  0  0
  1  2  1  0
  2  3  2  0
  2  4  2  0
  2  5  1  0
  5  6  1  0
  6  7  1  0
  7  8  1  0
  8  9  1  0
  9 10  1  0
 10  7  1  0
  1 11  1  0
  1 12  1  0
  5 13  1  0
  6 14  1  0
  6 15  1  0
  7 16  1  0
  8 17  1  0
  8 18  1  0
  9 19  1  0
 10 20  1  0
 10 21  1  0
M  END
$$$$

     RDKit          3D

 21 21  0  0  0  0  0  0  0  0999 V2000
    3.0844    0.7003    0.9517 N   0  0  0  0  0  0  0  0  0  0  0  0
    2.6199   -0.2379   -0.4076 S   0  0  0  0  0  6  0  0  0  0  0  0
    2.5986   -1.6869   -0.0129 O   0  0  0  0  0  0  0  0  0  0  0  0
    3.5881   -0.0840   -1.5495 O   0  0  0  0  0  0  0  0  0  0  0  0
    1.0163    0.1861   -0.8877 N   0  0  0  0  0  0  0  0  0  0  0  0
    0.1014   -0.6640   -0.1631 C   0  0  0  0  0  0  0  0  0  0  0  0
   -1.3430   -0.3965   -0.4911 C   0  0  0  0  0  0  0  0  0  0  0  0
   -1.8049    1.0125   -0.1889 C   0  0  0  0  0  0  0  0  0  0  0  0
   -3.0561    0.4023    0.2855 N   0  0  0  0  0  0  0  0  0  0  0  0
   -2.2057   -0.7122    0.7386 C   0  0  0  0  0  0  0  0  0  0  0  0
    2.7381    1.6744    0.9208 H   0  0  0  0  0  0  0  0  0  0  0  0
    4.1040    0.6622    1.1198 H   0  0  0  0  0  0  0  0  0  0  0  0
    0.7984    1.1742   -0.6002 H   0  0  0  0  0  0  0  0  0  0  0  0
    0.2597   -0.5421    0.9098 H   0  0  0  0  0  0  0  0  0  0  0  0
    0.3115   -1.7131   -0.5090 H   0  0  0  0  0  0  0  0  0  0  0  0
   -1.7270   -0.8242   -1.4237 H   0  0  0  0  0  0  0  0  0  0  0  0
   -1.2093    1.4998    0.5907 H   0  0  0  0  0  0  0  0  0  0  0  0
   -1.9484    1.6546   -1.0776 H   0  0  0  0  0  0  0  0  0  0  0  0
   -3.5669    0.0516   -0.5794 H   0  0  0  0  0  0  0  0  0  0  0  0
   -1.6405   -0.4834    1.6671 H   0  0  0  0  0  0  0  0  0  0  0  0
   -2.7185   -1.6736    0.7068 H   0  0  0  0  0  0  0  0  0  0  0  0
  1  2  1  0
  2  3  2  0
  2  4  2  0
  2  5  1  0
  5  6  1  0
  6  7  1  0
  7  8  1  0
  8  9  1  0
  9 10  1  0
 10  7  1  0
  1 11  1  0
  1 12  1  0
  5 13  1  0
  6 14  1  0
  6 15  1  0
  7 16  1  0
  8 17  1  0
  8 18  1  0
  9 19  1  0
 10 20  1  0
 10 21  1  0
M  END
$$$$

     RDKit          3D

 21 21  0  0  0  0  0  0  0  0999 V2000
    3.1747   -0.4527    0.8737 N   0  0  0  0  0  0  0  0  0  0  0  0
    2.5738    0.9033   -0.0283 S   0  0  0  0  0  6  0  0  0  0  0  0
    3.6113    1.4140   -0.9908 O   0  0  0  0  0  0  0  0  0  0  0  0
    2.2370    1.9727    0.9782 O   0  0  0  0  0  0  0  0  0  0  0  0
    1.1707    0.3776   -0.8909 N   0  0  0  0  0  0  0  0  0  0  0  0
    0.0340    0.6050   -0.0423 C   0  0  0  0  0  0  0  0  0  0  0  0
   -1.2707    0.1916   -0.6656 C   0  0  0  0  0  0  0  0  0  0  0  0
   -2.4152    0.4559    0.2724 C   0  0  0  0  0  0  0  0  0  0  0  0
   -2.6838   -0.9585    0.4485 N   0  0  0  0  0  0  0  0  0  0  0  0
   -1.6465   -1.2546   -0.5059 C   0  0  0  0  0  0  0  0  0  0  0  0
    3.7764   -0.9981    0.1879 H   0  0  0  0  0  0  0  0  0  0  0  0
    2.3502   -1.0064    1.1810 H   0  0  0  0  0  0  0  0  0  0  0  0
    1.3171   -0.6115   -1.1346 H   0  0  0  0  0  0  0  0  0  0  0  0
   -0.0352    1.7154    0.1256 H   0  0  0  0  0  0  0  0  0  0  0  0
    0.1607    0.0505    0.8986 H   0  0  0  0  0  0  0  0  0  0  0  0
   -1.4889    0.5901   -1.6666 H   0  0  0  0  0  0  0  0  0  0  0  0
   -3.2986    0.9378   -0.1871 H   0  0  0  0  0  0  0  0  0  0  0  0
   -2.1464    0.9977    1.2162 H   0  0  0  0  0  0  0  0  0  0  0  0
   -2.4818   -1.3304    1.4049 H   0  0  0  0  0  0  0  0  0  0  0  0
   -0.8521   -1.8948   -0.0535 H   0  0  0  0  0  0  0  0  0  0  0  0
   -2.0865   -1.7048   -1.4214 H   0  0  0  0  0  0  0  0  0  0  0  0
  1  2  1  0
  2  3  2  0
  2  4  2  0
  2  5  1  0
  5  6  1  0
  6  7  1  0
  7  8  1  0
  8  9  1  0
  9 10  1  0
 10  7  1  0
  1 11  1  0
  1 12  1  0
  5 13  1  0
  6 14  1  0
  6 15  1  0
  7 16  1  0
  8 17  1  0
  8 18  1  0
  9 19  1  0
 10 20  1  0
 10 21  1  0
M  END
$$$$

     RDKit          3D

 21 21  0  0  0  0  0  0  0  0999 V2000
    2.8161    1.5666    1.1971 N   0  0  0  0  0  0  0  0  0  0  0  0
    2.4979    0.1961    0.2054 S   0  0  0  0  0  6  0  0  0  0  0  0
    2.9394   -1.0366    0.9359 O   0  0  0  0  0  0  0  0  0  0  0  0
    3.2381    0.3193   -1.0938 O   0  0  0  0  0  0  0  0  0  0  0  0
    0.7962    0.0392   -0.0697 N   0  0  0  0  0  0  0  0  0  0  0  0
    0.1601   -0.7634    0.9224 C   0  0  0  0  0  0  0  0  0  0  0  0
   -1.3224   -0.9041    0.6773 C   0  0  0  0  0  0  0  0  0  0  0  0
   -2.1182    0.3729    0.6592 C   0  0  0  0  0  0  0  0  0  0  0  0
   -1.8390    0.4714   -0.7516 N   0  0  0  0  0  0  0  0  0  0  0  0
   -1.6870   -0.9590   -0.7832 C   0  0  0  0  0  0  0  0  0  0  0  0
    2.1774    2.3658    1.0058 H   0  0  0  0  0  0  0  0  0  0  0  0
    3.8268    1.8175    1.1637 H   0  0  0  0  0  0  0  0  0  0  0  0
    0.3526    0.9851   -0.1852 H   0  0  0  0  0  0  0  0  0  0  0  0
    0.6464   -1.7626    0.9517 H   0  0  0  0  0  0  0  0  0  0  0  0
    0.3212   -0.3340    1.9543 H   0  0  0  0  0  0  0  0  0  0  0  0
   -1.7929   -1.7210    1.2911 H   0  0  0  0  0  0  0  0  0  0  0  0
   -1.7337    1.1986    1.2844 H   0  0  0  0  0  0  0  0  0  0  0  0
   -3.2004    0.1238    0.8424 H   0  0  0  0  0  0  0  0  0  0  0  0
   -2.5680    0.8622   -1.3548 H   0  0  0  0  0  0  0  0  0  0  0  0
   -0.8595   -1.3425   -1.4121 H   0  0  0  0  0  0  0  0  0  0  0  0
   -2.6510   -1.4953   -0.9075 H   0  0  0  0  0  0  0  0  0  0  0  0
  1  2  1  0
  2  3  2  0
  2  4  2  0
  2  5  1  0
  5  6  1  0
  6  7  1  0
  7  8  1  0
  8  9  1  0
  9 10  1  0
 10  7  1  0
  1 11  1  0
  1 12  1  0
  5 13  1  0
  6 14  1  0
  6 15  1  0
  7 16  1  0
  8 17  1  0
  8 18  1  0
  9 19  1  0
 10 20  1  0
 10 21  1  0
M  END
$$$$

     RDKit          3D

 21 21  0  0  0  0  0  0  0  0999 V2000
    3.3294    0.5790    0.4707 N   0  0  0  0  0  0  0  0  0  0  0  0
    2.3772   -0.3940   -0.5112 S   0  0  0  0  0  6  0  0  0  0  0  0
    3.0186   -0.7108   -1.8176 O   0  0  0  0  0  0  0  0  0  0  0  0
    2.1506   -1.7697    0.1700 O   0  0  0  0  0  0  0  0  0  0  0  0
    0.7779    0.3110   -0.8257 N   0  0  0  0  0  0  0  0  0  0  0  0
    0.2792    0.6380    0.4683 C   0  0  0  0  0  0  0  0  0  0  0  0
   -1.1216    0.1848    0.7032 C   0  0  0  0  0  0  0  0  0  0  0  0
   -2.3471    0.7528    0.1956 C   0  0  0  0  0  0  0  0  0  0  0  0
   -2.9219   -0.5818    0.3168 N   0  0  0  0  0  0  0  0  0  0  0  0
   -1.5917   -1.0243   -0.1254 C   0  0  0  0  0  0  0  0  0  0  0  0
    3.3821    0.2015    1.4428 H   0  0  0  0  0  0  0  0  0  0  0  0
    4.2493    0.7821    0.0422 H   0  0  0  0  0  0  0  0  0  0  0  0
    0.2698   -0.0835   -1.5238 H   0  0  0  0  0  0  0  0  0  0  0  0
    0.9189    0.5299    1.2351 H   0  0  0  0  0  0  0  0  0  0  0  0
    0.1061    1.8588    0.4082 H   0  0  0  0  0  0  0  0  0  0  0  0
   -1.2099   -0.1563    1.7886 H   0  0  0  0  0  0  0  0  0  0  0  0
   -2.7865    1.5223    0.8674 H   0  0  0  0  0  0  0  0  0  0  0  0
   -2.3137    1.0272   -0.8688 H   0  0  0  0  0  0  0  0  0  0  0  0
   -3.6869   -0.7802   -0.3650 H   0  0  0  0  0  0  0  0  0  0  0  0
   -1.3041   -2.0271    0.2182 H   0  0  0  0  0  0  0  0  0  0  0  0
   -1.5757   -0.8596   -1.2296 H   0  0  0  0  0  0  0  0  0  0  0  0
  1  2  1  0
  2  3  2  0
  2  4  2  0
  2  5  1  0
  5  6  1  0
  6  7  1  0
  7  8  1  0
  8  9  1  0
  9 10  1  0
 10  7  1  0
  1 11  1  0
  1 12  1  0
  5 13  1  0
  6 14  1  0
  6 15  1  0
  7 16  1  0
  8 17  1  0
  8 18  1  0
  9 19  1  0
 10 20  1  0
 10 21  1  0
M  END
$$$$

     RDKit          3D

 21 21  0  0  0  0  0  0  0  0999 V2000
    3.2326    0.6774    0.4625 N   0  0  0  0  0  0  0  0  0  0  0  0
    2.5775   -0.9743    0.3370 S   0  0  0  0  0  6  0  0  0  0  0  0
    2.6395   -1.6174    1.6812 O   0  0  0  0  0  0  0  0  0  0  0  0
    3.5403   -1.6801   -0.5586 O   0  0  0  0  0  0  0  0  0  0  0  0
    1.0482   -0.8608   -0.3309 N   0  0  0  0  0  0  0  0  0  0  0  0
   -0.0347   -0.6078    0.5710 C   0  0  0  0  0  0  0  0  0  0  0  0
   -1.0625    0.1627   -0.1555 C   0  0  0  0  0  0  0  0  0  0  0  0
   -2.4634   -0.3712   -0.1999 C   0  0  0  0  0  0  0  0  0  0  0  0
   -2.9740    0.9183    0.1672 N   0  0  0  0  0  0  0  0  0  0  0  0
   -1.6522    1.3216    0.6348 C   0  0  0  0  0  0  0  0  0  0  0  0
    4.2575    0.6403    0.5389 H   0  0  0  0  0  0  0  0  0  0  0  0
    2.8934    1.2416   -0.3407 H   0  0  0  0  0  0  0  0  0  0  0  0
    1.0384   -0.2176   -1.1351 H   0  0  0  0  0  0  0  0  0  0  0  0
   -0.5196   -1.5962    0.8589 H   0  0  0  0  0  0  0  0  0  0  0  0
    0.2963   -0.1727    1.5135 H   0  0  0  0  0  0  0  0  0  0  0  0
   -0.7315    0.5432   -1.1536 H   0  0  0  0  0  0  0  0  0  0  0  0
   -2.7913   -0.6597   -1.2435 H   0  0  0  0  0  0  0  0  0  0  0  0
   -2.6957   -1.1762    0.5259 H   0  0  0  0  0  0  0  0  0  0  0  0
   -3.6974    0.9139    0.9200 H   0  0  0  0  0  0  0  0  0  0  0  0
   -1.4911    1.2092    1.7200 H   0  0  0  0  0  0  0  0  0  0  0  0
   -1.4104    2.3060    0.2404 H   0  0  0  0  0  0  0  0  0  0  0  0
  1  2  1  0
  2  3  2  0
  2  4  2  0
  2  5  1  0
  5  6  1  0
  6  7  1  0
  7  8  1  0
  8  9  1  0
  9 10  1  0
 10  7  1  0
  1 11  1  0
  1 12  1  0
  5 13  1  0
  6 14  1  0
  6 15  1  0
  7 16  1  0
  8 17  1  0
  8 18  1  0
  9 19  1  0
 10 20  1  0
 10 21  1  0
M  END
$$$$

     RDKit          3D

 21 21  0  0  0  0  0  0  0  0999 V2000
    3.6170    0.2161   -0.2320 N   0  0  0  0  0  0  0  0  0  0  0  0
    2.3797    0.2420    0.9784 S   0  0  0  0  0  6  0  0  0  0  0  0
    2.0603    1.6252    1.4232 O   0  0  0  0  0  0  0  0  0  0  0  0
    2.9213   -0.5063    2.1880 O   0  0  0  0  0  0  0  0  0  0  0  0
    0.9631   -0.5543    0.4748 N   0  0  0  0  0  0  0  0  0  0  0  0
    0.0262    0.3343   -0.1955 C   0  0  0  0  0  0  0  0  0  0  0  0
   -1.2017   -0.4212   -0.6164 C   0  0  0  0  0  0  0  0  0  0  0  0
   -1.9863   -1.0727    0.4678 C   0  0  0  0  0  0  0  0  0  0  0  0
   -3.1054   -0.1958    0.1837 N   0  0  0  0  0  0  0  0  0  0  0  0
   -2.3642    0.5278   -0.8351 C   0  0  0  0  0  0  0  0  0  0  0  0
    3.8144    1.2247   -0.4903 H   0  0  0  0  0  0  0  0  0  0  0  0
    4.5204   -0.1417    0.1517 H   0  0  0  0  0  0  0  0  0  0  0  0
    1.2202   -1.3145   -0.1941 H   0  0  0  0  0  0  0  0  0  0  0  0
    0.5470    0.6812   -1.1204 H   0  0  0  0  0  0  0  0  0  0  0  0
   -0.2457    1.1985    0.4148 H   0  0  0  0  0  0  0  0  0  0  0  0
   -0.9809   -1.0680   -1.4921 H   0  0  0  0  0  0  0  0  0  0  0  0
   -1.5862   -1.0152    1.4930 H   0  0  0  0  0  0  0  0  0  0  0  0
   -2.3102   -2.1314    0.2676 H   0  0  0  0  0  0  0  0  0  0  0  0
   -3.3336    0.3664    1.0424 H   0  0  0  0  0  0  0  0  0  0  0  0
   -2.7676    0.4381   -1.8559 H   0  0  0  0  0  0  0  0  0  0  0  0
   -2.1877    1.5667   -0.4925 H   0  0  0  0  0  0  0  0  0  0  0  0
  1  2  1  0
  2  3  2  0
  2  4  2  0
  2  5  1  0
  5  6  1  0
  6  7  1  0
  7  8  1  0
  8  9  1  0
  9 10  1  0
 10  7  1  0
  1 11  1  0
  1 12  1  0
  5 13  1  0
  6 14  1  0
  6 15  1  0
  7 16  1  0
  8 17  1  0
  8 18  1  0
  9 19  1  0
 10 20  1  0
 10 21  1  0
M  END
$$$$
