
     RDKit          3D

 22 22  0  0  0  0  0  0  0  0999 V2000
    2.8885    0.1092   -1.2330 C   0  0  0  0  0  0  0  0  0  0  0  0
    1.8067    0.0608   -0.2698 N   0  0  0  0  0  0  0  0  0  0  0  0
    2.0545   -0.4947    0.9271 C   0  0  0  0  0  0  0  0  0  0  0  0
    3.1775   -0.9665    1.2332 O   0  0  0  0  0  0  0  0  0  0  0  0
    1.0533   -0.5509    1.8469 C   0  0  0  0  0  0  0  0  0  0  0  0
   -0.1697   -0.0567    1.5623 N   0  0  0  0  0  0  0  0  0  0  0  0
   -0.4365    0.4958    0.3878 N   0  0  0  0  0  0  0  0  0  0  0  0
   -1.7499    1.0326    0.0674 C   0  0  0  0  0  0  0  0  0  0  0  0
   -2.6456   -0.0096   -0.5557 C   0  0  0  0  0  0  0  0  0  0  0  0
   -2.8062   -1.0914    0.3688 N   0  0  0  0  0  0  0  0  0  0  0  0
    0.5749    0.5353   -0.4982 C   0  0  0  0  0  0  0  0  0  0  0  0
    0.3326    1.0610   -1.6246 O   0  0  0  0  0  0  0  0  0  0  0  0
    2.4839   -0.1301   -2.2359 H   0  0  0  0  0  0  0  0  0  0  0  0
    3.6590   -0.6227   -0.9807 H   0  0  0  0  0  0  0  0  0  0  0  0
    3.3263    1.1368   -1.2461 H   0  0  0  0  0  0  0  0  0  0  0  0
    1.2172   -0.9961    2.8331 H   0  0  0  0  0  0  0  0  0  0  0  0
   -1.6879    1.9263   -0.5947 H   0  0  0  0  0  0  0  0  0  0  0  0
   -2.2285    1.3425    1.0193 H   0  0  0  0  0  0  0  0  0  0  0  0
   -3.6358    0.4681   -0.7057 H   0  0  0  0  0  0  0  0  0  0  0  0
   -2.2968   -0.3248   -1.5562 H   0  0  0  0  0  0  0  0  0  0  0  0
   -2.5466   -2.0013   -0.0489 H   0  0  0  0  0  0  0  0  0  0  0  0
   -2.3711   -0.9235    1.3036 H   0  0  0  0  0  0  0  0  0  0  0  0
  1  2  1  0
  2  3  1  0
  3  4  2  0
  3  5  1  0
  5  6  2  0
  6  7  1  0
  7  8  1  0
  8  9  1  0
  9 10  1  0
  7 11  1  0
 11 12  2  0
 11  2  1  0
  1 13  1  0
  1 14  1  0
  1 15  1  0
  5 16  1  0
  8 17  1  0
  8 18  1  0
  9 19  1  0
  9 20  1  0
 10 21  1  0
 10 22  1  0
M  END
$$$$

     RDKit          3D

 22 22  0  0  0  0  0  0  0  0999 V2000
   -2.9682    1.1386   -0.8269 C   0  0  0  0  0  0  0  0  0  0  0  0
   -1.9851    0.1682   -0.3412 N   0  0  0  0  0  0  0  0  0  0  0  0
   -2.2927   -1.1320   -0.2197 C   0  0  0  0  0  0  0  0  0  0  0  0
   -3.4579   -1.4814   -0.5395 O   0  0  0  0  0  0  0  0  0  0  0  0
   -1.3528   -2.0209    0.2380 C   0  0  0  0  0  0  0  0  0  0  0  0
   -0.1287   -1.5562    0.5574 N   0  0  0  0  0  0  0  0  0  0  0  0
    0.2011   -0.2806    0.4473 N   0  0  0  0  0  0  0  0  0  0  0  0
    1.5412    0.1381    0.8123 C   0  0  0  0  0  0  0  0  0  0  0  0
    2.4905    0.0768   -0.3606 C   0  0  0  0  0  0  0  0  0  0  0  0
    3.7904    0.5113    0.1070 N   0  0  0  0  0  0  0  0  0  0  0  0
   -0.7383    0.5694   -0.0036 C   0  0  0  0  0  0  0  0  0  0  0  0
   -0.4127    1.7807   -0.1042 O   0  0  0  0  0  0  0  0  0  0  0  0
   -3.7542    1.2387   -0.0516 H   0  0  0  0  0  0  0  0  0  0  0  0
   -2.4678    2.1241   -0.9080 H   0  0  0  0  0  0  0  0  0  0  0  0
   -3.3307    0.7511   -1.7871 H   0  0  0  0  0  0  0  0  0  0  0  0
   -1.5985   -3.0891    0.3402 H   0  0  0  0  0  0  0  0  0  0  0  0
    1.5568    1.1784    1.2124 H   0  0  0  0  0  0  0  0  0  0  0  0
    1.8641   -0.5115    1.6537 H   0  0  0  0  0  0  0  0  0  0  0  0
    2.1292    0.8070   -1.1123 H   0  0  0  0  0  0  0  0  0  0  0  0
    2.5398   -0.9529   -0.7607 H   0  0  0  0  0  0  0  0  0  0  0  0
    4.5635   -0.0997   -0.2262 H   0  0  0  0  0  0  0  0  0  0  0  0
    3.8111    0.6417    1.1530 H   0  0  0  0  0  0  0  0  0  0  0  0
  1  2  1  0
  2  3  1  0
  3  4  2  0
  3  5  1  0
  5  6  2  0
  6  7  1  0
  7  8  1  0
  8  9  1  0
  9 10  1  0
  7 11  1  0
 11 12  2  0
 11  2  1  0
  1 13  1  0
  1 14  1  0
  1 15  1  0
  5 16  1  0
  8 17  1  0
  8 18  1  0
  9 19  1  0
  9 20  1  0
 10 21  1  0
 10 22  1  0
M  END
$$$$

     RDKit          3D

 22 22  0  0  0  0  0  0  0  0999 V2000
   -2.8988    0.7071    0.9540 C   0  0  0  0  0  0  0  0  0  0  0  0
   -1.8629    0.0760    0.1630 N   0  0  0  0  0  0  0  0  0  0  0  0
   -2.1407   -0.3250   -1.0917 C   0  0  0  0  0  0  0  0  0  0  0  0
   -3.2768   -0.1777   -1.6259 O   0  0  0  0  0  0  0  0  0  0  0  0
   -1.1185   -0.9207   -1.8026 C   0  0  0  0  0  0  0  0  0  0  0  0
    0.0982   -1.0819   -1.2395 N   0  0  0  0  0  0  0  0  0  0  0  0
    0.3654   -0.6865   -0.0077 N   0  0  0  0  0  0  0  0  0  0  0  0
    1.6705   -0.8650    0.5822 C   0  0  0  0  0  0  0  0  0  0  0  0
    2.5755    0.3333    0.3193 C   0  0  0  0  0  0  0  0  0  0  0  0
    2.7841    0.5686   -1.0787 N   0  0  0  0  0  0  0  0  0  0  0  0
   -0.6350   -0.1050    0.6841 C   0  0  0  0  0  0  0  0  0  0  0  0
   -0.3524    0.2671    1.8685 O   0  0  0  0  0  0  0  0  0  0  0  0
   -2.8255    0.3237    2.0008 H   0  0  0  0  0  0  0  0  0  0  0  0
   -3.8906    0.4914    0.5546 H   0  0  0  0  0  0  0  0  0  0  0  0
   -2.7679    1.8146    0.9130 H   0  0  0  0  0  0  0  0  0  0  0  0
   -1.3325   -1.2517   -2.8261 H   0  0  0  0  0  0  0  0  0  0  0  0
    2.1816   -1.7860    0.2410 H   0  0  0  0  0  0  0  0  0  0  0  0
    1.6081   -0.9494    1.7030 H   0  0  0  0  0  0  0  0  0  0  0  0
    3.5358    0.0937    0.8627 H   0  0  0  0  0  0  0  0  0  0  0  0
    2.1752    1.2352    0.8176 H   0  0  0  0  0  0  0  0  0  0  0  0
    2.2975    1.4653   -1.3696 H   0  0  0  0  0  0  0  0  0  0  0  0
    3.8096    0.7731   -1.2241 H   0  0  0  0  0  0  0  0  0  0  0  0
  1  2  1  0
  2  3  1  0
  3  4  2  0
  3  5  1  0
  5  6  2  0
  6  7  1  0
  7  8  1  0
  8  9  1  0
  9 10  1  0
  7 11  1  0
 11 12  2  0
 11  2  1  0
  1 13  1  0
  1 14  1  0
  1 15  1  0
  5 16  1  0
  8 17  1  0
  8 18  1  0
  9 19  1  0
  9 20  1  0
 10 21  1  0
 10 22  1  0
M  END
$$$$

     RDKit          3D

 22 22  0  0  0  0  0  0  0  0999 V2000
   -2.7854   -0.6724    0.6445 C   0  0  0  0  0  0  0  0  0  0  0  0
   -1.7145    0.0471   -0.0175 N   0  0  0  0  0  0  0  0  0  0  0  0
   -1.8905    1.3002   -0.4751 C   0  0  0  0  0  0  0  0  0  0  0  0
   -3.0254    1.8517   -0.3164 O   0  0  0  0  0  0  0  0  0  0  0  0
   -0.8604    1.9800   -1.1068 C   0  0  0  0  0  0  0  0  0  0  0  0
    0.3324    1.3759   -1.2635 N   0  0  0  0  0  0  0  0  0  0  0  0
    0.5090    0.1430   -0.8145 N   0  0  0  0  0  0  0  0  0  0  0  0
    1.7951   -0.5420   -0.9696 C   0  0  0  0  0  0  0  0  0  0  0  0
    2.6532   -0.2419    0.2530 C   0  0  0  0  0  0  0  0  0  0  0  0
    1.9982   -0.7080    1.4380 N   0  0  0  0  0  0  0  0  0  0  0  0
   -0.5032   -0.5105   -0.1998 C   0  0  0  0  0  0  0  0  0  0  0  0
   -0.3625   -1.6963    0.2421 O   0  0  0  0  0  0  0  0  0  0  0  0
   -3.4908   -1.1124   -0.1134 H   0  0  0  0  0  0  0  0  0  0  0  0
   -2.3978   -1.4459    1.3421 H   0  0  0  0  0  0  0  0  0  0  0  0
   -3.3871    0.0232    1.2913 H   0  0  0  0  0  0  0  0  0  0  0  0
   -1.0637    2.9908   -1.4550 H   0  0  0  0  0  0  0  0  0  0  0  0
    2.2867   -0.2007   -1.9003 H   0  0  0  0  0  0  0  0  0  0  0  0
    1.5714   -1.6259   -1.0245 H   0  0  0  0  0  0  0  0  0  0  0  0
    3.6276   -0.7415    0.1241 H   0  0  0  0  0  0  0  0  0  0  0  0
    2.8073    0.8445    0.3536 H   0  0  0  0  0  0  0  0  0  0  0  0
    1.2529   -0.0581    1.7696 H   0  0  0  0  0  0  0  0  0  0  0  0
    2.6473   -1.0009    2.1980 H   0  0  0  0  0  0  0  0  0  0  0  0
  1  2  1  0
  2  3  1  0
  3  4  2  0
  3  5  1  0
  5  6  2  0
  6  7  1  0
  7  8  1  0
  8  9  1  0
  9 10  1  0
  7 11  1  0
 11 12  2  0
 11  2  1  0
  1 13  1  0
  1 14  1  0
  1 15  1  0
  5 16  1  0
  8 17  1  0
  8 18  1  0
  9 19  1  0
  9 20  1  0
 10 21  1  0
 10 22  1  0
M  END
$$$$

     RDKit          3D

 22 22  0  0  0  0  0  0  0  0999 V2000
   -2.9079    0.8198   -0.7836 C   0  0  0  0  0  0  0  0  0  0  0  0
   -1.8159    0.1629   -0.0898 N   0  0  0  0  0  0  0  0  0  0  0  0
   -1.9663   -0.2180    1.1848 C   0  0  0  0  0  0  0  0  0  0  0  0
   -3.0896    0.0232    1.7346 O   0  0  0  0  0  0  0  0  0  0  0  0
   -0.9551   -0.8488    1.8926 C   0  0  0  0  0  0  0  0  0  0  0  0
    0.1964   -1.0622    1.2309 N   0  0  0  0  0  0  0  0  0  0  0  0
    0.3365   -0.6809   -0.0335 N   0  0  0  0  0  0  0  0  0  0  0  0
    1.5806   -0.9035   -0.7718 C   0  0  0  0  0  0  0  0  0  0  0  0
    2.4983    0.2864   -0.5924 C   0  0  0  0  0  0  0  0  0  0  0  0
    2.7757    0.4288    0.8073 N   0  0  0  0  0  0  0  0  0  0  0  0
   -0.6483   -0.0665   -0.7232 C   0  0  0  0  0  0  0  0  0  0  0  0
   -0.5377    0.3002   -1.9122 O   0  0  0  0  0  0  0  0  0  0  0  0
   -2.4824    1.6945   -1.3409 H   0  0  0  0  0  0  0  0  0  0  0  0
   -3.6384    1.1789   -0.0385 H   0  0  0  0  0  0  0  0  0  0  0  0
   -3.3289    0.0726   -1.4886 H   0  0  0  0  0  0  0  0  0  0  0  0
   -1.1066   -1.1454    2.9238 H   0  0  0  0  0  0  0  0  0  0  0  0
    2.0909   -1.7604   -0.2481 H   0  0  0  0  0  0  0  0  0  0  0  0
    1.4085   -1.1600   -1.8174 H   0  0  0  0  0  0  0  0  0  0  0  0
    3.4208    0.0512   -1.1914 H   0  0  0  0  0  0  0  0  0  0  0  0
    2.0682    1.2142   -1.0271 H   0  0  0  0  0  0  0  0  0  0  0  0
    2.3134    1.2541    1.2431 H   0  0  0  0  0  0  0  0  0  0  0  0
    3.7878    0.3589    1.0413 H   0  0  0  0  0  0  0  0  0  0  0  0
  1  2  1  0
  2  3  1  0
  3  4  2  0
  3  5  1  0
  5  6  2  0
  6  7  1  0
  7  8  1  0
  8  9  1  0
  9 10  1  0
  7 11  1  0
 11 12  2  0
 11  2  1  0
  1 13  1  0
  1 14  1  0
  1 15  1  0
  5 16  1  0
  8 17  1  0
  8 18  1  0
  9 19  1  0
  9 20  1  0
 10 21  1  0
 10 22  1  0
M  END
$$$$

     RDKit          3D

 22 22  0  0  0  0  0  0  0  0999 V2000
    3.0284   -1.1235   -0.2862 C   0  0  0  0  0  0  0  0  0  0  0  0
    1.9777   -0.1536   -0.0943 N   0  0  0  0  0  0  0  0  0  0  0  0
    2.1970    1.1424   -0.3705 C   0  0  0  0  0  0  0  0  0  0  0  0
    3.3406    1.4576   -0.7955 O   0  0  0  0  0  0  0  0  0  0  0  0
    1.2268    2.1016   -0.2033 C   0  0  0  0  0  0  0  0  0  0  0  0
    0.0176    1.6955    0.2575 N   0  0  0  0  0  0  0  0  0  0  0  0
   -0.2278    0.4230    0.5386 N   0  0  0  0  0  0  0  0  0  0  0  0
   -1.5255    0.0394    1.0249 C   0  0  0  0  0  0  0  0  0  0  0  0
   -2.4850   -0.3228   -0.0711 C   0  0  0  0  0  0  0  0  0  0  0  0
   -3.7501   -0.6870    0.5829 N   0  0  0  0  0  0  0  0  0  0  0  0
    0.7525   -0.4822    0.3596 C   0  0  0  0  0  0  0  0  0  0  0  0
    0.5055   -1.6742    0.6285 O   0  0  0  0  0  0  0  0  0  0  0  0
    3.8323   -0.6675   -0.8983 H   0  0  0  0  0  0  0  0  0  0  0  0
    2.6758   -2.0124   -0.8647 H   0  0  0  0  0  0  0  0  0  0  0  0
    3.4913   -1.4640    0.6597 H   0  0  0  0  0  0  0  0  0  0  0  0
    1.4445    3.1266   -0.4363 H   0  0  0  0  0  0  0  0  0  0  0  0
   -1.9869    0.8827    1.5940 H   0  0  0  0  0  0  0  0  0  0  0  0
   -1.4412   -0.8198    1.7139 H   0  0  0  0  0  0  0  0  0  0  0  0
   -2.6224    0.4650   -0.8180 H   0  0  0  0  0  0  0  0  0  0  0  0
   -2.0982   -1.2217   -0.5884 H   0  0  0  0  0  0  0  0  0  0  0  0
   -4.5617   -0.3891    0.0207 H   0  0  0  0  0  0  0  0  0  0  0  0
   -3.7912   -0.3161    1.5491 H   0  0  0  0  0  0  0  0  0  0  0  0
  1  2  1  0
  2  3  1  0
  3  4  2  0
  3  5  1  0
  5  6  2  0
  6  7  1  0
  7  8  1  0
  8  9  1  0
  9 10  1  0
  7 11  1  0
 11 12  2  0
 11  2  1  0
  1 13  1  0
  1 14  1  0
  1 15  1  0
  5 16  1  0
  8 17  1  0
  8 18  1  0
  9 19  1  0
  9 20  1  0
 10 21  1  0
 10 22  1  0
M  END
$$$$

     RDKit          3D

 22 22  0  0  0  0  0  0  0  0999 V2000
    2.9014   -0.9398    0.8553 C   0  0  0  0  0  0  0  0  0  0  0  0
    1.9512   -0.0201    0.2579 N   0  0  0  0  0  0  0  0  0  0  0  0
    2.3579    0.9821   -0.5065 C   0  0  0  0  0  0  0  0  0  0  0  0
    3.5852    1.1292   -0.7106 O   0  0  0  0  0  0  0  0  0  0  0  0
    1.4132    1.8274   -1.0499 C   0  0  0  0  0  0  0  0  0  0  0  0
    0.0955    1.6159   -0.7916 N   0  0  0  0  0  0  0  0  0  0  0  0
   -0.3081    0.6146   -0.0280 N   0  0  0  0  0  0  0  0  0  0  0  0
   -1.6819    0.3636    0.2636 C   0  0  0  0  0  0  0  0  0  0  0  0
   -2.3780   -0.5432   -0.6950 C   0  0  0  0  0  0  0  0  0  0  0  0
   -3.7558   -0.6931   -0.2582 N   0  0  0  0  0  0  0  0  0  0  0  0
    0.6340   -0.1864    0.4832 C   0  0  0  0  0  0  0  0  0  0  0  0
    0.2851   -1.1356    1.2043 O   0  0  0  0  0  0  0  0  0  0  0  0
    3.4111   -1.5016    0.0515 H   0  0  0  0  0  0  0  0  0  0  0  0
    3.6587   -0.3801    1.4408 H   0  0  0  0  0  0  0  0  0  0  0  0
    2.4001   -1.6716    1.5195 H   0  0  0  0  0  0  0  0  0  0  0  0
    1.7718    2.6367   -1.6696 H   0  0  0  0  0  0  0  0  0  0  0  0
   -2.2185    1.3561    0.2075 H   0  0  0  0  0  0  0  0  0  0  0  0
   -1.8388    0.0208    1.3153 H   0  0  0  0  0  0  0  0  0  0  0  0
   -2.3739   -0.0868   -1.7033 H   0  0  0  0  0  0  0  0  0  0  0  0
   -1.9626   -1.5501   -0.7623 H   0  0  0  0  0  0  0  0  0  0  0  0
   -3.9426   -0.1541    0.6169 H   0  0  0  0  0  0  0  0  0  0  0  0
   -4.0050   -1.6841   -0.0405 H   0  0  0  0  0  0  0  0  0  0  0  0
  1  2  1  0
  2  3  1  0
  3  4  2  0
  3  5  1  0
  5  6  2  0
  6  7  1  0
  7  8  1  0
  8  9  1  0
  9 10  1  0
  7 11  1  0
 11 12  2  0
 11  2  1  0
  1 13  1  0
  1 14  1  0
  1 15  1  0
  5 16  1  0
  8 17  1  0
  8 18  1  0
  9 19  1  0
  9 20  1  0
 10 21  1  0
 10 22  1  0
M  END
$$$$

     RDKit          3D

 22 22  0  0  0  0  0  0  0  0999 V2000
    2.7658    1.4421   -0.6477 C   0  0  0  0  0  0  0  0  0  0  0  0
    1.8863    0.5023    0.0225 N   0  0  0  0  0  0  0  0  0  0  0  0
    2.4480   -0.5428    0.6508 C   0  0  0  0  0  0  0  0  0  0  0  0
    3.6915   -0.7182    0.6689 O   0  0  0  0  0  0  0  0  0  0  0  0
    1.6278   -1.4545    1.2984 C   0  0  0  0  0  0  0  0  0  0  0  0
    0.2968   -1.2668    1.2791 N   0  0  0  0  0  0  0  0  0  0  0  0
   -0.2697   -0.2424    0.6645 N   0  0  0  0  0  0  0  0  0  0  0  0
   -1.6872   -0.0186    0.6285 C   0  0  0  0  0  0  0  0  0  0  0  0
   -2.3583   -0.6733   -0.5492 C   0  0  0  0  0  0  0  0  0  0  0  0
   -3.7773   -0.3975   -0.5057 N   0  0  0  0  0  0  0  0  0  0  0  0
    0.5466    0.6316    0.0413 C   0  0  0  0  0  0  0  0  0  0  0  0
    0.0858    1.6443   -0.5738 O   0  0  0  0  0  0  0  0  0  0  0  0
    2.9055    1.0950   -1.7061 H   0  0  0  0  0  0  0  0  0  0  0  0
    3.7495    1.5055   -0.1479 H   0  0  0  0  0  0  0  0  0  0  0  0
    2.3085    2.4696   -0.6722 H   0  0  0  0  0  0  0  0  0  0  0  0
    2.0983   -2.2889    1.7983 H   0  0  0  0  0  0  0  0  0  0  0  0
   -2.1205   -0.4268    1.5544 H   0  0  0  0  0  0  0  0  0  0  0  0
   -1.8484    1.0769    0.5967 H   0  0  0  0  0  0  0  0  0  0  0  0
   -2.1411   -1.7321   -0.6520 H   0  0  0  0  0  0  0  0  0  0  0  0
   -1.9641   -0.1675   -1.4781 H   0  0  0  0  0  0  0  0  0  0  0  0
   -4.2965   -1.0246    0.1507 H   0  0  0  0  0  0  0  0  0  0  0  0
   -3.9476    0.5867   -0.2136 H   0  0  0  0  0  0  0  0  0  0  0  0
  1  2  1  0
  2  3  1  0
  3  4  2  0
  3  5  1  0
  5  6  2  0
  6  7  1  0
  7  8  1  0
  8  9  1  0
  9 10  1  0
  7 11  1  0
 11 12  2  0
 11  2  1  0
  1 13  1  0
  1 14  1  0
  1 15  1  0
  5 16  1  0
  8 17  1  0
  8 18  1  0
  9 19  1  0
  9 20  1  0
 10 21  1  0
 10 22  1  0
M  END
$$$$
