
     RDKit          3D

 21 21  0  0  0  0  0  0  0  0999 V2000
   -2.9938   -1.2357   -0.6402 N   0  0  0  0  0  0  0  0  0  0  0  0
   -1.9949   -0.5210    0.1238 C   0  0  2  0  0  0  0  0  0  0  0  0
   -2.2943    0.9181    0.0576 C   0  0  0  0  0  0  0  0  0  0  0  0
   -3.2827    1.3417   -0.5872 O   0  0  0  0  0  0  0  0  0  0  0  0
   -1.5123    1.8831    0.6956 O   0  0  0  0  0  0  0  0  0  0  0  0
   -0.6215   -0.8088   -0.3753 C   0  0  0  0  0  0  0  0  0  0  0  0
   -0.4007   -1.5790   -1.3389 O   0  0  0  0  0  0  0  0  0  0  0  0
    0.4821   -0.1956    0.2540 N   0  0  0  0  0  0  0  0  0  0  0  0
    1.8555   -0.3937   -0.1357 C   0  0  0  0  0  0  0  0  0  0  0  0
    2.9855   -0.2133    0.7723 C   0  0  0  0  0  0  0  0  0  0  0  0
    2.6639    0.9054   -0.1455 C   0  0  0  0  0  0  0  0  0  0  0  0
   -3.2063   -2.1656   -0.2575 H   0  0  0  0  0  0  0  0  0  0  0  0
   -2.7020   -1.3168   -1.6370 H   0  0  0  0  0  0  0  0  0  0  0  0
   -2.1050   -0.8481    1.1823 H   0  0  0  0  0  0  0  0  0  0  0  0
   -1.4218    2.8255    0.3386 H   0  0  0  0  0  0  0  0  0  0  0  0
    0.3139    0.4533    1.0639 H   0  0  0  0  0  0  0  0  0  0  0  0
    1.9744   -1.0881   -0.9958 H   0  0  0  0  0  0  0  0  0  0  0  0
    3.9179   -0.7699    0.5256 H   0  0  0  0  0  0  0  0  0  0  0  0
    2.8755   -0.0636    1.8696 H   0  0  0  0  0  0  0  0  0  0  0  0
    3.2296    1.0711   -1.0802 H   0  0  0  0  0  0  0  0  0  0  0  0
    2.2371    1.8009    0.3100 H   0  0  0  0  0  0  0  0  0  0  0  0
  1  2  1  0
  2  3  1  0
  3  4  2  0
  3  5  1  0
  2  6  1  0
  6  7  2  0
  6  8  1  0
  8  9  1  0
  9 10  1  0
 10 11  1  0
 11  9  1  0
  1 12  1  0
  1 13  1  0
  2 14  1  1
  5 15  1  0
  8 16  1  0
  9 17  1  0
 10 18  1  0
 10 19  1  0
 11 20  1  0
 11 21  1  0
M  END
$$$$

     RDKit          3D

 21 21  0  0  0  0  0  0  0  0999 V2000
    2.6465   -0.4902   -1.4537 N   0  0  0  0  0  0  0  0  0  0  0  0
    1.7882    0.2519   -0.5829 C   0  0  2  0  0  0  0  0  0  0  0  0
    2.3022    0.2478    0.8077 C   0  0  0  0  0  0  0  0  0  0  0  0
    1.7165    0.8339    1.7478 O   0  0  0  0  0  0  0  0  0  0  0  0
    3.4791   -0.4257    1.1075 O   0  0  0  0  0  0  0  0  0  0  0  0
    0.4007   -0.2708   -0.6758 C   0  0  0  0  0  0  0  0  0  0  0  0
    0.1362   -1.2368   -1.4481 O   0  0  0  0  0  0  0  0  0  0  0  0
   -0.6795    0.2615    0.0699 N   0  0  0  0  0  0  0  0  0  0  0  0
   -2.0402   -0.2511   -0.0212 C   0  0  0  0  0  0  0  0  0  0  0  0
   -2.8800   -0.2633    1.2184 C   0  0  0  0  0  0  0  0  0  0  0  0
   -3.1883    0.6818    0.1188 C   0  0  0  0  0  0  0  0  0  0  0  0
    2.4374   -1.5154   -1.3837 H   0  0  0  0  0  0  0  0  0  0  0  0
    3.6369   -0.3401   -1.1380 H   0  0  0  0  0  0  0  0  0  0  0  0
    1.7707    1.3099   -0.9240 H   0  0  0  0  0  0  0  0  0  0  0  0
    4.1390   -0.0786    1.7965 H   0  0  0  0  0  0  0  0  0  0  0  0
   -0.4987    1.0611    0.7191 H   0  0  0  0  0  0  0  0  0  0  0  0
   -2.2074   -1.1003   -0.7173 H   0  0  0  0  0  0  0  0  0  0  0  0
   -3.4861   -1.1629    1.4149 H   0  0  0  0  0  0  0  0  0  0  0  0
   -2.4422    0.1569    2.1631 H   0  0  0  0  0  0  0  0  0  0  0  0
   -4.0843    0.5747   -0.5197 H   0  0  0  0  0  0  0  0  0  0  0  0
   -2.9467    1.7557    0.3248 H   0  0  0  0  0  0  0  0  0  0  0  0
  1  2  1  0
  2  3  1  0
  3  4  2  0
  3  5  1  0
  2  6  1  0
  6  7  2  0
  6  8  1  0
  8  9  1  0
  9 10  1  0
 10 11  1  0
 11  9  1  0
  1 12  1  0
  1 13  1  0
  2 14  1  6
  5 15  1  0
  8 16  1  0
  9 17  1  0
 10 18  1  0
 10 19  1  0
 11 20  1  0
 11 21  1  0
M  END
$$$$

     RDKit          3D

 21 21  0  0  0  0  0  0  0  0999 V2000
    2.7401    1.4895    0.5761 N   0  0  0  0  0  0  0  0  0  0  0  0
    1.7379    0.5087    0.8766 C   0  0  2  0  0  0  0  0  0  0  0  0
    2.3122   -0.8376    0.5214 C   0  0  0  0  0  0  0  0  0  0  0  0
    1.6332   -1.8819    0.6886 O   0  0  0  0  0  0  0  0  0  0  0  0
    3.5880   -0.9768    0.0058 O   0  0  0  0  0  0  0  0  0  0  0  0
    0.4826    0.7407    0.1198 C   0  0  0  0  0  0  0  0  0  0  0  0
    0.4437    1.7233   -0.6605 O   0  0  0  0  0  0  0  0  0  0  0  0
   -0.6506   -0.1029    0.2538 N   0  0  0  0  0  0  0  0  0  0  0  0
   -1.8680    0.1413   -0.4950 C   0  0  0  0  0  0  0  0  0  0  0  0
   -2.7113   -0.9762   -0.9735 C   0  0  0  0  0  0  0  0  0  0  0  0
   -3.1890   -0.0696    0.1832 C   0  0  0  0  0  0  0  0  0  0  0  0
    2.8349    2.2401    1.2853 H   0  0  0  0  0  0  0  0  0  0  0  0
    2.7123    1.8302   -0.3998 H   0  0  0  0  0  0  0  0  0  0  0  0
    1.5096    0.5604    1.9707 H   0  0  0  0  0  0  0  0  0  0  0  0
    3.8479   -1.7175   -0.6480 H   0  0  0  0  0  0  0  0  0  0  0  0
   -0.5709   -0.9060    0.9136 H   0  0  0  0  0  0  0  0  0  0  0  0
   -1.8251    1.0323   -1.1664 H   0  0  0  0  0  0  0  0  0  0  0  0
   -2.5282   -2.0292   -0.6664 H   0  0  0  0  0  0  0  0  0  0  0  0
   -3.2641   -0.8672   -1.9363 H   0  0  0  0  0  0  0  0  0  0  0  0
   -4.0235    0.6238   -0.0744 H   0  0  0  0  0  0  0  0  0  0  0  0
   -3.2117   -0.5254    1.1949 H   0  0  0  0  0  0  0  0  0  0  0  0
  1  2  1  0
  2  3  1  0
  3  4  2  0
  3  5  1  0
  2  6  1  0
  6  7  2  0
  6  8  1  0
  8  9  1  0
  9 10  1  0
 10 11  1  0
 11  9  1  0
  1 12  1  0
  1 13  1  0
  2 14  1  1
  5 15  1  0
  8 16  1  0
  9 17  1  0
 10 18  1  0
 10 19  1  0
 11 20  1  0
 11 21  1  0
M  END
$$$$

     RDKit          3D

 21 21  0  0  0  0  0  0  0  0999 V2000
   -2.7659    1.4237   -0.3393 N   0  0  0  0  0  0  0  0  0  0  0  0
   -1.9262    0.2630   -0.1624 C   0  0  2  0  0  0  0  0  0  0  0  0
   -2.1671   -0.4394    1.0979 C   0  0  0  0  0  0  0  0  0  0  0  0
   -1.5138   -1.4699    1.3959 O   0  0  0  0  0  0  0  0  0  0  0  0
   -3.1131   -0.0156    2.0192 O   0  0  0  0  0  0  0  0  0  0  0  0
   -0.5086    0.6121   -0.3902 C   0  0  0  0  0  0  0  0  0  0  0  0
   -0.2364    1.8123   -0.6908 O   0  0  0  0  0  0  0  0  0  0  0  0
    0.5601   -0.2977   -0.2961 N   0  0  0  0  0  0  0  0  0  0  0  0
    1.8942    0.1547   -0.5385 C   0  0  0  0  0  0  0  0  0  0  0  0
    3.0763   -0.5354    0.0222 C   0  0  0  0  0  0  0  0  0  0  0  0
    2.7144   -0.8500   -1.3766 C   0  0  0  0  0  0  0  0  0  0  0  0
   -2.8946    1.6534   -1.3600 H   0  0  0  0  0  0  0  0  0  0  0  0
   -2.3600    2.2726    0.1098 H   0  0  0  0  0  0  0  0  0  0  0  0
   -2.2060   -0.4469   -0.9959 H   0  0  0  0  0  0  0  0  0  0  0  0
   -3.3796   -0.5777    2.8290 H   0  0  0  0  0  0  0  0  0  0  0  0
    0.3176   -1.2946   -0.0448 H   0  0  0  0  0  0  0  0  0  0  0  0
    2.0149    1.2240   -0.7934 H   0  0  0  0  0  0  0  0  0  0  0  0
    3.9946    0.0724    0.1516 H   0  0  0  0  0  0  0  0  0  0  0  0
    2.9704   -1.3184    0.8037 H   0  0  0  0  0  0  0  0  0  0  0  0
    3.2304   -0.3875   -2.2333 H   0  0  0  0  0  0  0  0  0  0  0  0
    2.2982   -1.8551   -1.5458 H   0  0  0  0  0  0  0  0  0  0  0  0
  1  2  1  0
  2  3  1  0
  3  4  2  0
  3  5  1  0
  2  6  1  0
  6  7  2  0
  6  8  1  0
  8  9  1  0
  9 10  1  0
 10 11  1  0
 11  9  1  0
  1 12  1  0
  1 13  1  0
  2 14  1  6
  5 15  1  0
  8 16  1  0
  9 17  1  0
 10 18  1  0
 10 19  1  0
 11 20  1  0
 11 21  1  0
M  END
$$$$

     RDKit          3D

 21 21  0  0  0  0  0  0  0  0999 V2000
   -1.7578   -1.3018   -0.8787 N   0  0  0  0  0  0  0  0  0  0  0  0
   -1.8701   -0.6457    0.3906 C   0  0  2  0  0  0  0  0  0  0  0  0
   -2.8247    0.5041    0.3467 C   0  0  0  0  0  0  0  0  0  0  0  0
   -3.3927    0.7597   -0.7274 O   0  0  0  0  0  0  0  0  0  0  0  0
   -3.0722    1.2620    1.4601 O   0  0  0  0  0  0  0  0  0  0  0  0
   -0.5433   -0.0977    0.8266 C   0  0  0  0  0  0  0  0  0  0  0  0
   -0.4586    0.5112    1.9215 O   0  0  0  0  0  0  0  0  0  0  0  0
    0.6231   -0.2377    0.0536 N   0  0  0  0  0  0  0  0  0  0  0  0
    1.8868    0.3116    0.5195 C   0  0  0  0  0  0  0  0  0  0  0  0
    3.1574   -0.4280    0.2630 C   0  0  0  0  0  0  0  0  0  0  0  0
    2.8516    0.8690   -0.4576 C   0  0  0  0  0  0  0  0  0  0  0  0
   -2.4056   -0.8300   -1.5473 H   0  0  0  0  0  0  0  0  0  0  0  0
   -2.0815   -2.3009   -0.8317 H   0  0  0  0  0  0  0  0  0  0  0  0
   -2.2436   -1.3740    1.1312 H   0  0  0  0  0  0  0  0  0  0  0  0
   -3.4934    2.1981    1.4267 H   0  0  0  0  0  0  0  0  0  0  0  0
    0.5381   -0.7458   -0.8538 H   0  0  0  0  0  0  0  0  0  0  0  0
    1.8489    0.8290    1.4980 H   0  0  0  0  0  0  0  0  0  0  0  0
    3.1237   -1.3801   -0.3000 H   0  0  0  0  0  0  0  0  0  0  0  0
    3.9766   -0.4247    1.0328 H   0  0  0  0  0  0  0  0  0  0  0  0
    2.7176    0.7379   -1.5490 H   0  0  0  0  0  0  0  0  0  0  0  0
    3.4199    1.7838   -0.1898 H   0  0  0  0  0  0  0  0  0  0  0  0
  1  2  1  0
  2  3  1  0
  3  4  2  0
  3  5  1  0
  2  6  1  0
  6  7  2  0
  6  8  1  0
  8  9  1  0
  9 10  1  0
 10 11  1  0
 11  9  1  0
  1 12  1  0
  1 13  1  0
  2 14  1  1
  5 15  1  0
  8 16  1  0
  9 17  1  0
 10 18  1  0
 10 19  1  0
 11 20  1  0
 11 21  1  0
M  END
$$$$

     RDKit          3D

 21 21  0  0  0  0  0  0  0  0999 V2000
    2.8919    1.3988   -0.6045 N   0  0  0  0  0  0  0  0  0  0  0  0
    1.9142    0.6448    0.1142 C   0  0  2  0  0  0  0  0  0  0  0  0
    2.3846   -0.7548    0.2506 C   0  0  0  0  0  0  0  0  0  0  0  0
    3.4825   -1.0880   -0.2367 O   0  0  0  0  0  0  0  0  0  0  0  0
    1.6325   -1.7235    0.9132 O   0  0  0  0  0  0  0  0  0  0  0  0
    0.5678    0.6945   -0.5189 C   0  0  0  0  0  0  0  0  0  0  0  0
    0.3523    1.3416   -1.5957 O   0  0  0  0  0  0  0  0  0  0  0  0
   -0.5208    0.0255    0.0518 N   0  0  0  0  0  0  0  0  0  0  0  0
   -1.8598    0.0073   -0.4750 C   0  0  0  0  0  0  0  0  0  0  0  0
   -2.9198    0.2120    0.6248 C   0  0  0  0  0  0  0  0  0  0  0  0
   -2.8306   -1.0460   -0.1833 C   0  0  0  0  0  0  0  0  0  0  0  0
    2.5181    1.9678   -1.3883 H   0  0  0  0  0  0  0  0  0  0  0  0
    3.5046    1.9589    0.0011 H   0  0  0  0  0  0  0  0  0  0  0  0
    1.8788    1.0568    1.1624 H   0  0  0  0  0  0  0  0  0  0  0  0
    1.9114   -2.6924    0.8588 H   0  0  0  0  0  0  0  0  0  0  0  0
   -0.3602   -0.5109    0.9386 H   0  0  0  0  0  0  0  0  0  0  0  0
   -1.9809    0.5883   -1.4124 H   0  0  0  0  0  0  0  0  0  0  0  0
   -3.7033    0.9637    0.4067 H   0  0  0  0  0  0  0  0  0  0  0  0
   -2.6232    0.1161    1.6670 H   0  0  0  0  0  0  0  0  0  0  0  0
   -3.6622   -1.1739   -0.9107 H   0  0  0  0  0  0  0  0  0  0  0  0
   -2.5779   -1.9867    0.3363 H   0  0  0  0  0  0  0  0  0  0  0  0
  1  2  1  0
  2  3  1  0
  3  4  2  0
  3  5  1  0
  2  6  1  0
  6  7  2  0
  6  8  1  0
  8  9  1  0
  9 10  1  0
 10 11  1  0
 11  9  1  0
  1 12  1  0
  1 13  1  0
  2 14  1  1
  5 15  1  0
  8 16  1  0
  9 17  1  0
 10 18  1  0
 10 19  1  0
 11 20  1  0
 11 21  1  0
M  END
$$$$

     RDKit          3D

 21 21  0  0  0  0  0  0  0  0999 V2000
    1.7972   -0.6684    1.5108 N   0  0  0  0  0  0  0  0  0  0  0  0
    1.8256   -0.6939    0.0719 C   0  0  2  0  0  0  0  0  0  0  0  0
    2.8763    0.2067   -0.4359 C   0  0  0  0  0  0  0  0  0  0  0  0
    3.5676    0.8401    0.3966 O   0  0  0  0  0  0  0  0  0  0  0  0
    3.1595    0.4072   -1.7780 O   0  0  0  0  0  0  0  0  0  0  0  0
    0.5012   -0.4313   -0.5148 C   0  0  0  0  0  0  0  0  0  0  0  0
    0.3953   -0.4269   -1.7650 O   0  0  0  0  0  0  0  0  0  0  0  0
   -0.6759   -0.1803    0.2381 N   0  0  0  0  0  0  0  0  0  0  0  0
   -1.9208    0.0646   -0.4520 C   0  0  0  0  0  0  0  0  0  0  0  0
   -2.8485    1.1341    0.1719 C   0  0  0  0  0  0  0  0  0  0  0  0
   -3.2160   -0.3245    0.1623 C   0  0  0  0  0  0  0  0  0  0  0  0
    2.3312   -1.4837    1.8897 H   0  0  0  0  0  0  0  0  0  0  0  0
    2.2367    0.1972    1.8890 H   0  0  0  0  0  0  0  0  0  0  0  0
    2.1235   -1.7238   -0.2714 H   0  0  0  0  0  0  0  0  0  0  0  0
    3.5341    1.2881   -2.1211 H   0  0  0  0  0  0  0  0  0  0  0  0
   -0.6275   -0.1756    1.2940 H   0  0  0  0  0  0  0  0  0  0  0  0
   -1.8975    0.0447   -1.5533 H   0  0  0  0  0  0  0  0  0  0  0  0
   -3.3610    1.8247   -0.5116 H   0  0  0  0  0  0  0  0  0  0  0  0
   -2.5097    1.5697    1.1424 H   0  0  0  0  0  0  0  0  0  0  0  0
   -3.2304   -0.8933    1.1305 H   0  0  0  0  0  0  0  0  0  0  0  0
   -4.0610   -0.5754   -0.4940 H   0  0  0  0  0  0  0  0  0  0  0  0
  1  2  1  0
  2  3  1  0
  3  4  2  0
  3  5  1  0
  2  6  1  0
  6  7  2  0
  6  8  1  0
  8  9  1  0
  9 10  1  0
 10 11  1  0
 11  9  1  0
  1 12  1  0
  1 13  1  0
  2 14  1  1
  5 15  1  0
  8 16  1  0
  9 17  1  0
 10 18  1  0
 10 19  1  0
 11 20  1  0
 11 21  1  0
M  END
$$$$

     RDKit          3D

 21 21  0  0  0  0  0  0  0  0999 V2000
   -2.8021   -1.2918   -1.0101 N   0  0  0  0  0  0  0  0  0  0  0  0
   -1.8293   -0.5276   -0.2453 C   0  0  2  0  0  0  0  0  0  0  0  0
   -2.1668    0.9282   -0.2833 C   0  0  0  0  0  0  0  0  0  0  0  0
   -1.4160    1.7013    0.3552 O   0  0  0  0  0  0  0  0  0  0  0  0
   -3.2470    1.4375   -0.9780 O   0  0  0  0  0  0  0  0  0  0  0  0
   -0.4580   -0.7176   -0.7903 C   0  0  0  0  0  0  0  0  0  0  0  0
   -0.3125   -1.4000   -1.8477 O   0  0  0  0  0  0  0  0  0  0  0  0
    0.6297   -0.1318   -0.1094 N   0  0  0  0  0  0  0  0  0  0  0  0
    1.9695   -0.2767   -0.5834 C   0  0  0  0  0  0  0  0  0  0  0  0
    2.9787    0.8045   -0.3729 C   0  0  0  0  0  0  0  0  0  0  0  0
    3.0527   -0.4234    0.4885 C   0  0  0  0  0  0  0  0  0  0  0  0
   -3.2378   -0.6758   -1.7426 H   0  0  0  0  0  0  0  0  0  0  0  0
   -3.5299   -1.7039   -0.3900 H   0  0  0  0  0  0  0  0  0  0  0  0
   -1.8949   -0.8516    0.8082 H   0  0  0  0  0  0  0  0  0  0  0  0
   -3.2316    2.4320   -1.2331 H   0  0  0  0  0  0  0  0  0  0  0  0
    0.4504    0.4120    0.7558 H   0  0  0  0  0  0  0  0  0  0  0  0
    2.0999   -0.8725   -1.5104 H   0  0  0  0  0  0  0  0  0  0  0  0
    3.7981    0.9012   -1.1154 H   0  0  0  0  0  0  0  0  0  0  0  0
    2.5820    1.7236    0.0963 H   0  0  0  0  0  0  0  0  0  0  0  0
    2.7253   -0.2854    1.5556 H   0  0  0  0  0  0  0  0  0  0  0  0
    3.8399   -1.1821    0.3226 H   0  0  0  0  0  0  0  0  0  0  0  0
  1  2  1  0
  2  3  1  0
  3  4  2  0
  3  5  1  0
  2  6  1  0
  6  7  2  0
  6  8  1  0
  8  9  1  0
  9 10  1  0
 10 11  1  0
 11  9  1  0
  1 12  1  0
  1 13  1  0
  2 14  1  1
  5 15  1  0
  8 16  1  0
  9 17  1  0
 10 18  1  0
 10 19  1  0
 11 20  1  0
 11 21  1  0
M  END
$$$$
