
     RDKit          3D

 24 23  0  0  0  0  0  0  0  0999 V2000
   -2.4730    0.0233   -1.1593 C   0  0  0  0  0  0  0  0  0  0  0  0
   -1.9484   -0.1899    0.2263 C   0  0  1  0  0  0  0  0  0  0  0  0
   -1.2598   -1.4652    0.2906 N   0  0  0  0  0  0  0  0  0  0  0  0
   -0.9238    1.1087    0.8041 S   0  0  0  0  0  6  0  0  0  0  0  0
   -1.7248    2.3791    0.9344 O   0  0  0  0  0  0  0  0  0  0  0  0
   -0.5145    0.7493    2.2283 O   0  0  0  0  0  0  0  0  0  0  0  0
    0.5052    1.3638   -0.0758 N   0  0  0  0  0  0  0  0  0  0  0  0
    1.3414    0.1870   -0.0187 C   0  0  2  0  0  0  0  0  0  0  0  0
    2.6739    0.5475    0.6276 C   0  0  0  0  0  0  0  0  0  0  0  0
    1.6341   -0.3411   -1.3800 C   0  0  0  0  0  0  0  0  0  0  0  0
    1.1998    0.1842   -2.4260 O   0  0  0  0  0  0  0  0  0  0  0  0
    2.4220   -1.4619   -1.4737 O   0  0  0  0  0  0  0  0  0  0  0  0
   -2.0366    0.9120   -1.6563 H   0  0  0  0  0  0  0  0  0  0  0  0
   -3.5730    0.1479   -1.1704 H   0  0  0  0  0  0  0  0  0  0  0  0
   -2.2510   -0.8523   -1.7910 H   0  0  0  0  0  0  0  0  0  0  0  0
   -2.8409   -0.2044    0.9230 H   0  0  0  0  0  0  0  0  0  0  0  0
   -1.7273   -2.0659    1.0095 H   0  0  0  0  0  0  0  0  0  0  0  0
   -1.1934   -1.9252   -0.6412 H   0  0  0  0  0  0  0  0  0  0  0  0
    0.3743    1.7439   -1.0219 H   0  0  0  0  0  0  0  0  0  0  0  0
    0.9252   -0.6398    0.5728 H   0  0  0  0  0  0  0  0  0  0  0  0
    3.1756    1.2910   -0.0377 H   0  0  0  0  0  0  0  0  0  0  0  0
    2.4967    0.9597    1.6219 H   0  0  0  0  0  0  0  0  0  0  0  0
    3.2880   -0.3650    0.6643 H   0  0  0  0  0  0  0  0  0  0  0  0
    2.4301   -2.0868   -2.2794 H   0  0  0  0  0  0  0  0  0  0  0  0
  1  2  1  0
  2  3  1  0
  2  4  1  0
  4  5  2  0
  4  6  2  0
  4  7  1  0
  7  8  1  0
  8  9  1  0
  8 10  1  0
 10 11  2  0
 10 12  1  0
  1 13  1  0
  1 14  1  0
  1 15  1  0
  2 16  1  1
  3 17  1  0
  3 18  1  0
  7 19  1  0
  8 20  1  1
  9 21  1  0
  9 22  1  0
  9 23  1  0
 12 24  1  0
M  END
$$$$

     RDKit          3D

 24 23  0  0  0  0  0  0  0  0999 V2000
   -1.7678    0.9649   -0.7315 C   0  0  0  0  0  0  0  0  0  0  0  0
   -1.9267   -0.4007   -0.1131 C   0  0  1  0  0  0  0  0  0  0  0  0
   -3.0382   -1.0274   -0.8686 N   0  0  0  0  0  0  0  0  0  0  0  0
   -0.5729   -1.4759   -0.2960 S   0  0  0  0  0  6  0  0  0  0  0  0
   -0.2217   -1.5485   -1.7679 O   0  0  0  0  0  0  0  0  0  0  0  0
   -1.0305   -2.8636    0.1142 O   0  0  0  0  0  0  0  0  0  0  0  0
    0.8168   -1.1122    0.6027 N   0  0  0  0  0  0  0  0  0  0  0  0
    1.3292    0.1724    0.2007 C   0  0  2  0  0  0  0  0  0  0  0  0
    2.7657    0.1111   -0.2580 C   0  0  0  0  0  0  0  0  0  0  0  0
    1.2495    1.0827    1.3912 C   0  0  0  0  0  0  0  0  0  0  0  0
    0.8038    0.6961    2.4834 O   0  0  0  0  0  0  0  0  0  0  0  0
    1.6843    2.4027    1.2832 O   0  0  0  0  0  0  0  0  0  0  0  0
   -2.8286    1.3314   -0.9121 H   0  0  0  0  0  0  0  0  0  0  0  0
   -1.3287    0.9078   -1.7330 H   0  0  0  0  0  0  0  0  0  0  0  0
   -1.2944    1.7060   -0.0493 H   0  0  0  0  0  0  0  0  0  0  0  0
   -2.3053   -0.3147    0.9313 H   0  0  0  0  0  0  0  0  0  0  0  0
   -2.8287   -0.8092   -1.8681 H   0  0  0  0  0  0  0  0  0  0  0  0
   -2.9877   -2.0562   -0.6953 H   0  0  0  0  0  0  0  0  0  0  0  0
    1.5755   -1.8201    0.5182 H   0  0  0  0  0  0  0  0  0  0  0  0
    0.7425    0.6463   -0.6070 H   0  0  0  0  0  0  0  0  0  0  0  0
    2.9465    0.9301   -0.9852 H   0  0  0  0  0  0  0  0  0  0  0  0
    3.4323    0.3505    0.6205 H   0  0  0  0  0  0  0  0  0  0  0  0
    3.0342   -0.8333   -0.7319 H   0  0  0  0  0  0  0  0  0  0  0  0
    1.7510    2.9600    2.1191 H   0  0  0  0  0  0  0  0  0  0  0  0
  1  2  1  0
  2  3  1  0
  2  4  1  0
  4  5  2  0
  4  6  2  0
  4  7  1  0
  7  8  1  0
  8  9  1  0
  8 10  1  0
 10 11  2  0
 10 12  1  0
  1 13  1  0
  1 14  1  0
  1 15  1  0
  2 16  1  1
  3 17  1  0
  3 18  1  0
  7 19  1  0
  8 20  1  6
  9 21  1  0
  9 22  1  0
  9 23  1  0
 12 24  1  0
M  END
$$$$

     RDKit          3D

 24 23  0  0  0  0  0  0  0  0999 V2000
    3.0045    0.2488    1.1141 C   0  0  0  0  0  0  0  0  0  0  0  0
    1.6968    0.4142    0.3578 C   0  0  1  0  0  0  0  0  0  0  0  0
    1.8948    1.0510   -0.9188 N   0  0  0  0  0  0  0  0  0  0  0  0
    0.8978   -1.1672    0.1897 S   0  0  0  0  0  6  0  0  0  0  0  0
    1.7749   -2.0536   -0.6211 O   0  0  0  0  0  0  0  0  0  0  0  0
    0.7064   -1.7534    1.5541 O   0  0  0  0  0  0  0  0  0  0  0  0
   -0.5875   -0.9592   -0.5570 N   0  0  0  0  0  0  0  0  0  0  0  0
   -1.5483   -0.1669    0.0777 C   0  0  2  0  0  0  0  0  0  0  0  0
   -2.7884   -1.0244    0.3289 C   0  0  0  0  0  0  0  0  0  0  0  0
   -1.9617    0.9291   -0.8116 C   0  0  0  0  0  0  0  0  0  0  0  0
   -1.4582    1.0314   -1.9411 O   0  0  0  0  0  0  0  0  0  0  0  0
   -2.9037    1.8370   -0.3914 O   0  0  0  0  0  0  0  0  0  0  0  0
    3.6514    1.1394    0.9785 H   0  0  0  0  0  0  0  0  0  0  0  0
    2.8520    0.1153    2.1870 H   0  0  0  0  0  0  0  0  0  0  0  0
    3.5306   -0.6133    0.6535 H   0  0  0  0  0  0  0  0  0  0  0  0
    1.0756    1.1133    0.9759 H   0  0  0  0  0  0  0  0  0  0  0  0
    2.8789    1.2839   -1.1318 H   0  0  0  0  0  0  0  0  0  0  0  0
    1.4576    0.5155   -1.7152 H   0  0  0  0  0  0  0  0  0  0  0  0
   -0.6451   -1.0889   -1.5695 H   0  0  0  0  0  0  0  0  0  0  0  0
   -1.1333    0.2151    1.0343 H   0  0  0  0  0  0  0  0  0  0  0  0
   -3.3298   -1.1141   -0.6144 H   0  0  0  0  0  0  0  0  0  0  0  0
   -2.4359   -2.0210    0.6293 H   0  0  0  0  0  0  0  0  0  0  0  0
   -3.3956   -0.5587    1.1379 H   0  0  0  0  0  0  0  0  0  0  0  0
   -3.2341    2.6267   -0.9471 H   0  0  0  0  0  0  0  0  0  0  0  0
  1  2  1  0
  2  3  1  0
  2  4  1  0
  4  5  2  0
  4  6  2  0
  4  7  1  0
  7  8  1  0
  8  9  1  0
  8 10  1  0
 10 11  2  0
 10 12  1  0
  1 13  1  0
  1 14  1  0
  1 15  1  0
  2 16  1  1
  3 17  1  0
  3 18  1  0
  7 19  1  0
  8 20  1  1
  9 21  1  0
  9 22  1  0
  9 23  1  0
 12 24  1  0
M  END
$$$$

     RDKit          3D

 24 23  0  0  0  0  0  0  0  0999 V2000
    2.4839    1.0517   -0.2098 C   0  0  0  0  0  0  0  0  0  0  0  0
    2.1843   -0.3880   -0.2063 C   0  0  1  0  0  0  0  0  0  0  0  0
    3.2432   -1.0504    0.6077 N   0  0  0  0  0  0  0  0  0  0  0  0
    0.6651   -0.9721    0.4105 S   0  0  0  0  0  6  0  0  0  0  0  0
    0.6982   -2.4414    0.6490 O   0  0  0  0  0  0  0  0  0  0  0  0
    0.5102   -0.3342    1.7977 O   0  0  0  0  0  0  0  0  0  0  0  0
   -0.7491   -0.5427   -0.4795 N   0  0  0  0  0  0  0  0  0  0  0  0
   -1.7329    0.0906    0.4223 C   0  0  2  0  0  0  0  0  0  0  0  0
   -2.8911   -1.0586    0.1328 C   0  0  0  0  0  0  0  0  0  0  0  0
   -2.4530    1.2507   -0.0585 C   0  0  0  0  0  0  0  0  0  0  0  0
   -3.6469    1.4356    0.4364 O   0  0  0  0  0  0  0  0  0  0  0  0
   -2.0114    2.1837   -0.9807 O   0  0  0  0  0  0  0  0  0  0  0  0
    2.3592    1.5899    0.7209 H   0  0  0  0  0  0  0  0  0  0  0  0
    3.5836    1.1385   -0.5510 H   0  0  0  0  0  0  0  0  0  0  0  0
    1.9442    1.5182   -1.0930 H   0  0  0  0  0  0  0  0  0  0  0  0
    2.3532   -0.7867   -1.2387 H   0  0  0  0  0  0  0  0  0  0  0  0
    3.0963   -0.8202    1.5988 H   0  0  0  0  0  0  0  0  0  0  0  0
    4.1838   -0.8559    0.2444 H   0  0  0  0  0  0  0  0  0  0  0  0
   -0.4998    0.2242   -1.2023 H   0  0  0  0  0  0  0  0  0  0  0  0
   -1.4780    0.0418    1.4295 H   0  0  0  0  0  0  0  0  0  0  0  0
   -2.3903   -1.9728    0.4292 H   0  0  0  0  0  0  0  0  0  0  0  0
   -2.9135   -1.0228   -0.9993 H   0  0  0  0  0  0  0  0  0  0  0  0
   -3.7720   -0.7591    0.5879 H   0  0  0  0  0  0  0  0  0  0  0  0
   -2.7674    2.4799   -1.6693 H   0  0  0  0  0  0  0  0  0  0  0  0
  1  2  1  0
  2  3  1  0
  2  4  1  0
  4  5  2  0
  4  6  2  0
  4  7  1  0
  7  8  1  0
  8  9  1  0
  8 10  1  0
 10 11  2  0
 10 12  1  0
  1 13  1  0
  1 14  1  0
  1 15  1  0
  2 16  1  6
  3 17  1  0
  3 18  1  0
  7 19  1  0
  8 20  1  1
  9 21  1  0
  9 22  1  0
  9 23  1  0
 12 24  1  0
M  END
$$$$

     RDKit          3D

 24 23  0  0  0  0  0  0  0  0999 V2000
   -2.3989    2.0704    0.0265 C   0  0  0  0  0  0  0  0  0  0  0  0
   -1.4215    0.9722    0.4127 C   0  0  1  0  0  0  0  0  0  0  0  0
   -2.0832   -0.0105    1.2428 N   0  0  0  0  0  0  0  0  0  0  0  0
   -0.8407    0.2232   -1.1115 S   0  0  0  0  0  6  0  0  0  0  0  0
   -0.2441    1.2657   -1.9789 O   0  0  0  0  0  0  0  0  0  0  0  0
   -1.9958   -0.4073   -1.8411 O   0  0  0  0  0  0  0  0  0  0  0  0
    0.2676   -0.9895   -0.7015 N   0  0  0  0  0  0  0  0  0  0  0  0
    1.4295   -0.5547   -0.0100 C   0  0  2  0  0  0  0  0  0  0  0  0
    2.6287   -0.8598   -0.9203 C   0  0  0  0  0  0  0  0  0  0  0  0
    1.5930   -1.1774    1.3098 C   0  0  0  0  0  0  0  0  0  0  0  0
    0.7470   -2.0062    1.7217 O   0  0  0  0  0  0  0  0  0  0  0  0
    2.6635   -0.8816    2.1347 O   0  0  0  0  0  0  0  0  0  0  0  0
   -1.9178    2.7578   -0.6930 H   0  0  0  0  0  0  0  0  0  0  0  0
   -2.7156    2.6609    0.9034 H   0  0  0  0  0  0  0  0  0  0  0  0
   -3.2777    1.5667   -0.4143 H   0  0  0  0  0  0  0  0  0  0  0  0
   -0.5684    1.3967    0.9470 H   0  0  0  0  0  0  0  0  0  0  0  0
   -2.0158   -0.9695    0.7944 H   0  0  0  0  0  0  0  0  0  0  0  0
   -3.1003    0.1984    1.3501 H   0  0  0  0  0  0  0  0  0  0  0  0
    0.4239   -1.6812   -1.4485 H   0  0  0  0  0  0  0  0  0  0  0  0
    1.4189    0.5569    0.1547 H   0  0  0  0  0  0  0  0  0  0  0  0
    3.4225   -1.2436   -0.2534 H   0  0  0  0  0  0  0  0  0  0  0  0
    2.9091    0.0299   -1.4963 H   0  0  0  0  0  0  0  0  0  0  0  0
    2.3537   -1.6790   -1.6449 H   0  0  0  0  0  0  0  0  0  0  0  0
    2.7223   -1.2384    3.0852 H   0  0  0  0  0  0  0  0  0  0  0  0
  1  2  1  0
  2  3  1  0
  2  4  1  0
  4  5  2  0
  4  6  2  0
  4  7  1  0
  7  8  1  0
  8  9  1  0
  8 10  1  0
 10 11  2  0
 10 12  1  0
  1 13  1  0
  1 14  1  0
  1 15  1  0
  2 16  1  1
  3 17  1  0
  3 18  1  0
  7 19  1  0
  8 20  1  1
  9 21  1  0
  9 22  1  0
  9 23  1  0
 12 24  1  0
M  END
$$$$

     RDKit          3D

 24 23  0  0  0  0  0  0  0  0999 V2000
   -2.5070    0.8455    0.2328 C   0  0  0  0  0  0  0  0  0  0  0  0
   -1.8108   -0.4667    0.0968 C   0  0  1  0  0  0  0  0  0  0  0  0
   -2.7776   -1.5008   -0.1783 N   0  0  0  0  0  0  0  0  0  0  0  0
   -0.6159   -0.5412   -1.2110 S   0  0  0  0  0  6  0  0  0  0  0  0
   -0.1617   -1.9328   -1.3994 O   0  0  0  0  0  0  0  0  0  0  0  0
   -1.3535   -0.0339   -2.4551 O   0  0  0  0  0  0  0  0  0  0  0  0
    0.7186    0.4988   -0.9421 N   0  0  0  0  0  0  0  0  0  0  0  0
    1.3901    0.1911    0.2729 C   0  0  2  0  0  0  0  0  0  0  0  0
    1.8294    1.4078    1.0698 C   0  0  0  0  0  0  0  0  0  0  0  0
    2.5526   -0.6640   -0.0823 C   0  0  0  0  0  0  0  0  0  0  0  0
    2.6733   -1.8656    0.4057 O   0  0  0  0  0  0  0  0  0  0  0  0
    3.5075   -0.2525   -0.9859 O   0  0  0  0  0  0  0  0  0  0  0  0
   -3.3172    0.9114   -0.5518 H   0  0  0  0  0  0  0  0  0  0  0  0
   -3.0184    0.8334    1.2307 H   0  0  0  0  0  0  0  0  0  0  0  0
   -1.8479    1.7253    0.2082 H   0  0  0  0  0  0  0  0  0  0  0  0
   -1.3369   -0.7337    1.0825 H   0  0  0  0  0  0  0  0  0  0  0  0
   -3.2985   -1.7780    0.6883 H   0  0  0  0  0  0  0  0  0  0  0  0
   -2.2172   -2.3513   -0.4500 H   0  0  0  0  0  0  0  0  0  0  0  0
    0.6030    1.4907   -1.1407 H   0  0  0  0  0  0  0  0  0  0  0  0
    0.7135   -0.4819    0.8654 H   0  0  0  0  0  0  0  0  0  0  0  0
    2.8292    1.7755    0.7299 H   0  0  0  0  0  0  0  0  0  0  0  0
    1.0890    2.2635    0.9944 H   0  0  0  0  0  0  0  0  0  0  0  0
    1.9061    1.1636    2.1478 H   0  0  0  0  0  0  0  0  0  0  0  0
    4.4501   -0.5041   -0.8993 H   0  0  0  0  0  0  0  0  0  0  0  0
  1  2  1  0
  2  3  1  0
  2  4  1  0
  4  5  2  0
  4  6  2  0
  4  7  1  0
  7  8  1  0
  8  9  1  0
  8 10  1  0
 10 11  2  0
 10 12  1  0
  1 13  1  0
  1 14  1  0
  1 15  1  0
  2 16  1  1
  3 17  1  0
  3 18  1  0
  7 19  1  0
  8 20  1  1
  9 21  1  0
  9 22  1  0
  9 23  1  0
 12 24  1  0
M  END
$$$$

     RDKit          3D

 24 23  0  0  0  0  0  0  0  0999 V2000
    3.2254    0.0358   -0.4764 C   0  0  0  0  0  0  0  0  0  0  0  0
    1.7296   -0.1918   -0.5850 C   0  0  1  0  0  0  0  0  0  0  0  0
    1.3452   -1.1359    0.4196 N   0  0  0  0  0  0  0  0  0  0  0  0
    0.8751    1.3362   -0.3700 S   0  0  0  0  0  6  0  0  0  0  0  0
    1.3949    2.3589   -1.3568 O   0  0  0  0  0  0  0  0  0  0  0  0
    1.1186    1.9106    0.9980 O   0  0  0  0  0  0  0  0  0  0  0  0
   -0.8015    1.1968   -0.6026 N   0  0  0  0  0  0  0  0  0  0  0  0
   -1.4784    0.3197    0.2948 C   0  0  2  0  0  0  0  0  0  0  0  0
   -2.0690   -0.8296   -0.5100 C   0  0  0  0  0  0  0  0  0  0  0  0
   -2.5690    0.9446    1.0495 C   0  0  0  0  0  0  0  0  0  0  0  0
   -2.8268    2.1554    0.8674 O   0  0  0  0  0  0  0  0  0  0  0  0
   -3.3161    0.2241    1.9560 O   0  0  0  0  0  0  0  0  0  0  0  0
    3.4218    0.6064    0.4633 H   0  0  0  0  0  0  0  0  0  0  0  0
    3.7655   -0.9316   -0.4093 H   0  0  0  0  0  0  0  0  0  0  0  0
    3.5887    0.6004   -1.3585 H   0  0  0  0  0  0  0  0  0  0  0  0
    1.5473   -0.5482   -1.6200 H   0  0  0  0  0  0  0  0  0  0  0  0
    1.2954   -2.0811   -0.0000 H   0  0  0  0  0  0  0  0  0  0  0  0
    2.0402   -1.1410    1.1730 H   0  0  0  0  0  0  0  0  0  0  0  0
   -1.0069    0.9232   -1.5807 H   0  0  0  0  0  0  0  0  0  0  0  0
   -0.7190   -0.1162    1.0079 H   0  0  0  0  0  0  0  0  0  0  0  0
   -2.4242   -1.5965    0.1785 H   0  0  0  0  0  0  0  0  0  0  0  0
   -1.3310   -1.2454   -1.2149 H   0  0  0  0  0  0  0  0  0  0  0  0
   -2.9544   -0.4119   -1.0333 H   0  0  0  0  0  0  0  0  0  0  0  0
   -3.8512    0.6470    2.7097 H   0  0  0  0  0  0  0  0  0  0  0  0
  1  2  1  0
  2  3  1  0
  2  4  1  0
  4  5  2  0
  4  6  2  0
  4  7  1  0
  7  8  1  0
  8  9  1  0
  8 10  1  0
 10 11  2  0
 10 12  1  0
  1 13  1  0
  1 14  1  0
  1 15  1  0
  2 16  1  6
  3 17  1  0
  3 18  1  0
  7 19  1  0
  8 20  1  1
  9 21  1  0
  9 22  1  0
  9 23  1  0
 12 24  1  0
M  END
$$$$

     RDKit          3D

 24 23  0  0  0  0  0  0  0  0999 V2000
    1.4193    0.3270   -1.4540 C   0  0  0  0  0  0  0  0  0  0  0  0
    1.8594   -0.5736   -0.3441 C   0  0  1  0  0  0  0  0  0  0  0  0
    3.3379   -0.5771   -0.2675 N   0  0  0  0  0  0  0  0  0  0  0  0
    1.1879   -0.1907    1.2431 S   0  0  0  0  0  6  0  0  0  0  0  0
    1.5493    1.2412    1.5634 O   0  0  0  0  0  0  0  0  0  0  0  0
    1.8340   -1.0619    2.3113 O   0  0  0  0  0  0  0  0  0  0  0  0
   -0.4746   -0.4204    1.2660 N   0  0  0  0  0  0  0  0  0  0  0  0
   -1.3036    0.3428    0.4254 C   0  0  2  0  0  0  0  0  0  0  0  0
   -2.4196    1.0657    1.1768 C   0  0  0  0  0  0  0  0  0  0  0  0
   -2.0322   -0.5819   -0.5098 C   0  0  0  0  0  0  0  0  0  0  0  0
   -1.8023   -1.8075   -0.4018 O   0  0  0  0  0  0  0  0  0  0  0  0
   -2.9223   -0.0809   -1.4514 O   0  0  0  0  0  0  0  0  0  0  0  0
    0.4484    0.0206   -1.8789 H   0  0  0  0  0  0  0  0  0  0  0  0
    1.3891    1.3705   -1.0611 H   0  0  0  0  0  0  0  0  0  0  0  0
    2.1664    0.2896   -2.3173 H   0  0  0  0  0  0  0  0  0  0  0  0
    1.6007   -1.6342   -0.6361 H   0  0  0  0  0  0  0  0  0  0  0  0
    3.6539   -0.8269   -1.2262 H   0  0  0  0  0  0  0  0  0  0  0  0
    3.5990    0.4400   -0.1158 H   0  0  0  0  0  0  0  0  0  0  0  0
   -0.7294   -1.4187    1.2994 H   0  0  0  0  0  0  0  0  0  0  0  0
   -0.7388    1.0676   -0.1590 H   0  0  0  0  0  0  0  0  0  0  0  0
   -3.0582    0.3264    1.6714 H   0  0  0  0  0  0  0  0  0  0  0  0
   -2.0509    1.8700    1.8138 H   0  0  0  0  0  0  0  0  0  0  0  0
   -3.0302    1.5630    0.3695 H   0  0  0  0  0  0  0  0  0  0  0  0
   -3.4834   -0.7506   -1.9659 H   0  0  0  0  0  0  0  0  0  0  0  0
  1  2  1  0
  2  3  1  0
  2  4  1  0
  4  5  2  0
  4  6  2  0
  4  7  1  0
  7  8  1  0
  8  9  1  0
  8 10  1  0
 10 11  2  0
 10 12  1  0
  1 13  1  0
  1 14  1  0
  1 15  1  0
  2 16  1  6
  3 17  1  0
  3 18  1  0
  7 19  1  0
  8 20  1  6
  9 21  1  0
  9 22  1  0
  9 23  1  0
 12 24  1  0
M  END
$$$$
