
     RDKit          3D

 17 17  0  0  0  0  0  0  0  0999 V2000
    2.8982    0.1565   -0.6324 N   0  0  0  0  0  0  0  0  0  0  0  0
    1.8760    0.2832    0.7544 S   0  0  0  0  0  6  0  0  0  0  0  0
    2.2570   -0.7316    1.7908 O   0  0  0  0  0  0  0  0  0  0  0  0
    2.0489    1.6882    1.2949 O   0  0  0  0  0  0  0  0  0  0  0  0
    0.1874    0.1039    0.2917 C   0  0  0  0  0  0  0  0  0  0  0  0
   -0.5153   -0.9262    0.8485 C   0  0  0  0  0  0  0  0  0  0  0  0
   -1.8388   -1.1202    0.5277 C   0  0  0  0  0  0  0  0  0  0  0  0
   -2.4745   -0.2778   -0.3603 C   0  0  0  0  0  0  0  0  0  0  0  0
   -1.7016    0.7404   -0.8827 C   0  0  0  0  0  0  0  0  0  0  0  0
   -0.4095    0.9265   -0.5669 N   0  0  0  0  0  4  0  0  0  0  0  0
    0.3220    1.9534   -1.1110 O   0  0  0  0  0  1  0  0  0  0  0  0
    2.3815    0.5864   -1.4338 H   0  0  0  0  0  0  0  0  0  0  0  0
    3.1169   -0.8376   -0.8296 H   0  0  0  0  0  0  0  0  0  0  0  0
   -0.0321   -1.6131    1.5600 H   0  0  0  0  0  0  0  0  0  0  0  0
   -2.4098   -1.9385    0.9654 H   0  0  0  0  0  0  0  0  0  0  0  0
   -3.5201   -0.4158   -0.6258 H   0  0  0  0  0  0  0  0  0  0  0  0
   -2.1861    1.4223   -1.5908 H   0  0  0  0  0  0  0  0  0  0  0  0
  1  2  1  0
  2  3  2  0
  2  4  2  0
  2  5  1  0
  5  6  2  0
  6  7  1  0
  7  8  2  0
  8  9  1  0
  9 10  2  0
 10 11  1  0
 10  5  1  0
  1 12  1  0
  1 13  1  0
  6 14  1  0
  7 15  1  0
  8 16  1  0
  9 17  1  0
M  CHG  2  10   1  11  -1
M  END
$$$$

     RDKit          3D

 17 17  0  0  0  0  0  0  0  0999 V2000
    2.8822    0.1333    0.7947 N   0  0  0  0  0  0  0  0  0  0  0  0
    1.7866   -0.8404   -0.0850 S   0  0  0  0  0  6  0  0  0  0  0  0
    2.2581   -0.8332   -1.5340 O   0  0  0  0  0  0  0  0  0  0  0  0
    1.8340   -2.2595    0.3738 O   0  0  0  0  0  0  0  0  0  0  0  0
    0.1703   -0.2485   -0.0703 C   0  0  0  0  0  0  0  0  0  0  0  0
   -0.8275   -1.0444    0.4588 C   0  0  0  0  0  0  0  0  0  0  0  0
   -2.1438   -0.6651    0.5173 C   0  0  0  0  0  0  0  0  0  0  0  0
   -2.4835    0.5662    0.0251 C   0  0  0  0  0  0  0  0  0  0  0  0
   -1.4691    1.3427   -0.4983 C   0  0  0  0  0  0  0  0  0  0  0  0
   -0.1887    0.9658   -0.5515 N   0  0  0  0  0  4  0  0  0  0  0  0
    0.8263    1.7326   -1.0706 O   0  0  0  0  0  1  0  0  0  0  0  0
    2.4613    0.7282    1.5080 H   0  0  0  0  0  0  0  0  0  0  0  0
    3.6356    0.5365    0.2322 H   0  0  0  0  0  0  0  0  0  0  0  0
   -0.5885   -2.0298    0.8584 H   0  0  0  0  0  0  0  0  0  0  0  0
   -2.8992   -1.3116    0.9375 H   0  0  0  0  0  0  0  0  0  0  0  0
   -3.5202    0.9157    0.0484 H   0  0  0  0  0  0  0  0  0  0  0  0
   -1.7340    2.3117   -0.8860 H   0  0  0  0  0  0  0  0  0  0  0  0
  1  2  1  0
  2  3  2  0
  2  4  2  0
  2  5  1  0
  5  6  2  0
  6  7  1  0
  7  8  2  0
  8  9  1  0
  9 10  2  0
 10 11  1  0
 10  5  1  0
  1 12  1  0
  1 13  1  0
  6 14  1  0
  7 15  1  0
  8 16  1  0
  9 17  1  0
M  CHG  2  10   1  11  -1
M  END
$$$$

     RDKit          3D

 17 17  0  0  0  0  0  0  0  0999 V2000
   -2.8458   -0.3491   -0.7435 N   0  0  0  0  0  0  0  0  0  0  0  0
   -1.8551   -0.6335    0.6699 S   0  0  0  0  0  6  0  0  0  0  0  0
   -2.4268    0.2315    1.7551 O   0  0  0  0  0  0  0  0  0  0  0  0
   -1.9201   -2.0675    1.0082 O   0  0  0  0  0  0  0  0  0  0  0  0
   -0.1926   -0.1626    0.3106 C   0  0  0  0  0  0  0  0  0  0  0  0
    0.4577    0.8129    1.0268 C   0  0  0  0  0  0  0  0  0  0  0  0
    1.7645    1.1832    0.7446 C   0  0  0  0  0  0  0  0  0  0  0  0
    2.4576    0.5699   -0.2819 C   0  0  0  0  0  0  0  0  0  0  0  0
    1.7730   -0.4048   -0.9794 C   0  0  0  0  0  0  0  0  0  0  0  0
    0.4981   -0.7482   -0.6846 N   0  0  0  0  0  4  0  0  0  0  0  0
   -0.1467   -1.7337   -1.4147 O   0  0  0  0  0  1  0  0  0  0  0  0
   -3.2878    0.5800   -0.6890 H   0  0  0  0  0  0  0  0  0  0  0  0
   -2.2081   -0.4587   -1.5629 H   0  0  0  0  0  0  0  0  0  0  0  0
   -0.0988    1.2968    1.8418 H   0  0  0  0  0  0  0  0  0  0  0  0
    2.2415    1.9489    1.3243 H   0  0  0  0  0  0  0  0  0  0  0  0
    3.4780    0.8307   -0.5330 H   0  0  0  0  0  0  0  0  0  0  0  0
    2.3114   -0.8958   -1.7925 H   0  0  0  0  0  0  0  0  0  0  0  0
  1  2  1  0
  2  3  2  0
  2  4  2  0
  2  5  1  0
  5  6  2  0
  6  7  1  0
  7  8  2  0
  8  9  1  0
  9 10  2  0
 10 11  1  0
 10  5  1  0
  1 12  1  0
  1 13  1  0
  6 14  1  0
  7 15  1  0
  8 16  1  0
  9 17  1  0
M  CHG  2  10   1  11  -1
M  END
$$$$

     RDKit          3D

 17 17  0  0  0  0  0  0  0  0999 V2000
    2.7314   -0.8974   -0.0561 N   0  0  0  0  0  0  0  0  0  0  0  0
    1.8623    0.5563   -0.1874 S   0  0  0  0  0  6  0  0  0  0  0  0
    2.2830    1.4607    0.9451 O   0  0  0  0  0  0  0  0  0  0  0  0
    2.0870    1.2809   -1.4741 O   0  0  0  0  0  0  0  0  0  0  0  0
    0.1504    0.2456   -0.0290 C   0  0  0  0  0  0  0  0  0  0  0  0
   -0.2794   -1.0476    0.1704 C   0  0  0  0  0  0  0  0  0  0  0  0
   -1.6350   -1.2667    0.2923 C   0  0  0  0  0  0  0  0  0  0  0  0
   -2.5245   -0.2174    0.2155 C   0  0  0  0  0  0  0  0  0  0  0  0
   -2.0739    1.0799    0.0141 C   0  0  0  0  0  0  0  0  0  0  0  0
   -0.7548    1.2617   -0.1003 N   0  0  0  0  0  4  0  0  0  0  0  0
   -0.2860    2.5380   -0.3002 O   0  0  0  0  0  1  0  0  0  0  0  0
    2.7197   -1.5001   -0.8864 H   0  0  0  0  0  0  0  0  0  0  0  0
    3.6212   -0.8329    0.4494 H   0  0  0  0  0  0  0  0  0  0  0  0
    0.4495   -1.8637    0.2276 H   0  0  0  0  0  0  0  0  0  0  0  0
   -1.9683   -2.2827    0.4486 H   0  0  0  0  0  0  0  0  0  0  0  0
   -3.5855   -0.3975    0.3120 H   0  0  0  0  0  0  0  0  0  0  0  0
   -2.7972    1.8827   -0.0417 H   0  0  0  0  0  0  0  0  0  0  0  0
  1  2  1  0
  2  3  2  0
  2  4  2  0
  2  5  1  0
  5  6  2  0
  6  7  1  0
  7  8  2  0
  8  9  1  0
  9 10  2  0
 10 11  1  0
 10  5  1  0
  1 12  1  0
  1 13  1  0
  6 14  1  0
  7 15  1  0
  8 16  1  0
  9 17  1  0
M  CHG  2  10   1  11  -1
M  END
$$$$

     RDKit          3D

 17 17  0  0  0  0  0  0  0  0999 V2000
   -2.7470   -0.7269    0.6086 N   0  0  0  0  0  0  0  0  0  0  0  0
   -1.9093    0.1459   -0.6272 S   0  0  0  0  0  6  0  0  0  0  0  0
   -2.3234    1.5779   -0.6855 O   0  0  0  0  0  0  0  0  0  0  0  0
   -2.1677   -0.5669   -1.9226 O   0  0  0  0  0  0  0  0  0  0  0  0
   -0.1864    0.0973   -0.2661 C   0  0  0  0  0  0  0  0  0  0  0  0
    0.3101   -0.5546    0.8424 C   0  0  0  0  0  0  0  0  0  0  0  0
    1.6582   -0.6061    1.1461 C   0  0  0  0  0  0  0  0  0  0  0  0
    2.5550    0.0230    0.3038 C   0  0  0  0  0  0  0  0  0  0  0  0
    2.0289    0.6660   -0.7956 C   0  0  0  0  0  0  0  0  0  0  0  0
    0.7116    0.6997   -1.0662 N   0  0  0  0  0  4  0  0  0  0  0  0
    0.2649    1.3726   -2.1996 O   0  0  0  0  0  1  0  0  0  0  0  0
   -3.7741   -0.6159    0.5291 H   0  0  0  0  0  0  0  0  0  0  0  0
   -2.3805   -0.5040    1.5590 H   0  0  0  0  0  0  0  0  0  0  0  0
   -0.4144   -1.0430    1.4916 H   0  0  0  0  0  0  0  0  0  0  0  0
    2.0287   -1.1258    2.0256 H   0  0  0  0  0  0  0  0  0  0  0  0
    3.6167   -0.0020    0.5185 H   0  0  0  0  0  0  0  0  0  0  0  0
    2.7288    1.1626   -1.4618 H   0  0  0  0  0  0  0  0  0  0  0  0
  1  2  1  0
  2  3  2  0
  2  4  2  0
  2  5  1  0
  5  6  2  0
  6  7  1  0
  7  8  2  0
  8  9  1  0
  9 10  2  0
 10 11  1  0
 10  5  1  0
  1 12  1  0
  1 13  1  0
  6 14  1  0
  7 15  1  0
  8 16  1  0
  9 17  1  0
M  CHG  2  10   1  11  -1
M  END
$$$$

     RDKit          3D

 17 17  0  0  0  0  0  0  0  0999 V2000
    2.8300    0.8974   -0.1391 N   0  0  0  0  0  0  0  0  0  0  0  0
    1.8893   -0.5379   -0.2068 S   0  0  0  0  0  6  0  0  0  0  0  0
    2.0657   -1.2134   -1.5418 O   0  0  0  0  0  0  0  0  0  0  0  0
    2.2995   -1.4931    0.8702 O   0  0  0  0  0  0  0  0  0  0  0  0
    0.1826   -0.2080   -0.0165 C   0  0  0  0  0  0  0  0  0  0  0  0
   -0.3338    1.0457    0.1643 C   0  0  0  0  0  0  0  0  0  0  0  0
   -1.6894    1.2782    0.3123 C   0  0  0  0  0  0  0  0  0  0  0  0
   -2.5337    0.1879    0.2727 C   0  0  0  0  0  0  0  0  0  0  0  0
   -1.9738   -1.0569    0.0889 C   0  0  0  0  0  0  0  0  0  0  0  0
   -0.6515   -1.2632   -0.0533 N   0  0  0  0  0  4  0  0  0  0  0  0
   -0.1751   -2.5514   -0.2341 O   0  0  0  0  0  1  0  0  0  0  0  0
    2.3470    1.6744    0.3596 H   0  0  0  0  0  0  0  0  0  0  0  0
    3.7978    0.7426    0.1646 H   0  0  0  0  0  0  0  0  0  0  0  0
    0.3240    1.8781    0.1933 H   0  0  0  0  0  0  0  0  0  0  0  0
   -2.1065    2.2436    0.4533 H   0  0  0  0  0  0  0  0  0  0  0  0
   -3.6239    0.2988    0.3836 H   0  0  0  0  0  0  0  0  0  0  0  0
   -2.6482   -1.9228    0.0578 H   0  0  0  0  0  0  0  0  0  0  0  0
  1  2  1  0
  2  3  2  0
  2  4  2  0
  2  5  1  0
  5  6  2  0
  6  7  1  0
  7  8  2  0
  8  9  1  0
  9 10  2  0
 10 11  1  0
 10  5  1  0
  1 12  1  0
  1 13  1  0
  6 14  1  0
  7 15  1  0
  8 16  1  0
  9 17  1  0
M  CHG  2  10   1  11  -1
M  END
$$$$

     RDKit          3D

 17 17  0  0  0  0  0  0  0  0999 V2000
    2.6123   -1.2254    0.0513 N   0  0  0  0  0  0  0  0  0  0  0  0
    1.9075    0.2508   -0.4225 S   0  0  0  0  0  6  0  0  0  0  0  0
    2.4461    1.4216    0.3467 O   0  0  0  0  0  0  0  0  0  0  0  0
    2.1226    0.4190   -1.9061 O   0  0  0  0  0  0  0  0  0  0  0  0
    0.1784    0.1830   -0.1379 C   0  0  0  0  0  0  0  0  0  0  0  0
   -0.4010   -0.9449    0.3909 C   0  0  0  0  0  0  0  0  0  0  0  0
   -1.7641   -0.9374    0.5913 C   0  0  0  0  0  0  0  0  0  0  0  0
   -2.5265    0.1621    0.2738 C   0  0  0  0  0  0  0  0  0  0  0  0
   -1.8726    1.2522   -0.2512 C   0  0  0  0  0  0  0  0  0  0  0  0
   -0.5427    1.2740   -0.4582 N   0  0  0  0  0  4  0  0  0  0  0  0
    0.0772    2.3846   -0.9862 O   0  0  0  0  0  1  0  0  0  0  0  0
    3.6320   -1.2565   -0.0072 H   0  0  0  0  0  0  0  0  0  0  0  0
    2.2161   -1.6179    0.9318 H   0  0  0  0  0  0  0  0  0  0  0  0
    0.2070   -1.8267    0.6460 H   0  0  0  0  0  0  0  0  0  0  0  0
   -2.2283   -1.8304    1.0107 H   0  0  0  0  0  0  0  0  0  0  0  0
   -3.6028    0.1684    0.4319 H   0  0  0  0  0  0  0  0  0  0  0  0
   -2.4612    2.1235   -0.5051 H   0  0  0  0  0  0  0  0  0  0  0  0
  1  2  1  0
  2  3  2  0
  2  4  2  0
  2  5  1  0
  5  6  2  0
  6  7  1  0
  7  8  2  0
  8  9  1  0
  9 10  2  0
 10 11  1  0
 10  5  1  0
  1 12  1  0
  1 13  1  0
  6 14  1  0
  7 15  1  0
  8 16  1  0
  9 17  1  0
M  CHG  2  10   1  11  -1
M  END
$$$$

     RDKit          3D

 17 17  0  0  0  0  0  0  0  0999 V2000
   -2.8940    0.5433   -0.2501 N   0  0  0  0  0  0  0  0  0  0  0  0
   -1.9084   -0.7732    0.3398 S   0  0  0  0  0  6  0  0  0  0  0  0
   -2.1618   -2.0086   -0.4393 O   0  0  0  0  0  0  0  0  0  0  0  0
   -2.2553   -0.9239    1.7948 O   0  0  0  0  0  0  0  0  0  0  0  0
   -0.2157   -0.3301    0.1384 C   0  0  0  0  0  0  0  0  0  0  0  0
    0.6464   -1.0800   -0.6433 C   0  0  0  0  0  0  0  0  0  0  0  0
    1.9630   -0.7199   -0.7892 C   0  0  0  0  0  0  0  0  0  0  0  0
    2.4538    0.4003   -0.1574 C   0  0  0  0  0  0  0  0  0  0  0  0
    1.5769    1.1487    0.6277 C   0  0  0  0  0  0  0  0  0  0  0  0
    0.2977    0.7509    0.7361 N   0  0  0  0  0  4  0  0  0  0  0  0
   -0.5502    1.5129    1.5219 O   0  0  0  0  0  1  0  0  0  0  0  0
   -2.4325    1.4455    0.0509 H   0  0  0  0  0  0  0  0  0  0  0  0
   -2.8658    0.5376   -1.2785 H   0  0  0  0  0  0  0  0  0  0  0  0
    0.2523   -1.9579   -1.1356 H   0  0  0  0  0  0  0  0  0  0  0  0
    2.6340   -1.3055   -1.3989 H   0  0  0  0  0  0  0  0  0  0  0  0
    3.4823    0.7337   -0.2352 H   0  0  0  0  0  0  0  0  0  0  0  0
    1.9774    2.0262    1.1178 H   0  0  0  0  0  0  0  0  0  0  0  0
  1  2  1  0
  2  3  2  0
  2  4  2  0
  2  5  1  0
  5  6  2  0
  6  7  1  0
  7  8  2  0
  8  9  1  0
  9 10  2  0
 10 11  1  0
 10  5  1  0
  1 12  1  0
  1 13  1  0
  6 14  1  0
  7 15  1  0
  8 16  1  0
  9 17  1  0
M  CHG  2  10   1  11  -1
M  END
$$$$
