
     RDKit          3D

 26 28  0  0  0  0  0  0  0  0999 V2000
   -0.9612    1.9365    1.5382 N   0  0  0  0  0  0  0  0  0  0  0  0
   -0.1412    1.2515    0.6098 C   0  0  2  0  0  0  0  0  0  0  0  0
   -0.8081    0.6107   -0.4768 C   0  0  2  0  0  0  0  0  0  0  0  0
   -2.2217    0.5035   -0.8040 C   0  0  0  0  0  0  0  0  0  0  0  0
   -2.2690   -1.0252   -1.0491 C   0  0  0  0  0  0  0  0  0  0  0  0
   -1.0179   -1.5052   -0.5941 O   0  0  0  0  0  0  0  0  0  0  0  0
   -0.7963   -0.6684    0.4151 C   0  0  1  0  0  0  0  0  0  0  0  0
    0.3421   -0.1501    1.0418 C   0  0  1  0  0  0  0  0  0  0  0  0
    1.6970   -0.4474    0.6983 N   0  0  0  0  0  0  0  0  0  0  0  0
    2.7922   -0.0601    1.4303 C   0  0  0  0  0  0  0  0  0  0  0  0
    3.8879   -0.4951    0.8385 N   0  0  0  0  0  0  0  0  0  0  0  0
    3.5003   -1.1439   -0.2445 N   0  0  0  0  0  0  0  0  0  0  0  0
    2.1603   -1.1319   -0.3579 C   0  0  0  0  0  0  0  0  0  0  0  0
    1.4888   -1.6621   -1.2781 O   0  0  0  0  0  0  0  0  0  0  0  0
   -0.9421    2.9498    1.2833 H   0  0  0  0  0  0  0  0  0  0  0  0
   -1.8977    1.5190    1.5824 H   0  0  0  0  0  0  0  0  0  0  0  0
    0.7608    1.8352    0.3290 H   0  0  0  0  0  0  0  0  0  0  0  0
   -0.2016    0.5003   -1.3870 H   0  0  0  0  0  0  0  0  0  0  0  0
   -2.9244    0.7882   -0.0212 H   0  0  0  0  0  0  0  0  0  0  0  0
   -2.4476    1.0171   -1.7700 H   0  0  0  0  0  0  0  0  0  0  0  0
   -2.4201   -1.2517   -2.1052 H   0  0  0  0  0  0  0  0  0  0  0  0
   -3.0154   -1.4414   -0.3729 H   0  0  0  0  0  0  0  0  0  0  0  0
   -1.7030   -0.6914    1.1003 H   0  0  0  0  0  0  0  0  0  0  0  0
    0.2750   -0.1222    2.1767 H   0  0  0  0  0  0  0  0  0  0  0  0
    2.7547    0.5138    2.3504 H   0  0  0  0  0  0  0  0  0  0  0  0
    4.1081   -1.6296   -0.9662 H   0  0  0  0  0  0  0  0  0  0  0  0
  1  2  1  0
  2  3  1  0
  3  4  1  0
  4  5  1  0
  5  6  1  0
  6  7  1  0
  7  8  1  0
  8  9  1  0
  9 10  1  0
 10 11  2  0
 11 12  1  0
 12 13  1  0
 13 14  2  0
  8  2  1  0
 13  9  1  0
  7  3  1  0
  1 15  1  0
  1 16  1  0
  2 17  1  6
  3 18  1  6
  4 19  1  0
  4 20  1  0
  5 21  1  0
  5 22  1  0
  7 23  1  1
  8 24  1  1
 10 25  1  0
 12 26  1  0
M  END
$$$$

     RDKit          3D

 26 28  0  0  0  0  0  0  0  0999 V2000
   -1.2981   -2.1906   -0.6338 N   0  0  0  0  0  0  0  0  0  0  0  0
   -0.5396   -1.3018    0.1954 C   0  0  2  0  0  0  0  0  0  0  0  0
   -1.0670   -0.0096    0.5081 C   0  0  2  0  0  0  0  0  0  0  0  0
   -2.3751    0.5578    0.2014 C   0  0  0  0  0  0  0  0  0  0  0  0
   -1.9019    1.8925   -0.4261 C   0  0  0  0  0  0  0  0  0  0  0  0
   -0.4952    1.7323   -0.5981 O   0  0  0  0  0  0  0  0  0  0  0  0
   -0.4392    0.4258   -0.8585 C   0  0  1  0  0  0  0  0  0  0  0  0
    0.5652   -0.5434   -0.5781 C   0  0  1  0  0  0  0  0  0  0  0  0
    1.7223   -0.2311    0.2043 N   0  0  0  0  0  0  0  0  0  0  0  0
    1.9593   -0.3491    1.5035 C   0  0  0  0  0  0  0  0  0  0  0  0
    3.2035    0.0782    1.7710 N   0  0  0  0  0  0  0  0  0  0  0  0
    3.7462    0.4632    0.6445 N   0  0  0  0  0  0  0  0  0  0  0  0
    2.8470    0.2790   -0.3287 C   0  0  0  0  0  0  0  0  0  0  0  0
    3.0480    0.5508   -1.5546 O   0  0  0  0  0  0  0  0  0  0  0  0
   -1.8223   -2.8524   -0.0534 H   0  0  0  0  0  0  0  0  0  0  0  0
   -1.8162   -1.7452   -1.3983 H   0  0  0  0  0  0  0  0  0  0  0  0
   -0.1107   -1.8523    1.0540 H   0  0  0  0  0  0  0  0  0  0  0  0
   -0.5742    0.5183    1.3415 H   0  0  0  0  0  0  0  0  0  0  0  0
   -3.0112    0.0170   -0.4997 H   0  0  0  0  0  0  0  0  0  0  0  0
   -2.9119    0.7875    1.1685 H   0  0  0  0  0  0  0  0  0  0  0  0
   -2.3026    1.9523   -1.4517 H   0  0  0  0  0  0  0  0  0  0  0  0
   -2.1394    2.7399    0.2101 H   0  0  0  0  0  0  0  0  0  0  0  0
   -1.1008    0.1466   -1.7117 H   0  0  0  0  0  0  0  0  0  0  0  0
    0.8362   -1.1884   -1.4464 H   0  0  0  0  0  0  0  0  0  0  0  0
    1.2760   -0.7236    2.2309 H   0  0  0  0  0  0  0  0  0  0  0  0
    4.7017    0.8463    0.5059 H   0  0  0  0  0  0  0  0  0  0  0  0
  1  2  1  0
  2  3  1  0
  3  4  1  0
  4  5  1  0
  5  6  1  0
  6  7  1  0
  7  8  1  0
  8  9  1  0
  9 10  1  0
 10 11  2  0
 11 12  1  0
 12 13  1  0
 13 14  2  0
  8  2  1  0
 13  9  1  0
  7  3  1  0
  1 15  1  0
  1 16  1  0
  2 17  1  1
  3 18  1  1
  4 19  1  0
  4 20  1  0
  5 21  1  0
  5 22  1  0
  7 23  1  6
  8 24  1  6
 10 25  1  0
 12 26  1  0
M  END
$$$$

     RDKit          3D

 26 28  0  0  0  0  0  0  0  0999 V2000
   -0.9834    2.3378   -0.4693 N   0  0  0  0  0  0  0  0  0  0  0  0
   -0.1951    1.1452   -0.7864 C   0  0  2  0  0  0  0  0  0  0  0  0
   -0.9325   -0.0786   -0.6508 C   0  0  2  0  0  0  0  0  0  0  0  0
   -2.3665   -0.2687   -0.4965 C   0  0  0  0  0  0  0  0  0  0  0  0
   -2.3271   -1.2454    0.7021 C   0  0  0  0  0  0  0  0  0  0  0  0
   -1.0211   -1.0977    1.2504 O   0  0  0  0  0  0  0  0  0  0  0  0
   -0.6972    0.1399    0.8822 C   0  0  1  0  0  0  0  0  0  0  0  0
    0.5707    0.6749    0.4618 C   0  0  1  0  0  0  0  0  0  0  0  0
    1.6930   -0.1488    0.2401 N   0  0  0  0  0  0  0  0  0  0  0  0
    2.3716   -0.7168    1.2763 C   0  0  0  0  0  0  0  0  0  0  0  0
    3.3735   -1.4350    0.7854 N   0  0  0  0  0  0  0  0  0  0  0  0
    3.3716   -1.3562   -0.5120 N   0  0  0  0  0  0  0  0  0  0  0  0
    2.3507   -0.5743   -0.8527 C   0  0  0  0  0  0  0  0  0  0  0  0
    2.0350   -0.2701   -2.0069 O   0  0  0  0  0  0  0  0  0  0  0  0
   -0.5910    2.8190    0.3699 H   0  0  0  0  0  0  0  0  0  0  0  0
   -1.0356    2.9875   -1.2856 H   0  0  0  0  0  0  0  0  0  0  0  0
    0.4005    1.3438   -1.6656 H   0  0  0  0  0  0  0  0  0  0  0  0
   -0.4086   -0.9931   -0.9788 H   0  0  0  0  0  0  0  0  0  0  0  0
   -2.8836   -0.7249   -1.3494 H   0  0  0  0  0  0  0  0  0  0  0  0
   -2.8879    0.6385   -0.1108 H   0  0  0  0  0  0  0  0  0  0  0  0
   -2.4372   -2.2530    0.2646 H   0  0  0  0  0  0  0  0  0  0  0  0
   -3.0885   -0.9858    1.4435 H   0  0  0  0  0  0  0  0  0  0  0  0
   -1.3968    0.9041    1.2765 H   0  0  0  0  0  0  0  0  0  0  0  0
    0.8689    1.6091    1.0235 H   0  0  0  0  0  0  0  0  0  0  0  0
    2.1687   -0.6288    2.3393 H   0  0  0  0  0  0  0  0  0  0  0  0
    4.0478   -1.8226   -1.1507 H   0  0  0  0  0  0  0  0  0  0  0  0
  1  2  1  0
  2  3  1  0
  3  4  1  0
  4  5  1  0
  5  6  1  0
  6  7  1  0
  7  8  1  0
  8  9  1  0
  9 10  1  0
 10 11  2  0
 11 12  1  0
 12 13  1  0
 13 14  2  0
  8  2  1  0
 13  9  1  0
  7  3  1  0
  1 15  1  0
  1 16  1  0
  2 17  1  6
  3 18  1  6
  4 19  1  0
  4 20  1  0
  5 21  1  0
  5 22  1  0
  7 23  1  1
  8 24  1  1
 10 25  1  0
 12 26  1  0
M  END
$$$$

     RDKit          3D

 26 28  0  0  0  0  0  0  0  0999 V2000
   -0.9806   -1.6859   -1.7545 N   0  0  0  0  0  0  0  0  0  0  0  0
   -0.3061   -1.2308   -0.5996 C   0  0  2  0  0  0  0  0  0  0  0  0
   -0.9633   -0.4874    0.4325 C   0  0  2  0  0  0  0  0  0  0  0  0
   -2.3700   -0.1671    0.5876 C   0  0  0  0  0  0  0  0  0  0  0  0
   -2.2404    1.3520    0.8393 C   0  0  0  0  0  0  0  0  0  0  0  0
   -0.9030    1.6716    0.4686 O   0  0  0  0  0  0  0  0  0  0  0  0
   -0.6585    0.7569   -0.4628 C   0  0  1  0  0  0  0  0  0  0  0  0
    0.5306    0.0586   -0.8083 C   0  0  1  0  0  0  0  0  0  0  0  0
    1.7058    0.1048   -0.0129 N   0  0  0  0  0  0  0  0  0  0  0  0
    2.5535   -0.9317    0.1342 C   0  0  0  0  0  0  0  0  0  0  0  0
    3.5478   -0.5659    0.9373 N   0  0  0  0  0  0  0  0  0  0  0  0
    3.3622    0.6816    1.3122 N   0  0  0  0  0  0  0  0  0  0  0  0
    2.2269    1.0965    0.7271 C   0  0  0  0  0  0  0  0  0  0  0  0
    1.7065    2.2483    0.8425 O   0  0  0  0  0  0  0  0  0  0  0  0
   -0.3220   -2.1803   -2.3804 H   0  0  0  0  0  0  0  0  0  0  0  0
   -1.5547   -0.9997   -2.2498 H   0  0  0  0  0  0  0  0  0  0  0  0
    0.4012   -2.0091   -0.2207 H   0  0  0  0  0  0  0  0  0  0  0  0
   -0.3805   -0.3740    1.3610 H   0  0  0  0  0  0  0  0  0  0  0  0
   -2.9007   -0.6550    1.4154 H   0  0  0  0  0  0  0  0  0  0  0  0
   -2.9238   -0.3493   -0.3538 H   0  0  0  0  0  0  0  0  0  0  0  0
   -2.4010    1.5943    1.8891 H   0  0  0  0  0  0  0  0  0  0  0  0
   -2.9346    1.8500    0.1430 H   0  0  0  0  0  0  0  0  0  0  0  0
   -1.4006    0.8082   -1.3008 H   0  0  0  0  0  0  0  0  0  0  0  0
    0.7788    0.0821   -1.9043 H   0  0  0  0  0  0  0  0  0  0  0  0
    2.4382   -1.9224   -0.3373 H   0  0  0  0  0  0  0  0  0  0  0  0
    3.9882    1.2538    1.9543 H   0  0  0  0  0  0  0  0  0  0  0  0
  1  2  1  0
  2  3  1  0
  3  4  1  0
  4  5  1  0
  5  6  1  0
  6  7  1  0
  7  8  1  0
  8  9  1  0
  9 10  1  0
 10 11  2  0
 11 12  1  0
 12 13  1  0
 13 14  2  0
  8  2  1  0
 13  9  1  0
  7  3  1  0
  1 15  1  0
  1 16  1  0
  2 17  1  1
  3 18  1  1
  4 19  1  0
  4 20  1  0
  5 21  1  0
  5 22  1  0
  7 23  1  6
  8 24  1  6
 10 25  1  0
 12 26  1  0
M  END
$$$$

     RDKit          3D

 26 28  0  0  0  0  0  0  0  0999 V2000
   -0.9344   -2.1166   -1.2074 N   0  0  0  0  0  0  0  0  0  0  0  0
   -0.2923   -1.3582   -0.1857 C   0  0  2  0  0  0  0  0  0  0  0  0
   -1.0220   -0.2826    0.4464 C   0  0  2  0  0  0  0  0  0  0  0  0
   -2.4434    0.0376    0.2687 C   0  0  0  0  0  0  0  0  0  0  0  0
   -2.2981    1.5455   -0.0369 C   0  0  0  0  0  0  0  0  0  0  0  0
   -0.9253    1.7233   -0.3648 O   0  0  0  0  0  0  0  0  0  0  0  0
   -0.5769    0.5300   -0.8127 C   0  0  1  0  0  0  0  0  0  0  0  0
    0.6252   -0.2244   -0.7246 C   0  0  1  0  0  0  0  0  0  0  0  0
    1.6997    0.1095    0.1286 N   0  0  0  0  0  0  0  0  0  0  0  0
    2.6137   -0.8002    0.5741 C   0  0  0  0  0  0  0  0  0  0  0  0
    3.4922   -0.1845    1.3521 N   0  0  0  0  0  0  0  0  0  0  0  0
    3.1820    1.0824    1.4259 N   0  0  0  0  0  0  0  0  0  0  0  0
    2.0811    1.2692    0.6759 C   0  0  0  0  0  0  0  0  0  0  0  0
    1.4920    2.3549    0.5061 O   0  0  0  0  0  0  0  0  0  0  0  0
   -0.6682   -1.8016   -2.1768 H   0  0  0  0  0  0  0  0  0  0  0  0
   -0.5583   -3.1061   -1.1455 H   0  0  0  0  0  0  0  0  0  0  0  0
    0.3295   -1.9486    0.5390 H   0  0  0  0  0  0  0  0  0  0  0  0
   -0.5414    0.1508    1.3428 H   0  0  0  0  0  0  0  0  0  0  0  0
   -2.8235   -0.4156   -0.6552 H   0  0  0  0  0  0  0  0  0  0  0  0
   -3.0953   -0.1181    1.1479 H   0  0  0  0  0  0  0  0  0  0  0  0
   -2.4838    2.1100    0.9000 H   0  0  0  0  0  0  0  0  0  0  0  0
   -2.9403    1.8336   -0.8692 H   0  0  0  0  0  0  0  0  0  0  0  0
   -1.2063    0.2262   -1.7028 H   0  0  0  0  0  0  0  0  0  0  0  0
    0.9966   -0.6126   -1.7208 H   0  0  0  0  0  0  0  0  0  0  0  0
    2.6443   -1.8710    0.3448 H   0  0  0  0  0  0  0  0  0  0  0  0
    3.6535    1.8669    1.9501 H   0  0  0  0  0  0  0  0  0  0  0  0
  1  2  1  0
  2  3  1  0
  3  4  1  0
  4  5  1  0
  5  6  1  0
  6  7  1  0
  7  8  1  0
  8  9  1  0
  9 10  1  0
 10 11  2  0
 11 12  1  0
 12 13  1  0
 13 14  2  0
  8  2  1  0
 13  9  1  0
  7  3  1  0
  1 15  1  0
  1 16  1  0
  2 17  1  1
  3 18  1  1
  4 19  1  0
  4 20  1  0
  5 21  1  0
  5 22  1  0
  7 23  1  6
  8 24  1  6
 10 25  1  0
 12 26  1  0
M  END
$$$$

     RDKit          3D

 26 28  0  0  0  0  0  0  0  0999 V2000
   -0.3457   -0.8495    2.4279 N   0  0  0  0  0  0  0  0  0  0  0  0
    0.0834   -0.0136    1.3631 C   0  0  2  0  0  0  0  0  0  0  0  0
   -0.8413    0.6228    0.4753 C   0  0  2  0  0  0  0  0  0  0  0  0
   -2.2919    0.6805    0.5424 C   0  0  0  0  0  0  0  0  0  0  0  0
   -2.6300    0.1630   -0.8755 C   0  0  0  0  0  0  0  0  0  0  0  0
   -1.3882   -0.3017   -1.3968 O   0  0  0  0  0  0  0  0  0  0  0  0
   -0.8074   -0.7422   -0.2861 C   0  0  1  0  0  0  0  0  0  0  0  0
    0.5655   -0.7810    0.1022 C   0  0  1  0  0  0  0  0  0  0  0  0
    1.5782   -0.0856   -0.6381 N   0  0  0  0  0  0  0  0  0  0  0  0
    1.4208    0.6428   -1.7503 C   0  0  0  0  0  0  0  0  0  0  0  0
    2.6234    1.1061   -2.0974 N   0  0  0  0  0  0  0  0  0  0  0  0
    3.5001    0.6759   -1.2239 N   0  0  0  0  0  0  0  0  0  0  0  0
    2.8753   -0.0705   -0.3016 C   0  0  0  0  0  0  0  0  0  0  0  0
    3.4445   -0.6370    0.6869 O   0  0  0  0  0  0  0  0  0  0  0  0
   -1.3311   -1.1229    2.4321 H   0  0  0  0  0  0  0  0  0  0  0  0
    0.2887   -1.6899    2.4585 H   0  0  0  0  0  0  0  0  0  0  0  0
    0.9362    0.6277    1.6798 H   0  0  0  0  0  0  0  0  0  0  0  0
   -0.4067    1.4387   -0.1273 H   0  0  0  0  0  0  0  0  0  0  0  0
   -2.6889   -0.0296    1.2924 H   0  0  0  0  0  0  0  0  0  0  0  0
   -2.7416    1.6817    0.6980 H   0  0  0  0  0  0  0  0  0  0  0  0
   -3.0573    0.9461   -1.4973 H   0  0  0  0  0  0  0  0  0  0  0  0
   -3.2509   -0.7429   -0.7763 H   0  0  0  0  0  0  0  0  0  0  0  0
   -1.4375   -1.4757    0.2604 H   0  0  0  0  0  0  0  0  0  0  0  0
    0.9100   -1.7782    0.4623 H   0  0  0  0  0  0  0  0  0  0  0  0
    0.4585    0.8219   -2.2790 H   0  0  0  0  0  0  0  0  0  0  0  0
    4.5338    0.9129   -1.2858 H   0  0  0  0  0  0  0  0  0  0  0  0
  1  2  1  0
  2  3  1  0
  3  4  1  0
  4  5  1  0
  5  6  1  0
  6  7  1  0
  7  8  1  0
  8  9  1  0
  9 10  1  0
 10 11  2  0
 11 12  1  0
 12 13  1  0
 13 14  2  0
  8  2  1  0
 13  9  1  0
  7  3  1  0
  1 15  1  0
  1 16  1  0
  2 17  1  1
  3 18  1  6
  4 19  1  0
  4 20  1  0
  5 21  1  0
  5 22  1  0
  7 23  1  1
  8 24  1  1
 10 25  1  0
 12 26  1  0
M  END
$$$$

     RDKit          3D

 26 28  0  0  0  0  0  0  0  0999 V2000
   -1.2010   -2.0179    0.9072 N   0  0  0  0  0  0  0  0  0  0  0  0
   -0.2729   -0.8961    1.0486 C   0  0  2  0  0  0  0  0  0  0  0  0
   -0.8334    0.3358    0.5444 C   0  0  2  0  0  0  0  0  0  0  0  0
   -2.2420    0.6531    0.3419 C   0  0  0  0  0  0  0  0  0  0  0  0
   -2.2475    0.9318   -1.1772 C   0  0  0  0  0  0  0  0  0  0  0  0
   -0.9158    0.6447   -1.5972 O   0  0  0  0  0  0  0  0  0  0  0  0
   -0.6543   -0.4006   -0.8280 C   0  0  1  0  0  0  0  0  0  0  0  0
    0.5750   -0.8527   -0.2423 C   0  0  1  0  0  0  0  0  0  0  0  0
    1.7145   -0.0114   -0.1937 N   0  0  0  0  0  0  0  0  0  0  0  0
    2.4107    0.3210   -1.3087 C   0  0  0  0  0  0  0  0  0  0  0  0
    3.4244    1.1183   -0.9592 N   0  0  0  0  0  0  0  0  0  0  0  0
    3.4050    1.3108    0.3417 N   0  0  0  0  0  0  0  0  0  0  0  0
    2.3534    0.6146    0.8039 C   0  0  0  0  0  0  0  0  0  0  0  0
    2.0227    0.5615    1.9928 O   0  0  0  0  0  0  0  0  0  0  0  0
   -0.7803   -2.8288    0.4428 H   0  0  0  0  0  0  0  0  0  0  0  0
   -1.6783   -2.2276    1.8063 H   0  0  0  0  0  0  0  0  0  0  0  0
    0.2759   -0.9782    1.9672 H   0  0  0  0  0  0  0  0  0  0  0  0
   -0.1860    1.2360    0.4901 H   0  0  0  0  0  0  0  0  0  0  0  0
   -2.4797    1.6326    0.8276 H   0  0  0  0  0  0  0  0  0  0  0  0
   -2.9770   -0.1041    0.6075 H   0  0  0  0  0  0  0  0  0  0  0  0
   -2.9081    0.1651   -1.6338 H   0  0  0  0  0  0  0  0  0  0  0  0
   -2.5182    1.9587   -1.4023 H   0  0  0  0  0  0  0  0  0  0  0  0
   -1.4404   -1.1782   -0.8667 H   0  0  0  0  0  0  0  0  0  0  0  0
    0.8507   -1.9047   -0.5058 H   0  0  0  0  0  0  0  0  0  0  0  0
    2.2270    0.0239   -2.3326 H   0  0  0  0  0  0  0  0  0  0  0  0
    4.0758    1.8922    0.9117 H   0  0  0  0  0  0  0  0  0  0  0  0
  1  2  1  0
  2  3  1  0
  3  4  1  0
  4  5  1  0
  5  6  1  0
  6  7  1  0
  7  8  1  0
  8  9  1  0
  9 10  1  0
 10 11  2  0
 11 12  1  0
 12 13  1  0
 13 14  2  0
  8  2  1  0
 13  9  1  0
  7  3  1  0
  1 15  1  0
  1 16  1  0
  2 17  1  1
  3 18  1  6
  4 19  1  0
  4 20  1  0
  5 21  1  0
  5 22  1  0
  7 23  1  1
  8 24  1  6
 10 25  1  0
 12 26  1  0
M  END
$$$$

     RDKit          3D

 26 28  0  0  0  0  0  0  0  0999 V2000
    0.7309    0.1731   -2.4333 N   0  0  0  0  0  0  0  0  0  0  0  0
    0.1630    0.5041   -1.1766 C   0  0  2  0  0  0  0  0  0  0  0  0
    0.9355    0.5582    0.0262 C   0  0  2  0  0  0  0  0  0  0  0  0
    2.3722    0.4704    0.2087 C   0  0  0  0  0  0  0  0  0  0  0  0
    2.4283   -0.6671    1.2550 C   0  0  0  0  0  0  0  0  0  0  0  0
    1.0935   -1.1609    1.3228 O   0  0  0  0  0  0  0  0  0  0  0  0
    0.7041   -0.9886    0.0614 C   0  0  1  0  0  0  0  0  0  0  0  0
   -0.5724   -0.6771   -0.4860 C   0  0  1  0  0  0  0  0  0  0  0  0
   -1.6701   -0.2616    0.3111 N   0  0  0  0  0  0  0  0  0  0  0  0
   -1.8555   -0.5211    1.6155 C   0  0  0  0  0  0  0  0  0  0  0  0
   -3.0401    0.0808    1.9306 N   0  0  0  0  0  0  0  0  0  0  0  0
   -3.5434    0.6736    0.8689 N   0  0  0  0  0  0  0  0  0  0  0  0
   -2.7036    0.4690   -0.1430 C   0  0  0  0  0  0  0  0  0  0  0  0
   -2.8868    0.9101   -1.3292 O   0  0  0  0  0  0  0  0  0  0  0  0
   -0.0069    0.2766   -3.1664 H   0  0  0  0  0  0  0  0  0  0  0  0
    1.5759    0.7123   -2.6683 H   0  0  0  0  0  0  0  0  0  0  0  0
   -0.5890    1.3343   -1.2695 H   0  0  0  0  0  0  0  0  0  0  0  0
    0.4175    1.0349    0.8772 H   0  0  0  0  0  0  0  0  0  0  0  0
    2.8587    1.3893    0.6359 H   0  0  0  0  0  0  0  0  0  0  0  0
    2.9637    0.1873   -0.6656 H   0  0  0  0  0  0  0  0  0  0  0  0
    2.7629   -0.3020    2.2248 H   0  0  0  0  0  0  0  0  0  0  0  0
    3.0237   -1.4980    0.8398 H   0  0  0  0  0  0  0  0  0  0  0  0
    1.3968   -1.4654   -0.6612 H   0  0  0  0  0  0  0  0  0  0  0  0
   -0.9117   -1.3490   -1.3032 H   0  0  0  0  0  0  0  0  0  0  0  0
   -1.2096   -1.0902    2.2981 H   0  0  0  0  0  0  0  0  0  0  0  0
   -4.4376    1.2070    0.8262 H   0  0  0  0  0  0  0  0  0  0  0  0
  1  2  1  0
  2  3  1  0
  3  4  1  0
  4  5  1  0
  5  6  1  0
  6  7  1  0
  7  8  1  0
  8  9  1  0
  9 10  1  0
 10 11  2  0
 11 12  1  0
 12 13  1  0
 13 14  2  0
  8  2  1  0
 13  9  1  0
  7  3  1  0
  1 15  1  0
  1 16  1  0
  2 17  1  6
  3 18  1  1
  4 19  1  0
  4 20  1  0
  5 21  1  0
  5 22  1  0
  7 23  1  6
  8 24  1  6
 10 25  1  0
 12 26  1  0
M  END
$$$$
