
     RDKit          3D

 23 24  0  0  0  0  0  0  0  0999 V2000
   -2.4321    2.0033    0.8369 C   0  0  0  0  0  0  0  0  0  0  0  0
   -2.4376    0.7585    0.1923 O   0  0  0  0  0  0  0  0  0  0  0  0
   -1.3318   -0.0332    0.0240 C   0  0  0  0  0  0  0  0  0  0  0  0
   -0.0575    0.2493    0.4476 C   0  0  0  0  0  0  0  0  0  0  0  0
    0.7779   -0.8062    0.0840 C   0  0  0  0  0  0  0  0  0  0  0  0
    2.1767   -0.8493    0.3665 N   0  0  0  0  0  0  0  0  0  0  0  0
    2.8613   -1.7794    0.9997 N   0  0  0  0  0  0  0  0  0  0  0  0
    4.1271   -1.4346    1.0463 N   0  0  0  0  0  0  0  0  0  0  0  0
    4.2675   -0.2730    0.4397 N   0  0  0  0  0  0  0  0  0  0  0  0
    3.0778    0.1084    0.0117 C   0  0  0  0  0  0  0  0  0  0  0  0
    2.7463    1.2920   -0.6943 N   0  0  0  0  0  0  0  0  0  0  0  0
   -0.0179   -1.6863   -0.5442 N   0  0  0  0  0  0  0  0  0  0  0  0
   -1.2810   -1.2234   -0.5801 N   0  0  0  0  0  0  0  0  0  0  0  0
   -2.4193   -1.8971   -1.1762 C   0  0  0  0  0  0  0  0  0  0  0  0
   -2.9851    1.9881    1.8021 H   0  0  0  0  0  0  0  0  0  0  0  0
   -2.9954    2.7435    0.1972 H   0  0  0  0  0  0  0  0  0  0  0  0
   -1.4165    2.4064    1.0248 H   0  0  0  0  0  0  0  0  0  0  0  0
    0.2989    1.1391    0.9851 H   0  0  0  0  0  0  0  0  0  0  0  0
    1.8604    1.4442   -1.2031 H   0  0  0  0  0  0  0  0  0  0  0  0
    3.4385    2.0730   -0.7085 H   0  0  0  0  0  0  0  0  0  0  0  0
   -3.3417   -1.7603   -0.5615 H   0  0  0  0  0  0  0  0  0  0  0  0
   -2.2542   -2.9956   -1.2245 H   0  0  0  0  0  0  0  0  0  0  0  0
   -2.6622   -1.4674   -2.1834 H   0  0  0  0  0  0  0  0  0  0  0  0
  1  2  1  0
  2  3  1  0
  3  4  2  0
  4  5  1  0
  5  6  1  0
  6  7  1  0
  7  8  2  0
  8  9  1  0
  9 10  2  0
 10 11  1  0
  5 12  2  0
 12 13  1  0
 13 14  1  0
 13  3  1  0
 10  6  1  0
  1 15  1  0
  1 16  1  0
  1 17  1  0
  4 18  1  0
 11 19  1  0
 11 20  1  0
 14 21  1  0
 14 22  1  0
 14 23  1  0
M  END
$$$$

     RDKit          3D

 23 24  0  0  0  0  0  0  0  0999 V2000
    2.9323    0.9442   -1.4879 C   0  0  0  0  0  0  0  0  0  0  0  0
    2.6359    0.5010   -0.1655 O   0  0  0  0  0  0  0  0  0  0  0  0
    1.3715    0.0131    0.1395 C   0  0  0  0  0  0  0  0  0  0  0  0
    0.3189   -0.0938   -0.7448 C   0  0  0  0  0  0  0  0  0  0  0  0
   -0.7213   -0.6285    0.0131 C   0  0  0  0  0  0  0  0  0  0  0  0
   -2.0194   -0.9233   -0.4576 N   0  0  0  0  0  0  0  0  0  0  0  0
   -2.4427   -2.0738   -0.9206 N   0  0  0  0  0  0  0  0  0  0  0  0
   -3.7293   -1.9462   -1.2640 N   0  0  0  0  0  0  0  0  0  0  0  0
   -4.1389   -0.7182   -1.0247 N   0  0  0  0  0  0  0  0  0  0  0  0
   -3.0462   -0.0739   -0.5121 C   0  0  0  0  0  0  0  0  0  0  0  0
   -3.0230    1.2837   -0.1067 N   0  0  0  0  0  0  0  0  0  0  0  0
   -0.2603   -0.8138    1.2835 N   0  0  0  0  0  0  0  0  0  0  0  0
    0.9982   -0.4257    1.3508 N   0  0  0  0  0  0  0  0  0  0  0  0
    1.8363   -0.4705    2.5491 C   0  0  0  0  0  0  0  0  0  0  0  0
    2.4285    0.2773   -2.2405 H   0  0  0  0  0  0  0  0  0  0  0  0
    4.0267    0.9744   -1.6577 H   0  0  0  0  0  0  0  0  0  0  0  0
    2.5491    1.9702   -1.6639 H   0  0  0  0  0  0  0  0  0  0  0  0
    0.2415    0.1553   -1.7874 H   0  0  0  0  0  0  0  0  0  0  0  0
   -3.4850    1.9732   -0.7391 H   0  0  0  0  0  0  0  0  0  0  0  0
   -2.5554    1.5446    0.7905 H   0  0  0  0  0  0  0  0  0  0  0  0
    1.1816   -0.3889    3.4403 H   0  0  0  0  0  0  0  0  0  0  0  0
    2.5420    0.3655    2.5665 H   0  0  0  0  0  0  0  0  0  0  0  0
    2.3588   -1.4459    2.6391 H   0  0  0  0  0  0  0  0  0  0  0  0
  1  2  1  0
  2  3  1  0
  3  4  2  0
  4  5  1  0
  5  6  1  0
  6  7  1  0
  7  8  2  0
  8  9  1  0
  9 10  2  0
 10 11  1  0
  5 12  2  0
 12 13  1  0
 13 14  1  0
 13  3  1  0
 10  6  1  0
  1 15  1  0
  1 16  1  0
  1 17  1  0
  4 18  1  0
 11 19  1  0
 11 20  1  0
 14 21  1  0
 14 22  1  0
 14 23  1  0
M  END
$$$$

     RDKit          3D

 23 24  0  0  0  0  0  0  0  0999 V2000
   -2.7478   -1.9271    0.0784 C   0  0  0  0  0  0  0  0  0  0  0  0
   -2.5837   -0.5879   -0.2828 O   0  0  0  0  0  0  0  0  0  0  0  0
   -1.3494    0.0549   -0.0799 C   0  0  0  0  0  0  0  0  0  0  0  0
   -0.2189   -0.5101    0.4629 C   0  0  0  0  0  0  0  0  0  0  0  0
    0.7223    0.4722    0.4652 C   0  0  0  0  0  0  0  0  0  0  0  0
    2.0826    0.3785    0.9370 N   0  0  0  0  0  0  0  0  0  0  0  0
    2.5416    0.8832    2.0575 N   0  0  0  0  0  0  0  0  0  0  0  0
    3.8249    0.5940    2.1426 N   0  0  0  0  0  0  0  0  0  0  0  0
    4.1710   -0.0944    1.0715 N   0  0  0  0  0  0  0  0  0  0  0  0
    3.0860   -0.2385    0.3029 C   0  0  0  0  0  0  0  0  0  0  0  0
    2.9851   -0.9140   -0.9555 N   0  0  0  0  0  0  0  0  0  0  0  0
    0.1754    1.5805   -0.0559 N   0  0  0  0  0  0  0  0  0  0  0  0
   -1.0755    1.3334   -0.3866 N   0  0  0  0  0  0  0  0  0  0  0  0
   -2.0491    2.2535   -0.9884 C   0  0  0  0  0  0  0  0  0  0  0  0
   -3.7791   -2.0242    0.5182 H   0  0  0  0  0  0  0  0  0  0  0  0
   -2.6543   -2.6248   -0.7828 H   0  0  0  0  0  0  0  0  0  0  0  0
   -2.0575   -2.2764    0.8672 H   0  0  0  0  0  0  0  0  0  0  0  0
   -0.1195   -1.5298    0.8109 H   0  0  0  0  0  0  0  0  0  0  0  0
    2.9227   -0.3824   -1.8493 H   0  0  0  0  0  0  0  0  0  0  0  0
    2.9731   -1.9594   -0.9858 H   0  0  0  0  0  0  0  0  0  0  0  0
   -2.2710    1.9989   -2.0313 H   0  0  0  0  0  0  0  0  0  0  0  0
   -2.9569    2.2359   -0.3317 H   0  0  0  0  0  0  0  0  0  0  0  0
   -1.6219    3.2840   -0.9845 H   0  0  0  0  0  0  0  0  0  0  0  0
  1  2  1  0
  2  3  1  0
  3  4  2  0
  4  5  1  0
  5  6  1  0
  6  7  1  0
  7  8  2  0
  8  9  1  0
  9 10  2  0
 10 11  1  0
  5 12  2  0
 12 13  1  0
 13 14  1  0
 13  3  1  0
 10  6  1  0
  1 15  1  0
  1 16  1  0
  1 17  1  0
  4 18  1  0
 11 19  1  0
 11 20  1  0
 14 21  1  0
 14 22  1  0
 14 23  1  0
M  END
$$$$

     RDKit          3D

 23 24  0  0  0  0  0  0  0  0999 V2000
    2.9079   -1.9749   -0.2656 C   0  0  0  0  0  0  0  0  0  0  0  0
    2.6953   -0.5960   -0.2037 O   0  0  0  0  0  0  0  0  0  0  0  0
    1.4083   -0.0942    0.0665 C   0  0  0  0  0  0  0  0  0  0  0  0
    0.2532   -0.8108    0.2934 C   0  0  0  0  0  0  0  0  0  0  0  0
   -0.7838    0.0692    0.5175 C   0  0  0  0  0  0  0  0  0  0  0  0
   -2.1492   -0.2163    0.7932 N   0  0  0  0  0  0  0  0  0  0  0  0
   -2.6987   -0.7166    1.8854 N   0  0  0  0  0  0  0  0  0  0  0  0
   -4.0029   -0.8261    1.7331 N   0  0  0  0  0  0  0  0  0  0  0  0
   -4.3291   -0.3949    0.5278 N   0  0  0  0  0  0  0  0  0  0  0  0
   -3.1755   -0.0175   -0.0517 C   0  0  0  0  0  0  0  0  0  0  0  0
   -3.0430    0.5168   -1.3681 N   0  0  0  0  0  0  0  0  0  0  0  0
   -0.2216    1.3107    0.4189 N   0  0  0  0  0  0  0  0  0  0  0  0
    1.0572    1.2008    0.1556 N   0  0  0  0  0  0  0  0  0  0  0  0
    2.0354    2.2814   -0.0303 C   0  0  0  0  0  0  0  0  0  0  0  0
    3.8445   -2.2169    0.3004 H   0  0  0  0  0  0  0  0  0  0  0  0
    3.0620   -2.2634   -1.3424 H   0  0  0  0  0  0  0  0  0  0  0  0
    2.0781   -2.5843    0.1369 H   0  0  0  0  0  0  0  0  0  0  0  0
    0.1627   -1.9011    0.2974 H   0  0  0  0  0  0  0  0  0  0  0  0
   -3.3589    0.0423   -2.2215 H   0  0  0  0  0  0  0  0  0  0  0  0
   -2.5812    1.4708   -1.4221 H   0  0  0  0  0  0  0  0  0  0  0  0
    1.5726    3.2625    0.2298 H   0  0  0  0  0  0  0  0  0  0  0  0
    2.3616    2.3038   -1.0972 H   0  0  0  0  0  0  0  0  0  0  0  0
    2.9052    2.1549    0.6465 H   0  0  0  0  0  0  0  0  0  0  0  0
  1  2  1  0
  2  3  1  0
  3  4  2  0
  4  5  1  0
  5  6  1  0
  6  7  1  0
  7  8  2  0
  8  9  1  0
  9 10  2  0
 10 11  1  0
  5 12  2  0
 12 13  1  0
 13 14  1  0
 13  3  1  0
 10  6  1  0
  1 15  1  0
  1 16  1  0
  1 17  1  0
  4 18  1  0
 11 19  1  0
 11 20  1  0
 14 21  1  0
 14 22  1  0
 14 23  1  0
M  END
$$$$

     RDKit          3D

 23 24  0  0  0  0  0  0  0  0999 V2000
   -3.2201    0.4564   -1.2584 C   0  0  0  0  0  0  0  0  0  0  0  0
   -2.6759    0.0851   -0.0312 O   0  0  0  0  0  0  0  0  0  0  0  0
   -1.3497   -0.1932    0.1996 C   0  0  0  0  0  0  0  0  0  0  0  0
   -0.2760   -0.1751   -0.6861 C   0  0  0  0  0  0  0  0  0  0  0  0
    0.8616   -0.5266    0.0087 C   0  0  0  0  0  0  0  0  0  0  0  0
    2.1877   -0.6256   -0.5503 N   0  0  0  0  0  0  0  0  0  0  0  0
    2.7623   -1.7266   -1.0036 N   0  0  0  0  0  0  0  0  0  0  0  0
    3.9650   -1.4450   -1.4364 N   0  0  0  0  0  0  0  0  0  0  0  0
    4.1773   -0.1598   -1.2663 N   0  0  0  0  0  0  0  0  0  0  0  0
    3.0759    0.3702   -0.7128 C   0  0  0  0  0  0  0  0  0  0  0  0
    2.8980    1.7214   -0.3709 N   0  0  0  0  0  0  0  0  0  0  0  0
    0.4719   -0.7478    1.2754 N   0  0  0  0  0  0  0  0  0  0  0  0
   -0.8392   -0.5507    1.3913 N   0  0  0  0  0  0  0  0  0  0  0  0
   -1.6347   -0.6941    2.6199 C   0  0  0  0  0  0  0  0  0  0  0  0
   -4.2393   -0.0127   -1.3785 H   0  0  0  0  0  0  0  0  0  0  0  0
   -3.4397    1.5644   -1.2640 H   0  0  0  0  0  0  0  0  0  0  0  0
   -2.5867    0.2668   -2.1310 H   0  0  0  0  0  0  0  0  0  0  0  0
   -0.3929    0.0818   -1.7299 H   0  0  0  0  0  0  0  0  0  0  0  0
    2.8540    1.9970    0.6362 H   0  0  0  0  0  0  0  0  0  0  0  0
    2.8062    2.4747   -1.0811 H   0  0  0  0  0  0  0  0  0  0  0  0
   -2.0344   -1.7206    2.6750 H   0  0  0  0  0  0  0  0  0  0  0  0
   -2.4274    0.0861    2.6191 H   0  0  0  0  0  0  0  0  0  0  0  0
   -0.9440   -0.5260    3.4752 H   0  0  0  0  0  0  0  0  0  0  0  0
  1  2  1  0
  2  3  1  0
  3  4  2  0
  4  5  1  0
  5  6  1  0
  6  7  1  0
  7  8  2  0
  8  9  1  0
  9 10  2  0
 10 11  1  0
  5 12  2  0
 12 13  1  0
 13 14  1  0
 13  3  1  0
 10  6  1  0
  1 15  1  0
  1 16  1  0
  1 17  1  0
  4 18  1  0
 11 19  1  0
 11 20  1  0
 14 21  1  0
 14 22  1  0
 14 23  1  0
M  END
$$$$

     RDKit          3D

 23 24  0  0  0  0  0  0  0  0999 V2000
   -2.7313    1.6203    0.8473 C   0  0  0  0  0  0  0  0  0  0  0  0
   -2.5212    0.4210    0.1587 O   0  0  0  0  0  0  0  0  0  0  0  0
   -1.3013   -0.1636   -0.0659 C   0  0  0  0  0  0  0  0  0  0  0  0
   -0.0547    0.2626    0.3101 C   0  0  0  0  0  0  0  0  0  0  0  0
    0.8934   -0.6641   -0.1439 C   0  0  0  0  0  0  0  0  0  0  0  0
    2.2995   -0.6018    0.0327 N   0  0  0  0  0  0  0  0  0  0  0  0
    3.1220   -1.6410   -0.0124 N   0  0  0  0  0  0  0  0  0  0  0  0
    4.3660   -1.2398    0.1915 N   0  0  0  0  0  0  0  0  0  0  0  0
    4.3260    0.0661    0.3668 N   0  0  0  0  0  0  0  0  0  0  0  0
    3.0494    0.4772    0.2711 C   0  0  0  0  0  0  0  0  0  0  0  0
    2.5332    1.8167    0.3942 N   0  0  0  0  0  0  0  0  0  0  0  0
    0.1717   -1.6151   -0.7782 N   0  0  0  0  0  0  0  0  0  0  0  0
   -1.1135   -1.3114   -0.7262 N   0  0  0  0  0  0  0  0  0  0  0  0
   -2.1674   -2.1207   -1.3097 C   0  0  0  0  0  0  0  0  0  0  0  0
   -3.3619    2.3432    0.2806 H   0  0  0  0  0  0  0  0  0  0  0  0
   -1.7911    2.1550    1.1011 H   0  0  0  0  0  0  0  0  0  0  0  0
   -3.2980    1.3821    1.7693 H   0  0  0  0  0  0  0  0  0  0  0  0
    0.1447    1.1658    0.8643 H   0  0  0  0  0  0  0  0  0  0  0  0
    2.2617    2.3837   -0.4367 H   0  0  0  0  0  0  0  0  0  0  0  0
    2.4106    2.2736    1.3243 H   0  0  0  0  0  0  0  0  0  0  0  0
   -2.0256   -2.0796   -2.4117 H   0  0  0  0  0  0  0  0  0  0  0  0
   -3.1691   -1.7333   -1.0047 H   0  0  0  0  0  0  0  0  0  0  0  0
   -2.0431   -3.1968   -1.0225 H   0  0  0  0  0  0  0  0  0  0  0  0
  1  2  1  0
  2  3  1  0
  3  4  2  0
  4  5  1  0
  5  6  1  0
  6  7  1  0
  7  8  2  0
  8  9  1  0
  9 10  2  0
 10 11  1  0
  5 12  2  0
 12 13  1  0
 13 14  1  0
 13  3  1  0
 10  6  1  0
  1 15  1  0
  1 16  1  0
  1 17  1  0
  4 18  1  0
 11 19  1  0
 11 20  1  0
 14 21  1  0
 14 22  1  0
 14 23  1  0
M  END
$$$$

     RDKit          3D

 23 24  0  0  0  0  0  0  0  0999 V2000
    2.8858   -1.6873    0.3090 C   0  0  0  0  0  0  0  0  0  0  0  0
    2.5911   -0.3266    0.2205 O   0  0  0  0  0  0  0  0  0  0  0  0
    1.3242    0.1762   -0.0566 C   0  0  0  0  0  0  0  0  0  0  0  0
    0.1842   -0.5622   -0.2830 C   0  0  0  0  0  0  0  0  0  0  0  0
   -0.8452    0.3571   -0.5180 C   0  0  0  0  0  0  0  0  0  0  0  0
   -2.1943    0.0349   -0.7966 N   0  0  0  0  0  0  0  0  0  0  0  0
   -2.8425    0.2762   -1.9141 N   0  0  0  0  0  0  0  0  0  0  0  0
   -4.0851   -0.1575   -1.8309 N   0  0  0  0  0  0  0  0  0  0  0  0
   -4.2667   -0.6937   -0.6446 N   0  0  0  0  0  0  0  0  0  0  0  0
   -3.0786   -0.5732    0.0062 C   0  0  0  0  0  0  0  0  0  0  0  0
   -2.7582   -0.9976    1.3161 N   0  0  0  0  0  0  0  0  0  0  0  0
   -0.2590    1.5616   -0.4174 N   0  0  0  0  0  0  0  0  0  0  0  0
    1.0240    1.4834   -0.1451 N   0  0  0  0  0  0  0  0  0  0  0  0
    1.9675    2.6012    0.0325 C   0  0  0  0  0  0  0  0  0  0  0  0
    1.9957   -2.3347    0.4206 H   0  0  0  0  0  0  0  0  0  0  0  0
    3.4948   -2.0737   -0.5245 H   0  0  0  0  0  0  0  0  0  0  0  0
    3.5091   -1.8240    1.2380 H   0  0  0  0  0  0  0  0  0  0  0  0
    0.0536   -1.6364   -0.2898 H   0  0  0  0  0  0  0  0  0  0  0  0
   -2.4205   -1.9648    1.4575 H   0  0  0  0  0  0  0  0  0  0  0  0
   -2.8603   -0.3532    2.1127 H   0  0  0  0  0  0  0  0  0  0  0  0
    1.3990    3.5364    0.2199 H   0  0  0  0  0  0  0  0  0  0  0  0
    2.5908    2.4049    0.9418 H   0  0  0  0  0  0  0  0  0  0  0  0
    2.5905    2.7530   -0.8543 H   0  0  0  0  0  0  0  0  0  0  0  0
  1  2  1  0
  2  3  1  0
  3  4  2  0
  4  5  1  0
  5  6  1  0
  6  7  1  0
  7  8  2  0
  8  9  1  0
  9 10  2  0
 10 11  1  0
  5 12  2  0
 12 13  1  0
 13 14  1  0
 13  3  1  0
 10  6  1  0
  1 15  1  0
  1 16  1  0
  1 17  1  0
  4 18  1  0
 11 19  1  0
 11 20  1  0
 14 21  1  0
 14 22  1  0
 14 23  1  0
M  END
$$$$

     RDKit          3D

 23 24  0  0  0  0  0  0  0  0999 V2000
   -3.1411   -1.5782   -0.1234 C   0  0  0  0  0  0  0  0  0  0  0  0
   -2.6995   -0.2497   -0.2000 O   0  0  0  0  0  0  0  0  0  0  0  0
   -1.3836    0.1234    0.0290 C   0  0  0  0  0  0  0  0  0  0  0  0
   -0.3648   -0.7048    0.3489 C   0  0  0  0  0  0  0  0  0  0  0  0
    0.7542    0.0882    0.4829 C   0  0  0  0  0  0  0  0  0  0  0  0
    2.0554   -0.3964    0.8183 N   0  0  0  0  0  0  0  0  0  0  0  0
    2.3812   -0.8693    2.0014 N   0  0  0  0  0  0  0  0  0  0  0  0
    3.6710   -1.2389    1.9877 N   0  0  0  0  0  0  0  0  0  0  0  0
    4.1761   -0.9989    0.7794 N   0  0  0  0  0  0  0  0  0  0  0  0
    3.1493   -0.4707    0.0588 C   0  0  0  0  0  0  0  0  0  0  0  0
    3.2046   -0.0515   -1.3019 N   0  0  0  0  0  0  0  0  0  0  0  0
    0.3718    1.3401    0.2428 N   0  0  0  0  0  0  0  0  0  0  0  0
   -0.9033    1.3662   -0.0285 N   0  0  0  0  0  0  0  0  0  0  0  0
   -1.7237    2.5341   -0.3500 C   0  0  0  0  0  0  0  0  0  0  0  0
   -2.2705   -2.2460   -0.0206 H   0  0  0  0  0  0  0  0  0  0  0  0
   -3.7610   -1.8616   -1.0126 H   0  0  0  0  0  0  0  0  0  0  0  0
   -3.7722   -1.6993    0.7767 H   0  0  0  0  0  0  0  0  0  0  0  0
   -0.3454   -1.7883    0.4912 H   0  0  0  0  0  0  0  0  0  0  0  0
    3.4216   -0.7693   -2.0329 H   0  0  0  0  0  0  0  0  0  0  0  0
    3.0340    0.9429   -1.5650 H   0  0  0  0  0  0  0  0  0  0  0  0
   -2.5310    2.2711   -1.0796 H   0  0  0  0  0  0  0  0  0  0  0  0
   -2.2188    2.9505    0.5455 H   0  0  0  0  0  0  0  0  0  0  0  0
   -1.1044    3.3064   -0.8482 H   0  0  0  0  0  0  0  0  0  0  0  0
  1  2  1  0
  2  3  1  0
  3  4  2  0
  4  5  1  0
  5  6  1  0
  6  7  1  0
  7  8  2  0
  8  9  1  0
  9 10  2  0
 10 11  1  0
  5 12  2  0
 12 13  1  0
 13 14  1  0
 13  3  1  0
 10  6  1  0
  1 15  1  0
  1 16  1  0
  1 17  1  0
  4 18  1  0
 11 19  1  0
 11 20  1  0
 14 21  1  0
 14 22  1  0
 14 23  1  0
M  END
$$$$
