
     RDKit          3D

 19 20  0  0  0  0  0  0  0  0999 V2000
    2.5145    1.7981    0.0285 O   0  0  0  0  0  0  0  0  0  0  0  0
    1.6607    0.9602    0.4199 C   0  0  0  0  0  0  0  0  0  0  0  0
    0.3627    1.2131    0.8702 O   0  0  0  0  0  0  0  0  0  0  0  0
   -0.4571    0.0756    0.6654 C   0  0  2  0  0  0  0  0  0  0  0  0
    0.4489   -0.9642   -0.0077 C   0  0  1  0  0  0  0  0  0  0  0  0
    0.2626   -0.6582   -1.3717 O   0  0  0  0  0  0  0  0  0  0  0  0
   -1.0445   -0.2538   -1.6075 C   0  0  0  0  0  0  0  0  0  0  0  0
   -1.6824   -0.3664   -2.6864 O   0  0  0  0  0  0  0  0  0  0  0  0
   -1.5403    0.3339   -0.3459 C   0  0  0  0  0  0  0  0  0  0  0  0
   -2.7444   -0.2593    0.0102 O   0  0  0  0  0  0  0  0  0  0  0  0
   -1.6822    1.7326   -0.4382 O   0  0  0  0  0  0  0  0  0  0  0  0
    1.7939   -0.5329    0.5130 C   0  0  1  0  0  0  0  0  0  0  0  0
    2.8571   -1.0183   -0.1934 O   0  0  0  0  0  0  0  0  0  0  0  0
   -0.8207   -0.3446    1.6087 H   0  0  0  0  0  0  0  0  0  0  0  0
    0.1602   -1.9766    0.2630 H   0  0  0  0  0  0  0  0  0  0  0  0
   -3.5077    0.2797   -0.2731 H   0  0  0  0  0  0  0  0  0  0  0  0
   -1.9777    2.0090    0.4866 H   0  0  0  0  0  0  0  0  0  0  0  0
    1.8102   -0.7637    1.5978 H   0  0  0  0  0  0  0  0  0  0  0  0
    3.5863   -1.2639    0.4606 H   0  0  0  0  0  0  0  0  0  0  0  0
  1  2  2  0
  2  3  1  0
  3  4  1  0
  4  5  1  0
  5  6  1  0
  6  7  1  0
  7  8  2  0
  7  9  1  0
  9 10  1  0
  9 11  1  0
  5 12  1  0
 12 13  1  0
 12  2  1  0
  9  4  1  0
  4 14  1  1
  5 15  1  6
 10 16  1  0
 11 17  1  0
 12 18  1  1
 13 19  1  0
M  END
$$$$

     RDKit          3D

 19 20  0  0  0  0  0  0  0  0999 V2000
    1.9571   -2.1218   -0.1827 O   0  0  0  0  0  0  0  0  0  0  0  0
    1.4764   -0.9813   -0.4761 C   0  0  0  0  0  0  0  0  0  0  0  0
    0.5025   -0.6668   -1.4141 O   0  0  0  0  0  0  0  0  0  0  0  0
   -0.2663    0.3800   -0.8868 C   0  0  2  0  0  0  0  0  0  0  0  0
    0.5370    1.0232    0.2166 C   0  0  1  0  0  0  0  0  0  0  0  0
   -0.1848    0.7744    1.3865 O   0  0  0  0  0  0  0  0  0  0  0  0
   -1.5296    0.5853    1.0607 C   0  0  0  0  0  0  0  0  0  0  0  0
   -2.5534    0.9842    1.6990 O   0  0  0  0  0  0  0  0  0  0  0  0
   -1.5048   -0.1920   -0.2080 C   0  0  0  0  0  0  0  0  0  0  0  0
   -1.2681   -1.5318    0.1592 O   0  0  0  0  0  0  0  0  0  0  0  0
   -2.6423   -0.0496   -0.9598 O   0  0  0  0  0  0  0  0  0  0  0  0
    1.8455    0.3267    0.1251 C   0  0  1  0  0  0  0  0  0  0  0  0
    2.5188    0.1929    1.3209 O   0  0  0  0  0  0  0  0  0  0  0  0
   -0.5969    1.1079   -1.6428 H   0  0  0  0  0  0  0  0  0  0  0  0
    0.6188    2.1211    0.0976 H   0  0  0  0  0  0  0  0  0  0  0  0
   -2.0567   -1.7764    0.7373 H   0  0  0  0  0  0  0  0  0  0  0  0
   -2.7583   -0.9060   -1.4768 H   0  0  0  0  0  0  0  0  0  0  0  0
    2.4619    0.8541   -0.6507 H   0  0  0  0  0  0  0  0  0  0  0  0
    3.4432   -0.1242    1.0950 H   0  0  0  0  0  0  0  0  0  0  0  0
  1  2  2  0
  2  3  1  0
  3  4  1  0
  4  5  1  0
  5  6  1  0
  6  7  1  0
  7  8  2  0
  7  9  1  0
  9 10  1  0
  9 11  1  0
  5 12  1  0
 12 13  1  0
 12  2  1  0
  9  4  1  0
  4 14  1  6
  5 15  1  6
 10 16  1  0
 11 17  1  0
 12 18  1  6
 13 19  1  0
M  END
$$$$

     RDKit          3D

 19 20  0  0  0  0  0  0  0  0999 V2000
    2.3615    2.0778   -1.0934 O   0  0  0  0  0  0  0  0  0  0  0  0
    1.5888    1.3226   -0.4755 C   0  0  0  0  0  0  0  0  0  0  0  0
    0.2297    1.5293   -0.3296 O   0  0  0  0  0  0  0  0  0  0  0  0
   -0.3298    0.5283    0.5014 C   0  0  2  0  0  0  0  0  0  0  0  0
    0.6076   -0.6388    0.2695 C   0  0  1  0  0  0  0  0  0  0  0  0
    0.2112   -1.0961   -1.0092 O   0  0  0  0  0  0  0  0  0  0  0  0
   -1.1146   -0.7745   -1.2474 C   0  0  0  0  0  0  0  0  0  0  0  0
   -1.7734   -1.0629   -2.2707 O   0  0  0  0  0  0  0  0  0  0  0  0
   -1.6251   -0.0250   -0.0758 C   0  0  0  0  0  0  0  0  0  0  0  0
   -2.1097   -0.9438    0.8503 O   0  0  0  0  0  0  0  0  0  0  0  0
   -2.5311    0.9551   -0.3956 O   0  0  0  0  0  0  0  0  0  0  0  0
    1.9506    0.0728    0.2181 C   0  0  1  0  0  0  0  0  0  0  0  0
    2.9248   -0.6611   -0.4129 O   0  0  0  0  0  0  0  0  0  0  0  0
   -0.4116    0.8203    1.5463 H   0  0  0  0  0  0  0  0  0  0  0  0
    0.5538   -1.4018    1.0485 H   0  0  0  0  0  0  0  0  0  0  0  0
   -3.0822   -0.9883    0.8952 H   0  0  0  0  0  0  0  0  0  0  0  0
   -3.0459    1.1623    0.4372 H   0  0  0  0  0  0  0  0  0  0  0  0
    2.1980    0.3344    1.2700 H   0  0  0  0  0  0  0  0  0  0  0  0
    3.3973   -1.2106    0.2735 H   0  0  0  0  0  0  0  0  0  0  0  0
  1  2  2  0
  2  3  1  0
  3  4  1  0
  4  5  1  0
  5  6  1  0
  6  7  1  0
  7  8  2  0
  7  9  1  0
  9 10  1  0
  9 11  1  0
  5 12  1  0
 12 13  1  0
 12  2  1  0
  9  4  1  0
  4 14  1  1
  5 15  1  1
 10 16  1  0
 11 17  1  0
 12 18  1  1
 13 19  1  0
M  END
$$$$

     RDKit          3D

 19 20  0  0  0  0  0  0  0  0999 V2000
   -2.6942   -0.6283    1.5353 O   0  0  0  0  0  0  0  0  0  0  0  0
   -1.7895   -0.1664    0.8182 C   0  0  0  0  0  0  0  0  0  0  0  0
   -0.5793    0.3362    1.2481 O   0  0  0  0  0  0  0  0  0  0  0  0
    0.1989    0.7725    0.1469 C   0  0  2  0  0  0  0  0  0  0  0  0
   -0.3402   -0.0877   -0.9782 C   0  0  1  0  0  0  0  0  0  0  0  0
    0.2301   -1.3482   -0.6832 O   0  0  0  0  0  0  0  0  0  0  0  0
    1.4156   -1.1908    0.0087 C   0  0  0  0  0  0  0  0  0  0  0  0
    2.1738   -2.1096    0.3682 O   0  0  0  0  0  0  0  0  0  0  0  0
    1.6263    0.2487    0.2467 C   0  0  0  0  0  0  0  0  0  0  0  0
    2.2107    0.5358    1.4566 O   0  0  0  0  0  0  0  0  0  0  0  0
    2.3213    0.7834   -0.8338 O   0  0  0  0  0  0  0  0  0  0  0  0
   -1.8249   -0.0598   -0.6551 C   0  0  1  0  0  0  0  0  0  0  0  0
   -2.5117   -1.0930   -1.2610 O   0  0  0  0  0  0  0  0  0  0  0  0
    0.1419    1.8397   -0.0443 H   0  0  0  0  0  0  0  0  0  0  0  0
   -0.1035    0.2854   -1.9701 H   0  0  0  0  0  0  0  0  0  0  0  0
    2.5809    1.4699    1.3838 H   0  0  0  0  0  0  0  0  0  0  0  0
    2.2688    0.1566   -1.6125 H   0  0  0  0  0  0  0  0  0  0  0  0
   -2.1890    0.9480   -0.9796 H   0  0  0  0  0  0  0  0  0  0  0  0
   -3.1359   -0.6924   -1.9260 H   0  0  0  0  0  0  0  0  0  0  0  0
  1  2  2  0
  2  3  1  0
  3  4  1  0
  4  5  1  0
  5  6  1  0
  6  7  1  0
  7  8  2  0
  7  9  1  0
  9 10  1  0
  9 11  1  0
  5 12  1  0
 12 13  1  0
 12  2  1  0
  9  4  1  0
  4 14  1  6
  5 15  1  6
 10 16  1  0
 11 17  1  0
 12 18  1  1
 13 19  1  0
M  END
$$$$

     RDKit          3D

 19 20  0  0  0  0  0  0  0  0999 V2000
    2.7291    0.2096    1.8906 O   0  0  0  0  0  0  0  0  0  0  0  0
    1.7739   -0.0160    1.1079 C   0  0  0  0  0  0  0  0  0  0  0  0
    0.4672   -0.3521    1.4396 O   0  0  0  0  0  0  0  0  0  0  0  0
   -0.1968   -0.7926    0.2725 C   0  0  2  0  0  0  0  0  0  0  0  0
    0.4307    0.1160   -0.7685 C   0  0  1  0  0  0  0  0  0  0  0  0
   -0.1490    1.3716   -0.4021 O   0  0  0  0  0  0  0  0  0  0  0  0
   -1.3838    1.1672    0.1792 C   0  0  0  0  0  0  0  0  0  0  0  0
   -2.1716    2.0240    0.6168 O   0  0  0  0  0  0  0  0  0  0  0  0
   -1.6160   -0.2913    0.1922 C   0  0  0  0  0  0  0  0  0  0  0  0
   -2.1161   -0.6567   -1.0488 O   0  0  0  0  0  0  0  0  0  0  0  0
   -2.4031   -0.7121    1.2424 O   0  0  0  0  0  0  0  0  0  0  0  0
    1.8854    0.0412   -0.3740 C   0  0  1  0  0  0  0  0  0  0  0  0
    2.5192    1.1811   -0.8168 O   0  0  0  0  0  0  0  0  0  0  0  0
   -0.0804   -1.8469    0.0567 H   0  0  0  0  0  0  0  0  0  0  0  0
    0.2225   -0.1723   -1.7912 H   0  0  0  0  0  0  0  0  0  0  0  0
   -2.8039   -0.0340   -1.3907 H   0  0  0  0  0  0  0  0  0  0  0  0
   -2.8861   -1.5240    0.9419 H   0  0  0  0  0  0  0  0  0  0  0  0
    2.2883   -0.8944   -0.7861 H   0  0  0  0  0  0  0  0  0  0  0  0
    3.4904    1.1818   -0.6382 H   0  0  0  0  0  0  0  0  0  0  0  0
  1  2  2  0
  2  3  1  0
  3  4  1  0
  4  5  1  0
  5  6  1  0
  6  7  1  0
  7  8  2  0
  7  9  1  0
  9 10  1  0
  9 11  1  0
  5 12  1  0
 12 13  1  0
 12  2  1  0
  9  4  1  0
  4 14  1  6
  5 15  1  6
 10 16  1  0
 11 17  1  0
 12 18  1  6
 13 19  1  0
M  END
$$$$

     RDKit          3D

 19 20  0  0  0  0  0  0  0  0999 V2000
   -2.6184    2.1161   -0.9381 O   0  0  0  0  0  0  0  0  0  0  0  0
   -1.7075    1.2855   -0.6323 C   0  0  0  0  0  0  0  0  0  0  0  0
   -0.4144    1.5337   -0.1899 O   0  0  0  0  0  0  0  0  0  0  0  0
    0.4483    0.5939   -0.7913 C   0  0  2  0  0  0  0  0  0  0  0  0
   -0.4476   -0.5606   -1.2485 C   0  0  1  0  0  0  0  0  0  0  0  0
    0.1220   -1.7155   -0.7011 O   0  0  0  0  0  0  0  0  0  0  0  0
    1.4605   -1.4515   -0.3688 C   0  0  0  0  0  0  0  0  0  0  0  0
    2.4588   -2.2071   -0.4755 O   0  0  0  0  0  0  0  0  0  0  0  0
    1.4114   -0.0393    0.1484 C   0  0  0  0  0  0  0  0  0  0  0  0
    0.9777   -0.1022    1.4550 O   0  0  0  0  0  0  0  0  0  0  0  0
    2.6486    0.5797    0.0149 O   0  0  0  0  0  0  0  0  0  0  0  0
   -1.7933   -0.2151   -0.6704 C   0  0  1  0  0  0  0  0  0  0  0  0
   -1.9199   -0.6160    0.6659 O   0  0  0  0  0  0  0  0  0  0  0  0
    0.9193    1.0899   -1.6539 H   0  0  0  0  0  0  0  0  0  0  0  0
   -0.5047   -0.5799   -2.3483 H   0  0  0  0  0  0  0  0  0  0  0  0
    1.6612   -0.6328    1.9601 H   0  0  0  0  0  0  0  0  0  0  0  0
    2.5613    1.4856    0.3527 H   0  0  0  0  0  0  0  0  0  0  0  0
   -2.6366   -0.5328   -1.2835 H   0  0  0  0  0  0  0  0  0  0  0  0
   -2.6266   -0.0317    1.0863 H   0  0  0  0  0  0  0  0  0  0  0  0
  1  2  2  0
  2  3  1  0
  3  4  1  0
  4  5  1  0
  5  6  1  0
  6  7  1  0
  7  8  2  0
  7  9  1  0
  9 10  1  0
  9 11  1  0
  5 12  1  0
 12 13  1  0
 12  2  1  0
  9  4  1  0
  4 14  1  6
  5 15  1  6
 10 16  1  0
 11 17  1  0
 12 18  1  6
 13 19  1  0
M  END
$$$$

     RDKit          3D

 19 20  0  0  0  0  0  0  0  0999 V2000
   -2.2962    1.5115   -1.7703 O   0  0  0  0  0  0  0  0  0  0  0  0
   -1.5835    0.6406   -1.1893 C   0  0  0  0  0  0  0  0  0  0  0  0
   -0.2982    0.3127   -1.5534 O   0  0  0  0  0  0  0  0  0  0  0  0
    0.2991   -0.5874   -0.6636 C   0  0  2  0  0  0  0  0  0  0  0  0
   -0.5921   -0.5126    0.5830 C   0  0  1  0  0  0  0  0  0  0  0  0
   -0.0125    0.5501    1.2735 O   0  0  0  0  0  0  0  0  0  0  0  0
    1.3760    0.4527    1.1667 C   0  0  0  0  0  0  0  0  0  0  0  0
    2.2487    0.7190    2.0546 O   0  0  0  0  0  0  0  0  0  0  0  0
    1.6357   -0.0296   -0.2069 C   0  0  0  0  0  0  0  0  0  0  0  0
    2.0194    1.0019   -1.0672 O   0  0  0  0  0  0  0  0  0  0  0  0
    2.5588   -1.0432   -0.2760 O   0  0  0  0  0  0  0  0  0  0  0  0
   -1.9171   -0.2136   -0.0279 C   0  0  1  0  0  0  0  0  0  0  0  0
   -2.8489    0.3184    0.8124 O   0  0  0  0  0  0  0  0  0  0  0  0
    0.3656   -1.6107   -1.0325 H   0  0  0  0  0  0  0  0  0  0  0  0
   -0.5687   -1.4666    1.1504 H   0  0  0  0  0  0  0  0  0  0  0  0
    2.0269    1.8826   -0.6357 H   0  0  0  0  0  0  0  0  0  0  0  0
    2.3806   -1.7388    0.4099 H   0  0  0  0  0  0  0  0  0  0  0  0
   -2.3260   -1.1727   -0.4310 H   0  0  0  0  0  0  0  0  0  0  0  0
   -2.4677    0.9858    1.4032 H   0  0  0  0  0  0  0  0  0  0  0  0
  1  2  2  0
  2  3  1  0
  3  4  1  0
  4  5  1  0
  5  6  1  0
  6  7  1  0
  7  8  2  0
  7  9  1  0
  9 10  1  0
  9 11  1  0
  5 12  1  0
 12 13  1  0
 12  2  1  0
  9  4  1  0
  4 14  1  6
  5 15  1  1
 10 16  1  0
 11 17  1  0
 12 18  1  6
 13 19  1  0
M  END
$$$$

     RDKit          3D

 19 20  0  0  0  0  0  0  0  0999 V2000
   -2.7042    2.1119   -0.4353 O   0  0  0  0  0  0  0  0  0  0  0  0
   -1.7835    1.3021   -0.1495 C   0  0  0  0  0  0  0  0  0  0  0  0
   -0.4321    1.5621    0.1022 O   0  0  0  0  0  0  0  0  0  0  0  0
    0.3599    0.5734   -0.5335 C   0  0  2  0  0  0  0  0  0  0  0  0
   -0.5841   -0.6167   -0.6847 C   0  0  1  0  0  0  0  0  0  0  0  0
    0.0451   -1.6510    0.0399 O   0  0  0  0  0  0  0  0  0  0  0  0
    1.4185   -1.3779    0.1532 C   0  0  0  0  0  0  0  0  0  0  0  0
    2.3619   -2.2082    0.1403 O   0  0  0  0  0  0  0  0  0  0  0  0
    1.5048    0.1056    0.2912 C   0  0  0  0  0  0  0  0  0  0  0  0
    1.4860    0.5139    1.5982 O   0  0  0  0  0  0  0  0  0  0  0  0
    2.6852    0.4985   -0.3283 O   0  0  0  0  0  0  0  0  0  0  0  0
   -1.8764   -0.1920    0.0041 C   0  0  1  0  0  0  0  0  0  0  0  0
   -1.7939   -0.4852    1.3520 O   0  0  0  0  0  0  0  0  0  0  0  0
    0.6367    0.9545   -1.5273 H   0  0  0  0  0  0  0  0  0  0  0  0
   -0.7171   -0.8373   -1.7433 H   0  0  0  0  0  0  0  0  0  0  0  0
    1.9387    1.3893    1.6829 H   0  0  0  0  0  0  0  0  0  0  0  0
    2.7802   -0.0626   -1.1351 H   0  0  0  0  0  0  0  0  0  0  0  0
   -2.7468   -0.6063   -0.5014 H   0  0  0  0  0  0  0  0  0  0  0  0
   -2.5790   -0.9742    1.6745 H   0  0  0  0  0  0  0  0  0  0  0  0
  1  2  2  0
  2  3  1  0
  3  4  1  0
  4  5  1  0
  5  6  1  0
  6  7  1  0
  7  8  2  0
  7  9  1  0
  9 10  1  0
  9 11  1  0
  5 12  1  0
 12 13  1  0
 12  2  1  0
  9  4  1  0
  4 14  1  6
  5 15  1  6
 10 16  1  0
 11 17  1  0
 12 18  1  6
 13 19  1  0
M  END
$$$$
