
     RDKit          3D

 27 27  0  0  0  0  0  0  0  0999 V2000
   -2.3707   -0.2772   -1.4213 C   0  0  0  0  0  0  0  0  0  0  0  0
   -2.1620    0.1884   -0.0934 N   0  0  0  0  0  0  0  0  0  0  0  0
   -3.0809    0.9171    0.7610 C   0  0  0  0  0  0  0  0  0  0  0  0
   -2.6986    0.3544    2.1100 C   0  0  0  0  0  0  0  0  0  0  0  0
   -1.2850    0.1351    1.9545 N   0  0  0  0  0  0  0  0  0  0  0  0
   -0.9875    0.0414    0.7060 C   0  0  0  0  0  0  0  0  0  0  0  0
    0.3153   -0.1793    0.1781 N   0  0  0  0  0  0  0  0  0  0  0  0
    1.4243   -0.3467    1.0762 C   0  0  0  0  0  0  0  0  0  0  0  0
    2.7106   -0.5657    0.2969 C   0  0  1  0  0  0  0  0  0  0  0  0
    2.5889   -1.7085   -0.4933 O   0  0  0  0  0  0  0  0  0  0  0  0
    2.9802    0.6281   -0.5900 C   0  0  0  0  0  0  0  0  0  0  0  0
    4.1741    0.3958   -1.2908 O   0  0  0  0  0  0  0  0  0  0  0  0
   -3.2310    0.2641   -1.9015 H   0  0  0  0  0  0  0  0  0  0  0  0
   -1.4550   -0.0732   -2.0326 H   0  0  0  0  0  0  0  0  0  0  0  0
   -2.5915   -1.3567   -1.5022 H   0  0  0  0  0  0  0  0  0  0  0  0
   -2.8015    1.9885    0.6772 H   0  0  0  0  0  0  0  0  0  0  0  0
   -4.1398    0.7333    0.5026 H   0  0  0  0  0  0  0  0  0  0  0  0
   -2.9419    1.0439    2.9400 H   0  0  0  0  0  0  0  0  0  0  0  0
   -3.2296   -0.6188    2.2016 H   0  0  0  0  0  0  0  0  0  0  0  0
    0.4792   -0.2226   -0.8445 H   0  0  0  0  0  0  0  0  0  0  0  0
    1.2103   -1.1838    1.7477 H   0  0  0  0  0  0  0  0  0  0  0  0
    1.5412    0.5592    1.7097 H   0  0  0  0  0  0  0  0  0  0  0  0
    3.5727   -0.6683    0.9918 H   0  0  0  0  0  0  0  0  0  0  0  0
    1.9002   -2.3129   -0.0790 H   0  0  0  0  0  0  0  0  0  0  0  0
    2.1554    0.8399   -1.2950 H   0  0  0  0  0  0  0  0  0  0  0  0
    3.1416    1.5285    0.0477 H   0  0  0  0  0  0  0  0  0  0  0  0
    4.7809   -0.1042   -0.6855 H   0  0  0  0  0  0  0  0  0  0  0  0
  1  2  1  0
  2  3  1  0
  3  4  1  0
  4  5  1  0
  5  6  2  0
  6  7  1  0
  7  8  1  0
  8  9  1  0
  9 10  1  0
  9 11  1  0
 11 12  1  0
  6  2  1  0
  1 13  1  0
  1 14  1  0
  1 15  1  0
  3 16  1  0
  3 17  1  0
  4 18  1  0
  4 19  1  0
  7 20  1  0
  8 21  1  0
  8 22  1  0
  9 23  1  1
 10 24  1  0
 11 25  1  0
 11 26  1  0
 12 27  1  0
M  END
$$$$

     RDKit          3D

 27 27  0  0  0  0  0  0  0  0999 V2000
   -2.9057    1.6542   -0.1300 C   0  0  0  0  0  0  0  0  0  0  0  0
   -2.3232    0.3402    0.0302 N   0  0  0  0  0  0  0  0  0  0  0  0
   -3.0787   -0.8818    0.2027 C   0  0  0  0  0  0  0  0  0  0  0  0
   -1.9936   -1.9383    0.2223 C   0  0  0  0  0  0  0  0  0  0  0  0
   -0.7414   -1.2232    0.1577 N   0  0  0  0  0  0  0  0  0  0  0  0
   -0.9226    0.0327    0.0545 C   0  0  0  0  0  0  0  0  0  0  0  0
    0.1273    0.9824   -0.0313 N   0  0  0  0  0  0  0  0  0  0  0  0
    1.4077    0.7324   -0.6031 C   0  0  0  0  0  0  0  0  0  0  0  0
    2.3262   -0.1646    0.1371 C   0  0  1  0  0  0  0  0  0  0  0  0
    1.8724   -1.4525    0.3490 O   0  0  0  0  0  0  0  0  0  0  0  0
    3.5836   -0.3127   -0.7447 C   0  0  0  0  0  0  0  0  0  0  0  0
    4.1216    0.9207   -1.0561 O   0  0  0  0  0  0  0  0  0  0  0  0
   -3.4210    1.9659    0.8063 H   0  0  0  0  0  0  0  0  0  0  0  0
   -3.6371    1.5954   -0.9888 H   0  0  0  0  0  0  0  0  0  0  0  0
   -2.1026    2.3540   -0.3941 H   0  0  0  0  0  0  0  0  0  0  0  0
   -3.6036   -0.8242    1.1652 H   0  0  0  0  0  0  0  0  0  0  0  0
   -3.8029   -1.0388   -0.6218 H   0  0  0  0  0  0  0  0  0  0  0  0
   -2.0588   -2.5259    1.1759 H   0  0  0  0  0  0  0  0  0  0  0  0
   -2.1099   -2.6291   -0.6621 H   0  0  0  0  0  0  0  0  0  0  0  0
   -0.0733    1.9494    0.3586 H   0  0  0  0  0  0  0  0  0  0  0  0
    1.9695    1.6926   -0.7858 H   0  0  0  0  0  0  0  0  0  0  0  0
    1.2749    0.3167   -1.6362 H   0  0  0  0  0  0  0  0  0  0  0  0
    2.6439    0.3076    1.0993 H   0  0  0  0  0  0  0  0  0  0  0  0
    1.8320   -1.6673    1.3169 H   0  0  0  0  0  0  0  0  0  0  0  0
    3.3262   -0.8453   -1.6747 H   0  0  0  0  0  0  0  0  0  0  0  0
    4.2863   -0.9389   -0.1584 H   0  0  0  0  0  0  0  0  0  0  0  0
    4.0031    1.5983   -0.3449 H   0  0  0  0  0  0  0  0  0  0  0  0
  1  2  1  0
  2  3  1  0
  3  4  1  0
  4  5  1  0
  5  6  2  0
  6  7  1  0
  7  8  1  0
  8  9  1  0
  9 10  1  0
  9 11  1  0
 11 12  1  0
  6  2  1  0
  1 13  1  0
  1 14  1  0
  1 15  1  0
  3 16  1  0
  3 17  1  0
  4 18  1  0
  4 19  1  0
  7 20  1  0
  8 21  1  0
  8 22  1  0
  9 23  1  1
 10 24  1  0
 11 25  1  0
 11 26  1  0
 12 27  1  0
M  END
$$$$

     RDKit          3D

 27 27  0  0  0  0  0  0  0  0999 V2000
   -2.8116    0.1258   -1.7598 C   0  0  0  0  0  0  0  0  0  0  0  0
   -2.2369    0.1867   -0.4140 N   0  0  0  0  0  0  0  0  0  0  0  0
   -2.9858    0.4339    0.7934 C   0  0  0  0  0  0  0  0  0  0  0  0
   -1.9590    0.2127    1.8810 C   0  0  0  0  0  0  0  0  0  0  0  0
   -0.6855    0.0178    1.1942 N   0  0  0  0  0  0  0  0  0  0  0  0
   -0.8460    0.0043   -0.0748 C   0  0  0  0  0  0  0  0  0  0  0  0
    0.2295   -0.1793   -1.0130 N   0  0  0  0  0  0  0  0  0  0  0  0
    1.3783   -0.9908   -0.6852 C   0  0  0  0  0  0  0  0  0  0  0  0
    2.2853   -0.4205    0.3493 C   0  0  1  0  0  0  0  0  0  0  0  0
    3.3220   -1.3739    0.5487 O   0  0  0  0  0  0  0  0  0  0  0  0
    3.0483    0.7991   -0.1962 C   0  0  0  0  0  0  0  0  0  0  0  0
    3.9915    1.1554    0.7564 O   0  0  0  0  0  0  0  0  0  0  0  0
   -2.2644   -0.6572   -2.3685 H   0  0  0  0  0  0  0  0  0  0  0  0
   -2.6451    1.0654   -2.2739 H   0  0  0  0  0  0  0  0  0  0  0  0
   -3.8794   -0.1577   -1.7153 H   0  0  0  0  0  0  0  0  0  0  0  0
   -3.8501   -0.2841    0.8953 H   0  0  0  0  0  0  0  0  0  0  0  0
   -3.3977    1.4479    0.8333 H   0  0  0  0  0  0  0  0  0  0  0  0
   -2.1956   -0.7498    2.4012 H   0  0  0  0  0  0  0  0  0  0  0  0
   -1.8729    1.0631    2.5551 H   0  0  0  0  0  0  0  0  0  0  0  0
    0.1110    0.3045   -1.9296 H   0  0  0  0  0  0  0  0  0  0  0  0
    1.9805   -1.1744   -1.6277 H   0  0  0  0  0  0  0  0  0  0  0  0
    1.0795   -2.0090   -0.3444 H   0  0  0  0  0  0  0  0  0  0  0  0
    1.7743   -0.1884    1.2709 H   0  0  0  0  0  0  0  0  0  0  0  0
    2.8804   -2.1976    0.9225 H   0  0  0  0  0  0  0  0  0  0  0  0
    2.3799    1.6231   -0.4609 H   0  0  0  0  0  0  0  0  0  0  0  0
    3.6083    0.4406   -1.1015 H   0  0  0  0  0  0  0  0  0  0  0  0
    3.5612    1.5024    1.5635 H   0  0  0  0  0  0  0  0  0  0  0  0
  1  2  1  0
  2  3  1  0
  3  4  1  0
  4  5  1  0
  5  6  2  0
  6  7  1  0
  7  8  1  0
  8  9  1  0
  9 10  1  0
  9 11  1  0
 11 12  1  0
  6  2  1  0
  1 13  1  0
  1 14  1  0
  1 15  1  0
  3 16  1  0
  3 17  1  0
  4 18  1  0
  4 19  1  0
  7 20  1  0
  8 21  1  0
  8 22  1  0
  9 23  1  1
 10 24  1  0
 11 25  1  0
 11 26  1  0
 12 27  1  0
M  END
$$$$

     RDKit          3D

 27 27  0  0  0  0  0  0  0  0999 V2000
   -2.5616    1.9645   -0.4350 C   0  0  0  0  0  0  0  0  0  0  0  0
   -2.1932    0.6012   -0.1699 N   0  0  0  0  0  0  0  0  0  0  0  0
   -3.0290   -0.5779    0.0324 C   0  0  0  0  0  0  0  0  0  0  0  0
   -2.1640   -1.3965    0.9628 C   0  0  0  0  0  0  0  0  0  0  0  0
   -0.8309   -0.9986    0.5818 N   0  0  0  0  0  0  0  0  0  0  0  0
   -0.8413    0.1220   -0.0538 C   0  0  0  0  0  0  0  0  0  0  0  0
    0.3419    0.7474   -0.5412 N   0  0  0  0  0  0  0  0  0  0  0  0
    1.4392    0.0154   -1.0890 C   0  0  0  0  0  0  0  0  0  0  0  0
    2.1790   -0.8209   -0.0772 C   0  0  1  0  0  0  0  0  0  0  0  0
    3.2129   -1.4919   -0.7262 O   0  0  0  0  0  0  0  0  0  0  0  0
    2.7048    0.0986    1.0026 C   0  0  0  0  0  0  0  0  0  0  0  0
    3.5503    1.0453    0.4416 O   0  0  0  0  0  0  0  0  0  0  0  0
   -3.6710    2.0326   -0.5255 H   0  0  0  0  0  0  0  0  0  0  0  0
   -2.2425    2.6619    0.3642 H   0  0  0  0  0  0  0  0  0  0  0  0
   -2.0949    2.2715   -1.3941 H   0  0  0  0  0  0  0  0  0  0  0  0
   -3.1079   -1.1037   -0.9552 H   0  0  0  0  0  0  0  0  0  0  0  0
   -4.0115   -0.3095    0.4587 H   0  0  0  0  0  0  0  0  0  0  0  0
   -2.3253   -2.4835    0.8584 H   0  0  0  0  0  0  0  0  0  0  0  0
   -2.3370   -1.0371    2.0056 H   0  0  0  0  0  0  0  0  0  0  0  0
    0.3688    1.8034   -0.4808 H   0  0  0  0  0  0  0  0  0  0  0  0
    2.2020    0.7487   -1.4809 H   0  0  0  0  0  0  0  0  0  0  0  0
    1.1548   -0.6019   -1.9473 H   0  0  0  0  0  0  0  0  0  0  0  0
    1.5555   -1.5887    0.4118 H   0  0  0  0  0  0  0  0  0  0  0  0
    3.2637   -2.4497   -0.4502 H   0  0  0  0  0  0  0  0  0  0  0  0
    3.2373   -0.5356    1.7484 H   0  0  0  0  0  0  0  0  0  0  0  0
    1.8574    0.6149    1.4566 H   0  0  0  0  0  0  0  0  0  0  0  0
    4.3424    0.6683    0.0015 H   0  0  0  0  0  0  0  0  0  0  0  0
  1  2  1  0
  2  3  1  0
  3  4  1  0
  4  5  1  0
  5  6  2  0
  6  7  1  0
  7  8  1  0
  8  9  1  0
  9 10  1  0
  9 11  1  0
 11 12  1  0
  6  2  1  0
  1 13  1  0
  1 14  1  0
  1 15  1  0
  3 16  1  0
  3 17  1  0
  4 18  1  0
  4 19  1  0
  7 20  1  0
  8 21  1  0
  8 22  1  0
  9 23  1  1
 10 24  1  0
 11 25  1  0
 11 26  1  0
 12 27  1  0
M  END
$$$$

     RDKit          3D

 27 27  0  0  0  0  0  0  0  0999 V2000
   -2.1270    1.7626    1.1040 C   0  0  0  0  0  0  0  0  0  0  0  0
   -2.1220    0.5494    0.3052 N   0  0  0  0  0  0  0  0  0  0  0  0
   -3.2320    0.0102   -0.4598 C   0  0  0  0  0  0  0  0  0  0  0  0
   -2.8808   -1.4521   -0.5429 C   0  0  0  0  0  0  0  0  0  0  0  0
   -1.4538   -1.4639   -0.3673 N   0  0  0  0  0  0  0  0  0  0  0  0
   -1.0473   -0.3457    0.1053 C   0  0  0  0  0  0  0  0  0  0  0  0
    0.3363   -0.1013    0.3996 N   0  0  0  0  0  0  0  0  0  0  0  0
    1.3395   -0.9862   -0.1342 C   0  0  0  0  0  0  0  0  0  0  0  0
    2.7338   -0.6966    0.3432 C   0  0  1  0  0  0  0  0  0  0  0  0
    3.5643   -1.6704   -0.2614 O   0  0  0  0  0  0  0  0  0  0  0  0
    3.2473    0.6577   -0.0209 C   0  0  0  0  0  0  0  0  0  0  0  0
    2.5402    1.7079    0.5011 O   0  0  0  0  0  0  0  0  0  0  0  0
   -2.7591    2.5516    0.6011 H   0  0  0  0  0  0  0  0  0  0  0  0
   -2.5023    1.6179    2.1273 H   0  0  0  0  0  0  0  0  0  0  0  0
   -1.0625    2.1211    1.1583 H   0  0  0  0  0  0  0  0  0  0  0  0
   -4.2091    0.1840    0.0353 H   0  0  0  0  0  0  0  0  0  0  0  0
   -3.1955    0.4154   -1.4758 H   0  0  0  0  0  0  0  0  0  0  0  0
   -3.3029   -1.9614    0.3572 H   0  0  0  0  0  0  0  0  0  0  0  0
   -3.2356   -1.9211   -1.4791 H   0  0  0  0  0  0  0  0  0  0  0  0
    0.5379    0.7220    0.9967 H   0  0  0  0  0  0  0  0  0  0  0  0
    1.0483   -2.0316    0.1353 H   0  0  0  0  0  0  0  0  0  0  0  0
    1.3569   -0.9028   -1.2545 H   0  0  0  0  0  0  0  0  0  0  0  0
    2.7806   -0.9002    1.4498 H   0  0  0  0  0  0  0  0  0  0  0  0
    3.1940   -1.8483   -1.1412 H   0  0  0  0  0  0  0  0  0  0  0  0
    3.3061    0.7591   -1.1302 H   0  0  0  0  0  0  0  0  0  0  0  0
    4.3305    0.6797    0.3313 H   0  0  0  0  0  0  0  0  0  0  0  0
    2.8139    2.5429    0.0721 H   0  0  0  0  0  0  0  0  0  0  0  0
  1  2  1  0
  2  3  1  0
  3  4  1  0
  4  5  1  0
  5  6  2  0
  6  7  1  0
  7  8  1  0
  8  9  1  0
  9 10  1  0
  9 11  1  0
 11 12  1  0
  6  2  1  0
  1 13  1  0
  1 14  1  0
  1 15  1  0
  3 16  1  0
  3 17  1  0
  4 18  1  0
  4 19  1  0
  7 20  1  0
  8 21  1  0
  8 22  1  0
  9 23  1  1
 10 24  1  0
 11 25  1  0
 11 26  1  0
 12 27  1  0
M  END
$$$$

     RDKit          3D

 27 27  0  0  0  0  0  0  0  0999 V2000
   -3.0431   -1.5197   -0.2681 C   0  0  0  0  0  0  0  0  0  0  0  0
   -2.4096   -0.2479   -0.1241 N   0  0  0  0  0  0  0  0  0  0  0  0
   -2.9764    1.0829   -0.0207 C   0  0  0  0  0  0  0  0  0  0  0  0
   -1.8954    1.9033   -0.6927 C   0  0  0  0  0  0  0  0  0  0  0  0
   -0.6997    1.1525   -0.3718 N   0  0  0  0  0  0  0  0  0  0  0  0
   -0.9767   -0.0536   -0.0529 C   0  0  0  0  0  0  0  0  0  0  0  0
   -0.0246   -1.0333    0.3165 N   0  0  0  0  0  0  0  0  0  0  0  0
    1.3599   -0.7818    0.6195 C   0  0  0  0  0  0  0  0  0  0  0  0
    2.2163   -0.3764   -0.5335 C   0  0  1  0  0  0  0  0  0  0  0  0
    1.7693    0.7828   -1.1075 O   0  0  0  0  0  0  0  0  0  0  0  0
    3.6404   -0.2661   -0.0230 C   0  0  0  0  0  0  0  0  0  0  0  0
    3.6678    0.7476    0.9309 O   0  0  0  0  0  0  0  0  0  0  0  0
   -2.6613   -2.0234   -1.1659 H   0  0  0  0  0  0  0  0  0  0  0  0
   -2.8333   -2.0983    0.6610 H   0  0  0  0  0  0  0  0  0  0  0  0
   -4.1375   -1.3840   -0.3337 H   0  0  0  0  0  0  0  0  0  0  0  0
   -2.9775    1.3505    1.0582 H   0  0  0  0  0  0  0  0  0  0  0  0
   -3.9536    1.1702   -0.4970 H   0  0  0  0  0  0  0  0  0  0  0  0
   -2.0939    1.8488   -1.7852 H   0  0  0  0  0  0  0  0  0  0  0  0
   -1.8482    2.9407   -0.3265 H   0  0  0  0  0  0  0  0  0  0  0  0
   -0.3652   -2.0350    0.3706 H   0  0  0  0  0  0  0  0  0  0  0  0
    1.8077   -1.6774    1.1128 H   0  0  0  0  0  0  0  0  0  0  0  0
    1.4614    0.0212    1.4157 H   0  0  0  0  0  0  0  0  0  0  0  0
    2.1473   -1.1837   -1.3089 H   0  0  0  0  0  0  0  0  0  0  0  0
    2.0495    1.5871   -0.5793 H   0  0  0  0  0  0  0  0  0  0  0  0
    4.2780   -0.0120   -0.8943 H   0  0  0  0  0  0  0  0  0  0  0  0
    4.0017   -1.1820    0.4405 H   0  0  0  0  0  0  0  0  0  0  0  0
    4.4968    1.2871    0.8630 H   0  0  0  0  0  0  0  0  0  0  0  0
  1  2  1  0
  2  3  1  0
  3  4  1  0
  4  5  1  0
  5  6  2  0
  6  7  1  0
  7  8  1  0
  8  9  1  0
  9 10  1  0
  9 11  1  0
 11 12  1  0
  6  2  1  0
  1 13  1  0
  1 14  1  0
  1 15  1  0
  3 16  1  0
  3 17  1  0
  4 18  1  0
  4 19  1  0
  7 20  1  0
  8 21  1  0
  8 22  1  0
  9 23  1  6
 10 24  1  0
 11 25  1  0
 11 26  1  0
 12 27  1  0
M  END
$$$$

     RDKit          3D

 27 27  0  0  0  0  0  0  0  0999 V2000
   -2.5567    1.7575    0.7889 C   0  0  0  0  0  0  0  0  0  0  0  0
   -2.2187    0.5121    0.1554 N   0  0  0  0  0  0  0  0  0  0  0  0
   -3.1022   -0.2132   -0.7356 C   0  0  0  0  0  0  0  0  0  0  0  0
   -2.3325   -1.4528   -1.0681 C   0  0  0  0  0  0  0  0  0  0  0  0
   -1.0531   -1.3106   -0.3969 N   0  0  0  0  0  0  0  0  0  0  0  0
   -1.0016   -0.2318    0.2705 C   0  0  0  0  0  0  0  0  0  0  0  0
    0.1138    0.2106    1.0430 N   0  0  0  0  0  0  0  0  0  0  0  0
    1.4117   -0.3894    0.9644 C   0  0  0  0  0  0  0  0  0  0  0  0
    2.0585   -0.1207   -0.3654 C   0  0  1  0  0  0  0  0  0  0  0  0
    2.1886    1.2624   -0.5416 O   0  0  0  0  0  0  0  0  0  0  0  0
    3.4547   -0.7343   -0.4074 C   0  0  0  0  0  0  0  0  0  0  0  0
    4.0821   -0.4958   -1.6159 O   0  0  0  0  0  0  0  0  0  0  0  0
   -3.3179    1.5985    1.5876 H   0  0  0  0  0  0  0  0  0  0  0  0
   -2.9938    2.4788    0.0763 H   0  0  0  0  0  0  0  0  0  0  0  0
   -1.6565    2.1836    1.2833 H   0  0  0  0  0  0  0  0  0  0  0  0
   -3.3372    0.3891   -1.6189 H   0  0  0  0  0  0  0  0  0  0  0  0
   -4.0462   -0.4624   -0.2042 H   0  0  0  0  0  0  0  0  0  0  0  0
   -2.1590   -1.5951   -2.1497 H   0  0  0  0  0  0  0  0  0  0  0  0
   -2.8312   -2.3443   -0.6141 H   0  0  0  0  0  0  0  0  0  0  0  0
   -0.0266    1.0180    1.6996 H   0  0  0  0  0  0  0  0  0  0  0  0
    2.0449   -0.0380    1.7885 H   0  0  0  0  0  0  0  0  0  0  0  0
    1.3356   -1.4937    1.0765 H   0  0  0  0  0  0  0  0  0  0  0  0
    1.4142   -0.4976   -1.1731 H   0  0  0  0  0  0  0  0  0  0  0  0
    2.7085    1.6259    0.2228 H   0  0  0  0  0  0  0  0  0  0  0  0
    3.3509   -1.8101   -0.1798 H   0  0  0  0  0  0  0  0  0  0  0  0
    4.0435   -0.2821    0.4378 H   0  0  0  0  0  0  0  0  0  0  0  0
    4.4260    0.4355   -1.6205 H   0  0  0  0  0  0  0  0  0  0  0  0
  1  2  1  0
  2  3  1  0
  3  4  1  0
  4  5  1  0
  5  6  2  0
  6  7  1  0
  7  8  1  0
  8  9  1  0
  9 10  1  0
  9 11  1  0
 11 12  1  0
  6  2  1  0
  1 13  1  0
  1 14  1  0
  1 15  1  0
  3 16  1  0
  3 17  1  0
  4 18  1  0
  4 19  1  0
  7 20  1  0
  8 21  1  0
  8 22  1  0
  9 23  1  6
 10 24  1  0
 11 25  1  0
 11 26  1  0
 12 27  1  0
M  END
$$$$

     RDKit          3D

 27 27  0  0  0  0  0  0  0  0999 V2000
   -2.6231   -0.9170    1.5291 C   0  0  0  0  0  0  0  0  0  0  0  0
   -2.1215   -0.2028    0.3701 N   0  0  0  0  0  0  0  0  0  0  0  0
   -2.6997    0.9278   -0.3340 C   0  0  0  0  0  0  0  0  0  0  0  0
   -2.1797    0.7283   -1.7351 C   0  0  0  0  0  0  0  0  0  0  0  0
   -0.9337    0.0236   -1.5055 N   0  0  0  0  0  0  0  0  0  0  0  0
   -0.8995   -0.4987   -0.3264 C   0  0  0  0  0  0  0  0  0  0  0  0
    0.1825   -1.2490    0.2005 N   0  0  0  0  0  0  0  0  0  0  0  0
    1.5293   -1.1181   -0.2846 C   0  0  0  0  0  0  0  0  0  0  0  0
    2.0753    0.2622    0.0942 C   0  0  1  0  0  0  0  0  0  0  0  0
    2.0722    0.4193    1.4754 O   0  0  0  0  0  0  0  0  0  0  0  0
    3.4877    0.4228   -0.4527 C   0  0  0  0  0  0  0  0  0  0  0  0
    3.9330    1.6969   -0.1300 O   0  0  0  0  0  0  0  0  0  0  0  0
   -2.3595   -0.3643    2.4679 H   0  0  0  0  0  0  0  0  0  0  0  0
   -2.1486   -1.9396    1.5443 H   0  0  0  0  0  0  0  0  0  0  0  0
   -3.7120   -1.0318    1.4975 H   0  0  0  0  0  0  0  0  0  0  0  0
   -3.8123    0.9247   -0.2784 H   0  0  0  0  0  0  0  0  0  0  0  0
   -2.3116    1.9051    0.0771 H   0  0  0  0  0  0  0  0  0  0  0  0
   -2.0671    1.6684   -2.2919 H   0  0  0  0  0  0  0  0  0  0  0  0
   -2.9104    0.1089   -2.2920 H   0  0  0  0  0  0  0  0  0  0  0  0
   -0.0287   -1.9222    0.9768 H   0  0  0  0  0  0  0  0  0  0  0  0
    1.5433   -1.2282   -1.3863 H   0  0  0  0  0  0  0  0  0  0  0  0
    2.1669   -1.9115    0.1668 H   0  0  0  0  0  0  0  0  0  0  0  0
    1.4241    1.0506   -0.3285 H   0  0  0  0  0  0  0  0  0  0  0  0
    1.1841    0.2713    1.8542 H   0  0  0  0  0  0  0  0  0  0  0  0
    3.4601    0.3726   -1.5588 H   0  0  0  0  0  0  0  0  0  0  0  0
    4.1526   -0.3845   -0.0992 H   0  0  0  0  0  0  0  0  0  0  0  0
    3.5964    1.9852    0.7495 H   0  0  0  0  0  0  0  0  0  0  0  0
  1  2  1  0
  2  3  1  0
  3  4  1  0
  4  5  1  0
  5  6  2  0
  6  7  1  0
  7  8  1  0
  8  9  1  0
  9 10  1  0
  9 11  1  0
 11 12  1  0
  6  2  1  0
  1 13  1  0
  1 14  1  0
  1 15  1  0
  3 16  1  0
  3 17  1  0
  4 18  1  0
  4 19  1  0
  7 20  1  0
  8 21  1  0
  8 22  1  0
  9 23  1  6
 10 24  1  0
 11 25  1  0
 11 26  1  0
 12 27  1  0
M  END
$$$$
