
     RDKit          3D

 31 32  0  0  0  0  0  0  0  0999 V2000
   -4.0064    0.3870    0.4329 C   0  0  0  0  0  0  0  0  0  0  0  0
   -3.1368   -0.7668    0.3659 N   0  0  0  0  0  0  0  0  0  0  0  0
   -2.7689   -1.0970   -0.9762 C   0  0  0  0  0  0  0  0  0  0  0  0
   -1.4043   -0.5525   -1.2667 C   0  0  0  0  0  0  0  0  0  0  0  0
   -1.2708    0.6710   -0.6331 O   0  0  0  0  0  0  0  0  0  0  0  0
   -1.1791    0.5576    0.7450 C   0  0  2  0  0  0  0  0  0  0  0  0
    0.2644    0.4212    1.1283 C   0  0  0  0  0  0  0  0  0  0  0  0
    0.6317    0.3022    2.3146 O   0  0  0  0  0  0  0  0  0  0  0  0
    1.2703    0.4244    0.1269 N   0  0  0  0  0  0  0  0  0  0  0  0
    2.6820    0.2989    0.4009 C   0  0  1  0  0  0  0  0  0  0  0  0
    3.3951   -0.6431   -0.5875 C   0  0  0  0  0  0  0  0  0  0  0  0
    3.7018    0.8342   -0.5191 C   0  0  2  0  0  0  0  0  0  0  0  0
    5.0073    1.1291    0.0428 N   0  0  0  0  0  0  0  0  0  0  0  0
   -2.0110   -0.5840    1.2533 C   0  0  0  0  0  0  0  0  0  0  0  0
   -4.0706    0.7985   -0.6123 H   0  0  0  0  0  0  0  0  0  0  0  0
   -3.6188    1.1813    1.0878 H   0  0  0  0  0  0  0  0  0  0  0  0
   -5.0446    0.1054    0.7398 H   0  0  0  0  0  0  0  0  0  0  0  0
   -3.4845   -0.6118   -1.6957 H   0  0  0  0  0  0  0  0  0  0  0  0
   -2.8293   -2.2052   -1.1739 H   0  0  0  0  0  0  0  0  0  0  0  0
   -1.3400   -0.3521   -2.3625 H   0  0  0  0  0  0  0  0  0  0  0  0
   -0.6033   -1.2764   -0.9986 H   0  0  0  0  0  0  0  0  0  0  0  0
   -1.6059    1.4991    1.1794 H   0  0  0  0  0  0  0  0  0  0  0  0
    0.9793    0.5233   -0.8720 H   0  0  0  0  0  0  0  0  0  0  0  0
    2.9368    0.1974    1.4681 H   0  0  0  0  0  0  0  0  0  0  0  0
    4.1065   -1.3624   -0.1290 H   0  0  0  0  0  0  0  0  0  0  0  0
    2.8622   -0.9413   -1.4987 H   0  0  0  0  0  0  0  0  0  0  0  0
    3.4331    1.4791   -1.3796 H   0  0  0  0  0  0  0  0  0  0  0  0
    5.7579    0.8820   -0.6642 H   0  0  0  0  0  0  0  0  0  0  0  0
    5.2100    0.5185    0.8691 H   0  0  0  0  0  0  0  0  0  0  0  0
   -1.4252   -1.5083    1.3769 H   0  0  0  0  0  0  0  0  0  0  0  0
   -2.4388   -0.3091    2.2496 H   0  0  0  0  0  0  0  0  0  0  0  0
  1  2  1  0
  2  3  1  0
  3  4  1  0
  4  5  1  0
  5  6  1  0
  6  7  1  0
  7  8  2  0
  7  9  1  0
  9 10  1  0
 10 11  1  0
 11 12  1  0
 12 13  1  0
  6 14  1  0
 14  2  1  0
 12 10  1  0
  1 15  1  0
  1 16  1  0
  1 17  1  0
  3 18  1  0
  3 19  1  0
  4 20  1  0
  4 21  1  0
  6 22  1  1
  9 23  1  0
 10 24  1  1
 11 25  1  0
 11 26  1  0
 12 27  1  6
 13 28  1  0
 13 29  1  0
 14 30  1  0
 14 31  1  0
M  END
$$$$

     RDKit          3D

 31 32  0  0  0  0  0  0  0  0999 V2000
    3.8744    0.7201   -1.4979 C   0  0  0  0  0  0  0  0  0  0  0  0
    3.1537    0.5038   -0.2791 N   0  0  0  0  0  0  0  0  0  0  0  0
    3.2695   -0.8675    0.1494 C   0  0  0  0  0  0  0  0  0  0  0  0
    2.3521   -1.2089    1.2834 C   0  0  0  0  0  0  0  0  0  0  0  0
    1.0385   -0.9955    0.8192 O   0  0  0  0  0  0  0  0  0  0  0  0
    0.8908    0.3752    0.6819 C   0  0  2  0  0  0  0  0  0  0  0  0
   -0.5075    0.7582    0.3725 C   0  0  0  0  0  0  0  0  0  0  0  0
   -0.7591    1.9772    0.2263 O   0  0  0  0  0  0  0  0  0  0  0  0
   -1.5568   -0.1714    0.2361 N   0  0  0  0  0  0  0  0  0  0  0  0
   -2.9224    0.1668   -0.0632 C   0  0  1  0  0  0  0  0  0  0  0  0
   -3.7108   -0.6699   -1.0338 C   0  0  0  0  0  0  0  0  0  0  0  0
   -4.0612   -0.5983    0.4634 C   0  0  2  0  0  0  0  0  0  0  0  0
   -5.2871    0.1313    0.8073 N   0  0  0  0  0  0  0  0  0  0  0  0
    1.7942    0.9640   -0.3675 C   0  0  0  0  0  0  0  0  0  0  0  0
    4.7252    0.0089   -1.5431 H   0  0  0  0  0  0  0  0  0  0  0  0
    4.3471    1.7376   -1.4420 H   0  0  0  0  0  0  0  0  0  0  0  0
    3.2441    0.6885   -2.4030 H   0  0  0  0  0  0  0  0  0  0  0  0
    4.3071   -1.0335    0.4958 H   0  0  0  0  0  0  0  0  0  0  0  0
    3.0704   -1.5914   -0.6745 H   0  0  0  0  0  0  0  0  0  0  0  0
    2.5210   -2.2566    1.5658 H   0  0  0  0  0  0  0  0  0  0  0  0
    2.5469   -0.5001    2.1218 H   0  0  0  0  0  0  0  0  0  0  0  0
    1.2074    0.8224    1.6690 H   0  0  0  0  0  0  0  0  0  0  0  0
   -1.3053   -1.1938    0.3668 H   0  0  0  0  0  0  0  0  0  0  0  0
   -3.0982    1.2587   -0.1842 H   0  0  0  0  0  0  0  0  0  0  0  0
   -4.4222   -0.1849   -1.7330 H   0  0  0  0  0  0  0  0  0  0  0  0
   -3.2220   -1.5688   -1.4146 H   0  0  0  0  0  0  0  0  0  0  0  0
   -3.9890   -1.5639    0.9531 H   0  0  0  0  0  0  0  0  0  0  0  0
   -5.7726    0.4499   -0.0617 H   0  0  0  0  0  0  0  0  0  0  0  0
   -4.9462    1.0116    1.2931 H   0  0  0  0  0  0  0  0  0  0  0  0
    1.7974    2.0650   -0.2278 H   0  0  0  0  0  0  0  0  0  0  0  0
    1.4209    0.7654   -1.3853 H   0  0  0  0  0  0  0  0  0  0  0  0
  1  2  1  0
  2  3  1  0
  3  4  1  0
  4  5  1  0
  5  6  1  0
  6  7  1  0
  7  8  2  0
  7  9  1  0
  9 10  1  0
 10 11  1  0
 11 12  1  0
 12 13  1  0
  6 14  1  0
 14  2  1  0
 12 10  1  0
  1 15  1  0
  1 16  1  0
  1 17  1  0
  3 18  1  0
  3 19  1  0
  4 20  1  0
  4 21  1  0
  6 22  1  1
  9 23  1  0
 10 24  1  6
 11 25  1  0
 11 26  1  0
 12 27  1  1
 13 28  1  0
 13 29  1  0
 14 30  1  0
 14 31  1  0
M  END
$$$$

     RDKit          3D

 31 32  0  0  0  0  0  0  0  0999 V2000
   -4.1951   -0.5975    0.7557 C   0  0  0  0  0  0  0  0  0  0  0  0
   -3.1698    0.3794    0.5683 N   0  0  0  0  0  0  0  0  0  0  0  0
   -3.0801    0.6967   -0.8447 C   0  0  0  0  0  0  0  0  0  0  0  0
   -2.0300   -0.2340   -1.4415 C   0  0  0  0  0  0  0  0  0  0  0  0
   -0.7899    0.2531   -1.0218 O   0  0  0  0  0  0  0  0  0  0  0  0
   -0.8212    0.6574    0.2886 C   0  0  2  0  0  0  0  0  0  0  0  0
    0.5305    0.5178    0.8672 C   0  0  0  0  0  0  0  0  0  0  0  0
    0.7904    0.8220    2.0713 O   0  0  0  0  0  0  0  0  0  0  0  0
    1.5676    0.0247    0.0367 N   0  0  0  0  0  0  0  0  0  0  0  0
    2.9221   -0.1495    0.5033 C   0  0  1  0  0  0  0  0  0  0  0  0
    3.6985   -1.2668   -0.1465 C   0  0  0  0  0  0  0  0  0  0  0  0
    4.0203    0.1517   -0.4851 C   0  0  2  0  0  0  0  0  0  0  0  0
    5.2508    0.7479   -0.0354 N   0  0  0  0  0  0  0  0  0  0  0  0
   -1.8808   -0.0372    1.1009 C   0  0  0  0  0  0  0  0  0  0  0  0
   -5.0575   -0.3086    0.1121 H   0  0  0  0  0  0  0  0  0  0  0  0
   -3.9262   -1.6210    0.4829 H   0  0  0  0  0  0  0  0  0  0  0  0
   -4.5723   -0.5870    1.7997 H   0  0  0  0  0  0  0  0  0  0  0  0
   -4.0517    0.5291   -1.3274 H   0  0  0  0  0  0  0  0  0  0  0  0
   -2.7633    1.7512   -0.9913 H   0  0  0  0  0  0  0  0  0  0  0  0
   -2.1483   -1.2374   -0.9918 H   0  0  0  0  0  0  0  0  0  0  0  0
   -2.0422   -0.2232   -2.5340 H   0  0  0  0  0  0  0  0  0  0  0  0
   -1.0630    1.7430    0.3171 H   0  0  0  0  0  0  0  0  0  0  0  0
    1.3693   -0.2321   -0.9633 H   0  0  0  0  0  0  0  0  0  0  0  0
    3.1505    0.1150    1.5522 H   0  0  0  0  0  0  0  0  0  0  0  0
    4.4164   -1.8369    0.4690 H   0  0  0  0  0  0  0  0  0  0  0  0
    3.1852   -1.8938   -0.9113 H   0  0  0  0  0  0  0  0  0  0  0  0
    3.6813    0.4735   -1.5037 H   0  0  0  0  0  0  0  0  0  0  0  0
    5.1620    1.7783   -0.0628 H   0  0  0  0  0  0  0  0  0  0  0  0
    5.4598    0.3871    0.9085 H   0  0  0  0  0  0  0  0  0  0  0  0
   -1.8175    0.3309    2.1309 H   0  0  0  0  0  0  0  0  0  0  0  0
   -1.7958   -1.1336    1.0633 H   0  0  0  0  0  0  0  0  0  0  0  0
  1  2  1  0
  2  3  1  0
  3  4  1  0
  4  5  1  0
  5  6  1  0
  6  7  1  0
  7  8  2  0
  7  9  1  0
  9 10  1  0
 10 11  1  0
 11 12  1  0
 12 13  1  0
  6 14  1  0
 14  2  1  0
 12 10  1  0
  1 15  1  0
  1 16  1  0
  1 17  1  0
  3 18  1  0
  3 19  1  0
  4 20  1  0
  4 21  1  0
  6 22  1  6
  9 23  1  0
 10 24  1  1
 11 25  1  0
 11 26  1  0
 12 27  1  6
 13 28  1  0
 13 29  1  0
 14 30  1  0
 14 31  1  0
M  END
$$$$

     RDKit          3D

 31 32  0  0  0  0  0  0  0  0999 V2000
   -3.2139   -1.0953    1.6833 C   0  0  0  0  0  0  0  0  0  0  0  0
   -2.7204   -0.3568    0.5598 N   0  0  0  0  0  0  0  0  0  0  0  0
   -3.5657   -0.4658   -0.6160 C   0  0  0  0  0  0  0  0  0  0  0  0
   -3.0062    0.4131   -1.6967 C   0  0  0  0  0  0  0  0  0  0  0  0
   -1.6752    0.1570   -1.9808 O   0  0  0  0  0  0  0  0  0  0  0  0
   -0.9347    0.3395   -0.8413 C   0  0  2  0  0  0  0  0  0  0  0  0
    0.5153    0.3110   -1.0532 C   0  0  0  0  0  0  0  0  0  0  0  0
    0.9558    0.1290   -2.2161 O   0  0  0  0  0  0  0  0  0  0  0  0
    1.4618    0.4791   -0.0091 N   0  0  0  0  0  0  0  0  0  0  0  0
    2.8946    0.4483   -0.2357 C   0  0  1  0  0  0  0  0  0  0  0  0
    3.6688    1.4847    0.5518 C   0  0  0  0  0  0  0  0  0  0  0  0
    3.8041   -0.0186    0.8481 C   0  0  2  0  0  0  0  0  0  0  0  0
    5.1014   -0.5651    0.4504 N   0  0  0  0  0  0  0  0  0  0  0  0
   -1.3838   -0.7348    0.1578 C   0  0  0  0  0  0  0  0  0  0  0  0
   -4.2874   -0.8578    1.7999 H   0  0  0  0  0  0  0  0  0  0  0  0
   -3.0285   -2.1868    1.6168 H   0  0  0  0  0  0  0  0  0  0  0  0
   -2.6842   -0.7284    2.5895 H   0  0  0  0  0  0  0  0  0  0  0  0
   -3.7440   -1.4989   -0.9115 H   0  0  0  0  0  0  0  0  0  0  0  0
   -4.5589   -0.0267   -0.3280 H   0  0  0  0  0  0  0  0  0  0  0  0
   -3.0552    1.4703   -1.3192 H   0  0  0  0  0  0  0  0  0  0  0  0
   -3.6521    0.2907   -2.5991 H   0  0  0  0  0  0  0  0  0  0  0  0
   -1.2416    1.3108   -0.3842 H   0  0  0  0  0  0  0  0  0  0  0  0
    1.0767    0.6289    0.9485 H   0  0  0  0  0  0  0  0  0  0  0  0
    3.2584    0.2879   -1.2606 H   0  0  0  0  0  0  0  0  0  0  0  0
    3.1311    2.0948    1.3077 H   0  0  0  0  0  0  0  0  0  0  0  0
    4.5211    2.0016    0.1037 H   0  0  0  0  0  0  0  0  0  0  0  0
    3.4011   -0.3821    1.8091 H   0  0  0  0  0  0  0  0  0  0  0  0
    5.8683   -0.1465    1.0553 H   0  0  0  0  0  0  0  0  0  0  0  0
    5.2705   -0.2566   -0.5396 H   0  0  0  0  0  0  0  0  0  0  0  0
   -1.4922   -1.6671   -0.4710 H   0  0  0  0  0  0  0  0  0  0  0  0
   -0.6849   -0.8594    0.9806 H   0  0  0  0  0  0  0  0  0  0  0  0
  1  2  1  0
  2  3  1  0
  3  4  1  0
  4  5  1  0
  5  6  1  0
  6  7  1  0
  7  8  2  0
  7  9  1  0
  9 10  1  0
 10 11  1  0
 11 12  1  0
 12 13  1  0
  6 14  1  0
 14  2  1  0
 12 10  1  0
  1 15  1  0
  1 16  1  0
  1 17  1  0
  3 18  1  0
  3 19  1  0
  4 20  1  0
  4 21  1  0
  6 22  1  1
  9 23  1  0
 10 24  1  6
 11 25  1  0
 11 26  1  0
 12 27  1  1
 13 28  1  0
 13 29  1  0
 14 30  1  0
 14 31  1  0
M  END
$$$$

     RDKit          3D

 31 32  0  0  0  0  0  0  0  0999 V2000
   -4.0109    0.8702   -0.1066 C   0  0  0  0  0  0  0  0  0  0  0  0
   -3.1561    0.0541    0.7051 N   0  0  0  0  0  0  0  0  0  0  0  0
   -3.2359   -1.3424    0.3973 C   0  0  0  0  0  0  0  0  0  0  0  0
   -2.2719   -1.6490   -0.7448 C   0  0  0  0  0  0  0  0  0  0  0  0
   -0.9665   -1.2765   -0.3983 O   0  0  0  0  0  0  0  0  0  0  0  0
   -0.9319    0.0898   -0.3378 C   0  0  2  0  0  0  0  0  0  0  0  0
    0.4135    0.6599   -0.1775 C   0  0  0  0  0  0  0  0  0  0  0  0
    0.5160    1.9121   -0.1148 O   0  0  0  0  0  0  0  0  0  0  0  0
    1.6059   -0.0997   -0.0882 N   0  0  0  0  0  0  0  0  0  0  0  0
    2.9230    0.5052    0.0707 C   0  0  1  0  0  0  0  0  0  0  0  0
    3.8301   -0.2274    1.0685 C   0  0  0  0  0  0  0  0  0  0  0  0
    4.1410   -0.1976   -0.3815 C   0  0  2  0  0  0  0  0  0  0  0  0
    5.2920    0.6111   -0.7548 N   0  0  0  0  0  0  0  0  0  0  0  0
   -1.8238    0.5746    0.7712 C   0  0  0  0  0  0  0  0  0  0  0  0
   -3.7418    0.7469   -1.1728 H   0  0  0  0  0  0  0  0  0  0  0  0
   -5.0741    0.5685    0.0141 H   0  0  0  0  0  0  0  0  0  0  0  0
   -3.8885    1.9206    0.1697 H   0  0  0  0  0  0  0  0  0  0  0  0
   -3.0123   -1.9685    1.2869 H   0  0  0  0  0  0  0  0  0  0  0  0
   -4.2567   -1.5619    0.0298 H   0  0  0  0  0  0  0  0  0  0  0  0
   -2.5641   -0.9776   -1.5828 H   0  0  0  0  0  0  0  0  0  0  0  0
   -2.3403   -2.7065   -1.0612 H   0  0  0  0  0  0  0  0  0  0  0  0
   -1.3464    0.4813   -1.2995 H   0  0  0  0  0  0  0  0  0  0  0  0
    1.5032   -1.1365   -0.1419 H   0  0  0  0  0  0  0  0  0  0  0  0
    2.9867    1.6106    0.1235 H   0  0  0  0  0  0  0  0  0  0  0  0
    4.3853    0.3635    1.8080 H   0  0  0  0  0  0  0  0  0  0  0  0
    3.4843   -1.2145    1.4503 H   0  0  0  0  0  0  0  0  0  0  0  0
    4.0836   -1.1445   -0.9631 H   0  0  0  0  0  0  0  0  0  0  0  0
    5.0380    1.3641   -1.4324 H   0  0  0  0  0  0  0  0  0  0  0  0
    5.6902    1.1265    0.0840 H   0  0  0  0  0  0  0  0  0  0  0  0
   -1.8935    1.6843    0.7001 H   0  0  0  0  0  0  0  0  0  0  0  0
   -1.3781    0.3592    1.7607 H   0  0  0  0  0  0  0  0  0  0  0  0
  1  2  1  0
  2  3  1  0
  3  4  1  0
  4  5  1  0
  5  6  1  0
  6  7  1  0
  7  8  2  0
  7  9  1  0
  9 10  1  0
 10 11  1  0
 11 12  1  0
 12 13  1  0
  6 14  1  0
 14  2  1  0
 12 10  1  0
  1 15  1  0
  1 16  1  0
  1 17  1  0
  3 18  1  0
  3 19  1  0
  4 20  1  0
  4 21  1  0
  6 22  1  6
  9 23  1  0
 10 24  1  1
 11 25  1  0
 11 26  1  0
 12 27  1  6
 13 28  1  0
 13 29  1  0
 14 30  1  0
 14 31  1  0
M  END
$$$$

     RDKit          3D

 31 32  0  0  0  0  0  0  0  0999 V2000
   -4.0472   -1.3054    0.4039 C   0  0  0  0  0  0  0  0  0  0  0  0
   -3.0654   -0.2789    0.6792 N   0  0  0  0  0  0  0  0  0  0  0  0
   -3.2726    0.9248   -0.0558 C   0  0  0  0  0  0  0  0  0  0  0  0
   -2.4057    1.0361   -1.2943 C   0  0  0  0  0  0  0  0  0  0  0  0
   -1.0528    0.9935   -0.9901 O   0  0  0  0  0  0  0  0  0  0  0  0
   -0.8567    0.4996    0.2752 C   0  0  2  0  0  0  0  0  0  0  0  0
    0.5304    0.1320    0.5738 C   0  0  0  0  0  0  0  0  0  0  0  0
    0.7898   -0.3288    1.7156 O   0  0  0  0  0  0  0  0  0  0  0  0
    1.6194    0.2554   -0.3333 N   0  0  0  0  0  0  0  0  0  0  0  0
    2.9725   -0.1406    0.0616 C   0  0  1  0  0  0  0  0  0  0  0  0
    3.7033   -0.9156   -1.0337 C   0  0  0  0  0  0  0  0  0  0  0  0
    4.1484    0.4439   -0.5807 C   0  0  2  0  0  0  0  0  0  0  0  0
    5.3967    0.4709    0.1533 N   0  0  0  0  0  0  0  0  0  0  0  0
   -1.7117   -0.7417    0.4419 C   0  0  0  0  0  0  0  0  0  0  0  0
   -3.5484   -2.0779   -0.2179 H   0  0  0  0  0  0  0  0  0  0  0  0
   -4.3657   -1.7793    1.3556 H   0  0  0  0  0  0  0  0  0  0  0  0
   -4.9513   -0.9132   -0.1060 H   0  0  0  0  0  0  0  0  0  0  0  0
   -3.1058    1.8447    0.5438 H   0  0  0  0  0  0  0  0  0  0  0  0
   -4.3278    0.9853   -0.4128 H   0  0  0  0  0  0  0  0  0  0  0  0
   -2.5989    2.0694   -1.7072 H   0  0  0  0  0  0  0  0  0  0  0  0
   -2.6697    0.3029   -2.0726 H   0  0  0  0  0  0  0  0  0  0  0  0
   -1.2015    1.2552    1.0191 H   0  0  0  0  0  0  0  0  0  0  0  0
    1.4062    0.6352   -1.2753 H   0  0  0  0  0  0  0  0  0  0  0  0
    3.0814   -0.5311    1.0883 H   0  0  0  0  0  0  0  0  0  0  0  0
    3.2674   -0.9563   -2.0411 H   0  0  0  0  0  0  0  0  0  0  0  0
    4.2511   -1.8030   -0.7007 H   0  0  0  0  0  0  0  0  0  0  0  0
    4.0162    1.3018   -1.2726 H   0  0  0  0  0  0  0  0  0  0  0  0
    5.2966   -0.0679    1.0460 H   0  0  0  0  0  0  0  0  0  0  0  0
    5.7199    1.4417    0.3553 H   0  0  0  0  0  0  0  0  0  0  0  0
   -1.6838   -1.3844   -0.4723 H   0  0  0  0  0  0  0  0  0  0  0  0
   -1.3341   -1.3681    1.2753 H   0  0  0  0  0  0  0  0  0  0  0  0
  1  2  1  0
  2  3  1  0
  3  4  1  0
  4  5  1  0
  5  6  1  0
  6  7  1  0
  7  8  2  0
  7  9  1  0
  9 10  1  0
 10 11  1  0
 11 12  1  0
 12 13  1  0
  6 14  1  0
 14  2  1  0
 12 10  1  0
  1 15  1  0
  1 16  1  0
  1 17  1  0
  3 18  1  0
  3 19  1  0
  4 20  1  0
  4 21  1  0
  6 22  1  1
  9 23  1  0
 10 24  1  1
 11 25  1  0
 11 26  1  0
 12 27  1  6
 13 28  1  0
 13 29  1  0
 14 30  1  0
 14 31  1  0
M  END
$$$$

     RDKit          3D

 31 32  0  0  0  0  0  0  0  0999 V2000
    2.3919    1.5725    0.9134 C   0  0  0  0  0  0  0  0  0  0  0  0
    2.5853    0.1861    1.2977 N   0  0  0  0  0  0  0  0  0  0  0  0
    3.5625   -0.3762    0.4006 C   0  0  0  0  0  0  0  0  0  0  0  0
    2.7970   -0.6688   -0.8978 C   0  0  0  0  0  0  0  0  0  0  0  0
    2.0002   -1.7606   -0.5844 O   0  0  0  0  0  0  0  0  0  0  0  0
    1.0281   -1.4721    0.3295 C   0  0  2  0  0  0  0  0  0  0  0  0
   -0.1750   -0.9853   -0.4273 C   0  0  0  0  0  0  0  0  0  0  0  0
   -0.1785   -0.8976   -1.6873 O   0  0  0  0  0  0  0  0  0  0  0  0
   -1.3415   -0.6114    0.2690 N   0  0  0  0  0  0  0  0  0  0  0  0
   -2.5252   -0.1364   -0.4187 C   0  0  1  0  0  0  0  0  0  0  0  0
   -3.8249   -0.6037    0.1421 C   0  0  0  0  0  0  0  0  0  0  0  0
   -3.4442    0.8356    0.2131 C   0  0  2  0  0  0  0  0  0  0  0  0
   -4.1828    1.7544   -0.6510 N   0  0  0  0  0  0  0  0  0  0  0  0
    1.3904   -0.5577    1.4282 C   0  0  0  0  0  0  0  0  0  0  0  0
    1.3051    1.8078    0.8936 H   0  0  0  0  0  0  0  0  0  0  0  0
    2.8798    2.2299    1.6713 H   0  0  0  0  0  0  0  0  0  0  0  0
    2.8669    1.8029   -0.0639 H   0  0  0  0  0  0  0  0  0  0  0  0
    4.3761    0.3320    0.2480 H   0  0  0  0  0  0  0  0  0  0  0  0
    3.9439   -1.3540    0.7661 H   0  0  0  0  0  0  0  0  0  0  0  0
    2.1011    0.1896   -1.0776 H   0  0  0  0  0  0  0  0  0  0  0  0
    3.4656   -0.8745   -1.7288 H   0  0  0  0  0  0  0  0  0  0  0  0
    0.6954   -2.4551    0.7774 H   0  0  0  0  0  0  0  0  0  0  0  0
   -1.4101   -0.6589    1.3224 H   0  0  0  0  0  0  0  0  0  0  0  0
   -2.4247   -0.0966   -1.5291 H   0  0  0  0  0  0  0  0  0  0  0  0
   -3.8178   -1.1765    1.0961 H   0  0  0  0  0  0  0  0  0  0  0  0
   -4.6177   -0.9480   -0.5552 H   0  0  0  0  0  0  0  0  0  0  0  0
   -3.1579    1.2248    1.2111 H   0  0  0  0  0  0  0  0  0  0  0  0
   -4.7438    2.4169   -0.1020 H   0  0  0  0  0  0  0  0  0  0  0  0
   -3.5163    2.2033   -1.2942 H   0  0  0  0  0  0  0  0  0  0  0  0
    1.4295   -1.0973    2.4205 H   0  0  0  0  0  0  0  0  0  0  0  0
    0.5415    0.1750    1.5637 H   0  0  0  0  0  0  0  0  0  0  0  0
  1  2  1  0
  2  3  1  0
  3  4  1  0
  4  5  1  0
  5  6  1  0
  6  7  1  0
  7  8  2  0
  7  9  1  0
  9 10  1  0
 10 11  1  0
 11 12  1  0
 12 13  1  0
  6 14  1  0
 14  2  1  0
 12 10  1  0
  1 15  1  0
  1 16  1  0
  1 17  1  0
  3 18  1  0
  3 19  1  0
  4 20  1  0
  4 21  1  0
  6 22  1  1
  9 23  1  0
 10 24  1  6
 11 25  1  0
 11 26  1  0
 12 27  1  1
 13 28  1  0
 13 29  1  0
 14 30  1  0
 14 31  1  0
M  END
$$$$

     RDKit          3D

 31 32  0  0  0  0  0  0  0  0999 V2000
   -3.1998    1.7592   -0.6255 C   0  0  0  0  0  0  0  0  0  0  0  0
   -2.8557    0.3544   -0.7312 N   0  0  0  0  0  0  0  0  0  0  0  0
   -3.5637   -0.3512    0.2934 C   0  0  0  0  0  0  0  0  0  0  0  0
   -2.6609   -1.1141    1.2303 C   0  0  0  0  0  0  0  0  0  0  0  0
   -1.8036   -1.8758    0.4805 O   0  0  0  0  0  0  0  0  0  0  0  0
   -0.9705   -1.1817   -0.3498 C   0  0  2  0  0  0  0  0  0  0  0  0
    0.3885   -1.0758    0.2394 C   0  0  0  0  0  0  0  0  0  0  0  0
    0.6040   -1.6078    1.3717 O   0  0  0  0  0  0  0  0  0  0  0  0
    1.4591   -0.4078   -0.4033 N   0  0  0  0  0  0  0  0  0  0  0  0
    2.7486   -0.3366    0.2112 C   0  0  1  0  0  0  0  0  0  0  0  0
    3.9003   -0.5855   -0.7609 C   0  0  0  0  0  0  0  0  0  0  0  0
    3.7027    0.7521   -0.1102 C   0  0  2  0  0  0  0  0  0  0  0  0
    4.6024    1.1694    0.9471 N   0  0  0  0  0  0  0  0  0  0  0  0
   -1.4447    0.1924   -0.7157 C   0  0  0  0  0  0  0  0  0  0  0  0
   -4.2857    1.8529   -0.8304 H   0  0  0  0  0  0  0  0  0  0  0  0
   -2.6862    2.3847   -1.3772 H   0  0  0  0  0  0  0  0  0  0  0  0
   -2.9879    2.1768    0.3768 H   0  0  0  0  0  0  0  0  0  0  0  0
   -4.2037    0.3098    0.9196 H   0  0  0  0  0  0  0  0  0  0  0  0
   -4.2542   -1.0660   -0.2097 H   0  0  0  0  0  0  0  0  0  0  0  0
   -2.1866   -0.4807    1.9903 H   0  0  0  0  0  0  0  0  0  0  0  0
   -3.3300   -1.8310    1.7860 H   0  0  0  0  0  0  0  0  0  0  0  0
   -0.8442   -1.8036   -1.2841 H   0  0  0  0  0  0  0  0  0  0  0  0
    1.3172    0.0395   -1.3325 H   0  0  0  0  0  0  0  0  0  0  0  0
    2.8446   -0.8248    1.1912 H   0  0  0  0  0  0  0  0  0  0  0  0
    3.6842   -0.6364   -1.8291 H   0  0  0  0  0  0  0  0  0  0  0  0
    4.7258   -1.2296   -0.3863 H   0  0  0  0  0  0  0  0  0  0  0  0
    3.3239    1.6057   -0.7412 H   0  0  0  0  0  0  0  0  0  0  0  0
    5.5851    1.0570    0.6754 H   0  0  0  0  0  0  0  0  0  0  0  0
    4.3673    0.6690    1.8290 H   0  0  0  0  0  0  0  0  0  0  0  0
   -1.0747    0.3874   -1.7657 H   0  0  0  0  0  0  0  0  0  0  0  0
   -0.9015    0.9457   -0.0895 H   0  0  0  0  0  0  0  0  0  0  0  0
  1  2  1  0
  2  3  1  0
  3  4  1  0
  4  5  1  0
  5  6  1  0
  6  7  1  0
  7  8  2  0
  7  9  1  0
  9 10  1  0
 10 11  1  0
 11 12  1  0
 12 13  1  0
  6 14  1  0
 14  2  1  0
 12 10  1  0
  1 15  1  0
  1 16  1  0
  1 17  1  0
  3 18  1  0
  3 19  1  0
  4 20  1  0
  4 21  1  0
  6 22  1  6
  9 23  1  0
 10 24  1  1
 11 25  1  0
 11 26  1  0
 12 27  1  6
 13 28  1  0
 13 29  1  0
 14 30  1  0
 14 31  1  0
M  END
$$$$
