
     RDKit          3D

 25 25  0  0  0  0  0  0  0  0999 V2000
    3.4430   -1.8558   -0.0439 O   0  0  0  0  0  0  0  0  0  0  0  0
    3.2346   -0.6718    0.3179 C   0  0  0  0  0  0  0  0  0  0  0  0
    4.0682   -0.0234    1.2036 O   0  0  0  0  0  0  0  0  0  0  0  0
    2.0479    0.0197   -0.2458 C   0  0  2  0  0  0  0  0  0  0  0  0
    1.9853    1.3005    0.2606 O   0  0  0  0  0  0  0  0  0  0  0  0
    0.8286   -0.8180    0.0705 C   0  0  0  0  0  0  0  0  0  0  0  0
   -0.3163   -0.1956   -0.4950 N   0  0  0  0  0  0  0  0  0  0  0  0
   -0.7217    1.0379    0.0803 C   0  0  0  0  0  0  0  0  0  0  0  0
   -2.1869    1.2190   -0.2645 C   0  0  0  0  0  0  0  0  0  0  0  0
   -2.6599   -0.1436   -0.6893 C   0  0  2  0  0  0  0  0  0  0  0  0
   -3.6756   -0.6030    0.1612 O   0  0  0  0  0  0  0  0  0  0  0  0
   -1.4590   -1.0533   -0.6251 C   0  0  0  0  0  0  0  0  0  0  0  0
    4.8015   -0.5369    1.6797 H   0  0  0  0  0  0  0  0  0  0  0  0
    2.1537    0.0219   -1.3628 H   0  0  0  0  0  0  0  0  0  0  0  0
    2.2825    1.9965   -0.3905 H   0  0  0  0  0  0  0  0  0  0  0  0
    0.9493   -1.8409   -0.2970 H   0  0  0  0  0  0  0  0  0  0  0  0
    0.7253   -0.8316    1.1769 H   0  0  0  0  0  0  0  0  0  0  0  0
   -0.5685    1.0720    1.1630 H   0  0  0  0  0  0  0  0  0  0  0  0
   -0.1538    1.8641   -0.4274 H   0  0  0  0  0  0  0  0  0  0  0  0
   -2.7552    1.5469    0.6184 H   0  0  0  0  0  0  0  0  0  0  0  0
   -2.2967    1.9364   -1.1077 H   0  0  0  0  0  0  0  0  0  0  0  0
   -3.0690   -0.0838   -1.7191 H   0  0  0  0  0  0  0  0  0  0  0  0
   -3.7011    0.0216    0.9520 H   0  0  0  0  0  0  0  0  0  0  0  0
   -1.5882   -1.7518    0.2228 H   0  0  0  0  0  0  0  0  0  0  0  0
   -1.3680   -1.6269   -1.5692 H   0  0  0  0  0  0  0  0  0  0  0  0
  1  2  2  0
  2  3  1  0
  2  4  1  0
  4  5  1  0
  4  6  1  0
  6  7  1  0
  7  8  1  0
  8  9  1  0
  9 10  1  0
 10 11  1  0
 10 12  1  0
 12  7  1  0
  3 13  1  0
  4 14  1  6
  5 15  1  0
  6 16  1  0
  6 17  1  0
  8 18  1  0
  8 19  1  0
  9 20  1  0
  9 21  1  0
 10 22  1  6
 11 23  1  0
 12 24  1  0
 12 25  1  0
M  END
$$$$

     RDKit          3D

 25 25  0  0  0  0  0  0  0  0999 V2000
    4.1698    0.9712    0.3831 O   0  0  0  0  0  0  0  0  0  0  0  0
    3.2862    0.3666   -0.2391 C   0  0  0  0  0  0  0  0  0  0  0  0
    3.5840   -0.8029   -0.9210 O   0  0  0  0  0  0  0  0  0  0  0  0
    1.9003    0.8993   -0.2534 C   0  0  2  0  0  0  0  0  0  0  0  0
    1.8378    2.0649    0.5046 O   0  0  0  0  0  0  0  0  0  0  0  0
    0.9565   -0.1544    0.2674 C   0  0  0  0  0  0  0  0  0  0  0  0
   -0.4220    0.2907    0.2420 N   0  0  0  0  0  0  0  0  0  0  0  0
   -0.9432    0.4479   -1.0757 C   0  0  0  0  0  0  0  0  0  0  0  0
   -2.3158   -0.1801   -1.1302 C   0  0  0  0  0  0  0  0  0  0  0  0
   -2.6030   -0.6184    0.2881 C   0  0  2  0  0  0  0  0  0  0  0  0
   -3.3131    0.3164    1.0076 O   0  0  0  0  0  0  0  0  0  0  0  0
   -1.2029   -0.7785    0.8285 C   0  0  0  0  0  0  0  0  0  0  0  0
    4.4023   -1.3676   -0.7157 H   0  0  0  0  0  0  0  0  0  0  0  0
    1.5940    1.1962   -1.2936 H   0  0  0  0  0  0  0  0  0  0  0  0
    2.0120    1.8735    1.4654 H   0  0  0  0  0  0  0  0  0  0  0  0
    1.0880   -1.1074   -0.2540 H   0  0  0  0  0  0  0  0  0  0  0  0
    1.2090   -0.3171    1.3397 H   0  0  0  0  0  0  0  0  0  0  0  0
   -1.0587    1.5240   -1.3234 H   0  0  0  0  0  0  0  0  0  0  0  0
   -0.3279   -0.0480   -1.8698 H   0  0  0  0  0  0  0  0  0  0  0  0
   -3.1053    0.5005   -1.4475 H   0  0  0  0  0  0  0  0  0  0  0  0
   -2.3228   -1.1003   -1.7477 H   0  0  0  0  0  0  0  0  0  0  0  0
   -3.1698   -1.5732    0.2990 H   0  0  0  0  0  0  0  0  0  0  0  0
   -3.2851    0.0581    1.9610 H   0  0  0  0  0  0  0  0  0  0  0  0
   -0.7951   -1.7310    0.4236 H   0  0  0  0  0  0  0  0  0  0  0  0
   -1.1752   -0.7305    1.9275 H   0  0  0  0  0  0  0  0  0  0  0  0
  1  2  2  0
  2  3  1  0
  2  4  1  0
  4  5  1  0
  4  6  1  0
  6  7  1  0
  7  8  1  0
  8  9  1  0
  9 10  1  0
 10 11  1  0
 10 12  1  0
 12  7  1  0
  3 13  1  0
  4 14  1  6
  5 15  1  0
  6 16  1  0
  6 17  1  0
  8 18  1  0
  8 19  1  0
  9 20  1  0
  9 21  1  0
 10 22  1  6
 11 23  1  0
 12 24  1  0
 12 25  1  0
M  END
$$$$

     RDKit          3D

 25 25  0  0  0  0  0  0  0  0999 V2000
    3.9740   -0.5873   -1.1413 O   0  0  0  0  0  0  0  0  0  0  0  0
    3.2658   -0.0006   -0.2871 C   0  0  0  0  0  0  0  0  0  0  0  0
    3.8387    1.1062    0.3472 O   0  0  0  0  0  0  0  0  0  0  0  0
    1.8794   -0.4336    0.0596 C   0  0  2  0  0  0  0  0  0  0  0  0
    1.6044   -1.5510   -0.7360 O   0  0  0  0  0  0  0  0  0  0  0  0
    0.9583    0.6835   -0.2603 C   0  0  0  0  0  0  0  0  0  0  0  0
   -0.3927    0.4444   -0.0831 N   0  0  0  0  0  0  0  0  0  0  0  0
   -1.3397    1.4154   -0.3510 C   0  0  0  0  0  0  0  0  0  0  0  0
   -2.6643    0.6430   -0.3104 C   0  0  0  0  0  0  0  0  0  0  0  0
   -2.2842   -0.8030   -0.0921 C   0  0  2  0  0  0  0  0  0  0  0  0
   -3.1604   -1.4827    0.7166 O   0  0  0  0  0  0  0  0  0  0  0  0
   -0.9003   -0.6622    0.5567 C   0  0  0  0  0  0  0  0  0  0  0  0
    4.6649    1.5439   -0.0893 H   0  0  0  0  0  0  0  0  0  0  0  0
    1.8191   -0.6863    1.1504 H   0  0  0  0  0  0  0  0  0  0  0  0
    2.1195   -2.3063   -0.3578 H   0  0  0  0  0  0  0  0  0  0  0  0
    1.2643    1.5736    0.3520 H   0  0  0  0  0  0  0  0  0  0  0  0
    1.1524    0.9911   -1.3297 H   0  0  0  0  0  0  0  0  0  0  0  0
   -1.3535    2.1752    0.4797 H   0  0  0  0  0  0  0  0  0  0  0  0
   -1.1963    1.9360   -1.2980 H   0  0  0  0  0  0  0  0  0  0  0  0
   -3.2139    0.7669   -1.2622 H   0  0  0  0  0  0  0  0  0  0  0  0
   -3.3088    0.9997    0.5043 H   0  0  0  0  0  0  0  0  0  0  0  0
   -2.1699   -1.2658   -1.1019 H   0  0  0  0  0  0  0  0  0  0  0  0
   -3.0342   -2.4525    0.5539 H   0  0  0  0  0  0  0  0  0  0  0  0
   -1.1128   -0.4284    1.6404 H   0  0  0  0  0  0  0  0  0  0  0  0
   -0.4098   -1.6193    0.4521 H   0  0  0  0  0  0  0  0  0  0  0  0
  1  2  2  0
  2  3  1  0
  2  4  1  0
  4  5  1  0
  4  6  1  0
  6  7  1  0
  7  8  1  0
  8  9  1  0
  9 10  1  0
 10 11  1  0
 10 12  1  0
 12  7  1  0
  3 13  1  0
  4 14  1  1
  5 15  1  0
  6 16  1  0
  6 17  1  0
  8 18  1  0
  8 19  1  0
  9 20  1  0
  9 21  1  0
 10 22  1  6
 11 23  1  0
 12 24  1  0
 12 25  1  0
M  END
$$$$

     RDKit          3D

 25 25  0  0  0  0  0  0  0  0999 V2000
   -3.9659    0.8438    0.2156 O   0  0  0  0  0  0  0  0  0  0  0  0
   -2.8192    0.8337   -0.2849 C   0  0  0  0  0  0  0  0  0  0  0  0
   -2.1796    2.0677   -0.4140 O   0  0  0  0  0  0  0  0  0  0  0  0
   -2.1579   -0.4438   -0.7286 C   0  0  2  0  0  0  0  0  0  0  0  0
   -3.0828   -1.4643   -0.4346 O   0  0  0  0  0  0  0  0  0  0  0  0
   -0.9481   -0.7145    0.1604 C   0  0  0  0  0  0  0  0  0  0  0  0
    0.1121    0.2819   -0.0927 N   0  0  0  0  0  0  0  0  0  0  0  0
    1.1421    0.0385    0.9080 C   0  0  0  0  0  0  0  0  0  0  0  0
    2.3712   -0.4675    0.1938 C   0  0  0  0  0  0  0  0  0  0  0  0
    2.1828    0.1670   -1.1664 C   0  0  2  0  0  0  0  0  0  0  0  0
    2.3969    1.5363   -1.0216 O   0  0  0  0  0  0  0  0  0  0  0  0
    0.7192   -0.0945   -1.3883 C   0  0  0  0  0  0  0  0  0  0  0  0
   -2.0891    2.6730    0.3981 H   0  0  0  0  0  0  0  0  0  0  0  0
   -1.9131   -0.4154   -1.7903 H   0  0  0  0  0  0  0  0  0  0  0  0
   -2.8884   -1.8323    0.4653 H   0  0  0  0  0  0  0  0  0  0  0  0
   -0.5343   -1.7109    0.0008 H   0  0  0  0  0  0  0  0  0  0  0  0
   -1.2447   -0.6292    1.2131 H   0  0  0  0  0  0  0  0  0  0  0  0
    0.8011   -0.6385    1.7166 H   0  0  0  0  0  0  0  0  0  0  0  0
    1.3908    1.0347    1.3442 H   0  0  0  0  0  0  0  0  0  0  0  0
    3.3145   -0.1498    0.6787 H   0  0  0  0  0  0  0  0  0  0  0  0
    2.2953   -1.5767    0.1309 H   0  0  0  0  0  0  0  0  0  0  0  0
    2.8371   -0.2916   -1.9364 H   0  0  0  0  0  0  0  0  0  0  0  0
    3.3662    1.7167   -0.8335 H   0  0  0  0  0  0  0  0  0  0  0  0
    0.6120   -1.1999   -1.4645 H   0  0  0  0  0  0  0  0  0  0  0  0
    0.2820    0.4357   -2.2360 H   0  0  0  0  0  0  0  0  0  0  0  0
  1  2  2  0
  2  3  1  0
  2  4  1  0
  4  5  1  0
  4  6  1  0
  6  7  1  0
  7  8  1  0
  8  9  1  0
  9 10  1  0
 10 11  1  0
 10 12  1  0
 12  7  1  0
  3 13  1  0
  4 14  1  6
  5 15  1  0
  6 16  1  0
  6 17  1  0
  8 18  1  0
  8 19  1  0
  9 20  1  0
  9 21  1  0
 10 22  1  6
 11 23  1  0
 12 24  1  0
 12 25  1  0
M  END
$$$$

     RDKit          3D

 25 25  0  0  0  0  0  0  0  0999 V2000
    3.2775   -0.5135    1.3276 O   0  0  0  0  0  0  0  0  0  0  0  0
    2.7769   -0.7388    0.2166 C   0  0  0  0  0  0  0  0  0  0  0  0
    2.7945   -2.0169   -0.3031 O   0  0  0  0  0  0  0  0  0  0  0  0
    2.1572    0.3463   -0.5645 C   0  0  2  0  0  0  0  0  0  0  0  0
    2.2066    1.5630    0.0995 O   0  0  0  0  0  0  0  0  0  0  0  0
    0.7702   -0.0460   -0.9527 C   0  0  0  0  0  0  0  0  0  0  0  0
   -0.1295   -0.2010    0.1276 N   0  0  0  0  0  0  0  0  0  0  0  0
   -0.5434    0.9393    0.8460 C   0  0  0  0  0  0  0  0  0  0  0  0
   -1.8839    1.2757    0.1662 C   0  0  0  0  0  0  0  0  0  0  0  0
   -2.4974   -0.1024    0.0686 C   0  0  2  0  0  0  0  0  0  0  0  0
   -3.1249   -0.4204    1.2680 O   0  0  0  0  0  0  0  0  0  0  0  0
   -1.2970   -0.9588   -0.2004 C   0  0  0  0  0  0  0  0  0  0  0  0
    2.8513   -2.8256    0.3035 H   0  0  0  0  0  0  0  0  0  0  0  0
    2.7424    0.5228   -1.5207 H   0  0  0  0  0  0  0  0  0  0  0  0
    3.1342    1.9279    0.0736 H   0  0  0  0  0  0  0  0  0  0  0  0
    0.8360   -1.0067   -1.5152 H   0  0  0  0  0  0  0  0  0  0  0  0
    0.3826    0.6886   -1.7062 H   0  0  0  0  0  0  0  0  0  0  0  0
   -0.8430    0.6008    1.8714 H   0  0  0  0  0  0  0  0  0  0  0  0
    0.1041    1.8010    0.8930 H   0  0  0  0  0  0  0  0  0  0  0  0
   -1.6940    1.7201   -0.8273 H   0  0  0  0  0  0  0  0  0  0  0  0
   -2.4407    1.9460    0.8325 H   0  0  0  0  0  0  0  0  0  0  0  0
   -3.2479   -0.1233   -0.7422 H   0  0  0  0  0  0  0  0  0  0  0  0
   -3.6500   -1.2460    1.1109 H   0  0  0  0  0  0  0  0  0  0  0  0
   -1.3136   -1.2587   -1.2669 H   0  0  0  0  0  0  0  0  0  0  0  0
   -1.3681   -1.8735    0.3944 H   0  0  0  0  0  0  0  0  0  0  0  0
  1  2  2  0
  2  3  1  0
  2  4  1  0
  4  5  1  0
  4  6  1  0
  6  7  1  0
  7  8  1  0
  8  9  1  0
  9 10  1  0
 10 11  1  0
 10 12  1  0
 12  7  1  0
  3 13  1  0
  4 14  1  6
  5 15  1  0
  6 16  1  0
  6 17  1  0
  8 18  1  0
  8 19  1  0
  9 20  1  0
  9 21  1  0
 10 22  1  6
 11 23  1  0
 12 24  1  0
 12 25  1  0
M  END
$$$$

     RDKit          3D

 25 25  0  0  0  0  0  0  0  0999 V2000
    3.9060   -0.4219   -0.4757 O   0  0  0  0  0  0  0  0  0  0  0  0
    2.7771    0.1341   -0.4133 C   0  0  0  0  0  0  0  0  0  0  0  0
    2.3609    0.8389   -1.5284 O   0  0  0  0  0  0  0  0  0  0  0  0
    1.9850    0.0022    0.8199 C   0  0  2  0  0  0  0  0  0  0  0  0
    2.6891   -0.7718    1.7357 O   0  0  0  0  0  0  0  0  0  0  0  0
    0.7029   -0.7330    0.5249 C   0  0  0  0  0  0  0  0  0  0  0  0
   -0.1507   -0.0697   -0.4071 N   0  0  0  0  0  0  0  0  0  0  0  0
   -0.7359    1.1463    0.0550 C   0  0  0  0  0  0  0  0  0  0  0  0
   -2.2017    1.1171   -0.3309 C   0  0  0  0  0  0  0  0  0  0  0  0
   -2.4950   -0.3672   -0.2956 C   0  0  2  0  0  0  0  0  0  0  0  0
   -2.7145   -0.7172    1.0377 O   0  0  0  0  0  0  0  0  0  0  0  0
   -1.1989   -0.9606   -0.8304 C   0  0  0  0  0  0  0  0  0  0  0  0
    3.0272    1.4293   -2.0334 H   0  0  0  0  0  0  0  0  0  0  0  0
    1.7917    0.9730    1.3154 H   0  0  0  0  0  0  0  0  0  0  0  0
    2.8951   -1.6303    1.2498 H   0  0  0  0  0  0  0  0  0  0  0  0
    0.2234   -0.9634    1.4964 H   0  0  0  0  0  0  0  0  0  0  0  0
    0.9884   -1.7149    0.0752 H   0  0  0  0  0  0  0  0  0  0  0  0
   -0.2761    1.9924   -0.5239 H   0  0  0  0  0  0  0  0  0  0  0  0
   -0.6082    1.3575    1.1199 H   0  0  0  0  0  0  0  0  0  0  0  0
   -2.8425    1.6455    0.3974 H   0  0  0  0  0  0  0  0  0  0  0  0
   -2.3253    1.4528   -1.3704 H   0  0  0  0  0  0  0  0  0  0  0  0
   -3.3466   -0.6571   -0.9318 H   0  0  0  0  0  0  0  0  0  0  0  0
   -2.1164   -0.1659    1.5759 H   0  0  0  0  0  0  0  0  0  0  0  0
   -1.0636   -1.9852   -0.4502 H   0  0  0  0  0  0  0  0  0  0  0  0
   -1.2712   -0.9307   -1.9296 H   0  0  0  0  0  0  0  0  0  0  0  0
  1  2  2  0
  2  3  1  0
  2  4  1  0
  4  5  1  0
  4  6  1  0
  6  7  1  0
  7  8  1  0
  8  9  1  0
  9 10  1  0
 10 11  1  0
 10 12  1  0
 12  7  1  0
  3 13  1  0
  4 14  1  1
  5 15  1  0
  6 16  1  0
  6 17  1  0
  8 18  1  0
  8 19  1  0
  9 20  1  0
  9 21  1  0
 10 22  1  6
 11 23  1  0
 12 24  1  0
 12 25  1  0
M  END
$$$$

     RDKit          3D

 25 25  0  0  0  0  0  0  0  0999 V2000
    3.6563   -1.7956   -0.6176 O   0  0  0  0  0  0  0  0  0  0  0  0
    3.1856   -0.7377   -0.1720 C   0  0  0  0  0  0  0  0  0  0  0  0
    3.8373    0.4541   -0.3507 O   0  0  0  0  0  0  0  0  0  0  0  0
    1.8985   -0.7580    0.5664 C   0  0  2  0  0  0  0  0  0  0  0  0
    1.3040   -1.9957    0.5722 O   0  0  0  0  0  0  0  0  0  0  0  0
    1.0029    0.2816   -0.0575 C   0  0  0  0  0  0  0  0  0  0  0  0
   -0.2476    0.4737    0.5947 N   0  0  0  0  0  0  0  0  0  0  0  0
   -0.8925    1.6368    0.0197 C   0  0  0  0  0  0  0  0  0  0  0  0
   -2.3185    1.3018   -0.2626 C   0  0  0  0  0  0  0  0  0  0  0  0
   -2.4156   -0.1795   -0.1813 C   0  0  2  0  0  0  0  0  0  0  0  0
   -3.5607   -0.5087    0.5444 O   0  0  0  0  0  0  0  0  0  0  0  0
   -1.1680   -0.6008    0.5609 C   0  0  0  0  0  0  0  0  0  0  0  0
    4.6533    0.5614   -0.9735 H   0  0  0  0  0  0  0  0  0  0  0  0
    2.1483   -0.4245    1.6177 H   0  0  0  0  0  0  0  0  0  0  0  0
    1.4025   -2.4152   -0.3017 H   0  0  0  0  0  0  0  0  0  0  0  0
    0.8955    0.0140   -1.1381 H   0  0  0  0  0  0  0  0  0  0  0  0
    1.5632    1.2365   -0.0561 H   0  0  0  0  0  0  0  0  0  0  0  0
   -0.3326    2.0058   -0.8557 H   0  0  0  0  0  0  0  0  0  0  0  0
   -0.8261    2.4810    0.7663 H   0  0  0  0  0  0  0  0  0  0  0  0
   -2.9590    1.7921    0.5043 H   0  0  0  0  0  0  0  0  0  0  0  0
   -2.6107    1.6662   -1.2686 H   0  0  0  0  0  0  0  0  0  0  0  0
   -2.4246   -0.6398   -1.2022 H   0  0  0  0  0  0  0  0  0  0  0  0
   -3.4959   -1.4356    0.8676 H   0  0  0  0  0  0  0  0  0  0  0  0
   -0.8107   -1.5419    0.0935 H   0  0  0  0  0  0  0  0  0  0  0  0
   -1.4847   -0.8719    1.6100 H   0  0  0  0  0  0  0  0  0  0  0  0
  1  2  2  0
  2  3  1  0
  2  4  1  0
  4  5  1  0
  4  6  1  0
  6  7  1  0
  7  8  1  0
  8  9  1  0
  9 10  1  0
 10 11  1  0
 10 12  1  0
 12  7  1  0
  3 13  1  0
  4 14  1  1
  5 15  1  0
  6 16  1  0
  6 17  1  0
  8 18  1  0
  8 19  1  0
  9 20  1  0
  9 21  1  0
 10 22  1  6
 11 23  1  0
 12 24  1  0
 12 25  1  0
M  END
$$$$

     RDKit          3D

 25 25  0  0  0  0  0  0  0  0999 V2000
    3.8400    1.1496   -0.6127 O   0  0  0  0  0  0  0  0  0  0  0  0
    3.1208    0.6716    0.2674 C   0  0  0  0  0  0  0  0  0  0  0  0
    3.2774    1.0264    1.5839 O   0  0  0  0  0  0  0  0  0  0  0  0
    2.0596   -0.3062   -0.1000 C   0  0  2  0  0  0  0  0  0  0  0  0
    2.0467   -0.5087   -1.4892 O   0  0  0  0  0  0  0  0  0  0  0  0
    0.7415    0.2182    0.4246 C   0  0  0  0  0  0  0  0  0  0  0  0
   -0.3541   -0.6251    0.1659 N   0  0  0  0  0  0  0  0  0  0  0  0
   -0.8143   -0.7693   -1.1694 C   0  0  0  0  0  0  0  0  0  0  0  0
   -2.2030   -0.1355   -1.1874 C   0  0  0  0  0  0  0  0  0  0  0  0
   -2.6015    0.0825    0.2452 C   0  0  2  0  0  0  0  0  0  0  0  0
   -2.6577    1.4207    0.5703 O   0  0  0  0  0  0  0  0  0  0  0  0
   -1.4733   -0.5496    1.0426 C   0  0  0  0  0  0  0  0  0  0  0  0
    3.5864    1.9562    1.8559 H   0  0  0  0  0  0  0  0  0  0  0  0
    2.3365   -1.2563    0.4202 H   0  0  0  0  0  0  0  0  0  0  0  0
    2.2138   -1.4814   -1.6570 H   0  0  0  0  0  0  0  0  0  0  0  0
    0.8672    0.2584    1.5467 H   0  0  0  0  0  0  0  0  0  0  0  0
    0.6031    1.2753    0.0921 H   0  0  0  0  0  0  0  0  0  0  0  0
   -0.2063   -0.3536   -1.9668 H   0  0  0  0  0  0  0  0  0  0  0  0
   -0.9699   -1.8558   -1.3632 H   0  0  0  0  0  0  0  0  0  0  0  0
   -2.1059    0.8540   -1.7277 H   0  0  0  0  0  0  0  0  0  0  0  0
   -2.9442   -0.7585   -1.7131 H   0  0  0  0  0  0  0  0  0  0  0  0
   -3.5378   -0.4553    0.4995 H   0  0  0  0  0  0  0  0  0  0  0  0
   -1.8108    1.7066    1.0331 H   0  0  0  0  0  0  0  0  0  0  0  0
   -1.7724   -1.6082    1.2871 H   0  0  0  0  0  0  0  0  0  0  0  0
   -1.2418    0.0440    1.9518 H   0  0  0  0  0  0  0  0  0  0  0  0
  1  2  2  0
  2  3  1  0
  2  4  1  0
  4  5  1  0
  4  6  1  0
  6  7  1  0
  7  8  1  0
  8  9  1  0
  9 10  1  0
 10 11  1  0
 10 12  1  0
 12  7  1  0
  3 13  1  0
  4 14  1  1
  5 15  1  0
  6 16  1  0
  6 17  1  0
  8 18  1  0
  8 19  1  0
  9 20  1  0
  9 21  1  0
 10 22  1  6
 11 23  1  0
 12 24  1  0
 12 25  1  0
M  END
$$$$
