
     RDKit          3D

 27 27  0  0  0  0  0  0  0  0999 V2000
    5.3343   -0.7549   -0.4111 C   0  0  0  0  0  0  0  0  0  0  0  0
    4.1790    0.1155   -0.4644 N   0  0  0  0  0  0  0  0  0  0  0  0
    2.8874   -0.3755   -0.1338 C   0  0  0  0  0  0  0  0  0  0  0  0
    2.7332   -1.5838    0.2123 O   0  0  0  0  0  0  0  0  0  0  0  0
    1.7232    0.4286   -0.1681 N   0  0  0  0  0  0  0  0  0  0  0  0
    0.4140   -0.0537    0.1630 C   0  0  0  0  0  0  0  0  0  0  0  0
   -0.3638    0.7723    1.1523 C   0  0  0  0  0  0  0  0  0  0  0  0
   -1.5475    0.4505    0.3931 N   0  0  0  0  0  0  0  0  0  0  0  0
   -2.9211    0.3408    0.6651 C   0  0  0  0  0  0  0  0  0  0  0  0
   -3.3402    0.5534    1.8242 O   0  0  0  0  0  0  0  0  0  0  0  0
   -3.8686   -0.0051   -0.3282 N   0  0  0  0  0  0  0  0  0  0  0  0
   -5.2595   -0.0928    0.0493 C   0  0  0  0  0  0  0  0  0  0  0  0
   -0.6976    0.2922   -0.7644 C   0  0  0  0  0  0  0  0  0  0  0  0
    5.4658   -1.0399    0.6616 H   0  0  0  0  0  0  0  0  0  0  0  0
    5.1937   -1.6908   -0.9861 H   0  0  0  0  0  0  0  0  0  0  0  0
    6.2352   -0.1920   -0.7279 H   0  0  0  0  0  0  0  0  0  0  0  0
    4.2951    1.1084   -0.7471 H   0  0  0  0  0  0  0  0  0  0  0  0
    1.8330    1.4359   -0.4536 H   0  0  0  0  0  0  0  0  0  0  0  0
    0.3974   -1.1122    0.4478 H   0  0  0  0  0  0  0  0  0  0  0  0
   -0.1701    1.8687    1.1209 H   0  0  0  0  0  0  0  0  0  0  0  0
   -0.3439    0.3689    2.1897 H   0  0  0  0  0  0  0  0  0  0  0  0
   -3.6005   -0.1952   -1.3063 H   0  0  0  0  0  0  0  0  0  0  0  0
   -5.8452   -0.7535   -0.6184 H   0  0  0  0  0  0  0  0  0  0  0  0
   -5.4159   -0.3840    1.0946 H   0  0  0  0  0  0  0  0  0  0  0  0
   -5.7128    0.9295   -0.0754 H   0  0  0  0  0  0  0  0  0  0  0  0
   -0.6126    1.2334   -1.3305 H   0  0  0  0  0  0  0  0  0  0  0  0
   -0.9921   -0.5212   -1.4586 H   0  0  0  0  0  0  0  0  0  0  0  0
  1  2  1  0
  2  3  1  0
  3  4  2  0
  3  5  1  0
  5  6  1  0
  6  7  1  0
  7  8  1  0
  8  9  1  0
  9 10  2  0
  9 11  1  0
 11 12  1  0
  8 13  1  0
 13  6  1  0
  1 14  1  0
  1 15  1  0
  1 16  1  0
  2 17  1  0
  5 18  1  0
  6 19  1  0
  7 20  1  0
  7 21  1  0
 11 22  1  0
 12 23  1  0
 12 24  1  0
 12 25  1  0
 13 26  1  0
 13 27  1  0
M  END
$$$$

     RDKit          3D

 27 27  0  0  0  0  0  0  0  0999 V2000
    5.3521   -0.4383   -0.2223 C   0  0  0  0  0  0  0  0  0  0  0  0
    3.9801   -0.5696    0.2866 N   0  0  0  0  0  0  0  0  0  0  0  0
    2.8920    0.0984   -0.2930 C   0  0  0  0  0  0  0  0  0  0  0  0
    3.0944    0.8353   -1.2821 O   0  0  0  0  0  0  0  0  0  0  0  0
    1.5485   -0.0040    0.1721 N   0  0  0  0  0  0  0  0  0  0  0  0
    0.4585    0.7100   -0.4658 C   0  0  0  0  0  0  0  0  0  0  0  0
   -0.5287    1.3529    0.4456 C   0  0  0  0  0  0  0  0  0  0  0  0
   -1.5686    0.5001   -0.1366 N   0  0  0  0  0  0  0  0  0  0  0  0
   -2.9810    0.4160   -0.0355 C   0  0  0  0  0  0  0  0  0  0  0  0
   -3.5700    1.2464    0.7251 O   0  0  0  0  0  0  0  0  0  0  0  0
   -3.7171   -0.5579   -0.7550 N   0  0  0  0  0  0  0  0  0  0  0  0
   -5.1541   -0.5843   -0.6032 C   0  0  0  0  0  0  0  0  0  0  0  0
   -0.6014   -0.2802   -0.9013 C   0  0  0  0  0  0  0  0  0  0  0  0
    5.5793    0.6187   -0.4230 H   0  0  0  0  0  0  0  0  0  0  0  0
    5.3583   -0.9918   -1.1946 H   0  0  0  0  0  0  0  0  0  0  0  0
    6.0433   -0.9429    0.4527 H   0  0  0  0  0  0  0  0  0  0  0  0
    3.7987   -1.1821    1.1121 H   0  0  0  0  0  0  0  0  0  0  0  0
    1.3385   -0.6038    0.9883 H   0  0  0  0  0  0  0  0  0  0  0  0
    0.7697    1.3283   -1.3307 H   0  0  0  0  0  0  0  0  0  0  0  0
   -0.3535    1.2091    1.5163 H   0  0  0  0  0  0  0  0  0  0  0  0
   -0.7659    2.4126    0.1422 H   0  0  0  0  0  0  0  0  0  0  0  0
   -3.1827   -1.2104   -1.3613 H   0  0  0  0  0  0  0  0  0  0  0  0
   -5.3746   -1.2472    0.2595 H   0  0  0  0  0  0  0  0  0  0  0  0
   -5.6031   -0.9509   -1.5528 H   0  0  0  0  0  0  0  0  0  0  0  0
   -5.5085    0.4222   -0.3410 H   0  0  0  0  0  0  0  0  0  0  0  0
   -0.5153   -1.2817   -0.4173 H   0  0  0  0  0  0  0  0  0  0  0  0
   -0.7888   -0.3050   -1.9927 H   0  0  0  0  0  0  0  0  0  0  0  0
  1  2  1  0
  2  3  1  0
  3  4  2  0
  3  5  1  0
  5  6  1  0
  6  7  1  0
  7  8  1  0
  8  9  1  0
  9 10  2  0
  9 11  1  0
 11 12  1  0
  8 13  1  0
 13  6  1  0
  1 14  1  0
  1 15  1  0
  1 16  1  0
  2 17  1  0
  5 18  1  0
  6 19  1  0
  7 20  1  0
  7 21  1  0
 11 22  1  0
 12 23  1  0
 12 24  1  0
 12 25  1  0
 13 26  1  0
 13 27  1  0
M  END
$$$$

     RDKit          3D

 27 27  0  0  0  0  0  0  0  0999 V2000
   -5.3943    0.0235    0.5214 C   0  0  0  0  0  0  0  0  0  0  0  0
   -4.1849   -0.4812   -0.1158 N   0  0  0  0  0  0  0  0  0  0  0  0
   -2.9255    0.0947    0.1491 C   0  0  0  0  0  0  0  0  0  0  0  0
   -2.8583    1.0597    0.9508 O   0  0  0  0  0  0  0  0  0  0  0  0
   -1.7057   -0.3425   -0.4331 N   0  0  0  0  0  0  0  0  0  0  0  0
   -0.4371    0.2655   -0.1426 C   0  0  0  0  0  0  0  0  0  0  0  0
    0.4190    0.6626   -1.2787 C   0  0  0  0  0  0  0  0  0  0  0  0
    1.5781    0.1403   -0.5798 N   0  0  0  0  0  0  0  0  0  0  0  0
    2.9819    0.3674   -0.7127 C   0  0  0  0  0  0  0  0  0  0  0  0
    3.4317    1.1619   -1.5773 O   0  0  0  0  0  0  0  0  0  0  0  0
    3.9117   -0.2919    0.1215 N   0  0  0  0  0  0  0  0  0  0  0  0
    5.3295   -0.0379   -0.0407 C   0  0  0  0  0  0  0  0  0  0  0  0
    0.6829   -0.6387    0.2274 C   0  0  0  0  0  0  0  0  0  0  0  0
   -6.1977   -0.7352    0.5438 H   0  0  0  0  0  0  0  0  0  0  0  0
   -5.1277    0.2287    1.5804 H   0  0  0  0  0  0  0  0  0  0  0  0
   -5.7045    0.9862    0.0838 H   0  0  0  0  0  0  0  0  0  0  0  0
   -4.2518   -1.2798   -0.7774 H   0  0  0  0  0  0  0  0  0  0  0  0
   -1.7568   -1.1475   -1.1028 H   0  0  0  0  0  0  0  0  0  0  0  0
   -0.5491    1.1072    0.5869 H   0  0  0  0  0  0  0  0  0  0  0  0
    0.2736    0.1621   -2.2474 H   0  0  0  0  0  0  0  0  0  0  0  0
    0.4511    1.7637   -1.4306 H   0  0  0  0  0  0  0  0  0  0  0  0
    3.5294   -0.9530    0.8403 H   0  0  0  0  0  0  0  0  0  0  0  0
    5.8490   -0.8727   -0.5479 H   0  0  0  0  0  0  0  0  0  0  0  0
    5.7675    0.1398    0.9839 H   0  0  0  0  0  0  0  0  0  0  0  0
    5.4527    0.9311   -0.5708 H   0  0  0  0  0  0  0  0  0  0  0  0
    0.5698   -1.7008   -0.0796 H   0  0  0  0  0  0  0  0  0  0  0  0
    0.8656   -0.6131    1.3252 H   0  0  0  0  0  0  0  0  0  0  0  0
  1  2  1  0
  2  3  1  0
  3  4  2  0
  3  5  1  0
  5  6  1  0
  6  7  1  0
  7  8  1  0
  8  9  1  0
  9 10  2  0
  9 11  1  0
 11 12  1  0
  8 13  1  0
 13  6  1  0
  1 14  1  0
  1 15  1  0
  1 16  1  0
  2 17  1  0
  5 18  1  0
  6 19  1  0
  7 20  1  0
  7 21  1  0
 11 22  1  0
 12 23  1  0
 12 24  1  0
 12 25  1  0
 13 26  1  0
 13 27  1  0
M  END
$$$$

     RDKit          3D

 27 27  0  0  0  0  0  0  0  0999 V2000
   -4.8548    0.1429    1.5527 C   0  0  0  0  0  0  0  0  0  0  0  0
   -3.4009   -0.0342    1.5337 N   0  0  0  0  0  0  0  0  0  0  0  0
   -2.7534   -0.1109    0.2678 C   0  0  0  0  0  0  0  0  0  0  0  0
   -3.4723   -0.0215   -0.7863 O   0  0  0  0  0  0  0  0  0  0  0  0
   -1.3724   -0.2788    0.1188 N   0  0  0  0  0  0  0  0  0  0  0  0
   -0.6740   -0.3617   -1.1393 C   0  0  0  0  0  0  0  0  0  0  0  0
    0.4514   -1.3588   -1.1960 C   0  0  0  0  0  0  0  0  0  0  0  0
    1.4255   -0.3410   -0.8546 N   0  0  0  0  0  0  0  0  0  0  0  0
    2.7461   -0.3822   -0.3881 C   0  0  0  0  0  0  0  0  0  0  0  0
    3.3197   -1.4645   -0.1826 O   0  0  0  0  0  0  0  0  0  0  0  0
    3.4393    0.8408   -0.1466 N   0  0  0  0  0  0  0  0  0  0  0  0
    4.8113    0.7949    0.3381 C   0  0  0  0  0  0  0  0  0  0  0  0
    0.4410    0.6628   -1.2051 C   0  0  0  0  0  0  0  0  0  0  0  0
   -5.2619    0.1613    0.5386 H   0  0  0  0  0  0  0  0  0  0  0  0
   -5.2660   -0.7227    2.1465 H   0  0  0  0  0  0  0  0  0  0  0  0
   -5.0771    1.0394    2.1516 H   0  0  0  0  0  0  0  0  0  0  0  0
   -2.8488   -0.1031    2.4139 H   0  0  0  0  0  0  0  0  0  0  0  0
   -0.7794   -0.3525    0.9883 H   0  0  0  0  0  0  0  0  0  0  0  0
   -1.3063   -0.2832   -2.0367 H   0  0  0  0  0  0  0  0  0  0  0  0
    0.6155   -1.7743   -2.2175 H   0  0  0  0  0  0  0  0  0  0  0  0
    0.4423   -2.1317   -0.4001 H   0  0  0  0  0  0  0  0  0  0  0  0
    2.9327    1.7200   -0.3279 H   0  0  0  0  0  0  0  0  0  0  0  0
    5.2359    1.8269    0.2033 H   0  0  0  0  0  0  0  0  0  0  0  0
    5.3805    0.0400   -0.2570 H   0  0  0  0  0  0  0  0  0  0  0  0
    4.8517    0.5882    1.4281 H   0  0  0  0  0  0  0  0  0  0  0  0
    0.5711    1.1635   -2.1635 H   0  0  0  0  0  0  0  0  0  0  0  0
    0.4032    1.4230   -0.3802 H   0  0  0  0  0  0  0  0  0  0  0  0
  1  2  1  0
  2  3  1  0
  3  4  2  0
  3  5  1  0
  5  6  1  0
  6  7  1  0
  7  8  1  0
  8  9  1  0
  9 10  2  0
  9 11  1  0
 11 12  1  0
  8 13  1  0
 13  6  1  0
  1 14  1  0
  1 15  1  0
  1 16  1  0
  2 17  1  0
  5 18  1  0
  6 19  1  0
  7 20  1  0
  7 21  1  0
 11 22  1  0
 12 23  1  0
 12 24  1  0
 12 25  1  0
 13 26  1  0
 13 27  1  0
M  END
$$$$

     RDKit          3D

 27 27  0  0  0  0  0  0  0  0999 V2000
    5.2391    0.4144   -0.2251 C   0  0  0  0  0  0  0  0  0  0  0  0
    3.8210    0.7052   -0.1373 N   0  0  0  0  0  0  0  0  0  0  0  0
    2.8053   -0.2661   -0.2680 C   0  0  0  0  0  0  0  0  0  0  0  0
    3.1509   -1.4583   -0.4733 O   0  0  0  0  0  0  0  0  0  0  0  0
    1.4255    0.0226   -0.1817 N   0  0  0  0  0  0  0  0  0  0  0  0
    0.4300   -1.0354   -0.3271 C   0  0  0  0  0  0  0  0  0  0  0  0
   -0.6406   -0.9682    0.7590 C   0  0  0  0  0  0  0  0  0  0  0  0
   -1.5855   -0.4191   -0.2094 N   0  0  0  0  0  0  0  0  0  0  0  0
   -2.8714    0.1777   -0.1618 C   0  0  0  0  0  0  0  0  0  0  0  0
   -3.4444    0.5597   -1.1925 O   0  0  0  0  0  0  0  0  0  0  0  0
   -3.5632    0.3634    1.0904 N   0  0  0  0  0  0  0  0  0  0  0  0
   -4.8724    0.9683    1.1630 C   0  0  0  0  0  0  0  0  0  0  0  0
   -0.6813   -0.7222   -1.2979 C   0  0  0  0  0  0  0  0  0  0  0  0
    5.7677    1.1344    0.4401 H   0  0  0  0  0  0  0  0  0  0  0  0
    5.6343    0.5647   -1.2603 H   0  0  0  0  0  0  0  0  0  0  0  0
    5.3978   -0.6461    0.0921 H   0  0  0  0  0  0  0  0  0  0  0  0
    3.5224    1.7042    0.0350 H   0  0  0  0  0  0  0  0  0  0  0  0
    1.1042    0.9974   -0.0127 H   0  0  0  0  0  0  0  0  0  0  0  0
    0.8584   -2.0273   -0.5020 H   0  0  0  0  0  0  0  0  0  0  0  0
   -0.4325   -0.1950    1.5345 H   0  0  0  0  0  0  0  0  0  0  0  0
   -0.8925   -1.9719    1.1348 H   0  0  0  0  0  0  0  0  0  0  0  0
   -3.0432    0.0270    1.9331 H   0  0  0  0  0  0  0  0  0  0  0  0
   -5.0569    1.5630    0.2400 H   0  0  0  0  0  0  0  0  0  0  0  0
   -5.6918    0.2392    1.2591 H   0  0  0  0  0  0  0  0  0  0  0  0
   -4.8477    1.7023    1.9965 H   0  0  0  0  0  0  0  0  0  0  0  0
   -1.0597   -1.5986   -1.8677 H   0  0  0  0  0  0  0  0  0  0  0  0
   -0.4733    0.1646   -1.9354 H   0  0  0  0  0  0  0  0  0  0  0  0
  1  2  1  0
  2  3  1  0
  3  4  2  0
  3  5  1  0
  5  6  1  0
  6  7  1  0
  7  8  1  0
  8  9  1  0
  9 10  2  0
  9 11  1  0
 11 12  1  0
  8 13  1  0
 13  6  1  0
  1 14  1  0
  1 15  1  0
  1 16  1  0
  2 17  1  0
  5 18  1  0
  6 19  1  0
  7 20  1  0
  7 21  1  0
 11 22  1  0
 12 23  1  0
 12 24  1  0
 12 25  1  0
 13 26  1  0
 13 27  1  0
M  END
$$$$

     RDKit          3D

 27 27  0  0  0  0  0  0  0  0999 V2000
   -5.3162    0.0791    1.0209 C   0  0  0  0  0  0  0  0  0  0  0  0
   -4.1999   -0.1002    0.1118 N   0  0  0  0  0  0  0  0  0  0  0  0
   -2.8590   -0.0068    0.5704 C   0  0  0  0  0  0  0  0  0  0  0  0
   -2.6379    0.2361    1.7880 O   0  0  0  0  0  0  0  0  0  0  0  0
   -1.7352   -0.1720   -0.2678 N   0  0  0  0  0  0  0  0  0  0  0  0
   -0.3949   -0.0776    0.1951 C   0  0  0  0  0  0  0  0  0  0  0  0
    0.5922    0.6954   -0.5805 C   0  0  0  0  0  0  0  0  0  0  0  0
    1.5640   -0.3863   -0.3531 N   0  0  0  0  0  0  0  0  0  0  0  0
    2.9511   -0.5488   -0.2786 C   0  0  0  0  0  0  0  0  0  0  0  0
    3.4399   -1.6890   -0.0563 O   0  0  0  0  0  0  0  0  0  0  0  0
    3.8842    0.5187   -0.4418 N   0  0  0  0  0  0  0  0  0  0  0  0
    5.2932    0.2756   -0.3520 C   0  0  0  0  0  0  0  0  0  0  0  0
    0.4308   -1.2719   -0.2296 C   0  0  0  0  0  0  0  0  0  0  0  0
   -5.5954    1.1521    1.1212 H   0  0  0  0  0  0  0  0  0  0  0  0
   -6.2010   -0.4461    0.6058 H   0  0  0  0  0  0  0  0  0  0  0  0
   -5.1196   -0.3958    2.0093 H   0  0  0  0  0  0  0  0  0  0  0  0
   -4.3953   -0.2989   -0.8849 H   0  0  0  0  0  0  0  0  0  0  0  0
   -1.8856   -0.3741   -1.2813 H   0  0  0  0  0  0  0  0  0  0  0  0
   -0.3644    0.1385    1.2791 H   0  0  0  0  0  0  0  0  0  0  0  0
    0.9654    1.5858   -0.0022 H   0  0  0  0  0  0  0  0  0  0  0  0
    0.4092    0.8752   -1.6409 H   0  0  0  0  0  0  0  0  0  0  0  0
    3.5202    1.4717   -0.6262 H   0  0  0  0  0  0  0  0  0  0  0  0
    5.5456   -0.4070    0.4596 H   0  0  0  0  0  0  0  0  0  0  0  0
    5.8444    1.2271   -0.1730 H   0  0  0  0  0  0  0  0  0  0  0  0
    5.6316   -0.0932   -1.3450 H   0  0  0  0  0  0  0  0  0  0  0  0
    0.1300   -1.6443   -1.2244 H   0  0  0  0  0  0  0  0  0  0  0  0
    0.5025   -2.0254    0.5763 H   0  0  0  0  0  0  0  0  0  0  0  0
  1  2  1  0
  2  3  1  0
  3  4  2  0
  3  5  1  0
  5  6  1  0
  6  7  1  0
  7  8  1  0
  8  9  1  0
  9 10  2  0
  9 11  1  0
 11 12  1  0
  8 13  1  0
 13  6  1  0
  1 14  1  0
  1 15  1  0
  1 16  1  0
  2 17  1  0
  5 18  1  0
  6 19  1  0
  7 20  1  0
  7 21  1  0
 11 22  1  0
 12 23  1  0
 12 24  1  0
 12 25  1  0
 13 26  1  0
 13 27  1  0
M  END
$$$$

     RDKit          3D

 27 27  0  0  0  0  0  0  0  0999 V2000
   -5.2340   -1.1037    0.6504 C   0  0  0  0  0  0  0  0  0  0  0  0
   -4.1137   -0.1895    0.6823 N   0  0  0  0  0  0  0  0  0  0  0  0
   -2.8173   -0.6843    0.4575 C   0  0  0  0  0  0  0  0  0  0  0  0
   -2.6593   -1.9142    0.2330 O   0  0  0  0  0  0  0  0  0  0  0  0
   -1.6514    0.1352    0.4686 N   0  0  0  0  0  0  0  0  0  0  0  0
   -0.3438   -0.3651    0.2417 C   0  0  0  0  0  0  0  0  0  0  0  0
    0.5029    0.3283   -0.7806 C   0  0  0  0  0  0  0  0  0  0  0  0
    1.6174    0.2373    0.1412 N   0  0  0  0  0  0  0  0  0  0  0  0
    3.0239    0.3381    0.0219 C   0  0  0  0  0  0  0  0  0  0  0  0
    3.7657    0.2098    1.0390 O   0  0  0  0  0  0  0  0  0  0  0  0
    3.6028    0.5856   -1.2544 N   0  0  0  0  0  0  0  0  0  0  0  0
    5.0380    0.6940   -1.4092 C   0  0  0  0  0  0  0  0  0  0  0  0
    0.7160   -0.0011    1.2516 C   0  0  0  0  0  0  0  0  0  0  0  0
   -6.2030   -0.5946    0.7774 H   0  0  0  0  0  0  0  0  0  0  0  0
   -5.1244   -1.7722    1.5468 H   0  0  0  0  0  0  0  0  0  0  0  0
   -5.2298   -1.7699   -0.2297 H   0  0  0  0  0  0  0  0  0  0  0  0
   -4.2215    0.8416    0.8678 H   0  0  0  0  0  0  0  0  0  0  0  0
   -1.8241    1.1604    0.6602 H   0  0  0  0  0  0  0  0  0  0  0  0
   -0.3484   -1.4618    0.0573 H   0  0  0  0  0  0  0  0  0  0  0  0
    0.2674    1.3893   -0.9752 H   0  0  0  0  0  0  0  0  0  0  0  0
    0.6404   -0.1960   -1.7483 H   0  0  0  0  0  0  0  0  0  0  0  0
    3.0081    0.6938   -2.1022 H   0  0  0  0  0  0  0  0  0  0  0  0
    5.4190    1.7122   -1.3110 H   0  0  0  0  0  0  0  0  0  0  0  0
    5.4830    0.0255   -0.6212 H   0  0  0  0  0  0  0  0  0  0  0  0
    5.2963    0.2144   -2.3859 H   0  0  0  0  0  0  0  0  0  0  0  0
    0.4016    0.9303    1.7826 H   0  0  0  0  0  0  0  0  0  0  0  0
    0.9881   -0.8039    1.9383 H   0  0  0  0  0  0  0  0  0  0  0  0
  1  2  1  0
  2  3  1  0
  3  4  2  0
  3  5  1  0
  5  6  1  0
  6  7  1  0
  7  8  1  0
  8  9  1  0
  9 10  2  0
  9 11  1  0
 11 12  1  0
  8 13  1  0
 13  6  1  0
  1 14  1  0
  1 15  1  0
  1 16  1  0
  2 17  1  0
  5 18  1  0
  6 19  1  0
  7 20  1  0
  7 21  1  0
 11 22  1  0
 12 23  1  0
 12 24  1  0
 12 25  1  0
 13 26  1  0
 13 27  1  0
M  END
$$$$

     RDKit          3D

 27 27  0  0  0  0  0  0  0  0999 V2000
    5.2388   -0.5545    1.1879 C   0  0  0  0  0  0  0  0  0  0  0  0
    3.8311   -0.9792    1.1974 N   0  0  0  0  0  0  0  0  0  0  0  0
    2.8794   -0.2958    0.3947 C   0  0  0  0  0  0  0  0  0  0  0  0
    3.2638    0.6670   -0.3139 O   0  0  0  0  0  0  0  0  0  0  0  0
    1.5081   -0.6514    0.3555 N   0  0  0  0  0  0  0  0  0  0  0  0
    0.5891    0.0723   -0.4728 C   0  0  0  0  0  0  0  0  0  0  0  0
   -0.3115   -0.8079   -1.3122 C   0  0  0  0  0  0  0  0  0  0  0  0
   -1.4709   -0.2007   -0.7155 N   0  0  0  0  0  0  0  0  0  0  0  0
   -2.8879   -0.1789   -0.9333 C   0  0  0  0  0  0  0  0  0  0  0  0
   -3.4126   -0.8278   -1.8778 O   0  0  0  0  0  0  0  0  0  0  0  0
   -3.7684    0.5665   -0.1064 N   0  0  0  0  0  0  0  0  0  0  0  0
   -5.1952    0.5630   -0.3593 C   0  0  0  0  0  0  0  0  0  0  0  0
   -0.6434    0.4489    0.2827 C   0  0  0  0  0  0  0  0  0  0  0  0
    5.8059   -1.0997    1.9414 H   0  0  0  0  0  0  0  0  0  0  0  0
    5.2243    0.5393    1.3710 H   0  0  0  0  0  0  0  0  0  0  0  0
    5.6186   -0.7411    0.1522 H   0  0  0  0  0  0  0  0  0  0  0  0
    3.4995   -1.7791    1.7831 H   0  0  0  0  0  0  0  0  0  0  0  0
    1.1923   -1.4448    0.9396 H   0  0  0  0  0  0  0  0  0  0  0  0
    1.0848    0.8952   -1.0375 H   0  0  0  0  0  0  0  0  0  0  0  0
   -0.1457   -1.8664   -1.0627 H   0  0  0  0  0  0  0  0  0  0  0  0
   -0.2568   -0.5816   -2.4130 H   0  0  0  0  0  0  0  0  0  0  0  0
   -3.3914    1.1140    0.6790 H   0  0  0  0  0  0  0  0  0  0  0  0
   -5.5963    1.5355   -0.0081 H   0  0  0  0  0  0  0  0  0  0  0  0
   -5.3468    0.4921   -1.4551 H   0  0  0  0  0  0  0  0  0  0  0  0
   -5.6995   -0.2563    0.2007 H   0  0  0  0  0  0  0  0  0  0  0  0
   -0.7307    0.0365    1.3110 H   0  0  0  0  0  0  0  0  0  0  0  0
   -0.8785    1.5512    0.2713 H   0  0  0  0  0  0  0  0  0  0  0  0
  1  2  1  0
  2  3  1  0
  3  4  2  0
  3  5  1  0
  5  6  1  0
  6  7  1  0
  7  8  1  0
  8  9  1  0
  9 10  2  0
  9 11  1  0
 11 12  1  0
  8 13  1  0
 13  6  1  0
  1 14  1  0
  1 15  1  0
  1 16  1  0
  2 17  1  0
  5 18  1  0
  6 19  1  0
  7 20  1  0
  7 21  1  0
 11 22  1  0
 12 23  1  0
 12 24  1  0
 12 25  1  0
 13 26  1  0
 13 27  1  0
M  END
$$$$
