
     RDKit          3D

 24 24  0  0  0  0  0  0  0  0999 V2000
   -2.7128    0.8410    0.1257 N   0  0  0  0  0  0  0  0  0  0  0  0
   -1.3480    0.4173    0.4574 C   0  0  1  0  0  0  0  0  0  0  0  0
   -1.1447   -0.9182   -0.2195 C   0  0  2  0  0  0  0  0  0  0  0  0
   -1.9036   -1.8607    0.4802 O   0  0  0  0  0  0  0  0  0  0  0  0
    0.2868   -1.3520   -0.1514 C   0  0  1  0  0  0  0  0  0  0  0  0
    0.6347   -2.0399   -1.3020 F   0  0  0  0  0  0  0  0  0  0  0  0
    1.2147   -0.1539   -0.0174 C   0  0  1  0  0  0  0  0  0  0  0  0
    2.5777   -0.5968   -0.4664 C   0  0  0  0  0  0  0  0  0  0  0  0
    3.5411    0.3770   -0.3933 O   0  0  0  0  0  0  0  0  0  0  0  0
    0.6948    0.8915   -0.7416 O   0  0  0  0  0  0  0  0  0  0  0  0
   -0.3464    1.4469    0.0330 C   0  0  1  0  0  0  0  0  0  0  0  0
   -0.9823    2.4852   -0.6216 O   0  0  0  0  0  0  0  0  0  0  0  0
   -3.0839    0.3490   -0.7072 H   0  0  0  0  0  0  0  0  0  0  0  0
   -2.8072    1.8715    0.0997 H   0  0  0  0  0  0  0  0  0  0  0  0
   -1.3293    0.2150    1.5586 H   0  0  0  0  0  0  0  0  0  0  0  0
   -1.4823   -0.8743   -1.2794 H   0  0  0  0  0  0  0  0  0  0  0  0
   -1.4440   -2.7334    0.4791 H   0  0  0  0  0  0  0  0  0  0  0  0
    0.4770   -1.9805    0.7528 H   0  0  0  0  0  0  0  0  0  0  0  0
    1.3108    0.1833    1.0370 H   0  0  0  0  0  0  0  0  0  0  0  0
    2.5518   -0.9955   -1.4989 H   0  0  0  0  0  0  0  0  0  0  0  0
    2.8767   -1.4455    0.1895 H   0  0  0  0  0  0  0  0  0  0  0  0
    3.5191    0.7940    0.5138 H   0  0  0  0  0  0  0  0  0  0  0  0
    0.1196    1.8782    0.9475 H   0  0  0  0  0  0  0  0  0  0  0  0
   -1.2203    3.2008    0.0091 H   0  0  0  0  0  0  0  0  0  0  0  0
  1  2  1  0
  2  3  1  0
  3  4  1  0
  3  5  1  0
  5  6  1  0
  5  7  1  0
  7  8  1  0
  8  9  1  0
  7 10  1  0
 10 11  1  0
 11 12  1  0
 11  2  1  0
  1 13  1  0
  1 14  1  0
  2 15  1  1
  3 16  1  6
  4 17  1  0
  5 18  1  1
  7 19  1  1
  8 20  1  0
  8 21  1  0
  9 22  1  0
 11 23  1  1
 12 24  1  0
M  END
$$$$

     RDKit          3D

 24 24  0  0  0  0  0  0  0  0999 V2000
   -2.5542    0.5523   -0.9153 N   0  0  0  0  0  0  0  0  0  0  0  0
   -1.5695    0.0263   -0.0085 C   0  0  1  0  0  0  0  0  0  0  0  0
   -0.4987   -0.7726   -0.7318 C   0  0  2  0  0  0  0  0  0  0  0  0
   -1.0020   -1.7310   -1.5656 O   0  0  0  0  0  0  0  0  0  0  0  0
    0.3462   -1.3662    0.4005 C   0  0  1  0  0  0  0  0  0  0  0  0
    1.1994   -2.2903   -0.1207 F   0  0  0  0  0  0  0  0  0  0  0  0
    1.0686   -0.1792    1.0257 C   0  0  1  0  0  0  0  0  0  0  0  0
    2.4550   -0.1820    0.3617 C   0  0  0  0  0  0  0  0  0  0  0  0
    3.2010    0.8793    0.8639 O   0  0  0  0  0  0  0  0  0  0  0  0
    0.5108    1.0256    0.7017 O   0  0  0  0  0  0  0  0  0  0  0  0
   -0.8579    1.1001    0.7721 C   0  0  1  0  0  0  0  0  0  0  0  0
   -1.2191    2.3210    0.1619 O   0  0  0  0  0  0  0  0  0  0  0  0
   -3.3075    0.9838   -0.3354 H   0  0  0  0  0  0  0  0  0  0  0  0
   -2.9966   -0.2625   -1.3959 H   0  0  0  0  0  0  0  0  0  0  0  0
   -2.0533   -0.6632    0.7253 H   0  0  0  0  0  0  0  0  0  0  0  0
    0.1549   -0.0196   -1.2467 H   0  0  0  0  0  0  0  0  0  0  0  0
   -1.1221   -1.4066   -2.4900 H   0  0  0  0  0  0  0  0  0  0  0  0
   -0.3422   -1.8106    1.1555 H   0  0  0  0  0  0  0  0  0  0  0  0
    1.2440   -0.3309    2.1109 H   0  0  0  0  0  0  0  0  0  0  0  0
    2.9456   -1.1594    0.4772 H   0  0  0  0  0  0  0  0  0  0  0  0
    2.2962    0.0218   -0.7179 H   0  0  0  0  0  0  0  0  0  0  0  0
    3.8432    1.1387    0.1554 H   0  0  0  0  0  0  0  0  0  0  0  0
   -1.2591    1.1527    1.8044 H   0  0  0  0  0  0  0  0  0  0  0  0
   -0.4828    2.9725    0.1875 H   0  0  0  0  0  0  0  0  0  0  0  0
  1  2  1  0
  2  3  1  0
  3  4  1  0
  3  5  1  0
  5  6  1  0
  5  7  1  0
  7  8  1  0
  8  9  1  0
  7 10  1  0
 10 11  1  0
 11 12  1  0
 11  2  1  0
  1 13  1  0
  1 14  1  0
  2 15  1  1
  3 16  1  6
  4 17  1  0
  5 18  1  1
  7 19  1  1
  8 20  1  0
  8 21  1  0
  9 22  1  0
 11 23  1  1
 12 24  1  0
M  END
$$$$

     RDKit          3D

 24 24  0  0  0  0  0  0  0  0999 V2000
   -2.8705    0.4905    0.3077 N   0  0  0  0  0  0  0  0  0  0  0  0
   -1.5150    0.1113    0.5583 C   0  0  1  0  0  0  0  0  0  0  0  0
   -0.9446   -0.7142   -0.5784 C   0  0  2  0  0  0  0  0  0  0  0  0
   -1.5410   -1.9665   -0.5227 O   0  0  0  0  0  0  0  0  0  0  0  0
    0.5426   -0.7448   -0.5337 C   0  0  1  0  0  0  0  0  0  0  0  0
    1.0432   -0.1558   -1.6998 F   0  0  0  0  0  0  0  0  0  0  0  0
    1.1619   -0.1969    0.6909 C   0  0  1  0  0  0  0  0  0  0  0  0
    2.6145    0.1789    0.3695 C   0  0  0  0  0  0  0  0  0  0  0  0
    3.2711   -0.8835   -0.2022 O   0  0  0  0  0  0  0  0  0  0  0  0
    0.5752    0.8911    1.2497 O   0  0  0  0  0  0  0  0  0  0  0  0
   -0.5843    1.3256    0.6756 C   0  0  1  0  0  0  0  0  0  0  0  0
   -0.2739    1.7955   -0.6114 O   0  0  0  0  0  0  0  0  0  0  0  0
   -3.4945    0.2172    1.0997 H   0  0  0  0  0  0  0  0  0  0  0  0
   -3.2319    0.0659   -0.5792 H   0  0  0  0  0  0  0  0  0  0  0  0
   -1.3939   -0.4615    1.5142 H   0  0  0  0  0  0  0  0  0  0  0  0
   -1.3090   -0.2170   -1.5232 H   0  0  0  0  0  0  0  0  0  0  0  0
   -1.5047   -2.3899   -1.3971 H   0  0  0  0  0  0  0  0  0  0  0  0
    0.8528   -1.8280   -0.6192 H   0  0  0  0  0  0  0  0  0  0  0  0
    1.2495   -1.0192    1.4555 H   0  0  0  0  0  0  0  0  0  0  0  0
    2.6339    1.0630   -0.2849 H   0  0  0  0  0  0  0  0  0  0  0  0
    3.0761    0.4596    1.3414 H   0  0  0  0  0  0  0  0  0  0  0  0
    3.4535   -0.7245   -1.1611 H   0  0  0  0  0  0  0  0  0  0  0  0
   -1.0292    2.1134    1.2999 H   0  0  0  0  0  0  0  0  0  0  0  0
   -0.7819    2.5900   -0.8494 H   0  0  0  0  0  0  0  0  0  0  0  0
  1  2  1  0
  2  3  1  0
  3  4  1  0
  3  5  1  0
  5  6  1  0
  5  7  1  0
  7  8  1  0
  8  9  1  0
  7 10  1  0
 10 11  1  0
 11 12  1  0
 11  2  1  0
  1 13  1  0
  1 14  1  0
  2 15  1  1
  3 16  1  6
  4 17  1  0
  5 18  1  6
  7 19  1  1
  8 20  1  0
  8 21  1  0
  9 22  1  0
 11 23  1  1
 12 24  1  0
M  END
$$$$

     RDKit          3D

 24 24  0  0  0  0  0  0  0  0999 V2000
    2.7002    0.9705    0.0421 N   0  0  0  0  0  0  0  0  0  0  0  0
    1.3707    0.6336   -0.3875 C   0  0  1  0  0  0  0  0  0  0  0  0
    1.1077   -0.8577   -0.2167 C   0  0  2  0  0  0  0  0  0  0  0  0
    1.9625   -1.5590   -1.0535 O   0  0  0  0  0  0  0  0  0  0  0  0
   -0.3306   -1.1152   -0.6125 C   0  0  1  0  0  0  0  0  0  0  0  0
   -0.6632   -2.4144   -0.2303 F   0  0  0  0  0  0  0  0  0  0  0  0
   -1.2289   -0.1013    0.0364 C   0  0  1  0  0  0  0  0  0  0  0  0
   -2.5045   -0.7173    0.5691 C   0  0  0  0  0  0  0  0  0  0  0  0
   -3.1469   -1.3480   -0.5008 O   0  0  0  0  0  0  0  0  0  0  0  0
   -0.5157    0.5545    1.0393 O   0  0  0  0  0  0  0  0  0  0  0  0
    0.3499    1.4502    0.3719 C   0  0  1  0  0  0  0  0  0  0  0  0
    0.9357    2.3388    1.2423 O   0  0  0  0  0  0  0  0  0  0  0  0
    3.1237    0.2587    0.6856 H   0  0  0  0  0  0  0  0  0  0  0  0
    2.7536    1.8981    0.5382 H   0  0  0  0  0  0  0  0  0  0  0  0
    1.2974    0.8504   -1.4761 H   0  0  0  0  0  0  0  0  0  0  0  0
    1.2923   -1.1190    0.8489 H   0  0  0  0  0  0  0  0  0  0  0  0
    2.1994   -2.4050   -0.5709 H   0  0  0  0  0  0  0  0  0  0  0  0
   -0.4249   -1.0751   -1.6994 H   0  0  0  0  0  0  0  0  0  0  0  0
   -1.5166    0.6595   -0.7017 H   0  0  0  0  0  0  0  0  0  0  0  0
   -3.1656    0.1130    0.8906 H   0  0  0  0  0  0  0  0  0  0  0  0
   -2.3351   -1.4269    1.3787 H   0  0  0  0  0  0  0  0  0  0  0  0
   -3.3498   -0.7151   -1.2257 H   0  0  0  0  0  0  0  0  0  0  0  0
   -0.3117    1.9900   -0.3669 H   0  0  0  0  0  0  0  0  0  0  0  0
    0.4003    3.1366    1.3991 H   0  0  0  0  0  0  0  0  0  0  0  0
  1  2  1  0
  2  3  1  0
  3  4  1  0
  3  5  1  0
  5  6  1  0
  5  7  1  0
  7  8  1  0
  8  9  1  0
  7 10  1  0
 10 11  1  0
 11 12  1  0
 11  2  1  0
  1 13  1  0
  1 14  1  0
  2 15  1  6
  3 16  1  1
  4 17  1  0
  5 18  1  6
  7 19  1  6
  8 20  1  0
  8 21  1  0
  9 22  1  0
 11 23  1  6
 12 24  1  0
M  END
$$$$

     RDKit          3D

 24 24  0  0  0  0  0  0  0  0999 V2000
   -2.7894    0.1177   -0.1452 N   0  0  0  0  0  0  0  0  0  0  0  0
   -1.4653    0.2430    0.3725 C   0  0  1  0  0  0  0  0  0  0  0  0
   -0.6392   -1.0151    0.0645 C   0  0  2  0  0  0  0  0  0  0  0  0
   -1.2907   -2.1543    0.4601 O   0  0  0  0  0  0  0  0  0  0  0  0
    0.6469   -0.7830    0.8492 C   0  0  1  0  0  0  0  0  0  0  0  0
    1.4436   -1.8865    0.7735 F   0  0  0  0  0  0  0  0  0  0  0  0
    1.3139    0.4749    0.4592 C   0  0  1  0  0  0  0  0  0  0  0  0
    2.3352    0.1566   -0.6419 C   0  0  0  0  0  0  0  0  0  0  0  0
    3.1026   -0.9404   -0.1911 O   0  0  0  0  0  0  0  0  0  0  0  0
    0.5689    1.5102    0.0657 O   0  0  0  0  0  0  0  0  0  0  0  0
   -0.7199    1.3703   -0.2548 C   0  0  1  0  0  0  0  0  0  0  0  0
   -0.8987    1.2584   -1.6530 O   0  0  0  0  0  0  0  0  0  0  0  0
   -3.3826    0.8576    0.3123 H   0  0  0  0  0  0  0  0  0  0  0  0
   -3.1951   -0.8026    0.0983 H   0  0  0  0  0  0  0  0  0  0  0  0
   -1.4366    0.3941    1.4791 H   0  0  0  0  0  0  0  0  0  0  0  0
   -0.3984   -0.9847   -1.0043 H   0  0  0  0  0  0  0  0  0  0  0  0
   -1.6813   -2.6055   -0.3469 H   0  0  0  0  0  0  0  0  0  0  0  0
    0.3127   -0.6795    1.9230 H   0  0  0  0  0  0  0  0  0  0  0  0
    1.9508    0.8090    1.3323 H   0  0  0  0  0  0  0  0  0  0  0  0
    2.9944    1.0301   -0.8227 H   0  0  0  0  0  0  0  0  0  0  0  0
    1.8253   -0.1757   -1.5723 H   0  0  0  0  0  0  0  0  0  0  0  0
    3.7636   -0.6503    0.4931 H   0  0  0  0  0  0  0  0  0  0  0  0
   -1.2714    2.3187    0.0156 H   0  0  0  0  0  0  0  0  0  0  0  0
   -1.0893    2.1369   -2.0662 H   0  0  0  0  0  0  0  0  0  0  0  0
  1  2  1  0
  2  3  1  0
  3  4  1  0
  3  5  1  0
  5  6  1  0
  5  7  1  0
  7  8  1  0
  8  9  1  0
  7 10  1  0
 10 11  1  0
 11 12  1  0
 11  2  1  0
  1 13  1  0
  1 14  1  0
  2 15  1  1
  3 16  1  6
  4 17  1  0
  5 18  1  1
  7 19  1  1
  8 20  1  0
  8 21  1  0
  9 22  1  0
 11 23  1  1
 12 24  1  0
M  END
$$$$

     RDKit          3D

 24 24  0  0  0  0  0  0  0  0999 V2000
   -2.6529    0.1610   -0.8063 N   0  0  0  0  0  0  0  0  0  0  0  0
   -1.6095    0.3134    0.2227 C   0  0  1  0  0  0  0  0  0  0  0  0
   -0.9368   -0.9719    0.5241 C   0  0  2  0  0  0  0  0  0  0  0  0
   -1.2995   -1.3773    1.8314 O   0  0  0  0  0  0  0  0  0  0  0  0
    0.5420   -0.9756    0.4556 C   0  0  1  0  0  0  0  0  0  0  0  0
    0.9304   -2.1122   -0.2684 F   0  0  0  0  0  0  0  0  0  0  0  0
    1.1754    0.1983   -0.1847 C   0  0  1  0  0  0  0  0  0  0  0  0
    2.4823   -0.1242   -0.8775 C   0  0  0  0  0  0  0  0  0  0  0  0
    3.2635   -0.8270    0.0688 O   0  0  0  0  0  0  0  0  0  0  0  0
    0.3079    0.8977   -1.0215 O   0  0  0  0  0  0  0  0  0  0  0  0
   -0.6745    1.4266   -0.1798 C   0  0  1  0  0  0  0  0  0  0  0  0
   -1.3590    2.4726   -0.7646 O   0  0  0  0  0  0  0  0  0  0  0  0
   -2.4076   -0.6632   -1.4286 H   0  0  0  0  0  0  0  0  0  0  0  0
   -3.5762   -0.0901   -0.3414 H   0  0  0  0  0  0  0  0  0  0  0  0
   -2.1738    0.7020    1.1224 H   0  0  0  0  0  0  0  0  0  0  0  0
   -1.3987   -1.7611   -0.1394 H   0  0  0  0  0  0  0  0  0  0  0  0
   -0.7417   -0.7931    2.4282 H   0  0  0  0  0  0  0  0  0  0  0  0
    1.0228   -1.1239    1.4671 H   0  0  0  0  0  0  0  0  0  0  0  0
    1.4454    0.9280    0.6351 H   0  0  0  0  0  0  0  0  0  0  0  0
    2.3653   -0.6915   -1.8006 H   0  0  0  0  0  0  0  0  0  0  0  0
    3.0641    0.7933   -1.1017 H   0  0  0  0  0  0  0  0  0  0  0  0
    3.8632   -1.4608   -0.3884 H   0  0  0  0  0  0  0  0  0  0  0  0
   -0.1952    1.8044    0.7533 H   0  0  0  0  0  0  0  0  0  0  0  0
   -1.4368    3.2747   -0.2059 H   0  0  0  0  0  0  0  0  0  0  0  0
  1  2  1  0
  2  3  1  0
  3  4  1  0
  3  5  1  0
  5  6  1  0
  5  7  1  0
  7  8  1  0
  8  9  1  0
  7 10  1  0
 10 11  1  0
 11 12  1  0
 11  2  1  0
  1 13  1  0
  1 14  1  0
  2 15  1  1
  3 16  1  6
  4 17  1  0
  5 18  1  1
  7 19  1  1
  8 20  1  0
  8 21  1  0
  9 22  1  0
 11 23  1  1
 12 24  1  0
M  END
$$$$

     RDKit          3D

 24 24  0  0  0  0  0  0  0  0999 V2000
   -2.7425    0.5983   -0.4002 N   0  0  0  0  0  0  0  0  0  0  0  0
   -1.4647    0.2904    0.2129 C   0  0  1  0  0  0  0  0  0  0  0  0
   -0.9206   -1.0191   -0.3217 C   0  0  2  0  0  0  0  0  0  0  0  0
   -1.7799   -2.0689    0.0134 O   0  0  0  0  0  0  0  0  0  0  0  0
    0.4014   -1.2602    0.4013 C   0  0  1  0  0  0  0  0  0  0  0  0
    1.0388   -2.3836   -0.0989 F   0  0  0  0  0  0  0  0  0  0  0  0
    1.2905   -0.0441    0.3049 C   0  0  1  0  0  0  0  0  0  0  0  0
    2.6830   -0.4554   -0.1191 C   0  0  0  0  0  0  0  0  0  0  0  0
    3.4788    0.6980   -0.1344 O   0  0  0  0  0  0  0  0  0  0  0  0
    0.7420    0.8827   -0.5714 O   0  0  0  0  0  0  0  0  0  0  0  0
   -0.4405    1.3563   -0.0064 C   0  0  1  0  0  0  0  0  0  0  0  0
   -0.9304    2.3854   -0.8125 O   0  0  0  0  0  0  0  0  0  0  0  0
   -3.5549    0.3397    0.1836 H   0  0  0  0  0  0  0  0  0  0  0  0
   -2.7798    1.5435   -0.7972 H   0  0  0  0  0  0  0  0  0  0  0  0
   -1.5977    0.1256    1.3225 H   0  0  0  0  0  0  0  0  0  0  0  0
   -0.7746   -0.9960   -1.4204 H   0  0  0  0  0  0  0  0  0  0  0  0
   -1.9513   -2.6467   -0.7861 H   0  0  0  0  0  0  0  0  0  0  0  0
    0.1230   -1.4721    1.4681 H   0  0  0  0  0  0  0  0  0  0  0  0
    1.3251    0.4391    1.3096 H   0  0  0  0  0  0  0  0  0  0  0  0
    2.6208   -0.9047   -1.1305 H   0  0  0  0  0  0  0  0  0  0  0  0
    3.0848   -1.1284    0.6480 H   0  0  0  0  0  0  0  0  0  0  0  0
    3.7394    0.8576    0.8220 H   0  0  0  0  0  0  0  0  0  0  0  0
   -0.1613    1.8379    0.9632 H   0  0  0  0  0  0  0  0  0  0  0  0
   -1.4295    3.0246   -0.2659 H   0  0  0  0  0  0  0  0  0  0  0  0
  1  2  1  0
  2  3  1  0
  3  4  1  0
  3  5  1  0
  5  6  1  0
  5  7  1  0
  7  8  1  0
  8  9  1  0
  7 10  1  0
 10 11  1  0
 11 12  1  0
 11  2  1  0
  1 13  1  0
  1 14  1  0
  2 15  1  1
  3 16  1  6
  4 17  1  0
  5 18  1  1
  7 19  1  1
  8 20  1  0
  8 21  1  0
  9 22  1  0
 11 23  1  1
 12 24  1  0
M  END
$$$$

     RDKit          3D

 24 24  0  0  0  0  0  0  0  0999 V2000
    2.8231    0.1879   -0.0479 N   0  0  0  0  0  0  0  0  0  0  0  0
    1.4573    0.0788   -0.4995 C   0  0  1  0  0  0  0  0  0  0  0  0
    0.7752   -1.0277    0.3017 C   0  0  2  0  0  0  0  0  0  0  0  0
    1.5038   -2.1974    0.2705 O   0  0  0  0  0  0  0  0  0  0  0  0
   -0.6083   -1.1942   -0.3160 C   0  0  1  0  0  0  0  0  0  0  0  0
   -1.3360   -2.1386    0.3973 F   0  0  0  0  0  0  0  0  0  0  0  0
   -1.2672    0.1572   -0.3171 C   0  0  1  0  0  0  0  0  0  0  0  0
   -2.6465   -0.0022    0.2816 C   0  0  0  0  0  0  0  0  0  0  0  0
   -3.3724    1.1899    0.2467 O   0  0  0  0  0  0  0  0  0  0  0  0
   -0.5373    1.1162    0.3835 O   0  0  0  0  0  0  0  0  0  0  0  0
    0.6723    1.3446   -0.2458 C   0  0  1  0  0  0  0  0  0  0  0  0
    1.4298    2.2403    0.5153 O   0  0  0  0  0  0  0  0  0  0  0  0
    3.3703   -0.6037   -0.4029 H   0  0  0  0  0  0  0  0  0  0  0  0
    2.8599    0.1495    0.9927 H   0  0  0  0  0  0  0  0  0  0  0  0
    1.4635   -0.1901   -1.5723 H   0  0  0  0  0  0  0  0  0  0  0  0
    0.6115   -0.6244    1.3155 H   0  0  0  0  0  0  0  0  0  0  0  0
    1.1145   -2.8246    0.9083 H   0  0  0  0  0  0  0  0  0  0  0  0
   -0.4548   -1.4957   -1.3741 H   0  0  0  0  0  0  0  0  0  0  0  0
   -1.4236    0.5408   -1.3589 H   0  0  0  0  0  0  0  0  0  0  0  0
   -3.1633   -0.8289   -0.2486 H   0  0  0  0  0  0  0  0  0  0  0  0
   -2.5365   -0.2670    1.3559 H   0  0  0  0  0  0  0  0  0  0  0  0
   -3.1131    1.6489   -0.6036 H   0  0  0  0  0  0  0  0  0  0  0  0
    0.4485    1.8825   -1.2030 H   0  0  0  0  0  0  0  0  0  0  0  0
    1.9293    2.8580   -0.0736 H   0  0  0  0  0  0  0  0  0  0  0  0
  1  2  1  0
  2  3  1  0
  3  4  1  0
  3  5  1  0
  5  6  1  0
  5  7  1  0
  7  8  1  0
  8  9  1  0
  7 10  1  0
 10 11  1  0
 11 12  1  0
 11  2  1  0
  1 13  1  0
  1 14  1  0
  2 15  1  6
  3 16  1  1
  4 17  1  0
  5 18  1  6
  7 19  1  6
  8 20  1  0
  8 21  1  0
  9 22  1  0
 11 23  1  6
 12 24  1  0
M  END
$$$$
