
     RDKit          3D

 20 21  0  0  0  0  0  0  0  0999 V2000
    1.0939   -2.5681   -1.2123 O   0  0  0  0  0  0  0  0  0  0  0  0
    1.0369   -1.4146   -0.8525 C   0  0  0  0  0  0  0  0  0  0  0  0
   -0.1043   -0.5298   -0.8629 C   0  0  1  0  0  0  0  0  0  0  0  0
   -1.3045   -0.9332   -0.4022 O   0  0  0  0  0  0  0  0  0  0  0  0
   -1.9280    0.2057    0.1690 C   0  0  1  0  0  0  0  0  0  0  0  0
   -2.2284   -0.1487    1.4846 O   0  0  0  0  0  0  0  0  0  0  0  0
   -0.8173    1.2707    0.2647 C   0  0  2  0  0  0  0  0  0  0  0  0
   -0.7855    1.9336   -0.9425 O   0  0  0  0  0  0  0  0  0  0  0  0
    0.3251    0.3493    0.3467 C   0  0  2  0  0  0  0  0  0  0  0  0
    1.5486    0.6922   -0.0560 O   0  0  0  0  0  0  0  0  0  0  0  0
    2.1463   -0.5754   -0.2903 C   0  0  1  0  0  0  0  0  0  0  0  0
    2.4735   -1.0935    0.9442 O   0  0  0  0  0  0  0  0  0  0  0  0
   -0.1401    0.1845   -1.7134 H   0  0  0  0  0  0  0  0  0  0  0  0
   -2.7782    0.5494   -0.4079 H   0  0  0  0  0  0  0  0  0  0  0  0
   -1.9375   -1.0522    1.7250 H   0  0  0  0  0  0  0  0  0  0  0  0
   -0.9740    1.9230    1.1377 H   0  0  0  0  0  0  0  0  0  0  0  0
   -1.6090    2.4262   -1.1540 H   0  0  0  0  0  0  0  0  0  0  0  0
    0.2460   -0.3298    1.2131 H   0  0  0  0  0  0  0  0  0  0  0  0
    2.9949   -0.4852   -0.9863 H   0  0  0  0  0  0  0  0  0  0  0  0
    2.7413   -0.4039    1.5953 H   0  0  0  0  0  0  0  0  0  0  0  0
  1  2  2  0
  2  3  1  0
  3  4  1  0
  4  5  1  0
  5  6  1  0
  5  7  1  0
  7  8  1  0
  7  9  1  0
  9 10  1  0
 10 11  1  0
 11 12  1  0
 11  2  1  0
  9  3  1  0
  3 13  1  6
  5 14  1  6
  6 15  1  0
  7 16  1  1
  8 17  1  0
  9 18  1  1
 11 19  1  6
 12 20  1  0
M  END
$$$$

     RDKit          3D

 20 21  0  0  0  0  0  0  0  0999 V2000
    2.1002   -2.1740    0.3475 O   0  0  0  0  0  0  0  0  0  0  0  0
    1.4990   -1.2281   -0.0793 C   0  0  0  0  0  0  0  0  0  0  0  0
    0.1082   -0.9132   -0.0623 C   0  0  1  0  0  0  0  0  0  0  0  0
   -0.7001   -1.2075    0.9579 O   0  0  0  0  0  0  0  0  0  0  0  0
   -1.7984   -0.3433    0.7053 C   0  0  1  0  0  0  0  0  0  0  0  0
   -2.5185   -0.0872    1.8457 O   0  0  0  0  0  0  0  0  0  0  0  0
   -1.1834    0.9388    0.1141 C   0  0  2  0  0  0  0  0  0  0  0  0
   -1.5614    1.0861   -1.2190 O   0  0  0  0  0  0  0  0  0  0  0  0
    0.2532    0.6161    0.1801 C   0  0  2  0  0  0  0  0  0  0  0  0
    1.0716    0.9054   -0.8585 O   0  0  0  0  0  0  0  0  0  0  0  0
    2.1060   -0.0647   -0.7841 C   0  0  1  0  0  0  0  0  0  0  0  0
    3.2074    0.4455   -0.1145 O   0  0  0  0  0  0  0  0  0  0  0  0
   -0.3738   -1.0192   -1.0548 H   0  0  0  0  0  0  0  0  0  0  0  0
   -2.3811   -0.8517   -0.0923 H   0  0  0  0  0  0  0  0  0  0  0  0
   -3.4896   -0.1462    1.5986 H   0  0  0  0  0  0  0  0  0  0  0  0
   -1.5045    1.7862    0.7484 H   0  0  0  0  0  0  0  0  0  0  0  0
   -1.7979    2.0249   -1.3486 H   0  0  0  0  0  0  0  0  0  0  0  0
    0.6994    0.7692    1.1840 H   0  0  0  0  0  0  0  0  0  0  0  0
    2.3276   -0.3309   -1.8451 H   0  0  0  0  0  0  0  0  0  0  0  0
    3.9362   -0.2063   -0.2232 H   0  0  0  0  0  0  0  0  0  0  0  0
  1  2  2  0
  2  3  1  0
  3  4  1  0
  4  5  1  0
  5  6  1  0
  5  7  1  0
  7  8  1  0
  7  9  1  0
  9 10  1  0
 10 11  1  0
 11 12  1  0
 11  2  1  0
  9  3  1  0
  3 13  1  6
  5 14  1  6
  6 15  1  0
  7 16  1  1
  8 17  1  0
  9 18  1  1
 11 19  1  6
 12 20  1  0
M  END
$$$$

     RDKit          3D

 20 21  0  0  0  0  0  0  0  0999 V2000
    1.5474    1.1506    2.2212 O   0  0  0  0  0  0  0  0  0  0  0  0
    1.2529    0.3962    1.3343 C   0  0  0  0  0  0  0  0  0  0  0  0
   -0.0733   -0.0127    0.9172 C   0  0  1  0  0  0  0  0  0  0  0  0
   -1.0672    0.8937    0.8218 O   0  0  0  0  0  0  0  0  0  0  0  0
   -1.9088    0.4542   -0.2262 C   0  0  1  0  0  0  0  0  0  0  0  0
   -2.1860    1.5396   -1.0510 O   0  0  0  0  0  0  0  0  0  0  0  0
   -1.0585   -0.5284   -1.0565 C   0  0  2  0  0  0  0  0  0  0  0  0
   -1.4541   -1.7949   -0.6610 O   0  0  0  0  0  0  0  0  0  0  0  0
    0.2700   -0.1244   -0.5959 C   0  0  2  0  0  0  0  0  0  0  0  0
    1.3039   -0.9567   -0.5401 O   0  0  0  0  0  0  0  0  0  0  0  0
    2.1586   -0.3348    0.4095 C   0  0  1  0  0  0  0  0  0  0  0  0
    3.1027    0.4595   -0.1859 O   0  0  0  0  0  0  0  0  0  0  0  0
   -0.3664   -1.0115    1.2932 H   0  0  0  0  0  0  0  0  0  0  0  0
   -2.8103   -0.0299    0.1546 H   0  0  0  0  0  0  0  0  0  0  0  0
   -2.0056    2.4077   -0.5816 H   0  0  0  0  0  0  0  0  0  0  0  0
   -1.2709   -0.3547   -2.1312 H   0  0  0  0  0  0  0  0  0  0  0  0
   -2.4511   -1.8090   -0.6558 H   0  0  0  0  0  0  0  0  0  0  0  0
    0.4665    0.9185   -0.9004 H   0  0  0  0  0  0  0  0  0  0  0  0
    2.6001   -1.1803    0.9967 H   0  0  0  0  0  0  0  0  0  0  0  0
    3.9502   -0.0827   -0.2417 H   0  0  0  0  0  0  0  0  0  0  0  0
  1  2  2  0
  2  3  1  0
  3  4  1  0
  4  5  1  0
  5  6  1  0
  5  7  1  0
  7  8  1  0
  7  9  1  0
  9 10  1  0
 10 11  1  0
 11 12  1  0
 11  2  1  0
  9  3  1  0
  3 13  1  1
  5 14  1  1
  6 15  1  0
  7 16  1  6
  8 17  1  0
  9 18  1  6
 11 19  1  1
 12 20  1  0
M  END
$$$$

     RDKit          3D

 20 21  0  0  0  0  0  0  0  0999 V2000
   -2.2883   -2.0892    0.1900 O   0  0  0  0  0  0  0  0  0  0  0  0
   -1.5754   -1.1596    0.4393 C   0  0  0  0  0  0  0  0  0  0  0  0
   -0.1643   -0.9267    0.5695 C   0  0  1  0  0  0  0  0  0  0  0  0
    0.7411   -1.5298   -0.2154 O   0  0  0  0  0  0  0  0  0  0  0  0
    1.8412   -0.6522   -0.0020 C   0  0  1  0  0  0  0  0  0  0  0  0
    2.8590   -0.8771   -0.8795 O   0  0  0  0  0  0  0  0  0  0  0  0
    1.2319    0.7492   -0.1681 C   0  0  2  0  0  0  0  0  0  0  0  0
    1.7396    1.6322    0.7613 O   0  0  0  0  0  0  0  0  0  0  0  0
   -0.1858    0.4689   -0.1131 C   0  0  2  0  0  0  0  0  0  0  0  0
   -1.0115    1.0746    0.7604 O   0  0  0  0  0  0  0  0  0  0  0  0
   -2.1480    0.2200    0.7198 C   0  0  1  0  0  0  0  0  0  0  0  0
   -2.8944    0.6647   -0.3740 O   0  0  0  0  0  0  0  0  0  0  0  0
    0.1750   -0.8390    1.6125 H   0  0  0  0  0  0  0  0  0  0  0  0
    2.1188   -0.7300    1.0695 H   0  0  0  0  0  0  0  0  0  0  0  0
    3.0189   -1.8187   -1.0388 H   0  0  0  0  0  0  0  0  0  0  0  0
    1.5321    1.0697   -1.1912 H   0  0  0  0  0  0  0  0  0  0  0  0
    1.3469    2.5159    0.5482 H   0  0  0  0  0  0  0  0  0  0  0  0
   -0.6777    0.3282   -1.0982 H   0  0  0  0  0  0  0  0  0  0  0  0
   -2.6978    0.2358    1.6628 H   0  0  0  0  0  0  0  0  0  0  0  0
   -2.9613    1.6631   -0.2529 H   0  0  0  0  0  0  0  0  0  0  0  0
  1  2  2  0
  2  3  1  0
  3  4  1  0
  4  5  1  0
  5  6  1  0
  5  7  1  0
  7  8  1  0
  7  9  1  0
  9 10  1  0
 10 11  1  0
 11 12  1  0
 11  2  1  0
  9  3  1  0
  3 13  1  1
  5 14  1  1
  6 15  1  0
  7 16  1  6
  8 17  1  0
  9 18  1  6
 11 19  1  1
 12 20  1  0
M  END
$$$$

     RDKit          3D

 20 21  0  0  0  0  0  0  0  0999 V2000
   -0.6771   -2.6015   -1.3723 O   0  0  0  0  0  0  0  0  0  0  0  0
   -0.7786   -1.6967   -0.5865 C   0  0  0  0  0  0  0  0  0  0  0  0
    0.2792   -0.9942    0.1069 C   0  0  1  0  0  0  0  0  0  0  0  0
    1.4250   -0.6793   -0.5022 O   0  0  0  0  0  0  0  0  0  0  0  0
    1.8804    0.5050    0.1278 C   0  0  1  0  0  0  0  0  0  0  0  0
    2.4130    1.2915   -0.8975 O   0  0  0  0  0  0  0  0  0  0  0  0
    0.6263    1.1770    0.7134 C   0  0  2  0  0  0  0  0  0  0  0  0
    0.6364    1.1350    2.0900 O   0  0  0  0  0  0  0  0  0  0  0  0
   -0.4163    0.3943    0.0819 C   0  0  2  0  0  0  0  0  0  0  0  0
   -1.5659    0.0738    0.6761 O   0  0  0  0  0  0  0  0  0  0  0  0
   -2.0186   -1.0310   -0.0939 C   0  0  1  0  0  0  0  0  0  0  0  0
   -2.8738   -0.6527   -1.0925 O   0  0  0  0  0  0  0  0  0  0  0  0
    0.3395   -1.3529    1.1512 H   0  0  0  0  0  0  0  0  0  0  0  0
    2.6278    0.2986    0.8965 H   0  0  0  0  0  0  0  0  0  0  0  0
    2.8320    0.7054   -1.6005 H   0  0  0  0  0  0  0  0  0  0  0  0
    0.6285    2.2345    0.3416 H   0  0  0  0  0  0  0  0  0  0  0  0
    0.6986    2.0144    2.5141 H   0  0  0  0  0  0  0  0  0  0  0  0
   -0.5179    0.6261   -0.9922 H   0  0  0  0  0  0  0  0  0  0  0  0
   -2.4797   -1.7574    0.6319 H   0  0  0  0  0  0  0  0  0  0  0  0
   -3.0588    0.3099   -1.1536 H   0  0  0  0  0  0  0  0  0  0  0  0
  1  2  2  0
  2  3  1  0
  3  4  1  0
  4  5  1  0
  5  6  1  0
  5  7  1  0
  7  8  1  0
  7  9  1  0
  9 10  1  0
 10 11  1  0
 11 12  1  0
 11  2  1  0
  9  3  1  0
  3 13  1  1
  5 14  1  1
  6 15  1  0
  7 16  1  1
  8 17  1  0
  9 18  1  6
 11 19  1  1
 12 20  1  0
M  END
$$$$

     RDKit          3D

 20 21  0  0  0  0  0  0  0  0999 V2000
    1.5263   -2.6480    0.2713 O   0  0  0  0  0  0  0  0  0  0  0  0
    1.2204   -1.5704   -0.1700 C   0  0  0  0  0  0  0  0  0  0  0  0
   -0.0137   -0.8966   -0.4994 C   0  0  1  0  0  0  0  0  0  0  0  0
   -1.1533   -1.1673    0.1514 O   0  0  0  0  0  0  0  0  0  0  0  0
   -1.9216   -0.0014   -0.1032 C   0  0  1  0  0  0  0  0  0  0  0  0
   -2.8273    0.2316    0.9206 O   0  0  0  0  0  0  0  0  0  0  0  0
   -0.9032    1.1494   -0.2067 C   0  0  2  0  0  0  0  0  0  0  0  0
   -0.8625    1.5530   -1.5385 O   0  0  0  0  0  0  0  0  0  0  0  0
    0.3318    0.4508    0.1940 C   0  0  2  0  0  0  0  0  0  0  0  0
    1.4980    0.7264   -0.4278 O   0  0  0  0  0  0  0  0  0  0  0  0
    2.2181   -0.4894   -0.5457 C   0  0  1  0  0  0  0  0  0  0  0  0
    3.3393   -0.5241    0.2141 O   0  0  0  0  0  0  0  0  0  0  0  0
   -0.0995   -0.6741   -1.5790 H   0  0  0  0  0  0  0  0  0  0  0  0
   -2.4326   -0.1547   -1.0730 H   0  0  0  0  0  0  0  0  0  0  0  0
   -3.6541   -0.2531    0.7629 H   0  0  0  0  0  0  0  0  0  0  0  0
   -1.2004    1.9962    0.4464 H   0  0  0  0  0  0  0  0  0  0  0  0
   -1.4803    2.2869   -1.7355 H   0  0  0  0  0  0  0  0  0  0  0  0
    0.3933    0.3030    1.2826 H   0  0  0  0  0  0  0  0  0  0  0  0
    2.3770   -0.6316   -1.6382 H   0  0  0  0  0  0  0  0  0  0  0  0
    3.6444    0.3134    0.6021 H   0  0  0  0  0  0  0  0  0  0  0  0
  1  2  2  0
  2  3  1  0
  3  4  1  0
  4  5  1  0
  5  6  1  0
  5  7  1  0
  7  8  1  0
  7  9  1  0
  9 10  1  0
 10 11  1  0
 11 12  1  0
 11  2  1  0
  9  3  1  0
  3 13  1  6
  5 14  1  6
  6 15  1  0
  7 16  1  1
  8 17  1  0
  9 18  1  1
 11 19  1  6
 12 20  1  0
M  END
$$$$

     RDKit          3D

 20 21  0  0  0  0  0  0  0  0999 V2000
    2.2074    1.9996   -0.7223 O   0  0  0  0  0  0  0  0  0  0  0  0
    1.6249    1.1067   -0.1650 C   0  0  0  0  0  0  0  0  0  0  0  0
    0.2115    0.9418    0.0661 C   0  0  1  0  0  0  0  0  0  0  0  0
   -0.6927    1.2661   -0.8762 O   0  0  0  0  0  0  0  0  0  0  0  0
   -1.8186    0.5175   -0.4425 C   0  0  1  0  0  0  0  0  0  0  0  0
   -2.6854    0.2413   -1.4653 O   0  0  0  0  0  0  0  0  0  0  0  0
   -1.2428   -0.8005    0.1090 C   0  0  2  0  0  0  0  0  0  0  0  0
   -1.4904   -0.8770    1.4618 O   0  0  0  0  0  0  0  0  0  0  0  0
    0.1895   -0.6011   -0.1388 C   0  0  2  0  0  0  0  0  0  0  0  0
    1.1152   -0.9393    0.7813 O   0  0  0  0  0  0  0  0  0  0  0  0
    2.2210   -0.1085    0.4572 C   0  0  1  0  0  0  0  0  0  0  0  0
    3.1226   -0.7426   -0.3576 O   0  0  0  0  0  0  0  0  0  0  0  0
   -0.1229    1.1126    1.1083 H   0  0  0  0  0  0  0  0  0  0  0  0
   -2.2522    1.1037    0.3895 H   0  0  0  0  0  0  0  0  0  0  0  0
   -2.9608    1.0399   -1.9422 H   0  0  0  0  0  0  0  0  0  0  0  0
   -1.6793   -1.6567   -0.4532 H   0  0  0  0  0  0  0  0  0  0  0  0
   -2.2677   -1.4552    1.6874 H   0  0  0  0  0  0  0  0  0  0  0  0
    0.5168   -0.7317   -1.1885 H   0  0  0  0  0  0  0  0  0  0  0  0
    2.6566    0.1952    1.4519 H   0  0  0  0  0  0  0  0  0  0  0  0
    3.3473   -1.6117    0.0592 H   0  0  0  0  0  0  0  0  0  0  0  0
  1  2  2  0
  2  3  1  0
  3  4  1  0
  4  5  1  0
  5  6  1  0
  5  7  1  0
  7  8  1  0
  7  9  1  0
  9 10  1  0
 10 11  1  0
 11 12  1  0
 11  2  1  0
  9  3  1  0
  3 13  1  1
  5 14  1  1
  6 15  1  0
  7 16  1  6
  8 17  1  0
  9 18  1  6
 11 19  1  1
 12 20  1  0
M  END
$$$$

     RDKit          3D

 20 21  0  0  0  0  0  0  0  0999 V2000
    2.3640    1.6818   -0.8529 O   0  0  0  0  0  0  0  0  0  0  0  0
    1.7098    0.9076   -0.2169 C   0  0  0  0  0  0  0  0  0  0  0  0
    0.2918    0.8647   -0.0042 C   0  0  1  0  0  0  0  0  0  0  0  0
   -0.5902    1.1879   -0.9606 O   0  0  0  0  0  0  0  0  0  0  0  0
   -1.7631    0.6081   -0.4066 C   0  0  1  0  0  0  0  0  0  0  0  0
   -2.7531    0.4548   -1.3325 O   0  0  0  0  0  0  0  0  0  0  0  0
   -1.3093   -0.7412    0.1793 C   0  0  2  0  0  0  0  0  0  0  0  0
   -1.6867   -0.8737    1.4984 O   0  0  0  0  0  0  0  0  0  0  0  0
    0.1396   -0.6802   -0.0615 C   0  0  2  0  0  0  0  0  0  0  0  0
    1.0186   -1.0010    0.9067 O   0  0  0  0  0  0  0  0  0  0  0  0
    2.1881   -0.2940    0.5782 C   0  0  1  0  0  0  0  0  0  0  0  0
    3.0963   -1.0424   -0.1180 O   0  0  0  0  0  0  0  0  0  0  0  0
   -0.0656    1.1350    1.0042 H   0  0  0  0  0  0  0  0  0  0  0  0
   -2.0198    1.2401    0.4611 H   0  0  0  0  0  0  0  0  0  0  0  0
   -3.1858    1.3265   -1.4785 H   0  0  0  0  0  0  0  0  0  0  0  0
   -1.7389   -1.5782   -0.4424 H   0  0  0  0  0  0  0  0  0  0  0  0
   -2.1081   -1.7666    1.6873 H   0  0  0  0  0  0  0  0  0  0  0  0
    0.4140   -1.0353   -1.0736 H   0  0  0  0  0  0  0  0  0  0  0  0
    2.5825    0.1420    1.5268 H   0  0  0  0  0  0  0  0  0  0  0  0
    3.4158   -0.5359   -0.8943 H   0  0  0  0  0  0  0  0  0  0  0  0
  1  2  2  0
  2  3  1  0
  3  4  1  0
  4  5  1  0
  5  6  1  0
  5  7  1  0
  7  8  1  0
  7  9  1  0
  9 10  1  0
 10 11  1  0
 11 12  1  0
 11  2  1  0
  9  3  1  0
  3 13  1  1
  5 14  1  1
  6 15  1  0
  7 16  1  6
  8 17  1  0
  9 18  1  6
 11 19  1  1
 12 20  1  0
M  END
$$$$
