
     RDKit          3D

 25 26  0  0  0  0  0  0  0  0999 V2000
   -3.6210   -0.1711    1.4190 O   0  0  0  0  0  0  0  0  0  0  0  0
   -2.5389   -0.5773    0.6114 C   0  0  0  0  0  0  0  0  0  0  0  0
   -1.8438    0.6480    0.1128 C   0  0  0  0  0  0  0  0  0  0  0  0
   -0.6500    0.3352   -0.7805 C   0  0  1  0  0  0  0  0  0  0  0  0
   -0.1273    1.6650   -1.1497 N   0  0  0  0  0  0  0  0  0  0  0  0
    1.0984    1.7910   -0.4341 N   0  0  0  0  0  0  0  0  0  0  0  0
    1.5699    0.4631   -0.5233 C   0  0  1  0  0  0  0  0  0  0  0  0
    2.4917   -0.0340    0.5290 C   0  0  0  0  0  0  0  0  0  0  0  0
    2.0594   -1.5144    0.5238 C   0  0  0  0  0  0  0  0  0  0  0  0
    0.7472   -1.5124   -0.1583 N   0  0  0  0  0  0  0  0  0  0  0  0
    0.3600   -0.2299   -0.0191 N   0  0  0  0  0  0  0  0  0  0  0  0
   -3.9027    0.7209    1.1009 H   0  0  0  0  0  0  0  0  0  0  0  0
   -2.9647   -1.1891   -0.1994 H   0  0  0  0  0  0  0  0  0  0  0  0
   -1.8762   -1.2171    1.2456 H   0  0  0  0  0  0  0  0  0  0  0  0
   -2.6049    1.2546   -0.4374 H   0  0  0  0  0  0  0  0  0  0  0  0
   -1.5390    1.2728    0.9760 H   0  0  0  0  0  0  0  0  0  0  0  0
   -0.9506   -0.2316   -1.6667 H   0  0  0  0  0  0  0  0  0  0  0  0
    0.1582    1.5715   -2.1493 H   0  0  0  0  0  0  0  0  0  0  0  0
    1.6675    2.4603   -0.9927 H   0  0  0  0  0  0  0  0  0  0  0  0
    1.8025    0.1114   -1.5406 H   0  0  0  0  0  0  0  0  0  0  0  0
    2.2038    0.4333    1.4932 H   0  0  0  0  0  0  0  0  0  0  0  0
    3.5633    0.0676    0.3019 H   0  0  0  0  0  0  0  0  0  0  0  0
    2.8018   -2.0322   -0.1228 H   0  0  0  0  0  0  0  0  0  0  0  0
    1.9806   -1.9175    1.5311 H   0  0  0  0  0  0  0  0  0  0  0  0
    0.1149   -2.1680    0.3292 H   0  0  0  0  0  0  0  0  0  0  0  0
  1  2  1  0
  2  3  1  0
  3  4  1  0
  4  5  1  0
  5  6  1  0
  6  7  1  0
  7  8  1  0
  8  9  1  0
  9 10  1  0
 10 11  1  0
 11  4  1  0
 11  7  1  0
  1 12  1  0
  2 13  1  0
  2 14  1  0
  3 15  1  0
  3 16  1  0
  4 17  1  6
  5 18  1  0
  6 19  1  0
  7 20  1  6
  8 21  1  0
  8 22  1  0
  9 23  1  0
  9 24  1  0
 10 25  1  0
M  END
$$$$

     RDKit          3D

 25 26  0  0  0  0  0  0  0  0999 V2000
    4.0149    0.3770    0.6311 O   0  0  0  0  0  0  0  0  0  0  0  0
    2.9596   -0.3480    0.0642 C   0  0  0  0  0  0  0  0  0  0  0  0
    1.7734    0.5996    0.0029 C   0  0  0  0  0  0  0  0  0  0  0  0
    0.6180   -0.1631   -0.6077 C   0  0  1  0  0  0  0  0  0  0  0  0
    0.2961   -1.3330    0.2250 N   0  0  0  0  0  0  0  0  0  0  0  0
   -1.0766   -1.5390    0.0740 N   0  0  0  0  0  0  0  0  0  0  0  0
   -1.5925   -0.4853   -0.7416 C   0  0  1  0  0  0  0  0  0  0  0  0
   -2.8588    0.1396   -0.1683 C   0  0  0  0  0  0  0  0  0  0  0  0
   -2.2836    0.7613    1.1012 C   0  0  0  0  0  0  0  0  0  0  0  0
   -0.8624    0.8311    0.8724 N   0  0  0  0  0  0  0  0  0  0  0  0
   -0.6339    0.5895   -0.4736 N   0  0  0  0  0  0  0  0  0  0  0  0
    4.3969    1.0326   -0.0093 H   0  0  0  0  0  0  0  0  0  0  0  0
    2.7384   -1.1778    0.7682 H   0  0  0  0  0  0  0  0  0  0  0  0
    3.2228   -0.7464   -0.9371 H   0  0  0  0  0  0  0  0  0  0  0  0
    1.5259    0.8922    1.0236 H   0  0  0  0  0  0  0  0  0  0  0  0
    2.0054    1.4347   -0.6804 H   0  0  0  0  0  0  0  0  0  0  0  0
    0.8110   -0.4355   -1.6485 H   0  0  0  0  0  0  0  0  0  0  0  0
    0.4231   -0.9809    1.2210 H   0  0  0  0  0  0  0  0  0  0  0  0
   -1.3176   -2.4925   -0.2280 H   0  0  0  0  0  0  0  0  0  0  0  0
   -1.6802   -0.7165   -1.7989 H   0  0  0  0  0  0  0  0  0  0  0  0
   -3.6261   -0.6154    0.0609 H   0  0  0  0  0  0  0  0  0  0  0  0
   -3.1761    0.9424   -0.8303 H   0  0  0  0  0  0  0  0  0  0  0  0
   -2.5276    0.0328    1.9289 H   0  0  0  0  0  0  0  0  0  0  0  0
   -2.7424    1.7320    1.3277 H   0  0  0  0  0  0  0  0  0  0  0  0
   -0.4076    1.6688    1.2505 H   0  0  0  0  0  0  0  0  0  0  0  0
  1  2  1  0
  2  3  1  0
  3  4  1  0
  4  5  1  0
  5  6  1  0
  6  7  1  0
  7  8  1  0
  8  9  1  0
  9 10  1  0
 10 11  1  0
 11  4  1  0
 11  7  1  0
  1 12  1  0
  2 13  1  0
  2 14  1  0
  3 15  1  0
  3 16  1  0
  4 17  1  6
  5 18  1  0
  6 19  1  0
  7 20  1  6
  8 21  1  0
  8 22  1  0
  9 23  1  0
  9 24  1  0
 10 25  1  0
M  END
$$$$

     RDKit          3D

 25 26  0  0  0  0  0  0  0  0999 V2000
    3.1103   -0.3904   -1.0261 O   0  0  0  0  0  0  0  0  0  0  0  0
    2.4602    0.7453   -0.5324 C   0  0  0  0  0  0  0  0  0  0  0  0
    1.7400    0.3746    0.7603 C   0  0  0  0  0  0  0  0  0  0  0  0
    0.7453   -0.6987    0.4755 C   0  0  1  0  0  0  0  0  0  0  0  0
    0.0442   -1.0711    1.6912 N   0  0  0  0  0  0  0  0  0  0  0  0
   -1.3107   -0.7885    1.4312 N   0  0  0  0  0  0  0  0  0  0  0  0
   -1.4205   -1.0559    0.0223 C   0  0  1  0  0  0  0  0  0  0  0  0
   -2.5750   -0.3319   -0.6238 C   0  0  0  0  0  0  0  0  0  0  0  0
   -1.9996    1.0439   -0.8474 C   0  0  0  0  0  0  0  0  0  0  0  0
   -0.5741    0.9397   -0.6160 N   0  0  0  0  0  0  0  0  0  0  0  0
   -0.2390   -0.3752   -0.4995 N   0  0  0  0  0  0  0  0  0  0  0  0
    4.0570   -0.1988   -1.1952 H   0  0  0  0  0  0  0  0  0  0  0  0
    3.2129    1.5386   -0.3707 H   0  0  0  0  0  0  0  0  0  0  0  0
    1.7082    1.0963   -1.2835 H   0  0  0  0  0  0  0  0  0  0  0  0
    2.5120   -0.0716    1.4441 H   0  0  0  0  0  0  0  0  0  0  0  0
    1.3491    1.2546    1.2722 H   0  0  0  0  0  0  0  0  0  0  0  0
    1.3195   -1.5870    0.0941 H   0  0  0  0  0  0  0  0  0  0  0  0
    0.0818   -2.1293    1.7932 H   0  0  0  0  0  0  0  0  0  0  0  0
   -1.4805    0.2198    1.6132 H   0  0  0  0  0  0  0  0  0  0  0  0
   -1.4332   -2.1229   -0.2028 H   0  0  0  0  0  0  0  0  0  0  0  0
   -3.4747   -0.3141    0.0026 H   0  0  0  0  0  0  0  0  0  0  0  0
   -2.7812   -0.7748   -1.6122 H   0  0  0  0  0  0  0  0  0  0  0  0
   -2.4881    1.7136   -0.0827 H   0  0  0  0  0  0  0  0  0  0  0  0
   -2.2314    1.4228   -1.8669 H   0  0  0  0  0  0  0  0  0  0  0  0
   -0.3327    1.5609    0.1593 H   0  0  0  0  0  0  0  0  0  0  0  0
  1  2  1  0
  2  3  1  0
  3  4  1  0
  4  5  1  0
  5  6  1  0
  6  7  1  0
  7  8  1  0
  8  9  1  0
  9 10  1  0
 10 11  1  0
 11  4  1  0
 11  7  1  0
  1 12  1  0
  2 13  1  0
  2 14  1  0
  3 15  1  0
  3 16  1  0
  4 17  1  6
  5 18  1  0
  6 19  1  0
  7 20  1  1
  8 21  1  0
  8 22  1  0
  9 23  1  0
  9 24  1  0
 10 25  1  0
M  END
$$$$

     RDKit          3D

 25 26  0  0  0  0  0  0  0  0999 V2000
    3.7641   -1.0205    0.7965 O   0  0  0  0  0  0  0  0  0  0  0  0
    2.5293   -0.3345    0.8868 C   0  0  0  0  0  0  0  0  0  0  0  0
    1.9807   -0.1079   -0.4861 C   0  0  0  0  0  0  0  0  0  0  0  0
    0.6698    0.6233   -0.5223 C   0  0  1  0  0  0  0  0  0  0  0  0
    0.2619    0.7707   -1.9325 N   0  0  0  0  0  0  0  0  0  0  0  0
   -1.1257    0.5869   -1.9740 N   0  0  0  0  0  0  0  0  0  0  0  0
   -1.5117    0.7252   -0.6444 C   0  0  1  0  0  0  0  0  0  0  0  0
   -2.6772   -0.0103   -0.1297 C   0  0  0  0  0  0  0  0  0  0  0  0
   -2.2284   -0.1677    1.3330 C   0  0  0  0  0  0  0  0  0  0  0  0
   -0.7977    0.1963    1.3239 N   0  0  0  0  0  0  0  0  0  0  0  0
   -0.4392   -0.0480    0.0305 N   0  0  0  0  0  0  0  0  0  0  0  0
    3.6145   -1.9848    0.8168 H   0  0  0  0  0  0  0  0  0  0  0  0
    1.8927   -1.0027    1.5037 H   0  0  0  0  0  0  0  0  0  0  0  0
    2.6872    0.6184    1.4029 H   0  0  0  0  0  0  0  0  0  0  0  0
    2.7596    0.4031   -1.0839 H   0  0  0  0  0  0  0  0  0  0  0  0
    1.8345   -1.1010   -1.0009 H   0  0  0  0  0  0  0  0  0  0  0  0
    0.7477    1.6531   -0.1370 H   0  0  0  0  0  0  0  0  0  0  0  0
    0.7413    0.0272   -2.4788 H   0  0  0  0  0  0  0  0  0  0  0  0
   -1.4079   -0.3198   -2.3575 H   0  0  0  0  0  0  0  0  0  0  0  0
   -1.4798    1.7307   -0.2044 H   0  0  0  0  0  0  0  0  0  0  0  0
   -3.6190    0.5739   -0.1900 H   0  0  0  0  0  0  0  0  0  0  0  0
   -2.7909   -1.0140   -0.6110 H   0  0  0  0  0  0  0  0  0  0  0  0
   -2.3799   -1.2117    1.6051 H   0  0  0  0  0  0  0  0  0  0  0  0
   -2.7287    0.5648    1.9860 H   0  0  0  0  0  0  0  0  0  0  0  0
   -0.2972   -0.2909    2.0673 H   0  0  0  0  0  0  0  0  0  0  0  0
  1  2  1  0
  2  3  1  0
  3  4  1  0
  4  5  1  0
  5  6  1  0
  6  7  1  0
  7  8  1  0
  8  9  1  0
  9 10  1  0
 10 11  1  0
 11  4  1  0
 11  7  1  0
  1 12  1  0
  2 13  1  0
  2 14  1  0
  3 15  1  0
  3 16  1  0
  4 17  1  1
  5 18  1  0
  6 19  1  0
  7 20  1  1
  8 21  1  0
  8 22  1  0
  9 23  1  0
  9 24  1  0
 10 25  1  0
M  END
$$$$

     RDKit          3D

 25 26  0  0  0  0  0  0  0  0999 V2000
    4.1833    0.4673    0.3364 O   0  0  0  0  0  0  0  0  0  0  0  0
    3.0476    0.1828   -0.4212 C   0  0  0  0  0  0  0  0  0  0  0  0
    1.8196    0.3757    0.4543 C   0  0  0  0  0  0  0  0  0  0  0  0
    0.5750    0.0758   -0.3359 C   0  0  1  0  0  0  0  0  0  0  0  0
    0.5569   -1.2918   -0.8356 N   0  0  0  0  0  0  0  0  0  0  0  0
   -0.8073   -1.6912   -0.8479 N   0  0  0  0  0  0  0  0  0  0  0  0
   -1.5196   -0.5257   -0.5067 C   0  0  1  0  0  0  0  0  0  0  0  0
   -2.6869   -0.6478    0.3932 C   0  0  0  0  0  0  0  0  0  0  0  0
   -2.5804    0.7217    1.0928 C   0  0  0  0  0  0  0  0  0  0  0  0
   -1.1887    1.1512    0.8801 N   0  0  0  0  0  0  0  0  0  0  0  0
   -0.5693    0.0618    0.4643 N   0  0  0  0  0  0  0  0  0  0  0  0
    4.0119    0.2756    1.2943 H   0  0  0  0  0  0  0  0  0  0  0  0
    3.0962   -0.8656   -0.7468 H   0  0  0  0  0  0  0  0  0  0  0  0
    2.9743    0.9022   -1.2724 H   0  0  0  0  0  0  0  0  0  0  0  0
    1.7869    1.4541    0.7125 H   0  0  0  0  0  0  0  0  0  0  0  0
    1.8658   -0.1996    1.3770 H   0  0  0  0  0  0  0  0  0  0  0  0
    0.5312    0.7855   -1.2039 H   0  0  0  0  0  0  0  0  0  0  0  0
    1.0047   -1.4013   -1.7527 H   0  0  0  0  0  0  0  0  0  0  0  0
   -1.0182   -1.9486   -1.8398 H   0  0  0  0  0  0  0  0  0  0  0  0
   -1.7252    0.1782   -1.3249 H   0  0  0  0  0  0  0  0  0  0  0  0
   -3.6614   -0.7600   -0.1076 H   0  0  0  0  0  0  0  0  0  0  0  0
   -2.5380   -1.4060    1.1773 H   0  0  0  0  0  0  0  0  0  0  0  0
   -3.1982    1.4075    0.4848 H   0  0  0  0  0  0  0  0  0  0  0  0
   -2.8464    0.6651    2.1440 H   0  0  0  0  0  0  0  0  0  0  0  0
   -1.1140    2.0329    0.3844 H   0  0  0  0  0  0  0  0  0  0  0  0
  1  2  1  0
  2  3  1  0
  3  4  1  0
  4  5  1  0
  5  6  1  0
  6  7  1  0
  7  8  1  0
  8  9  1  0
  9 10  1  0
 10 11  1  0
 11  4  1  0
 11  7  1  0
  1 12  1  0
  2 13  1  0
  2 14  1  0
  3 15  1  0
  3 16  1  0
  4 17  1  6
  5 18  1  0
  6 19  1  0
  7 20  1  6
  8 21  1  0
  8 22  1  0
  9 23  1  0
  9 24  1  0
 10 25  1  0
M  END
$$$$

     RDKit          3D

 25 26  0  0  0  0  0  0  0  0999 V2000
    3.3961    1.4090    1.2395 O   0  0  0  0  0  0  0  0  0  0  0  0
    2.3619    1.1509    0.3697 C   0  0  0  0  0  0  0  0  0  0  0  0
    1.9142   -0.2849    0.5556 C   0  0  0  0  0  0  0  0  0  0  0  0
    0.7615   -0.6065   -0.3994 C   0  0  1  0  0  0  0  0  0  0  0  0
    0.3941   -2.0027   -0.1545 N   0  0  0  0  0  0  0  0  0  0  0  0
   -0.9561   -1.9953    0.2692 N   0  0  0  0  0  0  0  0  0  0  0  0
   -1.4345   -0.8499   -0.3999 C   0  0  1  0  0  0  0  0  0  0  0  0
   -2.5890   -0.1260    0.1652 C   0  0  0  0  0  0  0  0  0  0  0  0
   -2.1992    1.3049   -0.2550 C   0  0  0  0  0  0  0  0  0  0  0  0
   -0.7801    1.2063   -0.6515 N   0  0  0  0  0  0  0  0  0  0  0  0
   -0.3759    0.0996    0.0270 N   0  0  0  0  0  0  0  0  0  0  0  0
    3.9153    0.5857    1.3623 H   0  0  0  0  0  0  0  0  0  0  0  0
    2.6827    1.2290   -0.7098 H   0  0  0  0  0  0  0  0  0  0  0  0
    1.5397    1.8557    0.5957 H   0  0  0  0  0  0  0  0  0  0  0  0
    2.7853   -0.9458    0.3468 H   0  0  0  0  0  0  0  0  0  0  0  0
    1.6163   -0.4552    1.5974 H   0  0  0  0  0  0  0  0  0  0  0  0
    1.0242   -0.4089   -1.4319 H   0  0  0  0  0  0  0  0  0  0  0  0
    0.3883   -2.4609   -1.0939 H   0  0  0  0  0  0  0  0  0  0  0  0
   -1.0140   -1.8593    1.2868 H   0  0  0  0  0  0  0  0  0  0  0  0
   -1.4539   -0.9236   -1.5011 H   0  0  0  0  0  0  0  0  0  0  0  0
   -3.5641   -0.4141   -0.2645 H   0  0  0  0  0  0  0  0  0  0  0  0
   -2.5669   -0.1497    1.2586 H   0  0  0  0  0  0  0  0  0  0  0  0
   -2.3444    2.0154    0.5553 H   0  0  0  0  0  0  0  0  0  0  0  0
   -2.7981    1.5139   -1.1633 H   0  0  0  0  0  0  0  0  0  0  0  0
   -0.7033    1.1122   -1.6910 H   0  0  0  0  0  0  0  0  0  0  0  0
  1  2  1  0
  2  3  1  0
  3  4  1  0
  4  5  1  0
  5  6  1  0
  6  7  1  0
  7  8  1  0
  8  9  1  0
  9 10  1  0
 10 11  1  0
 11  4  1  0
 11  7  1  0
  1 12  1  0
  2 13  1  0
  2 14  1  0
  3 15  1  0
  3 16  1  0
  4 17  1  6
  5 18  1  0
  6 19  1  0
  7 20  1  6
  8 21  1  0
  8 22  1  0
  9 23  1  0
  9 24  1  0
 10 25  1  0
M  END
$$$$

     RDKit          3D

 25 26  0  0  0  0  0  0  0  0999 V2000
    4.0491    0.3544    0.5446 O   0  0  0  0  0  0  0  0  0  0  0  0
    2.9595   -0.1094   -0.1904 C   0  0  0  0  0  0  0  0  0  0  0  0
    1.6724    0.5630    0.2294 C   0  0  0  0  0  0  0  0  0  0  0  0
    0.5559    0.0233   -0.5933 C   0  0  1  0  0  0  0  0  0  0  0  0
    0.3676   -1.3867   -0.4554 N   0  0  0  0  0  0  0  0  0  0  0  0
   -0.9406   -1.5304   -0.0412 N   0  0  0  0  0  0  0  0  0  0  0  0
   -1.6269   -0.4399   -0.6603 C   0  0  1  0  0  0  0  0  0  0  0  0
   -2.9031   -0.0693    0.0670 C   0  0  0  0  0  0  0  0  0  0  0  0
   -2.4450    1.0484    0.9670 C   0  0  0  0  0  0  0  0  0  0  0  0
   -0.9750    1.0149    0.9185 N   0  0  0  0  0  0  0  0  0  0  0  0
   -0.7136    0.6661   -0.3930 N   0  0  0  0  0  0  0  0  0  0  0  0
    4.8624    0.1736    0.0026 H   0  0  0  0  0  0  0  0  0  0  0  0
    3.1517    0.1109   -1.2647 H   0  0  0  0  0  0  0  0  0  0  0  0
    2.8977   -1.2007   -0.0982 H   0  0  0  0  0  0  0  0  0  0  0  0
    1.7535    1.6496    0.1291 H   0  0  0  0  0  0  0  0  0  0  0  0
    1.4682    0.3017    1.2979 H   0  0  0  0  0  0  0  0  0  0  0  0
    0.8324    0.2184   -1.6732 H   0  0  0  0  0  0  0  0  0  0  0  0
    0.9976   -1.8006    0.2709 H   0  0  0  0  0  0  0  0  0  0  0  0
   -1.0689   -1.5566    0.9756 H   0  0  0  0  0  0  0  0  0  0  0  0
   -1.7812   -0.5908   -1.7338 H   0  0  0  0  0  0  0  0  0  0  0  0
   -3.2997   -0.9360    0.6479 H   0  0  0  0  0  0  0  0  0  0  0  0
   -3.6427    0.2451   -0.6720 H   0  0  0  0  0  0  0  0  0  0  0  0
   -2.8039    2.0337    0.5979 H   0  0  0  0  0  0  0  0  0  0  0  0
   -2.7280    0.8784    2.0290 H   0  0  0  0  0  0  0  0  0  0  0  0
   -0.6394    0.3389    1.6216 H   0  0  0  0  0  0  0  0  0  0  0  0
  1  2  1  0
  2  3  1  0
  3  4  1  0
  4  5  1  0
  5  6  1  0
  6  7  1  0
  7  8  1  0
  8  9  1  0
  9 10  1  0
 10 11  1  0
 11  4  1  0
 11  7  1  0
  1 12  1  0
  2 13  1  0
  2 14  1  0
  3 15  1  0
  3 16  1  0
  4 17  1  6
  5 18  1  0
  6 19  1  0
  7 20  1  6
  8 21  1  0
  8 22  1  0
  9 23  1  0
  9 24  1  0
 10 25  1  0
M  END
$$$$

     RDKit          3D

 25 26  0  0  0  0  0  0  0  0999 V2000
    3.2971   -0.5785    0.9882 O   0  0  0  0  0  0  0  0  0  0  0  0
    3.0713   -0.3394   -0.3817 C   0  0  0  0  0  0  0  0  0  0  0  0
    1.6805   -0.8018   -0.7498 C   0  0  0  0  0  0  0  0  0  0  0  0
    0.6675   -0.0428    0.0675 C   0  0  1  0  0  0  0  0  0  0  0  0
    0.7628    1.4017   -0.1791 N   0  0  0  0  0  0  0  0  0  0  0  0
   -0.5770    1.8782   -0.2176 N   0  0  0  0  0  0  0  0  0  0  0  0
   -1.2834    0.8488    0.4210 C   0  0  1  0  0  0  0  0  0  0  0  0
   -2.6955    0.6095    0.0589 C   0  0  0  0  0  0  0  0  0  0  0  0
   -2.7394   -0.9097    0.2983 C   0  0  0  0  0  0  0  0  0  0  0  0
   -1.3287   -1.3326    0.3401 N   0  0  0  0  0  0  0  0  0  0  0  0
   -0.6786   -0.3110   -0.2808 N   0  0  0  0  0  0  0  0  0  0  0  0
    3.3493    0.2835    1.4727 H   0  0  0  0  0  0  0  0  0  0  0  0
    3.1748    0.7454   -0.5920 H   0  0  0  0  0  0  0  0  0  0  0  0
    3.8433   -0.9128   -0.9342 H   0  0  0  0  0  0  0  0  0  0  0  0
    1.5246   -0.6758   -1.8216 H   0  0  0  0  0  0  0  0  0  0  0  0
    1.5656   -1.8730   -0.4865 H   0  0  0  0  0  0  0  0  0  0  0  0
    0.8694   -0.2367    1.1314 H   0  0  0  0  0  0  0  0  0  0  0  0
    1.1566    1.4828   -1.1631 H   0  0  0  0  0  0  0  0  0  0  0  0
   -0.6097    2.8056    0.2645 H   0  0  0  0  0  0  0  0  0  0  0  0
   -1.0779    0.7275    1.5013 H   0  0  0  0  0  0  0  0  0  0  0  0
   -3.4398    1.1150    0.6991 H   0  0  0  0  0  0  0  0  0  0  0  0
   -2.8528    0.8262   -1.0068 H   0  0  0  0  0  0  0  0  0  0  0  0
   -3.2978   -1.4227   -0.4931 H   0  0  0  0  0  0  0  0  0  0  0  0
   -3.1295   -1.0769    1.3181 H   0  0  0  0  0  0  0  0  0  0  0  0
   -1.2526   -2.2106   -0.2549 H   0  0  0  0  0  0  0  0  0  0  0  0
  1  2  1  0
  2  3  1  0
  3  4  1  0
  4  5  1  0
  5  6  1  0
  6  7  1  0
  7  8  1  0
  8  9  1  0
  9 10  1  0
 10 11  1  0
 11  4  1  0
 11  7  1  0
  1 12  1  0
  2 13  1  0
  2 14  1  0
  3 15  1  0
  3 16  1  0
  4 17  1  1
  5 18  1  0
  6 19  1  0
  7 20  1  1
  8 21  1  0
  8 22  1  0
  9 23  1  0
  9 24  1  0
 10 25  1  0
M  END
$$$$
