
     RDKit          3D

 26 27  0  0  0  0  0  0  0  0999 V2000
    4.5753    0.8058   -0.3544 C   0  0  0  0  0  0  0  0  0  0  0  0
    3.2040    0.3174   -0.3185 N   0  0  0  0  0  0  0  0  0  0  0  0
    2.2661    0.6197    0.5776 C   0  0  0  0  0  0  0  0  0  0  0  0
    1.0889   -0.0594    0.2526 C   0  0  0  0  0  0  0  0  0  0  0  0
   -0.1661    0.0038    0.9843 C   0  0  0  0  0  0  0  0  0  0  0  0
   -0.2673    0.7135    2.0083 O   0  0  0  0  0  0  0  0  0  0  0  0
   -1.3026   -0.7691    0.5098 C   0  0  1  0  0  0  0  0  0  0  0  0
   -2.5439   -0.6341    1.3326 C   0  0  0  0  0  0  0  0  0  0  0  0
   -3.6014   -0.3915    0.4740 O   0  0  0  0  0  0  0  0  0  0  0  0
   -3.1925   -0.9143   -0.7660 C   0  0  0  0  0  0  0  0  0  0  0  0
   -1.8105   -0.2629   -0.8465 C   0  0  1  0  0  0  0  0  0  0  0  0
   -2.0015    1.1543   -0.8021 N   0  0  0  0  0  0  0  0  0  0  0  0
    1.3961   -0.7518   -0.8536 N   0  0  0  0  0  0  0  0  0  0  0  0
    2.6566   -0.5112   -1.1721 N   0  0  0  0  0  0  0  0  0  0  0  0
    4.8561    1.2489    0.6184 H   0  0  0  0  0  0  0  0  0  0  0  0
    4.7379    1.5158   -1.1724 H   0  0  0  0  0  0  0  0  0  0  0  0
    5.2826   -0.0449   -0.5326 H   0  0  0  0  0  0  0  0  0  0  0  0
    2.3748    1.2824    1.4295 H   0  0  0  0  0  0  0  0  0  0  0  0
   -1.0446   -1.8503    0.3253 H   0  0  0  0  0  0  0  0  0  0  0  0
   -2.7513   -1.6080    1.8526 H   0  0  0  0  0  0  0  0  0  0  0  0
   -2.4204    0.1624    2.0946 H   0  0  0  0  0  0  0  0  0  0  0  0
   -3.8366   -0.6357   -1.5825 H   0  0  0  0  0  0  0  0  0  0  0  0
   -3.0191   -1.9867   -0.6235 H   0  0  0  0  0  0  0  0  0  0  0  0
   -1.2192   -0.6336   -1.6733 H   0  0  0  0  0  0  0  0  0  0  0  0
   -1.7927    1.6558   -1.6781 H   0  0  0  0  0  0  0  0  0  0  0  0
   -1.4687    1.5736   -0.0248 H   0  0  0  0  0  0  0  0  0  0  0  0
  1  2  1  0
  2  3  1  0
  3  4  2  0
  4  5  1  0
  5  6  2  0
  5  7  1  0
  7  8  1  0
  8  9  1  0
  9 10  1  0
 10 11  1  0
 11 12  1  0
  4 13  1  0
 13 14  2  0
 14  2  1  0
 11  7  1  0
  1 15  1  0
  1 16  1  0
  1 17  1  0
  3 18  1  0
  7 19  1  6
  8 20  1  0
  8 21  1  0
 10 22  1  0
 10 23  1  0
 11 24  1  6
 12 25  1  0
 12 26  1  0
M  END
$$$$

     RDKit          3D

 26 27  0  0  0  0  0  0  0  0999 V2000
    4.7315   -0.2611    0.7307 C   0  0  0  0  0  0  0  0  0  0  0  0
    3.3339   -0.5178    0.4231 N   0  0  0  0  0  0  0  0  0  0  0  0
    2.3925    0.4130    0.1832 C   0  0  0  0  0  0  0  0  0  0  0  0
    1.1896   -0.2303   -0.0690 C   0  0  0  0  0  0  0  0  0  0  0  0
   -0.0963    0.4072   -0.3779 C   0  0  0  0  0  0  0  0  0  0  0  0
   -0.1530    1.6555   -0.4277 O   0  0  0  0  0  0  0  0  0  0  0  0
   -1.2756   -0.4295   -0.6190 C   0  0  1  0  0  0  0  0  0  0  0  0
   -1.6362   -1.3025    0.5546 C   0  0  0  0  0  0  0  0  0  0  0  0
   -2.4432   -0.5148    1.3353 O   0  0  0  0  0  0  0  0  0  0  0  0
   -3.2038    0.2925    0.5276 C   0  0  0  0  0  0  0  0  0  0  0  0
   -2.5118    0.3957   -0.8067 C   0  0  1  0  0  0  0  0  0  0  0  0
   -2.2393    1.7771   -1.1307 N   0  0  0  0  0  0  0  0  0  0  0  0
    1.4618   -1.5395    0.0312 N   0  0  0  0  0  0  0  0  0  0  0  0
    2.7379   -1.6981    0.3237 N   0  0  0  0  0  0  0  0  0  0  0  0
    4.8455    0.7941    1.0666 H   0  0  0  0  0  0  0  0  0  0  0  0
    5.0750   -0.8885    1.5935 H   0  0  0  0  0  0  0  0  0  0  0  0
    5.3438   -0.3928   -0.1663 H   0  0  0  0  0  0  0  0  0  0  0  0
    2.5158    1.4886    0.1791 H   0  0  0  0  0  0  0  0  0  0  0  0
   -1.1403   -1.0551   -1.5358 H   0  0  0  0  0  0  0  0  0  0  0  0
   -2.2133   -2.1552    0.1674 H   0  0  0  0  0  0  0  0  0  0  0  0
   -0.7473   -1.6457    1.1196 H   0  0  0  0  0  0  0  0  0  0  0  0
   -3.2722    1.3002    1.0196 H   0  0  0  0  0  0  0  0  0  0  0  0
   -4.2507   -0.0475    0.4147 H   0  0  0  0  0  0  0  0  0  0  0  0
   -3.1730   -0.0801   -1.5782 H   0  0  0  0  0  0  0  0  0  0  0  0
   -2.2587    1.8378   -2.1896 H   0  0  0  0  0  0  0  0  0  0  0  0
   -3.0127    2.3966   -0.7691 H   0  0  0  0  0  0  0  0  0  0  0  0
  1  2  1  0
  2  3  1  0
  3  4  2  0
  4  5  1  0
  5  6  2  0
  5  7  1  0
  7  8  1  0
  8  9  1  0
  9 10  1  0
 10 11  1  0
 11 12  1  0
  4 13  1  0
 13 14  2  0
 14  2  1  0
 11  7  1  0
  1 15  1  0
  1 16  1  0
  1 17  1  0
  3 18  1  0
  7 19  1  6
  8 20  1  0
  8 21  1  0
 10 22  1  0
 10 23  1  0
 11 24  1  6
 12 25  1  0
 12 26  1  0
M  END
$$$$

     RDKit          3D

 26 27  0  0  0  0  0  0  0  0999 V2000
    4.7250   -0.4229    0.3282 C   0  0  0  0  0  0  0  0  0  0  0  0
    3.3377    0.0484    0.2264 N   0  0  0  0  0  0  0  0  0  0  0  0
    2.2171   -0.6232    0.5568 C   0  0  0  0  0  0  0  0  0  0  0  0
    1.1051    0.1555    0.3180 C   0  0  0  0  0  0  0  0  0  0  0  0
   -0.2807   -0.2157    0.5465 C   0  0  0  0  0  0  0  0  0  0  0  0
   -0.4944   -1.3634    1.0117 O   0  0  0  0  0  0  0  0  0  0  0  0
   -1.3551    0.7496    0.2291 C   0  0  1  0  0  0  0  0  0  0  0  0
   -1.2469    1.0264   -1.2588 C   0  0  0  0  0  0  0  0  0  0  0  0
   -1.6040   -0.2230   -1.7839 O   0  0  0  0  0  0  0  0  0  0  0  0
   -2.6695   -0.6830   -1.0298 C   0  0  0  0  0  0  0  0  0  0  0  0
   -2.7268    0.1230    0.2359 C   0  0  1  0  0  0  0  0  0  0  0  0
   -3.0744   -0.5813    1.3994 N   0  0  0  0  0  0  0  0  0  0  0  0
    1.6120    1.3084   -0.1644 N   0  0  0  0  0  0  0  0  0  0  0  0
    2.9333    1.2302   -0.2128 N   0  0  0  0  0  0  0  0  0  0  0  0
    5.2950    0.1422   -0.4460 H   0  0  0  0  0  0  0  0  0  0  0  0
    5.0961   -0.0761    1.3061 H   0  0  0  0  0  0  0  0  0  0  0  0
    4.7613   -1.5113    0.1875 H   0  0  0  0  0  0  0  0  0  0  0  0
    2.2516   -1.6426    0.9545 H   0  0  0  0  0  0  0  0  0  0  0  0
   -1.3142    1.6645    0.8244 H   0  0  0  0  0  0  0  0  0  0  0  0
   -2.0482    1.7572   -1.4965 H   0  0  0  0  0  0  0  0  0  0  0  0
   -0.2648    1.3389   -1.5939 H   0  0  0  0  0  0  0  0  0  0  0  0
   -2.5633   -1.7539   -0.7446 H   0  0  0  0  0  0  0  0  0  0  0  0
   -3.5997   -0.5729   -1.6474 H   0  0  0  0  0  0  0  0  0  0  0  0
   -3.4544    0.9464    0.0666 H   0  0  0  0  0  0  0  0  0  0  0  0
   -2.5491   -0.3798    2.2553 H   0  0  0  0  0  0  0  0  0  0  0  0
   -4.0887   -0.4414    1.6106 H   0  0  0  0  0  0  0  0  0  0  0  0
  1  2  1  0
  2  3  1  0
  3  4  2  0
  4  5  1  0
  5  6  2  0
  5  7  1  0
  7  8  1  0
  8  9  1  0
  9 10  1  0
 10 11  1  0
 11 12  1  0
  4 13  1  0
 13 14  2  0
 14  2  1  0
 11  7  1  0
  1 15  1  0
  1 16  1  0
  1 17  1  0
  3 18  1  0
  7 19  1  1
  8 20  1  0
  8 21  1  0
 10 22  1  0
 10 23  1  0
 11 24  1  6
 12 25  1  0
 12 26  1  0
M  END
$$$$

     RDKit          3D

 26 27  0  0  0  0  0  0  0  0999 V2000
    4.7447    0.4494   -0.3786 C   0  0  0  0  0  0  0  0  0  0  0  0
    3.3362    0.3971    0.0313 N   0  0  0  0  0  0  0  0  0  0  0  0
    2.3251   -0.2744   -0.5457 C   0  0  0  0  0  0  0  0  0  0  0  0
    1.1516   -0.0443    0.1721 C   0  0  0  0  0  0  0  0  0  0  0  0
   -0.1769   -0.5788   -0.1079 C   0  0  0  0  0  0  0  0  0  0  0  0
   -0.3138   -1.3349   -1.1005 O   0  0  0  0  0  0  0  0  0  0  0  0
   -1.2803   -0.2002    0.7900 C   0  0  1  0  0  0  0  0  0  0  0  0
   -1.4221    1.2991    0.7482 C   0  0  0  0  0  0  0  0  0  0  0  0
   -2.7284    1.5934    0.4502 O   0  0  0  0  0  0  0  0  0  0  0  0
   -3.2838    0.5084   -0.2070 C   0  0  0  0  0  0  0  0  0  0  0  0
   -2.6102   -0.7178    0.3506 C   0  0  1  0  0  0  0  0  0  0  0  0
   -2.4855   -1.6925   -0.6984 N   0  0  0  0  0  0  0  0  0  0  0  0
    1.5278    0.7776    1.1732 N   0  0  0  0  0  0  0  0  0  0  0  0
    2.8094    1.0216    1.0701 N   0  0  0  0  0  0  0  0  0  0  0  0
    5.0881    1.4913   -0.3605 H   0  0  0  0  0  0  0  0  0  0  0  0
    4.8723   -0.0525   -1.3412 H   0  0  0  0  0  0  0  0  0  0  0  0
    5.2957   -0.1489    0.4026 H   0  0  0  0  0  0  0  0  0  0  0  0
    2.3845   -0.8914   -1.4142 H   0  0  0  0  0  0  0  0  0  0  0  0
   -1.0371   -0.5631    1.8000 H   0  0  0  0  0  0  0  0  0  0  0  0
   -0.7354    1.7604   -0.0109 H   0  0  0  0  0  0  0  0  0  0  0  0
   -1.1524    1.7681    1.7152 H   0  0  0  0  0  0  0  0  0  0  0  0
   -3.2067    0.5851   -1.3082 H   0  0  0  0  0  0  0  0  0  0  0  0
   -4.3677    0.4185    0.0424 H   0  0  0  0  0  0  0  0  0  0  0  0
   -3.1933   -1.1070    1.2222 H   0  0  0  0  0  0  0  0  0  0  0  0
   -2.1082   -2.6068   -0.3054 H   0  0  0  0  0  0  0  0  0  0  0  0
   -3.4338   -1.8574   -1.1450 H   0  0  0  0  0  0  0  0  0  0  0  0
  1  2  1  0
  2  3  1  0
  3  4  2  0
  4  5  1  0
  5  6  2  0
  5  7  1  0
  7  8  1  0
  8  9  1  0
  9 10  1  0
 10 11  1  0
 11 12  1  0
  4 13  1  0
 13 14  2  0
 14  2  1  0
 11  7  1  0
  1 15  1  0
  1 16  1  0
  1 17  1  0
  3 18  1  0
  7 19  1  1
  8 20  1  0
  8 21  1  0
 10 22  1  0
 10 23  1  0
 11 24  1  1
 12 25  1  0
 12 26  1  0
M  END
$$$$

     RDKit          3D

 26 27  0  0  0  0  0  0  0  0999 V2000
    3.9562    0.7107   -0.4172 C   0  0  0  0  0  0  0  0  0  0  0  0
    2.9948   -0.4015   -0.3275 N   0  0  0  0  0  0  0  0  0  0  0  0
    1.7318   -0.3131   -0.4187 C   0  0  0  0  0  0  0  0  0  0  0  0
    1.0333   -1.8404   -0.2541 C   0  0  0  0  0  0  0  0  0  0  0  0
   -0.3467   -1.3989   -0.4002 C   0  0  0  0  0  0  0  0  0  0  0  0
   -1.1345   -2.5078   -0.4008 O   0  0  0  0  0  0  0  0  0  0  0  0
   -1.0529   -0.2011   -0.5284 C   0  0  1  0  0  0  0  0  0  0  0  0
   -2.5850   -0.4250   -0.7078 C   0  0  0  0  0  0  0  0  0  0  0  0
   -3.1357    0.8146   -0.5164 O   0  0  0  0  0  0  0  0  0  0  0  0
   -2.2610    1.6054    0.2154 C   0  0  0  0  0  0  0  0  0  0  0  0
   -1.2092    0.6255    0.7667 C   0  0  1  0  0  0  0  0  0  0  0  0
   -1.8708   -0.1974    1.7395 N   0  0  0  0  0  0  0  0  0  0  0  0
    2.1945   -2.2118   -0.1312 N   0  0  0  0  0  0  0  0  0  0  0  0
    3.3102   -1.6766   -0.1341 N   0  0  0  0  0  0  0  0  0  0  0  0
    4.2370    0.8779   -1.4587 H   0  0  0  0  0  0  0  0  0  0  0  0
    3.5150    1.6556   -0.0211 H   0  0  0  0  0  0  0  0  0  0  0  0
    4.8032    0.4839    0.2495 H   0  0  0  0  0  0  0  0  0  0  0  0
    1.0960    0.4669   -0.5750 H   0  0  0  0  0  0  0  0  0  0  0  0
   -0.7134    0.5069   -1.3077 H   0  0  0  0  0  0  0  0  0  0  0  0
   -2.7906   -0.8946   -1.6644 H   0  0  0  0  0  0  0  0  0  0  0  0
   -2.8486   -1.0777    0.1481 H   0  0  0  0  0  0  0  0  0  0  0  0
   -1.7108    2.2278   -0.5130 H   0  0  0  0  0  0  0  0  0  0  0  0
   -2.7261    2.2161    0.9883 H   0  0  0  0  0  0  0  0  0  0  0  0
   -0.3226    1.1181    1.1006 H   0  0  0  0  0  0  0  0  0  0  0  0
   -1.3302   -0.2831    2.6257 H   0  0  0  0  0  0  0  0  0  0  0  0
   -2.8339    0.1198    1.9425 H   0  0  0  0  0  0  0  0  0  0  0  0
  1  2  1  0
  2  3  1  0
  3  4  2  0
  4  5  1  0
  5  6  2  0
  5  7  1  0
  7  8  1  0
  8  9  1  0
  9 10  1  0
 10 11  1  0
 11 12  1  0
  4 13  1  0
 13 14  2  0
 14  2  1  0
 11  7  1  0
  1 15  1  0
  1 16  1  0
  1 17  1  0
  3 18  1  0
  7 19  1  6
  8 20  1  0
  8 21  1  0
 10 22  1  0
 10 23  1  0
 11 24  1  1
 12 25  1  0
 12 26  1  0
M  END
$$$$

     RDKit          3D

 26 27  0  0  0  0  0  0  0  0999 V2000
    4.4547   -0.7733   -0.2807 C   0  0  0  0  0  0  0  0  0  0  0  0
    3.0180   -0.5807   -0.3179 N   0  0  0  0  0  0  0  0  0  0  0  0
    2.3841    0.3825    0.3704 C   0  0  0  0  0  0  0  0  0  0  0  0
    1.0221    0.2794    0.1058 C   0  0  0  0  0  0  0  0  0  0  0  0
   -0.0210    1.1250    0.6449 C   0  0  0  0  0  0  0  0  0  0  0  0
    0.3332    2.0734    1.4411 O   0  0  0  0  0  0  0  0  0  0  0  0
   -1.4539    1.0315    0.3932 C   0  0  1  0  0  0  0  0  0  0  0  0
   -1.8256    1.0858   -1.0881 C   0  0  0  0  0  0  0  0  0  0  0  0
   -3.0783    0.5158   -1.1912 O   0  0  0  0  0  0  0  0  0  0  0  0
   -3.4341   -0.0666   -0.0001 C   0  0  0  0  0  0  0  0  0  0  0  0
   -2.1234   -0.2515    0.7909 C   0  0  1  0  0  0  0  0  0  0  0  0
   -1.4281   -1.3646    0.2561 N   0  0  0  0  0  0  0  0  0  0  0  0
    0.9198   -0.7531   -0.7362 N   0  0  0  0  0  0  0  0  0  0  0  0
    2.1156   -1.2635   -0.9862 N   0  0  0  0  0  0  0  0  0  0  0  0
    4.9778    0.0089   -0.8701 H   0  0  0  0  0  0  0  0  0  0  0  0
    4.7320   -1.8016   -0.5767 H   0  0  0  0  0  0  0  0  0  0  0  0
    4.7653   -0.6699    0.7864 H   0  0  0  0  0  0  0  0  0  0  0  0
    2.8101    1.1282    1.0255 H   0  0  0  0  0  0  0  0  0  0  0  0
   -2.0076    1.9181    0.8251 H   0  0  0  0  0  0  0  0  0  0  0  0
   -1.7695    2.0901   -1.5019 H   0  0  0  0  0  0  0  0  0  0  0  0
   -1.0906    0.4312   -1.6280 H   0  0  0  0  0  0  0  0  0  0  0  0
   -3.9557   -1.0263   -0.0919 H   0  0  0  0  0  0  0  0  0  0  0  0
   -4.0467    0.6491    0.6011 H   0  0  0  0  0  0  0  0  0  0  0  0
   -2.3357   -0.3142    1.8737 H   0  0  0  0  0  0  0  0  0  0  0  0
   -1.1141   -2.0704    0.9406 H   0  0  0  0  0  0  0  0  0  0  0  0
   -1.8486   -1.7832   -0.5964 H   0  0  0  0  0  0  0  0  0  0  0  0
  1  2  1  0
  2  3  1  0
  3  4  2  0
  4  5  1  0
  5  6  2  0
  5  7  1  0
  7  8  1  0
  8  9  1  0
  9 10  1  0
 10 11  1  0
 11 12  1  0
  4 13  1  0
 13 14  2  0
 14  2  1  0
 11  7  1  0
  1 15  1  0
  1 16  1  0
  1 17  1  0
  3 18  1  0
  7 19  1  1
  8 20  1  0
  8 21  1  0
 10 22  1  0
 10 23  1  0
 11 24  1  1
 12 25  1  0
 12 26  1  0
M  END
$$$$

     RDKit          3D

 26 27  0  0  0  0  0  0  0  0999 V2000
    4.7026   -0.0224    0.0467 C   0  0  0  0  0  0  0  0  0  0  0  0
    3.2886    0.0418   -0.2694 N   0  0  0  0  0  0  0  0  0  0  0  0
    2.3002    0.2487    0.6067 C   0  0  0  0  0  0  0  0  0  0  0  0
    1.1228    0.2358   -0.1054 C   0  0  0  0  0  0  0  0  0  0  0  0
   -0.2221    0.4179    0.4137 C   0  0  0  0  0  0  0  0  0  0  0  0
   -0.3782    0.6131    1.6375 O   0  0  0  0  0  0  0  0  0  0  0  0
   -1.3614    0.3692   -0.5007 C   0  0  1  0  0  0  0  0  0  0  0  0
   -1.4033   -0.9944   -1.1549 C   0  0  0  0  0  0  0  0  0  0  0  0
   -1.8281   -1.7984   -0.1013 O   0  0  0  0  0  0  0  0  0  0  0  0
   -2.7968   -1.1092    0.5855 C   0  0  0  0  0  0  0  0  0  0  0  0
   -2.6949    0.3402    0.2323 C   0  0  1  0  0  0  0  0  0  0  0  0
   -2.6906    1.2064    1.3883 N   0  0  0  0  0  0  0  0  0  0  0  0
    1.4636    0.0187   -1.3928 N   0  0  0  0  0  0  0  0  0  0  0  0
    2.7671   -0.0926   -1.4552 N   0  0  0  0  0  0  0  0  0  0  0  0
    4.9070   -0.5162    1.0030 H   0  0  0  0  0  0  0  0  0  0  0  0
    5.2237   -0.5922   -0.7412 H   0  0  0  0  0  0  0  0  0  0  0  0
    5.1231    1.0011    0.0600 H   0  0  0  0  0  0  0  0  0  0  0  0
    2.3683    0.4038    1.6916 H   0  0  0  0  0  0  0  0  0  0  0  0
   -1.3195    1.1891   -1.2415 H   0  0  0  0  0  0  0  0  0  0  0  0
   -0.4537   -1.3533   -1.5397 H   0  0  0  0  0  0  0  0  0  0  0  0
   -2.1956   -0.9254   -1.9519 H   0  0  0  0  0  0  0  0  0  0  0  0
   -2.6821   -1.2464    1.6876 H   0  0  0  0  0  0  0  0  0  0  0  0
   -3.8109   -1.5327    0.3423 H   0  0  0  0  0  0  0  0  0  0  0  0
   -3.4687    0.5881   -0.5023 H   0  0  0  0  0  0  0  0  0  0  0  0
   -2.2681    2.1157    1.0899 H   0  0  0  0  0  0  0  0  0  0  0  0
   -3.6930    1.3937    1.6304 H   0  0  0  0  0  0  0  0  0  0  0  0
  1  2  1  0
  2  3  1  0
  3  4  2  0
  4  5  1  0
  5  6  2  0
  5  7  1  0
  7  8  1  0
  8  9  1  0
  9 10  1  0
 10 11  1  0
 11 12  1  0
  4 13  1  0
 13 14  2  0
 14  2  1  0
 11  7  1  0
  1 15  1  0
  1 16  1  0
  1 17  1  0
  3 18  1  0
  7 19  1  6
  8 20  1  0
  8 21  1  0
 10 22  1  0
 10 23  1  0
 11 24  1  6
 12 25  1  0
 12 26  1  0
M  END
$$$$

     RDKit          3D

 26 27  0  0  0  0  0  0  0  0999 V2000
    4.8176    0.2117    0.3150 C   0  0  0  0  0  0  0  0  0  0  0  0
    3.3782    0.2287    0.5641 N   0  0  0  0  0  0  0  0  0  0  0  0
    2.4510   -0.3669   -0.1906 C   0  0  0  0  0  0  0  0  0  0  0  0
    1.1835   -0.1352    0.3558 C   0  0  0  0  0  0  0  0  0  0  0  0
   -0.0838   -0.6061   -0.1581 C   0  0  0  0  0  0  0  0  0  0  0  0
   -0.1187   -1.2964   -1.1943 O   0  0  0  0  0  0  0  0  0  0  0  0
   -1.3250   -0.2647    0.5497 C   0  0  1  0  0  0  0  0  0  0  0  0
   -1.5612    1.2193    0.6466 C   0  0  0  0  0  0  0  0  0  0  0  0
   -2.7903    1.4986    0.1170 O   0  0  0  0  0  0  0  0  0  0  0  0
   -3.5520    0.3364    0.1540 C   0  0  0  0  0  0  0  0  0  0  0  0
   -2.5566   -0.7423   -0.1707 C   0  0  1  0  0  0  0  0  0  0  0  0
   -2.2706   -0.7864   -1.5819 N   0  0  0  0  0  0  0  0  0  0  0  0
    1.4318    0.6140    1.4478 N   0  0  0  0  0  0  0  0  0  0  0  0
    2.7418    0.8153    1.5481 N   0  0  0  0  0  0  0  0  0  0  0  0
    5.3288    0.1825    1.2890 H   0  0  0  0  0  0  0  0  0  0  0  0
    5.0830    1.1558   -0.2360 H   0  0  0  0  0  0  0  0  0  0  0  0
    5.1001   -0.6573   -0.3074 H   0  0  0  0  0  0  0  0  0  0  0  0
    2.5802   -0.9498   -1.0902 H   0  0  0  0  0  0  0  0  0  0  0  0
   -1.2940   -0.6813    1.5779 H   0  0  0  0  0  0  0  0  0  0  0  0
   -0.7923    1.7491    0.0474 H   0  0  0  0  0  0  0  0  0  0  0  0
   -1.4660    1.5786    1.6897 H   0  0  0  0  0  0  0  0  0  0  0  0
   -4.3048    0.3484   -0.6615 H   0  0  0  0  0  0  0  0  0  0  0  0
   -4.0173    0.1403    1.1255 H   0  0  0  0  0  0  0  0  0  0  0  0
   -2.8722   -1.7277    0.2337 H   0  0  0  0  0  0  0  0  0  0  0  0
   -2.8126   -0.1069   -2.1468 H   0  0  0  0  0  0  0  0  0  0  0  0
   -2.2787   -1.7576   -1.9620 H   0  0  0  0  0  0  0  0  0  0  0  0
  1  2  1  0
  2  3  1  0
  3  4  2  0
  4  5  1  0
  5  6  2  0
  5  7  1  0
  7  8  1  0
  8  9  1  0
  9 10  1  0
 10 11  1  0
 11 12  1  0
  4 13  1  0
 13 14  2  0
 14  2  1  0
 11  7  1  0
  1 15  1  0
  1 16  1  0
  1 17  1  0
  3 18  1  0
  7 19  1  1
  8 20  1  0
  8 21  1  0
 10 22  1  0
 10 23  1  0
 11 24  1  1
 12 25  1  0
 12 26  1  0
M  END
$$$$
