
     RDKit          3D

 21 23  0  0  0  0  0  0  0  0999 V2000
    1.6909   -2.4654    1.3816 O   0  0  0  0  0  0  0  0  0  0  0  0
    1.5269   -1.3521    0.8344 C   0  0  0  0  0  0  0  0  0  0  0  0
    2.3843   -0.2554    0.8520 O   0  0  0  0  0  0  0  0  0  0  0  0
    2.1282    0.4885   -0.3205 C   0  0  0  0  0  0  0  0  0  0  0  0
    0.6956    0.2342   -0.6297 C   0  0  2  0  0  0  0  0  0  0  0  0
   -0.2424    1.2700   -0.1003 C   0  0  2  0  0  0  0  0  0  0  0  0
    0.1410    1.5917    1.2204 O   0  0  0  0  0  0  0  0  0  0  0  0
   -1.6587    0.8282   -0.0575 C   0  0  1  0  0  0  0  0  0  0  0  0
   -2.2569    0.2130   -1.1312 O   0  0  0  0  0  0  0  0  0  0  0  0
   -1.9820   -0.5444    0.0117 C   0  0  1  0  0  0  0  0  0  0  0  0
   -0.9207   -1.5684   -0.1670 C   0  0  0  0  0  0  0  0  0  0  0  0
    0.3820   -1.0196    0.0724 N   0  0  0  0  0  0  0  0  0  0  0  0
    2.8113    0.0677   -1.1069 H   0  0  0  0  0  0  0  0  0  0  0  0
    2.3803    1.5425   -0.1858 H   0  0  0  0  0  0  0  0  0  0  0  0
    0.5606    0.1060   -1.7270 H   0  0  0  0  0  0  0  0  0  0  0  0
   -0.1166    2.1942   -0.7162 H   0  0  0  0  0  0  0  0  0  0  0  0
   -0.3653    2.4118    1.4480 H   0  0  0  0  0  0  0  0  0  0  0  0
   -2.3402    1.5605    0.4630 H   0  0  0  0  0  0  0  0  0  0  0  0
   -2.8470   -0.8754    0.6434 H   0  0  0  0  0  0  0  0  0  0  0  0
   -1.0549   -2.4855    0.4480 H   0  0  0  0  0  0  0  0  0  0  0  0
   -0.9164   -1.9421   -1.2330 H   0  0  0  0  0  0  0  0  0  0  0  0
  1  2  2  0
  2  3  1  0
  3  4  1  0
  4  5  1  0
  5  6  1  0
  6  7  1  0
  6  8  1  0
  8  9  1  0
  9 10  1  0
 10 11  1  0
 11 12  1  0
 12  2  1  0
 12  5  1  0
 10  8  1  0
  4 13  1  0
  4 14  1  0
  5 15  1  6
  6 16  1  6
  7 17  1  0
  8 18  1  1
 10 19  1  1
 11 20  1  0
 11 21  1  0
M  END
$$$$

     RDKit          3D

 21 23  0  0  0  0  0  0  0  0999 V2000
    1.5461    3.0473   -0.6472 O   0  0  0  0  0  0  0  0  0  0  0  0
    1.4933    1.7954   -0.4449 C   0  0  0  0  0  0  0  0  0  0  0  0
    2.5737    0.9330   -0.4541 O   0  0  0  0  0  0  0  0  0  0  0  0
    2.1779   -0.3880   -0.1611 C   0  0  0  0  0  0  0  0  0  0  0  0
    0.8154   -0.2225    0.4046 C   0  0  2  0  0  0  0  0  0  0  0  0
   -0.1388   -1.3269    0.0943 C   0  0  2  0  0  0  0  0  0  0  0  0
   -0.1804   -1.5870   -1.2744 O   0  0  0  0  0  0  0  0  0  0  0  0
   -1.4918   -0.9773    0.6299 C   0  0  1  0  0  0  0  0  0  0  0  0
   -1.4317   -0.0312    1.7771 O   0  0  0  0  0  0  0  0  0  0  0  0
   -1.9115    0.3425    0.5261 C   0  0  1  0  0  0  0  0  0  0  0  0
   -1.0582    1.2230   -0.3544 C   0  0  0  0  0  0  0  0  0  0  0  0
    0.3446    1.0060   -0.1689 N   0  0  0  0  0  0  0  0  0  0  0  0
    2.2459   -1.0731   -1.0158 H   0  0  0  0  0  0  0  0  0  0  0  0
    2.8670   -0.7373    0.6615 H   0  0  0  0  0  0  0  0  0  0  0  0
    0.8513   -0.1058    1.5091 H   0  0  0  0  0  0  0  0  0  0  0  0
    0.1859   -2.2752    0.5910 H   0  0  0  0  0  0  0  0  0  0  0  0
   -1.1082   -1.7725   -1.5506 H   0  0  0  0  0  0  0  0  0  0  0  0
   -2.1595   -1.8174    0.9002 H   0  0  0  0  0  0  0  0  0  0  0  0
   -2.9760    0.6402    0.5392 H   0  0  0  0  0  0  0  0  0  0  0  0
   -1.3405    1.0352   -1.4170 H   0  0  0  0  0  0  0  0  0  0  0  0
   -1.3045    2.2914   -0.1446 H   0  0  0  0  0  0  0  0  0  0  0  0
  1  2  2  0
  2  3  1  0
  3  4  1  0
  4  5  1  0
  5  6  1  0
  6  7  1  0
  6  8  1  0
  8  9  1  0
  9 10  1  0
 10 11  1  0
 11 12  1  0
 12  2  1  0
 12  5  1  0
 10  8  1  0
  4 13  1  0
  4 14  1  0
  5 15  1  1
  6 16  1  1
  7 17  1  0
  8 18  1  1
 10 19  1  1
 11 20  1  0
 11 21  1  0
M  END
$$$$

     RDKit          3D

 21 23  0  0  0  0  0  0  0  0999 V2000
   -0.3596   -3.2277   -0.9377 O   0  0  0  0  0  0  0  0  0  0  0  0
   -0.7414   -2.0670   -0.5577 C   0  0  0  0  0  0  0  0  0  0  0  0
   -2.0173   -1.5545   -0.8282 O   0  0  0  0  0  0  0  0  0  0  0  0
   -2.0721   -0.2171   -0.3490 C   0  0  0  0  0  0  0  0  0  0  0  0
   -0.8642   -0.0520    0.5387 C   0  0  2  0  0  0  0  0  0  0  0  0
   -0.1427    1.2369    0.3471 C   0  0  2  0  0  0  0  0  0  0  0  0
   -1.0009    2.1575   -0.2983 O   0  0  0  0  0  0  0  0  0  0  0  0
    1.1221    1.1503   -0.4230 C   0  0  1  0  0  0  0  0  0  0  0  0
    2.2828    1.2981    0.4038 O   0  0  0  0  0  0  0  0  0  0  0  0
    2.0353    0.0825   -0.1509 C   0  0  1  0  0  0  0  0  0  0  0  0
    1.3931   -1.0382    0.5936 C   0  0  0  0  0  0  0  0  0  0  0  0
    0.0197   -1.1301    0.1724 N   0  0  0  0  0  0  0  0  0  0  0  0
   -2.1323    0.5292   -1.1374 H   0  0  0  0  0  0  0  0  0  0  0  0
   -3.0133   -0.1682    0.2741 H   0  0  0  0  0  0  0  0  0  0  0  0
   -1.1842   -0.2353    1.5921 H   0  0  0  0  0  0  0  0  0  0  0  0
    0.0077    1.6832    1.3747 H   0  0  0  0  0  0  0  0  0  0  0  0
   -0.5693    3.0695   -0.2900 H   0  0  0  0  0  0  0  0  0  0  0  0
    1.1642    1.6545   -1.4098 H   0  0  0  0  0  0  0  0  0  0  0  0
    2.7466   -0.2260   -0.9490 H   0  0  0  0  0  0  0  0  0  0  0  0
    1.4451   -0.9281    1.6950 H   0  0  0  0  0  0  0  0  0  0  0  0
    1.8807   -2.0177    0.3395 H   0  0  0  0  0  0  0  0  0  0  0  0
  1  2  2  0
  2  3  1  0
  3  4  1  0
  4  5  1  0
  5  6  1  0
  6  7  1  0
  6  8  1  0
  8  9  1  0
  9 10  1  0
 10 11  1  0
 11 12  1  0
 12  2  1  0
 12  5  1  0
 10  8  1  0
  4 13  1  0
  4 14  1  0
  5 15  1  1
  6 16  1  1
  7 17  1  0
  8 18  1  6
 10 19  1  6
 11 20  1  0
 11 21  1  0
M  END
$$$$

     RDKit          3D

 21 23  0  0  0  0  0  0  0  0999 V2000
    2.3743    2.0125   -1.3319 O   0  0  0  0  0  0  0  0  0  0  0  0
    1.8945    0.9487   -0.8438 C   0  0  0  0  0  0  0  0  0  0  0  0
    2.4994   -0.3207   -0.8063 O   0  0  0  0  0  0  0  0  0  0  0  0
    1.9473   -1.0732    0.2527 C   0  0  0  0  0  0  0  0  0  0  0  0
    0.6475   -0.4108    0.5035 C   0  0  2  0  0  0  0  0  0  0  0  0
   -0.5530   -1.1903    0.0268 C   0  0  2  0  0  0  0  0  0  0  0  0
   -0.5691   -1.1833   -1.3864 O   0  0  0  0  0  0  0  0  0  0  0  0
   -1.7815   -0.4435    0.4677 C   0  0  1  0  0  0  0  0  0  0  0  0
   -1.5629    0.3677    1.7107 O   0  0  0  0  0  0  0  0  0  0  0  0
   -1.6923    0.9815    0.4813 C   0  0  1  0  0  0  0  0  0  0  0  0
   -0.5430    1.6416   -0.1923 C   0  0  0  0  0  0  0  0  0  0  0  0
    0.6406    0.8484   -0.2385 N   0  0  0  0  0  0  0  0  0  0  0  0
    1.9213   -2.1439    0.0652 H   0  0  0  0  0  0  0  0  0  0  0  0
    2.6088   -0.8727    1.1461 H   0  0  0  0  0  0  0  0  0  0  0  0
    0.4742   -0.1491    1.5553 H   0  0  0  0  0  0  0  0  0  0  0  0
   -0.5908   -2.2186    0.3818 H   0  0  0  0  0  0  0  0  0  0  0  0
   -1.1780   -1.8644   -1.7502 H   0  0  0  0  0  0  0  0  0  0  0  0
   -2.7394   -0.9695    0.5133 H   0  0  0  0  0  0  0  0  0  0  0  0
   -2.6542    1.5681    0.3960 H   0  0  0  0  0  0  0  0  0  0  0  0
   -0.8474    1.8523   -1.2523 H   0  0  0  0  0  0  0  0  0  0  0  0
   -0.2965    2.6190    0.3011 H   0  0  0  0  0  0  0  0  0  0  0  0
  1  2  2  0
  2  3  1  0
  3  4  1  0
  4  5  1  0
  5  6  1  0
  6  7  1  0
  6  8  1  0
  8  9  1  0
  9 10  1  0
 10 11  1  0
 11 12  1  0
 12  2  1  0
 12  5  1  0
 10  8  1  0
  4 13  1  0
  4 14  1  0
  5 15  1  1
  6 16  1  1
  7 17  1  0
  8 18  1  1
 10 19  1  1
 11 20  1  0
 11 21  1  0
M  END
$$$$

     RDKit          3D

 21 23  0  0  0  0  0  0  0  0999 V2000
    0.6235    3.1031   -1.1731 O   0  0  0  0  0  0  0  0  0  0  0  0
    0.8610    2.0121   -0.5686 C   0  0  0  0  0  0  0  0  0  0  0  0
    2.1626    1.5807   -0.3182 O   0  0  0  0  0  0  0  0  0  0  0  0
    2.1454    0.3808    0.4252 C   0  0  0  0  0  0  0  0  0  0  0  0
    0.6957    0.0442    0.5943 C   0  0  2  0  0  0  0  0  0  0  0  0
    0.3144   -1.2682   -0.0558 C   0  0  2  0  0  0  0  0  0  0  0  0
    0.5444   -1.1200   -1.4355 O   0  0  0  0  0  0  0  0  0  0  0  0
   -1.1441   -1.4913    0.1636 C   0  0  1  0  0  0  0  0  0  0  0  0
   -1.6850   -0.9571    1.4155 O   0  0  0  0  0  0  0  0  0  0  0  0
   -2.0142   -0.3943    0.1860 C   0  0  1  0  0  0  0  0  0  0  0  0
   -1.4918    0.9783   -0.0772 C   0  0  0  0  0  0  0  0  0  0  0  0
   -0.0695    1.0810   -0.0633 N   0  0  0  0  0  0  0  0  0  0  0  0
    2.6657   -0.4304   -0.1276 H   0  0  0  0  0  0  0  0  0  0  0  0
    2.6130    0.5104    1.4267 H   0  0  0  0  0  0  0  0  0  0  0  0
    0.3952    0.0089    1.6613 H   0  0  0  0  0  0  0  0  0  0  0  0
    0.9530   -2.0981    0.2739 H   0  0  0  0  0  0  0  0  0  0  0  0
    0.8194   -1.9536   -1.8601 H   0  0  0  0  0  0  0  0  0  0  0  0
   -1.4959   -2.5090   -0.0872 H   0  0  0  0  0  0  0  0  0  0  0  0
   -3.0915   -0.5231   -0.1281 H   0  0  0  0  0  0  0  0  0  0  0  0
   -1.9248    1.4062   -1.0048 H   0  0  0  0  0  0  0  0  0  0  0  0
   -1.8766    1.6395    0.7532 H   0  0  0  0  0  0  0  0  0  0  0  0
  1  2  2  0
  2  3  1  0
  3  4  1  0
  4  5  1  0
  5  6  1  0
  6  7  1  0
  6  8  1  0
  8  9  1  0
  9 10  1  0
 10 11  1  0
 11 12  1  0
 12  2  1  0
 12  5  1  0
 10  8  1  0
  4 13  1  0
  4 14  1  0
  5 15  1  1
  6 16  1  1
  7 17  1  0
  8 18  1  6
 10 19  1  6
 11 20  1  0
 11 21  1  0
M  END
$$$$

     RDKit          3D

 21 23  0  0  0  0  0  0  0  0999 V2000
   -2.4943   -2.3358    0.8046 O   0  0  0  0  0  0  0  0  0  0  0  0
   -1.9926   -1.2019    0.5684 C   0  0  0  0  0  0  0  0  0  0  0  0
   -2.7620   -0.0401    0.3523 O   0  0  0  0  0  0  0  0  0  0  0  0
   -1.8667    0.8715   -0.2915 C   0  0  0  0  0  0  0  0  0  0  0  0
   -0.5915    0.5781    0.4750 C   0  0  2  0  0  0  0  0  0  0  0  0
    0.6186    1.1985   -0.0826 C   0  0  2  0  0  0  0  0  0  0  0  0
    0.2470    1.9409   -1.2175 O   0  0  0  0  0  0  0  0  0  0  0  0
    1.7304    0.3128   -0.4615 C   0  0  1  0  0  0  0  0  0  0  0  0
    2.5120   -0.2361    0.6502 O   0  0  0  0  0  0  0  0  0  0  0  0
    1.7070   -1.0620   -0.2877 C   0  0  1  0  0  0  0  0  0  0  0  0
    0.5482   -1.6939    0.3905 C   0  0  0  0  0  0  0  0  0  0  0  0
   -0.6108   -0.8643    0.4732 N   0  0  0  0  0  0  0  0  0  0  0  0
   -1.6996    0.5196   -1.3320 H   0  0  0  0  0  0  0  0  0  0  0  0
   -2.1888    1.9074   -0.2093 H   0  0  0  0  0  0  0  0  0  0  0  0
   -0.7976    0.9129    1.5326 H   0  0  0  0  0  0  0  0  0  0  0  0
    0.9841    1.9757    0.6508 H   0  0  0  0  0  0  0  0  0  0  0  0
    0.6658    2.8277   -1.2407 H   0  0  0  0  0  0  0  0  0  0  0  0
    2.4663    0.7768   -1.1817 H   0  0  0  0  0  0  0  0  0  0  0  0
    2.3467   -1.7293   -0.9154 H   0  0  0  0  0  0  0  0  0  0  0  0
    0.3322   -2.6826   -0.1116 H   0  0  0  0  0  0  0  0  0  0  0  0
    0.8455   -1.9759    1.4340 H   0  0  0  0  0  0  0  0  0  0  0  0
  1  2  2  0
  2  3  1  0
  3  4  1  0
  4  5  1  0
  5  6  1  0
  6  7  1  0
  6  8  1  0
  8  9  1  0
  9 10  1  0
 10 11  1  0
 11 12  1  0
 12  2  1  0
 12  5  1  0
 10  8  1  0
  4 13  1  0
  4 14  1  0
  5 15  1  1
  6 16  1  1
  7 17  1  0
  8 18  1  6
 10 19  1  6
 11 20  1  0
 11 21  1  0
M  END
$$$$

     RDKit          3D

 21 23  0  0  0  0  0  0  0  0999 V2000
   -2.4354    2.3232    0.8319 O   0  0  0  0  0  0  0  0  0  0  0  0
   -2.0405    1.1643    0.4990 C   0  0  0  0  0  0  0  0  0  0  0  0
   -2.7975    0.0330    0.2219 O   0  0  0  0  0  0  0  0  0  0  0  0
   -1.9237   -1.0799   -0.0287 C   0  0  0  0  0  0  0  0  0  0  0  0
   -0.7075   -0.3751   -0.5342 C   0  0  2  0  0  0  0  0  0  0  0  0
    0.5563   -1.1250   -0.4582 C   0  0  2  0  0  0  0  0  0  0  0  0
    0.8201   -1.7239    0.7546 O   0  0  0  0  0  0  0  0  0  0  0  0
    1.7058   -0.1830   -0.7680 C   0  0  1  0  0  0  0  0  0  0  0  0
    1.3154    1.0383   -1.4714 O   0  0  0  0  0  0  0  0  0  0  0  0
    1.7377    1.0231   -0.0774 C   0  0  1  0  0  0  0  0  0  0  0  0
    0.5881    1.3279    0.8332 C   0  0  0  0  0  0  0  0  0  0  0  0
   -0.6693    0.8048    0.3436 N   0  0  0  0  0  0  0  0  0  0  0  0
   -2.3632   -1.8038   -0.7200 H   0  0  0  0  0  0  0  0  0  0  0  0
   -1.7840   -1.5693    0.9497 H   0  0  0  0  0  0  0  0  0  0  0  0
   -0.8892   -0.0325   -1.5491 H   0  0  0  0  0  0  0  0  0  0  0  0
    0.5462   -1.9312   -1.2272 H   0  0  0  0  0  0  0  0  0  0  0  0
    1.7393   -2.1216    0.6866 H   0  0  0  0  0  0  0  0  0  0  0  0
    2.5998   -0.6660   -1.1869 H   0  0  0  0  0  0  0  0  0  0  0  0
    2.6522    1.5965    0.1214 H   0  0  0  0  0  0  0  0  0  0  0  0
    0.8401    0.8778    1.8365 H   0  0  0  0  0  0  0  0  0  0  0  0
    0.5092    2.4224    0.9426 H   0  0  0  0  0  0  0  0  0  0  0  0
  1  2  2  0
  2  3  1  0
  3  4  1  0
  4  5  1  0
  5  6  1  0
  6  7  1  0
  6  8  1  0
  8  9  1  0
  9 10  1  0
 10 11  1  0
 11 12  1  0
 12  2  1  0
 12  5  1  0
 10  8  1  0
  4 13  1  0
  4 14  1  0
  5 15  1  6
  6 16  1  6
  7 17  1  0
  8 18  1  6
 10 19  1  6
 11 20  1  0
 11 21  1  0
M  END
$$$$

     RDKit          3D

 21 23  0  0  0  0  0  0  0  0999 V2000
   -0.5274   -2.6111   -1.9625 O   0  0  0  0  0  0  0  0  0  0  0  0
   -0.8419   -1.7884   -1.0534 C   0  0  0  0  0  0  0  0  0  0  0  0
   -2.1304   -1.4439   -0.6671 O   0  0  0  0  0  0  0  0  0  0  0  0
   -2.0864   -0.5934    0.4437 C   0  0  0  0  0  0  0  0  0  0  0  0
   -0.6423   -0.2650    0.7160 C   0  0  2  0  0  0  0  0  0  0  0  0
   -0.3497    1.1609    0.4162 C   0  0  2  0  0  0  0  0  0  0  0  0
   -1.0114    1.4994   -0.7761 O   0  0  0  0  0  0  0  0  0  0  0  0
    1.0970    1.4768    0.2341 C   0  0  1  0  0  0  0  0  0  0  0  0
    2.0492    1.0181    1.1074 O   0  0  0  0  0  0  0  0  0  0  0  0
    1.9966    0.4582   -0.1594 C   0  0  1  0  0  0  0  0  0  0  0  0
    1.5363   -0.9566   -0.2135 C   0  0  0  0  0  0  0  0  0  0  0  0
    0.0829   -1.0760   -0.2722 N   0  0  0  0  0  0  0  0  0  0  0  0
   -2.6922    0.3252    0.2469 H   0  0  0  0  0  0  0  0  0  0  0  0
   -2.5390   -1.0653    1.3460 H   0  0  0  0  0  0  0  0  0  0  0  0
   -0.3157   -0.5574    1.7371 H   0  0  0  0  0  0  0  0  0  0  0  0
   -0.8077    1.8129    1.2041 H   0  0  0  0  0  0  0  0  0  0  0  0
   -0.7529    2.4343   -1.0334 H   0  0  0  0  0  0  0  0  0  0  0  0
    1.2731    2.5234   -0.1411 H   0  0  0  0  0  0  0  0  0  0  0  0
    2.8141    0.6957   -0.8882 H   0  0  0  0  0  0  0  0  0  0  0  0
    2.0175   -1.5597   -1.0226 H   0  0  0  0  0  0  0  0  0  0  0  0
    1.8303   -1.4882    0.7380 H   0  0  0  0  0  0  0  0  0  0  0  0
  1  2  2  0
  2  3  1  0
  3  4  1  0
  4  5  1  0
  5  6  1  0
  6  7  1  0
  6  8  1  0
  8  9  1  0
  9 10  1  0
 10 11  1  0
 11 12  1  0
 12  2  1  0
 12  5  1  0
 10  8  1  0
  4 13  1  0
  4 14  1  0
  5 15  1  1
  6 16  1  1
  7 17  1  0
  8 18  1  6
 10 19  1  6
 11 20  1  0
 11 21  1  0
M  END
$$$$
