
     RDKit          3D

 26 26  0  0  0  0  0  0  0  0999 V2000
    2.6419    1.0283   -0.5809 C   0  0  0  0  0  0  0  0  0  0  0  0
    1.3917    0.6717   -0.0722 O   0  0  0  0  0  0  0  0  0  0  0  0
    0.7336   -0.2495   -0.8523 C   0  0  2  0  0  0  0  0  0  0  0  0
   -0.4335    0.3428   -1.3353 O   0  0  0  0  0  0  0  0  0  0  0  0
   -1.2010    0.8956   -0.3133 C   0  0  2  0  0  0  0  0  0  0  0  0
   -0.8965    2.2999   -0.0620 C   0  0  0  0  0  0  0  0  0  0  0  0
   -0.0210    2.8851   -0.7362 O   0  0  0  0  0  0  0  0  0  0  0  0
   -1.5660    3.0015    0.9184 O   0  0  0  0  0  0  0  0  0  0  0  0
   -1.0713    0.0440    0.9557 C   0  0  0  0  0  0  0  0  0  0  0  0
   -0.9531   -1.3889    0.4798 C   0  0  2  0  0  0  0  0  0  0  0  0
   -1.1688   -2.2936    1.5808 N   0  0  0  0  0  0  0  0  0  0  0  0
    0.4202   -1.5372   -0.1392 C   0  0  1  0  0  0  0  0  0  0  0  0
    0.3588   -2.5879   -1.0745 O   0  0  0  0  0  0  0  0  0  0  0  0
    3.2999    0.1448   -0.6579 H   0  0  0  0  0  0  0  0  0  0  0  0
    2.5794    1.5815   -1.5292 H   0  0  0  0  0  0  0  0  0  0  0  0
    3.1048    1.7027    0.1636 H   0  0  0  0  0  0  0  0  0  0  0  0
    1.3748   -0.4919   -1.7208 H   0  0  0  0  0  0  0  0  0  0  0  0
   -2.2737    0.7488   -0.6347 H   0  0  0  0  0  0  0  0  0  0  0  0
   -1.7166    4.0209    0.8609 H   0  0  0  0  0  0  0  0  0  0  0  0
   -0.2324    0.3468    1.5783 H   0  0  0  0  0  0  0  0  0  0  0  0
   -1.9920    0.1408    1.5694 H   0  0  0  0  0  0  0  0  0  0  0  0
   -1.7337   -1.5368   -0.3090 H   0  0  0  0  0  0  0  0  0  0  0  0
   -2.1498   -2.6502    1.5078 H   0  0  0  0  0  0  0  0  0  0  0  0
   -0.4595   -3.0295    1.6683 H   0  0  0  0  0  0  0  0  0  0  0  0
    1.1722   -1.8070    0.6274 H   0  0  0  0  0  0  0  0  0  0  0  0
    0.7916   -2.2826   -1.8929 H   0  0  0  0  0  0  0  0  0  0  0  0
  1  2  1  0
  2  3  1  0
  3  4  1  0
  4  5  1  0
  5  6  1  0
  6  7  2  0
  6  8  1  0
  5  9  1  0
  9 10  1  0
 10 11  1  0
 10 12  1  0
 12 13  1  0
 12  3  1  0
  1 14  1  0
  1 15  1  0
  1 16  1  0
  3 17  1  6
  5 18  1  6
  8 19  1  0
  9 20  1  0
  9 21  1  0
 10 22  1  6
 11 23  1  0
 11 24  1  0
 12 25  1  1
 13 26  1  0
M  END
$$$$

     RDKit          3D

 26 26  0  0  0  0  0  0  0  0999 V2000
   -2.5221   -2.1963    0.7896 C   0  0  0  0  0  0  0  0  0  0  0  0
   -1.5214   -1.3607    1.2580 O   0  0  0  0  0  0  0  0  0  0  0  0
   -0.9021   -0.6365    0.2404 C   0  0  2  0  0  0  0  0  0  0  0  0
    0.3922   -1.0901    0.1563 O   0  0  0  0  0  0  0  0  0  0  0  0
    1.1882   -0.4184   -0.7330 C   0  0  2  0  0  0  0  0  0  0  0  0
    2.5113   -1.0709   -0.7927 C   0  0  0  0  0  0  0  0  0  0  0  0
    3.3865   -0.6032   -1.5533 O   0  0  0  0  0  0  0  0  0  0  0  0
    2.8119   -2.1826   -0.0338 O   0  0  0  0  0  0  0  0  0  0  0  0
    1.3934    0.9930   -0.1720 C   0  0  0  0  0  0  0  0  0  0  0  0
    0.0412    1.6561   -0.1866 C   0  0  2  0  0  0  0  0  0  0  0  0
    0.1880    2.9232    0.5361 N   0  0  0  0  0  0  0  0  0  0  0  0
   -1.0446    0.8367    0.3989 C   0  0  1  0  0  0  0  0  0  0  0  0
   -2.2517    1.2111   -0.2342 O   0  0  0  0  0  0  0  0  0  0  0  0
   -2.1589   -2.9525    0.0619 H   0  0  0  0  0  0  0  0  0  0  0  0
   -3.3852   -1.6523    0.3728 H   0  0  0  0  0  0  0  0  0  0  0  0
   -2.8994   -2.7615    1.6672 H   0  0  0  0  0  0  0  0  0  0  0  0
   -1.4148   -0.9512   -0.7158 H   0  0  0  0  0  0  0  0  0  0  0  0
    0.7358   -0.2791   -1.7341 H   0  0  0  0  0  0  0  0  0  0  0  0
    3.7774   -2.4416    0.2158 H   0  0  0  0  0  0  0  0  0  0  0  0
    1.7737    0.9041    0.8802 H   0  0  0  0  0  0  0  0  0  0  0  0
    2.0702    1.5700   -0.8086 H   0  0  0  0  0  0  0  0  0  0  0  0
   -0.1791    1.9326   -1.2462 H   0  0  0  0  0  0  0  0  0  0  0  0
    0.5819    3.6662   -0.0639 H   0  0  0  0  0  0  0  0  0  0  0  0
    0.7287    2.7812    1.4181 H   0  0  0  0  0  0  0  0  0  0  0  0
   -1.1775    1.1489    1.4703 H   0  0  0  0  0  0  0  0  0  0  0  0
   -2.1238    0.9737   -1.1915 H   0  0  0  0  0  0  0  0  0  0  0  0
  1  2  1  0
  2  3  1  0
  3  4  1  0
  4  5  1  0
  5  6  1  0
  6  7  2  0
  6  8  1  0
  5  9  1  0
  9 10  1  0
 10 11  1  0
 10 12  1  0
 12 13  1  0
 12  3  1  0
  1 14  1  0
  1 15  1  0
  1 16  1  0
  3 17  1  6
  5 18  1  6
  8 19  1  0
  9 20  1  0
  9 21  1  0
 10 22  1  6
 11 23  1  0
 11 24  1  0
 12 25  1  1
 13 26  1  0
M  END
$$$$

     RDKit          3D

 26 26  0  0  0  0  0  0  0  0999 V2000
    3.1990   -1.1288   -0.5250 C   0  0  0  0  0  0  0  0  0  0  0  0
    2.1192   -0.4335   -1.0509 O   0  0  0  0  0  0  0  0  0  0  0  0
    1.0833   -0.2840   -0.1561 C   0  0  2  0  0  0  0  0  0  0  0  0
   -0.0198   -0.9831   -0.6524 O   0  0  0  0  0  0  0  0  0  0  0  0
   -0.9534   -1.0322    0.3671 C   0  0  2  0  0  0  0  0  0  0  0  0
   -2.0331   -1.9749   -0.0182 C   0  0  0  0  0  0  0  0  0  0  0  0
   -1.9988   -2.5790   -1.1254 O   0  0  0  0  0  0  0  0  0  0  0  0
   -3.1032   -2.2066    0.8407 O   0  0  0  0  0  0  0  0  0  0  0  0
   -1.5621    0.3203    0.5446 C   0  0  0  0  0  0  0  0  0  0  0  0
   -0.6317    1.4604    0.4253 C   0  0  2  0  0  0  0  0  0  0  0  0
   -1.1519    2.4076   -0.5757 N   0  0  0  0  0  0  0  0  0  0  0  0
    0.7755    1.1487    0.1226 C   0  0  1  0  0  0  0  0  0  0  0  0
    1.6331    1.5647    1.1684 O   0  0  0  0  0  0  0  0  0  0  0  0
    2.9594   -2.1467   -0.1962 H   0  0  0  0  0  0  0  0  0  0  0  0
    3.9792   -1.1785   -1.3082 H   0  0  0  0  0  0  0  0  0  0  0  0
    3.6011   -0.5732    0.3376 H   0  0  0  0  0  0  0  0  0  0  0  0
    1.3868   -0.7777    0.7980 H   0  0  0  0  0  0  0  0  0  0  0  0
   -0.4303   -1.3955    1.2767 H   0  0  0  0  0  0  0  0  0  0  0  0
   -3.5737   -3.1171    0.7666 H   0  0  0  0  0  0  0  0  0  0  0  0
   -2.3997    0.4018   -0.2101 H   0  0  0  0  0  0  0  0  0  0  0  0
   -2.1044    0.3042    1.5342 H   0  0  0  0  0  0  0  0  0  0  0  0
   -0.6736    2.0410    1.3944 H   0  0  0  0  0  0  0  0  0  0  0  0
   -0.6649    3.3239   -0.4722 H   0  0  0  0  0  0  0  0  0  0  0  0
   -2.1886    2.5314   -0.4393 H   0  0  0  0  0  0  0  0  0  0  0  0
    1.1347    1.7387   -0.7721 H   0  0  0  0  0  0  0  0  0  0  0  0
    1.6178    2.5681    1.2071 H   0  0  0  0  0  0  0  0  0  0  0  0
  1  2  1  0
  2  3  1  0
  3  4  1  0
  4  5  1  0
  5  6  1  0
  6  7  2  0
  6  8  1  0
  5  9  1  0
  9 10  1  0
 10 11  1  0
 10 12  1  0
 12 13  1  0
 12  3  1  0
  1 14  1  0
  1 15  1  0
  1 16  1  0
  3 17  1  1
  5 18  1  1
  8 19  1  0
  9 20  1  0
  9 21  1  0
 10 22  1  1
 11 23  1  0
 11 24  1  0
 12 25  1  6
 13 26  1  0
M  END
$$$$

     RDKit          3D

 26 26  0  0  0  0  0  0  0  0999 V2000
   -2.4411    2.3532    0.1296 C   0  0  0  0  0  0  0  0  0  0  0  0
   -2.1706    1.0863   -0.3588 O   0  0  0  0  0  0  0  0  0  0  0  0
   -0.9087    0.6301   -0.0396 C   0  0  2  0  0  0  0  0  0  0  0  0
   -0.1012    0.3922   -1.1219 O   0  0  0  0  0  0  0  0  0  0  0  0
    1.2220    0.3464   -0.6279 C   0  0  2  0  0  0  0  0  0  0  0  0
    2.1701    0.3445   -1.7467 C   0  0  0  0  0  0  0  0  0  0  0  0
    1.7457    0.3807   -2.9240 O   0  0  0  0  0  0  0  0  0  0  0  0
    3.5395    0.3036   -1.5502 O   0  0  0  0  0  0  0  0  0  0  0  0
    1.4582   -0.8297    0.2482 C   0  0  0  0  0  0  0  0  0  0  0  0
    0.2133   -1.4640    0.7903 C   0  0  2  0  0  0  0  0  0  0  0  0
   -0.0814   -2.6179   -0.0748 N   0  0  0  0  0  0  0  0  0  0  0  0
   -0.9879   -0.5978    0.8031 C   0  0  1  0  0  0  0  0  0  0  0  0
   -1.2489   -0.1737    2.1268 O   0  0  0  0  0  0  0  0  0  0  0  0
   -3.4732    2.6141   -0.1850 H   0  0  0  0  0  0  0  0  0  0  0  0
   -1.7642    3.1226   -0.2437 H   0  0  0  0  0  0  0  0  0  0  0  0
   -2.4703    2.2953    1.2478 H   0  0  0  0  0  0  0  0  0  0  0  0
   -0.4193    1.4497    0.5589 H   0  0  0  0  0  0  0  0  0  0  0  0
    1.4022    1.2790   -0.0448 H   0  0  0  0  0  0  0  0  0  0  0  0
    4.2071    0.5722   -2.2636 H   0  0  0  0  0  0  0  0  0  0  0  0
    2.0852   -1.5820   -0.3100 H   0  0  0  0  0  0  0  0  0  0  0  0
    2.0879   -0.5225    1.1087 H   0  0  0  0  0  0  0  0  0  0  0  0
    0.3678   -1.9019    1.8036 H   0  0  0  0  0  0  0  0  0  0  0  0
   -0.4925   -2.2037   -0.9580 H   0  0  0  0  0  0  0  0  0  0  0  0
   -0.8552   -3.1864    0.3666 H   0  0  0  0  0  0  0  0  0  0  0  0
   -1.9165   -1.1637    0.5073 H   0  0  0  0  0  0  0  0  0  0  0  0
   -1.1681   -0.9268    2.7581 H   0  0  0  0  0  0  0  0  0  0  0  0
  1  2  1  0
  2  3  1  0
  3  4  1  0
  4  5  1  0
  5  6  1  0
  6  7  2  0
  6  8  1  0
  5  9  1  0
  9 10  1  0
 10 11  1  0
 10 12  1  0
 12 13  1  0
 12  3  1  0
  1 14  1  0
  1 15  1  0
  1 16  1  0
  3 17  1  1
  5 18  1  1
  8 19  1  0
  9 20  1  0
  9 21  1  0
 10 22  1  1
 11 23  1  0
 11 24  1  0
 12 25  1  6
 13 26  1  0
M  END
$$$$

     RDKit          3D

 26 26  0  0  0  0  0  0  0  0999 V2000
   -2.9961   -1.7062    0.2444 C   0  0  0  0  0  0  0  0  0  0  0  0
   -2.3257   -0.5195    0.5278 O   0  0  0  0  0  0  0  0  0  0  0  0
   -1.0631   -0.4989   -0.0211 C   0  0  2  0  0  0  0  0  0  0  0  0
   -0.0513   -0.4524    0.9638 O   0  0  0  0  0  0  0  0  0  0  0  0
    1.1525   -0.5065    0.2790 C   0  0  2  0  0  0  0  0  0  0  0  0
    2.2665   -0.9876    1.1192 C   0  0  0  0  0  0  0  0  0  0  0  0
    2.1171   -1.3136    2.3421 O   0  0  0  0  0  0  0  0  0  0  0  0
    3.5181   -1.0785    0.5255 O   0  0  0  0  0  0  0  0  0  0  0  0
    1.5162    0.8681   -0.2510 C   0  0  0  0  0  0  0  0  0  0  0  0
    0.2235    1.6098   -0.4809 C   0  0  2  0  0  0  0  0  0  0  0  0
   -0.2006    2.3601    0.6658 N   0  0  0  0  0  0  0  0  0  0  0  0
   -0.8929    0.6920   -0.9355 C   0  0  1  0  0  0  0  0  0  0  0  0
   -0.5765    0.2745   -2.2457 O   0  0  0  0  0  0  0  0  0  0  0  0
   -3.9940   -1.6398    0.7187 H   0  0  0  0  0  0  0  0  0  0  0  0
   -2.4365   -2.5143    0.7929 H   0  0  0  0  0  0  0  0  0  0  0  0
   -3.0156   -1.9587   -0.8209 H   0  0  0  0  0  0  0  0  0  0  0  0
   -0.8703   -1.4556   -0.5744 H   0  0  0  0  0  0  0  0  0  0  0  0
    1.0153   -1.2339   -0.5580 H   0  0  0  0  0  0  0  0  0  0  0  0
    4.3392   -1.3271    1.0394 H   0  0  0  0  0  0  0  0  0  0  0  0
    2.0832    0.7503   -1.1958 H   0  0  0  0  0  0  0  0  0  0  0  0
    2.1374    1.3928    0.4949 H   0  0  0  0  0  0  0  0  0  0  0  0
    0.4006    2.3325   -1.3090 H   0  0  0  0  0  0  0  0  0  0  0  0
   -1.0398    1.9871    1.1267 H   0  0  0  0  0  0  0  0  0  0  0  0
    0.5543    2.6677    1.2888 H   0  0  0  0  0  0  0  0  0  0  0  0
   -1.8094    1.3003   -1.0065 H   0  0  0  0  0  0  0  0  0  0  0  0
   -0.0520    0.9574   -2.7301 H   0  0  0  0  0  0  0  0  0  0  0  0
  1  2  1  0
  2  3  1  0
  3  4  1  0
  4  5  1  0
  5  6  1  0
  6  7  2  0
  6  8  1  0
  5  9  1  0
  9 10  1  0
 10 11  1  0
 10 12  1  0
 12 13  1  0
 12  3  1  0
  1 14  1  0
  1 15  1  0
  1 16  1  0
  3 17  1  6
  5 18  1  6
  8 19  1  0
  9 20  1  0
  9 21  1  0
 10 22  1  6
 11 23  1  0
 11 24  1  0
 12 25  1  6
 13 26  1  0
M  END
$$$$

     RDKit          3D

 26 26  0  0  0  0  0  0  0  0999 V2000
    2.3949    1.8291    0.2920 C   0  0  0  0  0  0  0  0  0  0  0  0
    1.2111    1.1682    0.5542 O   0  0  0  0  0  0  0  0  0  0  0  0
    0.8263    0.3274   -0.5023 C   0  0  2  0  0  0  0  0  0  0  0  0
   -0.3496    0.7805   -0.9996 O   0  0  0  0  0  0  0  0  0  0  0  0
   -1.5067    0.4003   -0.4526 C   0  0  2  0  0  0  0  0  0  0  0  0
   -2.2795    1.5754    0.0120 C   0  0  0  0  0  0  0  0  0  0  0  0
   -3.3918    1.4344    0.5534 O   0  0  0  0  0  0  0  0  0  0  0  0
   -1.7586    2.8366   -0.1585 O   0  0  0  0  0  0  0  0  0  0  0  0
   -1.4111   -0.6331    0.6440 C   0  0  0  0  0  0  0  0  0  0  0  0
   -0.5104   -1.7200    0.0706 C   0  0  2  0  0  0  0  0  0  0  0  0
   -0.4433   -2.8734    0.9122 N   0  0  0  0  0  0  0  0  0  0  0  0
    0.8601   -1.0756   -0.0043 C   0  0  1  0  0  0  0  0  0  0  0  0
    1.6432   -1.9162   -0.8164 O   0  0  0  0  0  0  0  0  0  0  0  0
    3.1918    1.0642    0.1328 H   0  0  0  0  0  0  0  0  0  0  0  0
    2.6048    2.4968    1.1321 H   0  0  0  0  0  0  0  0  0  0  0  0
    2.2205    2.4203   -0.6537 H   0  0  0  0  0  0  0  0  0  0  0  0
    1.6063    0.4260   -1.2895 H   0  0  0  0  0  0  0  0  0  0  0  0
   -2.1451   -0.0769   -1.2552 H   0  0  0  0  0  0  0  0  0  0  0  0
   -2.3215    3.6843   -0.1574 H   0  0  0  0  0  0  0  0  0  0  0  0
   -2.4098   -1.0016    0.8815 H   0  0  0  0  0  0  0  0  0  0  0  0
   -0.9637   -0.1981    1.5564 H   0  0  0  0  0  0  0  0  0  0  0  0
   -0.8768   -1.9518   -0.9624 H   0  0  0  0  0  0  0  0  0  0  0  0
   -0.1613   -3.6908    0.2958 H   0  0  0  0  0  0  0  0  0  0  0  0
    0.2522   -2.7022    1.6683 H   0  0  0  0  0  0  0  0  0  0  0  0
    1.2967   -1.1500    1.0136 H   0  0  0  0  0  0  0  0  0  0  0  0
    2.4212   -1.4538   -1.1919 H   0  0  0  0  0  0  0  0  0  0  0  0
  1  2  1  0
  2  3  1  0
  3  4  1  0
  4  5  1  0
  5  6  1  0
  6  7  2  0
  6  8  1  0
  5  9  1  0
  9 10  1  0
 10 11  1  0
 10 12  1  0
 12 13  1  0
 12  3  1  0
  1 14  1  0
  1 15  1  0
  1 16  1  0
  3 17  1  6
  5 18  1  6
  8 19  1  0
  9 20  1  0
  9 21  1  0
 10 22  1  6
 11 23  1  0
 11 24  1  0
 12 25  1  1
 13 26  1  0
M  END
$$$$

     RDKit          3D

 26 26  0  0  0  0  0  0  0  0999 V2000
   -2.8412    1.9403    0.4426 C   0  0  0  0  0  0  0  0  0  0  0  0
   -2.1705    1.0925   -0.4331 O   0  0  0  0  0  0  0  0  0  0  0  0
   -0.9829    0.6482    0.1408 C   0  0  2  0  0  0  0  0  0  0  0  0
    0.0781    1.1437   -0.6094 O   0  0  0  0  0  0  0  0  0  0  0  0
    1.2465    0.6826   -0.0327 C   0  0  2  0  0  0  0  0  0  0  0  0
    2.4258    1.4924   -0.3883 C   0  0  0  0  0  0  0  0  0  0  0  0
    2.2584    2.4807   -1.1489 O   0  0  0  0  0  0  0  0  0  0  0  0
    3.7021    1.2346    0.0607 O   0  0  0  0  0  0  0  0  0  0  0  0
    1.3854   -0.7677   -0.4561 C   0  0  0  0  0  0  0  0  0  0  0  0
    0.3008   -1.5028    0.3419 C   0  0  2  0  0  0  0  0  0  0  0  0
    0.2674   -2.8845   -0.0540 N   0  0  0  0  0  0  0  0  0  0  0  0
   -1.0266   -0.8415    0.2094 C   0  0  1  0  0  0  0  0  0  0  0  0
   -1.7991   -1.1950    1.3220 O   0  0  0  0  0  0  0  0  0  0  0  0
   -2.1775    2.8156    0.6618 H   0  0  0  0  0  0  0  0  0  0  0  0
   -3.0745    1.4351    1.3985 H   0  0  0  0  0  0  0  0  0  0  0  0
   -3.7726    2.3296   -0.0084 H   0  0  0  0  0  0  0  0  0  0  0  0
   -0.8938    1.0956    1.1505 H   0  0  0  0  0  0  0  0  0  0  0  0
    1.0998    0.7209    1.0716 H   0  0  0  0  0  0  0  0  0  0  0  0
    4.4982    1.3599   -0.5661 H   0  0  0  0  0  0  0  0  0  0  0  0
    2.3639   -1.1916   -0.2397 H   0  0  0  0  0  0  0  0  0  0  0  0
    1.0835   -0.8654   -1.5231 H   0  0  0  0  0  0  0  0  0  0  0  0
    0.6320   -1.4487    1.4071 H   0  0  0  0  0  0  0  0  0  0  0  0
   -0.6801   -3.3069    0.1138 H   0  0  0  0  0  0  0  0  0  0  0  0
    0.9658   -3.4462    0.5089 H   0  0  0  0  0  0  0  0  0  0  0  0
   -1.5715   -1.2207   -0.6757 H   0  0  0  0  0  0  0  0  0  0  0  0
   -1.3177   -1.8008    1.9299 H   0  0  0  0  0  0  0  0  0  0  0  0
  1  2  1  0
  2  3  1  0
  3  4  1  0
  4  5  1  0
  5  6  1  0
  6  7  2  0
  6  8  1  0
  5  9  1  0
  9 10  1  0
 10 11  1  0
 10 12  1  0
 12 13  1  0
 12  3  1  0
  1 14  1  0
  1 15  1  0
  1 16  1  0
  3 17  1  1
  5 18  1  1
  8 19  1  0
  9 20  1  0
  9 21  1  0
 10 22  1  1
 11 23  1  0
 11 24  1  0
 12 25  1  6
 13 26  1  0
M  END
$$$$

     RDKit          3D

 26 26  0  0  0  0  0  0  0  0999 V2000
   -2.5570    2.1038   -0.5584 C   0  0  0  0  0  0  0  0  0  0  0  0
   -2.0866    0.9298   -1.1900 O   0  0  0  0  0  0  0  0  0  0  0  0
   -0.9562    0.5388   -0.5263 C   0  0  2  0  0  0  0  0  0  0  0  0
    0.1875    0.5154   -1.3385 O   0  0  0  0  0  0  0  0  0  0  0  0
    1.2808    0.4945   -0.4927 C   0  0  2  0  0  0  0  0  0  0  0  0
    2.5620    0.5589   -1.2363 C   0  0  0  0  0  0  0  0  0  0  0  0
    2.6028    0.6239   -2.4887 O   0  0  0  0  0  0  0  0  0  0  0  0
    3.7398    0.5458   -0.5079 O   0  0  0  0  0  0  0  0  0  0  0  0
    1.3218   -0.6696    0.4348 C   0  0  0  0  0  0  0  0  0  0  0  0
   -0.0015   -0.9819    1.0830 C   0  0  2  0  0  0  0  0  0  0  0  0
    0.0677   -2.2775    1.6655 N   0  0  0  0  0  0  0  0  0  0  0  0
   -1.0673   -0.8865    0.0300 C   0  0  1  0  0  0  0  0  0  0  0  0
   -2.3275   -1.1855    0.4632 O   0  0  0  0  0  0  0  0  0  0  0  0
   -3.4620    2.4931   -1.0214 H   0  0  0  0  0  0  0  0  0  0  0  0
   -2.6578    1.8516    0.5173 H   0  0  0  0  0  0  0  0  0  0  0  0
   -1.7021    2.8395   -0.6022 H   0  0  0  0  0  0  0  0  0  0  0  0
   -0.6880    1.2248    0.3302 H   0  0  0  0  0  0  0  0  0  0  0  0
    1.2219    1.4413    0.1173 H   0  0  0  0  0  0  0  0  0  0  0  0
    4.6140    0.2723   -0.9318 H   0  0  0  0  0  0  0  0  0  0  0  0
    2.0282   -0.4048    1.2723 H   0  0  0  0  0  0  0  0  0  0  0  0
    1.7277   -1.5746   -0.0414 H   0  0  0  0  0  0  0  0  0  0  0  0
   -0.2039   -0.1645    1.8224 H   0  0  0  0  0  0  0  0  0  0  0  0
   -0.8265   -2.7083    1.9213 H   0  0  0  0  0  0  0  0  0  0  0  0
    0.8291   -2.3743    2.3366 H   0  0  0  0  0  0  0  0  0  0  0  0
   -0.7803   -1.6008   -0.7842 H   0  0  0  0  0  0  0  0  0  0  0  0
   -2.8665   -1.6052   -0.2742 H   0  0  0  0  0  0  0  0  0  0  0  0
  1  2  1  0
  2  3  1  0
  3  4  1  0
  4  5  1  0
  5  6  1  0
  6  7  2  0
  6  8  1  0
  5  9  1  0
  9 10  1  0
 10 11  1  0
 10 12  1  0
 12 13  1  0
 12  3  1  0
  1 14  1  0
  1 15  1  0
  1 16  1  0
  3 17  1  1
  5 18  1  1
  8 19  1  0
  9 20  1  0
  9 21  1  0
 10 22  1  1
 11 23  1  0
 11 24  1  0
 12 25  1  6
 13 26  1  0
M  END
$$$$
