
     RDKit          3D

 28 28  0  0  0  0  0  0  0  0999 V2000
   -1.3090    1.1426   -1.3642 C   0  0  0  0  0  0  0  0  0  0  0  0
   -0.8304    1.0001    0.0952 C   0  0  1  0  0  0  0  0  0  0  0  0
   -2.0511    0.9189    0.8675 N   0  0  0  0  0  0  0  0  0  0  0  0
   -2.8067   -0.2717    0.7884 C   0  0  0  0  0  0  0  0  0  0  0  0
   -3.9793   -0.2732    1.2166 O   0  0  0  0  0  0  0  0  0  0  0  0
   -2.2813   -1.5385    0.2191 C   0  0  0  0  0  0  0  0  0  0  0  0
   -0.8942   -1.4055   -0.3641 C   0  0  0  0  0  0  0  0  0  0  0  0
   -0.1098   -0.3167    0.2640 C   0  0  1  0  0  0  0  0  0  0  0  0
    1.2237   -0.3103   -0.1632 N   0  0  0  0  0  0  0  0  0  0  0  0
    2.1389    0.5063    0.5543 C   0  0  0  0  0  0  0  0  0  0  0  0
    3.4502    0.5290   -0.1222 C   0  0  0  0  0  0  0  0  0  0  0  0
    3.6515   -0.1558   -1.3356 N   0  0  0  0  0  0  0  0  0  0  0  0
    4.3771    1.1824    0.4242 O   0  0  0  0  0  0  0  0  0  0  0  0
   -1.2978    2.2053   -1.6608 H   0  0  0  0  0  0  0  0  0  0  0  0
   -0.5701    0.6286   -2.0342 H   0  0  0  0  0  0  0  0  0  0  0  0
   -2.3192    0.7074   -1.4895 H   0  0  0  0  0  0  0  0  0  0  0  0
   -0.2231    1.8751    0.3429 H   0  0  0  0  0  0  0  0  0  0  0  0
   -2.3800    1.7019    1.4734 H   0  0  0  0  0  0  0  0  0  0  0  0
   -2.2823   -2.3277    0.9953 H   0  0  0  0  0  0  0  0  0  0  0  0
   -2.9801   -1.8657   -0.5717 H   0  0  0  0  0  0  0  0  0  0  0  0
   -0.3538   -2.3727   -0.1614 H   0  0  0  0  0  0  0  0  0  0  0  0
   -0.9144   -1.3182   -1.4678 H   0  0  0  0  0  0  0  0  0  0  0  0
   -0.0999   -0.5150    1.3768 H   0  0  0  0  0  0  0  0  0  0  0  0
    1.4186   -0.4796   -1.1563 H   0  0  0  0  0  0  0  0  0  0  0  0
    1.7346    1.5401    0.6772 H   0  0  0  0  0  0  0  0  0  0  0  0
    2.2361    0.0292    1.5788 H   0  0  0  0  0  0  0  0  0  0  0  0
    3.8680   -1.1539   -1.3719 H   0  0  0  0  0  0  0  0  0  0  0  0
    3.5839    0.3375   -2.2635 H   0  0  0  0  0  0  0  0  0  0  0  0
  1  2  1  0
  2  3  1  0
  3  4  1  0
  4  5  2  0
  4  6  1  0
  6  7  1  0
  7  8  1  0
  8  9  1  0
  9 10  1  0
 10 11  1  0
 11 12  1  0
 11 13  2  0
  8  2  1  0
  1 14  1  0
  1 15  1  0
  1 16  1  0
  2 17  1  1
  3 18  1  0
  6 19  1  0
  6 20  1  0
  7 21  1  0
  7 22  1  0
  8 23  1  1
  9 24  1  0
 10 25  1  0
 10 26  1  0
 12 27  1  0
 12 28  1  0
M  END
$$$$

     RDKit          3D

 28 28  0  0  0  0  0  0  0  0999 V2000
   -1.1623   -1.7307    0.5057 C   0  0  0  0  0  0  0  0  0  0  0  0
   -0.5337   -0.7468   -0.4803 C   0  0  1  0  0  0  0  0  0  0  0  0
   -1.6131   -0.5440   -1.4666 N   0  0  0  0  0  0  0  0  0  0  0  0
   -2.5278    0.4868   -1.2418 C   0  0  0  0  0  0  0  0  0  0  0  0
   -3.5089    0.5969   -2.0321 O   0  0  0  0  0  0  0  0  0  0  0  0
   -2.4366    1.4709   -0.1393 C   0  0  0  0  0  0  0  0  0  0  0  0
   -1.4124    1.0660    0.8846 C   0  0  0  0  0  0  0  0  0  0  0  0
   -0.1866    0.5622    0.0760 C   0  0  1  0  0  0  0  0  0  0  0  0
    0.9501    0.8254    0.8195 N   0  0  0  0  0  0  0  0  0  0  0  0
    2.2451    0.6574    0.3509 C   0  0  0  0  0  0  0  0  0  0  0  0
    2.7384   -0.7060    0.3110 C   0  0  0  0  0  0  0  0  0  0  0  0
    4.0302   -0.9614   -0.2265 N   0  0  0  0  0  0  0  0  0  0  0  0
    2.0816   -1.6705    0.7267 O   0  0  0  0  0  0  0  0  0  0  0  0
   -2.2092   -1.4197    0.7445 H   0  0  0  0  0  0  0  0  0  0  0  0
   -0.5569   -1.9321    1.3823 H   0  0  0  0  0  0  0  0  0  0  0  0
   -1.2943   -2.6811   -0.0922 H   0  0  0  0  0  0  0  0  0  0  0  0
    0.3015   -1.2847   -1.0058 H   0  0  0  0  0  0  0  0  0  0  0  0
   -1.6343   -1.1738   -2.2712 H   0  0  0  0  0  0  0  0  0  0  0  0
   -2.0397    2.4203   -0.6080 H   0  0  0  0  0  0  0  0  0  0  0  0
   -3.4084    1.6610    0.3600 H   0  0  0  0  0  0  0  0  0  0  0  0
   -1.7391    0.3524    1.6317 H   0  0  0  0  0  0  0  0  0  0  0  0
   -1.0431    1.9743    1.4077 H   0  0  0  0  0  0  0  0  0  0  0  0
   -0.1603    1.2912   -0.8031 H   0  0  0  0  0  0  0  0  0  0  0  0
    0.8274    1.2426    1.7646 H   0  0  0  0  0  0  0  0  0  0  0  0
    2.9945    1.3757    0.7891 H   0  0  0  0  0  0  0  0  0  0  0  0
    2.2308    1.0050   -0.7428 H   0  0  0  0  0  0  0  0  0  0  0  0
    4.1767   -1.6656   -0.9846 H   0  0  0  0  0  0  0  0  0  0  0  0
    4.8903   -0.4716    0.0988 H   0  0  0  0  0  0  0  0  0  0  0  0
  1  2  1  0
  2  3  1  0
  3  4  1  0
  4  5  2  0
  4  6  1  0
  6  7  1  0
  7  8  1  0
  8  9  1  0
  9 10  1  0
 10 11  1  0
 11 12  1  0
 11 13  2  0
  8  2  1  0
  1 14  1  0
  1 15  1  0
  1 16  1  0
  2 17  1  6
  3 18  1  0
  6 19  1  0
  6 20  1  0
  7 21  1  0
  7 22  1  0
  8 23  1  6
  9 24  1  0
 10 25  1  0
 10 26  1  0
 12 27  1  0
 12 28  1  0
M  END
$$$$

     RDKit          3D

 28 28  0  0  0  0  0  0  0  0999 V2000
   -1.1682    2.1577   -0.2705 C   0  0  0  0  0  0  0  0  0  0  0  0
   -1.4825    0.8936    0.5116 C   0  0  1  0  0  0  0  0  0  0  0  0
   -2.7720    0.3845    0.1217 N   0  0  0  0  0  0  0  0  0  0  0  0
   -3.0217   -0.9793   -0.1557 C   0  0  0  0  0  0  0  0  0  0  0  0
   -4.2013   -1.3805   -0.2158 O   0  0  0  0  0  0  0  0  0  0  0  0
   -1.8745   -1.8857   -0.3656 C   0  0  0  0  0  0  0  0  0  0  0  0
   -0.7238   -1.0095   -0.8694 C   0  0  0  0  0  0  0  0  0  0  0  0
   -0.3553   -0.0962    0.2834 C   0  0  1  0  0  0  0  0  0  0  0  0
    0.8793    0.6130    0.0651 N   0  0  0  0  0  0  0  0  0  0  0  0
    1.9915   -0.2965    0.1756 C   0  0  0  0  0  0  0  0  0  0  0  0
    3.2925    0.3946   -0.0319 C   0  0  0  0  0  0  0  0  0  0  0  0
    4.5202   -0.2964    0.0301 N   0  0  0  0  0  0  0  0  0  0  0  0
    3.3110    1.6271   -0.2696 O   0  0  0  0  0  0  0  0  0  0  0  0
   -0.2259    2.6013    0.1584 H   0  0  0  0  0  0  0  0  0  0  0  0
   -0.9638    1.9185   -1.3353 H   0  0  0  0  0  0  0  0  0  0  0  0
   -2.0065    2.8511   -0.1646 H   0  0  0  0  0  0  0  0  0  0  0  0
   -1.5219    1.1467    1.5838 H   0  0  0  0  0  0  0  0  0  0  0  0
   -3.5482    1.0651    0.0444 H   0  0  0  0  0  0  0  0  0  0  0  0
   -2.0788   -2.7284   -1.0290 H   0  0  0  0  0  0  0  0  0  0  0  0
   -1.5350   -2.2806    0.6216 H   0  0  0  0  0  0  0  0  0  0  0  0
   -1.0727   -0.4186   -1.7554 H   0  0  0  0  0  0  0  0  0  0  0  0
    0.0947   -1.6810   -1.1363 H   0  0  0  0  0  0  0  0  0  0  0  0
   -0.2792   -0.7390    1.1838 H   0  0  0  0  0  0  0  0  0  0  0  0
    0.9065    1.1059   -0.8339 H   0  0  0  0  0  0  0  0  0  0  0  0
    1.9835   -0.7005    1.2261 H   0  0  0  0  0  0  0  0  0  0  0  0
    1.9236   -1.1601   -0.4859 H   0  0  0  0  0  0  0  0  0  0  0  0
    4.5844   -1.1533    0.6057 H   0  0  0  0  0  0  0  0  0  0  0  0
    5.3441    0.0466   -0.4908 H   0  0  0  0  0  0  0  0  0  0  0  0
  1  2  1  0
  2  3  1  0
  3  4  1  0
  4  5  2  0
  4  6  1  0
  6  7  1  0
  7  8  1  0
  8  9  1  0
  9 10  1  0
 10 11  1  0
 11 12  1  0
 11 13  2  0
  8  2  1  0
  1 14  1  0
  1 15  1  0
  1 16  1  0
  2 17  1  1
  3 18  1  0
  6 19  1  0
  6 20  1  0
  7 21  1  0
  7 22  1  0
  8 23  1  1
  9 24  1  0
 10 25  1  0
 10 26  1  0
 12 27  1  0
 12 28  1  0
M  END
$$$$

     RDKit          3D

 28 28  0  0  0  0  0  0  0  0999 V2000
   -1.4309    2.2037   -0.0229 C   0  0  0  0  0  0  0  0  0  0  0  0
   -1.5780    0.7131    0.0720 C   0  0  1  0  0  0  0  0  0  0  0  0
   -2.4869    0.2347   -0.9543 N   0  0  0  0  0  0  0  0  0  0  0  0
   -2.7699   -1.1686   -0.9102 C   0  0  0  0  0  0  0  0  0  0  0  0
   -3.6270   -1.7230   -1.6379 O   0  0  0  0  0  0  0  0  0  0  0  0
   -1.9631   -1.9366    0.0800 C   0  0  0  0  0  0  0  0  0  0  0  0
   -0.5191   -1.5043   -0.0022 C   0  0  0  0  0  0  0  0  0  0  0  0
   -0.3132   -0.0409    0.1859 C   0  0  1  0  0  0  0  0  0  0  0  0
    0.7696    0.4003   -0.6741 N   0  0  0  0  0  0  0  0  0  0  0  0
    1.9956    0.0861    0.0598 C   0  0  0  0  0  0  0  0  0  0  0  0
    3.2191    0.5389   -0.6238 C   0  0  0  0  0  0  0  0  0  0  0  0
    4.4861    0.3288   -0.0188 N   0  0  0  0  0  0  0  0  0  0  0  0
    3.1725    1.1112   -1.7417 O   0  0  0  0  0  0  0  0  0  0  0  0
   -2.0767    2.7629    0.7005 H   0  0  0  0  0  0  0  0  0  0  0  0
   -1.7603    2.5761   -1.0253 H   0  0  0  0  0  0  0  0  0  0  0  0
   -0.3964    2.5326    0.1923 H   0  0  0  0  0  0  0  0  0  0  0  0
   -2.1273    0.5431    1.0585 H   0  0  0  0  0  0  0  0  0  0  0  0
   -2.9145    0.8283   -1.6804 H   0  0  0  0  0  0  0  0  0  0  0  0
   -2.0296   -2.9976   -0.1711 H   0  0  0  0  0  0  0  0  0  0  0  0
   -2.3017   -1.6968    1.1179 H   0  0  0  0  0  0  0  0  0  0  0  0
    0.0028   -2.0782    0.8161 H   0  0  0  0  0  0  0  0  0  0  0  0
   -0.1023   -1.8750   -0.9430 H   0  0  0  0  0  0  0  0  0  0  0  0
    0.0677    0.1222    1.2425 H   0  0  0  0  0  0  0  0  0  0  0  0
    0.8092   -0.1294   -1.5804 H   0  0  0  0  0  0  0  0  0  0  0  0
    2.0322   -1.0383    0.2139 H   0  0  0  0  0  0  0  0  0  0  0  0
    1.9090    0.6009    1.0414 H   0  0  0  0  0  0  0  0  0  0  0  0
    4.8806   -0.5946    0.2493 H   0  0  0  0  0  0  0  0  0  0  0  0
    5.0527    1.2003    0.1614 H   0  0  0  0  0  0  0  0  0  0  0  0
  1  2  1  0
  2  3  1  0
  3  4  1  0
  4  5  2  0
  4  6  1  0
  6  7  1  0
  7  8  1  0
  8  9  1  0
  9 10  1  0
 10 11  1  0
 11 12  1  0
 11 13  2  0
  8  2  1  0
  1 14  1  0
  1 15  1  0
  1 16  1  0
  2 17  1  1
  3 18  1  0
  6 19  1  0
  6 20  1  0
  7 21  1  0
  7 22  1  0
  8 23  1  1
  9 24  1  0
 10 25  1  0
 10 26  1  0
 12 27  1  0
 12 28  1  0
M  END
$$$$

     RDKit          3D

 28 28  0  0  0  0  0  0  0  0999 V2000
   -0.7806    1.1089   -1.6289 C   0  0  0  0  0  0  0  0  0  0  0  0
   -0.6764    0.9892   -0.1223 C   0  0  1  0  0  0  0  0  0  0  0  0
   -1.8896    1.4140    0.5377 N   0  0  0  0  0  0  0  0  0  0  0  0
   -2.9266    0.5077    0.8680 C   0  0  0  0  0  0  0  0  0  0  0  0
   -4.0891    0.9429    0.9902 O   0  0  0  0  0  0  0  0  0  0  0  0
   -2.6604   -0.9507    1.0747 C   0  0  0  0  0  0  0  0  0  0  0  0
   -1.5808   -1.3040    0.0464 C   0  0  0  0  0  0  0  0  0  0  0  0
   -0.4037   -0.4340    0.3012 C   0  0  1  0  0  0  0  0  0  0  0  0
    0.8508   -0.9229   -0.2101 N   0  0  0  0  0  0  0  0  0  0  0  0
    1.9996   -0.2600    0.3518 C   0  0  0  0  0  0  0  0  0  0  0  0
    3.2617   -0.5680   -0.3791 C   0  0  0  0  0  0  0  0  0  0  0  0
    4.5000    0.0038    0.0329 N   0  0  0  0  0  0  0  0  0  0  0  0
    3.2621   -1.3327   -1.3748 O   0  0  0  0  0  0  0  0  0  0  0  0
   -1.0530    2.1846   -1.8288 H   0  0  0  0  0  0  0  0  0  0  0  0
   -1.5409    0.5007   -2.0974 H   0  0  0  0  0  0  0  0  0  0  0  0
    0.1984    0.8896   -2.0723 H   0  0  0  0  0  0  0  0  0  0  0  0
    0.1453    1.6237    0.2109 H   0  0  0  0  0  0  0  0  0  0  0  0
   -2.0328    2.4188    0.7963 H   0  0  0  0  0  0  0  0  0  0  0  0
   -3.5491   -1.5447    0.8085 H   0  0  0  0  0  0  0  0  0  0  0  0
   -2.2671   -1.1637    2.0700 H   0  0  0  0  0  0  0  0  0  0  0  0
   -1.3099   -2.3747    0.0917 H   0  0  0  0  0  0  0  0  0  0  0  0
   -2.0366   -1.1425   -0.9482 H   0  0  0  0  0  0  0  0  0  0  0  0
   -0.2910   -0.3726    1.4253 H   0  0  0  0  0  0  0  0  0  0  0  0
    0.8673   -1.0810   -1.2108 H   0  0  0  0  0  0  0  0  0  0  0  0
    2.1933   -0.6743    1.4138 H   0  0  0  0  0  0  0  0  0  0  0  0
    1.8737    0.8229    0.4959 H   0  0  0  0  0  0  0  0  0  0  0  0
    5.2379    0.1888   -0.6620 H   0  0  0  0  0  0  0  0  0  0  0  0
    4.6975    0.2538    1.0195 H   0  0  0  0  0  0  0  0  0  0  0  0
  1  2  1  0
  2  3  1  0
  3  4  1  0
  4  5  2  0
  4  6  1  0
  6  7  1  0
  7  8  1  0
  8  9  1  0
  9 10  1  0
 10 11  1  0
 11 12  1  0
 11 13  2  0
  8  2  1  0
  1 14  1  0
  1 15  1  0
  1 16  1  0
  2 17  1  1
  3 18  1  0
  6 19  1  0
  6 20  1  0
  7 21  1  0
  7 22  1  0
  8 23  1  1
  9 24  1  0
 10 25  1  0
 10 26  1  0
 12 27  1  0
 12 28  1  0
M  END
$$$$

     RDKit          3D

 28 28  0  0  0  0  0  0  0  0999 V2000
   -0.8106   -0.9671   -1.5104 C   0  0  0  0  0  0  0  0  0  0  0  0
   -0.6160    0.3821   -0.8724 C   0  0  1  0  0  0  0  0  0  0  0  0
   -1.7979    1.2183   -1.0009 N   0  0  0  0  0  0  0  0  0  0  0  0
   -2.8066    1.1042   -0.0091 C   0  0  0  0  0  0  0  0  0  0  0  0
   -3.6819    2.0142    0.1639 O   0  0  0  0  0  0  0  0  0  0  0  0
   -2.8347   -0.1143    0.8470 C   0  0  0  0  0  0  0  0  0  0  0  0
   -1.4790   -0.6590    1.1537 C   0  0  0  0  0  0  0  0  0  0  0  0
   -0.3474    0.1933    0.5812 C   0  0  1  0  0  0  0  0  0  0  0  0
    0.8797   -0.5065    0.8732 N   0  0  0  0  0  0  0  0  0  0  0  0
    1.9969    0.2452    0.4026 C   0  0  0  0  0  0  0  0  0  0  0  0
    3.2982   -0.3942    0.6832 C   0  0  0  0  0  0  0  0  0  0  0  0
    4.4732    0.2415    0.2727 N   0  0  0  0  0  0  0  0  0  0  0  0
    3.3348   -1.4842    1.2777 O   0  0  0  0  0  0  0  0  0  0  0  0
   -0.4622   -0.9677   -2.5696 H   0  0  0  0  0  0  0  0  0  0  0  0
   -1.8658   -1.2964   -1.4989 H   0  0  0  0  0  0  0  0  0  0  0  0
   -0.2088   -1.7354   -0.9872 H   0  0  0  0  0  0  0  0  0  0  0  0
    0.1767    0.9025   -1.4413 H   0  0  0  0  0  0  0  0  0  0  0  0
   -1.9574    1.8977   -1.7692 H   0  0  0  0  0  0  0  0  0  0  0  0
   -3.4024    0.1283    1.7667 H   0  0  0  0  0  0  0  0  0  0  0  0
   -3.4665   -0.8466    0.2697 H   0  0  0  0  0  0  0  0  0  0  0  0
   -1.4214   -1.7047    0.7613 H   0  0  0  0  0  0  0  0  0  0  0  0
   -1.3279   -0.7139    2.2522 H   0  0  0  0  0  0  0  0  0  0  0  0
   -0.3896    1.1460    1.1601 H   0  0  0  0  0  0  0  0  0  0  0  0
    0.9432   -0.5867    1.9099 H   0  0  0  0  0  0  0  0  0  0  0  0
    1.9459    0.2772   -0.7275 H   0  0  0  0  0  0  0  0  0  0  0  0
    2.0063    1.2688    0.8235 H   0  0  0  0  0  0  0  0  0  0  0  0
    5.0054   -0.1172   -0.5366 H   0  0  0  0  0  0  0  0  0  0  0  0
    4.8157    1.0744    0.7765 H   0  0  0  0  0  0  0  0  0  0  0  0
  1  2  1  0
  2  3  1  0
  3  4  1  0
  4  5  2  0
  4  6  1  0
  6  7  1  0
  7  8  1  0
  8  9  1  0
  9 10  1  0
 10 11  1  0
 11 12  1  0
 11 13  2  0
  8  2  1  0
  1 14  1  0
  1 15  1  0
  1 16  1  0
  2 17  1  6
  3 18  1  0
  6 19  1  0
  6 20  1  0
  7 21  1  0
  7 22  1  0
  8 23  1  1
  9 24  1  0
 10 25  1  0
 10 26  1  0
 12 27  1  0
 12 28  1  0
M  END
$$$$

     RDKit          3D

 28 28  0  0  0  0  0  0  0  0999 V2000
   -2.0356   -1.7914   -0.0557 C   0  0  0  0  0  0  0  0  0  0  0  0
   -1.5528   -0.6673   -0.9288 C   0  0  1  0  0  0  0  0  0  0  0  0
   -2.5530    0.3967   -0.9361 N   0  0  0  0  0  0  0  0  0  0  0  0
   -2.3186    1.4969   -0.0592 C   0  0  0  0  0  0  0  0  0  0  0  0
   -2.6783    2.6760   -0.3840 O   0  0  0  0  0  0  0  0  0  0  0  0
   -1.6429    1.2035    1.2354 C   0  0  0  0  0  0  0  0  0  0  0  0
   -0.3686    0.4016    1.0135 C   0  0  0  0  0  0  0  0  0  0  0  0
   -0.3017   -0.0020   -0.4236 C   0  0  1  0  0  0  0  0  0  0  0  0
    0.9198   -0.6801   -0.7870 N   0  0  0  0  0  0  0  0  0  0  0  0
    1.9747   -0.0091   -0.0771 C   0  0  0  0  0  0  0  0  0  0  0  0
    3.3373   -0.4532   -0.4110 C   0  0  0  0  0  0  0  0  0  0  0  0
    4.4035    0.1599    0.2543 N   0  0  0  0  0  0  0  0  0  0  0  0
    3.5327   -1.3403   -1.2539 O   0  0  0  0  0  0  0  0  0  0  0  0
   -1.9330   -2.7317   -0.6327 H   0  0  0  0  0  0  0  0  0  0  0  0
   -1.5265   -1.8579    0.9047 H   0  0  0  0  0  0  0  0  0  0  0  0
   -3.1196   -1.6783    0.1527 H   0  0  0  0  0  0  0  0  0  0  0  0
   -1.3695   -0.9916   -1.9680 H   0  0  0  0  0  0  0  0  0  0  0  0
   -3.3791    0.3645   -1.5380 H   0  0  0  0  0  0  0  0  0  0  0  0
   -2.2934    0.6247    1.9076 H   0  0  0  0  0  0  0  0  0  0  0  0
   -1.4484    2.1781    1.7385 H   0  0  0  0  0  0  0  0  0  0  0  0
   -0.2590   -0.4233    1.7346 H   0  0  0  0  0  0  0  0  0  0  0  0
    0.4577    1.1557    1.1786 H   0  0  0  0  0  0  0  0  0  0  0  0
   -0.2535    0.9772   -1.0030 H   0  0  0  0  0  0  0  0  0  0  0  0
    1.0501   -0.6127   -1.8032 H   0  0  0  0  0  0  0  0  0  0  0  0
    1.8581   -0.2424    1.0198 H   0  0  0  0  0  0  0  0  0  0  0  0
    1.9042    1.0664   -0.2918 H   0  0  0  0  0  0  0  0  0  0  0  0
    4.6301    1.1503    0.0684 H   0  0  0  0  0  0  0  0  0  0  0  0
    4.9654   -0.3700    0.9350 H   0  0  0  0  0  0  0  0  0  0  0  0
  1  2  1  0
  2  3  1  0
  3  4  1  0
  4  5  2  0
  4  6  1  0
  6  7  1  0
  7  8  1  0
  8  9  1  0
  9 10  1  0
 10 11  1  0
 11 12  1  0
 11 13  2  0
  8  2  1  0
  1 14  1  0
  1 15  1  0
  1 16  1  0
  2 17  1  6
  3 18  1  0
  6 19  1  0
  6 20  1  0
  7 21  1  0
  7 22  1  0
  8 23  1  6
  9 24  1  0
 10 25  1  0
 10 26  1  0
 12 27  1  0
 12 28  1  0
M  END
$$$$

     RDKit          3D

 28 28  0  0  0  0  0  0  0  0999 V2000
   -0.9915    1.8521   -0.2923 C   0  0  0  0  0  0  0  0  0  0  0  0
   -0.8845    0.6279    0.5788 C   0  0  1  0  0  0  0  0  0  0  0  0
   -2.2257    0.2175    1.0265 N   0  0  0  0  0  0  0  0  0  0  0  0
   -2.6784   -1.1009    0.7980 C   0  0  0  0  0  0  0  0  0  0  0  0
   -3.4003   -1.6676    1.6412 O   0  0  0  0  0  0  0  0  0  0  0  0
   -2.3222   -1.8637   -0.4377 C   0  0  0  0  0  0  0  0  0  0  0  0
   -1.2951   -1.0322   -1.1871 C   0  0  0  0  0  0  0  0  0  0  0  0
   -0.2892   -0.5412   -0.1668 C   0  0  1  0  0  0  0  0  0  0  0  0
    0.9810   -0.2449   -0.7422 N   0  0  0  0  0  0  0  0  0  0  0  0
    1.9593    0.0741    0.2499 C   0  0  0  0  0  0  0  0  0  0  0  0
    3.2600    0.3546   -0.4170 C   0  0  0  0  0  0  0  0  0  0  0  0
    4.3636    0.6927    0.4062 N   0  0  0  0  0  0  0  0  0  0  0  0
    3.3656    0.2913   -1.6648 O   0  0  0  0  0  0  0  0  0  0  0  0
   -0.2143    1.8935   -1.0538 H   0  0  0  0  0  0  0  0  0  0  0  0
   -0.8962    2.7567    0.3535 H   0  0  0  0  0  0  0  0  0  0  0  0
   -2.0063    1.8873   -0.7323 H   0  0  0  0  0  0  0  0  0  0  0  0
   -0.2585    0.8257    1.4879 H   0  0  0  0  0  0  0  0  0  0  0  0
   -2.8299    0.9108    1.5112 H   0  0  0  0  0  0  0  0  0  0  0  0
   -1.8440   -2.7994   -0.1015 H   0  0  0  0  0  0  0  0  0  0  0  0
   -3.2244   -2.0190   -1.0465 H   0  0  0  0  0  0  0  0  0  0  0  0
   -1.8231   -0.1832   -1.6880 H   0  0  0  0  0  0  0  0  0  0  0  0
   -0.7994   -1.6699   -1.9450 H   0  0  0  0  0  0  0  0  0  0  0  0
   -0.1892   -1.3688    0.5855 H   0  0  0  0  0  0  0  0  0  0  0  0
    0.9753    0.3345   -1.5816 H   0  0  0  0  0  0  0  0  0  0  0  0
    1.6593    0.9539    0.8659 H   0  0  0  0  0  0  0  0  0  0  0  0
    2.1049   -0.8157    0.9072 H   0  0  0  0  0  0  0  0  0  0  0  0
    4.6563    1.6879    0.4675 H   0  0  0  0  0  0  0  0  0  0  0  0
    4.8467   -0.0543    0.9225 H   0  0  0  0  0  0  0  0  0  0  0  0
  1  2  1  0
  2  3  1  0
  3  4  1  0
  4  5  2  0
  4  6  1  0
  6  7  1  0
  7  8  1  0
  8  9  1  0
  9 10  1  0
 10 11  1  0
 11 12  1  0
 11 13  2  0
  8  2  1  0
  1 14  1  0
  1 15  1  0
  1 16  1  0
  2 17  1  1
  3 18  1  0
  6 19  1  0
  6 20  1  0
  7 21  1  0
  7 22  1  0
  8 23  1  1
  9 24  1  0
 10 25  1  0
 10 26  1  0
 12 27  1  0
 12 28  1  0
M  END
$$$$
