
     RDKit          3D

 30 30  0  0  0  0  0  0  0  0999 V2000
    4.3970   -0.9275    0.0490 C   0  0  0  0  0  0  0  0  0  0  0  0
    2.9906   -1.0368    0.2736 N   0  0  0  0  0  0  0  0  0  0  0  0
    2.0573   -0.2630   -0.4786 C   0  0  0  0  0  0  0  0  0  0  0  0
    2.3676    0.0720   -1.6793 N   0  0  0  0  0  0  0  0  0  0  0  0
    0.8202    0.1273    0.0802 N   0  0  0  0  0  0  0  0  0  0  0  0
    0.1398   -0.8547    0.9392 C   0  0  0  0  0  0  0  0  0  0  0  0
   -1.1505   -0.2299    1.3524 C   0  0  0  0  0  0  0  0  0  0  0  0
   -1.9106    0.0726    0.0534 C   0  0  0  0  0  0  0  0  0  0  0  0
   -1.8137   -1.0455   -0.7720 O   0  0  0  0  0  0  0  0  0  0  0  0
   -3.3346    0.3252    0.4363 C   0  0  0  0  0  0  0  0  0  0  0  0
   -4.1561    0.5550   -0.6561 O   0  0  0  0  0  0  0  0  0  0  0  0
   -1.2500    1.2678   -0.5832 C   0  0  0  0  0  0  0  0  0  0  0  0
    0.2014    1.4087   -0.1407 C   0  0  0  0  0  0  0  0  0  0  0  0
    4.9216   -1.7877    0.5396 H   0  0  0  0  0  0  0  0  0  0  0  0
    4.8246   -0.0167    0.5512 H   0  0  0  0  0  0  0  0  0  0  0  0
    4.6295   -0.8755   -1.0235 H   0  0  0  0  0  0  0  0  0  0  0  0
    2.6246   -1.7036    1.0120 H   0  0  0  0  0  0  0  0  0  0  0  0
    1.6958    0.6318   -2.2279 H   0  0  0  0  0  0  0  0  0  0  0  0
   -0.0972   -1.7091    0.2683 H   0  0  0  0  0  0  0  0  0  0  0  0
    0.7864   -1.1572    1.7879 H   0  0  0  0  0  0  0  0  0  0  0  0
   -0.9138    0.7500    1.8451 H   0  0  0  0  0  0  0  0  0  0  0  0
   -1.8041   -0.8614    1.9584 H   0  0  0  0  0  0  0  0  0  0  0  0
   -2.0755   -1.8492   -0.2615 H   0  0  0  0  0  0  0  0  0  0  0  0
   -3.3854    1.1359    1.1927 H   0  0  0  0  0  0  0  0  0  0  0  0
   -3.7135   -0.5891    0.9383 H   0  0  0  0  0  0  0  0  0  0  0  0
   -4.8380    1.2206   -0.3729 H   0  0  0  0  0  0  0  0  0  0  0  0
   -1.7861    2.2023   -0.3816 H   0  0  0  0  0  0  0  0  0  0  0  0
   -1.2171    1.1477   -1.6948 H   0  0  0  0  0  0  0  0  0  0  0  0
    0.2239    2.0696    0.7424 H   0  0  0  0  0  0  0  0  0  0  0  0
    0.7659    1.9204   -0.9487 H   0  0  0  0  0  0  0  0  0  0  0  0
  1  2  1  0
  2  3  1  0
  3  4  2  3
  3  5  1  0
  5  6  1  0
  6  7  1  0
  7  8  1  0
  8  9  1  0
  8 10  1  0
 10 11  1  0
  8 12  1  0
 12 13  1  0
 13  5  1  0
  1 14  1  0
  1 15  1  0
  1 16  1  0
  2 17  1  0
  4 18  1  0
  6 19  1  0
  6 20  1  0
  7 21  1  0
  7 22  1  0
  9 23  1  0
 10 24  1  0
 10 25  1  0
 11 26  1  0
 12 27  1  0
 12 28  1  0
 13 29  1  0
 13 30  1  0
M  END
$$$$

     RDKit          3D

 30 30  0  0  0  0  0  0  0  0999 V2000
    4.0475    1.1005   -0.1397 C   0  0  0  0  0  0  0  0  0  0  0  0
    2.6946    0.7390    0.2277 N   0  0  0  0  0  0  0  0  0  0  0  0
    2.2071   -0.5515   -0.0649 C   0  0  0  0  0  0  0  0  0  0  0  0
    3.0017   -1.5079   -0.3504 N   0  0  0  0  0  0  0  0  0  0  0  0
    0.8143   -0.7707   -0.0367 N   0  0  0  0  0  0  0  0  0  0  0  0
    0.1322   -1.0854    1.1841 C   0  0  0  0  0  0  0  0  0  0  0  0
   -1.2072   -0.5037    1.3449 C   0  0  0  0  0  0  0  0  0  0  0  0
   -1.8828   -0.0037    0.1299 C   0  0  0  0  0  0  0  0  0  0  0  0
   -2.7125   -1.0124   -0.4071 O   0  0  0  0  0  0  0  0  0  0  0  0
   -2.8360    1.1206    0.5423 C   0  0  0  0  0  0  0  0  0  0  0  0
   -3.7448    0.6843    1.4793 O   0  0  0  0  0  0  0  0  0  0  0  0
   -0.9779    0.4539   -0.9670 C   0  0  0  0  0  0  0  0  0  0  0  0
   -0.0010   -0.6876   -1.2515 C   0  0  0  0  0  0  0  0  0  0  0  0
    3.9692    2.0303   -0.7661 H   0  0  0  0  0  0  0  0  0  0  0  0
    4.5667    0.3034   -0.6732 H   0  0  0  0  0  0  0  0  0  0  0  0
    4.6648    1.3916    0.7354 H   0  0  0  0  0  0  0  0  0  0  0  0
    2.1227    1.4785    0.7098 H   0  0  0  0  0  0  0  0  0  0  0  0
    2.6338   -2.4586   -0.5654 H   0  0  0  0  0  0  0  0  0  0  0  0
    0.1146   -2.2123    1.2588 H   0  0  0  0  0  0  0  0  0  0  0  0
    0.7882   -0.7650    2.0336 H   0  0  0  0  0  0  0  0  0  0  0  0
   -1.8776   -1.2860    1.8118 H   0  0  0  0  0  0  0  0  0  0  0  0
   -1.1908    0.3155    2.1238 H   0  0  0  0  0  0  0  0  0  0  0  0
   -3.1249   -0.6227   -1.2381 H   0  0  0  0  0  0  0  0  0  0  0  0
   -2.2523    1.9613    1.0198 H   0  0  0  0  0  0  0  0  0  0  0  0
   -3.3399    1.5696   -0.3283 H   0  0  0  0  0  0  0  0  0  0  0  0
   -4.6537    0.5417    1.1012 H   0  0  0  0  0  0  0  0  0  0  0  0
   -0.3591    1.3245   -0.7058 H   0  0  0  0  0  0  0  0  0  0  0  0
   -1.5670    0.5869   -1.8891 H   0  0  0  0  0  0  0  0  0  0  0  0
   -0.6271   -1.6187   -1.2992 H   0  0  0  0  0  0  0  0  0  0  0  0
    0.5973   -0.5152   -2.1436 H   0  0  0  0  0  0  0  0  0  0  0  0
  1  2  1  0
  2  3  1  0
  3  4  2  3
  3  5  1  0
  5  6  1  0
  6  7  1  0
  7  8  1  0
  8  9  1  0
  8 10  1  0
 10 11  1  0
  8 12  1  0
 12 13  1  0
 13  5  1  0
  1 14  1  0
  1 15  1  0
  1 16  1  0
  2 17  1  0
  4 18  1  0
  6 19  1  0
  6 20  1  0
  7 21  1  0
  7 22  1  0
  9 23  1  0
 10 24  1  0
 10 25  1  0
 11 26  1  0
 12 27  1  0
 12 28  1  0
 13 29  1  0
 13 30  1  0
M  END
$$$$

     RDKit          3D

 30 30  0  0  0  0  0  0  0  0999 V2000
    4.2042    0.9365    0.5674 C   0  0  0  0  0  0  0  0  0  0  0  0
    2.8066    0.6338    0.7815 N   0  0  0  0  0  0  0  0  0  0  0  0
    2.1212   -0.3949    0.0486 C   0  0  0  0  0  0  0  0  0  0  0  0
    2.8399   -1.2946   -0.5082 N   0  0  0  0  0  0  0  0  0  0  0  0
    0.7065   -0.3814   -0.0327 N   0  0  0  0  0  0  0  0  0  0  0  0
   -0.0669    0.8416   -0.0047 C   0  0  0  0  0  0  0  0  0  0  0  0
   -1.1969    0.6896   -0.9796 C   0  0  0  0  0  0  0  0  0  0  0  0
   -2.1520   -0.3501   -0.5018 C   0  0  0  0  0  0  0  0  0  0  0  0
   -2.8160   -0.8625   -1.6399 O   0  0  0  0  0  0  0  0  0  0  0  0
   -3.2226    0.3247    0.3304 C   0  0  0  0  0  0  0  0  0  0  0  0
   -2.7277    0.8818    1.4897 O   0  0  0  0  0  0  0  0  0  0  0  0
   -1.4753   -1.4631    0.2277 C   0  0  0  0  0  0  0  0  0  0  0  0
   -0.0176   -1.6295   -0.1493 C   0  0  0  0  0  0  0  0  0  0  0  0
    4.3053    2.0513    0.6964 H   0  0  0  0  0  0  0  0  0  0  0  0
    4.5378    0.7215   -0.4660 H   0  0  0  0  0  0  0  0  0  0  0  0
    4.8588    0.4867    1.3375 H   0  0  0  0  0  0  0  0  0  0  0  0
    2.2772    1.1770    1.4890 H   0  0  0  0  0  0  0  0  0  0  0  0
    3.8633   -1.2825   -0.4347 H   0  0  0  0  0  0  0  0  0  0  0  0
   -0.4078    0.9821    1.0412 H   0  0  0  0  0  0  0  0  0  0  0  0
    0.5687    1.6905   -0.3372 H   0  0  0  0  0  0  0  0  0  0  0  0
   -0.7432    0.3165   -1.9402 H   0  0  0  0  0  0  0  0  0  0  0  0
   -1.6918    1.6464   -1.2263 H   0  0  0  0  0  0  0  0  0  0  0  0
   -3.0160   -0.0733   -2.2040 H   0  0  0  0  0  0  0  0  0  0  0  0
   -4.0509   -0.3874    0.5935 H   0  0  0  0  0  0  0  0  0  0  0  0
   -3.6849    1.1356   -0.2685 H   0  0  0  0  0  0  0  0  0  0  0  0
   -2.6888    1.8753    1.4336 H   0  0  0  0  0  0  0  0  0  0  0  0
   -1.5946   -1.3905    1.3345 H   0  0  0  0  0  0  0  0  0  0  0  0
   -1.9835   -2.4199   -0.0661 H   0  0  0  0  0  0  0  0  0  0  0  0
    0.4000   -2.4012    0.5494 H   0  0  0  0  0  0  0  0  0  0  0  0
    0.0467   -2.0599   -1.1613 H   0  0  0  0  0  0  0  0  0  0  0  0
  1  2  1  0
  2  3  1  0
  3  4  2  3
  3  5  1  0
  5  6  1  0
  6  7  1  0
  7  8  1  0
  8  9  1  0
  8 10  1  0
 10 11  1  0
  8 12  1  0
 12 13  1  0
 13  5  1  0
  1 14  1  0
  1 15  1  0
  1 16  1  0
  2 17  1  0
  4 18  1  0
  6 19  1  0
  6 20  1  0
  7 21  1  0
  7 22  1  0
  9 23  1  0
 10 24  1  0
 10 25  1  0
 11 26  1  0
 12 27  1  0
 12 28  1  0
 13 29  1  0
 13 30  1  0
M  END
$$$$

     RDKit          3D

 30 30  0  0  0  0  0  0  0  0999 V2000
    4.3441    0.3556    0.0594 C   0  0  0  0  0  0  0  0  0  0  0  0
    2.9902   -0.1320    0.3281 N   0  0  0  0  0  0  0  0  0  0  0  0
    2.0000   -0.2291   -0.6821 C   0  0  0  0  0  0  0  0  0  0  0  0
    2.4211   -0.2814   -1.9112 N   0  0  0  0  0  0  0  0  0  0  0  0
    0.6065   -0.2693   -0.3923 N   0  0  0  0  0  0  0  0  0  0  0  0
    0.0411   -1.1751    0.5678 C   0  0  0  0  0  0  0  0  0  0  0  0
   -1.2132   -0.6894    1.2156 C   0  0  0  0  0  0  0  0  0  0  0  0
   -2.0225    0.2599    0.3876 C   0  0  0  0  0  0  0  0  0  0  0  0
   -1.7320    1.5725    0.7565 O   0  0  0  0  0  0  0  0  0  0  0  0
   -3.4985    0.0614    0.5037 C   0  0  0  0  0  0  0  0  0  0  0  0
   -3.8964   -1.2270    0.1552 O   0  0  0  0  0  0  0  0  0  0  0  0
   -1.6289    0.1448   -1.0878 C   0  0  0  0  0  0  0  0  0  0  0  0
   -0.2123    0.6727   -1.1366 C   0  0  0  0  0  0  0  0  0  0  0  0
    4.3417    0.9731   -0.8392 H   0  0  0  0  0  0  0  0  0  0  0  0
    5.0387   -0.4961    0.0295 H   0  0  0  0  0  0  0  0  0  0  0  0
    4.6935    0.9952    0.9221 H   0  0  0  0  0  0  0  0  0  0  0  0
    2.6958   -0.4339    1.2980 H   0  0  0  0  0  0  0  0  0  0  0  0
    3.4086   -0.2562   -2.1736 H   0  0  0  0  0  0  0  0  0  0  0  0
    0.7961   -1.3307    1.3676 H   0  0  0  0  0  0  0  0  0  0  0  0
   -0.1192   -2.1689    0.1003 H   0  0  0  0  0  0  0  0  0  0  0  0
   -1.0012   -0.1847    2.1854 H   0  0  0  0  0  0  0  0  0  0  0  0
   -1.8682   -1.5544    1.4599 H   0  0  0  0  0  0  0  0  0  0  0  0
   -1.3225    1.6564    1.6375 H   0  0  0  0  0  0  0  0  0  0  0  0
   -3.9899    0.7537   -0.2109 H   0  0  0  0  0  0  0  0  0  0  0  0
   -3.8443    0.3636    1.5111 H   0  0  0  0  0  0  0  0  0  0  0  0
   -3.1247   -1.7135   -0.2253 H   0  0  0  0  0  0  0  0  0  0  0  0
   -2.2535    0.8225   -1.6911 H   0  0  0  0  0  0  0  0  0  0  0  0
   -1.6559   -0.9018   -1.3988 H   0  0  0  0  0  0  0  0  0  0  0  0
   -0.1441    1.6408   -0.5615 H   0  0  0  0  0  0  0  0  0  0  0  0
    0.1501    0.7841   -2.1750 H   0  0  0  0  0  0  0  0  0  0  0  0
  1  2  1  0
  2  3  1  0
  3  4  2  3
  3  5  1  0
  5  6  1  0
  6  7  1  0
  7  8  1  0
  8  9  1  0
  8 10  1  0
 10 11  1  0
  8 12  1  0
 12 13  1  0
 13  5  1  0
  1 14  1  0
  1 15  1  0
  1 16  1  0
  2 17  1  0
  4 18  1  0
  6 19  1  0
  6 20  1  0
  7 21  1  0
  7 22  1  0
  9 23  1  0
 10 24  1  0
 10 25  1  0
 11 26  1  0
 12 27  1  0
 12 28  1  0
 13 29  1  0
 13 30  1  0
M  END
$$$$

     RDKit          3D

 30 30  0  0  0  0  0  0  0  0999 V2000
    4.5643   -0.0078    0.3757 C   0  0  0  0  0  0  0  0  0  0  0  0
    3.2021   -0.5021    0.3391 N   0  0  0  0  0  0  0  0  0  0  0  0
    2.0820    0.3238    0.0548 C   0  0  0  0  0  0  0  0  0  0  0  0
    2.2804    1.5815   -0.1400 N   0  0  0  0  0  0  0  0  0  0  0  0
    0.7499   -0.1625   -0.0269 N   0  0  0  0  0  0  0  0  0  0  0  0
    0.0174   -0.5526    1.1850 C   0  0  0  0  0  0  0  0  0  0  0  0
   -1.2096    0.3147    1.2386 C   0  0  0  0  0  0  0  0  0  0  0  0
   -2.0531    0.2521    0.0113 C   0  0  0  0  0  0  0  0  0  0  0  0
   -2.9459    1.3477    0.0668 O   0  0  0  0  0  0  0  0  0  0  0  0
   -2.9405   -0.9859   -0.0337 C   0  0  0  0  0  0  0  0  0  0  0  0
   -3.7232   -0.8448   -1.1996 O   0  0  0  0  0  0  0  0  0  0  0  0
   -1.3035    0.3645   -1.2721 C   0  0  0  0  0  0  0  0  0  0  0  0
    0.0328   -0.3068   -1.2734 C   0  0  0  0  0  0  0  0  0  0  0  0
    4.6120    1.0885    0.5293 H   0  0  0  0  0  0  0  0  0  0  0  0
    5.1153   -0.2210   -0.5668 H   0  0  0  0  0  0  0  0  0  0  0  0
    5.0924   -0.4908    1.2069 H   0  0  0  0  0  0  0  0  0  0  0  0
    3.0649   -1.5249    0.5361 H   0  0  0  0  0  0  0  0  0  0  0  0
    1.5361    2.2676   -0.3529 H   0  0  0  0  0  0  0  0  0  0  0  0
   -0.3079   -1.6169    1.1232 H   0  0  0  0  0  0  0  0  0  0  0  0
    0.6267   -0.3355    2.0628 H   0  0  0  0  0  0  0  0  0  0  0  0
   -0.8515    1.3694    1.3461 H   0  0  0  0  0  0  0  0  0  0  0  0
   -1.8549    0.1053    2.1118 H   0  0  0  0  0  0  0  0  0  0  0  0
   -3.4663    1.3398    0.9179 H   0  0  0  0  0  0  0  0  0  0  0  0
   -3.5813   -1.0514    0.8641 H   0  0  0  0  0  0  0  0  0  0  0  0
   -2.2918   -1.8719   -0.1645 H   0  0  0  0  0  0  0  0  0  0  0  0
   -3.9267    0.1081   -1.3760 H   0  0  0  0  0  0  0  0  0  0  0  0
   -1.9186   -0.1239   -2.0681 H   0  0  0  0  0  0  0  0  0  0  0  0
   -1.1958    1.4267   -1.5564 H   0  0  0  0  0  0  0  0  0  0  0  0
    0.6728    0.1191   -2.0760 H   0  0  0  0  0  0  0  0  0  0  0  0
   -0.0783   -1.4102   -1.4410 H   0  0  0  0  0  0  0  0  0  0  0  0
  1  2  1  0
  2  3  1  0
  3  4  2  3
  3  5  1  0
  5  6  1  0
  6  7  1  0
  7  8  1  0
  8  9  1  0
  8 10  1  0
 10 11  1  0
  8 12  1  0
 12 13  1  0
 13  5  1  0
  1 14  1  0
  1 15  1  0
  1 16  1  0
  2 17  1  0
  4 18  1  0
  6 19  1  0
  6 20  1  0
  7 21  1  0
  7 22  1  0
  9 23  1  0
 10 24  1  0
 10 25  1  0
 11 26  1  0
 12 27  1  0
 12 28  1  0
 13 29  1  0
 13 30  1  0
M  END
$$$$

     RDKit          3D

 30 30  0  0  0  0  0  0  0  0999 V2000
   -4.3314    0.4319    0.2652 C   0  0  0  0  0  0  0  0  0  0  0  0
   -2.8703    0.4633    0.3576 N   0  0  0  0  0  0  0  0  0  0  0  0
   -2.0780   -0.6855    0.1085 C   0  0  0  0  0  0  0  0  0  0  0  0
   -2.6148   -1.8470    0.2648 N   0  0  0  0  0  0  0  0  0  0  0  0
   -0.7116   -0.5937   -0.3077 N   0  0  0  0  0  0  0  0  0  0  0  0
    0.2814   -1.5886    0.0329 C   0  0  0  0  0  0  0  0  0  0  0  0
    1.5706   -1.0012    0.5175 C   0  0  0  0  0  0  0  0  0  0  0  0
    1.9875    0.2405   -0.2020 C   0  0  0  0  0  0  0  0  0  0  0  0
    2.3579    0.0152   -1.5277 O   0  0  0  0  0  0  0  0  0  0  0  0
    3.0817    0.9271    0.5810 C   0  0  0  0  0  0  0  0  0  0  0  0
    4.2506    0.1687    0.6076 O   0  0  0  0  0  0  0  0  0  0  0  0
    0.8188    1.2316   -0.2603 C   0  0  0  0  0  0  0  0  0  0  0  0
   -0.2459    0.5395   -1.1172 C   0  0  0  0  0  0  0  0  0  0  0  0
   -4.8169    0.5565    1.2328 H   0  0  0  0  0  0  0  0  0  0  0  0
   -4.6535   -0.4374   -0.3105 H   0  0  0  0  0  0  0  0  0  0  0  0
   -4.6008    1.3330   -0.3589 H   0  0  0  0  0  0  0  0  0  0  0  0
   -2.3809    1.3495    0.6132 H   0  0  0  0  0  0  0  0  0  0  0  0
   -3.6045   -1.9520    0.5660 H   0  0  0  0  0  0  0  0  0  0  0  0
    0.5259   -2.1843   -0.8914 H   0  0  0  0  0  0  0  0  0  0  0  0
   -0.0731   -2.3208    0.7708 H   0  0  0  0  0  0  0  0  0  0  0  0
    2.3753   -1.7616    0.3698 H   0  0  0  0  0  0  0  0  0  0  0  0
    1.5126   -0.7864    1.5874 H   0  0  0  0  0  0  0  0  0  0  0  0
    2.6969   -0.8836   -1.6974 H   0  0  0  0  0  0  0  0  0  0  0  0
    3.2462    1.9157    0.0936 H   0  0  0  0  0  0  0  0  0  0  0  0
    2.6821    1.1169    1.5944 H   0  0  0  0  0  0  0  0  0  0  0  0
    4.9976    0.8179    0.4508 H   0  0  0  0  0  0  0  0  0  0  0  0
    0.3846    1.3060    0.7515 H   0  0  0  0  0  0  0  0  0  0  0  0
    1.1373    2.1832   -0.6862 H   0  0  0  0  0  0  0  0  0  0  0  0
    0.1562    0.2002   -2.0790 H   0  0  0  0  0  0  0  0  0  0  0  0
   -1.0814    1.2455   -1.2033 H   0  0  0  0  0  0  0  0  0  0  0  0
  1  2  1  0
  2  3  1  0
  3  4  2  3
  3  5  1  0
  5  6  1  0
  6  7  1  0
  7  8  1  0
  8  9  1  0
  8 10  1  0
 10 11  1  0
  8 12  1  0
 12 13  1  0
 13  5  1  0
  1 14  1  0
  1 15  1  0
  1 16  1  0
  2 17  1  0
  4 18  1  0
  6 19  1  0
  6 20  1  0
  7 21  1  0
  7 22  1  0
  9 23  1  0
 10 24  1  0
 10 25  1  0
 11 26  1  0
 12 27  1  0
 12 28  1  0
 13 29  1  0
 13 30  1  0
M  END
$$$$

     RDKit          3D

 30 30  0  0  0  0  0  0  0  0999 V2000
    4.0332    0.9832    0.9145 C   0  0  0  0  0  0  0  0  0  0  0  0
    2.7000    0.9437    0.3727 N   0  0  0  0  0  0  0  0  0  0  0  0
    2.1564   -0.3138   -0.0589 C   0  0  0  0  0  0  0  0  0  0  0  0
    2.9962   -1.2933   -0.2884 N   0  0  0  0  0  0  0  0  0  0  0  0
    0.7824   -0.5294   -0.2412 N   0  0  0  0  0  0  0  0  0  0  0  0
    0.0494    0.1333   -1.2774 C   0  0  0  0  0  0  0  0  0  0  0  0
   -1.0662    0.9096   -0.6441 C   0  0  0  0  0  0  0  0  0  0  0  0
   -1.9057    0.1329    0.3104 C   0  0  0  0  0  0  0  0  0  0  0  0
   -2.5405    1.0569    1.1514 O   0  0  0  0  0  0  0  0  0  0  0  0
   -3.0526   -0.5165   -0.4760 C   0  0  0  0  0  0  0  0  0  0  0  0
   -3.6792    0.5202   -1.1646 O   0  0  0  0  0  0  0  0  0  0  0  0
   -1.2195   -0.8605    1.1518 C   0  0  0  0  0  0  0  0  0  0  0  0
    0.0552   -1.4250    0.6056 C   0  0  0  0  0  0  0  0  0  0  0  0
    4.8088    0.6847    0.1609 H   0  0  0  0  0  0  0  0  0  0  0  0
    4.1263    0.4138    1.8592 H   0  0  0  0  0  0  0  0  0  0  0  0
    4.2720    2.0566    1.1664 H   0  0  0  0  0  0  0  0  0  0  0  0
    2.0921    1.7805    0.2708 H   0  0  0  0  0  0  0  0  0  0  0  0
    4.0242   -1.1702   -0.1638 H   0  0  0  0  0  0  0  0  0  0  0  0
    0.7181    0.8588   -1.7689 H   0  0  0  0  0  0  0  0  0  0  0  0
   -0.3046   -0.5701   -2.0621 H   0  0  0  0  0  0  0  0  0  0  0  0
   -1.7063    1.3004   -1.4659 H   0  0  0  0  0  0  0  0  0  0  0  0
   -0.6117    1.8063   -0.1626 H   0  0  0  0  0  0  0  0  0  0  0  0
   -3.3656    1.3831    0.7527 H   0  0  0  0  0  0  0  0  0  0  0  0
   -3.7737   -1.0031    0.1961 H   0  0  0  0  0  0  0  0  0  0  0  0
   -2.6695   -1.2236   -1.2361 H   0  0  0  0  0  0  0  0  0  0  0  0
   -4.5490    0.2507   -1.5442 H   0  0  0  0  0  0  0  0  0  0  0  0
   -1.9027   -1.7233    1.3425 H   0  0  0  0  0  0  0  0  0  0  0  0
   -0.9759   -0.4658    2.1812 H   0  0  0  0  0  0  0  0  0  0  0  0
    0.7090   -1.7791    1.4215 H   0  0  0  0  0  0  0  0  0  0  0  0
   -0.2006   -2.3410   -0.0010 H   0  0  0  0  0  0  0  0  0  0  0  0
  1  2  1  0
  2  3  1  0
  3  4  2  3
  3  5  1  0
  5  6  1  0
  6  7  1  0
  7  8  1  0
  8  9  1  0
  8 10  1  0
 10 11  1  0
  8 12  1  0
 12 13  1  0
 13  5  1  0
  1 14  1  0
  1 15  1  0
  1 16  1  0
  2 17  1  0
  4 18  1  0
  6 19  1  0
  6 20  1  0
  7 21  1  0
  7 22  1  0
  9 23  1  0
 10 24  1  0
 10 25  1  0
 11 26  1  0
 12 27  1  0
 12 28  1  0
 13 29  1  0
 13 30  1  0
M  END
$$$$

     RDKit          3D

 30 30  0  0  0  0  0  0  0  0999 V2000
    4.1050    0.6357    0.7624 C   0  0  0  0  0  0  0  0  0  0  0  0
    2.7682    0.1075    0.9856 N   0  0  0  0  0  0  0  0  0  0  0  0
    2.0434   -0.5586   -0.0442 C   0  0  0  0  0  0  0  0  0  0  0  0
    2.7522   -1.1487   -0.9620 N   0  0  0  0  0  0  0  0  0  0  0  0
    0.6223   -0.5883   -0.0845 N   0  0  0  0  0  0  0  0  0  0  0  0
   -0.1995   -1.4035    0.7569 C   0  0  0  0  0  0  0  0  0  0  0  0
   -1.4757   -0.7233    1.1449 C   0  0  0  0  0  0  0  0  0  0  0  0
   -2.2417   -0.1494    0.0024 C   0  0  0  0  0  0  0  0  0  0  0  0
   -3.3885   -0.8787   -0.2253 O   0  0  0  0  0  0  0  0  0  0  0  0
   -2.5726    1.3012    0.3594 C   0  0  0  0  0  0  0  0  0  0  0  0
   -3.2789    1.9188   -0.6821 O   0  0  0  0  0  0  0  0  0  0  0  0
   -1.4581   -0.0986   -1.2887 C   0  0  0  0  0  0  0  0  0  0  0  0
   -0.0290    0.2729   -1.0510 C   0  0  0  0  0  0  0  0  0  0  0  0
    4.1877    1.1273   -0.2471 H   0  0  0  0  0  0  0  0  0  0  0  0
    4.8909   -0.1141    0.8381 H   0  0  0  0  0  0  0  0  0  0  0  0
    4.2216    1.4837    1.4931 H   0  0  0  0  0  0  0  0  0  0  0  0
    2.2836    0.2006    1.9287 H   0  0  0  0  0  0  0  0  0  0  0  0
    3.7731   -1.1573   -0.9794 H   0  0  0  0  0  0  0  0  0  0  0  0
    0.3560   -1.6273    1.7032 H   0  0  0  0  0  0  0  0  0  0  0  0
   -0.4113   -2.3915    0.2725 H   0  0  0  0  0  0  0  0  0  0  0  0
   -1.2504    0.0336    1.9456 H   0  0  0  0  0  0  0  0  0  0  0  0
   -2.1106   -1.4907    1.6682 H   0  0  0  0  0  0  0  0  0  0  0  0
   -3.3085   -1.5390   -0.9599 H   0  0  0  0  0  0  0  0  0  0  0  0
   -1.6505    1.8734    0.5797 H   0  0  0  0  0  0  0  0  0  0  0  0
   -3.1696    1.2988    1.2900 H   0  0  0  0  0  0  0  0  0  0  0  0
   -2.6434    2.4716   -1.2082 H   0  0  0  0  0  0  0  0  0  0  0  0
   -1.4882   -1.0869   -1.7898 H   0  0  0  0  0  0  0  0  0  0  0  0
   -1.9062    0.6628   -1.9448 H   0  0  0  0  0  0  0  0  0  0  0  0
    0.0392    1.3161   -0.6388 H   0  0  0  0  0  0  0  0  0  0  0  0
    0.5393    0.2519   -1.9791 H   0  0  0  0  0  0  0  0  0  0  0  0
  1  2  1  0
  2  3  1  0
  3  4  2  3
  3  5  1  0
  5  6  1  0
  6  7  1  0
  7  8  1  0
  8  9  1  0
  8 10  1  0
 10 11  1  0
  8 12  1  0
 12 13  1  0
 13  5  1  0
  1 14  1  0
  1 15  1  0
  1 16  1  0
  2 17  1  0
  4 18  1  0
  6 19  1  0
  6 20  1  0
  7 21  1  0
  7 22  1  0
  9 23  1  0
 10 24  1  0
 10 25  1  0
 11 26  1  0
 12 27  1  0
 12 28  1  0
 13 29  1  0
 13 30  1  0
M  END
$$$$
