
     RDKit          3D

 35 36  0  0  0  0  0  0  0  0999 V2000
   -0.1561   -1.4654    1.0468 C   0  0  0  0  0  0  0  0  0  0  0  0
   -0.3083   -0.5127   -0.0137 N   0  0  0  0  0  0  0  0  0  0  0  0
    0.3564    0.7086    0.1037 C   0  0  0  0  0  0  0  0  0  0  0  0
    1.8355    0.7371    0.0021 C   0  0  2  0  0  0  0  0  0  0  0  0
    2.4184    0.2338   -1.2888 C   0  0  0  0  0  0  0  0  0  0  0  0
    3.8012   -0.2721   -0.8547 C   0  0  0  0  0  0  0  0  0  0  0  0
    3.9729    0.2118    0.5248 N   0  0  0  0  0  0  0  0  0  0  0  0
    2.5978   -0.0607    1.0174 C   0  0  0  0  0  0  0  0  0  0  0  0
   -1.6163   -0.5515   -0.5352 C   0  0  2  0  0  0  0  0  0  0  0  0
   -1.9519    0.4527   -1.5796 C   0  0  0  0  0  0  0  0  0  0  0  0
   -2.7743    1.4715   -0.9545 N   0  0  0  0  0  0  0  0  0  0  0  0
   -3.5497    0.7805    0.0410 C   0  0  0  0  0  0  0  0  0  0  0  0
   -2.7105   -0.3925    0.4939 C   0  0  1  0  0  0  0  0  0  0  0  0
   -3.5759   -1.5085    0.5313 O   0  0  0  0  0  0  0  0  0  0  0  0
    0.4400   -2.3664    0.7798 H   0  0  0  0  0  0  0  0  0  0  0  0
    0.3359   -0.9989    1.9233 H   0  0  0  0  0  0  0  0  0  0  0  0
   -1.1545   -1.9069    1.3521 H   0  0  0  0  0  0  0  0  0  0  0  0
    0.1206    1.1143    1.1431 H   0  0  0  0  0  0  0  0  0  0  0  0
   -0.0185    1.5227   -0.5568 H   0  0  0  0  0  0  0  0  0  0  0  0
    2.2384    1.7965    0.1004 H   0  0  0  0  0  0  0  0  0  0  0  0
    2.6201    1.0554   -2.0047 H   0  0  0  0  0  0  0  0  0  0  0  0
    1.8421   -0.5298   -1.8031 H   0  0  0  0  0  0  0  0  0  0  0  0
    3.7638   -1.3773   -0.7694 H   0  0  0  0  0  0  0  0  0  0  0  0
    4.6017    0.0845   -1.5229 H   0  0  0  0  0  0  0  0  0  0  0  0
    3.9769    1.2727    0.4232 H   0  0  0  0  0  0  0  0  0  0  0  0
    2.5438    0.3100    2.0394 H   0  0  0  0  0  0  0  0  0  0  0  0
    2.4708   -1.1651    0.9235 H   0  0  0  0  0  0  0  0  0  0  0  0
   -1.7594   -1.5862   -0.9735 H   0  0  0  0  0  0  0  0  0  0  0  0
   -2.6340   -0.0353   -2.3399 H   0  0  0  0  0  0  0  0  0  0  0  0
   -1.1082    0.8352   -2.1528 H   0  0  0  0  0  0  0  0  0  0  0  0
   -2.2816    2.3099   -0.6549 H   0  0  0  0  0  0  0  0  0  0  0  0
   -4.4792    0.4231   -0.4936 H   0  0  0  0  0  0  0  0  0  0  0  0
   -3.8985    1.4107    0.8668 H   0  0  0  0  0  0  0  0  0  0  0  0
   -2.3349   -0.1581    1.5035 H   0  0  0  0  0  0  0  0  0  0  0  0
   -3.6244   -1.8435   -0.4164 H   0  0  0  0  0  0  0  0  0  0  0  0
  1  2  1  0
  2  3  1  0
  3  4  1  0
  4  5  1  0
  5  6  1  0
  6  7  1  0
  7  8  1  0
  2  9  1  0
  9 10  1  0
 10 11  1  0
 11 12  1  0
 12 13  1  0
 13 14  1  0
  8  4  1  0
 13  9  1  0
  1 15  1  0
  1 16  1  0
  1 17  1  0
  3 18  1  0
  3 19  1  0
  4 20  1  1
  5 21  1  0
  5 22  1  0
  6 23  1  0
  6 24  1  0
  7 25  1  0
  8 26  1  0
  8 27  1  0
  9 28  1  6
 10 29  1  0
 10 30  1  0
 11 31  1  0
 12 32  1  0
 12 33  1  0
 13 34  1  1
 14 35  1  0
M  END
$$$$

     RDKit          3D

 35 36  0  0  0  0  0  0  0  0999 V2000
    0.1735   -1.4750    1.5138 C   0  0  0  0  0  0  0  0  0  0  0  0
    0.4507   -0.3580    0.5948 N   0  0  0  0  0  0  0  0  0  0  0  0
   -0.5575   -0.4571   -0.4323 C   0  0  0  0  0  0  0  0  0  0  0  0
   -1.9170   -0.1257    0.0651 C   0  0  2  0  0  0  0  0  0  0  0  0
   -2.9210   -0.2555   -1.0957 C   0  0  0  0  0  0  0  0  0  0  0  0
   -4.1275    0.3235   -0.3631 C   0  0  0  0  0  0  0  0  0  0  0  0
   -3.5933    1.3682    0.4939 N   0  0  0  0  0  0  0  0  0  0  0  0
   -2.1415    1.3442    0.3471 C   0  0  0  0  0  0  0  0  0  0  0  0
    1.7519   -0.5085    0.0009 C   0  0  2  0  0  0  0  0  0  0  0  0
    2.8470   -0.5219    1.0901 C   0  0  0  0  0  0  0  0  0  0  0  0
    4.0624   -0.1812    0.3689 N   0  0  0  0  0  0  0  0  0  0  0  0
    3.7075    0.3660   -0.9016 C   0  0  0  0  0  0  0  0  0  0  0  0
    2.2331    0.7643   -0.7020 C   0  0  1  0  0  0  0  0  0  0  0  0
    1.6185    1.0311   -1.8847 O   0  0  0  0  0  0  0  0  0  0  0  0
    0.9904   -2.2417    1.3926 H   0  0  0  0  0  0  0  0  0  0  0  0
   -0.7522   -1.9930    1.2532 H   0  0  0  0  0  0  0  0  0  0  0  0
    0.1365   -1.0935    2.5472 H   0  0  0  0  0  0  0  0  0  0  0  0
   -0.6064   -1.5688   -0.6773 H   0  0  0  0  0  0  0  0  0  0  0  0
   -0.3366    0.0381   -1.3617 H   0  0  0  0  0  0  0  0  0  0  0  0
   -2.2724   -0.7337    0.8897 H   0  0  0  0  0  0  0  0  0  0  0  0
   -2.6204    0.4818   -1.8977 H   0  0  0  0  0  0  0  0  0  0  0  0
   -3.0461   -1.2716   -1.4398 H   0  0  0  0  0  0  0  0  0  0  0  0
   -4.8930    0.6754   -1.0695 H   0  0  0  0  0  0  0  0  0  0  0  0
   -4.5118   -0.5479    0.2526 H   0  0  0  0  0  0  0  0  0  0  0  0
   -3.7693    1.1205    1.4918 H   0  0  0  0  0  0  0  0  0  0  0  0
   -1.6173    1.7329    1.2152 H   0  0  0  0  0  0  0  0  0  0  0  0
   -1.9098    1.8912   -0.6086 H   0  0  0  0  0  0  0  0  0  0  0  0
    1.8961   -1.3549   -0.6490 H   0  0  0  0  0  0  0  0  0  0  0  0
    2.6295    0.2434    1.8510 H   0  0  0  0  0  0  0  0  0  0  0  0
    2.9255   -1.5379    1.5169 H   0  0  0  0  0  0  0  0  0  0  0  0
    4.6737    0.4727    0.8960 H   0  0  0  0  0  0  0  0  0  0  0  0
    4.3261    1.2277   -1.2203 H   0  0  0  0  0  0  0  0  0  0  0  0
    3.6648   -0.4348   -1.6787 H   0  0  0  0  0  0  0  0  0  0  0  0
    2.2196    1.6033    0.0491 H   0  0  0  0  0  0  0  0  0  0  0  0
    1.2867    1.9761   -1.8481 H   0  0  0  0  0  0  0  0  0  0  0  0
  1  2  1  0
  2  3  1  0
  3  4  1  0
  4  5  1  0
  5  6  1  0
  6  7  1  0
  7  8  1  0
  2  9  1  0
  9 10  1  0
 10 11  1  0
 11 12  1  0
 12 13  1  0
 13 14  1  0
  8  4  1  0
 13  9  1  0
  1 15  1  0
  1 16  1  0
  1 17  1  0
  3 18  1  0
  3 19  1  0
  4 20  1  1
  5 21  1  0
  5 22  1  0
  6 23  1  0
  6 24  1  0
  7 25  1  0
  8 26  1  0
  8 27  1  0
  9 28  1  6
 10 29  1  0
 10 30  1  0
 11 31  1  0
 12 32  1  0
 12 33  1  0
 13 34  1  1
 14 35  1  0
M  END
$$$$

     RDKit          3D

 35 36  0  0  0  0  0  0  0  0999 V2000
   -0.4076   -2.3474   -0.1833 C   0  0  0  0  0  0  0  0  0  0  0  0
   -0.2565   -0.9349    0.2557 N   0  0  0  0  0  0  0  0  0  0  0  0
    0.9103   -0.4522   -0.4017 C   0  0  0  0  0  0  0  0  0  0  0  0
    1.4970    0.8150    0.1438 C   0  0  2  0  0  0  0  0  0  0  0  0
    2.7351    1.1404   -0.7016 C   0  0  0  0  0  0  0  0  0  0  0  0
    3.9145    0.6528    0.1283 C   0  0  0  0  0  0  0  0  0  0  0  0
    3.3629    0.0114    1.2918 N   0  0  0  0  0  0  0  0  0  0  0  0
    2.0688    0.5961    1.5306 C   0  0  0  0  0  0  0  0  0  0  0  0
   -1.4720   -0.3152   -0.1162 C   0  0  2  0  0  0  0  0  0  0  0  0
   -1.5337    1.1468   -0.3240 C   0  0  0  0  0  0  0  0  0  0  0  0
   -3.0025    1.2835   -0.5719 N   0  0  0  0  0  0  0  0  0  0  0  0
   -3.6368    0.4115    0.3640 C   0  0  0  0  0  0  0  0  0  0  0  0
   -2.5694   -0.4980    0.9308 C   0  0  1  0  0  0  0  0  0  0  0  0
   -2.9626   -1.8067    1.0433 O   0  0  0  0  0  0  0  0  0  0  0  0
   -1.3838   -2.5190   -0.6585 H   0  0  0  0  0  0  0  0  0  0  0  0
    0.3582   -2.6307   -0.9179 H   0  0  0  0  0  0  0  0  0  0  0  0
   -0.3462   -3.0137    0.7045 H   0  0  0  0  0  0  0  0  0  0  0  0
    1.7283   -1.2327   -0.3780 H   0  0  0  0  0  0  0  0  0  0  0  0
    0.7568   -0.3030   -1.5074 H   0  0  0  0  0  0  0  0  0  0  0  0
    0.8839    1.6941    0.1242 H   0  0  0  0  0  0  0  0  0  0  0  0
    2.6990    0.6189   -1.6968 H   0  0  0  0  0  0  0  0  0  0  0  0
    2.8081    2.2261   -0.8860 H   0  0  0  0  0  0  0  0  0  0  0  0
    4.5470    1.5236    0.4019 H   0  0  0  0  0  0  0  0  0  0  0  0
    4.5161   -0.0650   -0.4557 H   0  0  0  0  0  0  0  0  0  0  0  0
    3.2422   -1.0289    1.1476 H   0  0  0  0  0  0  0  0  0  0  0  0
    2.2165    1.5995    1.9638 H   0  0  0  0  0  0  0  0  0  0  0  0
    1.4177   -0.0747    2.1268 H   0  0  0  0  0  0  0  0  0  0  0  0
   -1.8407   -0.8094   -1.0490 H   0  0  0  0  0  0  0  0  0  0  0  0
   -1.0071    1.5266   -1.2233 H   0  0  0  0  0  0  0  0  0  0  0  0
   -1.3951    1.7573    0.5892 H   0  0  0  0  0  0  0  0  0  0  0  0
   -3.2750    2.2839   -0.4649 H   0  0  0  0  0  0  0  0  0  0  0  0
   -4.3304   -0.2456   -0.1921 H   0  0  0  0  0  0  0  0  0  0  0  0
   -4.1422    1.0005    1.1612 H   0  0  0  0  0  0  0  0  0  0  0  0
   -2.2066   -0.0622    1.8729 H   0  0  0  0  0  0  0  0  0  0  0  0
   -3.8940   -1.9485    0.7035 H   0  0  0  0  0  0  0  0  0  0  0  0
  1  2  1  0
  2  3  1  0
  3  4  1  0
  4  5  1  0
  5  6  1  0
  6  7  1  0
  7  8  1  0
  2  9  1  0
  9 10  1  0
 10 11  1  0
 11 12  1  0
 12 13  1  0
 13 14  1  0
  8  4  1  0
 13  9  1  0
  1 15  1  0
  1 16  1  0
  1 17  1  0
  3 18  1  0
  3 19  1  0
  4 20  1  1
  5 21  1  0
  5 22  1  0
  6 23  1  0
  6 24  1  0
  7 25  1  0
  8 26  1  0
  8 27  1  0
  9 28  1  6
 10 29  1  0
 10 30  1  0
 11 31  1  0
 12 32  1  0
 12 33  1  0
 13 34  1  1
 14 35  1  0
M  END
$$$$

     RDKit          3D

 35 36  0  0  0  0  0  0  0  0999 V2000
   -0.2596   -1.8005    0.6322 C   0  0  0  0  0  0  0  0  0  0  0  0
   -0.4913   -0.5318    0.0996 N   0  0  0  0  0  0  0  0  0  0  0  0
    0.5840    0.0400   -0.6278 C   0  0  0  0  0  0  0  0  0  0  0  0
    1.7599    0.4603    0.1783 C   0  0  2  0  0  0  0  0  0  0  0  0
    2.8287    1.0881   -0.7688 C   0  0  0  0  0  0  0  0  0  0  0  0
    3.9613    1.1858    0.2555 C   0  0  0  0  0  0  0  0  0  0  0  0
    3.9731   -0.1543    0.7683 N   0  0  0  0  0  0  0  0  0  0  0  0
    2.5872   -0.6222    0.7901 C   0  0  0  0  0  0  0  0  0  0  0  0
   -1.7356   -0.2066   -0.4701 C   0  0  2  0  0  0  0  0  0  0  0  0
   -1.9483    1.2850   -0.3476 C   0  0  0  0  0  0  0  0  0  0  0  0
   -2.9970    1.4405    0.6376 N   0  0  0  0  0  0  0  0  0  0  0  0
   -3.9270    0.3964    0.2530 C   0  0  0  0  0  0  0  0  0  0  0  0
   -2.9505   -0.7912    0.1858 C   0  0  1  0  0  0  0  0  0  0  0  0
   -3.5175   -1.7183   -0.6521 O   0  0  0  0  0  0  0  0  0  0  0  0
    0.2382   -1.7146    1.6327 H   0  0  0  0  0  0  0  0  0  0  0  0
   -1.1882   -2.4339    0.7387 H   0  0  0  0  0  0  0  0  0  0  0  0
    0.4102   -2.4640    0.0237 H   0  0  0  0  0  0  0  0  0  0  0  0
    0.2212    0.8837   -1.2991 H   0  0  0  0  0  0  0  0  0  0  0  0
    0.9673   -0.7035   -1.4063 H   0  0  0  0  0  0  0  0  0  0  0  0
    1.4928    1.1906    0.9651 H   0  0  0  0  0  0  0  0  0  0  0  0
    2.5013    2.0484   -1.1582 H   0  0  0  0  0  0  0  0  0  0  0  0
    3.0721    0.3042   -1.4859 H   0  0  0  0  0  0  0  0  0  0  0  0
    4.9059    1.5021   -0.1785 H   0  0  0  0  0  0  0  0  0  0  0  0
    3.5780    1.8416    1.0698 H   0  0  0  0  0  0  0  0  0  0  0  0
    4.5224   -0.7620    0.1306 H   0  0  0  0  0  0  0  0  0  0  0  0
    2.5527   -1.5950    0.2982 H   0  0  0  0  0  0  0  0  0  0  0  0
    2.3618   -0.7782    1.8854 H   0  0  0  0  0  0  0  0  0  0  0  0
   -1.7117   -0.4253   -1.5766 H   0  0  0  0  0  0  0  0  0  0  0  0
   -2.2939    1.7374   -1.2998 H   0  0  0  0  0  0  0  0  0  0  0  0
   -1.0182    1.8003    0.0309 H   0  0  0  0  0  0  0  0  0  0  0  0
   -3.4346    2.3838    0.5808 H   0  0  0  0  0  0  0  0  0  0  0  0
   -4.7219    0.2178    0.9767 H   0  0  0  0  0  0  0  0  0  0  0  0
   -4.3147    0.6398   -0.7671 H   0  0  0  0  0  0  0  0  0  0  0  0
   -2.7987   -1.1078    1.2149 H   0  0  0  0  0  0  0  0  0  0  0  0
   -3.2092   -2.6366   -0.5164 H   0  0  0  0  0  0  0  0  0  0  0  0
  1  2  1  0
  2  3  1  0
  3  4  1  0
  4  5  1  0
  5  6  1  0
  6  7  1  0
  7  8  1  0
  2  9  1  0
  9 10  1  0
 10 11  1  0
 11 12  1  0
 12 13  1  0
 13 14  1  0
  8  4  1  0
 13  9  1  0
  1 15  1  0
  1 16  1  0
  1 17  1  0
  3 18  1  0
  3 19  1  0
  4 20  1  1
  5 21  1  0
  5 22  1  0
  6 23  1  0
  6 24  1  0
  7 25  1  0
  8 26  1  0
  8 27  1  0
  9 28  1  6
 10 29  1  0
 10 30  1  0
 11 31  1  0
 12 32  1  0
 12 33  1  0
 13 34  1  1
 14 35  1  0
M  END
$$$$

     RDKit          3D

 35 36  0  0  0  0  0  0  0  0999 V2000
   -0.2641   -2.0798    0.0837 C   0  0  0  0  0  0  0  0  0  0  0  0
   -0.4334   -0.6131    0.0144 N   0  0  0  0  0  0  0  0  0  0  0  0
    0.5675    0.0214    0.8498 C   0  0  0  0  0  0  0  0  0  0  0  0
    1.9442   -0.1705    0.2862 C   0  0  2  0  0  0  0  0  0  0  0  0
    3.0062    0.4934    1.1591 C   0  0  0  0  0  0  0  0  0  0  0  0
    4.1514    0.5421    0.1377 C   0  0  0  0  0  0  0  0  0  0  0  0
    3.4661    1.1030   -1.0070 N   0  0  0  0  0  0  0  0  0  0  0  0
    2.1723    0.4616   -1.0490 C   0  0  0  0  0  0  0  0  0  0  0  0
   -1.7776   -0.3673    0.4623 C   0  0  2  0  0  0  0  0  0  0  0  0
   -2.6965   -1.0658   -0.5184 C   0  0  0  0  0  0  0  0  0  0  0  0
   -3.6103   -0.0695   -1.0172 N   0  0  0  0  0  0  0  0  0  0  0  0
   -2.9426    1.2136   -0.8399 C   0  0  0  0  0  0  0  0  0  0  0  0
   -2.2412    1.0313    0.4696 C   0  0  1  0  0  0  0  0  0  0  0  0
   -3.2445    1.1419    1.4640 O   0  0  0  0  0  0  0  0  0  0  0  0
    0.2261   -2.3212    1.0346 H   0  0  0  0  0  0  0  0  0  0  0  0
   -1.2529   -2.5794    0.0808 H   0  0  0  0  0  0  0  0  0  0  0  0
    0.2707   -2.4477   -0.8127 H   0  0  0  0  0  0  0  0  0  0  0  0
    0.5535   -0.3578    1.8847 H   0  0  0  0  0  0  0  0  0  0  0  0
    0.3989    1.1115    0.9136 H   0  0  0  0  0  0  0  0  0  0  0  0
    2.2373   -1.2410    0.2112 H   0  0  0  0  0  0  0  0  0  0  0  0
    2.7351    1.5200    1.4271 H   0  0  0  0  0  0  0  0  0  0  0  0
    3.2619   -0.1592    2.0092 H   0  0  0  0  0  0  0  0  0  0  0  0
    4.4484   -0.5007   -0.1105 H   0  0  0  0  0  0  0  0  0  0  0  0
    4.9805    1.1572    0.4941 H   0  0  0  0  0  0  0  0  0  0  0  0
    3.3024    2.1227   -0.8496 H   0  0  0  0  0  0  0  0  0  0  0  0
    2.2226   -0.3010   -1.8721 H   0  0  0  0  0  0  0  0  0  0  0  0
    1.3643    1.1742   -1.3477 H   0  0  0  0  0  0  0  0  0  0  0  0
   -1.8971   -0.8126    1.4795 H   0  0  0  0  0  0  0  0  0  0  0  0
   -3.2084   -1.9150   -0.0496 H   0  0  0  0  0  0  0  0  0  0  0  0
   -2.1564   -1.4683   -1.4027 H   0  0  0  0  0  0  0  0  0  0  0  0
   -4.4515   -0.0889   -0.4168 H   0  0  0  0  0  0  0  0  0  0  0  0
   -3.7079    2.0235   -0.7946 H   0  0  0  0  0  0  0  0  0  0  0  0
   -2.2236    1.3534   -1.6445 H   0  0  0  0  0  0  0  0  0  0  0  0
   -1.4776    1.8096    0.6669 H   0  0  0  0  0  0  0  0  0  0  0  0
   -3.7236    0.2786    1.5408 H   0  0  0  0  0  0  0  0  0  0  0  0
  1  2  1  0
  2  3  1  0
  3  4  1  0
  4  5  1  0
  5  6  1  0
  6  7  1  0
  7  8  1  0
  2  9  1  0
  9 10  1  0
 10 11  1  0
 11 12  1  0
 12 13  1  0
 13 14  1  0
  8  4  1  0
 13  9  1  0
  1 15  1  0
  1 16  1  0
  1 17  1  0
  3 18  1  0
  3 19  1  0
  4 20  1  6
  5 21  1  0
  5 22  1  0
  6 23  1  0
  6 24  1  0
  7 25  1  0
  8 26  1  0
  8 27  1  0
  9 28  1  1
 10 29  1  0
 10 30  1  0
 11 31  1  0
 12 32  1  0
 12 33  1  0
 13 34  1  1
 14 35  1  0
M  END
$$$$

     RDKit          3D

 35 36  0  0  0  0  0  0  0  0999 V2000
   -0.4611   -1.5529    1.0165 C   0  0  0  0  0  0  0  0  0  0  0  0
   -0.4866   -0.5202    0.0755 N   0  0  0  0  0  0  0  0  0  0  0  0
    0.5569    0.4043   -0.0139 C   0  0  0  0  0  0  0  0  0  0  0  0
    1.8890   -0.0226   -0.4918 C   0  0  2  0  0  0  0  0  0  0  0  0
    2.5971   -1.0609    0.3037 C   0  0  0  0  0  0  0  0  0  0  0  0
    4.0030   -0.4799    0.5720 C   0  0  0  0  0  0  0  0  0  0  0  0
    3.6450    0.9103    0.7393 N   0  0  0  0  0  0  0  0  0  0  0  0
    2.8321    1.1640   -0.4268 C   0  0  0  0  0  0  0  0  0  0  0  0
   -1.7285   -0.1648   -0.4749 C   0  0  2  0  0  0  0  0  0  0  0  0
   -1.9036    1.3300   -0.6758 C   0  0  0  0  0  0  0  0  0  0  0  0
   -3.3734    1.4803   -0.7222 N   0  0  0  0  0  0  0  0  0  0  0  0
   -3.7560    0.8111    0.4829 C   0  0  0  0  0  0  0  0  0  0  0  0
   -2.8490   -0.4297    0.5078 C   0  0  1  0  0  0  0  0  0  0  0  0
   -3.5917   -1.5569    0.1473 O   0  0  0  0  0  0  0  0  0  0  0  0
   -0.2758   -1.1779    2.0292 H   0  0  0  0  0  0  0  0  0  0  0  0
    0.2396   -2.3734    0.7194 H   0  0  0  0  0  0  0  0  0  0  0  0
   -1.4565   -2.0682    1.0535 H   0  0  0  0  0  0  0  0  0  0  0  0
    0.2342    1.2573   -0.6729 H   0  0  0  0  0  0  0  0  0  0  0  0
    0.6805    0.8809    1.0067 H   0  0  0  0  0  0  0  0  0  0  0  0
    1.8445   -0.3281   -1.5744 H   0  0  0  0  0  0  0  0  0  0  0  0
    2.1937   -1.2373    1.3154 H   0  0  0  0  0  0  0  0  0  0  0  0
    2.7366   -1.9808   -0.2875 H   0  0  0  0  0  0  0  0  0  0  0  0
    4.6899   -0.6860   -0.2421 H   0  0  0  0  0  0  0  0  0  0  0  0
    4.4038   -0.8652    1.5368 H   0  0  0  0  0  0  0  0  0  0  0  0
    4.4915    1.5291    0.7965 H   0  0  0  0  0  0  0  0  0  0  0  0
    3.5488    1.1619   -1.2905 H   0  0  0  0  0  0  0  0  0  0  0  0
    2.3039    2.1394   -0.3919 H   0  0  0  0  0  0  0  0  0  0  0  0
   -1.9530   -0.6311   -1.4636 H   0  0  0  0  0  0  0  0  0  0  0  0
   -1.5403    1.6622   -1.6640 H   0  0  0  0  0  0  0  0  0  0  0  0
   -1.5699    1.9208    0.1789 H   0  0  0  0  0  0  0  0  0  0  0  0
   -3.7782    0.9675   -1.5360 H   0  0  0  0  0  0  0  0  0  0  0  0
   -4.8135    0.4800    0.4773 H   0  0  0  0  0  0  0  0  0  0  0  0
   -3.5176    1.4623    1.3310 H   0  0  0  0  0  0  0  0  0  0  0  0
   -2.5240   -0.5181    1.5560 H   0  0  0  0  0  0  0  0  0  0  0  0
   -3.3119   -1.9072   -0.7398 H   0  0  0  0  0  0  0  0  0  0  0  0
  1  2  1  0
  2  3  1  0
  3  4  1  0
  4  5  1  0
  5  6  1  0
  6  7  1  0
  7  8  1  0
  2  9  1  0
  9 10  1  0
 10 11  1  0
 11 12  1  0
 12 13  1  0
 13 14  1  0
  8  4  1  0
 13  9  1  0
  1 15  1  0
  1 16  1  0
  1 17  1  0
  3 18  1  0
  3 19  1  0
  4 20  1  6
  5 21  1  0
  5 22  1  0
  6 23  1  0
  6 24  1  0
  7 25  1  0
  8 26  1  0
  8 27  1  0
  9 28  1  6
 10 29  1  0
 10 30  1  0
 11 31  1  0
 12 32  1  0
 12 33  1  0
 13 34  1  1
 14 35  1  0
M  END
$$$$

     RDKit          3D

 35 36  0  0  0  0  0  0  0  0999 V2000
   -0.7143   -1.6793   -0.9253 C   0  0  0  0  0  0  0  0  0  0  0  0
   -0.3916   -0.4962   -0.2406 N   0  0  0  0  0  0  0  0  0  0  0  0
    0.5501    0.3871   -0.7913 C   0  0  0  0  0  0  0  0  0  0  0  0
    1.9714   -0.1369   -0.8029 C   0  0  2  0  0  0  0  0  0  0  0  0
    2.4324   -0.4392    0.6325 C   0  0  0  0  0  0  0  0  0  0  0  0
    3.8470    0.1255    0.5656 C   0  0  0  0  0  0  0  0  0  0  0  0
    3.5917    1.4153   -0.0565 N   0  0  0  0  0  0  0  0  0  0  0  0
    2.8511    1.0126   -1.2364 C   0  0  0  0  0  0  0  0  0  0  0  0
   -1.3736    0.1699    0.5095 C   0  0  2  0  0  0  0  0  0  0  0  0
   -1.8246   -0.7300    1.6544 C   0  0  0  0  0  0  0  0  0  0  0  0
   -3.2639   -0.8216    1.5519 N   0  0  0  0  0  0  0  0  0  0  0  0
   -3.6763    0.3975    0.8846 C   0  0  0  0  0  0  0  0  0  0  0  0
   -2.6377    0.4993   -0.2406 C   0  0  1  0  0  0  0  0  0  0  0  0
   -2.6792    1.8357   -0.6590 O   0  0  0  0  0  0  0  0  0  0  0  0
   -1.1836   -2.4332   -0.2744 H   0  0  0  0  0  0  0  0  0  0  0  0
    0.2589   -2.1409   -1.2777 H   0  0  0  0  0  0  0  0  0  0  0  0
   -1.2782   -1.5281   -1.8731 H   0  0  0  0  0  0  0  0  0  0  0  0
    0.3131    0.6407   -1.8593 H   0  0  0  0  0  0  0  0  0  0  0  0
    0.5520    1.3350   -0.2335 H   0  0  0  0  0  0  0  0  0  0  0  0
    2.1068   -1.0426   -1.4017 H   0  0  0  0  0  0  0  0  0  0  0  0
    1.8102    0.1086    1.3527 H   0  0  0  0  0  0  0  0  0  0  0  0
    2.4187   -1.5078    0.8406 H   0  0  0  0  0  0  0  0  0  0  0  0
    4.4093   -0.4821   -0.1607 H   0  0  0  0  0  0  0  0  0  0  0  0
    4.3101    0.2112    1.5523 H   0  0  0  0  0  0  0  0  0  0  0  0
    2.9444    1.9272    0.5973 H   0  0  0  0  0  0  0  0  0  0  0  0
    3.6131    0.6637   -1.9708 H   0  0  0  0  0  0  0  0  0  0  0  0
    2.2872    1.8738   -1.6484 H   0  0  0  0  0  0  0  0  0  0  0  0
   -1.0297    1.1507    0.9385 H   0  0  0  0  0  0  0  0  0  0  0  0
   -1.5198   -0.2600    2.6210 H   0  0  0  0  0  0  0  0  0  0  0  0
   -1.3620   -1.7313    1.6120 H   0  0  0  0  0  0  0  0  0  0  0  0
   -3.5516   -1.6321    0.9855 H   0  0  0  0  0  0  0  0  0  0  0  0
   -3.5253    1.2388    1.5604 H   0  0  0  0  0  0  0  0  0  0  0  0
   -4.6966    0.3091    0.4894 H   0  0  0  0  0  0  0  0  0  0  0  0
   -2.8824   -0.1692   -1.0602 H   0  0  0  0  0  0  0  0  0  0  0  0
   -2.6768    1.9288   -1.6360 H   0  0  0  0  0  0  0  0  0  0  0  0
  1  2  1  0
  2  3  1  0
  3  4  1  0
  4  5  1  0
  5  6  1  0
  6  7  1  0
  7  8  1  0
  2  9  1  0
  9 10  1  0
 10 11  1  0
 11 12  1  0
 12 13  1  0
 13 14  1  0
  8  4  1  0
 13  9  1  0
  1 15  1  0
  1 16  1  0
  1 17  1  0
  3 18  1  0
  3 19  1  0
  4 20  1  6
  5 21  1  0
  5 22  1  0
  6 23  1  0
  6 24  1  0
  7 25  1  0
  8 26  1  0
  8 27  1  0
  9 28  1  1
 10 29  1  0
 10 30  1  0
 11 31  1  0
 12 32  1  0
 12 33  1  0
 13 34  1  6
 14 35  1  0
M  END
$$$$

     RDKit          3D

 35 36  0  0  0  0  0  0  0  0999 V2000
   -0.2542   -1.2141   -1.4865 C   0  0  0  0  0  0  0  0  0  0  0  0
   -0.5438   -0.4845   -0.2383 N   0  0  0  0  0  0  0  0  0  0  0  0
    0.5359    0.3486    0.1659 C   0  0  0  0  0  0  0  0  0  0  0  0
    1.7778   -0.2792    0.6269 C   0  0  2  0  0  0  0  0  0  0  0  0
    2.7567    0.8295    0.9846 C   0  0  0  0  0  0  0  0  0  0  0  0
    4.0983    0.2953    0.4819 C   0  0  0  0  0  0  0  0  0  0  0  0
    3.8723   -1.1563    0.4498 N   0  0  0  0  0  0  0  0  0  0  0  0
    2.5591   -1.1556   -0.2377 C   0  0  0  0  0  0  0  0  0  0  0  0
   -1.7256    0.2480   -0.5074 C   0  0  2  0  0  0  0  0  0  0  0  0
   -2.2531    1.1566    0.5243 C   0  0  0  0  0  0  0  0  0  0  0  0
   -2.8728    0.2871    1.4927 N   0  0  0  0  0  0  0  0  0  0  0  0
   -3.6984   -0.5419    0.6322 C   0  0  0  0  0  0  0  0  0  0  0  0
   -2.8697   -0.7697   -0.6356 C   0  0  1  0  0  0  0  0  0  0  0  0
   -3.6104   -0.4958   -1.7750 O   0  0  0  0  0  0  0  0  0  0  0  0
    0.3711   -0.5579   -2.1472 H   0  0  0  0  0  0  0  0  0  0  0  0
    0.1671   -2.2072   -1.3162 H   0  0  0  0  0  0  0  0  0  0  0  0
   -1.1823   -1.3708   -2.0763 H   0  0  0  0  0  0  0  0  0  0  0  0
    0.7127    1.1139   -0.6178 H   0  0  0  0  0  0  0  0  0  0  0  0
    0.1512    0.9379    1.0486 H   0  0  0  0  0  0  0  0  0  0  0  0
    1.6193   -0.8293    1.6048 H   0  0  0  0  0  0  0  0  0  0  0  0
    2.5608    1.7278    0.3384 H   0  0  0  0  0  0  0  0  0  0  0  0
    2.7780    1.0664    2.0490 H   0  0  0  0  0  0  0  0  0  0  0  0
    4.8557    0.5819    1.2145 H   0  0  0  0  0  0  0  0  0  0  0  0
    4.3427    0.6286   -0.5261 H   0  0  0  0  0  0  0  0  0  0  0  0
    3.6397   -1.4148    1.4357 H   0  0  0  0  0  0  0  0  0  0  0  0
    2.2704   -2.2456   -0.1829 H   0  0  0  0  0  0  0  0  0  0  0  0
    2.7792   -0.8277   -1.2518 H   0  0  0  0  0  0  0  0  0  0  0  0
   -1.6586    0.8065   -1.4685 H   0  0  0  0  0  0  0  0  0  0  0  0
   -3.1126    1.7183    0.0467 H   0  0  0  0  0  0  0  0  0  0  0  0
   -1.6110    1.9283    0.9299 H   0  0  0  0  0  0  0  0  0  0  0  0
   -2.2333   -0.2571    2.0744 H   0  0  0  0  0  0  0  0  0  0  0  0
   -3.9391   -1.5026    1.1319 H   0  0  0  0  0  0  0  0  0  0  0  0
   -4.6410   -0.0720    0.3368 H   0  0  0  0  0  0  0  0  0  0  0  0
   -2.5127   -1.8024   -0.6217 H   0  0  0  0  0  0  0  0  0  0  0  0
   -3.1296   -0.0310   -2.4802 H   0  0  0  0  0  0  0  0  0  0  0  0
  1  2  1  0
  2  3  1  0
  3  4  1  0
  4  5  1  0
  5  6  1  0
  6  7  1  0
  7  8  1  0
  2  9  1  0
  9 10  1  0
 10 11  1  0
 11 12  1  0
 12 13  1  0
 13 14  1  0
  8  4  1  0
 13  9  1  0
  1 15  1  0
  1 16  1  0
  1 17  1  0
  3 18  1  0
  3 19  1  0
  4 20  1  1
  5 21  1  0
  5 22  1  0
  6 23  1  0
  6 24  1  0
  7 25  1  0
  8 26  1  0
  8 27  1  0
  9 28  1  6
 10 29  1  0
 10 30  1  0
 11 31  1  0
 12 32  1  0
 12 33  1  0
 13 34  1  6
 14 35  1  0
M  END
$$$$
