
     RDKit          3D

 24 25  0  0  0  0  0  0  0  0999 V2000
   -3.5529   -0.7853   -0.5974 C   0  0  0  0  0  0  0  0  0  0  0  0
   -2.3492   -0.7257    0.1220 O   0  0  0  0  0  0  0  0  0  0  0  0
   -1.4277   -0.0046   -0.5891 C   0  0  0  0  0  0  0  0  0  0  0  0
   -0.1145    0.1215    0.0818 C   0  0  1  0  0  0  0  0  0  0  0  0
   -0.1600    0.7452    1.3143 O   0  0  0  0  0  0  0  0  0  0  0  0
    1.0287    0.3980    1.9736 C   0  0  0  0  0  0  0  0  0  0  0  0
    1.6289   -0.6096    1.0256 C   0  0  1  0  0  0  0  0  0  0  0  0
    0.4486   -1.1234    0.4335 O   0  0  0  0  0  0  0  0  0  0  0  0
    2.2201    0.1429   -0.1310 C   0  0  1  0  0  0  0  0  0  0  0  0
    2.9478   -0.6413   -0.9982 O   0  0  0  0  0  0  0  0  0  0  0  0
    0.9523    0.6722   -0.8180 C   0  0  2  0  0  0  0  0  0  0  0  0
    0.8890    2.0473   -0.7794 O   0  0  0  0  0  0  0  0  0  0  0  0
   -3.4195   -1.2669   -1.5783 H   0  0  0  0  0  0  0  0  0  0  0  0
   -3.9013    0.2687   -0.7970 H   0  0  0  0  0  0  0  0  0  0  0  0
   -4.3228   -1.2525    0.0283 H   0  0  0  0  0  0  0  0  0  0  0  0
   -1.2727   -0.4583   -1.5874 H   0  0  0  0  0  0  0  0  0  0  0  0
   -1.8357    1.0159   -0.7373 H   0  0  0  0  0  0  0  0  0  0  0  0
    1.6377    1.3125    2.0383 H   0  0  0  0  0  0  0  0  0  0  0  0
    0.8422   -0.0775    2.9482 H   0  0  0  0  0  0  0  0  0  0  0  0
    2.2511   -1.3615    1.4742 H   0  0  0  0  0  0  0  0  0  0  0  0
    2.7949    1.0360    0.2410 H   0  0  0  0  0  0  0  0  0  0  0  0
    3.9073   -0.6047   -0.7206 H   0  0  0  0  0  0  0  0  0  0  0  0
    0.8331    0.2393   -1.8144 H   0  0  0  0  0  0  0  0  0  0  0  0
   -0.0253    2.3725   -0.5328 H   0  0  0  0  0  0  0  0  0  0  0  0
  1  2  1  0
  2  3  1  0
  4  3  1  6
  4  5  1  0
  5  6  1  0
  6  7  1  0
  7  8  1  0
  7  9  1  0
  9 10  1  0
  9 11  1  0
 11 12  1  0
  8  4  1  0
 11  4  1  0
  1 13  1  0
  1 14  1  0
  1 15  1  0
  3 16  1  0
  3 17  1  0
  6 18  1  0
  6 19  1  0
  7 20  1  1
  9 21  1  1
 10 22  1  0
 11 23  1  6
 12 24  1  0
M  END
$$$$

     RDKit          3D

 24 25  0  0  0  0  0  0  0  0999 V2000
    3.5035   -0.8407    0.0228 C   0  0  0  0  0  0  0  0  0  0  0  0
    2.1767   -0.7482    0.4650 O   0  0  0  0  0  0  0  0  0  0  0  0
    1.4961    0.2307   -0.2345 C   0  0  0  0  0  0  0  0  0  0  0  0
    0.0778    0.3826    0.1856 C   0  0  1  0  0  0  0  0  0  0  0  0
   -0.0886    0.7242    1.5257 O   0  0  0  0  0  0  0  0  0  0  0  0
   -1.2399    1.5215    1.5902 C   0  0  0  0  0  0  0  0  0  0  0  0
   -1.8052    1.3131    0.1988 C   0  0  1  0  0  0  0  0  0  0  0  0
   -0.5845    1.4120   -0.5193 O   0  0  0  0  0  0  0  0  0  0  0  0
   -2.1845   -0.1293    0.0727 C   0  0  1  0  0  0  0  0  0  0  0  0
   -3.0878   -0.3891   -0.9318 O   0  0  0  0  0  0  0  0  0  0  0  0
   -0.8173   -0.7654   -0.2196 C   0  0  2  0  0  0  0  0  0  0  0  0
   -0.6095   -1.9113    0.4939 O   0  0  0  0  0  0  0  0  0  0  0  0
    4.0608   -1.6210    0.5741 H   0  0  0  0  0  0  0  0  0  0  0  0
    3.5361   -1.0975   -1.0669 H   0  0  0  0  0  0  0  0  0  0  0  0
    3.9959    0.1608    0.1046 H   0  0  0  0  0  0  0  0  0  0  0  0
    1.9970    1.2163   -0.0907 H   0  0  0  0  0  0  0  0  0  0  0  0
    1.5036    0.0535   -1.3313 H   0  0  0  0  0  0  0  0  0  0  0  0
   -1.9281    1.2143    2.3818 H   0  0  0  0  0  0  0  0  0  0  0  0
   -0.8925    2.5732    1.6795 H   0  0  0  0  0  0  0  0  0  0  0  0
   -2.5390    2.0305   -0.1054 H   0  0  0  0  0  0  0  0  0  0  0  0
   -2.4867   -0.5234    1.0651 H   0  0  0  0  0  0  0  0  0  0  0  0
   -3.0010   -1.3204   -1.2749 H   0  0  0  0  0  0  0  0  0  0  0  0
   -0.7590   -0.8634   -1.3091 H   0  0  0  0  0  0  0  0  0  0  0  0
   -0.3240   -2.6231   -0.1569 H   0  0  0  0  0  0  0  0  0  0  0  0
  1  2  1  0
  2  3  1  0
  4  3  1  6
  4  5  1  0
  5  6  1  0
  6  7  1  0
  7  8  1  0
  7  9  1  0
  9 10  1  0
  9 11  1  0
 11 12  1  0
  8  4  1  0
 11  4  1  0
  1 13  1  0
  1 14  1  0
  1 15  1  0
  3 16  1  0
  3 17  1  0
  6 18  1  0
  6 19  1  0
  7 20  1  6
  9 21  1  1
 10 22  1  0
 11 23  1  6
 12 24  1  0
M  END
$$$$

     RDKit          3D

 24 25  0  0  0  0  0  0  0  0999 V2000
    3.5602   -0.6056    0.6978 C   0  0  0  0  0  0  0  0  0  0  0  0
    2.2088   -0.8344    0.4596 O   0  0  0  0  0  0  0  0  0  0  0  0
    1.5347    0.3381    0.1212 C   0  0  0  0  0  0  0  0  0  0  0  0
    0.1023   -0.0339   -0.1091 C   0  0  1  0  0  0  0  0  0  0  0  0
   -0.0937   -0.9507   -1.1138 O   0  0  0  0  0  0  0  0  0  0  0  0
   -1.2651   -1.6721   -0.7873 C   0  0  0  0  0  0  0  0  0  0  0  0
   -1.7336   -0.9087    0.4322 C   0  0  1  0  0  0  0  0  0  0  0  0
   -0.4714   -0.6483    1.0246 O   0  0  0  0  0  0  0  0  0  0  0  0
   -2.1786    0.4494   -0.0262 C   0  0  1  0  0  0  0  0  0  0  0  0
   -2.9682    1.1168    0.8740 O   0  0  0  0  0  0  0  0  0  0  0  0
   -0.8306    1.1493   -0.2509 C   0  0  2  0  0  0  0  0  0  0  0  0
   -0.7593    1.7650   -1.4719 O   0  0  0  0  0  0  0  0  0  0  0  0
    3.6455    0.1283    1.5530 H   0  0  0  0  0  0  0  0  0  0  0  0
    4.0608   -1.5224    1.0686 H   0  0  0  0  0  0  0  0  0  0  0  0
    4.0963   -0.2607   -0.1857 H   0  0  0  0  0  0  0  0  0  0  0  0
    1.9877    0.7793   -0.7884 H   0  0  0  0  0  0  0  0  0  0  0  0
    1.6129    1.0448    0.9722 H   0  0  0  0  0  0  0  0  0  0  0  0
   -0.9493   -2.6873   -0.4694 H   0  0  0  0  0  0  0  0  0  0  0  0
   -1.9856   -1.6663   -1.6052 H   0  0  0  0  0  0  0  0  0  0  0  0
   -2.4080   -1.4382    1.0738 H   0  0  0  0  0  0  0  0  0  0  0  0
   -2.6566    0.3491   -1.0357 H   0  0  0  0  0  0  0  0  0  0  0  0
   -3.6173    1.6745    0.3387 H   0  0  0  0  0  0  0  0  0  0  0  0
   -0.6628    1.8302    0.6148 H   0  0  0  0  0  0  0  0  0  0  0  0
   -0.2292    2.6038   -1.3870 H   0  0  0  0  0  0  0  0  0  0  0  0
  1  2  1  0
  2  3  1  0
  4  3  1  1
  4  5  1  0
  5  6  1  0
  6  7  1  0
  7  8  1  0
  7  9  1  0
  9 10  1  0
  9 11  1  0
 11 12  1  0
  8  4  1  0
 11  4  1  0
  1 13  1  0
  1 14  1  0
  1 15  1  0
  3 16  1  0
  3 17  1  0
  6 18  1  0
  6 19  1  0
  7 20  1  1
  9 21  1  6
 10 22  1  0
 11 23  1  1
 12 24  1  0
M  END
$$$$

     RDKit          3D

 24 25  0  0  0  0  0  0  0  0999 V2000
    3.5537   -0.0603    0.7170 C   0  0  0  0  0  0  0  0  0  0  0  0
    2.2672   -0.5014    0.4336 O   0  0  0  0  0  0  0  0  0  0  0  0
    1.4083    0.5783    0.1503 C   0  0  0  0  0  0  0  0  0  0  0  0
    0.0675    0.0043   -0.1373 C   0  0  1  0  0  0  0  0  0  0  0  0
    0.0417   -0.8631   -1.2053 O   0  0  0  0  0  0  0  0  0  0  0  0
   -0.9914   -1.7851   -0.9667 C   0  0  0  0  0  0  0  0  0  0  0  0
   -1.6027   -1.2014    0.2950 C   0  0  1  0  0  0  0  0  0  0  0  0
   -0.4086   -0.7906    0.9378 O   0  0  0  0  0  0  0  0  0  0  0  0
   -2.2596    0.0894   -0.0817 C   0  0  1  0  0  0  0  0  0  0  0  0
   -3.1923    0.5410    0.8106 O   0  0  0  0  0  0  0  0  0  0  0  0
   -1.0456    1.0253   -0.1823 C   0  0  2  0  0  0  0  0  0  0  0  0
   -1.0623    1.7834   -1.3178 O   0  0  0  0  0  0  0  0  0  0  0  0
    3.9209    0.4848   -0.1770 H   0  0  0  0  0  0  0  0  0  0  0  0
    3.5519    0.5817    1.6210 H   0  0  0  0  0  0  0  0  0  0  0  0
    4.1642   -0.9609    0.9322 H   0  0  0  0  0  0  0  0  0  0  0  0
    1.7890    1.0560   -0.7596 H   0  0  0  0  0  0  0  0  0  0  0  0
    1.3907    1.2187    1.0317 H   0  0  0  0  0  0  0  0  0  0  0  0
   -0.4838   -2.7576   -0.7317 H   0  0  0  0  0  0  0  0  0  0  0  0
   -1.6926   -1.8521   -1.7984 H   0  0  0  0  0  0  0  0  0  0  0  0
   -2.1886   -1.8880    0.8720 H   0  0  0  0  0  0  0  0  0  0  0  0
   -2.7029    0.0786   -1.1036 H   0  0  0  0  0  0  0  0  0  0  0  0
   -2.8421    0.9155    1.6398 H   0  0  0  0  0  0  0  0  0  0  0  0
   -0.9998    1.5996    0.7584 H   0  0  0  0  0  0  0  0  0  0  0  0
   -0.6829    2.7037   -1.1522 H   0  0  0  0  0  0  0  0  0  0  0  0
  1  2  1  0
  2  3  1  0
  4  3  1  1
  4  5  1  0
  5  6  1  0
  6  7  1  0
  7  8  1  0
  7  9  1  0
  9 10  1  0
  9 11  1  0
 11 12  1  0
  8  4  1  0
 11  4  1  0
  1 13  1  0
  1 14  1  0
  1 15  1  0
  3 16  1  0
  3 17  1  0
  6 18  1  0
  6 19  1  0
  7 20  1  1
  9 21  1  6
 10 22  1  0
 11 23  1  1
 12 24  1  0
M  END
$$$$

     RDKit          3D

 24 25  0  0  0  0  0  0  0  0999 V2000
    2.8608    0.6538    0.3677 C   0  0  0  0  0  0  0  0  0  0  0  0
    1.9165    1.1962    1.1895 O   0  0  0  0  0  0  0  0  0  0  0  0
    0.9089    0.3842    1.6242 C   0  0  0  0  0  0  0  0  0  0  0  0
    0.0804   -0.1952    0.5492 C   0  0  1  0  0  0  0  0  0  0  0  0
    0.6976   -1.0007   -0.3588 O   0  0  0  0  0  0  0  0  0  0  0  0
   -0.2507   -1.8535   -0.9174 C   0  0  0  0  0  0  0  0  0  0  0  0
   -1.5099   -1.3767   -0.2004 C   0  0  1  0  0  0  0  0  0  0  0  0
   -0.9400   -1.0444    1.0493 O   0  0  0  0  0  0  0  0  0  0  0  0
   -1.8623   -0.0410   -0.7524 C   0  0  1  0  0  0  0  0  0  0  0  0
   -3.1450    0.3711   -0.5256 O   0  0  0  0  0  0  0  0  0  0  0  0
   -0.8115    0.8565   -0.1305 C   0  0  2  0  0  0  0  0  0  0  0  0
   -0.1171    1.5979   -1.0532 O   0  0  0  0  0  0  0  0  0  0  0  0
    3.6488    1.4342    0.1124 H   0  0  0  0  0  0  0  0  0  0  0  0
    3.3527   -0.2528    0.7188 H   0  0  0  0  0  0  0  0  0  0  0  0
    2.3821    0.4904   -0.6472 H   0  0  0  0  0  0  0  0  0  0  0  0
    1.2841   -0.4331    2.3118 H   0  0  0  0  0  0  0  0  0  0  0  0
    0.2795    1.0198    2.3193 H   0  0  0  0  0  0  0  0  0  0  0  0
   -0.1061   -2.9071   -0.6054 H   0  0  0  0  0  0  0  0  0  0  0  0
   -0.3643   -1.7326   -2.0031 H   0  0  0  0  0  0  0  0  0  0  0  0
   -2.2914   -2.1087   -0.1432 H   0  0  0  0  0  0  0  0  0  0  0  0
   -1.6735   -0.0485   -1.8536 H   0  0  0  0  0  0  0  0  0  0  0  0
   -3.3514    1.1055   -1.1628 H   0  0  0  0  0  0  0  0  0  0  0  0
   -1.2275    1.4611    0.7058 H   0  0  0  0  0  0  0  0  0  0  0  0
    0.2394    2.4237   -0.5944 H   0  0  0  0  0  0  0  0  0  0  0  0
  1  2  1  0
  2  3  1  0
  4  3  1  1
  4  5  1  0
  5  6  1  0
  6  7  1  0
  7  8  1  0
  7  9  1  0
  9 10  1  0
  9 11  1  0
 11 12  1  0
  8  4  1  0
 11  4  1  0
  1 13  1  0
  1 14  1  0
  1 15  1  0
  3 16  1  0
  3 17  1  0
  6 18  1  0
  6 19  1  0
  7 20  1  1
  9 21  1  6
 10 22  1  0
 11 23  1  1
 12 24  1  0
M  END
$$$$

     RDKit          3D

 24 25  0  0  0  0  0  0  0  0999 V2000
    3.5028    0.0085   -0.3656 C   0  0  0  0  0  0  0  0  0  0  0  0
    2.1931   -0.4810   -0.1930 O   0  0  0  0  0  0  0  0  0  0  0  0
    1.4237    0.5671    0.3066 C   0  0  0  0  0  0  0  0  0  0  0  0
    0.0336    0.0687    0.4962 C   0  0  1  0  0  0  0  0  0  0  0  0
   -0.0726   -0.9920    1.3740 O   0  0  0  0  0  0  0  0  0  0  0  0
   -1.4634   -1.0669    1.6214 C   0  0  0  0  0  0  0  0  0  0  0  0
   -1.9782    0.2508    1.1307 C   0  0  1  0  0  0  0  0  0  0  0  0
   -0.7910    1.0233    1.1423 O   0  0  0  0  0  0  0  0  0  0  0  0
   -2.1820    0.1355   -0.3659 C   0  0  1  0  0  0  0  0  0  0  0  0
   -2.6049    1.3645   -0.9022 O   0  0  0  0  0  0  0  0  0  0  0  0
   -0.7272   -0.1270   -0.7878 C   0  0  2  0  0  0  0  0  0  0  0  0
   -0.5904   -1.4162   -1.2933 O   0  0  0  0  0  0  0  0  0  0  0  0
    3.4601    0.8507   -1.0795 H   0  0  0  0  0  0  0  0  0  0  0  0
    3.8994    0.3982    0.5968 H   0  0  0  0  0  0  0  0  0  0  0  0
    4.1224   -0.8108   -0.7471 H   0  0  0  0  0  0  0  0  0  0  0  0
    1.8446    1.0236    1.2045 H   0  0  0  0  0  0  0  0  0  0  0  0
    1.4256    1.3517   -0.4835 H   0  0  0  0  0  0  0  0  0  0  0  0
   -1.6958   -1.3045    2.6544 H   0  0  0  0  0  0  0  0  0  0  0  0
   -1.8518   -1.8725    0.9673 H   0  0  0  0  0  0  0  0  0  0  0  0
   -2.7887    0.6873    1.6746 H   0  0  0  0  0  0  0  0  0  0  0  0
   -2.8397   -0.6902   -0.6389 H   0  0  0  0  0  0  0  0  0  0  0  0
   -2.2667    2.0862   -0.3001 H   0  0  0  0  0  0  0  0  0  0  0  0
   -0.3966    0.6234   -1.5184 H   0  0  0  0  0  0  0  0  0  0  0  0
    0.3438   -1.6784   -1.1768 H   0  0  0  0  0  0  0  0  0  0  0  0
  1  2  1  0
  2  3  1  0
  4  3  1  6
  4  5  1  0
  5  6  1  0
  6  7  1  0
  7  8  1  0
  7  9  1  0
  9 10  1  0
  9 11  1  0
 11 12  1  0
  8  4  1  0
 11  4  1  0
  1 13  1  0
  1 14  1  0
  1 15  1  0
  3 16  1  0
  3 17  1  0
  6 18  1  0
  6 19  1  0
  7 20  1  1
  9 21  1  1
 10 22  1  0
 11 23  1  6
 12 24  1  0
M  END
$$$$

     RDKit          3D

 24 25  0  0  0  0  0  0  0  0999 V2000
    3.6936    0.3482   -0.0745 C   0  0  0  0  0  0  0  0  0  0  0  0
    2.4118    0.0911    0.4067 O   0  0  0  0  0  0  0  0  0  0  0  0
    1.4592    0.1332   -0.6068 C   0  0  0  0  0  0  0  0  0  0  0  0
    0.1273   -0.1524    0.0019 C   0  0  1  0  0  0  0  0  0  0  0  0
    0.0073   -1.3664    0.6201 O   0  0  0  0  0  0  0  0  0  0  0  0
   -0.9871   -1.2259    1.6113 C   0  0  0  0  0  0  0  0  0  0  0  0
   -1.4428    0.1884    1.3710 C   0  0  1  0  0  0  0  0  0  0  0  0
   -0.2065    0.7766    1.0056 O   0  0  0  0  0  0  0  0  0  0  0  0
   -2.1777    0.2297    0.0656 C   0  0  1  0  0  0  0  0  0  0  0  0
   -2.8983    1.3786   -0.1461 O   0  0  0  0  0  0  0  0  0  0  0  0
   -1.0350    0.0674   -0.9488 C   0  0  2  0  0  0  0  0  0  0  0  0
   -1.2457   -0.9901   -1.8003 O   0  0  0  0  0  0  0  0  0  0  0  0
    3.6973    1.3710   -0.5344 H   0  0  0  0  0  0  0  0  0  0  0  0
    4.3731    0.3987    0.7931 H   0  0  0  0  0  0  0  0  0  0  0  0
    4.0111   -0.4098   -0.8205 H   0  0  0  0  0  0  0  0  0  0  0  0
    1.4201    1.2011   -0.9717 H   0  0  0  0  0  0  0  0  0  0  0  0
    1.6955   -0.5037   -1.4668 H   0  0  0  0  0  0  0  0  0  0  0  0
   -0.4666   -1.2748    2.5772 H   0  0  0  0  0  0  0  0  0  0  0  0
   -1.7851   -1.9742    1.4949 H   0  0  0  0  0  0  0  0  0  0  0  0
   -1.9202    0.6733    2.2020 H   0  0  0  0  0  0  0  0  0  0  0  0
   -2.7890   -0.7010   -0.0036 H   0  0  0  0  0  0  0  0  0  0  0  0
   -3.7876    1.1341   -0.5531 H   0  0  0  0  0  0  0  0  0  0  0  0
   -0.9348    1.0467   -1.4656 H   0  0  0  0  0  0  0  0  0  0  0  0
   -1.2200   -0.6683   -2.7568 H   0  0  0  0  0  0  0  0  0  0  0  0
  1  2  1  0
  2  3  1  0
  4  3  1  6
  4  5  1  0
  5  6  1  0
  6  7  1  0
  7  8  1  0
  7  9  1  0
  9 10  1  0
  9 11  1  0
 11 12  1  0
  8  4  1  0
 11  4  1  0
  1 13  1  0
  1 14  1  0
  1 15  1  0
  3 16  1  0
  3 17  1  0
  6 18  1  0
  6 19  1  0
  7 20  1  1
  9 21  1  1
 10 22  1  0
 11 23  1  6
 12 24  1  0
M  END
$$$$

     RDKit          3D

 24 25  0  0  0  0  0  0  0  0999 V2000
    2.8267   -0.5191    0.7105 C   0  0  0  0  0  0  0  0  0  0  0  0
    2.3444   -1.0645   -0.4540 O   0  0  0  0  0  0  0  0  0  0  0  0
    1.5534   -0.2739   -1.2120 C   0  0  0  0  0  0  0  0  0  0  0  0
    0.3243    0.1634   -0.5305 C   0  0  1  0  0  0  0  0  0  0  0  0
    0.4597    0.9252    0.6014 O   0  0  0  0  0  0  0  0  0  0  0  0
   -0.6550    1.7652    0.7057 C   0  0  0  0  0  0  0  0  0  0  0  0
   -1.5120    1.1867   -0.4187 C   0  0  1  0  0  0  0  0  0  0  0  0
   -0.5041    0.9646   -1.3633 O   0  0  0  0  0  0  0  0  0  0  0  0
   -1.9108   -0.2002    0.0396 C   0  0  1  0  0  0  0  0  0  0  0  0
   -3.0413   -0.6618   -0.5901 O   0  0  0  0  0  0  0  0  0  0  0  0
   -0.6677   -0.9929   -0.3075 C   0  0  2  0  0  0  0  0  0  0  0  0
   -0.2446   -1.8070    0.7315 O   0  0  0  0  0  0  0  0  0  0  0  0
    3.4075    0.4027    0.4551 H   0  0  0  0  0  0  0  0  0  0  0  0
    3.5903   -1.2029    1.1907 H   0  0  0  0  0  0  0  0  0  0  0  0
    2.0955   -0.3146    1.4976 H   0  0  0  0  0  0  0  0  0  0  0  0
    1.3033   -0.7024   -2.2095 H   0  0  0  0  0  0  0  0  0  0  0  0
    2.1395    0.6574   -1.4453 H   0  0  0  0  0  0  0  0  0  0  0  0
   -1.1542    1.6796    1.6829 H   0  0  0  0  0  0  0  0  0  0  0  0
   -0.4213    2.8052    0.4114 H   0  0  0  0  0  0  0  0  0  0  0  0
   -2.3134    1.8184   -0.7385 H   0  0  0  0  0  0  0  0  0  0  0  0
   -2.0041   -0.2150    1.1521 H   0  0  0  0  0  0  0  0  0  0  0  0
   -3.8165   -0.4679    0.0027 H   0  0  0  0  0  0  0  0  0  0  0  0
   -0.8191   -1.5048   -1.2563 H   0  0  0  0  0  0  0  0  0  0  0  0
   -0.9806   -2.4413    0.9115 H   0  0  0  0  0  0  0  0  0  0  0  0
  1  2  1  0
  2  3  1  0
  4  3  1  6
  4  5  1  0
  5  6  1  0
  6  7  1  0
  7  8  1  0
  7  9  1  0
  9 10  1  0
  9 11  1  0
 11 12  1  0
  8  4  1  0
 11  4  1  0
  1 13  1  0
  1 14  1  0
  1 15  1  0
  3 16  1  0
  3 17  1  0
  6 18  1  0
  6 19  1  0
  7 20  1  6
  9 21  1  1
 10 22  1  0
 11 23  1  6
 12 24  1  0
M  END
$$$$
