
     RDKit          3D

 26 27  0  0  0  0  0  0  0  0999 V2000
    1.3521   -2.7266    0.5624 O   0  0  0  0  0  0  0  0  0  0  0  0
    1.3728   -1.4590    0.4513 C   0  0  0  0  0  0  0  0  0  0  0  0
    2.5609   -0.6405    0.7874 C   0  0  0  0  0  0  0  0  0  0  0  0
    2.3780    0.6023   -0.0220 C   0  0  2  0  0  0  0  0  0  0  0  0
    2.8695    1.6821    0.6838 O   0  0  0  0  0  0  0  0  0  0  0  0
    0.8926    0.7034   -0.2988 C   0  0  0  0  0  0  0  0  0  0  0  0
    0.3404   -0.5938    0.0122 N   0  0  0  0  0  0  0  0  0  0  0  0
   -1.0392   -0.9834   -0.0951 C   0  0  2  0  0  0  0  0  0  0  0  0
   -1.4844   -0.7332   -1.5144 C   0  0  0  0  0  0  0  0  0  0  0  0
   -2.1115    0.4771   -1.5659 O   0  0  0  0  0  0  0  0  0  0  0  0
   -2.3719    0.9268   -0.3018 C   0  0  0  0  0  0  0  0  0  0  0  0
   -1.9695   -0.1071    0.6892 C   0  0  2  0  0  0  0  0  0  0  0  0
   -1.4514    0.3687    1.8609 O   0  0  0  0  0  0  0  0  0  0  0  0
    3.4815   -1.1754    0.4151 H   0  0  0  0  0  0  0  0  0  0  0  0
    2.6178   -0.4747    1.8745 H   0  0  0  0  0  0  0  0  0  0  0  0
    2.9668    0.5430   -0.9834 H   0  0  0  0  0  0  0  0  0  0  0  0
    2.7412    2.5407    0.1972 H   0  0  0  0  0  0  0  0  0  0  0  0
    0.7817    0.9647   -1.3721 H   0  0  0  0  0  0  0  0  0  0  0  0
    0.4611    1.4959    0.3471 H   0  0  0  0  0  0  0  0  0  0  0  0
   -1.1973   -2.0396    0.2063 H   0  0  0  0  0  0  0  0  0  0  0  0
   -2.1217   -1.5984   -1.8169 H   0  0  0  0  0  0  0  0  0  0  0  0
   -0.5942   -0.7179   -2.1856 H   0  0  0  0  0  0  0  0  0  0  0  0
   -1.8885    1.9104   -0.0952 H   0  0  0  0  0  0  0  0  0  0  0  0
   -3.4762    1.1304   -0.2298 H   0  0  0  0  0  0  0  0  0  0  0  0
   -2.8809   -0.7241    0.9297 H   0  0  0  0  0  0  0  0  0  0  0  0
   -2.2298    0.6283    2.4475 H   0  0  0  0  0  0  0  0  0  0  0  0
  1  2  2  0
  2  3  1  0
  3  4  1  0
  4  5  1  0
  4  6  1  0
  6  7  1  0
  7  8  1  0
  8  9  1  0
  9 10  1  0
 10 11  1  0
 11 12  1  0
 12 13  1  0
  7  2  1  0
 12  8  1  0
  3 14  1  0
  3 15  1  0
  4 16  1  6
  5 17  1  0
  6 18  1  0
  6 19  1  0
  8 20  1  1
  9 21  1  0
  9 22  1  0
 11 23  1  0
 11 24  1  0
 12 25  1  1
 13 26  1  0
M  END
$$$$

     RDKit          3D

 26 27  0  0  0  0  0  0  0  0999 V2000
   -1.6296   -0.0459   -2.4115 O   0  0  0  0  0  0  0  0  0  0  0  0
   -1.6499   -0.1523   -1.1615 C   0  0  0  0  0  0  0  0  0  0  0  0
   -2.8803   -0.1151   -0.3440 C   0  0  0  0  0  0  0  0  0  0  0  0
   -2.2900    0.2964    1.0104 C   0  0  2  0  0  0  0  0  0  0  0  0
   -1.8400    1.6016    0.9707 O   0  0  0  0  0  0  0  0  0  0  0  0
   -1.0748   -0.6121    1.0036 C   0  0  0  0  0  0  0  0  0  0  0  0
   -0.5233   -0.3252   -0.3053 N   0  0  0  0  0  0  0  0  0  0  0  0
    0.8163   -0.2154   -0.7592 C   0  0  2  0  0  0  0  0  0  0  0  0
    1.6264   -1.4893   -0.5134 C   0  0  0  0  0  0  0  0  0  0  0  0
    2.9056   -1.0297   -0.8201 O   0  0  0  0  0  0  0  0  0  0  0  0
    3.0612    0.2153   -0.2667 C   0  0  0  0  0  0  0  0  0  0  0  0
    1.6604    0.7938   -0.0474 C   0  0  2  0  0  0  0  0  0  0  0  0
    1.4667    0.8783    1.3032 O   0  0  0  0  0  0  0  0  0  0  0  0
   -3.6301    0.5950   -0.6966 H   0  0  0  0  0  0  0  0  0  0  0  0
   -3.2449   -1.1498   -0.2142 H   0  0  0  0  0  0  0  0  0  0  0  0
   -2.9734    0.0835    1.8402 H   0  0  0  0  0  0  0  0  0  0  0  0
   -2.2384    2.1322    0.2181 H   0  0  0  0  0  0  0  0  0  0  0  0
   -1.4644   -1.6512    1.0412 H   0  0  0  0  0  0  0  0  0  0  0  0
   -0.4497   -0.3372    1.8413 H   0  0  0  0  0  0  0  0  0  0  0  0
    0.8845    0.0155   -1.8408 H   0  0  0  0  0  0  0  0  0  0  0  0
    1.2798   -2.2466   -1.2303 H   0  0  0  0  0  0  0  0  0  0  0  0
    1.5428   -1.7726    0.5389 H   0  0  0  0  0  0  0  0  0  0  0  0
    3.6179    0.1191    0.6731 H   0  0  0  0  0  0  0  0  0  0  0  0
    3.6559    0.8818   -0.9263 H   0  0  0  0  0  0  0  0  0  0  0  0
    1.5880    1.7800   -0.5415 H   0  0  0  0  0  0  0  0  0  0  0  0
    1.7832    1.7499    1.6382 H   0  0  0  0  0  0  0  0  0  0  0  0
  1  2  2  0
  2  3  1  0
  3  4  1  0
  4  5  1  0
  4  6  1  0
  6  7  1  0
  7  8  1  0
  8  9  1  0
  9 10  1  0
 10 11  1  0
 11 12  1  0
 12 13  1  0
  7  2  1  0
 12  8  1  0
  3 14  1  0
  3 15  1  0
  4 16  1  1
  5 17  1  0
  6 18  1  0
  6 19  1  0
  8 20  1  6
  9 21  1  0
  9 22  1  0
 11 23  1  0
 11 24  1  0
 12 25  1  6
 13 26  1  0
M  END
$$$$

     RDKit          3D

 26 27  0  0  0  0  0  0  0  0999 V2000
    0.2208   -2.2523    0.4144 O   0  0  0  0  0  0  0  0  0  0  0  0
    0.9103   -1.2141    0.2870 C   0  0  0  0  0  0  0  0  0  0  0  0
    2.3833   -1.2004    0.0744 C   0  0  0  0  0  0  0  0  0  0  0  0
    2.5731    0.2572   -0.3731 C   0  0  2  0  0  0  0  0  0  0  0  0
    3.8616    0.6888   -0.2082 O   0  0  0  0  0  0  0  0  0  0  0  0
    1.5769    0.9437    0.5333 C   0  0  0  0  0  0  0  0  0  0  0  0
    0.4075    0.1132    0.3236 N   0  0  0  0  0  0  0  0  0  0  0  0
   -0.9160    0.6039    0.1939 C   0  0  2  0  0  0  0  0  0  0  0  0
   -1.8321   -0.0015    1.2535 C   0  0  0  0  0  0  0  0  0  0  0  0
   -3.1020    0.0020    0.7484 O   0  0  0  0  0  0  0  0  0  0  0  0
   -3.0715    0.2795   -0.5912 C   0  0  0  0  0  0  0  0  0  0  0  0
   -1.6268    0.1424   -1.0540 C   0  0  2  0  0  0  0  0  0  0  0  0
   -1.4136   -1.1837   -1.3539 O   0  0  0  0  0  0  0  0  0  0  0  0
    2.7017   -1.8534   -0.7403 H   0  0  0  0  0  0  0  0  0  0  0  0
    2.9101   -1.3820    1.0301 H   0  0  0  0  0  0  0  0  0  0  0  0
    2.1991    0.3147   -1.4109 H   0  0  0  0  0  0  0  0  0  0  0  0
    3.8612    1.6825   -0.0373 H   0  0  0  0  0  0  0  0  0  0  0  0
    1.9246    0.8239    1.5847 H   0  0  0  0  0  0  0  0  0  0  0  0
    1.4057    1.9986    0.2591 H   0  0  0  0  0  0  0  0  0  0  0  0
   -1.0298    1.6844    0.2611 H   0  0  0  0  0  0  0  0  0  0  0  0
   -1.7400    0.5715    2.2149 H   0  0  0  0  0  0  0  0  0  0  0  0
   -1.5291   -1.0629    1.4086 H   0  0  0  0  0  0  0  0  0  0  0  0
   -3.7637   -0.3354   -1.1971 H   0  0  0  0  0  0  0  0  0  0  0  0
   -3.3728    1.3556   -0.7433 H   0  0  0  0  0  0  0  0  0  0  0  0
   -1.4199    0.8094   -1.9212 H   0  0  0  0  0  0  0  0  0  0  0  0
   -2.1188   -1.7854   -0.9566 H   0  0  0  0  0  0  0  0  0  0  0  0
  1  2  2  0
  2  3  1  0
  3  4  1  0
  4  5  1  0
  4  6  1  0
  6  7  1  0
  7  8  1  0
  8  9  1  0
  9 10  1  0
 10 11  1  0
 11 12  1  0
 12 13  1  0
  7  2  1  0
 12  8  1  0
  3 14  1  0
  3 15  1  0
  4 16  1  6
  5 17  1  0
  6 18  1  0
  6 19  1  0
  8 20  1  1
  9 21  1  0
  9 22  1  0
 11 23  1  0
 11 24  1  0
 12 25  1  6
 13 26  1  0
M  END
$$$$

     RDKit          3D

 26 27  0  0  0  0  0  0  0  0999 V2000
   -1.1426   -2.4826    1.2844 O   0  0  0  0  0  0  0  0  0  0  0  0
   -1.3022   -1.3597    0.7225 C   0  0  0  0  0  0  0  0  0  0  0  0
   -2.6682   -0.8053    0.4523 C   0  0  0  0  0  0  0  0  0  0  0  0
   -2.2992    0.6607    0.2465 C   0  0  2  0  0  0  0  0  0  0  0  0
   -3.2717    1.3724   -0.3923 O   0  0  0  0  0  0  0  0  0  0  0  0
   -1.0587    0.4366   -0.6325 C   0  0  0  0  0  0  0  0  0  0  0  0
   -0.3170   -0.4419    0.2571 N   0  0  0  0  0  0  0  0  0  0  0  0
    1.0516   -0.4628    0.6353 C   0  0  2  0  0  0  0  0  0  0  0  0
    1.5264    0.8480    1.2419 C   0  0  0  0  0  0  0  0  0  0  0  0
    2.4893    1.3735    0.4268 O   0  0  0  0  0  0  0  0  0  0  0  0
    2.4389    0.7567   -0.7952 C   0  0  0  0  0  0  0  0  0  0  0  0
    2.0182   -0.6365   -0.4823 C   0  0  2  0  0  0  0  0  0  0  0  0
    1.5206   -1.3367   -1.5628 O   0  0  0  0  0  0  0  0  0  0  0  0
   -3.3386   -0.9320    1.3168 H   0  0  0  0  0  0  0  0  0  0  0  0
   -3.0780   -1.1904   -0.4948 H   0  0  0  0  0  0  0  0  0  0  0  0
   -1.9905    1.0733    1.2239 H   0  0  0  0  0  0  0  0  0  0  0  0
   -2.8401    1.8629   -1.1608 H   0  0  0  0  0  0  0  0  0  0  0  0
   -0.5610    1.3539   -0.8888 H   0  0  0  0  0  0  0  0  0  0  0  0
   -1.4173   -0.1658   -1.4911 H   0  0  0  0  0  0  0  0  0  0  0  0
    1.2155   -1.3101    1.3514 H   0  0  0  0  0  0  0  0  0  0  0  0
    0.6564    1.5482    1.3676 H   0  0  0  0  0  0  0  0  0  0  0  0
    1.9553    0.6397    2.2339 H   0  0  0  0  0  0  0  0  0  0  0  0
    1.7630    1.3182   -1.4552 H   0  0  0  0  0  0  0  0  0  0  0  0
    3.4491    0.7782   -1.2669 H   0  0  0  0  0  0  0  0  0  0  0  0
    2.9188   -1.1625   -0.0804 H   0  0  0  0  0  0  0  0  0  0  0  0
    2.2820   -1.7361   -2.0575 H   0  0  0  0  0  0  0  0  0  0  0  0
  1  2  2  0
  2  3  1  0
  3  4  1  0
  4  5  1  0
  4  6  1  0
  6  7  1  0
  7  8  1  0
  8  9  1  0
  9 10  1  0
 10 11  1  0
 11 12  1  0
 12 13  1  0
  7  2  1  0
 12  8  1  0
  3 14  1  0
  3 15  1  0
  4 16  1  1
  5 17  1  0
  6 18  1  0
  6 19  1  0
  8 20  1  1
  9 21  1  0
  9 22  1  0
 11 23  1  0
 11 24  1  0
 12 25  1  1
 13 26  1  0
M  END
$$$$

     RDKit          3D

 26 27  0  0  0  0  0  0  0  0999 V2000
   -0.9920   -1.2734   -2.6385 O   0  0  0  0  0  0  0  0  0  0  0  0
   -1.1849   -0.5852   -1.6111 C   0  0  0  0  0  0  0  0  0  0  0  0
   -2.4819    0.0307   -1.2402 C   0  0  0  0  0  0  0  0  0  0  0  0
   -2.3438    0.0651    0.2852 C   0  0  2  0  0  0  0  0  0  0  0  0
   -3.2394    0.9180    0.8753 O   0  0  0  0  0  0  0  0  0  0  0  0
   -0.9001    0.5749    0.3949 C   0  0  0  0  0  0  0  0  0  0  0  0
   -0.2433   -0.2480   -0.6021 N   0  0  0  0  0  0  0  0  0  0  0  0
    1.1422   -0.6788   -0.6077 C   0  0  2  0  0  0  0  0  0  0  0  0
    1.5210   -1.4426    0.6195 C   0  0  0  0  0  0  0  0  0  0  0  0
    2.2267   -0.6315    1.4584 O   0  0  0  0  0  0  0  0  0  0  0  0
    2.4687    0.5705    0.8679 C   0  0  0  0  0  0  0  0  0  0  0  0
    2.1081    0.4792   -0.5897 C   0  0  2  0  0  0  0  0  0  0  0  0
    1.5669    1.6543   -1.0552 O   0  0  0  0  0  0  0  0  0  0  0  0
   -2.5582    1.0852   -1.5884 H   0  0  0  0  0  0  0  0  0  0  0  0
   -3.3491   -0.5455   -1.5594 H   0  0  0  0  0  0  0  0  0  0  0  0
   -2.4123   -0.9800    0.6420 H   0  0  0  0  0  0  0  0  0  0  0  0
   -4.0295    0.4006    1.1750 H   0  0  0  0  0  0  0  0  0  0  0  0
   -0.9301    1.6199    0.0233 H   0  0  0  0  0  0  0  0  0  0  0  0
   -0.4946    0.4708    1.3962 H   0  0  0  0  0  0  0  0  0  0  0  0
    1.3754   -1.3018   -1.4938 H   0  0  0  0  0  0  0  0  0  0  0  0
    0.6412   -1.8930    1.1422 H   0  0  0  0  0  0  0  0  0  0  0  0
    2.1781   -2.3244    0.3709 H   0  0  0  0  0  0  0  0  0  0  0  0
    1.8919    1.3868    1.3860 H   0  0  0  0  0  0  0  0  0  0  0  0
    3.5385    0.8815    0.9588 H   0  0  0  0  0  0  0  0  0  0  0  0
    3.0412    0.1847   -1.1503 H   0  0  0  0  0  0  0  0  0  0  0  0
    1.4591    1.5821   -2.0421 H   0  0  0  0  0  0  0  0  0  0  0  0
  1  2  2  0
  2  3  1  0
  3  4  1  0
  4  5  1  0
  4  6  1  0
  6  7  1  0
  7  8  1  0
  8  9  1  0
  9 10  1  0
 10 11  1  0
 11 12  1  0
 12 13  1  0
  7  2  1  0
 12  8  1  0
  3 14  1  0
  3 15  1  0
  4 16  1  1
  5 17  1  0
  6 18  1  0
  6 19  1  0
  8 20  1  6
  9 21  1  0
  9 22  1  0
 11 23  1  0
 11 24  1  0
 12 25  1  6
 13 26  1  0
M  END
$$$$

     RDKit          3D

 26 27  0  0  0  0  0  0  0  0999 V2000
    0.1674    1.6761    1.3818 O   0  0  0  0  0  0  0  0  0  0  0  0
    0.8369    0.7438    0.8807 C   0  0  0  0  0  0  0  0  0  0  0  0
    2.2098    0.3832    1.2812 C   0  0  0  0  0  0  0  0  0  0  0  0
    2.7660   -0.4212    0.1255 C   0  0  2  0  0  0  0  0  0  0  0  0
    3.5966    0.3448   -0.6857 O   0  0  0  0  0  0  0  0  0  0  0  0
    1.5557   -0.9258   -0.5775 C   0  0  0  0  0  0  0  0  0  0  0  0
    0.4106   -0.1149   -0.1373 N   0  0  0  0  0  0  0  0  0  0  0  0
   -0.8930   -0.2370   -0.6995 C   0  0  2  0  0  0  0  0  0  0  0  0
   -1.4879    1.0383   -1.2052 C   0  0  0  0  0  0  0  0  0  0  0  0
   -2.8508    0.9709   -1.0891 O   0  0  0  0  0  0  0  0  0  0  0  0
   -3.2059   -0.1604   -0.4131 C   0  0  0  0  0  0  0  0  0  0  0  0
   -1.9518   -0.6619    0.3147 C   0  0  2  0  0  0  0  0  0  0  0  0
   -1.8782    0.0270    1.4989 O   0  0  0  0  0  0  0  0  0  0  0  0
    2.8474    1.2439    1.5136 H   0  0  0  0  0  0  0  0  0  0  0  0
    2.1686   -0.3115    2.1583 H   0  0  0  0  0  0  0  0  0  0  0  0
    3.3620   -1.2914    0.4926 H   0  0  0  0  0  0  0  0  0  0  0  0
    4.5531    0.1808   -0.4928 H   0  0  0  0  0  0  0  0  0  0  0  0
    1.3572   -1.9835   -0.3249 H   0  0  0  0  0  0  0  0  0  0  0  0
    1.6249   -0.8153   -1.6907 H   0  0  0  0  0  0  0  0  0  0  0  0
   -0.9463   -1.0050   -1.5026 H   0  0  0  0  0  0  0  0  0  0  0  0
   -1.1298    1.8680   -0.5518 H   0  0  0  0  0  0  0  0  0  0  0  0
   -1.1510    1.3009   -2.2293 H   0  0  0  0  0  0  0  0  0  0  0  0
   -3.4927   -0.9712   -1.1149 H   0  0  0  0  0  0  0  0  0  0  0  0
   -4.0353    0.0194    0.3240 H   0  0  0  0  0  0  0  0  0  0  0  0
   -1.9748   -1.7442    0.4580 H   0  0  0  0  0  0  0  0  0  0  0  0
   -2.4587    0.8463    1.5188 H   0  0  0  0  0  0  0  0  0  0  0  0
  1  2  2  0
  2  3  1  0
  3  4  1  0
  4  5  1  0
  4  6  1  0
  6  7  1  0
  7  8  1  0
  8  9  1  0
  9 10  1  0
 10 11  1  0
 11 12  1  0
 12 13  1  0
  7  2  1  0
 12  8  1  0
  3 14  1  0
  3 15  1  0
  4 16  1  1
  5 17  1  0
  6 18  1  0
  6 19  1  0
  8 20  1  6
  9 21  1  0
  9 22  1  0
 11 23  1  0
 11 24  1  0
 12 25  1  1
 13 26  1  0
M  END
$$$$

     RDKit          3D

 26 27  0  0  0  0  0  0  0  0999 V2000
    1.4539    1.9540   -1.7619 O   0  0  0  0  0  0  0  0  0  0  0  0
    1.4970    1.1506   -0.7807 C   0  0  0  0  0  0  0  0  0  0  0  0
    2.6619    0.9036    0.0740 C   0  0  0  0  0  0  0  0  0  0  0  0
    2.3949   -0.4506    0.6754 C   0  0  2  0  0  0  0  0  0  0  0  0
    3.2002   -1.4053    0.0295 O   0  0  0  0  0  0  0  0  0  0  0  0
    0.9578   -0.7753    0.4211 C   0  0  0  0  0  0  0  0  0  0  0  0
    0.4120    0.3292   -0.3199 N   0  0  0  0  0  0  0  0  0  0  0  0
   -0.9577    0.6295   -0.5944 C   0  0  2  0  0  0  0  0  0  0  0  0
   -1.7839    0.8042    0.6878 C   0  0  0  0  0  0  0  0  0  0  0  0
   -3.0641    0.7994    0.1697 O   0  0  0  0  0  0  0  0  0  0  0  0
   -3.1366   -0.2136   -0.7504 C   0  0  0  0  0  0  0  0  0  0  0  0
   -1.7239   -0.4935   -1.2511 C   0  0  2  0  0  0  0  0  0  0  0  0
   -1.3719   -1.7428   -0.8062 O   0  0  0  0  0  0  0  0  0  0  0  0
    2.8235    1.6842    0.8428 H   0  0  0  0  0  0  0  0  0  0  0  0
    3.5938    0.8598   -0.5265 H   0  0  0  0  0  0  0  0  0  0  0  0
    2.6313   -0.4181    1.7669 H   0  0  0  0  0  0  0  0  0  0  0  0
    4.0363   -0.9186   -0.2267 H   0  0  0  0  0  0  0  0  0  0  0  0
    0.4473   -0.8575    1.4214 H   0  0  0  0  0  0  0  0  0  0  0  0
    0.8672   -1.7274   -0.1543 H   0  0  0  0  0  0  0  0  0  0  0  0
   -1.0867    1.5489   -1.1903 H   0  0  0  0  0  0  0  0  0  0  0  0
   -1.5205    1.7287    1.1950 H   0  0  0  0  0  0  0  0  0  0  0  0
   -1.6278   -0.1021    1.3141 H   0  0  0  0  0  0  0  0  0  0  0  0
   -3.6031   -1.1210   -0.3119 H   0  0  0  0  0  0  0  0  0  0  0  0
   -3.7396    0.1625   -1.6222 H   0  0  0  0  0  0  0  0  0  0  0  0
   -1.6552   -0.4142   -2.3579 H   0  0  0  0  0  0  0  0  0  0  0  0
   -1.7060   -1.9146    0.0976 H   0  0  0  0  0  0  0  0  0  0  0  0
  1  2  2  0
  2  3  1  0
  3  4  1  0
  4  5  1  0
  4  6  1  0
  6  7  1  0
  7  8  1  0
  8  9  1  0
  9 10  1  0
 10 11  1  0
 11 12  1  0
 12 13  1  0
  7  2  1  0
 12  8  1  0
  3 14  1  0
  3 15  1  0
  4 16  1  1
  5 17  1  0
  6 18  1  0
  6 19  1  0
  8 20  1  6
  9 21  1  0
  9 22  1  0
 11 23  1  0
 11 24  1  0
 12 25  1  6
 13 26  1  0
M  END
$$$$

     RDKit          3D

 26 27  0  0  0  0  0  0  0  0999 V2000
    0.4024    1.0700    1.9142 O   0  0  0  0  0  0  0  0  0  0  0  0
    0.9705    0.3348    1.0704 C   0  0  0  0  0  0  0  0  0  0  0  0
    2.3104   -0.2731    1.2334 C   0  0  0  0  0  0  0  0  0  0  0  0
    2.8138   -0.3360   -0.1958 C   0  0  2  0  0  0  0  0  0  0  0  0
    3.3565    0.9072   -0.5108 O   0  0  0  0  0  0  0  0  0  0  0  0
    1.5547   -0.6196   -0.9675 C   0  0  0  0  0  0  0  0  0  0  0  0
    0.4532   -0.0571   -0.1910 N   0  0  0  0  0  0  0  0  0  0  0  0
   -0.8855    0.0464   -0.6832 C   0  0  2  0  0  0  0  0  0  0  0  0
   -1.4741    1.4242   -0.6015 C   0  0  0  0  0  0  0  0  0  0  0  0
   -2.8334    1.3082   -0.4755 O   0  0  0  0  0  0  0  0  0  0  0  0
   -3.1703   -0.0007   -0.2616 C   0  0  0  0  0  0  0  0  0  0  0  0
   -1.8922   -0.7247    0.1819 C   0  0  2  0  0  0  0  0  0  0  0  0
   -1.7163   -0.4388    1.5223 O   0  0  0  0  0  0  0  0  0  0  0  0
    2.2648   -1.3103    1.6000 H   0  0  0  0  0  0  0  0  0  0  0  0
    3.0055    0.3653    1.8133 H   0  0  0  0  0  0  0  0  0  0  0  0
    3.5404   -1.1392   -0.3137 H   0  0  0  0  0  0  0  0  0  0  0  0
    2.8247    1.3112   -1.2422 H   0  0  0  0  0  0  0  0  0  0  0  0
    1.4286   -1.7317   -1.0504 H   0  0  0  0  0  0  0  0  0  0  0  0
    1.6426   -0.1648   -1.9646 H   0  0  0  0  0  0  0  0  0  0  0  0
   -0.9918   -0.3446   -1.7170 H   0  0  0  0  0  0  0  0  0  0  0  0
   -1.1598    2.0759   -1.4435 H   0  0  0  0  0  0  0  0  0  0  0  0
   -1.0847    1.9071    0.3190 H   0  0  0  0  0  0  0  0  0  0  0  0
   -3.4752   -0.4793   -1.2179 H   0  0  0  0  0  0  0  0  0  0  0  0
   -3.9883   -0.1404    0.4652 H   0  0  0  0  0  0  0  0  0  0  0  0
   -1.9164   -1.7840   -0.0560 H   0  0  0  0  0  0  0  0  0  0  0  0
   -1.9802   -1.2061    2.1047 H   0  0  0  0  0  0  0  0  0  0  0  0
  1  2  2  0
  2  3  1  0
  3  4  1  0
  4  5  1  0
  4  6  1  0
  6  7  1  0
  7  8  1  0
  8  9  1  0
  9 10  1  0
 10 11  1  0
 11 12  1  0
 12 13  1  0
  7  2  1  0
 12  8  1  0
  3 14  1  0
  3 15  1  0
  4 16  1  1
  5 17  1  0
  6 18  1  0
  6 19  1  0
  8 20  1  6
  9 21  1  0
  9 22  1  0
 11 23  1  0
 11 24  1  0
 12 25  1  1
 13 26  1  0
M  END
$$$$
