
     RDKit          3D

 24 24  0  0  0  0  0  0  0  0999 V2000
   -0.5833    1.7699    0.9889 N   0  0  0  0  0  0  0  0  0  0  0  0
   -0.7138    0.9257   -0.2092 C   0  0  1  0  0  0  0  0  0  0  0  0
    0.6139    0.7985   -0.8403 C   0  0  0  0  0  0  0  0  0  0  0  0
    1.5324   -0.2034   -0.2554 C   0  0  1  0  0  0  0  0  0  0  0  0
    2.4848    0.4953    0.6120 N   0  0  0  0  0  0  0  0  0  0  0  0
    0.9102   -1.3054    0.5072 C   0  0  0  0  0  0  0  0  0  0  0  0
   -0.5360   -1.5279    0.3254 C   0  0  1  0  0  0  0  0  0  0  0  0
   -1.0105   -2.2451    1.4521 O   0  0  0  0  0  0  0  0  0  0  0  0
   -1.3958   -0.3478    0.1411 C   0  0  2  0  0  0  0  0  0  0  0  0
   -2.3562   -0.6123   -0.8653 O   0  0  0  0  0  0  0  0  0  0  0  0
   -1.5722    1.8338    1.3777 H   0  0  0  0  0  0  0  0  0  0  0  0
   -0.3147    2.7432    0.6996 H   0  0  0  0  0  0  0  0  0  0  0  0
   -1.3646    1.5347   -0.9027 H   0  0  0  0  0  0  0  0  0  0  0  0
    1.0983    1.8165   -0.8185 H   0  0  0  0  0  0  0  0  0  0  0  0
    0.4553    0.6071   -1.9424 H   0  0  0  0  0  0  0  0  0  0  0  0
    2.1612   -0.6089   -1.1036 H   0  0  0  0  0  0  0  0  0  0  0  0
    2.0711    1.3448    1.0384 H   0  0  0  0  0  0  0  0  0  0  0  0
    3.4011    0.6297    0.1778 H   0  0  0  0  0  0  0  0  0  0  0  0
    1.1094   -1.1850    1.6112 H   0  0  0  0  0  0  0  0  0  0  0  0
    1.4463   -2.2638    0.2503 H   0  0  0  0  0  0  0  0  0  0  0  0
   -0.6820   -2.2485   -0.5302 H   0  0  0  0  0  0  0  0  0  0  0  0
   -1.5154   -1.6312    2.0565 H   0  0  0  0  0  0  0  0  0  0  0  0
   -2.0245   -0.1423    1.0584 H   0  0  0  0  0  0  0  0  0  0  0  0
   -3.2151   -0.1777   -0.6730 H   0  0  0  0  0  0  0  0  0  0  0  0
  1  2  1  0
  2  3  1  0
  3  4  1  0
  4  5  1  0
  4  6  1  0
  6  7  1  0
  7  8  1  0
  7  9  1  0
  9 10  1  0
  9  2  1  0
  1 11  1  0
  1 12  1  0
  2 13  1  6
  3 14  1  0
  3 15  1  0
  4 16  1  6
  5 17  1  0
  5 18  1  0
  6 19  1  0
  6 20  1  0
  7 21  1  6
  8 22  1  0
  9 23  1  1
 10 24  1  0
M  END
$$$$

     RDKit          3D

 24 24  0  0  0  0  0  0  0  0999 V2000
   -1.1536    2.1401    1.0434 N   0  0  0  0  0  0  0  0  0  0  0  0
   -0.5355    1.2722    0.0807 C   0  0  1  0  0  0  0  0  0  0  0  0
    0.8660    0.8328    0.5231 C   0  0  0  0  0  0  0  0  0  0  0  0
    1.3130   -0.1559   -0.5621 C   0  0  1  0  0  0  0  0  0  0  0  0
    2.7287   -0.2990   -0.6197 N   0  0  0  0  0  0  0  0  0  0  0  0
    0.5789   -1.4367   -0.2907 C   0  0  0  0  0  0  0  0  0  0  0  0
   -0.8521   -1.2241    0.0153 C   0  0  1  0  0  0  0  0  0  0  0  0
   -1.1775   -1.5412    1.3543 O   0  0  0  0  0  0  0  0  0  0  0  0
   -1.3987    0.1191   -0.2827 C   0  0  2  0  0  0  0  0  0  0  0  0
   -1.7999    0.2158   -1.6358 O   0  0  0  0  0  0  0  0  0  0  0  0
   -1.0023    3.1371    0.9022 H   0  0  0  0  0  0  0  0  0  0  0  0
   -1.1581    1.7932    2.0053 H   0  0  0  0  0  0  0  0  0  0  0  0
   -0.3483    1.9035   -0.8379 H   0  0  0  0  0  0  0  0  0  0  0  0
    0.7388    0.3188    1.4843 H   0  0  0  0  0  0  0  0  0  0  0  0
    1.5431    1.6816    0.5706 H   0  0  0  0  0  0  0  0  0  0  0  0
    0.9562    0.2246   -1.5465 H   0  0  0  0  0  0  0  0  0  0  0  0
    3.1318   -0.1163    0.3254 H   0  0  0  0  0  0  0  0  0  0  0  0
    3.0023   -1.2268   -1.0017 H   0  0  0  0  0  0  0  0  0  0  0  0
    1.0627   -1.9019    0.6180 H   0  0  0  0  0  0  0  0  0  0  0  0
    0.7548   -2.1483   -1.1319 H   0  0  0  0  0  0  0  0  0  0  0  0
   -1.4445   -1.9722   -0.5914 H   0  0  0  0  0  0  0  0  0  0  0  0
   -2.1526   -1.4090    1.4394 H   0  0  0  0  0  0  0  0  0  0  0  0
   -2.3652    0.2201    0.2952 H   0  0  0  0  0  0  0  0  0  0  0  0
   -1.2880   -0.4274   -2.1566 H   0  0  0  0  0  0  0  0  0  0  0  0
  1  2  1  0
  2  3  1  0
  3  4  1  0
  4  5  1  0
  4  6  1  0
  6  7  1  0
  7  8  1  0
  7  9  1  0
  9 10  1  0
  9  2  1  0
  1 11  1  0
  1 12  1  0
  2 13  1  6
  3 14  1  0
  3 15  1  0
  4 16  1  6
  5 17  1  0
  5 18  1  0
  6 19  1  0
  6 20  1  0
  7 21  1  6
  8 22  1  0
  9 23  1  1
 10 24  1  0
M  END
$$$$

     RDKit          3D

 24 24  0  0  0  0  0  0  0  0999 V2000
   -0.0910   -2.0478   -0.8742 N   0  0  0  0  0  0  0  0  0  0  0  0
   -0.5489   -1.2941    0.2324 C   0  0  1  0  0  0  0  0  0  0  0  0
    0.5284   -0.7731    1.1386 C   0  0  0  0  0  0  0  0  0  0  0  0
    1.2485    0.4198    0.6214 C   0  0  1  0  0  0  0  0  0  0  0  0
    2.5815    0.0861    0.1168 N   0  0  0  0  0  0  0  0  0  0  0  0
    0.5276    1.1298   -0.4889 C   0  0  0  0  0  0  0  0  0  0  0  0
   -0.9350    1.1589   -0.1549 C   0  0  1  0  0  0  0  0  0  0  0  0
   -1.5579    1.9570   -1.1385 O   0  0  0  0  0  0  0  0  0  0  0  0
   -1.4884   -0.2214   -0.2555 C   0  0  2  0  0  0  0  0  0  0  0  0
   -2.7089   -0.2337    0.4516 O   0  0  0  0  0  0  0  0  0  0  0  0
   -0.6284   -2.8447   -1.1696 H   0  0  0  0  0  0  0  0  0  0  0  0
    0.8386   -1.8984   -1.2137 H   0  0  0  0  0  0  0  0  0  0  0  0
   -1.1795   -1.9888    0.8648 H   0  0  0  0  0  0  0  0  0  0  0  0
    0.0604   -0.5431    2.1285 H   0  0  0  0  0  0  0  0  0  0  0  0
    1.2444   -1.5921    1.3173 H   0  0  0  0  0  0  0  0  0  0  0  0
    1.4318    1.1874    1.4245 H   0  0  0  0  0  0  0  0  0  0  0  0
    3.1794    0.9591    0.0915 H   0  0  0  0  0  0  0  0  0  0  0  0
    2.5106   -0.2071   -0.8920 H   0  0  0  0  0  0  0  0  0  0  0  0
    0.6421    0.5037   -1.4030 H   0  0  0  0  0  0  0  0  0  0  0  0
    0.9765    2.1298   -0.6114 H   0  0  0  0  0  0  0  0  0  0  0  0
   -1.1549    1.6346    0.8164 H   0  0  0  0  0  0  0  0  0  0  0  0
   -1.2364    2.8856   -1.0567 H   0  0  0  0  0  0  0  0  0  0  0  0
   -1.7521   -0.3924   -1.3377 H   0  0  0  0  0  0  0  0  0  0  0  0
   -2.4885   -0.0148    1.3924 H   0  0  0  0  0  0  0  0  0  0  0  0
  1  2  1  0
  2  3  1  0
  3  4  1  0
  4  5  1  0
  4  6  1  0
  6  7  1  0
  7  8  1  0
  7  9  1  0
  9 10  1  0
  9  2  1  0
  1 11  1  0
  1 12  1  0
  2 13  1  1
  3 14  1  0
  3 15  1  0
  4 16  1  1
  5 17  1  0
  5 18  1  0
  6 19  1  0
  6 20  1  0
  7 21  1  1
  8 22  1  0
  9 23  1  6
 10 24  1  0
M  END
$$$$

     RDKit          3D

 24 24  0  0  0  0  0  0  0  0999 V2000
    1.4410   -1.0985    1.2939 N   0  0  0  0  0  0  0  0  0  0  0  0
    1.1425   -0.8987   -0.1300 C   0  0  1  0  0  0  0  0  0  0  0  0
   -0.2611   -1.3427   -0.4308 C   0  0  0  0  0  0  0  0  0  0  0  0
   -1.2891   -0.2879   -0.4610 C   0  0  1  0  0  0  0  0  0  0  0  0
   -2.4568   -0.7776    0.2969 N   0  0  0  0  0  0  0  0  0  0  0  0
   -0.9617    1.0561    0.0302 C   0  0  0  0  0  0  0  0  0  0  0  0
    0.4485    1.4852    0.0338 C   0  0  1  0  0  0  0  0  0  0  0  0
    0.9196    1.7838    1.3306 O   0  0  0  0  0  0  0  0  0  0  0  0
    1.4188    0.5089   -0.5611 C   0  0  2  0  0  0  0  0  0  0  0  0
    1.3705    0.5883   -1.9333 O   0  0  0  0  0  0  0  0  0  0  0  0
    0.8454   -0.5308    1.9010 H   0  0  0  0  0  0  0  0  0  0  0  0
    2.4430   -1.0783    1.4979 H   0  0  0  0  0  0  0  0  0  0  0  0
    1.8842   -1.5391   -0.6577 H   0  0  0  0  0  0  0  0  0  0  0  0
   -0.2167   -1.9192   -1.3887 H   0  0  0  0  0  0  0  0  0  0  0  0
   -0.4919   -2.1409    0.3383 H   0  0  0  0  0  0  0  0  0  0  0  0
   -1.6734   -0.2019   -1.5179 H   0  0  0  0  0  0  0  0  0  0  0  0
   -3.1224   -1.2776   -0.2917 H   0  0  0  0  0  0  0  0  0  0  0  0
   -2.1341   -1.3168    1.1416 H   0  0  0  0  0  0  0  0  0  0  0  0
   -1.5494    1.8311   -0.5519 H   0  0  0  0  0  0  0  0  0  0  0  0
   -1.3555    1.1968    1.0766 H   0  0  0  0  0  0  0  0  0  0  0  0
    0.6179    2.4499   -0.5337 H   0  0  0  0  0  0  0  0  0  0  0  0
    0.1166    1.9956    1.8931 H   0  0  0  0  0  0  0  0  0  0  0  0
    2.4387    0.7721   -0.1777 H   0  0  0  0  0  0  0  0  0  0  0  0
    0.4255    0.7424   -2.1982 H   0  0  0  0  0  0  0  0  0  0  0  0
  1  2  1  0
  2  3  1  0
  3  4  1  0
  4  5  1  0
  4  6  1  0
  6  7  1  0
  7  8  1  0
  7  9  1  0
  9 10  1  0
  9  2  1  0
  1 11  1  0
  1 12  1  0
  2 13  1  6
  3 14  1  0
  3 15  1  0
  4 16  1  6
  5 17  1  0
  5 18  1  0
  6 19  1  0
  6 20  1  0
  7 21  1  6
  8 22  1  0
  9 23  1  1
 10 24  1  0
M  END
$$$$

     RDKit          3D

 24 24  0  0  0  0  0  0  0  0999 V2000
    2.0635   -1.4247    0.3354 N   0  0  0  0  0  0  0  0  0  0  0  0
    1.0862   -0.5782   -0.3685 C   0  0  1  0  0  0  0  0  0  0  0  0
   -0.2237   -1.2585   -0.5144 C   0  0  0  0  0  0  0  0  0  0  0  0
   -1.4366   -0.4833   -0.2589 C   0  0  1  0  0  0  0  0  0  0  0  0
   -2.1717   -1.0550    0.8867 N   0  0  0  0  0  0  0  0  0  0  0  0
   -1.3291    0.9660   -0.0356 C   0  0  0  0  0  0  0  0  0  0  0  0
    0.0023    1.5864   -0.3292 C   0  0  1  0  0  0  0  0  0  0  0  0
   -0.0057    2.8749    0.2241 O   0  0  0  0  0  0  0  0  0  0  0  0
    1.0555    0.7324    0.3449 C   0  0  2  0  0  0  0  0  0  0  0  0
    2.3050    1.3266    0.2341 O   0  0  0  0  0  0  0  0  0  0  0  0
    2.2462   -2.2602   -0.2798 H   0  0  0  0  0  0  0  0  0  0  0  0
    1.5729   -1.7577    1.1937 H   0  0  0  0  0  0  0  0  0  0  0  0
    1.5716   -0.3852   -1.3713 H   0  0  0  0  0  0  0  0  0  0  0  0
   -0.2306   -1.7249   -1.5475 H   0  0  0  0  0  0  0  0  0  0  0  0
   -0.1965   -2.1698    0.1572 H   0  0  0  0  0  0  0  0  0  0  0  0
   -2.1528   -0.6427   -1.1220 H   0  0  0  0  0  0  0  0  0  0  0  0
   -2.1463   -2.0991    0.7408 H   0  0  0  0  0  0  0  0  0  0  0  0
   -3.1505   -0.7008    0.9114 H   0  0  0  0  0  0  0  0  0  0  0  0
   -2.0846    1.5546   -0.6379 H   0  0  0  0  0  0  0  0  0  0  0  0
   -1.5781    1.2527    1.0293 H   0  0  0  0  0  0  0  0  0  0  0  0
    0.2287    1.6231   -1.4031 H   0  0  0  0  0  0  0  0  0  0  0  0
    0.8580    3.1274    0.6161 H   0  0  0  0  0  0  0  0  0  0  0  0
    0.8238    0.6352    1.4262 H   0  0  0  0  0  0  0  0  0  0  0  0
    2.8926    0.8607   -0.4071 H   0  0  0  0  0  0  0  0  0  0  0  0
  1  2  1  0
  2  3  1  0
  3  4  1  0
  4  5  1  0
  4  6  1  0
  6  7  1  0
  7  8  1  0
  7  9  1  0
  9 10  1  0
  9  2  1  0
  1 11  1  0
  1 12  1  0
  2 13  1  6
  3 14  1  0
  3 15  1  0
  4 16  1  6
  5 17  1  0
  5 18  1  0
  6 19  1  0
  6 20  1  0
  7 21  1  6
  8 22  1  0
  9 23  1  1
 10 24  1  0
M  END
$$$$

     RDKit          3D

 24 24  0  0  0  0  0  0  0  0999 V2000
    1.5144    0.5355   -2.1519 N   0  0  0  0  0  0  0  0  0  0  0  0
    0.8121    0.4083   -0.9286 C   0  0  1  0  0  0  0  0  0  0  0  0
   -0.6722    0.6521   -1.0271 C   0  0  0  0  0  0  0  0  0  0  0  0
   -1.1733    0.8476    0.3850 C   0  0  1  0  0  0  0  0  0  0  0  0
   -2.6422    0.8703    0.2929 N   0  0  0  0  0  0  0  0  0  0  0  0
   -0.7364   -0.1774    1.3443 C   0  0  0  0  0  0  0  0  0  0  0  0
    0.6005   -0.7729    1.1566 C   0  0  1  0  0  0  0  0  0  0  0  0
    0.6347   -1.9992    1.8546 O   0  0  0  0  0  0  0  0  0  0  0  0
    0.9254   -0.9874   -0.3095 C   0  0  2  0  0  0  0  0  0  0  0  0
    2.1507   -1.5569   -0.5023 O   0  0  0  0  0  0  0  0  0  0  0  0
    1.1153    1.3329   -2.6967 H   0  0  0  0  0  0  0  0  0  0  0  0
    2.5062    0.8424   -1.9222 H   0  0  0  0  0  0  0  0  0  0  0  0
    1.1988    1.1610   -0.1808 H   0  0  0  0  0  0  0  0  0  0  0  0
   -1.1240   -0.2975   -1.4342 H   0  0  0  0  0  0  0  0  0  0  0  0
   -0.9339    1.5134   -1.6438 H   0  0  0  0  0  0  0  0  0  0  0  0
   -0.8688    1.8971    0.6715 H   0  0  0  0  0  0  0  0  0  0  0  0
   -3.0866    0.2076    0.9360 H   0  0  0  0  0  0  0  0  0  0  0  0
   -3.0174    1.8247    0.3699 H   0  0  0  0  0  0  0  0  0  0  0  0
   -0.7842    0.2677    2.3814 H   0  0  0  0  0  0  0  0  0  0  0  0
   -1.4973   -1.0095    1.3813 H   0  0  0  0  0  0  0  0  0  0  0  0
    1.4384   -0.1674    1.5712 H   0  0  0  0  0  0  0  0  0  0  0  0
    1.2517   -1.9770    2.6156 H   0  0  0  0  0  0  0  0  0  0  0  0
    0.1278   -1.6591   -0.7074 H   0  0  0  0  0  0  0  0  0  0  0  0
    2.2604   -1.7565   -1.4560 H   0  0  0  0  0  0  0  0  0  0  0  0
  1  2  1  0
  2  3  1  0
  3  4  1  0
  4  5  1  0
  4  6  1  0
  6  7  1  0
  7  8  1  0
  7  9  1  0
  9 10  1  0
  9  2  1  0
  1 11  1  0
  1 12  1  0
  2 13  1  1
  3 14  1  0
  3 15  1  0
  4 16  1  1
  5 17  1  0
  5 18  1  0
  6 19  1  0
  6 20  1  0
  7 21  1  1
  8 22  1  0
  9 23  1  6
 10 24  1  0
M  END
$$$$

     RDKit          3D

 24 24  0  0  0  0  0  0  0  0999 V2000
   -1.2817   -2.3375   -0.3142 N   0  0  0  0  0  0  0  0  0  0  0  0
   -0.6837   -1.1141    0.2178 C   0  0  1  0  0  0  0  0  0  0  0  0
    0.7950   -1.1922   -0.0597 C   0  0  0  0  0  0  0  0  0  0  0  0
    1.5417    0.0472    0.2886 C   0  0  1  0  0  0  0  0  0  0  0  0
    2.8319    0.0336   -0.4022 N   0  0  0  0  0  0  0  0  0  0  0  0
    0.8461    1.3149   -0.0959 C   0  0  0  0  0  0  0  0  0  0  0  0
   -0.6218    1.3183    0.2117 C   0  0  1  0  0  0  0  0  0  0  0  0
   -1.1574    2.5097   -0.2748 O   0  0  0  0  0  0  0  0  0  0  0  0
   -1.2698    0.1099   -0.4249 C   0  0  2  0  0  0  0  0  0  0  0  0
   -2.6343    0.1501   -0.1170 O   0  0  0  0  0  0  0  0  0  0  0  0
   -2.1791   -2.0941   -0.7685 H   0  0  0  0  0  0  0  0  0  0  0  0
   -1.4671   -3.0175    0.4694 H   0  0  0  0  0  0  0  0  0  0  0  0
   -0.8450   -1.0545    1.3066 H   0  0  0  0  0  0  0  0  0  0  0  0
    0.9926   -1.5392   -1.1020 H   0  0  0  0  0  0  0  0  0  0  0  0
    1.1925   -2.0168    0.5947 H   0  0  0  0  0  0  0  0  0  0  0  0
    1.7616    0.0469    1.3838 H   0  0  0  0  0  0  0  0  0  0  0  0
    3.1978    0.9914   -0.5501 H   0  0  0  0  0  0  0  0  0  0  0  0
    2.7173   -0.4008   -1.3403 H   0  0  0  0  0  0  0  0  0  0  0  0
    1.3374    2.1464    0.4753 H   0  0  0  0  0  0  0  0  0  0  0  0
    0.9809    1.5625   -1.1608 H   0  0  0  0  0  0  0  0  0  0  0  0
   -0.7394    1.2086    1.3037 H   0  0  0  0  0  0  0  0  0  0  0  0
   -1.4806    3.0864    0.4551 H   0  0  0  0  0  0  0  0  0  0  0  0
   -1.1026    0.1519   -1.5104 H   0  0  0  0  0  0  0  0  0  0  0  0
   -2.7324    0.0890    0.8595 H   0  0  0  0  0  0  0  0  0  0  0  0
  1  2  1  0
  2  3  1  0
  3  4  1  0
  4  5  1  0
  4  6  1  0
  6  7  1  0
  7  8  1  0
  7  9  1  0
  9 10  1  0
  9  2  1  0
  1 11  1  0
  1 12  1  0
  2 13  1  1
  3 14  1  0
  3 15  1  0
  4 16  1  1
  5 17  1  0
  5 18  1  0
  6 19  1  0
  6 20  1  0
  7 21  1  1
  8 22  1  0
  9 23  1  6
 10 24  1  0
M  END
$$$$

     RDKit          3D

 24 24  0  0  0  0  0  0  0  0999 V2000
    1.4370   -2.0789   -0.8745 N   0  0  0  0  0  0  0  0  0  0  0  0
    0.6462   -0.9064   -0.6371 C   0  0  1  0  0  0  0  0  0  0  0  0
   -0.6836   -1.2124    0.0261 C   0  0  0  0  0  0  0  0  0  0  0  0
   -1.5021    0.0577   -0.0117 C   0  0  1  0  0  0  0  0  0  0  0  0
   -2.8217   -0.0986    0.5214 N   0  0  0  0  0  0  0  0  0  0  0  0
   -0.7800    1.0991    0.8473 C   0  0  0  0  0  0  0  0  0  0  0  0
    0.5210    1.3996    0.1044 C   0  0  1  0  0  0  0  0  0  0  0  0
    1.1659    2.5051    0.5814 O   0  0  0  0  0  0  0  0  0  0  0  0
    1.3580    0.1245    0.2204 C   0  0  2  0  0  0  0  0  0  0  0  0
    2.6672    0.3177   -0.1359 O   0  0  0  0  0  0  0  0  0  0  0  0
    1.0133   -2.5655   -1.7139 H   0  0  0  0  0  0  0  0  0  0  0  0
    2.3938   -1.7678   -1.1364 H   0  0  0  0  0  0  0  0  0  0  0  0
    0.3907   -0.4226   -1.6161 H   0  0  0  0  0  0  0  0  0  0  0  0
   -0.4863   -1.4587    1.0857 H   0  0  0  0  0  0  0  0  0  0  0  0
   -1.1995   -2.0339   -0.4949 H   0  0  0  0  0  0  0  0  0  0  0  0
   -1.4882    0.4175   -1.0652 H   0  0  0  0  0  0  0  0  0  0  0  0
   -3.5249    0.2628   -0.1634 H   0  0  0  0  0  0  0  0  0  0  0  0
   -3.0619   -1.0657    0.8032 H   0  0  0  0  0  0  0  0  0  0  0  0
   -0.5709    0.5891    1.8193 H   0  0  0  0  0  0  0  0  0  0  0  0
   -1.3777    2.0050    0.9790 H   0  0  0  0  0  0  0  0  0  0  0  0
    0.2241    1.5225   -0.9671 H   0  0  0  0  0  0  0  0  0  0  0  0
    1.0813    3.2416   -0.0927 H   0  0  0  0  0  0  0  0  0  0  0  0
    1.3203   -0.2618    1.2614 H   0  0  0  0  0  0  0  0  0  0  0  0
    3.2780    0.3302    0.6592 H   0  0  0  0  0  0  0  0  0  0  0  0
  1  2  1  0
  2  3  1  0
  3  4  1  0
  4  5  1  0
  4  6  1  0
  6  7  1  0
  7  8  1  0
  7  9  1  0
  9 10  1  0
  9  2  1  0
  1 11  1  0
  1 12  1  0
  2 13  1  6
  3 14  1  0
  3 15  1  0
  4 16  1  6
  5 17  1  0
  5 18  1  0
  6 19  1  0
  6 20  1  0
  7 21  1  6
  8 22  1  0
  9 23  1  1
 10 24  1  0
M  END
$$$$
