
     RDKit          3D

 23 23  0  0  0  0  0  0  0  0999 V2000
    2.6204    0.6700   -0.0211 C   0  0  0  0  0  0  0  0  0  0  0  0
    1.1252    0.5412   -0.1433 C   0  0  2  0  0  0  0  0  0  0  0  0
    0.4377    1.2699    0.8150 O   0  0  0  0  0  0  0  0  0  0  0  0
   -1.1479    1.4421    0.1928 P   0  0  2  0  0  5  0  0  0  0  0  0
   -1.0275    2.3578   -1.0044 O   0  0  0  0  0  0  0  0  0  0  0  0
   -2.1838    2.1331    1.2967 O   0  0  0  0  0  0  0  0  0  0  0  0
   -1.6835   -0.2264   -0.2916 C   0  0  2  0  0  0  0  0  0  0  0  0
   -2.9078   -0.5022    0.2697 O   0  0  0  0  0  0  0  0  0  0  0  0
   -0.6489   -1.1926    0.2571 C   0  0  2  0  0  0  0  0  0  0  0  0
   -0.7691   -1.2266    1.6384 O   0  0  0  0  0  0  0  0  0  0  0  0
    0.7362   -0.8940   -0.2114 C   0  0  1  0  0  0  0  0  0  0  0  0
    0.9069   -1.3364   -1.5324 O   0  0  0  0  0  0  0  0  0  0  0  0
    2.9523    0.1047    0.8785 H   0  0  0  0  0  0  0  0  0  0  0  0
    2.9700    1.7063    0.0484 H   0  0  0  0  0  0  0  0  0  0  0  0
    3.0599    0.1291   -0.8915 H   0  0  0  0  0  0  0  0  0  0  0  0
    0.8523    1.0053   -1.1346 H   0  0  0  0  0  0  0  0  0  0  0  0
   -1.7726    2.9601    1.6369 H   0  0  0  0  0  0  0  0  0  0  0  0
   -1.7916   -0.3200   -1.3953 H   0  0  0  0  0  0  0  0  0  0  0  0
   -2.8621   -1.2742    0.8895 H   0  0  0  0  0  0  0  0  0  0  0  0
   -0.9219   -2.2088   -0.1356 H   0  0  0  0  0  0  0  0  0  0  0  0
    0.1191   -1.4398    2.0322 H   0  0  0  0  0  0  0  0  0  0  0  0
    1.4414   -1.4736    0.4164 H   0  0  0  0  0  0  0  0  0  0  0  0
    0.4952   -2.2251   -1.5800 H   0  0  0  0  0  0  0  0  0  0  0  0
  1  2  1  0
  2  3  1  0
  3  4  1  0
  4  5  2  0
  4  6  1  1
  4  7  1  0
  7  8  1  0
  7  9  1  0
  9 10  1  0
  9 11  1  0
 11 12  1  0
 11  2  1  0
  1 13  1  0
  1 14  1  0
  1 15  1  0
  2 16  1  6
  6 17  1  0
  7 18  1  6
  8 19  1  0
  9 20  1  6
 10 21  1  0
 11 22  1  1
 12 23  1  0
M  END
$$$$

     RDKit          3D

 23 23  0  0  0  0  0  0  0  0999 V2000
    2.5368    0.4803    0.5919 C   0  0  0  0  0  0  0  0  0  0  0  0
    1.1468    0.4302    0.0060 C   0  0  2  0  0  0  0  0  0  0  0  0
    0.3865    1.3997    0.6515 O   0  0  0  0  0  0  0  0  0  0  0  0
   -1.0056    1.5488   -0.3342 P   0  0  2  0  0  5  0  0  0  0  0  0
   -0.5345    1.9698   -1.7060 O   0  0  0  0  0  0  0  0  0  0  0  0
   -2.0393    2.6547    0.3705 O   0  0  0  0  0  0  0  0  0  0  0  0
   -1.7056   -0.0949   -0.4582 C   0  0  2  0  0  0  0  0  0  0  0  0
   -2.6852   -0.2016    0.5587 O   0  0  0  0  0  0  0  0  0  0  0  0
   -0.7268   -1.1996   -0.4192 C   0  0  2  0  0  0  0  0  0  0  0  0
   -1.3090   -2.2587    0.3196 O   0  0  0  0  0  0  0  0  0  0  0  0
    0.6057   -0.9410    0.1297 C   0  0  1  0  0  0  0  0  0  0  0  0
    1.5273   -1.8040   -0.4994 O   0  0  0  0  0  0  0  0  0  0  0  0
    2.4695    0.6630    1.6835 H   0  0  0  0  0  0  0  0  0  0  0  0
    3.1602   -0.3705    0.3164 H   0  0  0  0  0  0  0  0  0  0  0  0
    3.0206    1.4004    0.1648 H   0  0  0  0  0  0  0  0  0  0  0  0
    1.2417    0.7192   -1.0664 H   0  0  0  0  0  0  0  0  0  0  0  0
   -1.6441    3.5502    0.2913 H   0  0  0  0  0  0  0  0  0  0  0  0
   -2.3092   -0.1235   -1.4132 H   0  0  0  0  0  0  0  0  0  0  0  0
   -2.4212   -0.8105    1.2615 H   0  0  0  0  0  0  0  0  0  0  0  0
   -0.6264   -1.6236   -1.4619 H   0  0  0  0  0  0  0  0  0  0  0  0
   -0.9740   -2.2485    1.2533 H   0  0  0  0  0  0  0  0  0  0  0  0
    0.6538   -1.2325    1.2191 H   0  0  0  0  0  0  0  0  0  0  0  0
    1.2320   -1.9075   -1.4594 H   0  0  0  0  0  0  0  0  0  0  0  0
  1  2  1  0
  2  3  1  0
  3  4  1  0
  4  5  2  0
  4  6  1  1
  4  7  1  0
  7  8  1  0
  7  9  1  0
  9 10  1  0
  9 11  1  0
 11 12  1  0
 11  2  1  0
  1 13  1  0
  1 14  1  0
  1 15  1  0
  2 16  1  6
  6 17  1  0
  7 18  1  6
  8 19  1  0
  9 20  1  6
 10 21  1  0
 11 22  1  1
 12 23  1  0
M  END
$$$$

     RDKit          3D

 23 23  0  0  0  0  0  0  0  0999 V2000
    2.4506   -1.0670   -0.1079 C   0  0  0  0  0  0  0  0  0  0  0  0
    1.0225   -0.6513    0.0292 C   0  0  2  0  0  0  0  0  0  0  0  0
    0.1843   -1.3060   -0.8975 O   0  0  0  0  0  0  0  0  0  0  0  0
   -1.3912   -1.1584   -0.2404 P   0  0  2  0  0  5  0  0  0  0  0  0
   -1.6918   -2.3490    0.6114 O   0  0  0  0  0  0  0  0  0  0  0  0
   -2.5390   -0.9643   -1.4551 O   0  0  0  0  0  0  0  0  0  0  0  0
   -1.3288    0.3833    0.7537 C   0  0  2  0  0  0  0  0  0  0  0  0
   -2.5931    0.8596    1.0282 O   0  0  0  0  0  0  0  0  0  0  0  0
   -0.4916    1.3529   -0.0541 C   0  0  2  0  0  0  0  0  0  0  0  0
   -1.0267    1.4307   -1.3490 O   0  0  0  0  0  0  0  0  0  0  0  0
    0.9241    0.8474   -0.1112 C   0  0  1  0  0  0  0  0  0  0  0  0
    1.6212    1.4239    0.9385 O   0  0  0  0  0  0  0  0  0  0  0  0
    2.5550   -1.9525   -0.7674 H   0  0  0  0  0  0  0  0  0  0  0  0
    2.8921   -1.3847    0.8812 H   0  0  0  0  0  0  0  0  0  0  0  0
    3.1037   -0.2800   -0.5205 H   0  0  0  0  0  0  0  0  0  0  0  0
    0.6669   -1.0015    1.0304 H   0  0  0  0  0  0  0  0  0  0  0  0
   -3.1198   -1.7726   -1.5158 H   0  0  0  0  0  0  0  0  0  0  0  0
   -0.8254    0.2028    1.7296 H   0  0  0  0  0  0  0  0  0  0  0  0
   -2.9920    0.2608    1.7066 H   0  0  0  0  0  0  0  0  0  0  0  0
   -0.5528    2.3561    0.4035 H   0  0  0  0  0  0  0  0  0  0  0  0
   -0.8272    2.2950   -1.7860 H   0  0  0  0  0  0  0  0  0  0  0  0
    1.3663    1.1058   -1.0967 H   0  0  0  0  0  0  0  0  0  0  0  0
    2.5926    1.3691    0.7893 H   0  0  0  0  0  0  0  0  0  0  0  0
  1  2  1  0
  2  3  1  0
  3  4  1  0
  4  5  2  0
  4  6  1  6
  4  7  1  0
  7  8  1  0
  7  9  1  0
  9 10  1  0
  9 11  1  0
 11 12  1  0
 11  2  1  0
  1 13  1  0
  1 14  1  0
  1 15  1  0
  2 16  1  1
  6 17  1  0
  7 18  1  1
  8 19  1  0
  9 20  1  1
 10 21  1  0
 11 22  1  6
 12 23  1  0
M  END
$$$$

     RDKit          3D

 23 23  0  0  0  0  0  0  0  0999 V2000
   -2.4116    0.8651   -0.9291 C   0  0  0  0  0  0  0  0  0  0  0  0
   -1.3010    0.5112    0.0731 C   0  0  2  0  0  0  0  0  0  0  0  0
   -0.4945    1.6091    0.1280 O   0  0  0  0  0  0  0  0  0  0  0  0
    0.9676    1.4144    0.8626 P   0  0  2  0  0  5  0  0  0  0  0  0
    0.8873    1.3194    2.3682 O   0  0  0  0  0  0  0  0  0  0  0  0
    2.0083    2.6506    0.3768 O   0  0  0  0  0  0  0  0  0  0  0  0
    1.6666   -0.1821    0.2891 C   0  0  2  0  0  0  0  0  0  0  0  0
    2.0458   -0.0693   -1.0598 O   0  0  0  0  0  0  0  0  0  0  0  0
    0.5087   -1.1637    0.4415 C   0  0  2  0  0  0  0  0  0  0  0  0
    0.9431   -2.4290    0.1683 O   0  0  0  0  0  0  0  0  0  0  0  0
   -0.6687   -0.7440   -0.3902 C   0  0  1  0  0  0  0  0  0  0  0  0
   -1.6269   -1.7767   -0.2558 O   0  0  0  0  0  0  0  0  0  0  0  0
   -3.0977    0.0363   -1.0827 H   0  0  0  0  0  0  0  0  0  0  0  0
   -2.8842    1.7862   -0.5213 H   0  0  0  0  0  0  0  0  0  0  0  0
   -1.9374    1.1958   -1.8990 H   0  0  0  0  0  0  0  0  0  0  0  0
   -1.8476    0.3075    1.0314 H   0  0  0  0  0  0  0  0  0  0  0  0
    2.0262    2.6206   -0.6225 H   0  0  0  0  0  0  0  0  0  0  0  0
    2.5026   -0.5079    0.9094 H   0  0  0  0  0  0  0  0  0  0  0  0
    2.5918   -0.8491   -1.2799 H   0  0  0  0  0  0  0  0  0  0  0  0
    0.2281   -1.1247    1.5215 H   0  0  0  0  0  0  0  0  0  0  0  0
    1.8047   -2.5633    0.6667 H   0  0  0  0  0  0  0  0  0  0  0  0
   -0.3870   -0.7261   -1.4607 H   0  0  0  0  0  0  0  0  0  0  0  0
   -1.5244   -2.1804    0.6644 H   0  0  0  0  0  0  0  0  0  0  0  0
  1  2  1  0
  2  3  1  0
  3  4  1  0
  4  5  2  0
  4  6  1  1
  4  7  1  0
  7  8  1  0
  7  9  1  0
  9 10  1  0
  9 11  1  0
 11 12  1  0
 11  2  1  0
  1 13  1  0
  1 14  1  0
  1 15  1  0
  2 16  1  1
  6 17  1  0
  7 18  1  1
  8 19  1  0
  9 20  1  1
 10 21  1  0
 11 22  1  6
 12 23  1  0
M  END
$$$$

     RDKit          3D

 23 23  0  0  0  0  0  0  0  0999 V2000
   -1.7970    2.0564    0.3558 C   0  0  0  0  0  0  0  0  0  0  0  0
   -0.7112    1.0430    0.3879 C   0  0  2  0  0  0  0  0  0  0  0  0
    0.4870    1.4975   -0.1800 O   0  0  0  0  0  0  0  0  0  0  0  0
    1.6956    0.5463    0.5737 P   0  0  2  0  0  5  0  0  0  0  0  0
    1.8952    1.1455    1.9494 O   0  0  0  0  0  0  0  0  0  0  0  0
    3.1349    0.5827   -0.2422 O   0  0  0  0  0  0  0  0  0  0  0  0
    0.9897   -1.1115    0.7344 C   0  0  2  0  0  0  0  0  0  0  0  0
    1.9462   -2.0804    0.5034 O   0  0  0  0  0  0  0  0  0  0  0  0
   -0.1604   -1.3413   -0.1906 C   0  0  2  0  0  0  0  0  0  0  0  0
    0.2843   -1.6742   -1.4918 O   0  0  0  0  0  0  0  0  0  0  0  0
   -1.1651   -0.2485   -0.2334 C   0  0  1  0  0  0  0  0  0  0  0  0
   -2.3457   -0.6231    0.4288 O   0  0  0  0  0  0  0  0  0  0  0  0
   -2.1298    2.3708    1.3853 H   0  0  0  0  0  0  0  0  0  0  0  0
   -1.3859    2.9814   -0.1366 H   0  0  0  0  0  0  0  0  0  0  0  0
   -2.7213    1.7188   -0.1534 H   0  0  0  0  0  0  0  0  0  0  0  0
   -0.5048    0.8103    1.4739 H   0  0  0  0  0  0  0  0  0  0  0  0
    3.1131    0.3380   -1.1822 H   0  0  0  0  0  0  0  0  0  0  0  0
    0.5998   -1.2362    1.7804 H   0  0  0  0  0  0  0  0  0  0  0  0
    2.4720   -1.8093   -0.2884 H   0  0  0  0  0  0  0  0  0  0  0  0
   -0.6787   -2.2796    0.1663 H   0  0  0  0  0  0  0  0  0  0  0  0
    1.1018   -1.1648   -1.6984 H   0  0  0  0  0  0  0  0  0  0  0  0
   -1.4168   -0.0356   -1.2992 H   0  0  0  0  0  0  0  0  0  0  0  0
   -2.7031   -1.4861    0.0918 H   0  0  0  0  0  0  0  0  0  0  0  0
  1  2  1  0
  2  3  1  0
  3  4  1  0
  4  5  2  0
  4  6  1  6
  4  7  1  0
  7  8  1  0
  7  9  1  0
  9 10  1  0
  9 11  1  0
 11 12  1  0
 11  2  1  0
  1 13  1  0
  1 14  1  0
  1 15  1  0
  2 16  1  1
  6 17  1  0
  7 18  1  1
  8 19  1  0
  9 20  1  1
 10 21  1  0
 11 22  1  6
 12 23  1  0
M  END
$$$$

     RDKit          3D

 23 23  0  0  0  0  0  0  0  0999 V2000
   -2.5066    0.7143   -0.3316 C   0  0  0  0  0  0  0  0  0  0  0  0
   -1.1558    0.3864    0.3183 C   0  0  2  0  0  0  0  0  0  0  0  0
   -0.4646    1.5650    0.3906 O   0  0  0  0  0  0  0  0  0  0  0  0
    1.1624    1.4318    0.6686 P   0  0  2  0  0  5  0  0  0  0  0  0
    1.5005    1.6758    2.1241 O   0  0  0  0  0  0  0  0  0  0  0  0
    1.9551    2.6312   -0.2547 O   0  0  0  0  0  0  0  0  0  0  0  0
    1.8286   -0.2035    0.2197 C   0  0  2  0  0  0  0  0  0  0  0  0
    2.1612   -0.2544   -1.1406 O   0  0  0  0  0  0  0  0  0  0  0  0
    0.6980   -1.1998    0.4360 C   0  0  2  0  0  0  0  0  0  0  0  0
    1.0428   -2.4839    0.0883 O   0  0  0  0  0  0  0  0  0  0  0  0
   -0.4547   -0.6982   -0.4415 C   0  0  1  0  0  0  0  0  0  0  0  0
   -1.2896   -1.7693   -0.6502 O   0  0  0  0  0  0  0  0  0  0  0  0
   -3.1484    1.2128    0.4373 H   0  0  0  0  0  0  0  0  0  0  0  0
   -2.9868   -0.1625   -0.7611 H   0  0  0  0  0  0  0  0  0  0  0  0
   -2.2993    1.4964   -1.1108 H   0  0  0  0  0  0  0  0  0  0  0  0
   -1.4010    0.0011    1.3474 H   0  0  0  0  0  0  0  0  0  0  0  0
    1.6519    3.5070    0.0827 H   0  0  0  0  0  0  0  0  0  0  0  0
    2.6863   -0.4579    0.8603 H   0  0  0  0  0  0  0  0  0  0  0  0
    2.1267   -1.1752   -1.4778 H   0  0  0  0  0  0  0  0  0  0  0  0
    0.3824   -1.1144    1.5045 H   0  0  0  0  0  0  0  0  0  0  0  0
    0.3863   -3.0955    0.5343 H   0  0  0  0  0  0  0  0  0  0  0  0
   -0.0356   -0.3057   -1.3908 H   0  0  0  0  0  0  0  0  0  0  0  0
   -1.8400   -1.7014   -1.4529 H   0  0  0  0  0  0  0  0  0  0  0  0
  1  2  1  0
  2  3  1  0
  3  4  1  0
  4  5  2  0
  4  6  1  6
  4  7  1  0
  7  8  1  0
  7  9  1  0
  9 10  1  0
  9 11  1  0
 11 12  1  0
 11  2  1  0
  1 13  1  0
  1 14  1  0
  1 15  1  0
  2 16  1  1
  6 17  1  0
  7 18  1  1
  8 19  1  0
  9 20  1  1
 10 21  1  0
 11 22  1  6
 12 23  1  0
M  END
$$$$

     RDKit          3D

 23 23  0  0  0  0  0  0  0  0999 V2000
    2.0836   -0.6119   -0.8455 C   0  0  0  0  0  0  0  0  0  0  0  0
    1.3813   -0.4871    0.5147 C   0  0  2  0  0  0  0  0  0  0  0  0
    0.5736   -1.5642    0.6606 O   0  0  0  0  0  0  0  0  0  0  0  0
   -0.9504   -1.4597    0.0268 P   0  0  2  0  0  5  0  0  0  0  0  0
   -1.8380   -2.5270    0.6374 O   0  0  0  0  0  0  0  0  0  0  0  0
   -1.0078   -1.5257   -1.6524 O   0  0  0  0  0  0  0  0  0  0  0  0
   -1.5808    0.1819    0.5318 C   0  0  2  0  0  0  0  0  0  0  0  0
   -2.7613    0.4948   -0.0856 O   0  0  0  0  0  0  0  0  0  0  0  0
   -0.5128    1.1468    0.1516 C   0  0  2  0  0  0  0  0  0  0  0  0
   -0.4185    1.2557   -1.2287 O   0  0  0  0  0  0  0  0  0  0  0  0
    0.8327    0.8537    0.7154 C   0  0  1  0  0  0  0  0  0  0  0  0
    0.8164    1.2286    2.0792 O   0  0  0  0  0  0  0  0  0  0  0  0
    1.3252   -0.6707   -1.6229 H   0  0  0  0  0  0  0  0  0  0  0  0
    2.8035    0.2302   -0.9670 H   0  0  0  0  0  0  0  0  0  0  0  0
    2.6493   -1.5871   -0.7821 H   0  0  0  0  0  0  0  0  0  0  0  0
    2.2269   -0.6155    1.2585 H   0  0  0  0  0  0  0  0  0  0  0  0
   -1.9592   -1.6194   -1.9114 H   0  0  0  0  0  0  0  0  0  0  0  0
   -1.7325    0.1629    1.6296 H   0  0  0  0  0  0  0  0  0  0  0  0
   -2.6211    0.6600   -1.0334 H   0  0  0  0  0  0  0  0  0  0  0  0
   -0.8229    2.1558    0.5514 H   0  0  0  0  0  0  0  0  0  0  0  0
   -0.5271    2.2050   -1.5253 H   0  0  0  0  0  0  0  0  0  0  0  0
    1.5418    1.5950    0.2460 H   0  0  0  0  0  0  0  0  0  0  0  0
    0.4977    0.4978    2.6513 H   0  0  0  0  0  0  0  0  0  0  0  0
  1  2  1  0
  2  3  1  0
  3  4  1  0
  4  5  2  0
  4  6  1  6
  4  7  1  0
  7  8  1  0
  7  9  1  0
  9 10  1  0
  9 11  1  0
 11 12  1  0
 11  2  1  0
  1 13  1  0
  1 14  1  0
  1 15  1  0
  2 16  1  1
  6 17  1  0
  7 18  1  1
  8 19  1  0
  9 20  1  1
 10 21  1  0
 11 22  1  6
 12 23  1  0
M  END
$$$$

     RDKit          3D

 23 23  0  0  0  0  0  0  0  0999 V2000
    2.2207   -0.2475   -0.3972 C   0  0  0  0  0  0  0  0  0  0  0  0
    1.1366   -0.6425    0.5952 C   0  0  2  0  0  0  0  0  0  0  0  0
    0.4422   -1.6952    0.0540 O   0  0  0  0  0  0  0  0  0  0  0  0
   -0.7795   -1.2930   -0.9855 P   0  0  2  0  0  5  0  0  0  0  0  0
   -1.6781   -2.4982   -1.1738 O   0  0  0  0  0  0  0  0  0  0  0  0
   -0.2768   -0.7545   -2.4854 O   0  0  0  0  0  0  0  0  0  0  0  0
   -1.7657   -0.0462   -0.0968 C   0  0  2  0  0  0  0  0  0  0  0  0
   -2.7071    0.5467   -0.9069 O   0  0  0  0  0  0  0  0  0  0  0  0
   -0.8203    0.9775    0.4188 C   0  0  2  0  0  0  0  0  0  0  0  0
   -0.5240    1.8442   -0.6539 O   0  0  0  0  0  0  0  0  0  0  0  0
    0.3748    0.4843    1.1288 C   0  0  1  0  0  0  0  0  0  0  0  0
   -0.0033    0.2033    2.4663 O   0  0  0  0  0  0  0  0  0  0  0  0
    3.2211   -0.1755    0.0766 H   0  0  0  0  0  0  0  0  0  0  0  0
    2.3136   -0.9986   -1.2129 H   0  0  0  0  0  0  0  0  0  0  0  0
    2.0231    0.7417   -0.8507 H   0  0  0  0  0  0  0  0  0  0  0  0
    1.7079   -1.1133    1.4560 H   0  0  0  0  0  0  0  0  0  0  0  0
    0.2957    0.0401   -2.3612 H   0  0  0  0  0  0  0  0  0  0  0  0
   -2.2245   -0.5631    0.7755 H   0  0  0  0  0  0  0  0  0  0  0  0
   -3.6055    0.2308   -0.5924 H   0  0  0  0  0  0  0  0  0  0  0  0
   -1.4022    1.6233    1.1241 H   0  0  0  0  0  0  0  0  0  0  0  0
    0.2852    2.3720   -0.4921 H   0  0  0  0  0  0  0  0  0  0  0  0
    1.0783    1.3554    1.2309 H   0  0  0  0  0  0  0  0  0  0  0  0
    0.6880   -0.3918    2.8825 H   0  0  0  0  0  0  0  0  0  0  0  0
  1  2  1  0
  2  3  1  0
  3  4  1  0
  4  5  2  0
  4  6  1  6
  4  7  1  0
  7  8  1  0
  7  9  1  0
  9 10  1  0
  9 11  1  0
 11 12  1  0
 11  2  1  0
  1 13  1  0
  1 14  1  0
  1 15  1  0
  2 16  1  1
  6 17  1  0
  7 18  1  1
  8 19  1  0
  9 20  1  1
 10 21  1  0
 11 22  1  1
 12 23  1  0
M  END
$$$$
