
     RDKit          3D

 32 33  0  0  0  0  0  0  0  0999 V2000
   -2.6029   -1.8685    0.4071 C   0  0  0  0  0  0  0  0  0  0  0  0
   -1.5607   -0.9223   -0.1464 C   0  0  2  0  0  0  0  0  0  0  0  0
   -0.2691   -1.3663    0.1928 N   0  0  0  0  0  0  0  0  0  0  0  0
    0.8054   -0.4620    0.0538 C   0  0  2  0  0  0  0  0  0  0  0  0
    1.8903   -0.8469    0.9006 N   0  0  0  0  0  0  0  0  0  0  0  0
    3.0959   -0.1129    0.7264 C   0  0  1  0  0  0  0  0  0  0  0  0
    4.0472   -0.7439   -0.1678 N   0  0  0  0  0  0  0  0  0  0  0  0
    2.9060    1.2466    0.2676 N   0  0  0  0  0  0  0  0  0  0  0  0
    1.6223    1.8050    0.0622 C   0  0  0  0  0  0  0  0  0  0  0  0
    1.5047    2.9748   -0.3529 O   0  0  0  0  0  0  0  0  0  0  0  0
    0.4711    0.9762    0.3490 C   0  0  1  0  0  0  0  0  0  0  0  0
   -0.7911    1.3518   -0.3520 C   0  0  0  0  0  0  0  0  0  0  0  0
   -1.8465    0.4697    0.3276 C   0  0  1  0  0  0  0  0  0  0  0  0
   -3.2246    0.9436    0.0803 C   0  0  0  0  0  0  0  0  0  0  0  0
   -3.3490   -1.3273    1.0385 H   0  0  0  0  0  0  0  0  0  0  0  0
   -3.1493   -2.4140   -0.4042 H   0  0  0  0  0  0  0  0  0  0  0  0
   -2.1308   -2.6250    1.0735 H   0  0  0  0  0  0  0  0  0  0  0  0
   -1.6924   -0.9223   -1.2633 H   0  0  0  0  0  0  0  0  0  0  0  0
   -0.1818   -2.1040    0.8912 H   0  0  0  0  0  0  0  0  0  0  0  0
    1.1817   -0.5317   -1.0086 H   0  0  0  0  0  0  0  0  0  0  0  0
    1.6164   -1.0360    1.8698 H   0  0  0  0  0  0  0  0  0  0  0  0
    3.5940   -0.0336    1.7318 H   0  0  0  0  0  0  0  0  0  0  0  0
    3.5155   -1.1682   -0.9372 H   0  0  0  0  0  0  0  0  0  0  0  0
    4.6413   -1.3969    0.3761 H   0  0  0  0  0  0  0  0  0  0  0  0
    3.7823    1.7970    0.0952 H   0  0  0  0  0  0  0  0  0  0  0  0
    0.2659    1.0383    1.4558 H   0  0  0  0  0  0  0  0  0  0  0  0
   -1.0470    2.4141   -0.2918 H   0  0  0  0  0  0  0  0  0  0  0  0
   -0.7015    1.0282   -1.4127 H   0  0  0  0  0  0  0  0  0  0  0  0
   -1.6579    0.4791    1.4361 H   0  0  0  0  0  0  0  0  0  0  0  0
   -3.6499    0.6143   -0.8823 H   0  0  0  0  0  0  0  0  0  0  0  0
   -3.8733    0.6721    0.9555 H   0  0  0  0  0  0  0  0  0  0  0  0
   -3.2122    2.0707    0.0913 H   0  0  0  0  0  0  0  0  0  0  0  0
  1  2  1  0
  2  3  1  0
  3  4  1  0
  4  5  1  0
  5  6  1  0
  6  7  1  0
  6  8  1  0
  8  9  1  0
  9 10  2  0
  9 11  1  0
 11 12  1  0
 12 13  1  0
 13 14  1  0
 13  2  1  0
 11  4  1  0
  1 15  1  0
  1 16  1  0
  1 17  1  0
  2 18  1  6
  3 19  1  0
  4 20  1  6
  5 21  1  0
  6 22  1  1
  7 23  1  0
  7 24  1  0
  8 25  1  0
 11 26  1  1
 12 27  1  0
 12 28  1  0
 13 29  1  1
 14 30  1  0
 14 31  1  0
 14 32  1  0
M  END
$$$$

     RDKit          3D

 32 33  0  0  0  0  0  0  0  0999 V2000
   -2.9721    1.6020    0.0684 C   0  0  0  0  0  0  0  0  0  0  0  0
   -1.7425    0.7644    0.2093 C   0  0  2  0  0  0  0  0  0  0  0  0
   -0.5988    1.4228   -0.4431 N   0  0  0  0  0  0  0  0  0  0  0  0
    0.5369    0.6335   -0.1229 C   0  0  2  0  0  0  0  0  0  0  0  0
    1.7970    1.2583   -0.2959 N   0  0  0  0  0  0  0  0  0  0  0  0
    2.8988    0.3749   -0.0670 C   0  0  1  0  0  0  0  0  0  0  0  0
    3.8357    0.9607    0.8770 N   0  0  0  0  0  0  0  0  0  0  0  0
    2.5237   -0.9636    0.3466 N   0  0  0  0  0  0  0  0  0  0  0  0
    1.4296   -1.5619   -0.3139 C   0  0  0  0  0  0  0  0  0  0  0  0
    1.2707   -2.7923   -0.3429 O   0  0  0  0  0  0  0  0  0  0  0  0
    0.4925   -0.6276   -0.9641 C   0  0  1  0  0  0  0  0  0  0  0  0
   -0.8789   -1.1612   -1.1570 C   0  0  0  0  0  0  0  0  0  0  0  0
   -1.9067   -0.6514   -0.2157 C   0  0  1  0  0  0  0  0  0  0  0  0
   -2.0489   -1.5898    0.9909 C   0  0  0  0  0  0  0  0  0  0  0  0
   -3.6075    1.5593    0.9882 H   0  0  0  0  0  0  0  0  0  0  0  0
   -3.5728    1.2055   -0.7738 H   0  0  0  0  0  0  0  0  0  0  0  0
   -2.7066    2.6776   -0.0591 H   0  0  0  0  0  0  0  0  0  0  0  0
   -1.4843    0.7522    1.3083 H   0  0  0  0  0  0  0  0  0  0  0  0
   -0.5447    2.3700   -0.0036 H   0  0  0  0  0  0  0  0  0  0  0  0
    0.4536    0.3225    0.9559 H   0  0  0  0  0  0  0  0  0  0  0  0
    1.9019    2.2007    0.0879 H   0  0  0  0  0  0  0  0  0  0  0  0
    3.4654    0.3066   -1.0416 H   0  0  0  0  0  0  0  0  0  0  0  0
    4.7012    0.3781    0.8595 H   0  0  0  0  0  0  0  0  0  0  0  0
    4.0802    1.9028    0.5051 H   0  0  0  0  0  0  0  0  0  0  0  0
    3.0440   -1.4752    1.1097 H   0  0  0  0  0  0  0  0  0  0  0  0
    0.9605   -0.3584   -1.9571 H   0  0  0  0  0  0  0  0  0  0  0  0
   -0.8568   -2.2856   -1.0549 H   0  0  0  0  0  0  0  0  0  0  0  0
   -1.1911   -0.9816   -2.2083 H   0  0  0  0  0  0  0  0  0  0  0  0
   -2.9058   -0.7254   -0.7393 H   0  0  0  0  0  0  0  0  0  0  0  0
   -1.7941   -2.6323    0.6649 H   0  0  0  0  0  0  0  0  0  0  0  0
   -3.1291   -1.6274    1.3151 H   0  0  0  0  0  0  0  0  0  0  0  0
   -1.4509   -1.2585    1.8439 H   0  0  0  0  0  0  0  0  0  0  0  0
  1  2  1  0
  2  3  1  0
  3  4  1  0
  4  5  1  0
  5  6  1  0
  6  7  1  0
  6  8  1  0
  8  9  1  0
  9 10  2  0
  9 11  1  0
 11 12  1  0
 12 13  1  0
 13 14  1  0
 13  2  1  0
 11  4  1  0
  1 15  1  0
  1 16  1  0
  1 17  1  0
  2 18  1  1
  3 19  1  0
  4 20  1  1
  5 21  1  0
  6 22  1  6
  7 23  1  0
  7 24  1  0
  8 25  1  0
 11 26  1  6
 12 27  1  0
 12 28  1  0
 13 29  1  6
 14 30  1  0
 14 31  1  0
 14 32  1  0
M  END
$$$$

     RDKit          3D

 32 33  0  0  0  0  0  0  0  0999 V2000
   -2.1206    2.0986   -0.6702 C   0  0  0  0  0  0  0  0  0  0  0  0
   -1.4994    1.0838    0.3011 C   0  0  2  0  0  0  0  0  0  0  0  0
   -0.1241    1.3144    0.3478 N   0  0  0  0  0  0  0  0  0  0  0  0
    0.7839    0.2765    0.1862 C   0  0  2  0  0  0  0  0  0  0  0  0
    1.9400    0.7129   -0.5936 N   0  0  0  0  0  0  0  0  0  0  0  0
    3.0497   -0.1632   -0.3665 C   0  0  1  0  0  0  0  0  0  0  0  0
    3.6621    0.2294    0.9017 N   0  0  0  0  0  0  0  0  0  0  0  0
    2.6955   -1.5616   -0.3480 N   0  0  0  0  0  0  0  0  0  0  0  0
    1.3427   -2.0146   -0.2951 C   0  0  0  0  0  0  0  0  0  0  0  0
    1.0542   -3.2266   -0.1297 O   0  0  0  0  0  0  0  0  0  0  0  0
    0.2871   -0.9842   -0.4448 C   0  0  1  0  0  0  0  0  0  0  0  0
   -0.9891   -1.3765    0.3011 C   0  0  0  0  0  0  0  0  0  0  0  0
   -1.9717   -0.2745   -0.0496 C   0  0  1  0  0  0  0  0  0  0  0  0
   -3.3508   -0.5939    0.5132 C   0  0  0  0  0  0  0  0  0  0  0  0
   -1.4427    2.0641   -1.5723 H   0  0  0  0  0  0  0  0  0  0  0  0
   -3.1537    1.8626   -0.9126 H   0  0  0  0  0  0  0  0  0  0  0  0
   -1.9618    3.1039   -0.2286 H   0  0  0  0  0  0  0  0  0  0  0  0
   -1.9500    1.3526    1.3016 H   0  0  0  0  0  0  0  0  0  0  0  0
    0.2111    2.2427    0.0346 H   0  0  0  0  0  0  0  0  0  0  0  0
    1.2092   -0.0103    1.1919 H   0  0  0  0  0  0  0  0  0  0  0  0
    2.2171    1.6807   -0.3929 H   0  0  0  0  0  0  0  0  0  0  0  0
    3.8212   -0.0335   -1.1483 H   0  0  0  0  0  0  0  0  0  0  0  0
    3.4997    1.2536    1.0549 H   0  0  0  0  0  0  0  0  0  0  0  0
    4.6846    0.0395    0.8453 H   0  0  0  0  0  0  0  0  0  0  0  0
    3.4625   -2.2568   -0.3747 H   0  0  0  0  0  0  0  0  0  0  0  0
    0.0330   -0.7783   -1.4989 H   0  0  0  0  0  0  0  0  0  0  0  0
   -0.7995   -1.3618    1.3999 H   0  0  0  0  0  0  0  0  0  0  0  0
   -1.3868   -2.3356   -0.0248 H   0  0  0  0  0  0  0  0  0  0  0  0
   -2.0969   -0.3371   -1.1706 H   0  0  0  0  0  0  0  0  0  0  0  0
   -3.4403   -0.2680    1.5488 H   0  0  0  0  0  0  0  0  0  0  0  0
   -3.5460   -1.6761    0.3554 H   0  0  0  0  0  0  0  0  0  0  0  0
   -4.1203   -0.0627   -0.1011 H   0  0  0  0  0  0  0  0  0  0  0  0
  1  2  1  0
  2  3  1  0
  3  4  1  0
  4  5  1  0
  5  6  1  0
  6  7  1  0
  6  8  1  0
  8  9  1  0
  9 10  2  0
  9 11  1  0
 11 12  1  0
 12 13  1  0
 13 14  1  0
 13  2  1  0
 11  4  1  0
  1 15  1  0
  1 16  1  0
  1 17  1  0
  2 18  1  1
  3 19  1  0
  4 20  1  1
  5 21  1  0
  6 22  1  6
  7 23  1  0
  7 24  1  0
  8 25  1  0
 11 26  1  6
 12 27  1  0
 12 28  1  0
 13 29  1  6
 14 30  1  0
 14 31  1  0
 14 32  1  0
M  END
$$$$

     RDKit          3D

 32 33  0  0  0  0  0  0  0  0999 V2000
   -2.6636    1.7636   -0.3707 C   0  0  0  0  0  0  0  0  0  0  0  0
   -1.5442    0.8237   -0.0961 C   0  0  2  0  0  0  0  0  0  0  0  0
   -0.3647    1.1495   -0.9145 N   0  0  0  0  0  0  0  0  0  0  0  0
    0.7192    0.4283   -0.3076 C   0  0  2  0  0  0  0  0  0  0  0  0
    1.9920    0.8808   -0.7888 N   0  0  0  0  0  0  0  0  0  0  0  0
    3.0877    0.2756   -0.1064 C   0  0  1  0  0  0  0  0  0  0  0  0
    3.6015    1.2411    0.8527 N   0  0  0  0  0  0  0  0  0  0  0  0
    2.7381   -0.9431    0.5969 N   0  0  0  0  0  0  0  0  0  0  0  0
    1.5955   -1.7292    0.2688 C   0  0  0  0  0  0  0  0  0  0  0  0
    1.4798   -2.9072    0.6589 O   0  0  0  0  0  0  0  0  0  0  0  0
    0.5538   -1.0413   -0.5714 C   0  0  1  0  0  0  0  0  0  0  0  0
   -0.8096   -1.5656   -0.3529 C   0  0  0  0  0  0  0  0  0  0  0  0
   -1.9151   -0.5838   -0.4062 C   0  0  1  0  0  0  0  0  0  0  0  0
   -3.0386   -0.9824    0.5557 C   0  0  0  0  0  0  0  0  0  0  0  0
   -3.4264    1.3083   -1.0092 H   0  0  0  0  0  0  0  0  0  0  0  0
   -2.2803    2.6827   -0.8765 H   0  0  0  0  0  0  0  0  0  0  0  0
   -3.1097    2.0677    0.5976 H   0  0  0  0  0  0  0  0  0  0  0  0
   -1.1948    0.8511    0.9707 H   0  0  0  0  0  0  0  0  0  0  0  0
   -0.2266    2.1592   -1.0031 H   0  0  0  0  0  0  0  0  0  0  0  0
    0.6770    0.6251    0.7839 H   0  0  0  0  0  0  0  0  0  0  0  0
    2.0820    0.9573   -1.8028 H   0  0  0  0  0  0  0  0  0  0  0  0
    3.9124    0.0168   -0.8269 H   0  0  0  0  0  0  0  0  0  0  0  0
    3.5598    2.1845    0.3647 H   0  0  0  0  0  0  0  0  0  0  0  0
    4.5684    1.0512    1.1338 H   0  0  0  0  0  0  0  0  0  0  0  0
    3.3449   -1.2599    1.3743 H   0  0  0  0  0  0  0  0  0  0  0  0
    0.8621   -1.2131   -1.6340 H   0  0  0  0  0  0  0  0  0  0  0  0
   -1.0173   -2.3548   -1.1341 H   0  0  0  0  0  0  0  0  0  0  0  0
   -0.9006   -2.1301    0.6197 H   0  0  0  0  0  0  0  0  0  0  0  0
   -2.4063   -0.5812   -1.4226 H   0  0  0  0  0  0  0  0  0  0  0  0
   -2.7235   -0.7202    1.5764 H   0  0  0  0  0  0  0  0  0  0  0  0
   -3.9316   -0.3930    0.2927 H   0  0  0  0  0  0  0  0  0  0  0  0
   -3.2214   -2.0619    0.5108 H   0  0  0  0  0  0  0  0  0  0  0  0
  1  2  1  0
  2  3  1  0
  3  4  1  0
  4  5  1  0
  5  6  1  0
  6  7  1  0
  6  8  1  0
  8  9  1  0
  9 10  2  0
  9 11  1  0
 11 12  1  0
 12 13  1  0
 13 14  1  0
 13  2  1  0
 11  4  1  0
  1 15  1  0
  1 16  1  0
  1 17  1  0
  2 18  1  1
  3 19  1  0
  4 20  1  1
  5 21  1  0
  6 22  1  6
  7 23  1  0
  7 24  1  0
  8 25  1  0
 11 26  1  6
 12 27  1  0
 12 28  1  0
 13 29  1  6
 14 30  1  0
 14 31  1  0
 14 32  1  0
M  END
$$$$

     RDKit          3D

 32 33  0  0  0  0  0  0  0  0999 V2000
    2.8589    1.5896   -0.3900 C   0  0  0  0  0  0  0  0  0  0  0  0
    1.6729    0.6677   -0.5765 C   0  0  2  0  0  0  0  0  0  0  0  0
    0.5149    1.3475   -0.0274 N   0  0  0  0  0  0  0  0  0  0  0  0
   -0.6955    0.5672   -0.2065 C   0  0  2  0  0  0  0  0  0  0  0  0
   -1.7701    1.2456    0.4246 N   0  0  0  0  0  0  0  0  0  0  0  0
   -3.0067    0.5371    0.4764 C   0  0  1  0  0  0  0  0  0  0  0  0
   -4.0319    1.3824   -0.1401 N   0  0  0  0  0  0  0  0  0  0  0  0
   -2.9789   -0.7825   -0.0553 N   0  0  0  0  0  0  0  0  0  0  0  0
   -1.7969   -1.5564    0.0284 C   0  0  0  0  0  0  0  0  0  0  0  0
   -1.7957   -2.7968   -0.1893 O   0  0  0  0  0  0  0  0  0  0  0  0
   -0.5417   -0.8147    0.3920 C   0  0  1  0  0  0  0  0  0  0  0  0
    0.6809   -1.5178   -0.1312 C   0  0  0  0  0  0  0  0  0  0  0  0
    1.8716   -0.6292    0.1546 C   0  0  1  0  0  0  0  0  0  0  0  0
    3.1528   -1.3147   -0.1992 C   0  0  0  0  0  0  0  0  0  0  0  0
    3.2025    1.4444    0.6612 H   0  0  0  0  0  0  0  0  0  0  0  0
    2.5409    2.6487   -0.4640 H   0  0  0  0  0  0  0  0  0  0  0  0
    3.6610    1.4217   -1.1135 H   0  0  0  0  0  0  0  0  0  0  0  0
    1.5270    0.5365   -1.6510 H   0  0  0  0  0  0  0  0  0  0  0  0
    0.6556    1.4454    1.0027 H   0  0  0  0  0  0  0  0  0  0  0  0
   -0.8305    0.4269   -1.3043 H   0  0  0  0  0  0  0  0  0  0  0  0
   -1.8399    2.2527    0.2271 H   0  0  0  0  0  0  0  0  0  0  0  0
   -3.3090    0.4506    1.5613 H   0  0  0  0  0  0  0  0  0  0  0  0
   -4.9615    1.2589    0.3191 H   0  0  0  0  0  0  0  0  0  0  0  0
   -4.0600    1.2676   -1.1757 H   0  0  0  0  0  0  0  0  0  0  0  0
   -3.8328   -1.1643   -0.5015 H   0  0  0  0  0  0  0  0  0  0  0  0
   -0.5055   -0.7580    1.4808 H   0  0  0  0  0  0  0  0  0  0  0  0
    0.8020   -2.4643    0.4103 H   0  0  0  0  0  0  0  0  0  0  0  0
    0.6006   -1.7332   -1.2174 H   0  0  0  0  0  0  0  0  0  0  0  0
    1.8402   -0.4092    1.2479 H   0  0  0  0  0  0  0  0  0  0  0  0
    3.2146   -1.4944   -1.2765 H   0  0  0  0  0  0  0  0  0  0  0  0
    3.1442   -2.3139    0.3000 H   0  0  0  0  0  0  0  0  0  0  0  0
    4.0159   -0.7413    0.1768 H   0  0  0  0  0  0  0  0  0  0  0  0
  1  2  1  0
  2  3  1  0
  3  4  1  0
  4  5  1  0
  5  6  1  0
  6  7  1  0
  6  8  1  0
  8  9  1  0
  9 10  2  0
  9 11  1  0
 11 12  1  0
 12 13  1  0
 13 14  1  0
 13  2  1  0
 11  4  1  0
  1 15  1  0
  1 16  1  0
  1 17  1  0
  2 18  1  6
  3 19  1  0
  4 20  1  6
  5 21  1  0
  6 22  1  1
  7 23  1  0
  7 24  1  0
  8 25  1  0
 11 26  1  1
 12 27  1  0
 12 28  1  0
 13 29  1  1
 14 30  1  0
 14 31  1  0
 14 32  1  0
M  END
$$$$

     RDKit          3D

 32 33  0  0  0  0  0  0  0  0999 V2000
   -2.8260   -1.5492    0.0429 C   0  0  0  0  0  0  0  0  0  0  0  0
   -1.6478   -0.6542   -0.2009 C   0  0  2  0  0  0  0  0  0  0  0  0
   -0.4458   -1.2929    0.2180 N   0  0  0  0  0  0  0  0  0  0  0  0
    0.7464   -0.5489   -0.0472 C   0  0  2  0  0  0  0  0  0  0  0  0
    1.8728   -1.0942    0.6848 N   0  0  0  0  0  0  0  0  0  0  0  0
    3.1307   -0.5354    0.2715 C   0  0  1  0  0  0  0  0  0  0  0  0
    3.7927   -1.4965   -0.5856 N   0  0  0  0  0  0  0  0  0  0  0  0
    2.9889    0.7490   -0.4025 N   0  0  0  0  0  0  0  0  0  0  0  0
    1.8691    1.5534   -0.1364 C   0  0  0  0  0  0  0  0  0  0  0  0
    1.9090    2.7767   -0.3134 O   0  0  0  0  0  0  0  0  0  0  0  0
    0.6450    0.9095    0.3585 C   0  0  1  0  0  0  0  0  0  0  0  0
   -0.6266    1.5475   -0.1075 C   0  0  0  0  0  0  0  0  0  0  0  0
   -1.7672    0.6838    0.4482 C   0  0  1  0  0  0  0  0  0  0  0  0
   -3.0988    1.3414    0.2630 C   0  0  0  0  0  0  0  0  0  0  0  0
   -2.5222   -2.6078    0.1643 H   0  0  0  0  0  0  0  0  0  0  0  0
   -3.3400   -1.2376    0.9817 H   0  0  0  0  0  0  0  0  0  0  0  0
   -3.5436   -1.5007   -0.8126 H   0  0  0  0  0  0  0  0  0  0  0  0
   -1.5932   -0.4835   -1.3079 H   0  0  0  0  0  0  0  0  0  0  0  0
   -0.4778   -1.7892    1.1095 H   0  0  0  0  0  0  0  0  0  0  0  0
    1.0085   -0.5976   -1.1299 H   0  0  0  0  0  0  0  0  0  0  0  0
    1.7212   -0.8091    1.6954 H   0  0  0  0  0  0  0  0  0  0  0  0
    3.8147   -0.3458    1.1457 H   0  0  0  0  0  0  0  0  0  0  0  0
    4.2188   -2.2230    0.0425 H   0  0  0  0  0  0  0  0  0  0  0  0
    3.0461   -1.9901   -1.1321 H   0  0  0  0  0  0  0  0  0  0  0  0
    3.7458    1.0442   -1.0847 H   0  0  0  0  0  0  0  0  0  0  0  0
    0.6431    0.9788    1.4854 H   0  0  0  0  0  0  0  0  0  0  0  0
   -0.6761    1.6162   -1.2020 H   0  0  0  0  0  0  0  0  0  0  0  0
   -0.7190    2.5291    0.3957 H   0  0  0  0  0  0  0  0  0  0  0  0
   -1.5194    0.5495    1.5342 H   0  0  0  0  0  0  0  0  0  0  0  0
   -3.7124    1.0998    1.1678 H   0  0  0  0  0  0  0  0  0  0  0  0
   -2.9954    2.4571    0.2101 H   0  0  0  0  0  0  0  0  0  0  0  0
   -3.6413    0.9196   -0.5956 H   0  0  0  0  0  0  0  0  0  0  0  0
  1  2  1  0
  2  3  1  0
  3  4  1  0
  4  5  1  0
  5  6  1  0
  6  7  1  0
  6  8  1  0
  8  9  1  0
  9 10  2  0
  9 11  1  0
 11 12  1  0
 12 13  1  0
 13 14  1  0
 13  2  1  0
 11  4  1  0
  1 15  1  0
  1 16  1  0
  1 17  1  0
  2 18  1  6
  3 19  1  0
  4 20  1  6
  5 21  1  0
  6 22  1  1
  7 23  1  0
  7 24  1  0
  8 25  1  0
 11 26  1  1
 12 27  1  0
 12 28  1  0
 13 29  1  1
 14 30  1  0
 14 31  1  0
 14 32  1  0
M  END
$$$$

     RDKit          3D

 32 33  0  0  0  0  0  0  0  0999 V2000
   -2.6286    1.8571   -0.1342 C   0  0  0  0  0  0  0  0  0  0  0  0
   -1.5600    0.9038    0.3083 C   0  0  2  0  0  0  0  0  0  0  0  0
   -0.2799    1.3867   -0.0705 N   0  0  0  0  0  0  0  0  0  0  0  0
    0.8089    0.4981    0.1457 C   0  0  2  0  0  0  0  0  0  0  0  0
    1.9767    0.9468   -0.5376 N   0  0  0  0  0  0  0  0  0  0  0  0
    3.1680    0.2112   -0.2529 C   0  0  1  0  0  0  0  0  0  0  0  0
    3.9866    0.8628    0.7480 N   0  0  0  0  0  0  0  0  0  0  0  0
    2.9236   -1.1432    0.1871 N   0  0  0  0  0  0  0  0  0  0  0  0
    1.6507   -1.7583    0.1447 C   0  0  0  0  0  0  0  0  0  0  0  0
    1.4679   -2.9525    0.4625 O   0  0  0  0  0  0  0  0  0  0  0  0
    0.5110   -0.9263   -0.2983 C   0  0  1  0  0  0  0  0  0  0  0  0
   -0.8097   -1.4090    0.2258 C   0  0  0  0  0  0  0  0  0  0  0  0
   -1.8713   -0.4510   -0.3155 C   0  0  1  0  0  0  0  0  0  0  0  0
   -3.2316   -0.9262    0.0715 C   0  0  0  0  0  0  0  0  0  0  0  0
   -3.2930    1.4291   -0.9311 H   0  0  0  0  0  0  0  0  0  0  0  0
   -2.2073    2.7942   -0.5512 H   0  0  0  0  0  0  0  0  0  0  0  0
   -3.2374    2.1361    0.7474 H   0  0  0  0  0  0  0  0  0  0  0  0
   -1.5763    0.7620    1.4238 H   0  0  0  0  0  0  0  0  0  0  0  0
   -0.2352    1.9750   -0.9044 H   0  0  0  0  0  0  0  0  0  0  0  0
    1.0564    0.4281    1.2405 H   0  0  0  0  0  0  0  0  0  0  0  0
    1.8202    1.1057   -1.5463 H   0  0  0  0  0  0  0  0  0  0  0  0
    3.8055    0.1330   -1.1802 H   0  0  0  0  0  0  0  0  0  0  0  0
    3.6459    1.8211    0.9849 H   0  0  0  0  0  0  0  0  0  0  0  0
    4.1917    0.2696    1.5696 H   0  0  0  0  0  0  0  0  0  0  0  0
    3.7416   -1.6784    0.5518 H   0  0  0  0  0  0  0  0  0  0  0  0
    0.4731   -0.9327   -1.4076 H   0  0  0  0  0  0  0  0  0  0  0  0
   -0.8029   -1.3180    1.3150 H   0  0  0  0  0  0  0  0  0  0  0  0
   -0.9686   -2.4282   -0.1289 H   0  0  0  0  0  0  0  0  0  0  0  0
   -1.7209   -0.3918   -1.4218 H   0  0  0  0  0  0  0  0  0  0  0  0
   -3.7600   -1.2520   -0.8610 H   0  0  0  0  0  0  0  0  0  0  0  0
   -3.1970   -1.8303    0.7215 H   0  0  0  0  0  0  0  0  0  0  0  0
   -3.8482   -0.1227    0.5386 H   0  0  0  0  0  0  0  0  0  0  0  0
  1  2  1  0
  2  3  1  0
  3  4  1  0
  4  5  1  0
  5  6  1  0
  6  7  1  0
  6  8  1  0
  8  9  1  0
  9 10  2  0
  9 11  1  0
 11 12  1  0
 12 13  1  0
 13 14  1  0
 13  2  1  0
 11  4  1  0
  1 15  1  0
  1 16  1  0
  1 17  1  0
  2 18  1  1
  3 19  1  0
  4 20  1  1
  5 21  1  0
  6 22  1  6
  7 23  1  0
  7 24  1  0
  8 25  1  0
 11 26  1  6
 12 27  1  0
 12 28  1  0
 13 29  1  6
 14 30  1  0
 14 31  1  0
 14 32  1  0
M  END
$$$$

     RDKit          3D

 32 33  0  0  0  0  0  0  0  0999 V2000
    2.3330   -2.1187   -0.2265 C   0  0  0  0  0  0  0  0  0  0  0  0
    1.7618   -0.8572    0.4383 C   0  0  2  0  0  0  0  0  0  0  0  0
    0.4074   -1.1338    0.7550 N   0  0  0  0  0  0  0  0  0  0  0  0
   -0.4906   -0.0177    0.6069 C   0  0  2  0  0  0  0  0  0  0  0  0
   -1.7767   -0.3451    1.1043 N   0  0  0  0  0  0  0  0  0  0  0  0
   -2.8400   -0.3205    0.1532 C   0  0  1  0  0  0  0  0  0  0  0  0
   -4.0961   -0.4770    0.8641 N   0  0  0  0  0  0  0  0  0  0  0  0
   -2.8139    0.9583   -0.5668 N   0  0  0  0  0  0  0  0  0  0  0  0
   -1.5377    1.3379   -1.0863 C   0  0  0  0  0  0  0  0  0  0  0  0
   -1.3790    2.4229   -1.7028 O   0  0  0  0  0  0  0  0  0  0  0  0
   -0.4425    0.3641   -0.8409 C   0  0  1  0  0  0  0  0  0  0  0  0
    0.9104    0.9229   -1.1402 C   0  0  0  0  0  0  0  0  0  0  0  0
    2.0283    0.3366   -0.3863 C   0  0  1  0  0  0  0  0  0  0  0  0
    2.6720    1.4181    0.4952 C   0  0  0  0  0  0  0  0  0  0  0  0
    3.3924   -2.2270    0.0381 H   0  0  0  0  0  0  0  0  0  0  0  0
    2.1549   -2.0130   -1.3134 H   0  0  0  0  0  0  0  0  0  0  0  0
    1.8078   -3.0219    0.1938 H   0  0  0  0  0  0  0  0  0  0  0  0
    2.3195   -0.7903    1.4195 H   0  0  0  0  0  0  0  0  0  0  0  0
    0.2908   -1.5664    1.6927 H   0  0  0  0  0  0  0  0  0  0  0  0
   -0.0917    0.8680    1.1829 H   0  0  0  0  0  0  0  0  0  0  0  0
   -1.7619   -1.3078    1.5501 H   0  0  0  0  0  0  0  0  0  0  0  0
   -2.7581   -1.1594   -0.5869 H   0  0  0  0  0  0  0  0  0  0  0  0
   -4.2044    0.2737    1.5742 H   0  0  0  0  0  0  0  0  0  0  0  0
   -4.9100   -0.5087    0.2142 H   0  0  0  0  0  0  0  0  0  0  0  0
   -3.6355    1.5520   -0.7003 H   0  0  0  0  0  0  0  0  0  0  0  0
   -0.6159   -0.5473   -1.4811 H   0  0  0  0  0  0  0  0  0  0  0  0
    0.8462    2.0381   -0.9673 H   0  0  0  0  0  0  0  0  0  0  0  0
    1.0547    0.8398   -2.2581 H   0  0  0  0  0  0  0  0  0  0  0  0
    2.8464    0.0717   -1.1213 H   0  0  0  0  0  0  0  0  0  0  0  0
    2.2626    1.3635    1.5230 H   0  0  0  0  0  0  0  0  0  0  0  0
    2.4802    2.3975    0.0100 H   0  0  0  0  0  0  0  0  0  0  0  0
    3.7853    1.2469    0.5624 H   0  0  0  0  0  0  0  0  0  0  0  0
  1  2  1  0
  2  3  1  0
  3  4  1  0
  4  5  1  0
  5  6  1  0
  6  7  1  0
  6  8  1  0
  8  9  1  0
  9 10  2  0
  9 11  1  0
 11 12  1  0
 12 13  1  0
 13 14  1  0
 13  2  1  0
 11  4  1  0
  1 15  1  0
  1 16  1  0
  1 17  1  0
  2 18  1  1
  3 19  1  0
  4 20  1  1
  5 21  1  0
  6 22  1  6
  7 23  1  0
  7 24  1  0
  8 25  1  0
 11 26  1  6
 12 27  1  0
 12 28  1  0
 13 29  1  6
 14 30  1  0
 14 31  1  0
 14 32  1  0
M  END
$$$$
