
     RDKit          3D

 24 24  0  0  0  0  0  0  0  0999 V2000
    2.5561   -1.0691    0.1507 C   0  0  0  0  0  0  0  0  0  0  0  0
    1.7712    0.0262   -0.5831 C   0  0  2  0  0  0  0  0  0  0  0  0
    1.3471    1.1030    0.3317 C   0  0  0  0  0  0  0  0  0  0  0  0
   -0.3365    1.5711    0.2288 S   0  0  0  0  0  6  0  0  0  0  0  0
   -0.9118    1.6859    1.6334 O   0  0  0  0  0  0  0  0  0  0  0  0
   -0.5075    2.9221   -0.4001 O   0  0  0  0  0  0  0  0  0  0  0  0
   -1.2664    0.3917   -0.6714 C   0  0  2  0  0  0  0  0  0  0  0  0
   -2.6543    0.1738   -0.1442 C   0  0  0  0  0  0  0  0  0  0  0  0
   -3.2632   -0.7852   -0.9602 O   0  0  0  0  0  0  0  0  0  0  0  0
   -0.4500   -0.9080   -0.6397 C   0  0  0  0  0  0  0  0  0  0  0  0
    0.7533   -0.6025   -1.3424 N   0  0  0  0  0  0  0  0  0  0  0  0
    3.4495   -0.6435    0.6407 H   0  0  0  0  0  0  0  0  0  0  0  0
    2.8110   -1.8179   -0.6306 H   0  0  0  0  0  0  0  0  0  0  0  0
    1.8853   -1.5606    0.8651 H   0  0  0  0  0  0  0  0  0  0  0  0
    2.5191    0.4585   -1.3115 H   0  0  0  0  0  0  0  0  0  0  0  0
    1.9644    2.0398    0.1971 H   0  0  0  0  0  0  0  0  0  0  0  0
    1.5930    0.7788    1.3853 H   0  0  0  0  0  0  0  0  0  0  0  0
   -1.2811    0.6977   -1.7379 H   0  0  0  0  0  0  0  0  0  0  0  0
   -2.5772   -0.2392    0.8727 H   0  0  0  0  0  0  0  0  0  0  0  0
   -3.1975    1.1152   -0.2035 H   0  0  0  0  0  0  0  0  0  0  0  0
   -4.1141   -1.1097   -0.6155 H   0  0  0  0  0  0  0  0  0  0  0  0
   -0.2333   -1.0845    0.4502 H   0  0  0  0  0  0  0  0  0  0  0  0
   -1.0153   -1.7520   -1.0307 H   0  0  0  0  0  0  0  0  0  0  0  0
    1.1581   -1.3915   -1.8730 H   0  0  0  0  0  0  0  0  0  0  0  0
  1  2  1  0
  2  3  1  0
  3  4  1  0
  4  5  2  0
  4  6  2  0
  4  7  1  0
  7  8  1  0
  8  9  1  0
  7 10  1  0
 10 11  1  0
 11  2  1  0
  1 12  1  0
  1 13  1  0
  1 14  1  0
  2 15  1  6
  3 16  1  0
  3 17  1  0
  7 18  1  6
  8 19  1  0
  8 20  1  0
  9 21  1  0
 10 22  1  0
 10 23  1  0
 11 24  1  0
M  END
$$$$

     RDKit          3D

 24 24  0  0  0  0  0  0  0  0999 V2000
   -3.0423   -0.2807   -0.1205 C   0  0  0  0  0  0  0  0  0  0  0  0
   -1.5962   -0.1586    0.2929 C   0  0  2  0  0  0  0  0  0  0  0  0
   -1.1851    1.2768    0.5017 C   0  0  0  0  0  0  0  0  0  0  0  0
    0.5365    1.3969    0.0073 S   0  0  0  0  0  6  0  0  0  0  0  0
    0.6322    1.4876   -1.5028 O   0  0  0  0  0  0  0  0  0  0  0  0
    1.1639    2.5916    0.6417 O   0  0  0  0  0  0  0  0  0  0  0  0
    1.2688   -0.1193    0.5900 C   0  0  2  0  0  0  0  0  0  0  0  0
    2.7025   -0.2499    0.1384 C   0  0  0  0  0  0  0  0  0  0  0  0
    3.4329    0.8247    0.6433 O   0  0  0  0  0  0  0  0  0  0  0  0
    0.4581   -1.2799    0.0518 C   0  0  0  0  0  0  0  0  0  0  0  0
   -0.7202   -0.8098   -0.6745 N   0  0  0  0  0  0  0  0  0  0  0  0
   -3.5171    0.7086   -0.1335 H   0  0  0  0  0  0  0  0  0  0  0  0
   -3.0771   -0.7215   -1.1278 H   0  0  0  0  0  0  0  0  0  0  0  0
   -3.5998   -0.9551    0.5609 H   0  0  0  0  0  0  0  0  0  0  0  0
   -1.4631   -0.7263    1.2501 H   0  0  0  0  0  0  0  0  0  0  0  0
   -1.2062    1.5201    1.5766 H   0  0  0  0  0  0  0  0  0  0  0  0
   -1.8096    1.9980   -0.0517 H   0  0  0  0  0  0  0  0  0  0  0  0
    1.2021   -0.0952    1.6952 H   0  0  0  0  0  0  0  0  0  0  0  0
    3.0986   -1.1786    0.5983 H   0  0  0  0  0  0  0  0  0  0  0  0
    2.7627   -0.3395   -0.9457 H   0  0  0  0  0  0  0  0  0  0  0  0
    4.0273    0.5423    1.3901 H   0  0  0  0  0  0  0  0  0  0  0  0
    0.0476   -1.8978    0.8979 H   0  0  0  0  0  0  0  0  0  0  0  0
    1.0484   -1.9177   -0.6295 H   0  0  0  0  0  0  0  0  0  0  0  0
   -1.1644   -1.6166   -1.1302 H   0  0  0  0  0  0  0  0  0  0  0  0
  1  2  1  0
  2  3  1  0
  3  4  1  0
  4  5  2  0
  4  6  2  0
  4  7  1  0
  7  8  1  0
  8  9  1  0
  7 10  1  0
 10 11  1  0
 11  2  1  0
  1 12  1  0
  1 13  1  0
  1 14  1  0
  2 15  1  1
  3 16  1  0
  3 17  1  0
  7 18  1  1
  8 19  1  0
  8 20  1  0
  9 21  1  0
 10 22  1  0
 10 23  1  0
 11 24  1  0
M  END
$$$$

     RDKit          3D

 24 24  0  0  0  0  0  0  0  0999 V2000
   -2.7387    0.3687    0.4597 C   0  0  0  0  0  0  0  0  0  0  0  0
   -1.6973   -0.1300   -0.5504 C   0  0  2  0  0  0  0  0  0  0  0  0
   -1.0694   -1.3677   -0.0478 C   0  0  0  0  0  0  0  0  0  0  0  0
    0.6872   -1.3598   -0.0184 S   0  0  0  0  0  6  0  0  0  0  0  0
    1.2002   -1.8290    1.3366 O   0  0  0  0  0  0  0  0  0  0  0  0
    1.2543   -2.3118   -1.0279 O   0  0  0  0  0  0  0  0  0  0  0  0
    1.3415    0.2612   -0.2744 C   0  0  2  0  0  0  0  0  0  0  0  0
    2.5669    0.5335    0.5531 C   0  0  0  0  0  0  0  0  0  0  0  0
    3.5468   -0.3775    0.2217 O   0  0  0  0  0  0  0  0  0  0  0  0
    0.2093    1.2161    0.0506 C   0  0  0  0  0  0  0  0  0  0  0  0
   -0.8273    0.9343   -0.8913 N   0  0  0  0  0  0  0  0  0  0  0  0
   -3.1798    1.3114    0.1087 H   0  0  0  0  0  0  0  0  0  0  0  0
   -3.5101   -0.4368    0.4985 H   0  0  0  0  0  0  0  0  0  0  0  0
   -2.2867    0.4497    1.4537 H   0  0  0  0  0  0  0  0  0  0  0  0
   -2.3047   -0.3688   -1.4740 H   0  0  0  0  0  0  0  0  0  0  0  0
   -1.4425   -1.6047    0.9905 H   0  0  0  0  0  0  0  0  0  0  0  0
   -1.3943   -2.2610   -0.6545 H   0  0  0  0  0  0  0  0  0  0  0  0
    1.5634    0.3601   -1.3711 H   0  0  0  0  0  0  0  0  0  0  0  0
    2.3133    0.4466    1.6098 H   0  0  0  0  0  0  0  0  0  0  0  0
    2.9429    1.5399    0.2778 H   0  0  0  0  0  0  0  0  0  0  0  0
    3.7857   -0.3384   -0.7365 H   0  0  0  0  0  0  0  0  0  0  0  0
    0.5423    2.2613    0.0038 H   0  0  0  0  0  0  0  0  0  0  0  0
   -0.1180    0.9451    1.0967 H   0  0  0  0  0  0  0  0  0  0  0  0
   -1.3850    1.7578   -1.1707 H   0  0  0  0  0  0  0  0  0  0  0  0
  1  2  1  0
  2  3  1  0
  3  4  1  0
  4  5  2  0
  4  6  2  0
  4  7  1  0
  7  8  1  0
  8  9  1  0
  7 10  1  0
 10 11  1  0
 11  2  1  0
  1 12  1  0
  1 13  1  0
  1 14  1  0
  2 15  1  6
  3 16  1  0
  3 17  1  0
  7 18  1  6
  8 19  1  0
  8 20  1  0
  9 21  1  0
 10 22  1  0
 10 23  1  0
 11 24  1  0
M  END
$$$$

     RDKit          3D

 24 24  0  0  0  0  0  0  0  0999 V2000
   -3.0638    0.3695    0.3538 C   0  0  0  0  0  0  0  0  0  0  0  0
   -1.6124    0.0656    0.1709 C   0  0  2  0  0  0  0  0  0  0  0  0
   -0.9665   -0.3457    1.4973 C   0  0  0  0  0  0  0  0  0  0  0  0
    0.6102   -1.0550    0.9994 S   0  0  0  0  0  6  0  0  0  0  0  0
    1.6118   -0.7872    2.0571 O   0  0  0  0  0  0  0  0  0  0  0  0
    0.3794   -2.5546    0.9692 O   0  0  0  0  0  0  0  0  0  0  0  0
    1.0528   -0.4588   -0.5871 C   0  0  2  0  0  0  0  0  0  0  0  0
    2.5672   -0.2410   -0.6632 C   0  0  0  0  0  0  0  0  0  0  0  0
    2.9894    0.6760    0.2749 O   0  0  0  0  0  0  0  0  0  0  0  0
    0.3574    0.7680   -1.0278 C   0  0  0  0  0  0  0  0  0  0  0  0
   -0.8346    1.1174   -0.3681 N   0  0  0  0  0  0  0  0  0  0  0  0
   -3.5127    0.4730   -0.6644 H   0  0  0  0  0  0  0  0  0  0  0  0
   -3.2243    1.2739    0.9661 H   0  0  0  0  0  0  0  0  0  0  0  0
   -3.5204   -0.5204    0.8712 H   0  0  0  0  0  0  0  0  0  0  0  0
   -1.5117   -0.8243   -0.4907 H   0  0  0  0  0  0  0  0  0  0  0  0
   -0.7525    0.5821    2.0875 H   0  0  0  0  0  0  0  0  0  0  0  0
   -1.5786   -1.0670    2.0510 H   0  0  0  0  0  0  0  0  0  0  0  0
    0.8460   -1.2765   -1.3333 H   0  0  0  0  0  0  0  0  0  0  0  0
    2.8180    0.1822   -1.6717 H   0  0  0  0  0  0  0  0  0  0  0  0
    3.1217   -1.1707   -0.5426 H   0  0  0  0  0  0  0  0  0  0  0  0
    3.8836    0.4178    0.6108 H   0  0  0  0  0  0  0  0  0  0  0  0
    0.1443    0.7194   -2.1366 H   0  0  0  0  0  0  0  0  0  0  0  0
    1.0707    1.6412   -0.9400 H   0  0  0  0  0  0  0  0  0  0  0  0
   -0.8749    2.0153    0.1124 H   0  0  0  0  0  0  0  0  0  0  0  0
  1  2  1  0
  2  3  1  0
  3  4  1  0
  4  5  2  0
  4  6  2  0
  4  7  1  0
  7  8  1  0
  8  9  1  0
  7 10  1  0
 10 11  1  0
 11  2  1  0
  1 12  1  0
  1 13  1  0
  1 14  1  0
  2 15  1  6
  3 16  1  0
  3 17  1  0
  7 18  1  6
  8 19  1  0
  8 20  1  0
  9 21  1  0
 10 22  1  0
 10 23  1  0
 11 24  1  0
M  END
$$$$

     RDKit          3D

 24 24  0  0  0  0  0  0  0  0999 V2000
    2.8770    0.6674   -0.4434 C   0  0  0  0  0  0  0  0  0  0  0  0
    1.6213    0.1959    0.2865 C   0  0  2  0  0  0  0  0  0  0  0  0
    1.2255   -1.1201   -0.2767 C   0  0  0  0  0  0  0  0  0  0  0  0
   -0.3929   -1.5424    0.3464 S   0  0  0  0  0  6  0  0  0  0  0  0
   -1.0060   -2.5281   -0.5919 O   0  0  0  0  0  0  0  0  0  0  0  0
   -0.3231   -2.0298    1.7471 O   0  0  0  0  0  0  0  0  0  0  0  0
   -1.3489   -0.0364    0.2600 C   0  0  2  0  0  0  0  0  0  0  0  0
   -2.7071   -0.2776   -0.3386 C   0  0  0  0  0  0  0  0  0  0  0  0
   -3.4199    0.8970   -0.3927 O   0  0  0  0  0  0  0  0  0  0  0  0
   -0.5231    0.9398   -0.5418 C   0  0  0  0  0  0  0  0  0  0  0  0
    0.6549    1.2285    0.2132 N   0  0  0  0  0  0  0  0  0  0  0  0
    3.7257    0.6025    0.2456 H   0  0  0  0  0  0  0  0  0  0  0  0
    2.7659    1.7244   -0.7961 H   0  0  0  0  0  0  0  0  0  0  0  0
    3.0917    0.0352   -1.3327 H   0  0  0  0  0  0  0  0  0  0  0  0
    1.8614    0.0330    1.3778 H   0  0  0  0  0  0  0  0  0  0  0  0
    1.9187   -1.9015    0.0908 H   0  0  0  0  0  0  0  0  0  0  0  0
    1.2569   -1.1455   -1.3816 H   0  0  0  0  0  0  0  0  0  0  0  0
   -1.4284    0.3704    1.2831 H   0  0  0  0  0  0  0  0  0  0  0  0
   -2.5884   -0.6533   -1.3748 H   0  0  0  0  0  0  0  0  0  0  0  0
   -3.2559   -0.9880    0.2996 H   0  0  0  0  0  0  0  0  0  0  0  0
   -3.0264    1.5317    0.2552 H   0  0  0  0  0  0  0  0  0  0  0  0
   -1.0708    1.8936   -0.7202 H   0  0  0  0  0  0  0  0  0  0  0  0
   -0.2427    0.5378   -1.5369 H   0  0  0  0  0  0  0  0  0  0  0  0
    0.3345    1.5654    1.1687 H   0  0  0  0  0  0  0  0  0  0  0  0
  1  2  1  0
  2  3  1  0
  3  4  1  0
  4  5  2  0
  4  6  2  0
  4  7  1  0
  7  8  1  0
  8  9  1  0
  7 10  1  0
 10 11  1  0
 11  2  1  0
  1 12  1  0
  1 13  1  0
  1 14  1  0
  2 15  1  1
  3 16  1  0
  3 17  1  0
  7 18  1  1
  8 19  1  0
  8 20  1  0
  9 21  1  0
 10 22  1  0
 10 23  1  0
 11 24  1  0
M  END
$$$$

     RDKit          3D

 24 24  0  0  0  0  0  0  0  0999 V2000
   -2.9565    0.4237    0.5497 C   0  0  0  0  0  0  0  0  0  0  0  0
   -1.6156    0.0505   -0.0806 C   0  0  2  0  0  0  0  0  0  0  0  0
   -1.1007   -1.1449    0.6423 C   0  0  0  0  0  0  0  0  0  0  0  0
    0.5568   -1.5769    0.2122 S   0  0  0  0  0  6  0  0  0  0  0  0
    1.2741   -1.9317    1.5008 O   0  0  0  0  0  0  0  0  0  0  0  0
    0.6484   -2.6759   -0.7751 O   0  0  0  0  0  0  0  0  0  0  0  0
    1.3034   -0.0615   -0.4084 C   0  0  2  0  0  0  0  0  0  0  0  0
    2.7521   -0.0352   -0.0204 C   0  0  0  0  0  0  0  0  0  0  0  0
    3.3244    1.1401   -0.5036 O   0  0  0  0  0  0  0  0  0  0  0  0
    0.5544    1.0462    0.2908 C   0  0  0  0  0  0  0  0  0  0  0  0
   -0.7929    1.1892   -0.0854 N   0  0  0  0  0  0  0  0  0  0  0  0
   -3.0300   -0.0144    1.5722 H   0  0  0  0  0  0  0  0  0  0  0  0
   -3.0237    1.5315    0.7054 H   0  0  0  0  0  0  0  0  0  0  0  0
   -3.8074    0.1513   -0.0898 H   0  0  0  0  0  0  0  0  0  0  0  0
   -1.8538   -0.2775   -1.1340 H   0  0  0  0  0  0  0  0  0  0  0  0
   -1.7461   -2.0195    0.3326 H   0  0  0  0  0  0  0  0  0  0  0  0
   -1.2593   -1.0478    1.7320 H   0  0  0  0  0  0  0  0  0  0  0  0
    1.1778   -0.0746   -1.4908 H   0  0  0  0  0  0  0  0  0  0  0  0
    2.8656   -0.0452    1.0802 H   0  0  0  0  0  0  0  0  0  0  0  0
    3.2715   -0.9237   -0.4597 H   0  0  0  0  0  0  0  0  0  0  0  0
    2.7239    1.6646   -1.0664 H   0  0  0  0  0  0  0  0  0  0  0  0
    1.0930    1.9916    0.1205 H   0  0  0  0  0  0  0  0  0  0  0  0
    0.6160    0.8333    1.3834 H   0  0  0  0  0  0  0  0  0  0  0  0
   -0.9755    1.8069   -0.9030 H   0  0  0  0  0  0  0  0  0  0  0  0
  1  2  1  0
  2  3  1  0
  3  4  1  0
  4  5  2  0
  4  6  2  0
  4  7  1  0
  7  8  1  0
  8  9  1  0
  7 10  1  0
 10 11  1  0
 11  2  1  0
  1 12  1  0
  1 13  1  0
  1 14  1  0
  2 15  1  6
  3 16  1  0
  3 17  1  0
  7 18  1  6
  8 19  1  0
  8 20  1  0
  9 21  1  0
 10 22  1  0
 10 23  1  0
 11 24  1  0
M  END
$$$$

     RDKit          3D

 24 24  0  0  0  0  0  0  0  0999 V2000
    2.9748    0.5132   -0.2783 C   0  0  0  0  0  0  0  0  0  0  0  0
    1.5727   -0.0386   -0.1400 C   0  0  2  0  0  0  0  0  0  0  0  0
    0.7988    0.4027   -1.3827 C   0  0  0  0  0  0  0  0  0  0  0  0
   -0.6810   -0.6241   -1.3802 S   0  0  0  0  0  6  0  0  0  0  0  0
   -0.3977   -1.9135   -2.0499 O   0  0  0  0  0  0  0  0  0  0  0  0
   -1.7723    0.1622   -2.0215 O   0  0  0  0  0  0  0  0  0  0  0  0
   -1.0312   -0.8446    0.3724 C   0  0  2  0  0  0  0  0  0  0  0  0
   -2.5342   -0.8580    0.5277 C   0  0  0  0  0  0  0  0  0  0  0  0
   -2.9903    0.3858    0.0479 O   0  0  0  0  0  0  0  0  0  0  0  0
   -0.4802    0.3844    1.0505 C   0  0  0  0  0  0  0  0  0  0  0  0
    0.9437    0.3403    1.0744 N   0  0  0  0  0  0  0  0  0  0  0  0
    3.6129    0.0387    0.4855 H   0  0  0  0  0  0  0  0  0  0  0  0
    3.3200    0.3138   -1.3039 H   0  0  0  0  0  0  0  0  0  0  0  0
    2.9131    1.5975   -0.0875 H   0  0  0  0  0  0  0  0  0  0  0  0
    1.6637   -1.1427   -0.1668 H   0  0  0  0  0  0  0  0  0  0  0  0
    1.4041    0.2395   -2.2741 H   0  0  0  0  0  0  0  0  0  0  0  0
    0.4835    1.4476   -1.2362 H   0  0  0  0  0  0  0  0  0  0  0  0
   -0.5442   -1.7535    0.7544 H   0  0  0  0  0  0  0  0  0  0  0  0
   -2.7507   -0.9258    1.6114 H   0  0  0  0  0  0  0  0  0  0  0  0
   -2.9993   -1.6475   -0.0733 H   0  0  0  0  0  0  0  0  0  0  0  0
   -3.2339    0.9772    0.8066 H   0  0  0  0  0  0  0  0  0  0  0  0
   -0.8760    0.5458    2.0514 H   0  0  0  0  0  0  0  0  0  0  0  0
   -0.7750    1.2715    0.4236 H   0  0  0  0  0  0  0  0  0  0  0  0
    1.3787    1.1280    1.5699 H   0  0  0  0  0  0  0  0  0  0  0  0
  1  2  1  0
  2  3  1  0
  3  4  1  0
  4  5  2  0
  4  6  2  0
  4  7  1  0
  7  8  1  0
  8  9  1  0
  7 10  1  0
 10 11  1  0
 11  2  1  0
  1 12  1  0
  1 13  1  0
  1 14  1  0
  2 15  1  1
  3 16  1  0
  3 17  1  0
  7 18  1  1
  8 19  1  0
  8 20  1  0
  9 21  1  0
 10 22  1  0
 10 23  1  0
 11 24  1  0
M  END
$$$$

     RDKit          3D

 24 24  0  0  0  0  0  0  0  0999 V2000
    2.9695    0.4563   -0.3273 C   0  0  0  0  0  0  0  0  0  0  0  0
    1.5318    0.1936    0.0137 C   0  0  2  0  0  0  0  0  0  0  0  0
    1.1419   -1.1505   -0.5837 C   0  0  0  0  0  0  0  0  0  0  0  0
   -0.4033   -1.5835    0.2251 S   0  0  0  0  0  6  0  0  0  0  0  0
   -1.2165   -2.4901   -0.6170 O   0  0  0  0  0  0  0  0  0  0  0  0
   -0.0133   -2.2338    1.5323 O   0  0  0  0  0  0  0  0  0  0  0  0
   -1.2212   -0.0174    0.5123 C   0  0  2  0  0  0  0  0  0  0  0  0
   -2.6909   -0.2459    0.1310 C   0  0  0  0  0  0  0  0  0  0  0  0
   -3.4013    0.9302    0.3261 O   0  0  0  0  0  0  0  0  0  0  0  0
   -0.6927    1.0270   -0.4235 C   0  0  0  0  0  0  0  0  0  0  0  0
    0.6882    1.2305   -0.4157 N   0  0  0  0  0  0  0  0  0  0  0  0
    3.5777   -0.2886    0.2576 H   0  0  0  0  0  0  0  0  0  0  0  0
    3.2034    0.3297   -1.4023 H   0  0  0  0  0  0  0  0  0  0  0  0
    3.2929    1.4474    0.0107 H   0  0  0  0  0  0  0  0  0  0  0  0
    1.4666    0.0871    1.1191 H   0  0  0  0  0  0  0  0  0  0  0  0
    0.9690   -1.0290   -1.6581 H   0  0  0  0  0  0  0  0  0  0  0  0
    1.9322   -1.8604   -0.3337 H   0  0  0  0  0  0  0  0  0  0  0  0
   -1.1982    0.2707    1.5738 H   0  0  0  0  0  0  0  0  0  0  0  0
   -2.6670   -0.5140   -0.9542 H   0  0  0  0  0  0  0  0  0  0  0  0
   -3.1346   -1.0609    0.7316 H   0  0  0  0  0  0  0  0  0  0  0  0
   -2.9158    1.5962    0.8777 H   0  0  0  0  0  0  0  0  0  0  0  0
   -1.2182    1.9809   -0.1876 H   0  0  0  0  0  0  0  0  0  0  0  0
   -1.0492    0.7450   -1.4564 H   0  0  0  0  0  0  0  0  0  0  0  0
    1.0492    2.1792   -0.4043 H   0  0  0  0  0  0  0  0  0  0  0  0
  1  2  1  0
  2  3  1  0
  3  4  1  0
  4  5  2  0
  4  6  2  0
  4  7  1  0
  7  8  1  0
  8  9  1  0
  7 10  1  0
 10 11  1  0
 11  2  1  0
  1 12  1  0
  1 13  1  0
  1 14  1  0
  2 15  1  1
  3 16  1  0
  3 17  1  0
  7 18  1  1
  8 19  1  0
  8 20  1  0
  9 21  1  0
 10 22  1  0
 10 23  1  0
 11 24  1  0
M  END
$$$$
