
     RDKit          3D

 23 23  0  0  0  0  0  0  0  0999 V2000
    2.8133   -0.2742    0.6334 C   0  0  0  0  0  0  0  0  0  0  0  0
    1.4961   -0.0000    1.0098 O   0  0  0  0  0  0  0  0  0  0  0  0
    0.6325    0.0225   -0.0884 C   0  0  2  0  0  0  0  0  0  0  0  0
    0.0841    1.3928   -0.2587 C   0  0  1  0  0  0  0  0  0  0  0  0
   -0.0137    1.7717   -1.6079 O   0  0  0  0  0  0  0  0  0  0  0  0
   -1.1246    1.6251    0.3379 O   0  0  0  0  0  0  0  0  0  0  0  0
   -2.0469    0.7147   -0.2286 C   0  0  0  0  0  0  0  0  0  0  0  0
   -1.7391   -0.6174    0.4422 C   0  0  2  0  0  0  0  0  0  0  0  0
   -1.7905   -0.4879    1.8443 O   0  0  0  0  0  0  0  0  0  0  0  0
   -0.3952   -1.0636   -0.0244 C   0  0  1  0  0  0  0  0  0  0  0  0
   -0.5630   -1.7141   -1.2625 O   0  0  0  0  0  0  0  0  0  0  0  0
    2.7962   -1.2751    0.1439 H   0  0  0  0  0  0  0  0  0  0  0  0
    3.1988    0.4327   -0.1182 H   0  0  0  0  0  0  0  0  0  0  0  0
    3.4231   -0.2569    1.5479 H   0  0  0  0  0  0  0  0  0  0  0  0
    1.2702   -0.1950   -0.9957 H   0  0  0  0  0  0  0  0  0  0  0  0
    0.8220    2.1214    0.1875 H   0  0  0  0  0  0  0  0  0  0  0  0
   -0.4922    2.6454   -1.6133 H   0  0  0  0  0  0  0  0  0  0  0  0
   -1.7665    0.5808   -1.3085 H   0  0  0  0  0  0  0  0  0  0  0  0
   -3.0774    1.0400   -0.0833 H   0  0  0  0  0  0  0  0  0  0  0  0
   -2.5268   -1.3175    0.1164 H   0  0  0  0  0  0  0  0  0  0  0  0
   -1.2845   -1.2756    2.1963 H   0  0  0  0  0  0  0  0  0  0  0  0
   -0.0222   -1.8177    0.7291 H   0  0  0  0  0  0  0  0  0  0  0  0
    0.3063   -2.0519   -1.5992 H   0  0  0  0  0  0  0  0  0  0  0  0
  1  2  1  0
  2  3  1  0
  3  4  1  0
  4  5  1  0
  4  6  1  0
  6  7  1  0
  7  8  1  0
  8  9  1  0
  8 10  1  0
 10 11  1  0
 10  3  1  0
  1 12  1  0
  1 13  1  0
  1 14  1  0
  3 15  1  6
  4 16  1  1
  5 17  1  0
  7 18  1  0
  7 19  1  0
  8 20  1  6
  9 21  1  0
 10 22  1  1
 11 23  1  0
M  END
$$$$

     RDKit          3D

 23 23  0  0  0  0  0  0  0  0999 V2000
    2.6546   -1.0713    0.5993 C   0  0  0  0  0  0  0  0  0  0  0  0
    1.3376   -0.8921    1.0152 O   0  0  0  0  0  0  0  0  0  0  0  0
    0.6375   -0.0351    0.1928 C   0  0  2  0  0  0  0  0  0  0  0  0
    0.0084    1.1204    0.9611 C   0  0  1  0  0  0  0  0  0  0  0  0
    0.8255    1.6424    1.9202 O   0  0  0  0  0  0  0  0  0  0  0  0
   -0.4010    2.0198   -0.0079 O   0  0  0  0  0  0  0  0  0  0  0  0
   -1.5398    1.5557   -0.6100 C   0  0  0  0  0  0  0  0  0  0  0  0
   -1.5636    0.1464   -1.0059 C   0  0  2  0  0  0  0  0  0  0  0  0
   -2.8294   -0.3904   -0.6703 O   0  0  0  0  0  0  0  0  0  0  0  0
   -0.5333   -0.7547   -0.4483 C   0  0  1  0  0  0  0  0  0  0  0  0
   -0.0045   -1.6162   -1.4342 O   0  0  0  0  0  0  0  0  0  0  0  0
    3.2290   -0.1311    0.5780 H   0  0  0  0  0  0  0  0  0  0  0  0
    2.6555   -1.5906   -0.3981 H   0  0  0  0  0  0  0  0  0  0  0  0
    3.1342   -1.7598    1.3090 H   0  0  0  0  0  0  0  0  0  0  0  0
    1.2739    0.3473   -0.6508 H   0  0  0  0  0  0  0  0  0  0  0  0
   -0.9313    0.7197    1.4372 H   0  0  0  0  0  0  0  0  0  0  0  0
    1.7785    1.6078    1.7348 H   0  0  0  0  0  0  0  0  0  0  0  0
   -2.3992    1.8113    0.0777 H   0  0  0  0  0  0  0  0  0  0  0  0
   -1.7237    2.2155   -1.5096 H   0  0  0  0  0  0  0  0  0  0  0  0
   -1.5229    0.0578   -2.1314 H   0  0  0  0  0  0  0  0  0  0  0  0
   -2.7401   -1.0412    0.0697 H   0  0  0  0  0  0  0  0  0  0  0  0
   -0.9415   -1.4342    0.3398 H   0  0  0  0  0  0  0  0  0  0  0  0
   -0.4044   -2.5272   -1.3682 H   0  0  0  0  0  0  0  0  0  0  0  0
  1  2  1  0
  2  3  1  0
  3  4  1  0
  4  5  1  0
  4  6  1  0
  6  7  1  0
  7  8  1  0
  8  9  1  0
  8 10  1  0
 10 11  1  0
 10  3  1  0
  1 12  1  0
  1 13  1  0
  1 14  1  0
  3 15  1  6
  4 16  1  1
  5 17  1  0
  7 18  1  0
  7 19  1  0
  8 20  1  6
  9 21  1  0
 10 22  1  1
 11 23  1  0
M  END
$$$$

     RDKit          3D

 23 23  0  0  0  0  0  0  0  0999 V2000
    2.8012   -0.0247   -0.3274 C   0  0  0  0  0  0  0  0  0  0  0  0
    1.5689    0.0795    0.2579 O   0  0  0  0  0  0  0  0  0  0  0  0
    0.5043    0.1588   -0.5916 C   0  0  2  0  0  0  0  0  0  0  0  0
   -0.3790    1.3575   -0.3652 C   0  0  1  0  0  0  0  0  0  0  0  0
   -1.2414    1.4796   -1.4630 O   0  0  0  0  0  0  0  0  0  0  0  0
   -1.0453    1.3465    0.8340 O   0  0  0  0  0  0  0  0  0  0  0  0
   -1.7518    0.1944    1.0958 C   0  0  0  0  0  0  0  0  0  0  0  0
   -0.7729   -0.9568    1.1141 C   0  0  2  0  0  0  0  0  0  0  0  0
    0.3080   -0.5744    1.9023 O   0  0  0  0  0  0  0  0  0  0  0  0
   -0.3193   -1.1156   -0.3354 C   0  0  1  0  0  0  0  0  0  0  0  0
   -1.4358   -1.1488   -1.1787 O   0  0  0  0  0  0  0  0  0  0  0  0
    3.0738    0.8169   -0.9840 H   0  0  0  0  0  0  0  0  0  0  0  0
    3.5576   -0.1121    0.4800 H   0  0  0  0  0  0  0  0  0  0  0  0
    2.8415   -0.9759   -0.9043 H   0  0  0  0  0  0  0  0  0  0  0  0
    0.7640    0.1295   -1.6681 H   0  0  0  0  0  0  0  0  0  0  0  0
    0.2577    2.2693   -0.3802 H   0  0  0  0  0  0  0  0  0  0  0  0
   -2.1823    1.3692   -1.2242 H   0  0  0  0  0  0  0  0  0  0  0  0
   -2.5209   -0.0396    0.3352 H   0  0  0  0  0  0  0  0  0  0  0  0
   -2.2197    0.3098    2.0951 H   0  0  0  0  0  0  0  0  0  0  0  0
   -1.2134   -1.8883    1.5072 H   0  0  0  0  0  0  0  0  0  0  0  0
    0.1875    0.2728    2.3638 H   0  0  0  0  0  0  0  0  0  0  0  0
    0.3288   -1.9824   -0.4767 H   0  0  0  0  0  0  0  0  0  0  0  0
   -1.1116   -0.9654   -2.0867 H   0  0  0  0  0  0  0  0  0  0  0  0
  1  2  1  0
  2  3  1  0
  3  4  1  0
  4  5  1  0
  4  6  1  0
  6  7  1  0
  7  8  1  0
  8  9  1  0
  8 10  1  0
 10 11  1  0
 10  3  1  0
  1 12  1  0
  1 13  1  0
  1 14  1  0
  3 15  1  6
  4 16  1  1
  5 17  1  0
  7 18  1  0
  7 19  1  0
  8 20  1  1
  9 21  1  0
 10 22  1  1
 11 23  1  0
M  END
$$$$

     RDKit          3D

 23 23  0  0  0  0  0  0  0  0999 V2000
    2.6432    0.8959   -0.2405 C   0  0  0  0  0  0  0  0  0  0  0  0
    1.3385    0.6555   -0.7006 O   0  0  0  0  0  0  0  0  0  0  0  0
    0.7001   -0.1088    0.2653 C   0  0  2  0  0  0  0  0  0  0  0  0
    0.1819   -1.3918   -0.3483 C   0  0  1  0  0  0  0  0  0  0  0  0
    0.9082   -2.5078    0.0728 O   0  0  0  0  0  0  0  0  0  0  0  0
   -1.1394   -1.5913    0.0540 O   0  0  0  0  0  0  0  0  0  0  0  0
   -1.9450   -0.7145   -0.6480 C   0  0  0  0  0  0  0  0  0  0  0  0
   -1.6348    0.6909   -0.1548 C   0  0  2  0  0  0  0  0  0  0  0  0
   -1.3449    1.5069   -1.2654 O   0  0  0  0  0  0  0  0  0  0  0  0
   -0.4675    0.7097    0.7823 C   0  0  1  0  0  0  0  0  0  0  0  0
   -0.8265    0.2958    2.0601 O   0  0  0  0  0  0  0  0  0  0  0  0
    3.2186    1.5035   -0.9615 H   0  0  0  0  0  0  0  0  0  0  0  0
    2.6209    1.4592    0.7152 H   0  0  0  0  0  0  0  0  0  0  0  0
    3.1131   -0.0768   -0.0461 H   0  0  0  0  0  0  0  0  0  0  0  0
    1.3563   -0.3321    1.1310 H   0  0  0  0  0  0  0  0  0  0  0  0
    0.1898   -1.3625   -1.4588 H   0  0  0  0  0  0  0  0  0  0  0  0
    0.9796   -2.4477    1.0552 H   0  0  0  0  0  0  0  0  0  0  0  0
   -3.0083   -0.9118   -0.4320 H   0  0  0  0  0  0  0  0  0  0  0  0
   -1.6910   -0.7911   -1.7178 H   0  0  0  0  0  0  0  0  0  0  0  0
   -2.5064    1.1241    0.3973 H   0  0  0  0  0  0  0  0  0  0  0  0
   -1.9119    2.3007   -1.2507 H   0  0  0  0  0  0  0  0  0  0  0  0
   -0.1295    1.7716    0.8662 H   0  0  0  0  0  0  0  0  0  0  0  0
   -0.6448   -0.6777    2.1681 H   0  0  0  0  0  0  0  0  0  0  0  0
  1  2  1  0
  2  3  1  0
  3  4  1  0
  4  5  1  0
  4  6  1  0
  6  7  1  0
  7  8  1  0
  8  9  1  0
  8 10  1  0
 10 11  1  0
 10  3  1  0
  1 12  1  0
  1 13  1  0
  1 14  1  0
  3 15  1  1
  4 16  1  6
  5 17  1  0
  7 18  1  0
  7 19  1  0
  8 20  1  1
  9 21  1  0
 10 22  1  1
 11 23  1  0
M  END
$$$$

     RDKit          3D

 23 23  0  0  0  0  0  0  0  0999 V2000
    2.8255   -0.5642    0.5408 C   0  0  0  0  0  0  0  0  0  0  0  0
    1.4524   -0.5532    0.8571 O   0  0  0  0  0  0  0  0  0  0  0  0
    0.7449    0.1268   -0.1284 C   0  0  2  0  0  0  0  0  0  0  0  0
    0.0805    1.3115    0.5330 C   0  0  1  0  0  0  0  0  0  0  0  0
    0.9317    2.3883    0.4924 O   0  0  0  0  0  0  0  0  0  0  0  0
   -1.1383    1.5962   -0.0791 O   0  0  0  0  0  0  0  0  0  0  0  0
   -2.0821    0.6181    0.2424 C   0  0  0  0  0  0  0  0  0  0  0  0
   -1.5960   -0.7756   -0.0909 C   0  0  2  0  0  0  0  0  0  0  0  0
   -1.4850   -1.5712    1.0541 O   0  0  0  0  0  0  0  0  0  0  0  0
   -0.2682   -0.7477   -0.8278 C   0  0  1  0  0  0  0  0  0  0  0  0
   -0.5303   -0.2596   -2.1083 O   0  0  0  0  0  0  0  0  0  0  0  0
    3.1997    0.4844    0.4761 H   0  0  0  0  0  0  0  0  0  0  0  0
    3.3793   -1.1350    1.2969 H   0  0  0  0  0  0  0  0  0  0  0  0
    2.9132   -1.0739   -0.4430 H   0  0  0  0  0  0  0  0  0  0  0  0
    1.4518    0.4852   -0.9113 H   0  0  0  0  0  0  0  0  0  0  0  0
   -0.1351    1.0411    1.5859 H   0  0  0  0  0  0  0  0  0  0  0  0
    0.6800    3.0962   -0.1335 H   0  0  0  0  0  0  0  0  0  0  0  0
   -2.9704    0.8272   -0.4057 H   0  0  0  0  0  0  0  0  0  0  0  0
   -2.4373    0.7038    1.2944 H   0  0  0  0  0  0  0  0  0  0  0  0
   -2.3120   -1.3021   -0.7657 H   0  0  0  0  0  0  0  0  0  0  0  0
   -2.3824   -1.9482    1.2396 H   0  0  0  0  0  0  0  0  0  0  0  0
    0.0669   -1.7846   -0.9215 H   0  0  0  0  0  0  0  0  0  0  0  0
   -0.3887   -0.9634   -2.7972 H   0  0  0  0  0  0  0  0  0  0  0  0
  1  2  1  0
  2  3  1  0
  3  4  1  0
  4  5  1  0
  4  6  1  0
  6  7  1  0
  7  8  1  0
  8  9  1  0
  8 10  1  0
 10 11  1  0
 10  3  1  0
  1 12  1  0
  1 13  1  0
  1 14  1  0
  3 15  1  6
  4 16  1  1
  5 17  1  0
  7 18  1  0
  7 19  1  0
  8 20  1  6
  9 21  1  0
 10 22  1  6
 11 23  1  0
M  END
$$$$

     RDKit          3D

 23 23  0  0  0  0  0  0  0  0999 V2000
    2.7009   -0.9729   -0.0955 C   0  0  0  0  0  0  0  0  0  0  0  0
    1.9121   -0.0007    0.5497 O   0  0  0  0  0  0  0  0  0  0  0  0
    0.6773   -0.0081   -0.0238 C   0  0  2  0  0  0  0  0  0  0  0  0
    0.3118    1.3208   -0.6868 C   0  0  1  0  0  0  0  0  0  0  0  0
    1.3485    1.8732   -1.3788 O   0  0  0  0  0  0  0  0  0  0  0  0
   -0.8011    1.0609   -1.4845 O   0  0  0  0  0  0  0  0  0  0  0  0
   -1.8924    0.6932   -0.7371 C   0  0  0  0  0  0  0  0  0  0  0  0
   -1.6547   -0.5586    0.0886 C   0  0  2  0  0  0  0  0  0  0  0  0
   -2.7707   -0.8646    0.8163 O   0  0  0  0  0  0  0  0  0  0  0  0
   -0.4506   -0.2366    0.9772 C   0  0  1  0  0  0  0  0  0  0  0  0
   -0.1795   -1.2176    1.8838 O   0  0  0  0  0  0  0  0  0  0  0  0
    3.7145   -1.0272    0.3128 H   0  0  0  0  0  0  0  0  0  0  0  0
    2.2289   -1.9744   -0.0489 H   0  0  0  0  0  0  0  0  0  0  0  0
    2.7979   -0.7262   -1.1844 H   0  0  0  0  0  0  0  0  0  0  0  0
    0.5935   -0.7707   -0.8520 H   0  0  0  0  0  0  0  0  0  0  0  0
   -0.0237    2.0268    0.1138 H   0  0  0  0  0  0  0  0  0  0  0  0
    2.0118    2.2133   -0.7020 H   0  0  0  0  0  0  0  0  0  0  0  0
   -2.7306    0.4697   -1.4350 H   0  0  0  0  0  0  0  0  0  0  0  0
   -2.1946    1.4906   -0.0076 H   0  0  0  0  0  0  0  0  0  0  0  0
   -1.3219   -1.3652   -0.5944 H   0  0  0  0  0  0  0  0  0  0  0  0
   -3.3927   -1.3866    0.2283 H   0  0  0  0  0  0  0  0  0  0  0  0
   -0.7102    0.7481    1.4636 H   0  0  0  0  0  0  0  0  0  0  0  0
   -0.1744   -0.7872    2.7966 H   0  0  0  0  0  0  0  0  0  0  0  0
  1  2  1  0
  2  3  1  0
  3  4  1  0
  4  5  1  0
  4  6  1  0
  6  7  1  0
  7  8  1  0
  8  9  1  0
  8 10  1  0
 10 11  1  0
 10  3  1  0
  1 12  1  0
  1 13  1  0
  1 14  1  0
  3 15  1  6
  4 16  1  1
  5 17  1  0
  7 18  1  0
  7 19  1  0
  8 20  1  6
  9 21  1  0
 10 22  1  1
 11 23  1  0
M  END
$$$$

     RDKit          3D

 23 23  0  0  0  0  0  0  0  0999 V2000
    2.3618   -0.9757    1.0313 C   0  0  0  0  0  0  0  0  0  0  0  0
    1.0706   -0.4096    1.0707 O   0  0  0  0  0  0  0  0  0  0  0  0
    0.7065   -0.0073   -0.2062 C   0  0  2  0  0  0  0  0  0  0  0  0
    0.4643    1.4763   -0.2729 C   0  0  1  0  0  0  0  0  0  0  0  0
    1.1928    2.0977   -1.2752 O   0  0  0  0  0  0  0  0  0  0  0  0
   -0.9102    1.7252   -0.4658 O   0  0  0  0  0  0  0  0  0  0  0  0
   -1.5569    0.9990    0.5593 C   0  0  0  0  0  0  0  0  0  0  0  0
   -1.7679   -0.3968   -0.0010 C   0  0  2  0  0  0  0  0  0  0  0  0
   -2.0933   -1.2834    1.0363 O   0  0  0  0  0  0  0  0  0  0  0  0
   -0.4864   -0.8110   -0.6969 C   0  0  1  0  0  0  0  0  0  0  0  0
   -0.5887   -0.7465   -2.0699 O   0  0  0  0  0  0  0  0  0  0  0  0
    3.0822   -0.2251    0.6612 H   0  0  0  0  0  0  0  0  0  0  0  0
    2.3384   -1.8360    0.3113 H   0  0  0  0  0  0  0  0  0  0  0  0
    2.6325   -1.3658    2.0277 H   0  0  0  0  0  0  0  0  0  0  0  0
    1.5385   -0.2415   -0.9241 H   0  0  0  0  0  0  0  0  0  0  0  0
    0.7178    1.9735    0.6932 H   0  0  0  0  0  0  0  0  0  0  0  0
    1.9036    2.7037   -0.9137 H   0  0  0  0  0  0  0  0  0  0  0  0
   -0.9554    0.9732    1.4847 H   0  0  0  0  0  0  0  0  0  0  0  0
   -2.5402    1.4053    0.8040 H   0  0  0  0  0  0  0  0  0  0  0  0
   -2.5905   -0.3281   -0.7409 H   0  0  0  0  0  0  0  0  0  0  0  0
   -2.7058   -1.9458    0.6400 H   0  0  0  0  0  0  0  0  0  0  0  0
   -0.2744   -1.8768   -0.4253 H   0  0  0  0  0  0  0  0  0  0  0  0
   -1.5394   -0.9045   -2.3278 H   0  0  0  0  0  0  0  0  0  0  0  0
  1  2  1  0
  2  3  1  0
  3  4  1  0
  4  5  1  0
  4  6  1  0
  6  7  1  0
  7  8  1  0
  8  9  1  0
  8 10  1  0
 10 11  1  0
 10  3  1  0
  1 12  1  0
  1 13  1  0
  1 14  1  0
  3 15  1  6
  4 16  1  1
  5 17  1  0
  7 18  1  0
  7 19  1  0
  8 20  1  6
  9 21  1  0
 10 22  1  6
 11 23  1  0
M  END
$$$$

     RDKit          3D

 23 23  0  0  0  0  0  0  0  0999 V2000
    2.7160   -0.9126    0.3746 C   0  0  0  0  0  0  0  0  0  0  0  0
    1.4737   -0.5627    0.8892 O   0  0  0  0  0  0  0  0  0  0  0  0
    0.6503    0.0064   -0.0896 C   0  0  2  0  0  0  0  0  0  0  0  0
    0.3845    1.4203    0.3071 C   0  0  1  0  0  0  0  0  0  0  0  0
    1.3992    2.2585   -0.1988 O   0  0  0  0  0  0  0  0  0  0  0  0
   -0.8112    1.9296   -0.1159 O   0  0  0  0  0  0  0  0  0  0  0  0
   -1.8963    1.1326    0.2269 C   0  0  0  0  0  0  0  0  0  0  0  0
   -1.7897   -0.1091   -0.6681 C   0  0  2  0  0  0  0  0  0  0  0  0
   -2.9012   -0.9012   -0.5785 O   0  0  0  0  0  0  0  0  0  0  0  0
   -0.5603   -0.8466   -0.2232 C   0  0  1  0  0  0  0  0  0  0  0  0
   -0.2992   -1.9227   -1.0942 O   0  0  0  0  0  0  0  0  0  0  0  0
    3.2942   -1.3516    1.2158 H   0  0  0  0  0  0  0  0  0  0  0  0
    3.2472    0.0037    0.0343 H   0  0  0  0  0  0  0  0  0  0  0  0
    2.5815   -1.6308   -0.4531 H   0  0  0  0  0  0  0  0  0  0  0  0
    1.2298    0.0247   -1.0397 H   0  0  0  0  0  0  0  0  0  0  0  0
    0.4260    1.5025    1.4214 H   0  0  0  0  0  0  0  0  0  0  0  0
    2.1928    2.1925    0.3728 H   0  0  0  0  0  0  0  0  0  0  0  0
   -2.8364    1.6658    0.0795 H   0  0  0  0  0  0  0  0  0  0  0  0
   -1.8218    0.7483    1.2672 H   0  0  0  0  0  0  0  0  0  0  0  0
   -1.6566    0.2237   -1.7167 H   0  0  0  0  0  0  0  0  0  0  0  0
   -3.0808   -1.0912    0.3703 H   0  0  0  0  0  0  0  0  0  0  0  0
   -0.7963   -1.3189    0.7632 H   0  0  0  0  0  0  0  0  0  0  0  0
   -1.1454   -2.4613   -1.1446 H   0  0  0  0  0  0  0  0  0  0  0  0
  1  2  1  0
  2  3  1  0
  3  4  1  0
  4  5  1  0
  4  6  1  0
  6  7  1  0
  7  8  1  0
  8  9  1  0
  8 10  1  0
 10 11  1  0
 10  3  1  0
  1 12  1  0
  1 13  1  0
  1 14  1  0
  3 15  1  6
  4 16  1  1
  5 17  1  0
  7 18  1  0
  7 19  1  0
  8 20  1  6
  9 21  1  0
 10 22  1  1
 11 23  1  0
M  END
$$$$
