
     RDKit          3D

 22 23  0  0  0  0  0  0  0  0999 V2000
    3.2235    1.3440   -0.3887 N   0  0  0  0  0  0  0  0  0  0  0  0
    1.8604    1.7407   -0.3426 C   0  0  0  0  0  0  0  0  0  0  0  0
    1.5577    3.3474   -0.5860 S   0  0  0  0  0  0  0  0  0  0  0  0
    0.8039    0.8437   -0.1058 N   0  0  0  0  0  0  0  0  0  0  0  0
   -0.5970    1.2257   -0.0542 C   0  0  0  0  0  0  0  0  0  0  0  0
   -1.1877    0.0170    0.5489 C   0  0  1  0  0  0  0  0  0  0  0  0
   -2.5088   -0.4387    0.2593 C   0  0  0  0  0  0  0  0  0  0  0  0
   -3.5465    0.1994    0.0532 O   0  0  0  0  0  0  0  0  0  0  0  0
   -2.4251   -1.8683    0.2465 N   0  0  0  0  0  0  0  0  0  0  0  0
   -1.0221   -2.2092    0.2011 C   0  0  0  0  0  0  0  0  0  0  0  0
   -0.5262   -3.2975    0.5288 O   0  0  0  0  0  0  0  0  0  0  0  0
   -0.3902   -1.0285   -0.2934 C   0  0  2  0  0  0  0  0  0  0  0  0
    0.9448   -0.5849    0.1211 C   0  0  0  0  0  0  0  0  0  0  0  0
    3.9638    1.9229    0.0373 H   0  0  0  0  0  0  0  0  0  0  0  0
    3.4786    0.4597   -0.8572 H   0  0  0  0  0  0  0  0  0  0  0  0
   -1.0217    1.3884   -1.0605 H   0  0  0  0  0  0  0  0  0  0  0  0
   -0.6948    2.1443    0.5895 H   0  0  0  0  0  0  0  0  0  0  0  0
   -0.8572   -0.0726    1.6023 H   0  0  0  0  0  0  0  0  0  0  0  0
   -3.2516   -2.5404    0.2674 H   0  0  0  0  0  0  0  0  0  0  0  0
   -0.6482   -0.8378   -1.3541 H   0  0  0  0  0  0  0  0  0  0  0  0
    1.0580   -0.7345    1.2110 H   0  0  0  0  0  0  0  0  0  0  0  0
    1.7864   -1.0209   -0.4457 H   0  0  0  0  0  0  0  0  0  0  0  0
  1  2  1  0
  2  3  2  0
  2  4  1  0
  4  5  1  0
  5  6  1  0
  6  7  1  0
  7  8  2  0
  7  9  1  0
  9 10  1  0
 10 11  2  0
 10 12  1  0
 12 13  1  0
 13  4  1  0
 12  6  1  0
  1 14  1  0
  1 15  1  0
  5 16  1  0
  5 17  1  0
  6 18  1  1
  9 19  1  0
 12 20  1  6
 13 21  1  0
 13 22  1  0
M  END
$$$$

     RDKit          3D

 22 23  0  0  0  0  0  0  0  0999 V2000
    3.3551    0.2363   -1.0206 N   0  0  0  0  0  0  0  0  0  0  0  0
    2.5641   -0.0028    0.1478 C   0  0  0  0  0  0  0  0  0  0  0  0
    3.4048   -0.2448    1.5315 S   0  0  0  0  0  0  0  0  0  0  0  0
    1.1615   -0.0318    0.1295 N   0  0  0  0  0  0  0  0  0  0  0  0
    0.3197    0.1708   -1.0453 C   0  0  0  0  0  0  0  0  0  0  0  0
   -0.9466    0.5470   -0.4197 C   0  0  1  0  0  0  0  0  0  0  0  0
   -2.2242    0.2238   -1.0123 C   0  0  0  0  0  0  0  0  0  0  0  0
   -2.6365    0.1073   -2.1938 O   0  0  0  0  0  0  0  0  0  0  0  0
   -3.0818    0.0258    0.1453 N   0  0  0  0  0  0  0  0  0  0  0  0
   -2.2169   -0.2176    1.2850 C   0  0  0  0  0  0  0  0  0  0  0  0
   -2.5591   -0.1399    2.4884 O   0  0  0  0  0  0  0  0  0  0  0  0
   -0.9572   -0.5467    0.6842 C   0  0  2  0  0  0  0  0  0  0  0  0
    0.3281   -0.2720    1.2987 C   0  0  0  0  0  0  0  0  0  0  0  0
    3.1734   -0.2149   -1.9370 H   0  0  0  0  0  0  0  0  0  0  0  0
    4.1583    0.8987   -0.9520 H   0  0  0  0  0  0  0  0  0  0  0  0
    0.7601    0.8994   -1.7538 H   0  0  0  0  0  0  0  0  0  0  0  0
    0.2148   -0.8461   -1.5081 H   0  0  0  0  0  0  0  0  0  0  0  0
   -0.8798    1.5458    0.0486 H   0  0  0  0  0  0  0  0  0  0  0  0
   -4.1363    0.0504    0.1734 H   0  0  0  0  0  0  0  0  0  0  0  0
   -0.9199   -1.4972    0.1195 H   0  0  0  0  0  0  0  0  0  0  0  0
    0.7364   -1.2215    1.7553 H   0  0  0  0  0  0  0  0  0  0  0  0
    0.3821    0.5299    2.0353 H   0  0  0  0  0  0  0  0  0  0  0  0
  1  2  1  0
  2  3  2  0
  2  4  1  0
  4  5  1  0
  5  6  1  0
  6  7  1  0
  7  8  2  0
  7  9  1  0
  9 10  1  0
 10 11  2  0
 10 12  1  0
 12 13  1  0
 13  4  1  0
 12  6  1  0
  1 14  1  0
  1 15  1  0
  5 16  1  0
  5 17  1  0
  6 18  1  1
  9 19  1  0
 12 20  1  6
 13 21  1  0
 13 22  1  0
M  END
$$$$

     RDKit          3D

 22 23  0  0  0  0  0  0  0  0999 V2000
    3.1062   -0.8623    1.3451 N   0  0  0  0  0  0  0  0  0  0  0  0
    2.4906   -0.6369    0.0892 C   0  0  0  0  0  0  0  0  0  0  0  0
    3.4705   -0.7868   -1.2331 S   0  0  0  0  0  0  0  0  0  0  0  0
    1.1294   -0.3042   -0.0519 N   0  0  0  0  0  0  0  0  0  0  0  0
    0.2076   -0.1553    1.0660 C   0  0  0  0  0  0  0  0  0  0  0  0
   -1.0749   -0.2450    0.3513 C   0  0  1  0  0  0  0  0  0  0  0  0
   -2.2670    0.3953    0.7964 C   0  0  0  0  0  0  0  0  0  0  0  0
   -2.6933    0.5471    1.9466 O   0  0  0  0  0  0  0  0  0  0  0  0
   -2.9274    0.8608   -0.3820 N   0  0  0  0  0  0  0  0  0  0  0  0
   -1.9750    0.7416   -1.4716 C   0  0  0  0  0  0  0  0  0  0  0  0
   -2.3147    0.6867   -2.6628 O   0  0  0  0  0  0  0  0  0  0  0  0
   -0.7048    0.7122   -0.8244 C   0  0  2  0  0  0  0  0  0  0  0  0
    0.4403   -0.0611   -1.3096 C   0  0  0  0  0  0  0  0  0  0  0  0
    3.7416   -1.6830    1.4658 H   0  0  0  0  0  0  0  0  0  0  0  0
    2.9456   -0.2260    2.1723 H   0  0  0  0  0  0  0  0  0  0  0  0
    0.3858   -0.9433    1.8208 H   0  0  0  0  0  0  0  0  0  0  0  0
    0.3459    0.8725    1.4679 H   0  0  0  0  0  0  0  0  0  0  0  0
   -1.1844   -1.2662   -0.0643 H   0  0  0  0  0  0  0  0  0  0  0  0
   -3.9228    1.2231   -0.4463 H   0  0  0  0  0  0  0  0  0  0  0  0
   -0.3550    1.6621   -0.3737 H   0  0  0  0  0  0  0  0  0  0  0  0
    0.1015   -1.0264   -1.7524 H   0  0  0  0  0  0  0  0  0  0  0  0
    1.0543    0.4952   -2.0337 H   0  0  0  0  0  0  0  0  0  0  0  0
  1  2  1  0
  2  3  2  0
  2  4  1  0
  4  5  1  0
  5  6  1  0
  6  7  1  0
  7  8  2  0
  7  9  1  0
  9 10  1  0
 10 11  2  0
 10 12  1  0
 12 13  1  0
 13  4  1  0
 12  6  1  0
  1 14  1  0
  1 15  1  0
  5 16  1  0
  5 17  1  0
  6 18  1  6
  9 19  1  0
 12 20  1  1
 13 21  1  0
 13 22  1  0
M  END
$$$$

     RDKit          3D

 22 23  0  0  0  0  0  0  0  0999 V2000
    3.4598   -0.3734   -0.4706 N   0  0  0  0  0  0  0  0  0  0  0  0
    2.5242    0.2394    0.4319 C   0  0  0  0  0  0  0  0  0  0  0  0
    3.1646    1.0659    1.6787 S   0  0  0  0  0  0  0  0  0  0  0  0
    1.1325    0.1365    0.2564 N   0  0  0  0  0  0  0  0  0  0  0  0
    0.4592   -0.5767   -0.8215 C   0  0  0  0  0  0  0  0  0  0  0  0
   -0.8511    0.0883   -0.7804 C   0  0  1  0  0  0  0  0  0  0  0  0
   -2.0606   -0.5396   -1.1959 C   0  0  0  0  0  0  0  0  0  0  0  0
   -2.2640   -1.3204   -2.1337 O   0  0  0  0  0  0  0  0  0  0  0  0
   -3.0636   -0.0816   -0.2826 N   0  0  0  0  0  0  0  0  0  0  0  0
   -2.3692    0.5067    0.8407 C   0  0  0  0  0  0  0  0  0  0  0  0
   -2.8997    1.2861    1.6433 O   0  0  0  0  0  0  0  0  0  0  0  0
   -1.0473   -0.0114    0.7651 C   0  0  2  0  0  0  0  0  0  0  0  0
    0.1522    0.7414    1.1464 C   0  0  0  0  0  0  0  0  0  0  0  0
    3.9194    0.1275   -1.2458 H   0  0  0  0  0  0  0  0  0  0  0  0
    3.6643   -1.3793   -0.3073 H   0  0  0  0  0  0  0  0  0  0  0  0
    0.3601   -1.6359   -0.4543 H   0  0  0  0  0  0  0  0  0  0  0  0
    1.0007   -0.5212   -1.7747 H   0  0  0  0  0  0  0  0  0  0  0  0
   -0.7494    1.1690   -1.0033 H   0  0  0  0  0  0  0  0  0  0  0  0
   -4.1199   -0.1578   -0.4041 H   0  0  0  0  0  0  0  0  0  0  0  0
   -0.9179   -1.0935    0.9651 H   0  0  0  0  0  0  0  0  0  0  0  0
    0.0534    1.8244    0.9637 H   0  0  0  0  0  0  0  0  0  0  0  0
    0.4525    0.5057    2.1827 H   0  0  0  0  0  0  0  0  0  0  0  0
  1  2  1  0
  2  3  2  0
  2  4  1  0
  4  5  1  0
  5  6  1  0
  6  7  1  0
  7  8  2  0
  7  9  1  0
  9 10  1  0
 10 11  2  0
 10 12  1  0
 12 13  1  0
 13  4  1  0
 12  6  1  0
  1 14  1  0
  1 15  1  0
  5 16  1  0
  5 17  1  0
  6 18  1  6
  9 19  1  0
 12 20  1  1
 13 21  1  0
 13 22  1  0
M  END
$$$$

     RDKit          3D

 22 23  0  0  0  0  0  0  0  0999 V2000
    3.4419    0.3086    0.2702 N   0  0  0  0  0  0  0  0  0  0  0  0
    2.4982   -0.7043    0.0169 C   0  0  0  0  0  0  0  0  0  0  0  0
    3.0672   -2.2181   -0.2205 S   0  0  0  0  0  0  0  0  0  0  0  0
    1.1212   -0.3946   -0.0243 N   0  0  0  0  0  0  0  0  0  0  0  0
    0.0297   -1.3619   -0.2798 C   0  0  0  0  0  0  0  0  0  0  0  0
   -1.0659   -0.4498   -0.5984 C   0  0  1  0  0  0  0  0  0  0  0  0
   -2.4403   -0.7326   -0.3290 C   0  0  0  0  0  0  0  0  0  0  0  0
   -3.0528   -1.8106   -0.3425 O   0  0  0  0  0  0  0  0  0  0  0  0
   -3.0221    0.5493   -0.0181 N   0  0  0  0  0  0  0  0  0  0  0  0
   -1.9433    1.4258    0.3259 C   0  0  0  0  0  0  0  0  0  0  0  0
   -2.0261    2.6591    0.3980 O   0  0  0  0  0  0  0  0  0  0  0  0
   -0.8203    0.5753    0.5506 C   0  0  2  0  0  0  0  0  0  0  0  0
    0.5511    0.9308    0.1785 C   0  0  0  0  0  0  0  0  0  0  0  0
    3.2032    1.0192    0.9997 H   0  0  0  0  0  0  0  0  0  0  0  0
    4.3264    0.3112   -0.2694 H   0  0  0  0  0  0  0  0  0  0  0  0
   -0.1410   -2.0169    0.5690 H   0  0  0  0  0  0  0  0  0  0  0  0
    0.3588   -1.9131   -1.1920 H   0  0  0  0  0  0  0  0  0  0  0  0
   -0.8889    0.0733   -1.5599 H   0  0  0  0  0  0  0  0  0  0  0  0
   -4.0580    0.8018   -0.0388 H   0  0  0  0  0  0  0  0  0  0  0  0
   -0.8086    0.0092    1.5013 H   0  0  0  0  0  0  0  0  0  0  0  0
    1.1220    1.5319    0.9053 H   0  0  0  0  0  0  0  0  0  0  0  0
    0.5475    1.4065   -0.8425 H   0  0  0  0  0  0  0  0  0  0  0  0
  1  2  1  0
  2  3  2  0
  2  4  1  0
  4  5  1  0
  5  6  1  0
  6  7  1  0
  7  8  2  0
  7  9  1  0
  9 10  1  0
 10 11  2  0
 10 12  1  0
 12 13  1  0
 13  4  1  0
 12  6  1  0
  1 14  1  0
  1 15  1  0
  5 16  1  0
  5 17  1  0
  6 18  1  6
  9 19  1  0
 12 20  1  1
 13 21  1  0
 13 22  1  0
M  END
$$$$

     RDKit          3D

 22 23  0  0  0  0  0  0  0  0999 V2000
    3.4073   -0.6935    0.1409 N   0  0  0  0  0  0  0  0  0  0  0  0
    2.5761    0.4583    0.0915 C   0  0  0  0  0  0  0  0  0  0  0  0
    3.2352    1.9464    0.0468 S   0  0  0  0  0  0  0  0  0  0  0  0
    1.1665    0.2630    0.0828 N   0  0  0  0  0  0  0  0  0  0  0  0
    0.4483   -1.0116    0.1195 C   0  0  0  0  0  0  0  0  0  0  0  0
   -0.8325   -0.6202   -0.4599 C   0  0  1  0  0  0  0  0  0  0  0  0
   -2.0688   -1.2803   -0.0864 C   0  0  0  0  0  0  0  0  0  0  0  0
   -2.3462   -2.4525    0.2786 O   0  0  0  0  0  0  0  0  0  0  0  0
   -3.0467   -0.2175   -0.2263 N   0  0  0  0  0  0  0  0  0  0  0  0
   -2.3258    1.0442   -0.1981 C   0  0  0  0  0  0  0  0  0  0  0  0
   -2.8463    2.1122   -0.6109 O   0  0  0  0  0  0  0  0  0  0  0  0
   -1.0504    0.6799    0.3666 C   0  0  2  0  0  0  0  0  0  0  0  0
    0.1826    1.3679    0.0334 C   0  0  0  0  0  0  0  0  0  0  0  0
    3.7652   -0.9896    1.0755 H   0  0  0  0  0  0  0  0  0  0  0  0
    3.6304   -1.1985   -0.7399 H   0  0  0  0  0  0  0  0  0  0  0  0
    0.3206   -1.3703    1.1436 H   0  0  0  0  0  0  0  0  0  0  0  0
    0.9623   -1.7514   -0.5336 H   0  0  0  0  0  0  0  0  0  0  0  0
   -0.7937   -0.3147   -1.5246 H   0  0  0  0  0  0  0  0  0  0  0  0
   -4.0909   -0.3508   -0.3288 H   0  0  0  0  0  0  0  0  0  0  0  0
   -1.0611    0.3896    1.4337 H   0  0  0  0  0  0  0  0  0  0  0  0
    0.2285    1.8902   -0.9206 H   0  0  0  0  0  0  0  0  0  0  0  0
    0.5396    2.0992    0.8163 H   0  0  0  0  0  0  0  0  0  0  0  0
  1  2  1  0
  2  3  2  0
  2  4  1  0
  4  5  1  0
  5  6  1  0
  6  7  1  0
  7  8  2  0
  7  9  1  0
  9 10  1  0
 10 11  2  0
 10 12  1  0
 12 13  1  0
 13  4  1  0
 12  6  1  0
  1 14  1  0
  1 15  1  0
  5 16  1  0
  5 17  1  0
  6 18  1  6
  9 19  1  0
 12 20  1  1
 13 21  1  0
 13 22  1  0
M  END
$$$$

     RDKit          3D

 22 23  0  0  0  0  0  0  0  0999 V2000
   -3.3022    0.9994    0.6948 N   0  0  0  0  0  0  0  0  0  0  0  0
   -2.5003   -0.1745    0.8389 C   0  0  0  0  0  0  0  0  0  0  0  0
   -3.2223   -1.5352    1.3340 S   0  0  0  0  0  0  0  0  0  0  0  0
   -1.1275   -0.1339    0.5557 N   0  0  0  0  0  0  0  0  0  0  0  0
   -0.3668    1.0388    0.1015 C   0  0  0  0  0  0  0  0  0  0  0  0
    0.7331    0.3663   -0.5919 C   0  0  1  0  0  0  0  0  0  0  0  0
    2.0310    0.9648   -0.7534 C   0  0  0  0  0  0  0  0  0  0  0  0
    2.3189    2.1584   -0.9526 O   0  0  0  0  0  0  0  0  0  0  0  0
    2.9539   -0.1555   -0.6302 N   0  0  0  0  0  0  0  0  0  0  0  0
    2.2506   -1.2079    0.0322 C   0  0  0  0  0  0  0  0  0  0  0  0
    2.6417   -2.3861    0.0909 O   0  0  0  0  0  0  0  0  0  0  0  0
    1.0773   -0.6133    0.5681 C   0  0  2  0  0  0  0  0  0  0  0  0
   -0.2100   -1.2825    0.6703 C   0  0  0  0  0  0  0  0  0  0  0  0
   -4.0997    1.1340    1.3345 H   0  0  0  0  0  0  0  0  0  0  0  0
   -3.0483    1.6884   -0.0635 H   0  0  0  0  0  0  0  0  0  0  0  0
    0.0157    1.5082    1.0419 H   0  0  0  0  0  0  0  0  0  0  0  0
   -0.9779    1.7282   -0.4806 H   0  0  0  0  0  0  0  0  0  0  0  0
    0.4144   -0.2711   -1.4364 H   0  0  0  0  0  0  0  0  0  0  0  0
    3.9569   -0.1497   -0.9812 H   0  0  0  0  0  0  0  0  0  0  0  0
    1.2525    0.0619    1.4303 H   0  0  0  0  0  0  0  0  0  0  0  0
   -0.4106   -1.7583    1.6468 H   0  0  0  0  0  0  0  0  0  0  0  0
   -0.3806   -1.9804   -0.1555 H   0  0  0  0  0  0  0  0  0  0  0  0
  1  2  1  0
  2  3  2  0
  2  4  1  0
  4  5  1  0
  5  6  1  0
  6  7  1  0
  7  8  2  0
  7  9  1  0
  9 10  1  0
 10 11  2  0
 10 12  1  0
 12 13  1  0
 13  4  1  0
 12  6  1  0
  1 14  1  0
  1 15  1  0
  5 16  1  0
  5 17  1  0
  6 18  1  6
  9 19  1  0
 12 20  1  1
 13 21  1  0
 13 22  1  0
M  END
$$$$

     RDKit          3D

 22 23  0  0  0  0  0  0  0  0999 V2000
    3.0403    0.1830    1.5907 N   0  0  0  0  0  0  0  0  0  0  0  0
    2.5566    0.0669    0.2633 C   0  0  0  0  0  0  0  0  0  0  0  0
    3.6586    0.0812   -0.9445 S   0  0  0  0  0  0  0  0  0  0  0  0
    1.1811   -0.0532    0.0429 N   0  0  0  0  0  0  0  0  0  0  0  0
    0.1700   -0.0704    1.0822 C   0  0  0  0  0  0  0  0  0  0  0  0
   -1.0263   -0.4855    0.3139 C   0  0  1  0  0  0  0  0  0  0  0  0
   -2.3327    0.0351    0.6136 C   0  0  0  0  0  0  0  0  0  0  0  0
   -2.8215    0.3423    1.7154 O   0  0  0  0  0  0  0  0  0  0  0  0
   -2.9922    0.1368   -0.6541 N   0  0  0  0  0  0  0  0  0  0  0  0
   -1.9559    0.0801   -1.6674 C   0  0  0  0  0  0  0  0  0  0  0  0
   -2.1767   -0.1763   -2.8603 O   0  0  0  0  0  0  0  0  0  0  0  0
   -0.7531    0.3733   -0.9589 C   0  0  2  0  0  0  0  0  0  0  0  0
    0.5583   -0.1793   -1.2693 C   0  0  0  0  0  0  0  0  0  0  0  0
    3.2898   -0.6499    2.1897 H   0  0  0  0  0  0  0  0  0  0  0  0
    3.1842    1.1109    2.0714 H   0  0  0  0  0  0  0  0  0  0  0  0
    0.4579   -0.8586    1.8181 H   0  0  0  0  0  0  0  0  0  0  0  0
    0.0166    0.8896    1.5662 H   0  0  0  0  0  0  0  0  0  0  0  0
   -1.0501   -1.5405    0.0147 H   0  0  0  0  0  0  0  0  0  0  0  0
   -4.0299    0.2331   -0.7857 H   0  0  0  0  0  0  0  0  0  0  0  0
   -0.6602    1.4144   -0.5809 H   0  0  0  0  0  0  0  0  0  0  0  0
    1.1372    0.3280   -2.0587 H   0  0  0  0  0  0  0  0  0  0  0  0
    0.5479   -1.2610   -1.5024 H   0  0  0  0  0  0  0  0  0  0  0  0
  1  2  1  0
  2  3  2  0
  2  4  1  0
  4  5  1  0
  5  6  1  0
  6  7  1  0
  7  8  2  0
  7  9  1  0
  9 10  1  0
 10 11  2  0
 10 12  1  0
 12 13  1  0
 13  4  1  0
 12  6  1  0
  1 14  1  0
  1 15  1  0
  5 16  1  0
  5 17  1  0
  6 18  1  6
  9 19  1  0
 12 20  1  1
 13 21  1  0
 13 22  1  0
M  END
$$$$
