
     RDKit          3D

 27 28  0  0  0  0  0  0  0  0999 V2000
   -0.2297    1.7296    1.4680 C   0  0  0  0  0  0  0  0  0  0  0  0
   -0.5089    0.7369    0.5756 N   0  0  0  0  0  0  0  0  0  0  0  0
   -0.3820    0.9234   -0.8140 C   0  0  1  0  0  0  0  0  0  0  0  0
    0.9689    0.5601   -1.3360 C   0  0  0  0  0  0  0  0  0  0  0  0
    1.8325   -0.1965   -0.4085 C   0  0  1  0  0  0  0  0  0  0  0  0
    2.7242    0.6954    0.2072 O   0  0  0  0  0  0  0  0  0  0  0  0
    1.1412   -0.9788    0.6436 C   0  0  0  0  0  0  0  0  0  0  0  0
   -0.3126   -0.6142    0.8218 C   0  0  2  0  0  0  0  0  0  0  0  0
   -1.0619   -1.2740   -0.3452 C   0  0  1  0  0  0  0  0  0  0  0  0
   -2.1970   -1.8850    0.1385 O   0  0  0  0  0  0  0  0  0  0  0  0
   -1.3784   -0.1414   -1.3073 C   0  0  1  0  0  0  0  0  0  0  0  0
   -2.6819    0.3076   -1.0939 O   0  0  0  0  0  0  0  0  0  0  0  0
    0.1241    1.3691    2.4498 H   0  0  0  0  0  0  0  0  0  0  0  0
   -1.1680    2.3276    1.6751 H   0  0  0  0  0  0  0  0  0  0  0  0
    0.4960    2.4883    1.0879 H   0  0  0  0  0  0  0  0  0  0  0  0
   -0.7240    1.9291   -1.0907 H   0  0  0  0  0  0  0  0  0  0  0  0
    0.8395   -0.0424   -2.2695 H   0  0  0  0  0  0  0  0  0  0  0  0
    1.4546    1.5152   -1.6908 H   0  0  0  0  0  0  0  0  0  0  0  0
    2.4862   -0.9133   -0.9874 H   0  0  0  0  0  0  0  0  0  0  0  0
    3.2129    0.1903    0.8946 H   0  0  0  0  0  0  0  0  0  0  0  0
    1.6252   -0.8371    1.6476 H   0  0  0  0  0  0  0  0  0  0  0  0
    1.1733   -2.0844    0.4622 H   0  0  0  0  0  0  0  0  0  0  0  0
   -0.7021   -1.0060    1.7637 H   0  0  0  0  0  0  0  0  0  0  0  0
   -0.4423   -2.0090   -0.8685 H   0  0  0  0  0  0  0  0  0  0  0  0
   -2.0246   -2.3243    0.9988 H   0  0  0  0  0  0  0  0  0  0  0  0
   -1.1758   -0.3916   -2.3503 H   0  0  0  0  0  0  0  0  0  0  0  0
   -3.0893   -0.0747   -0.2724 H   0  0  0  0  0  0  0  0  0  0  0  0
  1  2  1  0
  2  3  1  0
  3  4  1  0
  4  5  1  0
  5  6  1  0
  5  7  1  0
  7  8  1  0
  8  9  1  0
  9 10  1  0
  9 11  1  0
 11 12  1  0
  8  2  1  0
 11  3  1  0
  1 13  1  0
  1 14  1  0
  1 15  1  0
  3 16  1  1
  4 17  1  0
  4 18  1  0
  5 19  1  6
  6 20  1  0
  7 21  1  0
  7 22  1  0
  8 23  1  1
  9 24  1  6
 10 25  1  0
 11 26  1  6
 12 27  1  0
M  END
$$$$

     RDKit          3D

 27 28  0  0  0  0  0  0  0  0999 V2000
    2.2043   -1.1591   -0.4092 C   0  0  0  0  0  0  0  0  0  0  0  0
    1.0398   -0.4933   -0.2208 N   0  0  0  0  0  0  0  0  0  0  0  0
    0.2327    0.0034   -1.2407 C   0  0  1  0  0  0  0  0  0  0  0  0
   -1.0754   -0.8032   -1.1945 C   0  0  0  0  0  0  0  0  0  0  0  0
   -1.7087   -0.6738    0.1473 C   0  0  1  0  0  0  0  0  0  0  0  0
   -2.6713   -1.7003    0.2574 O   0  0  0  0  0  0  0  0  0  0  0  0
   -0.7732   -0.7502    1.3001 C   0  0  0  0  0  0  0  0  0  0  0  0
    0.5541   -0.0763    1.0016 C   0  0  2  0  0  0  0  0  0  0  0  0
    0.2177    1.3999    0.7461 C   0  0  1  0  0  0  0  0  0  0  0  0
    1.3501    2.1445    1.0559 O   0  0  0  0  0  0  0  0  0  0  0  0
   -0.0853    1.4189   -0.7382 C   0  0  1  0  0  0  0  0  0  0  0  0
    0.7869    2.3254   -1.3310 O   0  0  0  0  0  0  0  0  0  0  0  0
    2.2153   -2.1386    0.1519 H   0  0  0  0  0  0  0  0  0  0  0  0
    3.0869   -0.6010    0.0084 H   0  0  0  0  0  0  0  0  0  0  0  0
    2.4073   -1.4020   -1.4520 H   0  0  0  0  0  0  0  0  0  0  0  0
    0.6440    0.0607   -2.2494 H   0  0  0  0  0  0  0  0  0  0  0  0
   -1.7654   -0.5195   -1.9847 H   0  0  0  0  0  0  0  0  0  0  0  0
   -0.7506   -1.8657   -1.3490 H   0  0  0  0  0  0  0  0  0  0  0  0
   -2.2939    0.2763    0.1575 H   0  0  0  0  0  0  0  0  0  0  0  0
   -2.7385   -2.0331    1.1850 H   0  0  0  0  0  0  0  0  0  0  0  0
   -1.2325   -0.1508    2.1404 H   0  0  0  0  0  0  0  0  0  0  0  0
   -0.6392   -1.7630    1.7042 H   0  0  0  0  0  0  0  0  0  0  0  0
    1.2622   -0.2117    1.8083 H   0  0  0  0  0  0  0  0  0  0  0  0
   -0.6610    1.6905    1.3399 H   0  0  0  0  0  0  0  0  0  0  0  0
    1.2539    2.4337    2.0121 H   0  0  0  0  0  0  0  0  0  0  0  0
   -1.1445    1.6683   -0.9014 H   0  0  0  0  0  0  0  0  0  0  0  0
    0.2845    2.9202   -1.9453 H   0  0  0  0  0  0  0  0  0  0  0  0
  1  2  1  0
  2  3  1  0
  3  4  1  0
  4  5  1  0
  5  6  1  0
  5  7  1  0
  7  8  1  0
  8  9  1  0
  9 10  1  0
  9 11  1  0
 11 12  1  0
  8  2  1  0
 11  3  1  0
  1 13  1  0
  1 14  1  0
  1 15  1  0
  3 16  1  6
  4 17  1  0
  4 18  1  0
  5 19  1  6
  6 20  1  0
  7 21  1  0
  7 22  1  0
  8 23  1  1
  9 24  1  1
 10 25  1  0
 11 26  1  1
 12 27  1  0
M  END
$$$$

     RDKit          3D

 27 28  0  0  0  0  0  0  0  0999 V2000
   -0.4414    2.2604   -0.3360 C   0  0  0  0  0  0  0  0  0  0  0  0
   -0.1902    0.9451   -0.1424 N   0  0  0  0  0  0  0  0  0  0  0  0
   -0.1339   -0.0136   -1.1547 C   0  0  1  0  0  0  0  0  0  0  0  0
    1.1517   -0.8195   -0.9858 C   0  0  0  0  0  0  0  0  0  0  0  0
    1.9465   -0.4062    0.1991 C   0  0  1  0  0  0  0  0  0  0  0  0
    2.7522    0.6777   -0.1776 O   0  0  0  0  0  0  0  0  0  0  0  0
    1.1560   -0.1257    1.4301 C   0  0  0  0  0  0  0  0  0  0  0  0
   -0.2805    0.3036    1.0878 C   0  0  2  0  0  0  0  0  0  0  0  0
   -1.1120   -0.9484    0.7733 C   0  0  1  0  0  0  0  0  0  0  0  0
   -2.3220   -0.9437    1.4229 O   0  0  0  0  0  0  0  0  0  0  0  0
   -1.2631   -0.9679   -0.7311 C   0  0  1  0  0  0  0  0  0  0  0  0
   -2.4774   -0.4123   -1.1332 O   0  0  0  0  0  0  0  0  0  0  0  0
    0.4968    2.8824   -0.2357 H   0  0  0  0  0  0  0  0  0  0  0  0
   -0.8810    2.5538   -1.3016 H   0  0  0  0  0  0  0  0  0  0  0  0
   -1.1259    2.6794    0.4566 H   0  0  0  0  0  0  0  0  0  0  0  0
   -0.2776    0.3455   -2.1741 H   0  0  0  0  0  0  0  0  0  0  0  0
    1.7627   -0.6333   -1.9101 H   0  0  0  0  0  0  0  0  0  0  0  0
    0.9611   -1.9001   -0.9477 H   0  0  0  0  0  0  0  0  0  0  0  0
    2.6543   -1.2428    0.4405 H   0  0  0  0  0  0  0  0  0  0  0  0
    3.1616    0.4651   -1.0500 H   0  0  0  0  0  0  0  0  0  0  0  0
    1.6072    0.7897    1.9152 H   0  0  0  0  0  0  0  0  0  0  0  0
    1.1637   -0.9129    2.1856 H   0  0  0  0  0  0  0  0  0  0  0  0
   -0.7306    0.8925    1.8850 H   0  0  0  0  0  0  0  0  0  0  0  0
   -0.5474   -1.8630    1.0768 H   0  0  0  0  0  0  0  0  0  0  0  0
   -2.9226   -1.5766    0.9654 H   0  0  0  0  0  0  0  0  0  0  0  0
   -1.0957   -1.9713   -1.1642 H   0  0  0  0  0  0  0  0  0  0  0  0
   -3.0124   -0.0578   -0.3942 H   0  0  0  0  0  0  0  0  0  0  0  0
  1  2  1  0
  2  3  1  0
  3  4  1  0
  4  5  1  0
  5  6  1  0
  5  7  1  0
  7  8  1  0
  8  9  1  0
  9 10  1  0
  9 11  1  0
 11 12  1  0
  8  2  1  0
 11  3  1  0
  1 13  1  0
  1 14  1  0
  1 15  1  0
  3 16  1  6
  4 17  1  0
  4 18  1  0
  5 19  1  1
  6 20  1  0
  7 21  1  0
  7 22  1  0
  8 23  1  1
  9 24  1  1
 10 25  1  0
 11 26  1  6
 12 27  1  0
M  END
$$$$

     RDKit          3D

 27 28  0  0  0  0  0  0  0  0999 V2000
   -1.5951   -1.8477    0.3518 C   0  0  0  0  0  0  0  0  0  0  0  0
   -0.8725   -0.7268    0.0918 N   0  0  0  0  0  0  0  0  0  0  0  0
   -0.4819    0.2033    1.0483 C   0  0  1  0  0  0  0  0  0  0  0  0
    0.9912   -0.0678    1.3904 C   0  0  0  0  0  0  0  0  0  0  0  0
    1.8296    0.0180    0.1499 C   0  0  1  0  0  0  0  0  0  0  0  0
    3.0823   -0.5342    0.4442 O   0  0  0  0  0  0  0  0  0  0  0  0
    1.2234   -0.6554   -1.0417 C   0  0  0  0  0  0  0  0  0  0  0  0
   -0.2683   -0.4468   -1.1224 C   0  0  2  0  0  0  0  0  0  0  0  0
   -0.4987    1.0720   -1.2173 C   0  0  1  0  0  0  0  0  0  0  0  0
   -1.7850    1.2196   -1.7368 O   0  0  0  0  0  0  0  0  0  0  0  0
   -0.4847    1.5073    0.2392 C   0  0  1  0  0  0  0  0  0  0  0  0
   -1.6209    2.2523    0.4824 O   0  0  0  0  0  0  0  0  0  0  0  0
   -1.7371   -2.0476    1.4139 H   0  0  0  0  0  0  0  0  0  0  0  0
   -2.6097   -1.8038   -0.1441 H   0  0  0  0  0  0  0  0  0  0  0  0
   -1.1074   -2.7649   -0.0929 H   0  0  0  0  0  0  0  0  0  0  0  0
   -1.0796    0.2859    1.9630 H   0  0  0  0  0  0  0  0  0  0  0  0
    1.3492    0.6408    2.1363 H   0  0  0  0  0  0  0  0  0  0  0  0
    1.0253   -1.1223    1.7558 H   0  0  0  0  0  0  0  0  0  0  0  0
    2.0370    1.0871   -0.1281 H   0  0  0  0  0  0  0  0  0  0  0  0
    3.8227   -0.0093    0.0070 H   0  0  0  0  0  0  0  0  0  0  0  0
    1.6767   -0.2120   -1.9587 H   0  0  0  0  0  0  0  0  0  0  0  0
    1.4913   -1.7204   -1.0327 H   0  0  0  0  0  0  0  0  0  0  0  0
   -0.6830   -0.9815   -1.9697 H   0  0  0  0  0  0  0  0  0  0  0  0
    0.2787    1.5341   -1.8186 H   0  0  0  0  0  0  0  0  0  0  0  0
   -2.4067    0.7971   -1.0766 H   0  0  0  0  0  0  0  0  0  0  0  0
    0.3865    2.1288    0.4676 H   0  0  0  0  0  0  0  0  0  0  0  0
   -1.9634    2.1944    1.3976 H   0  0  0  0  0  0  0  0  0  0  0  0
  1  2  1  0
  2  3  1  0
  3  4  1  0
  4  5  1  0
  5  6  1  0
  5  7  1  0
  7  8  1  0
  8  9  1  0
  9 10  1  0
  9 11  1  0
 11 12  1  0
  8  2  1  0
 11  3  1  0
  1 13  1  0
  1 14  1  0
  1 15  1  0
  3 16  1  1
  4 17  1  0
  4 18  1  0
  5 19  1  6
  6 20  1  0
  7 21  1  0
  7 22  1  0
  8 23  1  6
  9 24  1  6
 10 25  1  0
 11 26  1  6
 12 27  1  0
M  END
$$$$

     RDKit          3D

 27 28  0  0  0  0  0  0  0  0999 V2000
   -0.0417    2.0972   -1.2124 C   0  0  0  0  0  0  0  0  0  0  0  0
    0.5518    1.0140   -0.5614 N   0  0  0  0  0  0  0  0  0  0  0  0
    0.2597    0.8382    0.8226 C   0  0  1  0  0  0  0  0  0  0  0  0
   -1.1996    0.4851    1.0236 C   0  0  0  0  0  0  0  0  0  0  0  0
   -1.4327   -0.8895    0.4543 C   0  0  1  0  0  0  0  0  0  0  0  0
   -2.7822   -1.1815    0.5427 O   0  0  0  0  0  0  0  0  0  0  0  0
   -1.0104   -0.8344   -1.0123 C   0  0  0  0  0  0  0  0  0  0  0  0
    0.3855   -0.2787   -1.1229 C   0  0  2  0  0  0  0  0  0  0  0  0
    1.2509   -1.1240   -0.1726 C   0  0  1  0  0  0  0  0  0  0  0  0
    2.5450   -1.0669   -0.7021 O   0  0  0  0  0  0  0  0  0  0  0  0
    1.1623   -0.3616    1.1488 C   0  0  1  0  0  0  0  0  0  0  0  0
    2.4227    0.1542    1.4488 O   0  0  0  0  0  0  0  0  0  0  0  0
   -0.7798    1.8758   -1.9916 H   0  0  0  0  0  0  0  0  0  0  0  0
   -0.4751    2.8014   -0.4604 H   0  0  0  0  0  0  0  0  0  0  0  0
    0.7687    2.7011   -1.7184 H   0  0  0  0  0  0  0  0  0  0  0  0
    0.5545    1.6978    1.4344 H   0  0  0  0  0  0  0  0  0  0  0  0
   -1.8065    1.1917    0.3964 H   0  0  0  0  0  0  0  0  0  0  0  0
   -1.5326    0.5728    2.0620 H   0  0  0  0  0  0  0  0  0  0  0  0
   -0.8860   -1.6725    0.9978 H   0  0  0  0  0  0  0  0  0  0  0  0
   -3.1736   -1.4474   -0.3167 H   0  0  0  0  0  0  0  0  0  0  0  0
   -1.7511   -0.3273   -1.6239 H   0  0  0  0  0  0  0  0  0  0  0  0
   -0.9422   -1.9141   -1.3312 H   0  0  0  0  0  0  0  0  0  0  0  0
    0.7375   -0.3404   -2.1558 H   0  0  0  0  0  0  0  0  0  0  0  0
    0.8534   -2.1372   -0.1039 H   0  0  0  0  0  0  0  0  0  0  0  0
    3.1878   -1.5127   -0.1293 H   0  0  0  0  0  0  0  0  0  0  0  0
    0.7724   -0.9652    1.9640 H   0  0  0  0  0  0  0  0  0  0  0  0
    2.3613    0.6242    2.3195 H   0  0  0  0  0  0  0  0  0  0  0  0
  1  2  1  0
  2  3  1  0
  3  4  1  0
  4  5  1  0
  5  6  1  0
  5  7  1  0
  7  8  1  0
  8  9  1  0
  9 10  1  0
  9 11  1  0
 11 12  1  0
  8  2  1  0
 11  3  1  0
  1 13  1  0
  1 14  1  0
  1 15  1  0
  3 16  1  1
  4 17  1  0
  4 18  1  0
  5 19  1  1
  6 20  1  0
  7 21  1  0
  7 22  1  0
  8 23  1  6
  9 24  1  1
 10 25  1  0
 11 26  1  1
 12 27  1  0
M  END
$$$$

     RDKit          3D

 27 28  0  0  0  0  0  0  0  0999 V2000
   -1.5247   -1.6975   -1.0859 C   0  0  0  0  0  0  0  0  0  0  0  0
   -0.5433   -0.8737   -0.5857 N   0  0  0  0  0  0  0  0  0  0  0  0
   -0.1398   -0.8730    0.7320 C   0  0  1  0  0  0  0  0  0  0  0  0
    1.3612   -0.6285    0.8115 C   0  0  0  0  0  0  0  0  0  0  0  0
    1.8541    0.4013   -0.1278 C   0  0  1  0  0  0  0  0  0  0  0  0
    3.1932    0.0789   -0.4522 O   0  0  0  0  0  0  0  0  0  0  0  0
    1.1117    0.5343   -1.4080 C   0  0  0  0  0  0  0  0  0  0  0  0
   -0.3858    0.4309   -1.0813 C   0  0  2  0  0  0  0  0  0  0  0  0
   -0.7266    1.3120    0.0999 C   0  0  1  0  0  0  0  0  0  0  0  0
   -2.0071    1.8725   -0.0214 O   0  0  0  0  0  0  0  0  0  0  0  0
   -0.7771    0.3985    1.3114 C   0  0  1  0  0  0  0  0  0  0  0  0
   -2.0695    0.0834    1.6650 O   0  0  0  0  0  0  0  0  0  0  0  0
   -1.2221   -2.0681   -2.1097 H   0  0  0  0  0  0  0  0  0  0  0  0
   -2.4712   -1.1255   -1.2787 H   0  0  0  0  0  0  0  0  0  0  0  0
   -1.7608   -2.5419   -0.4468 H   0  0  0  0  0  0  0  0  0  0  0  0
   -0.3804   -1.7553    1.3462 H   0  0  0  0  0  0  0  0  0  0  0  0
    1.9085   -1.5948    0.7832 H   0  0  0  0  0  0  0  0  0  0  0  0
    1.5257   -0.2407    1.8606 H   0  0  0  0  0  0  0  0  0  0  0  0
    1.9068    1.4077    0.3463 H   0  0  0  0  0  0  0  0  0  0  0  0
    3.8261    0.5570    0.1264 H   0  0  0  0  0  0  0  0  0  0  0  0
    1.3630    1.4543   -1.9209 H   0  0  0  0  0  0  0  0  0  0  0  0
    1.3374   -0.3861   -2.0214 H   0  0  0  0  0  0  0  0  0  0  0  0
   -1.0137    0.5962   -1.9530 H   0  0  0  0  0  0  0  0  0  0  0  0
   -0.0315    2.1541    0.2305 H   0  0  0  0  0  0  0  0  0  0  0  0
   -2.1186    2.4447    0.7857 H   0  0  0  0  0  0  0  0  0  0  0  0
   -0.1636    0.7860    2.1522 H   0  0  0  0  0  0  0  0  0  0  0  0
   -2.0518   -0.7267    2.2418 H   0  0  0  0  0  0  0  0  0  0  0  0
  1  2  1  0
  2  3  1  0
  3  4  1  0
  4  5  1  0
  5  6  1  0
  5  7  1  0
  7  8  1  0
  8  9  1  0
  9 10  1  0
  9 11  1  0
 11 12  1  0
  8  2  1  0
 11  3  1  0
  1 13  1  0
  1 14  1  0
  1 15  1  0
  3 16  1  1
  4 17  1  0
  4 18  1  0
  5 19  1  1
  6 20  1  0
  7 21  1  0
  7 22  1  0
  8 23  1  6
  9 24  1  1
 10 25  1  0
 11 26  1  1
 12 27  1  0
M  END
$$$$

     RDKit          3D

 27 28  0  0  0  0  0  0  0  0999 V2000
   -1.8523   -1.4177    0.8924 C   0  0  0  0  0  0  0  0  0  0  0  0
   -0.5652   -0.9751    0.5226 N   0  0  0  0  0  0  0  0  0  0  0  0
   -0.1282    0.2517    1.0831 C   0  0  1  0  0  0  0  0  0  0  0  0
    1.4055    0.1894    1.1162 C   0  0  0  0  0  0  0  0  0  0  0  0
    1.9375   -0.0090   -0.2638 C   0  0  1  0  0  0  0  0  0  0  0  0
    3.2609   -0.4914   -0.1762 O   0  0  0  0  0  0  0  0  0  0  0  0
    1.1694   -0.9861   -1.0924 C   0  0  0  0  0  0  0  0  0  0  0  0
   -0.3409   -0.8130   -0.8842 C   0  0  2  0  0  0  0  0  0  0  0  0
   -0.7128    0.6178   -1.1847 C   0  0  1  0  0  0  0  0  0  0  0  0
   -2.0501    0.6616   -1.5460 O   0  0  0  0  0  0  0  0  0  0  0  0
   -0.4692    1.3618    0.1007 C   0  0  1  0  0  0  0  0  0  0  0  0
   -1.6224    2.0410    0.4508 O   0  0  0  0  0  0  0  0  0  0  0  0
   -2.1266   -2.2879    0.2415 H   0  0  0  0  0  0  0  0  0  0  0  0
   -2.6556   -0.6691    0.8343 H   0  0  0  0  0  0  0  0  0  0  0  0
   -1.8043   -1.8334    1.9288 H   0  0  0  0  0  0  0  0  0  0  0  0
   -0.5163    0.4841    2.0846 H   0  0  0  0  0  0  0  0  0  0  0  0
    1.6418   -0.6869    1.7815 H   0  0  0  0  0  0  0  0  0  0  0  0
    1.8088    1.1159    1.5334 H   0  0  0  0  0  0  0  0  0  0  0  0
    1.9378    0.9621   -0.7975 H   0  0  0  0  0  0  0  0  0  0  0  0
    3.4104   -0.8420    0.7438 H   0  0  0  0  0  0  0  0  0  0  0  0
    1.3772   -0.8020   -2.1586 H   0  0  0  0  0  0  0  0  0  0  0  0
    1.3955   -2.0453   -0.8060 H   0  0  0  0  0  0  0  0  0  0  0  0
   -0.8961   -1.5146   -1.5008 H   0  0  0  0  0  0  0  0  0  0  0  0
   -0.0774    1.0156   -2.0007 H   0  0  0  0  0  0  0  0  0  0  0  0
   -2.4147    1.5833   -1.4707 H   0  0  0  0  0  0  0  0  0  0  0  0
    0.3776    2.0824   -0.0176 H   0  0  0  0  0  0  0  0  0  0  0  0
   -1.4904    3.0069    0.5855 H   0  0  0  0  0  0  0  0  0  0  0  0
  1  2  1  0
  2  3  1  0
  3  4  1  0
  4  5  1  0
  5  6  1  0
  5  7  1  0
  7  8  1  0
  8  9  1  0
  9 10  1  0
  9 11  1  0
 11 12  1  0
  8  2  1  0
 11  3  1  0
  1 13  1  0
  1 14  1  0
  1 15  1  0
  3 16  1  1
  4 17  1  0
  4 18  1  0
  5 19  1  6
  6 20  1  0
  7 21  1  0
  7 22  1  0
  8 23  1  6
  9 24  1  6
 10 25  1  0
 11 26  1  6
 12 27  1  0
M  END
$$$$

     RDKit          3D

 27 28  0  0  0  0  0  0  0  0999 V2000
   -1.4576    1.4947    1.1350 C   0  0  0  0  0  0  0  0  0  0  0  0
   -0.6062    0.6567    0.4965 N   0  0  0  0  0  0  0  0  0  0  0  0
   -0.4212    0.6132   -0.8782 C   0  0  1  0  0  0  0  0  0  0  0  0
    1.0601    0.8519   -1.1414 C   0  0  0  0  0  0  0  0  0  0  0  0
    1.9556    0.0459   -0.2906 C   0  0  1  0  0  0  0  0  0  0  0  0
    3.0967    0.8295    0.0016 O   0  0  0  0  0  0  0  0  0  0  0  0
    1.3990   -0.4783    0.9711 C   0  0  0  0  0  0  0  0  0  0  0  0
   -0.1036   -0.5193    1.0352 C   0  0  2  0  0  0  0  0  0  0  0  0
   -0.6654   -1.5830    0.0822 C   0  0  1  0  0  0  0  0  0  0  0  0
   -1.9612   -1.8695    0.4575 O   0  0  0  0  0  0  0  0  0  0  0  0
   -0.7566   -0.8212   -1.2471 C   0  0  1  0  0  0  0  0  0  0  0  0
   -1.9927   -0.9513   -1.8332 O   0  0  0  0  0  0  0  0  0  0  0  0
   -2.3794    1.7500    0.5505 H   0  0  0  0  0  0  0  0  0  0  0  0
   -0.9697    2.4973    1.3212 H   0  0  0  0  0  0  0  0  0  0  0  0
   -1.7504    1.1331    2.1394 H   0  0  0  0  0  0  0  0  0  0  0  0
   -1.0176    1.3447   -1.4163 H   0  0  0  0  0  0  0  0  0  0  0  0
    1.2968    0.6899   -2.2025 H   0  0  0  0  0  0  0  0  0  0  0  0
    1.2248    1.9471   -0.9379 H   0  0  0  0  0  0  0  0  0  0  0  0
    2.3587   -0.8141   -0.8954 H   0  0  0  0  0  0  0  0  0  0  0  0
    3.7561    0.3351    0.5236 H   0  0  0  0  0  0  0  0  0  0  0  0
    1.7979   -1.5083    1.2044 H   0  0  0  0  0  0  0  0  0  0  0  0
    1.7416    0.1517    1.8214 H   0  0  0  0  0  0  0  0  0  0  0  0
   -0.4233   -0.7199    2.0602 H   0  0  0  0  0  0  0  0  0  0  0  0
   -0.0221   -2.4573    0.0153 H   0  0  0  0  0  0  0  0  0  0  0  0
   -2.4819   -1.0290    0.4685 H   0  0  0  0  0  0  0  0  0  0  0  0
   -0.0059   -1.2490   -1.9338 H   0  0  0  0  0  0  0  0  0  0  0  0
   -2.6724   -0.3407   -1.5071 H   0  0  0  0  0  0  0  0  0  0  0  0
  1  2  1  0
  2  3  1  0
  3  4  1  0
  4  5  1  0
  5  6  1  0
  5  7  1  0
  7  8  1  0
  8  9  1  0
  9 10  1  0
  9 11  1  0
 11 12  1  0
  8  2  1  0
 11  3  1  0
  1 13  1  0
  1 14  1  0
  1 15  1  0
  3 16  1  6
  4 17  1  0
  4 18  1  0
  5 19  1  6
  6 20  1  0
  7 21  1  0
  7 22  1  0
  8 23  1  1
  9 24  1  6
 10 25  1  0
 11 26  1  6
 12 27  1  0
M  END
$$$$
