
     RDKit          3D

 22 23  0  0  0  0  0  0  0  0999 V2000
   -3.4194    0.3552   -0.1636 N   0  0  0  0  0  0  0  0  0  0  0  0
   -2.3433    0.1310   -1.0468 C   0  0  0  0  0  0  0  0  0  0  0  0
   -2.6385   -0.1734   -2.6134 S   0  0  0  0  0  0  0  0  0  0  0  0
   -1.0244    0.1693   -0.5813 N   0  0  0  0  0  0  0  0  0  0  0  0
    0.2255   -0.0324   -1.3168 C   0  0  0  0  0  0  0  0  0  0  0  0
    0.9767   -0.9380   -0.3741 C   0  0  1  0  0  0  0  0  0  0  0  0
    2.4265   -0.8248   -0.4862 C   0  0  0  0  0  0  0  0  0  0  0  0
    3.1680   -1.4609   -1.2713 O   0  0  0  0  0  0  0  0  0  0  0  0
    2.8747    0.1345    0.4485 N   0  0  0  0  0  0  0  0  0  0  0  0
    1.7481    0.6442    1.1904 C   0  0  0  0  0  0  0  0  0  0  0  0
    1.7755    1.7061    1.8657 O   0  0  0  0  0  0  0  0  0  0  0  0
    0.6533   -0.3124    0.9743 C   0  0  1  0  0  0  0  0  0  0  0  0
   -0.6351    0.4315    0.7965 C   0  0  0  0  0  0  0  0  0  0  0  0
   -3.8135    1.3084    0.0456 H   0  0  0  0  0  0  0  0  0  0  0  0
   -3.8767   -0.4432    0.3291 H   0  0  0  0  0  0  0  0  0  0  0  0
    0.0201   -0.5308   -2.2797 H   0  0  0  0  0  0  0  0  0  0  0  0
    0.7571    0.9059   -1.4985 H   0  0  0  0  0  0  0  0  0  0  0  0
    0.5915   -1.9739   -0.4442 H   0  0  0  0  0  0  0  0  0  0  0  0
    3.8661    0.4415    0.5953 H   0  0  0  0  0  0  0  0  0  0  0  0
    0.5822   -1.0838    1.7680 H   0  0  0  0  0  0  0  0  0  0  0  0
   -0.5144    1.5284    0.9036 H   0  0  0  0  0  0  0  0  0  0  0  0
   -1.4000    0.0177    1.4915 H   0  0  0  0  0  0  0  0  0  0  0  0
  1  2  1  0
  2  3  2  0
  2  4  1  0
  4  5  1  0
  5  6  1  0
  6  7  1  0
  7  8  2  0
  7  9  1  0
  9 10  1  0
 10 11  2  0
 10 12  1  0
 12 13  1  0
 13  4  1  0
 12  6  1  0
  1 14  1  0
  1 15  1  0
  5 16  1  0
  5 17  1  0
  6 18  1  1
  9 19  1  0
 12 20  1  1
 13 21  1  0
 13 22  1  0
M  END
$$$$

     RDKit          3D

 22 23  0  0  0  0  0  0  0  0999 V2000
    3.3115    0.8706    0.0144 N   0  0  0  0  0  0  0  0  0  0  0  0
    2.4388   -0.1685    0.4636 C   0  0  0  0  0  0  0  0  0  0  0  0
    3.0483   -1.3582    1.3834 S   0  0  0  0  0  0  0  0  0  0  0  0
    1.0652   -0.1891    0.1305 N   0  0  0  0  0  0  0  0  0  0  0  0
    0.1187   -1.1909    0.5370 C   0  0  0  0  0  0  0  0  0  0  0  0
   -1.0720   -1.0346   -0.4011 C   0  0  1  0  0  0  0  0  0  0  0  0
   -2.3366   -1.0620    0.3838 C   0  0  0  0  0  0  0  0  0  0  0  0
   -2.9932   -2.0840    0.6895 O   0  0  0  0  0  0  0  0  0  0  0  0
   -2.6096    0.3099    0.6926 N   0  0  0  0  0  0  0  0  0  0  0  0
   -1.9205    1.1722   -0.1761 C   0  0  0  0  0  0  0  0  0  0  0  0
   -2.0649    2.4038   -0.2814 O   0  0  0  0  0  0  0  0  0  0  0  0
   -0.9609    0.3531   -0.9751 C   0  0  1  0  0  0  0  0  0  0  0  0
    0.4225    0.8227   -0.6832 C   0  0  0  0  0  0  0  0  0  0  0  0
    4.0689    1.1871    0.6514 H   0  0  0  0  0  0  0  0  0  0  0  0
    3.1809    1.2904   -0.9273 H   0  0  0  0  0  0  0  0  0  0  0  0
    0.5631   -2.2056    0.4294 H   0  0  0  0  0  0  0  0  0  0  0  0
   -0.2247   -1.0449    1.5813 H   0  0  0  0  0  0  0  0  0  0  0  0
   -1.0443   -1.7983   -1.1849 H   0  0  0  0  0  0  0  0  0  0  0  0
   -3.2497    0.5958    1.4772 H   0  0  0  0  0  0  0  0  0  0  0  0
   -1.2149    0.3604   -2.0531 H   0  0  0  0  0  0  0  0  0  0  0  0
    0.4589    1.7912   -0.1254 H   0  0  0  0  0  0  0  0  0  0  0  0
    1.0146    0.9789   -1.6265 H   0  0  0  0  0  0  0  0  0  0  0  0
  1  2  1  0
  2  3  2  0
  2  4  1  0
  4  5  1  0
  5  6  1  0
  6  7  1  0
  7  8  2  0
  7  9  1  0
  9 10  1  0
 10 11  2  0
 10 12  1  0
 12 13  1  0
 13  4  1  0
 12  6  1  0
  1 14  1  0
  1 15  1  0
  5 16  1  0
  5 17  1  0
  6 18  1  6
  9 19  1  0
 12 20  1  6
 13 21  1  0
 13 22  1  0
M  END
$$$$

     RDKit          3D

 22 23  0  0  0  0  0  0  0  0999 V2000
    3.3982   -0.0032    0.8400 N   0  0  0  0  0  0  0  0  0  0  0  0
    2.5092    0.0985   -0.2873 C   0  0  0  0  0  0  0  0  0  0  0  0
    3.1979    0.5357   -1.7218 S   0  0  0  0  0  0  0  0  0  0  0  0
    1.1330   -0.1538   -0.2000 N   0  0  0  0  0  0  0  0  0  0  0  0
    0.1960   -0.0696   -1.2853 C   0  0  0  0  0  0  0  0  0  0  0  0
   -0.9237    0.7147   -0.6483 C   0  0  1  0  0  0  0  0  0  0  0  0
   -2.2511    0.3698   -1.1326 C   0  0  0  0  0  0  0  0  0  0  0  0
   -2.5931    0.4643   -2.3455 O   0  0  0  0  0  0  0  0  0  0  0  0
   -3.0204   -0.0640   -0.0220 N   0  0  0  0  0  0  0  0  0  0  0  0
   -2.1101   -0.4825    0.9730 C   0  0  0  0  0  0  0  0  0  0  0  0
   -2.3334   -1.3679    1.8342 O   0  0  0  0  0  0  0  0  0  0  0  0
   -0.8784    0.3046    0.8063 C   0  0  1  0  0  0  0  0  0  0  0  0
    0.3730   -0.5403    0.9539 C   0  0  0  0  0  0  0  0  0  0  0  0
    4.1060   -0.7571    0.7996 H   0  0  0  0  0  0  0  0  0  0  0  0
    3.3265    0.6434    1.6389 H   0  0  0  0  0  0  0  0  0  0  0  0
   -0.1554   -1.0926   -1.6087 H   0  0  0  0  0  0  0  0  0  0  0  0
    0.6116    0.4363   -2.1791 H   0  0  0  0  0  0  0  0  0  0  0  0
   -0.6672    1.7870   -0.7088 H   0  0  0  0  0  0  0  0  0  0  0  0
   -4.0833   -0.0598    0.0164 H   0  0  0  0  0  0  0  0  0  0  0  0
   -0.8449    1.1839    1.4810 H   0  0  0  0  0  0  0  0  0  0  0  0
    0.1253   -1.6319    0.8833 H   0  0  0  0  0  0  0  0  0  0  0  0
    0.8842   -0.3155    1.9128 H   0  0  0  0  0  0  0  0  0  0  0  0
  1  2  1  0
  2  3  2  0
  2  4  1  0
  4  5  1  0
  5  6  1  0
  6  7  1  0
  7  8  2  0
  7  9  1  0
  9 10  1  0
 10 11  2  0
 10 12  1  0
 12 13  1  0
 13  4  1  0
 12  6  1  0
  1 14  1  0
  1 15  1  0
  5 16  1  0
  5 17  1  0
  6 18  1  1
  9 19  1  0
 12 20  1  1
 13 21  1  0
 13 22  1  0
M  END
$$$$

     RDKit          3D

 22 23  0  0  0  0  0  0  0  0999 V2000
    3.0471    0.8542   -0.2803 N   0  0  0  0  0  0  0  0  0  0  0  0
    2.2188   -0.2246   -0.6603 C   0  0  0  0  0  0  0  0  0  0  0  0
    2.6669   -1.1720   -1.9099 S   0  0  0  0  0  0  0  0  0  0  0  0
    1.0036   -0.4845    0.0395 N   0  0  0  0  0  0  0  0  0  0  0  0
    0.4552    0.2350    1.1507 C   0  0  0  0  0  0  0  0  0  0  0  0
   -1.0280    0.1172    1.0447 C   0  0  1  0  0  0  0  0  0  0  0  0
   -1.6942    1.3406    0.5540 C   0  0  0  0  0  0  0  0  0  0  0  0
   -1.7026    2.4441    1.1490 O   0  0  0  0  0  0  0  0  0  0  0  0
   -2.3232    1.0753   -0.6944 N   0  0  0  0  0  0  0  0  0  0  0  0
   -1.8031   -0.1753   -1.1318 C   0  0  0  0  0  0  0  0  0  0  0  0
   -1.8114   -0.5596   -2.3512 O   0  0  0  0  0  0  0  0  0  0  0  0
   -1.2605   -0.9492    0.0217 C   0  0  1  0  0  0  0  0  0  0  0  0
    0.0728   -1.5579   -0.2553 C   0  0  0  0  0  0  0  0  0  0  0  0
    3.9835    0.9865   -0.6853 H   0  0  0  0  0  0  0  0  0  0  0  0
    2.7236    1.5426    0.4229 H   0  0  0  0  0  0  0  0  0  0  0  0
    0.7738   -0.2954    2.0840 H   0  0  0  0  0  0  0  0  0  0  0  0
    0.8031    1.2865    1.2042 H   0  0  0  0  0  0  0  0  0  0  0  0
   -1.5032   -0.1866    2.0087 H   0  0  0  0  0  0  0  0  0  0  0  0
   -3.0351    1.6712   -1.2111 H   0  0  0  0  0  0  0  0  0  0  0  0
   -2.0254   -1.6840    0.3422 H   0  0  0  0  0  0  0  0  0  0  0  0
    0.1984   -1.8887   -1.3087 H   0  0  0  0  0  0  0  0  0  0  0  0
    0.2400   -2.3753    0.4668 H   0  0  0  0  0  0  0  0  0  0  0  0
  1  2  1  0
  2  3  2  0
  2  4  1  0
  4  5  1  0
  5  6  1  0
  6  7  1  0
  7  8  2  0
  7  9  1  0
  9 10  1  0
 10 11  2  0
 10 12  1  0
 12 13  1  0
 13  4  1  0
 12  6  1  0
  1 14  1  0
  1 15  1  0
  5 16  1  0
  5 17  1  0
  6 18  1  1
  9 19  1  0
 12 20  1  1
 13 21  1  0
 13 22  1  0
M  END
$$$$

     RDKit          3D

 22 23  0  0  0  0  0  0  0  0999 V2000
    3.3230    0.8182    0.1116 N   0  0  0  0  0  0  0  0  0  0  0  0
    2.5284   -0.3588    0.0505 C   0  0  0  0  0  0  0  0  0  0  0  0
    3.1841   -1.8425    0.2113 S   0  0  0  0  0  0  0  0  0  0  0  0
    1.1547   -0.2336   -0.1523 N   0  0  0  0  0  0  0  0  0  0  0  0
    0.3357    0.9692   -0.3238 C   0  0  0  0  0  0  0  0  0  0  0  0
   -0.7626    0.6761    0.7055 C   0  0  1  0  0  0  0  0  0  0  0  0
   -2.0481    1.2044    0.2169 C   0  0  0  0  0  0  0  0  0  0  0  0
   -2.2431    2.4100   -0.0649 O   0  0  0  0  0  0  0  0  0  0  0  0
   -2.9541    0.1308    0.1394 N   0  0  0  0  0  0  0  0  0  0  0  0
   -2.2446   -1.0777    0.1368 C   0  0  0  0  0  0  0  0  0  0  0  0
   -2.6863   -2.1809   -0.2723 O   0  0  0  0  0  0  0  0  0  0  0  0
   -0.8933   -0.8307    0.6962 C   0  0  1  0  0  0  0  0  0  0  0  0
    0.1933   -1.3131   -0.2417 C   0  0  0  0  0  0  0  0  0  0  0  0
    3.5113    1.2347    1.0370 H   0  0  0  0  0  0  0  0  0  0  0  0
    3.6843    1.2119   -0.7982 H   0  0  0  0  0  0  0  0  0  0  0  0
    0.8740    1.8872   -0.1161 H   0  0  0  0  0  0  0  0  0  0  0  0
   -0.1252    0.8940   -1.3133 H   0  0  0  0  0  0  0  0  0  0  0  0
   -0.4637    1.0585    1.6932 H   0  0  0  0  0  0  0  0  0  0  0  0
   -4.0084    0.2267    0.0907 H   0  0  0  0  0  0  0  0  0  0  0  0
   -0.7794   -1.2777    1.7023 H   0  0  0  0  0  0  0  0  0  0  0  0
   -0.1914   -1.3210   -1.2808 H   0  0  0  0  0  0  0  0  0  0  0  0
    0.6112   -2.2857    0.0739 H   0  0  0  0  0  0  0  0  0  0  0  0
  1  2  1  0
  2  3  2  0
  2  4  1  0
  4  5  1  0
  5  6  1  0
  6  7  1  0
  7  8  2  0
  7  9  1  0
  9 10  1  0
 10 11  2  0
 10 12  1  0
 12 13  1  0
 13  4  1  0
 12  6  1  0
  1 14  1  0
  1 15  1  0
  5 16  1  0
  5 17  1  0
  6 18  1  1
  9 19  1  0
 12 20  1  1
 13 21  1  0
 13 22  1  0
M  END
$$$$

     RDKit          3D

 22 23  0  0  0  0  0  0  0  0999 V2000
    3.4261   -0.2624    0.2795 N   0  0  0  0  0  0  0  0  0  0  0  0
    2.4510    0.0750   -0.6822 C   0  0  0  0  0  0  0  0  0  0  0  0
    2.9458    0.7093   -2.1011 S   0  0  0  0  0  0  0  0  0  0  0  0
    1.0769   -0.1141   -0.4640 N   0  0  0  0  0  0  0  0  0  0  0  0
   -0.0161    0.1900   -1.3664 C   0  0  0  0  0  0  0  0  0  0  0  0
   -1.0062    0.8533   -0.4250 C   0  0  1  0  0  0  0  0  0  0  0  0
   -2.3931    0.4449   -0.6823 C   0  0  0  0  0  0  0  0  0  0  0  0
   -3.0567    0.7374   -1.6967 O   0  0  0  0  0  0  0  0  0  0  0  0
   -2.8266   -0.3325    0.4241 N   0  0  0  0  0  0  0  0  0  0  0  0
   -1.8767   -0.3301    1.4594 C   0  0  0  0  0  0  0  0  0  0  0  0
   -1.9960   -0.8084    2.6017 O   0  0  0  0  0  0  0  0  0  0  0  0
   -0.6644    0.3582    0.9561 C   0  0  1  0  0  0  0  0  0  0  0  0
    0.3988   -0.6615    0.7190 C   0  0  0  0  0  0  0  0  0  0  0  0
    3.8980    0.4713    0.8668 H   0  0  0  0  0  0  0  0  0  0  0  0
    3.7241   -1.2478    0.4533 H   0  0  0  0  0  0  0  0  0  0  0  0
    0.2701    0.8166   -2.2068 H   0  0  0  0  0  0  0  0  0  0  0  0
   -0.4543   -0.7888   -1.6647 H   0  0  0  0  0  0  0  0  0  0  0  0
   -0.8646    1.9489   -0.4989 H   0  0  0  0  0  0  0  0  0  0  0  0
   -3.7378   -0.8419    0.4623 H   0  0  0  0  0  0  0  0  0  0  0  0
   -0.3372    1.1867    1.6190 H   0  0  0  0  0  0  0  0  0  0  0  0
   -0.0597   -1.6092    0.3910 H   0  0  0  0  0  0  0  0  0  0  0  0
    1.0985   -0.7947    1.5562 H   0  0  0  0  0  0  0  0  0  0  0  0
  1  2  1  0
  2  3  2  0
  2  4  1  0
  4  5  1  0
  5  6  1  0
  6  7  1  0
  7  8  2  0
  7  9  1  0
  9 10  1  0
 10 11  2  0
 10 12  1  0
 12 13  1  0
 13  4  1  0
 12  6  1  0
  1 14  1  0
  1 15  1  0
  5 16  1  0
  5 17  1  0
  6 18  1  1
  9 19  1  0
 12 20  1  1
 13 21  1  0
 13 22  1  0
M  END
$$$$

     RDKit          3D

 22 23  0  0  0  0  0  0  0  0999 V2000
    3.4483    0.2350    0.2763 N   0  0  0  0  0  0  0  0  0  0  0  0
    2.4232   -0.6740   -0.0884 C   0  0  0  0  0  0  0  0  0  0  0  0
    2.8497   -2.1188   -0.6987 S   0  0  0  0  0  0  0  0  0  0  0  0
    1.0671   -0.3671    0.0600 N   0  0  0  0  0  0  0  0  0  0  0  0
   -0.0477   -1.2075   -0.2746 C   0  0  0  0  0  0  0  0  0  0  0  0
   -0.9622   -0.2251   -1.0030 C   0  0  1  0  0  0  0  0  0  0  0  0
   -2.3594   -0.6064   -0.7986 C   0  0  0  0  0  0  0  0  0  0  0  0
   -3.1342   -1.2748   -1.5287 O   0  0  0  0  0  0  0  0  0  0  0  0
   -2.7634   -0.0604    0.4713 N   0  0  0  0  0  0  0  0  0  0  0  0
   -1.9427    1.0680    0.7373 C   0  0  0  0  0  0  0  0  0  0  0  0
   -2.1133    1.9851    1.5749 O   0  0  0  0  0  0  0  0  0  0  0  0
   -0.7641    1.0231   -0.1719 C   0  0  1  0  0  0  0  0  0  0  0  0
    0.5221    0.8594    0.5807 C   0  0  0  0  0  0  0  0  0  0  0  0
    3.5540    1.0863   -0.3132 H   0  0  0  0  0  0  0  0  0  0  0  0
    4.0388    0.0101    1.1062 H   0  0  0  0  0  0  0  0  0  0  0  0
   -0.5898   -1.5438    0.6356 H   0  0  0  0  0  0  0  0  0  0  0  0
    0.2100   -2.0769   -0.8944 H   0  0  0  0  0  0  0  0  0  0  0  0
   -0.6487   -0.1223   -2.0412 H   0  0  0  0  0  0  0  0  0  0  0  0
   -3.5129   -0.3996    1.1078 H   0  0  0  0  0  0  0  0  0  0  0  0
   -0.7615    1.9194   -0.8029 H   0  0  0  0  0  0  0  0  0  0  0  0
    1.1881    1.7303    0.3971 H   0  0  0  0  0  0  0  0  0  0  0  0
    0.2987    0.7600    1.6683 H   0  0  0  0  0  0  0  0  0  0  0  0
  1  2  1  0
  2  3  2  0
  2  4  1  0
  4  5  1  0
  5  6  1  0
  6  7  1  0
  7  8  2  0
  7  9  1  0
  9 10  1  0
 10 11  2  0
 10 12  1  0
 12 13  1  0
 13  4  1  0
 12  6  1  0
  1 14  1  0
  1 15  1  0
  5 16  1  0
  5 17  1  0
  6 18  1  6
  9 19  1  0
 12 20  1  6
 13 21  1  0
 13 22  1  0
M  END
$$$$

     RDKit          3D

 22 23  0  0  0  0  0  0  0  0999 V2000
    2.7873    1.1446    0.8848 N   0  0  0  0  0  0  0  0  0  0  0  0
    2.1360   -0.1062    0.7121 C   0  0  0  0  0  0  0  0  0  0  0  0
    2.7018   -1.3752    1.5814 S   0  0  0  0  0  0  0  0  0  0  0  0
    1.0439   -0.2595   -0.1710 N   0  0  0  0  0  0  0  0  0  0  0  0
    0.2849   -1.4525   -0.4531 C   0  0  0  0  0  0  0  0  0  0  0  0
   -1.1171   -0.9219   -0.6856 C   0  0  1  0  0  0  0  0  0  0  0  0
   -1.9439   -1.1147    0.5270 C   0  0  0  0  0  0  0  0  0  0  0  0
   -2.1844   -2.2303    1.0403 O   0  0  0  0  0  0  0  0  0  0  0  0
   -2.3813    0.1484    0.9614 N   0  0  0  0  0  0  0  0  0  0  0  0
   -1.6166    1.1558    0.3163 C   0  0  0  0  0  0  0  0  0  0  0  0
   -1.5216    2.3295    0.7337 O   0  0  0  0  0  0  0  0  0  0  0  0
   -1.0030    0.5625   -0.8668 C   0  0  1  0  0  0  0  0  0  0  0  0
    0.4688    0.7859   -0.9801 C   0  0  0  0  0  0  0  0  0  0  0  0
    3.3440    1.5693    0.1151 H   0  0  0  0  0  0  0  0  0  0  0  0
    2.6779    1.6066    1.8123 H   0  0  0  0  0  0  0  0  0  0  0  0
    0.6746   -1.8631   -1.4091 H   0  0  0  0  0  0  0  0  0  0  0  0
    0.3161   -2.1934    0.3536 H   0  0  0  0  0  0  0  0  0  0  0  0
   -1.5722   -1.3598   -1.5857 H   0  0  0  0  0  0  0  0  0  0  0  0
   -3.1558    0.2840    1.6561 H   0  0  0  0  0  0  0  0  0  0  0  0
   -1.4981    0.9022   -1.8099 H   0  0  0  0  0  0  0  0  0  0  0  0
    0.7600    0.5921   -2.0361 H   0  0  0  0  0  0  0  0  0  0  0  0
    0.7988    1.7957   -0.6967 H   0  0  0  0  0  0  0  0  0  0  0  0
  1  2  1  0
  2  3  2  0
  2  4  1  0
  4  5  1  0
  5  6  1  0
  6  7  1  0
  7  8  2  0
  7  9  1  0
  9 10  1  0
 10 11  2  0
 10 12  1  0
 12 13  1  0
 13  4  1  0
 12  6  1  0
  1 14  1  0
  1 15  1  0
  5 16  1  0
  5 17  1  0
  6 18  1  6
  9 19  1  0
 12 20  1  6
 13 21  1  0
 13 22  1  0
M  END
$$$$
