
     RDKit          3D

 21 21  0  0  0  0  0  0  0  0999 V2000
   -4.1273   -0.2779    0.6710 N   0  0  0  0  0  0  0  0  0  0  0  0
   -2.9673   -0.3756   -0.1469 C   0  0  0  0  0  0  0  0  0  0  0  0
   -3.1520   -0.6209   -1.3591 O   0  0  0  0  0  0  0  0  0  0  0  0
   -1.6024   -0.1988    0.3928 C   0  0  0  0  0  0  0  0  0  0  0  0
   -0.6281   -0.3607   -0.7050 C   0  0  0  0  0  0  0  0  0  0  0  0
   -1.0456   -0.6071   -1.8599 O   0  0  0  0  0  0  0  0  0  0  0  0
    0.7532   -0.2350   -0.4325 N   0  0  0  0  0  0  0  0  0  0  0  0
    1.9536   -0.3251   -1.2220 C   0  0  0  0  0  0  0  0  0  0  0  0
    2.6808   -0.7571    0.0581 C   0  0  0  0  0  0  0  0  0  0  0  0
    3.9316   -0.1908    0.0891 O   0  0  0  0  0  0  0  0  0  0  0  0
    1.5740    0.0330    0.7242 C   0  0  0  0  0  0  0  0  0  0  0  0
   -4.3407    0.6619    1.0667 H   0  0  0  0  0  0  0  0  0  0  0  0
   -4.7249   -1.1111    0.8573 H   0  0  0  0  0  0  0  0  0  0  0  0
   -1.4887    0.7790    0.9085 H   0  0  0  0  0  0  0  0  0  0  0  0
   -1.3842   -0.9694    1.1797 H   0  0  0  0  0  0  0  0  0  0  0  0
    2.0143   -1.1387   -1.9502 H   0  0  0  0  0  0  0  0  0  0  0  0
    2.3482    0.6310   -1.6145 H   0  0  0  0  0  0  0  0  0  0  0  0
    2.6010   -1.8342    0.2489 H   0  0  0  0  0  0  0  0  0  0  0  0
    4.5880   -0.7645    0.5642 H   0  0  0  0  0  0  0  0  0  0  0  0
    1.7986    1.1062    0.8671 H   0  0  0  0  0  0  0  0  0  0  0  0
    1.2179   -0.4576    1.6625 H   0  0  0  0  0  0  0  0  0  0  0  0
  1  2  1  0
  2  3  2  0
  2  4  1  0
  4  5  1  0
  5  6  2  0
  5  7  1  0
  7  8  1  0
  8  9  1  0
  9 10  1  0
  9 11  1  0
 11  7  1  0
  1 12  1  0
  1 13  1  0
  4 14  1  0
  4 15  1  0
  8 16  1  0
  8 17  1  0
  9 18  1  0
 10 19  1  0
 11 20  1  0
 11 21  1  0
M  END
$$$$

     RDKit          3D

 21 21  0  0  0  0  0  0  0  0999 V2000
   -3.5519   -0.1033   -0.3741 N   0  0  0  0  0  0  0  0  0  0  0  0
   -2.8971    1.0596    0.1438 C   0  0  0  0  0  0  0  0  0  0  0  0
   -3.5927    2.0414    0.5330 O   0  0  0  0  0  0  0  0  0  0  0  0
   -1.4303    1.1156    0.2240 C   0  0  0  0  0  0  0  0  0  0  0  0
   -0.8154   -0.1309   -0.2806 C   0  0  0  0  0  0  0  0  0  0  0  0
   -1.5880   -1.0481   -0.6989 O   0  0  0  0  0  0  0  0  0  0  0  0
    0.5927   -0.3205   -0.3068 N   0  0  0  0  0  0  0  0  0  0  0  0
    1.5382   -1.3426   -0.7035 C   0  0  0  0  0  0  0  0  0  0  0  0
    2.5544   -0.7380    0.2052 C   0  0  0  0  0  0  0  0  0  0  0  0
    3.8049   -0.5051   -0.3624 O   0  0  0  0  0  0  0  0  0  0  0  0
    1.7107    0.5135    0.0896 C   0  0  0  0  0  0  0  0  0  0  0  0
   -3.8964   -0.8818    0.2288 H   0  0  0  0  0  0  0  0  0  0  0  0
   -3.7061   -0.2053   -1.3984 H   0  0  0  0  0  0  0  0  0  0  0  0
   -1.1676    1.1751    1.3137 H   0  0  0  0  0  0  0  0  0  0  0  0
   -1.0565    2.0093   -0.3238 H   0  0  0  0  0  0  0  0  0  0  0  0
    1.1415   -2.3417   -0.3891 H   0  0  0  0  0  0  0  0  0  0  0  0
    1.8233   -1.3164   -1.7862 H   0  0  0  0  0  0  0  0  0  0  0  0
    2.6060   -1.1777    1.2182 H   0  0  0  0  0  0  0  0  0  0  0  0
    4.3542   -0.0175    0.2747 H   0  0  0  0  0  0  0  0  0  0  0  0
    1.9981    1.1763   -0.7353 H   0  0  0  0  0  0  0  0  0  0  0  0
    1.5779    1.0382    1.0551 H   0  0  0  0  0  0  0  0  0  0  0  0
  1  2  1  0
  2  3  2  0
  2  4  1  0
  4  5  1  0
  5  6  2  0
  5  7  1  0
  7  8  1  0
  8  9  1  0
  9 10  1  0
  9 11  1  0
 11  7  1  0
  1 12  1  0
  1 13  1  0
  4 14  1  0
  4 15  1  0
  8 16  1  0
  8 17  1  0
  9 18  1  0
 10 19  1  0
 11 20  1  0
 11 21  1  0
M  END
$$$$

     RDKit          3D

 21 21  0  0  0  0  0  0  0  0999 V2000
    3.6432    0.4649   -0.3058 N   0  0  0  0  0  0  0  0  0  0  0  0
    2.6070    0.0032    0.5446 C   0  0  0  0  0  0  0  0  0  0  0  0
    2.4865    0.5221    1.6779 O   0  0  0  0  0  0  0  0  0  0  0  0
    1.6813   -1.0895    0.0694 C   0  0  0  0  0  0  0  0  0  0  0  0
    0.5916   -0.5288   -0.7581 C   0  0  0  0  0  0  0  0  0  0  0  0
    0.9568   -0.2039   -1.9445 O   0  0  0  0  0  0  0  0  0  0  0  0
   -0.7421   -0.3313   -0.3741 N   0  0  0  0  0  0  0  0  0  0  0  0
   -1.5965   -0.5237    0.7721 C   0  0  0  0  0  0  0  0  0  0  0  0
   -2.2745    0.7968    0.3466 C   0  0  0  0  0  0  0  0  0  0  0  0
   -3.6197    0.8573    0.6171 O   0  0  0  0  0  0  0  0  0  0  0  0
   -1.9269    0.2138   -1.0358 C   0  0  0  0  0  0  0  0  0  0  0  0
    3.8946    1.4721   -0.2745 H   0  0  0  0  0  0  0  0  0  0  0  0
    4.1357   -0.1935   -0.9389 H   0  0  0  0  0  0  0  0  0  0  0  0
    2.2502   -1.8014   -0.5595 H   0  0  0  0  0  0  0  0  0  0  0  0
    1.3373   -1.6075    0.9842 H   0  0  0  0  0  0  0  0  0  0  0  0
   -2.3859   -1.3152    0.6423 H   0  0  0  0  0  0  0  0  0  0  0  0
   -1.1276   -0.5061    1.7641 H   0  0  0  0  0  0  0  0  0  0  0  0
   -1.6401    1.6447    0.6444 H   0  0  0  0  0  0  0  0  0  0  0  0
   -3.9064    1.8087    0.4311 H   0  0  0  0  0  0  0  0  0  0  0  0
   -1.7379    0.9386   -1.8224 H   0  0  0  0  0  0  0  0  0  0  0  0
   -2.6268   -0.6213   -1.2557 H   0  0  0  0  0  0  0  0  0  0  0  0
  1  2  1  0
  2  3  2  0
  2  4  1  0
  4  5  1  0
  5  6  2  0
  5  7  1  0
  7  8  1  0
  8  9  1  0
  9 10  1  0
  9 11  1  0
 11  7  1  0
  1 12  1  0
  1 13  1  0
  4 14  1  0
  4 15  1  0
  8 16  1  0
  8 17  1  0
  9 18  1  0
 10 19  1  0
 11 20  1  0
 11 21  1  0
M  END
$$$$

     RDKit          3D

 21 21  0  0  0  0  0  0  0  0999 V2000
    3.7669   -1.6202   -0.2880 N   0  0  0  0  0  0  0  0  0  0  0  0
    2.3626   -1.7267   -0.3154 C   0  0  0  0  0  0  0  0  0  0  0  0
    1.8310   -2.8386   -0.5386 O   0  0  0  0  0  0  0  0  0  0  0  0
    1.5185   -0.5336   -0.0820 C   0  0  0  0  0  0  0  0  0  0  0  0
    0.0842   -0.8759   -0.1565 C   0  0  0  0  0  0  0  0  0  0  0  0
   -0.2729   -2.0477   -0.3911 O   0  0  0  0  0  0  0  0  0  0  0  0
   -0.8778    0.1248    0.0381 N   0  0  0  0  0  0  0  0  0  0  0  0
   -0.8725    1.5246    0.3165 C   0  0  0  0  0  0  0  0  0  0  0  0
   -2.3459    1.6639    0.0182 C   0  0  0  0  0  0  0  0  0  0  0  0
   -2.6556    2.2261   -1.2130 O   0  0  0  0  0  0  0  0  0  0  0  0
   -2.3242    0.1577    0.0382 C   0  0  0  0  0  0  0  0  0  0  0  0
    4.4207   -2.2882   -0.7437 H   0  0  0  0  0  0  0  0  0  0  0  0
    4.2313   -0.8135    0.2247 H   0  0  0  0  0  0  0  0  0  0  0  0
    1.7702    0.2230   -0.8829 H   0  0  0  0  0  0  0  0  0  0  0  0
    1.7700   -0.0535    0.9077 H   0  0  0  0  0  0  0  0  0  0  0  0
   -0.6947    1.8162    1.3726 H   0  0  0  0  0  0  0  0  0  0  0  0
   -0.2291    2.0759   -0.4206 H   0  0  0  0  0  0  0  0  0  0  0  0
   -2.9713    2.0398    0.8535 H   0  0  0  0  0  0  0  0  0  0  0  0
   -2.9368    1.5092   -1.8659 H   0  0  0  0  0  0  0  0  0  0  0  0
   -2.7780   -0.2427   -0.8892 H   0  0  0  0  0  0  0  0  0  0  0  0
   -2.7965   -0.3206    0.9176 H   0  0  0  0  0  0  0  0  0  0  0  0
  1  2  1  0
  2  3  2  0
  2  4  1  0
  4  5  1  0
  5  6  2  0
  5  7  1  0
  7  8  1  0
  8  9  1  0
  9 10  1  0
  9 11  1  0
 11  7  1  0
  1 12  1  0
  1 13  1  0
  4 14  1  0
  4 15  1  0
  8 16  1  0
  8 17  1  0
  9 18  1  0
 10 19  1  0
 11 20  1  0
 11 21  1  0
M  END
$$$$

     RDKit          3D

 21 21  0  0  0  0  0  0  0  0999 V2000
    2.7796    0.8899   -0.6273 N   0  0  0  0  0  0  0  0  0  0  0  0
    2.7619   -0.4985   -0.4568 C   0  0  0  0  0  0  0  0  0  0  0  0
    3.6253   -1.2175   -1.0209 O   0  0  0  0  0  0  0  0  0  0  0  0
    1.7505   -1.1770    0.3767 C   0  0  0  0  0  0  0  0  0  0  0  0
    0.7955   -0.2094    0.9861 C   0  0  0  0  0  0  0  0  0  0  0  0
    1.1782    0.4207    2.0135 O   0  0  0  0  0  0  0  0  0  0  0  0
   -0.4846    0.0352    0.4881 N   0  0  0  0  0  0  0  0  0  0  0  0
   -1.5891    0.8832    0.8555 C   0  0  0  0  0  0  0  0  0  0  0  0
   -2.5169    0.1318   -0.0647 C   0  0  0  0  0  0  0  0  0  0  0  0
   -3.1546    0.8864   -1.0302 O   0  0  0  0  0  0  0  0  0  0  0  0
   -1.2533   -0.4707   -0.6291 C   0  0  0  0  0  0  0  0  0  0  0  0
    3.4675    1.4980   -0.1317 H   0  0  0  0  0  0  0  0  0  0  0  0
    2.0958    1.3555   -1.2626 H   0  0  0  0  0  0  0  0  0  0  0  0
    2.2555   -1.6898    1.2438 H   0  0  0  0  0  0  0  0  0  0  0  0
    1.1975   -1.9301   -0.1893 H   0  0  0  0  0  0  0  0  0  0  0  0
   -1.9035    0.7993    1.9334 H   0  0  0  0  0  0  0  0  0  0  0  0
   -1.4682    1.9498    0.5994 H   0  0  0  0  0  0  0  0  0  0  0  0
   -3.1664   -0.5601    0.4957 H   0  0  0  0  0  0  0  0  0  0  0  0
   -4.0912    0.5550   -1.0846 H   0  0  0  0  0  0  0  0  0  0  0  0
   -0.9348   -0.0836   -1.6171 H   0  0  0  0  0  0  0  0  0  0  0  0
   -1.3444   -1.5681   -0.6785 H   0  0  0  0  0  0  0  0  0  0  0  0
  1  2  1  0
  2  3  2  0
  2  4  1  0
  4  5  1  0
  5  6  2  0
  5  7  1  0
  7  8  1  0
  8  9  1  0
  9 10  1  0
  9 11  1  0
 11  7  1  0
  1 12  1  0
  1 13  1  0
  4 14  1  0
  4 15  1  0
  8 16  1  0
  8 17  1  0
  9 18  1  0
 10 19  1  0
 11 20  1  0
 11 21  1  0
M  END
$$$$

     RDKit          3D

 21 21  0  0  0  0  0  0  0  0999 V2000
    4.0070    0.0347    0.1078 N   0  0  0  0  0  0  0  0  0  0  0  0
    2.8432    0.8305    0.0524 C   0  0  0  0  0  0  0  0  0  0  0  0
    2.8931    2.0023   -0.3707 O   0  0  0  0  0  0  0  0  0  0  0  0
    1.5534    0.2669    0.4976 C   0  0  0  0  0  0  0  0  0  0  0  0
    0.5290    0.3453   -0.5633 C   0  0  0  0  0  0  0  0  0  0  0  0
    0.8243    0.8140   -1.6788 O   0  0  0  0  0  0  0  0  0  0  0  0
   -0.7737   -0.1098   -0.3057 N   0  0  0  0  0  0  0  0  0  0  0  0
   -1.9686   -0.1851   -1.1297 C   0  0  0  0  0  0  0  0  0  0  0  0
   -2.7671   -0.6079    0.0563 C   0  0  0  0  0  0  0  0  0  0  0  0
   -3.6630    0.3682    0.4516 O   0  0  0  0  0  0  0  0  0  0  0  0
   -1.4732   -0.6655    0.8282 C   0  0  0  0  0  0  0  0  0  0  0  0
    4.1485   -0.6956    0.8634 H   0  0  0  0  0  0  0  0  0  0  0  0
    4.7982    0.1001   -0.5746 H   0  0  0  0  0  0  0  0  0  0  0  0
    1.1447    0.8198    1.3904 H   0  0  0  0  0  0  0  0  0  0  0  0
    1.6732   -0.8032    0.7993 H   0  0  0  0  0  0  0  0  0  0  0  0
   -1.8399   -1.0130   -1.8775 H   0  0  0  0  0  0  0  0  0  0  0  0
   -2.2855    0.7629   -1.6096 H   0  0  0  0  0  0  0  0  0  0  0  0
   -3.2271   -1.6255   -0.0983 H   0  0  0  0  0  0  0  0  0  0  0  0
   -3.7260    1.0728   -0.2418 H   0  0  0  0  0  0  0  0  0  0  0  0
   -1.1695   -1.7182    1.0735 H   0  0  0  0  0  0  0  0  0  0  0  0
   -1.5211    0.0065    1.7223 H   0  0  0  0  0  0  0  0  0  0  0  0
  1  2  1  0
  2  3  2  0
  2  4  1  0
  4  5  1  0
  5  6  2  0
  5  7  1  0
  7  8  1  0
  8  9  1  0
  9 10  1  0
  9 11  1  0
 11  7  1  0
  1 12  1  0
  1 13  1  0
  4 14  1  0
  4 15  1  0
  8 16  1  0
  8 17  1  0
  9 18  1  0
 10 19  1  0
 11 20  1  0
 11 21  1  0
M  END
$$$$

     RDKit          3D

 21 21  0  0  0  0  0  0  0  0999 V2000
    3.9291   -0.0353    0.0843 N   0  0  0  0  0  0  0  0  0  0  0  0
    2.8033    0.8061   -0.0914 C   0  0  0  0  0  0  0  0  0  0  0  0
    2.9079    2.0175    0.2073 O   0  0  0  0  0  0  0  0  0  0  0  0
    1.5112    0.3219   -0.6105 C   0  0  0  0  0  0  0  0  0  0  0  0
    0.5210    0.1599    0.4810 C   0  0  0  0  0  0  0  0  0  0  0  0
    0.8700    0.4356    1.6564 O   0  0  0  0  0  0  0  0  0  0  0  0
   -0.7908   -0.2931    0.2277 N   0  0  0  0  0  0  0  0  0  0  0  0
   -1.5872   -0.7090   -0.9294 C   0  0  0  0  0  0  0  0  0  0  0  0
   -2.8158   -0.2325   -0.1737 C   0  0  0  0  0  0  0  0  0  0  0  0
   -3.1122    1.0995   -0.3649 O   0  0  0  0  0  0  0  0  0  0  0  0
   -1.9701   -0.5547    1.0345 C   0  0  0  0  0  0  0  0  0  0  0  0
    4.0939   -0.9061   -0.4990 H   0  0  0  0  0  0  0  0  0  0  0  0
    4.6717    0.1446    0.7987 H   0  0  0  0  0  0  0  0  0  0  0  0
    1.6815   -0.6410   -1.1314 H   0  0  0  0  0  0  0  0  0  0  0  0
    1.0905    1.0808   -1.3130 H   0  0  0  0  0  0  0  0  0  0  0  0
   -1.6012   -1.7990   -1.0098 H   0  0  0  0  0  0  0  0  0  0  0  0
   -1.4288   -0.1257   -1.8338 H   0  0  0  0  0  0  0  0  0  0  0  0
   -3.6999   -0.8918   -0.2726 H   0  0  0  0  0  0  0  0  0  0  0  0
   -2.9093    1.6323    0.4275 H   0  0  0  0  0  0  0  0  0  0  0  0
   -2.0370   -1.6415    1.2570 H   0  0  0  0  0  0  0  0  0  0  0  0
   -2.1280    0.1314    1.8740 H   0  0  0  0  0  0  0  0  0  0  0  0
  1  2  1  0
  2  3  2  0
  2  4  1  0
  4  5  1  0
  5  6  2  0
  5  7  1  0
  7  8  1  0
  8  9  1  0
  9 10  1  0
  9 11  1  0
 11  7  1  0
  1 12  1  0
  1 13  1  0
  4 14  1  0
  4 15  1  0
  8 16  1  0
  8 17  1  0
  9 18  1  0
 10 19  1  0
 11 20  1  0
 11 21  1  0
M  END
$$$$

     RDKit          3D

 21 21  0  0  0  0  0  0  0  0999 V2000
    3.2433   -0.7376    0.4234 N   0  0  0  0  0  0  0  0  0  0  0  0
    2.2567    0.2416    0.6171 C   0  0  0  0  0  0  0  0  0  0  0  0
    1.9050    0.4739    1.8260 O   0  0  0  0  0  0  0  0  0  0  0  0
    1.6353    0.9821   -0.4794 C   0  0  0  0  0  0  0  0  0  0  0  0
    0.6378    0.1828   -1.2273 C   0  0  0  0  0  0  0  0  0  0  0  0
    0.9735   -0.1415   -2.4272 O   0  0  0  0  0  0  0  0  0  0  0  0
   -0.6102   -0.2210   -0.6978 N   0  0  0  0  0  0  0  0  0  0  0  0
   -1.2913   -0.0735    0.5546 C   0  0  0  0  0  0  0  0  0  0  0  0
   -2.5985   -0.1275   -0.2389 C   0  0  0  0  0  0  0  0  0  0  0  0
   -2.9241    1.1317   -0.6837 O   0  0  0  0  0  0  0  0  0  0  0  0
   -1.7425   -0.9530   -1.1800 C   0  0  0  0  0  0  0  0  0  0  0  0
    3.1053   -1.6799    0.8374 H   0  0  0  0  0  0  0  0  0  0  0  0
    4.0889   -0.5121   -0.1256 H   0  0  0  0  0  0  0  0  0  0  0  0
    2.3726    1.3887   -1.2185 H   0  0  0  0  0  0  0  0  0  0  0  0
    1.1341    1.9050   -0.0697 H   0  0  0  0  0  0  0  0  0  0  0  0
   -1.2014   -0.9683    1.2386 H   0  0  0  0  0  0  0  0  0  0  0  0
   -1.1681    0.9018    1.0669 H   0  0  0  0  0  0  0  0  0  0  0  0
   -3.4012   -0.6941    0.2661 H   0  0  0  0  0  0  0  0  0  0  0  0
   -2.6659    1.7551    0.0712 H   0  0  0  0  0  0  0  0  0  0  0  0
   -1.9902   -0.8249   -2.2577 H   0  0  0  0  0  0  0  0  0  0  0  0
   -1.7591   -2.0292   -0.8551 H   0  0  0  0  0  0  0  0  0  0  0  0
  1  2  1  0
  2  3  2  0
  2  4  1  0
  4  5  1  0
  5  6  2  0
  5  7  1  0
  7  8  1  0
  8  9  1  0
  9 10  1  0
  9 11  1  0
 11  7  1  0
  1 12  1  0
  1 13  1  0
  4 14  1  0
  4 15  1  0
  8 16  1  0
  8 17  1  0
  9 18  1  0
 10 19  1  0
 11 20  1  0
 11 21  1  0
M  END
$$$$
