
     RDKit          3D

 24 25  0  0  0  0  0  0  0  0999 V2000
   -2.3915    0.0867    0.4881 N   0  0  0  0  0  0  0  0  0  0  0  0
   -0.9737    0.1494    0.3312 C   0  0  1  0  0  0  0  0  0  0  0  0
   -0.5542    0.9784   -0.8847 C   0  0  0  0  0  0  0  0  0  0  0  0
    0.9333    1.2058   -0.7632 C   0  0  1  0  0  0  0  0  0  0  0  0
    1.1006    2.5429   -0.3436 O   0  0  0  0  0  0  0  0  0  0  0  0
    1.5628    0.3543    0.3173 C   0  0  1  0  0  0  0  0  0  0  0  0
    1.0168    0.8582    1.5500 O   0  0  0  0  0  0  0  0  0  0  0  0
   -0.3888    0.7266    1.5751 C   0  0  0  0  0  0  0  0  0  0  0  0
   -1.0730    1.0706    2.5674 O   0  0  0  0  0  0  0  0  0  0  0  0
    1.1174   -1.0856    0.2480 C   0  0  2  0  0  0  0  0  0  0  0  0
    1.8635   -1.7883   -0.6905 O   0  0  0  0  0  0  0  0  0  0  0  0
   -0.3593   -1.2336    0.0715 C   0  0  2  0  0  0  0  0  0  0  0  0
   -0.6426   -1.5264   -1.2616 O   0  0  0  0  0  0  0  0  0  0  0  0
   -2.6579    0.1515    1.4958 H   0  0  0  0  0  0  0  0  0  0  0  0
   -2.8676   -0.6588   -0.0305 H   0  0  0  0  0  0  0  0  0  0  0  0
   -0.7179    0.3721   -1.7917 H   0  0  0  0  0  0  0  0  0  0  0  0
   -1.1366    1.9135   -0.8933 H   0  0  0  0  0  0  0  0  0  0  0  0
    1.4458    1.1001   -1.7364 H   0  0  0  0  0  0  0  0  0  0  0  0
    0.2655    3.0357   -0.3073 H   0  0  0  0  0  0  0  0  0  0  0  0
    2.6403    0.4379    0.2696 H   0  0  0  0  0  0  0  0  0  0  0  0
    1.3684   -1.5318    1.2537 H   0  0  0  0  0  0  0  0  0  0  0  0
    1.5889   -2.7319   -0.6923 H   0  0  0  0  0  0  0  0  0  0  0  0
   -0.8119   -1.9923    0.7312 H   0  0  0  0  0  0  0  0  0  0  0  0
   -0.3284   -2.4349   -1.5039 H   0  0  0  0  0  0  0  0  0  0  0  0
  2  1  1  1
  2  3  1  0
  3  4  1  0
  4  5  1  0
  4  6  1  0
  6  7  1  0
  7  8  1  0
  8  9  2  0
  6 10  1  0
 10 11  1  0
 10 12  1  0
 12 13  1  0
  8  2  1  0
 12  2  1  0
  1 14  1  0
  1 15  1  0
  3 16  1  0
  3 17  1  0
  4 18  1  6
  5 19  1  0
  6 20  1  1
 10 21  1  1
 11 22  1  0
 12 23  1  1
 13 24  1  0
M  END
$$$$

     RDKit          3D

 24 25  0  0  0  0  0  0  0  0999 V2000
   -1.1530   -2.1119   -0.7874 N   0  0  0  0  0  0  0  0  0  0  0  0
   -0.4324   -0.8952   -0.5138 C   0  0  1  0  0  0  0  0  0  0  0  0
    0.7184   -1.1570    0.4556 C   0  0  0  0  0  0  0  0  0  0  0  0
    1.4896    0.1077    0.6718 C   0  0  1  0  0  0  0  0  0  0  0  0
    2.7860   -0.1105    0.1487 O   0  0  0  0  0  0  0  0  0  0  0  0
    0.9188    1.2525   -0.1517 C   0  0  1  0  0  0  0  0  0  0  0  0
    1.0025    0.8055   -1.5164 O   0  0  0  0  0  0  0  0  0  0  0  0
    0.1922   -0.3264   -1.7498 C   0  0  0  0  0  0  0  0  0  0  0  0
    0.0229   -0.7950   -2.8813 O   0  0  0  0  0  0  0  0  0  0  0  0
   -0.5528    1.4591    0.1099 C   0  0  2  0  0  0  0  0  0  0  0  0
   -0.8122    2.2540    1.2030 O   0  0  0  0  0  0  0  0  0  0  0  0
   -1.3120    0.1490    0.1320 C   0  0  2  0  0  0  0  0  0  0  0  0
   -1.6844   -0.2231    1.4034 O   0  0  0  0  0  0  0  0  0  0  0  0
   -1.6681   -2.3692    0.0741 H   0  0  0  0  0  0  0  0  0  0  0  0
   -0.4712   -2.8537   -1.0251 H   0  0  0  0  0  0  0  0  0  0  0  0
    1.3395   -1.9791    0.0076 H   0  0  0  0  0  0  0  0  0  0  0  0
    0.3537   -1.5555    1.4244 H   0  0  0  0  0  0  0  0  0  0  0  0
    1.5947    0.3735    1.7425 H   0  0  0  0  0  0  0  0  0  0  0  0
    3.2540    0.7374    0.0374 H   0  0  0  0  0  0  0  0  0  0  0  0
    1.4665    2.1716    0.0227 H   0  0  0  0  0  0  0  0  0  0  0  0
   -0.9472    2.0170   -0.7906 H   0  0  0  0  0  0  0  0  0  0  0  0
   -1.1803    3.1582    0.9561 H   0  0  0  0  0  0  0  0  0  0  0  0
   -2.2474    0.2009   -0.4819 H   0  0  0  0  0  0  0  0  0  0  0  0
   -2.6775   -0.3098    1.5089 H   0  0  0  0  0  0  0  0  0  0  0  0
  2  1  1  6
  2  3  1  0
  3  4  1  0
  4  5  1  0
  4  6  1  0
  6  7  1  0
  7  8  1  0
  8  9  2  0
  6 10  1  0
 10 11  1  0
 10 12  1  0
 12 13  1  0
  8  2  1  0
 12  2  1  0
  1 14  1  0
  1 15  1  0
  3 16  1  0
  3 17  1  0
  4 18  1  1
  5 19  1  0
  6 20  1  6
 10 21  1  6
 11 22  1  0
 12 23  1  6
 13 24  1  0
M  END
$$$$

     RDKit          3D

 24 25  0  0  0  0  0  0  0  0999 V2000
   -2.4686   -0.2707    0.4160 N   0  0  0  0  0  0  0  0  0  0  0  0
   -1.0747    0.0127    0.3084 C   0  0  1  0  0  0  0  0  0  0  0  0
   -0.7513    1.1494   -0.6283 C   0  0  0  0  0  0  0  0  0  0  0  0
    0.7507    1.2291   -0.7650 C   0  0  1  0  0  0  0  0  0  0  0  0
    1.1432    2.5625   -0.5281 O   0  0  0  0  0  0  0  0  0  0  0  0
    1.4606    0.4021    0.3009 C   0  0  1  0  0  0  0  0  0  0  0  0
    0.8643    0.7995    1.5481 O   0  0  0  0  0  0  0  0  0  0  0  0
   -0.4772    0.3872    1.6415 C   0  0  0  0  0  0  0  0  0  0  0  0
   -1.1075    0.3350    2.7042 O   0  0  0  0  0  0  0  0  0  0  0  0
    1.1217   -1.0726    0.1595 C   0  0  2  0  0  0  0  0  0  0  0  0
    1.9554   -1.7327   -0.7050 O   0  0  0  0  0  0  0  0  0  0  0  0
   -0.3386   -1.2473   -0.1244 C   0  0  2  0  0  0  0  0  0  0  0  0
   -0.5628   -1.5439   -1.4661 O   0  0  0  0  0  0  0  0  0  0  0  0
   -3.0332    0.5933    0.3544 H   0  0  0  0  0  0  0  0  0  0  0  0
   -2.7990   -1.0350   -0.2159 H   0  0  0  0  0  0  0  0  0  0  0  0
   -1.2662    1.0773   -1.5998 H   0  0  0  0  0  0  0  0  0  0  0  0
   -1.1419    2.0906   -0.1435 H   0  0  0  0  0  0  0  0  0  0  0  0
    1.1057    0.9863   -1.7767 H   0  0  0  0  0  0  0  0  0  0  0  0
    1.3140    2.7244    0.4376 H   0  0  0  0  0  0  0  0  0  0  0  0
    2.5255    0.6085    0.2619 H   0  0  0  0  0  0  0  0  0  0  0  0
    1.3018   -1.5131    1.1839 H   0  0  0  0  0  0  0  0  0  0  0  0
    2.8176   -1.9349   -0.2229 H   0  0  0  0  0  0  0  0  0  0  0  0
   -0.7935   -2.0795    0.4655 H   0  0  0  0  0  0  0  0  0  0  0  0
   -0.5459   -2.5282   -1.6062 H   0  0  0  0  0  0  0  0  0  0  0  0
  2  1  1  1
  2  3  1  0
  3  4  1  0
  4  5  1  0
  4  6  1  0
  6  7  1  0
  7  8  1  0
  8  9  2  0
  6 10  1  0
 10 11  1  0
 10 12  1  0
 12 13  1  0
  8  2  1  0
 12  2  1  0
  1 14  1  0
  1 15  1  0
  3 16  1  0
  3 17  1  0
  4 18  1  6
  5 19  1  0
  6 20  1  1
 10 21  1  1
 11 22  1  0
 12 23  1  1
 13 24  1  0
M  END
$$$$

     RDKit          3D

 24 25  0  0  0  0  0  0  0  0999 V2000
   -0.8522    2.3698    0.0480 N   0  0  0  0  0  0  0  0  0  0  0  0
   -0.3411    1.0607    0.2602 C   0  0  1  0  0  0  0  0  0  0  0  0
    0.9728    0.8676   -0.5084 C   0  0  0  0  0  0  0  0  0  0  0  0
    1.5563   -0.4885   -0.2843 C   0  0  1  0  0  0  0  0  0  0  0  0
    2.8509   -0.4738    0.2008 O   0  0  0  0  0  0  0  0  0  0  0  0
    0.6276   -1.2727    0.6490 C   0  0  1  0  0  0  0  0  0  0  0  0
    0.4576   -0.5416    1.8755 O   0  0  0  0  0  0  0  0  0  0  0  0
    0.0253    0.7853    1.6816 C   0  0  0  0  0  0  0  0  0  0  0  0
   -0.0411    1.6278    2.5965 O   0  0  0  0  0  0  0  0  0  0  0  0
   -0.6809   -1.3757   -0.1079 C   0  0  2  0  0  0  0  0  0  0  0  0
   -0.3602   -1.8089   -1.3979 O   0  0  0  0  0  0  0  0  0  0  0  0
   -1.3382   -0.0275   -0.1071 C   0  0  2  0  0  0  0  0  0  0  0  0
   -2.0532    0.2567   -1.2406 O   0  0  0  0  0  0  0  0  0  0  0  0
   -0.3609    2.8409   -0.7533 H   0  0  0  0  0  0  0  0  0  0  0  0
   -1.8604    2.3299   -0.2379 H   0  0  0  0  0  0  0  0  0  0  0  0
    1.6806    1.6051   -0.0380 H   0  0  0  0  0  0  0  0  0  0  0  0
    0.8801    1.1626   -1.5576 H   0  0  0  0  0  0  0  0  0  0  0  0
    1.5507   -1.0529   -1.2422 H   0  0  0  0  0  0  0  0  0  0  0  0
    2.9918   -1.2744    0.7745 H   0  0  0  0  0  0  0  0  0  0  0  0
    1.0834   -2.2623    0.8445 H   0  0  0  0  0  0  0  0  0  0  0  0
   -1.3341   -2.1676    0.3242 H   0  0  0  0  0  0  0  0  0  0  0  0
   -0.4388   -2.7876   -1.5055 H   0  0  0  0  0  0  0  0  0  0  0  0
   -2.0763   -0.0440    0.7493 H   0  0  0  0  0  0  0  0  0  0  0  0
   -2.9396    0.6710   -1.0236 H   0  0  0  0  0  0  0  0  0  0  0  0
  2  1  1  1
  2  3  1  0
  3  4  1  0
  4  5  1  0
  4  6  1  0
  6  7  1  0
  7  8  1  0
  8  9  2  0
  6 10  1  0
 10 11  1  0
 10 12  1  0
 12 13  1  0
  8  2  1  0
 12  2  1  0
  1 14  1  0
  1 15  1  0
  3 16  1  0
  3 17  1  0
  4 18  1  6
  5 19  1  0
  6 20  1  1
 10 21  1  1
 11 22  1  0
 12 23  1  1
 13 24  1  0
M  END
$$$$

     RDKit          3D

 24 25  0  0  0  0  0  0  0  0999 V2000
   -2.0227   -1.3738   -0.3321 N   0  0  0  0  0  0  0  0  0  0  0  0
   -0.7899   -0.6613   -0.2920 C   0  0  1  0  0  0  0  0  0  0  0  0
    0.1518   -1.1700    0.8023 C   0  0  0  0  0  0  0  0  0  0  0  0
    1.3964   -0.3122    0.7921 C   0  0  1  0  0  0  0  0  0  0  0  0
    2.5035   -1.1352    0.6181 O   0  0  0  0  0  0  0  0  0  0  0  0
    1.3977    0.6701   -0.3760 C   0  0  1  0  0  0  0  0  0  0  0  0
    1.2197   -0.1501   -1.5492 O   0  0  0  0  0  0  0  0  0  0  0  0
   -0.0196   -0.7781   -1.5577 C   0  0  0  0  0  0  0  0  0  0  0  0
   -0.4914   -1.4019   -2.5252 O   0  0  0  0  0  0  0  0  0  0  0  0
    0.1930    1.5721   -0.3326 C   0  0  2  0  0  0  0  0  0  0  0  0
    0.3966    2.7078    0.4374 O   0  0  0  0  0  0  0  0  0  0  0  0
   -1.0320    0.8079    0.0561 C   0  0  2  0  0  0  0  0  0  0  0  0
   -1.1748    0.8905    1.4484 O   0  0  0  0  0  0  0  0  0  0  0  0
   -2.1860   -2.0299    0.4354 H   0  0  0  0  0  0  0  0  0  0  0  0
   -2.2026   -1.7545   -1.2798 H   0  0  0  0  0  0  0  0  0  0  0  0
    0.4019   -2.2262    0.5084 H   0  0  0  0  0  0  0  0  0  0  0  0
   -0.3252   -1.1335    1.7900 H   0  0  0  0  0  0  0  0  0  0  0  0
    1.5073    0.2218    1.7599 H   0  0  0  0  0  0  0  0  0  0  0  0
    2.3097   -1.9796    0.1782 H   0  0  0  0  0  0  0  0  0  0  0  0
    2.3482    1.1951   -0.3853 H   0  0  0  0  0  0  0  0  0  0  0  0
    0.0286    1.9365   -1.3861 H   0  0  0  0  0  0  0  0  0  0  0  0
    0.3029    3.5503   -0.0741 H   0  0  0  0  0  0  0  0  0  0  0  0
   -1.9474    1.1694   -0.4552 H   0  0  0  0  0  0  0  0  0  0  0  0
   -1.9657    1.3849    1.7191 H   0  0  0  0  0  0  0  0  0  0  0  0
  2  1  1  6
  2  3  1  0
  3  4  1  0
  4  5  1  0
  4  6  1  0
  6  7  1  0
  7  8  1  0
  8  9  2  0
  6 10  1  0
 10 11  1  0
 10 12  1  0
 12 13  1  0
  8  2  1  0
 12  2  1  0
  1 14  1  0
  1 15  1  0
  3 16  1  0
  3 17  1  0
  4 18  1  1
  5 19  1  0
  6 20  1  6
 10 21  1  6
 11 22  1  0
 12 23  1  6
 13 24  1  0
M  END
$$$$

     RDKit          3D

 24 25  0  0  0  0  0  0  0  0999 V2000
    0.7184   -0.7347    2.3323 N   0  0  0  0  0  0  0  0  0  0  0  0
    0.1770   -0.4021    1.0523 C   0  0  1  0  0  0  0  0  0  0  0  0
    0.5564   -1.3904   -0.0284 C   0  0  0  0  0  0  0  0  0  0  0  0
   -0.1811   -0.9758   -1.2860 C   0  0  1  0  0  0  0  0  0  0  0  0
   -1.1039   -1.9890   -1.5578 O   0  0  0  0  0  0  0  0  0  0  0  0
   -0.9631    0.2977   -1.1002 C   0  0  1  0  0  0  0  0  0  0  0  0
   -1.9348    0.0261   -0.0747 O   0  0  0  0  0  0  0  0  0  0  0  0
   -1.3181   -0.3090    1.1499 C   0  0  0  0  0  0  0  0  0  0  0  0
   -1.9555   -0.5036    2.1904 O   0  0  0  0  0  0  0  0  0  0  0  0
   -0.0999    1.4210   -0.5357 C   0  0  2  0  0  0  0  0  0  0  0  0
    0.5802    2.1078   -1.5154 O   0  0  0  0  0  0  0  0  0  0  0  0
    0.7600    0.9400    0.5882 C   0  0  2  0  0  0  0  0  0  0  0  0
    2.0334    0.6439    0.0959 O   0  0  0  0  0  0  0  0  0  0  0  0
    0.5819    0.0952    2.9586 H   0  0  0  0  0  0  0  0  0  0  0  0
    0.1830   -1.5271    2.7561 H   0  0  0  0  0  0  0  0  0  0  0  0
    0.3276   -2.4199    0.2804 H   0  0  0  0  0  0  0  0  0  0  0  0
    1.6443   -1.2845   -0.2094 H   0  0  0  0  0  0  0  0  0  0  0  0
    0.5222   -0.8953   -2.1407 H   0  0  0  0  0  0  0  0  0  0  0  0
   -1.7089   -1.7889   -2.2892 H   0  0  0  0  0  0  0  0  0  0  0  0
   -1.4188    0.5732   -2.0456 H   0  0  0  0  0  0  0  0  0  0  0  0
   -0.8364    2.1512   -0.0887 H   0  0  0  0  0  0  0  0  0  0  0  0
    0.1193    2.9556   -1.7889 H   0  0  0  0  0  0  0  0  0  0  0  0
    0.7843    1.5899    1.4643 H   0  0  0  0  0  0  0  0  0  0  0  0
    2.5325    1.4186   -0.2076 H   0  0  0  0  0  0  0  0  0  0  0  0
  2  1  1  1
  2  3  1  0
  3  4  1  0
  4  5  1  0
  4  6  1  0
  6  7  1  0
  7  8  1  0
  8  9  2  0
  6 10  1  0
 10 11  1  0
 10 12  1  0
 12 13  1  0
  8  2  1  0
 12  2  1  0
  1 14  1  0
  1 15  1  0
  3 16  1  0
  3 17  1  0
  4 18  1  6
  5 19  1  0
  6 20  1  6
 10 21  1  1
 11 22  1  0
 12 23  1  1
 13 24  1  0
M  END
$$$$

     RDKit          3D

 24 25  0  0  0  0  0  0  0  0999 V2000
   -0.1065   -2.3039    0.7866 N   0  0  0  0  0  0  0  0  0  0  0  0
    0.0120   -1.0561    0.1087 C   0  0  1  0  0  0  0  0  0  0  0  0
    1.2175   -0.2545    0.5910 C   0  0  0  0  0  0  0  0  0  0  0  0
    1.3176    1.0378   -0.1504 C   0  0  1  0  0  0  0  0  0  0  0  0
    2.5454    1.3001   -0.6958 O   0  0  0  0  0  0  0  0  0  0  0  0
    0.1830    1.1492   -1.1778 C   0  0  1  0  0  0  0  0  0  0  0  0
    0.2144    0.0139   -2.0504 O   0  0  0  0  0  0  0  0  0  0  0  0
    0.2331   -1.2178   -1.3701 C   0  0  0  0  0  0  0  0  0  0  0  0
    0.4108   -2.3073   -1.9234 O   0  0  0  0  0  0  0  0  0  0  0  0
   -1.0836    1.1398   -0.3277 C   0  0  2  0  0  0  0  0  0  0  0  0
   -0.8572    1.9969    0.7690 O   0  0  0  0  0  0  0  0  0  0  0  0
   -1.2666   -0.2377    0.2269 C   0  0  2  0  0  0  0  0  0  0  0  0
   -1.8020   -0.2721    1.4904 O   0  0  0  0  0  0  0  0  0  0  0  0
    0.7200   -2.4724    1.4345 H   0  0  0  0  0  0  0  0  0  0  0  0
   -0.9446   -2.3395    1.4398 H   0  0  0  0  0  0  0  0  0  0  0  0
    1.2527   -0.1628    1.6767 H   0  0  0  0  0  0  0  0  0  0  0  0
    2.1121   -0.8731    0.2862 H   0  0  0  0  0  0  0  0  0  0  0  0
    1.1041    1.8593    0.5905 H   0  0  0  0  0  0  0  0  0  0  0  0
    2.7967    0.7775   -1.4724 H   0  0  0  0  0  0  0  0  0  0  0  0
    0.2879    2.0779   -1.7531 H   0  0  0  0  0  0  0  0  0  0  0  0
   -1.9496    1.5389   -0.8613 H   0  0  0  0  0  0  0  0  0  0  0  0
   -1.6830    2.0812    1.3017 H   0  0  0  0  0  0  0  0  0  0  0  0
   -2.0062   -0.7591   -0.4499 H   0  0  0  0  0  0  0  0  0  0  0  0
   -2.7077   -0.7161    1.5303 H   0  0  0  0  0  0  0  0  0  0  0  0
  2  1  1  1
  2  3  1  0
  3  4  1  0
  4  5  1  0
  4  6  1  0
  6  7  1  0
  7  8  1  0
  8  9  2  0
  6 10  1  0
 10 11  1  0
 10 12  1  0
 12 13  1  0
  8  2  1  0
 12  2  1  0
  1 14  1  0
  1 15  1  0
  3 16  1  0
  3 17  1  0
  4 18  1  1
  5 19  1  0
  6 20  1  6
 10 21  1  6
 11 22  1  0
 12 23  1  6
 13 24  1  0
M  END
$$$$

     RDKit          3D

 24 25  0  0  0  0  0  0  0  0999 V2000
   -0.7926   -2.0379    1.1437 N   0  0  0  0  0  0  0  0  0  0  0  0
   -0.4462   -0.7581    0.6232 C   0  0  1  0  0  0  0  0  0  0  0  0
   -1.2125   -0.3929   -0.6363 C   0  0  0  0  0  0  0  0  0  0  0  0
   -0.8381    0.9798   -1.0870 C   0  0  1  0  0  0  0  0  0  0  0  0
   -1.9401    1.8168   -0.8967 O   0  0  0  0  0  0  0  0  0  0  0  0
    0.2792    1.5659   -0.2170 C   0  0  1  0  0  0  0  0  0  0  0  0
   -0.2936    1.6139    1.1059 O   0  0  0  0  0  0  0  0  0  0  0  0
   -0.6446    0.3557    1.5879 C   0  0  0  0  0  0  0  0  0  0  0  0
   -1.0964    0.1345    2.7384 O   0  0  0  0  0  0  0  0  0  0  0  0
    1.4394    0.6110   -0.1059 C   0  0  2  0  0  0  0  0  0  0  0  0
    2.2529    0.6154   -1.2329 O   0  0  0  0  0  0  0  0  0  0  0  0
    1.0247   -0.7810    0.2283 C   0  0  2  0  0  0  0  0  0  0  0  0
    1.1750   -1.6503   -0.8657 O   0  0  0  0  0  0  0  0  0  0  0  0
   -1.3010   -2.0352    2.0389 H   0  0  0  0  0  0  0  0  0  0  0  0
   -1.1770   -2.6639    0.4198 H   0  0  0  0  0  0  0  0  0  0  0  0
   -2.3015   -0.4825   -0.3869 H   0  0  0  0  0  0  0  0  0  0  0  0
   -0.9860   -1.1018   -1.4596 H   0  0  0  0  0  0  0  0  0  0  0  0
   -0.5790    1.0435   -2.1613 H   0  0  0  0  0  0  0  0  0  0  0  0
   -2.0263    1.9920    0.0707 H   0  0  0  0  0  0  0  0  0  0  0  0
    0.5867    2.5404   -0.5781 H   0  0  0  0  0  0  0  0  0  0  0  0
    2.0700    0.9908    0.7493 H   0  0  0  0  0  0  0  0  0  0  0  0
    3.1753    0.3522   -0.9151 H   0  0  0  0  0  0  0  0  0  0  0  0
    1.5699   -1.2137    1.1056 H   0  0  0  0  0  0  0  0  0  0  0  0
    2.0617   -1.4946   -1.2691 H   0  0  0  0  0  0  0  0  0  0  0  0
  2  1  1  1
  2  3  1  0
  3  4  1  0
  4  5  1  0
  4  6  1  0
  6  7  1  0
  7  8  1  0
  8  9  2  0
  6 10  1  0
 10 11  1  0
 10 12  1  0
 12 13  1  0
  8  2  1  0
 12  2  1  0
  1 14  1  0
  1 15  1  0
  3 16  1  0
  3 17  1  0
  4 18  1  6
  5 19  1  0
  6 20  1  6
 10 21  1  1
 11 22  1  0
 12 23  1  1
 13 24  1  0
M  END
$$$$
