
     RDKit          3D

 26 27  0  0  0  0  0  0  0  0999 V2000
   -5.0666   -0.2536   -0.2120 C   0  0  0  0  0  0  0  0  0  0  0  0
   -3.6288   -0.4974   -0.3702 N   0  0  0  0  0  0  0  0  0  0  0  0
   -3.0865   -1.6617   -0.6914 N   0  0  0  0  0  0  0  0  0  0  0  0
   -1.7684   -1.5078   -0.7408 N   0  0  0  0  0  0  0  0  0  0  0  0
   -1.4548   -0.2252   -0.4479 C   0  0  0  0  0  0  0  0  0  0  0  0
   -0.0809    0.4010   -0.3843 C   0  0  1  0  0  0  0  0  0  0  0  0
   -0.0838    1.1634    0.7735 O   0  0  0  0  0  0  0  0  0  0  0  0
    0.8974   -0.7106   -0.3917 C   0  0  0  0  0  0  0  0  0  0  0  0
    2.2533   -0.4427   -0.2567 N   0  0  0  0  0  0  0  0  0  0  0  0
    3.0140    0.2195   -1.2472 C   0  0  0  0  0  0  0  0  0  0  0  0
    3.9637    0.6692   -0.1553 C   0  0  0  0  0  0  0  0  0  0  0  0
    2.7549    0.4514    0.7363 C   0  0  0  0  0  0  0  0  0  0  0  0
   -2.6401    0.3684   -0.2242 N   0  0  0  0  0  0  0  0  0  0  0  0
   -5.6370   -0.7508   -1.0084 H   0  0  0  0  0  0  0  0  0  0  0  0
   -5.4347   -0.6857    0.7621 H   0  0  0  0  0  0  0  0  0  0  0  0
   -5.2513    0.8342   -0.2596 H   0  0  0  0  0  0  0  0  0  0  0  0
   -0.0071    1.0168   -1.3058 H   0  0  0  0  0  0  0  0  0  0  0  0
   -0.5871    0.6603    1.4581 H   0  0  0  0  0  0  0  0  0  0  0  0
    0.5812   -1.4540    0.3849 H   0  0  0  0  0  0  0  0  0  0  0  0
    0.7448   -1.2688   -1.3644 H   0  0  0  0  0  0  0  0  0  0  0  0
    2.5765    1.0817   -1.7655 H   0  0  0  0  0  0  0  0  0  0  0  0
    3.5496   -0.5114   -1.8964 H   0  0  0  0  0  0  0  0  0  0  0  0
    4.3012    1.7214   -0.2389 H   0  0  0  0  0  0  0  0  0  0  0  0
    4.7904   -0.0277    0.0778 H   0  0  0  0  0  0  0  0  0  0  0  0
    2.2354    1.4331    0.8672 H   0  0  0  0  0  0  0  0  0  0  0  0
    3.0646   -0.0228    1.6943 H   0  0  0  0  0  0  0  0  0  0  0  0
  1  2  1  0
  2  3  1  0
  3  4  2  0
  4  5  1  0
  5  6  1  0
  6  7  1  0
  6  8  1  0
  8  9  1  0
  9 10  1  0
 10 11  1  0
 11 12  1  0
  5 13  2  0
 13  2  1  0
 12  9  1  0
  1 14  1  0
  1 15  1  0
  1 16  1  0
  6 17  1  6
  7 18  1  0
  8 19  1  0
  8 20  1  0
 10 21  1  0
 10 22  1  0
 11 23  1  0
 11 24  1  0
 12 25  1  0
 12 26  1  0
M  END
$$$$

     RDKit          3D

 26 27  0  0  0  0  0  0  0  0999 V2000
    3.7907    1.2758    0.6283 C   0  0  0  0  0  0  0  0  0  0  0  0
    2.6122    0.7334   -0.0567 N   0  0  0  0  0  0  0  0  0  0  0  0
    2.0372    1.1548   -1.1475 N   0  0  0  0  0  0  0  0  0  0  0  0
    1.0044    0.4113   -1.4509 N   0  0  0  0  0  0  0  0  0  0  0  0
    0.9055   -0.5389   -0.5102 C   0  0  0  0  0  0  0  0  0  0  0  0
   -0.1008   -1.6501   -0.3896 C   0  0  1  0  0  0  0  0  0  0  0  0
    0.7117   -2.7836   -0.0954 O   0  0  0  0  0  0  0  0  0  0  0  0
   -1.0622   -1.4289    0.6962 C   0  0  0  0  0  0  0  0  0  0  0  0
   -1.9917   -0.4224    0.6947 N   0  0  0  0  0  0  0  0  0  0  0  0
   -1.5337    0.9384    0.8174 C   0  0  0  0  0  0  0  0  0  0  0  0
   -2.2333    1.2702   -0.4652 C   0  0  0  0  0  0  0  0  0  0  0  0
   -2.9048   -0.0649   -0.2734 C   0  0  0  0  0  0  0  0  0  0  0  0
    1.9253   -0.3126    0.3498 N   0  0  0  0  0  0  0  0  0  0  0  0
    3.7808    0.9838    1.6953 H   0  0  0  0  0  0  0  0  0  0  0  0
    4.7142    0.8569    0.1529 H   0  0  0  0  0  0  0  0  0  0  0  0
    3.7674    2.3692    0.4790 H   0  0  0  0  0  0  0  0  0  0  0  0
   -0.4889   -1.8258   -1.3870 H   0  0  0  0  0  0  0  0  0  0  0  0
    1.1005   -2.6248    0.7982 H   0  0  0  0  0  0  0  0  0  0  0  0
   -0.4584   -1.3679    1.6585 H   0  0  0  0  0  0  0  0  0  0  0  0
   -1.6098   -2.4145    0.8536 H   0  0  0  0  0  0  0  0  0  0  0  0
   -0.4325    1.0805    0.8330 H   0  0  0  0  0  0  0  0  0  0  0  0
   -2.0012    1.4840    1.6717 H   0  0  0  0  0  0  0  0  0  0  0  0
   -1.6492    1.2511   -1.3960 H   0  0  0  0  0  0  0  0  0  0  0  0
   -2.8966    2.1577   -0.3670 H   0  0  0  0  0  0  0  0  0  0  0  0
   -3.0568   -0.6573   -1.1867 H   0  0  0  0  0  0  0  0  0  0  0  0
   -3.9302    0.1246    0.1674 H   0  0  0  0  0  0  0  0  0  0  0  0
  1  2  1  0
  2  3  1  0
  3  4  2  0
  4  5  1  0
  5  6  1  0
  6  7  1  0
  6  8  1  0
  8  9  1  0
  9 10  1  0
 10 11  1  0
 11 12  1  0
  5 13  2  0
 13  2  1  0
 12  9  1  0
  1 14  1  0
  1 15  1  0
  1 16  1  0
  6 17  1  6
  7 18  1  0
  8 19  1  0
  8 20  1  0
 10 21  1  0
 10 22  1  0
 11 23  1  0
 11 24  1  0
 12 25  1  0
 12 26  1  0
M  END
$$$$

     RDKit          3D

 26 27  0  0  0  0  0  0  0  0999 V2000
   -5.0513    0.4958    0.3690 C   0  0  0  0  0  0  0  0  0  0  0  0
   -3.6065    0.5616    0.1139 N   0  0  0  0  0  0  0  0  0  0  0  0
   -3.0061    1.4747   -0.5968 N   0  0  0  0  0  0  0  0  0  0  0  0
   -1.6895    1.2097   -0.6184 N   0  0  0  0  0  0  0  0  0  0  0  0
   -1.4666    0.0934    0.1046 C   0  0  0  0  0  0  0  0  0  0  0  0
   -0.1810   -0.5879    0.3733 C   0  0  1  0  0  0  0  0  0  0  0  0
   -0.3024   -1.9662    0.2080 O   0  0  0  0  0  0  0  0  0  0  0  0
    0.8686   -0.1183   -0.5909 C   0  0  0  0  0  0  0  0  0  0  0  0
    2.1516   -0.7226   -0.3791 N   0  0  0  0  0  0  0  0  0  0  0  0
    2.8647   -0.3863    0.8026 C   0  0  0  0  0  0  0  0  0  0  0  0
    3.7684    0.5564    0.0083 C   0  0  0  0  0  0  0  0  0  0  0  0
    3.2006   -0.1637   -1.2017 C   0  0  0  0  0  0  0  0  0  0  0  0
   -2.6783   -0.2850    0.5474 N   0  0  0  0  0  0  0  0  0  0  0  0
   -5.4478    1.4889    0.6343 H   0  0  0  0  0  0  0  0  0  0  0  0
   -5.1916   -0.1514    1.2607 H   0  0  0  0  0  0  0  0  0  0  0  0
   -5.6005    0.0802   -0.5088 H   0  0  0  0  0  0  0  0  0  0  0  0
    0.1470   -0.3032    1.3891 H   0  0  0  0  0  0  0  0  0  0  0  0
   -1.0759   -2.3310    0.7093 H   0  0  0  0  0  0  0  0  0  0  0  0
    0.5565   -0.3151   -1.6357 H   0  0  0  0  0  0  0  0  0  0  0  0
    0.9883    0.9854   -0.5072 H   0  0  0  0  0  0  0  0  0  0  0  0
    3.4170   -1.2700    1.2165 H   0  0  0  0  0  0  0  0  0  0  0  0
    2.3576    0.1413    1.6008 H   0  0  0  0  0  0  0  0  0  0  0  0
    4.8252    0.3585    0.2227 H   0  0  0  0  0  0  0  0  0  0  0  0
    3.4429    1.6147    0.0445 H   0  0  0  0  0  0  0  0  0  0  0  0
    3.8765   -0.9549   -1.5777 H   0  0  0  0  0  0  0  0  0  0  0  0
    2.8327    0.4952   -1.9887 H   0  0  0  0  0  0  0  0  0  0  0  0
  1  2  1  0
  2  3  1  0
  3  4  2  0
  4  5  1  0
  5  6  1  0
  6  7  1  0
  6  8  1  0
  8  9  1  0
  9 10  1  0
 10 11  1  0
 11 12  1  0
  5 13  2  0
 13  2  1  0
 12  9  1  0
  1 14  1  0
  1 15  1  0
  1 16  1  0
  6 17  1  1
  7 18  1  0
  8 19  1  0
  8 20  1  0
 10 21  1  0
 10 22  1  0
 11 23  1  0
 11 24  1  0
 12 25  1  0
 12 26  1  0
M  END
$$$$

     RDKit          3D

 26 27  0  0  0  0  0  0  0  0999 V2000
    5.0409    0.3428    0.3699 C   0  0  0  0  0  0  0  0  0  0  0  0
    3.6241    0.3469    0.0217 N   0  0  0  0  0  0  0  0  0  0  0  0
    3.0391    1.1332   -0.8919 N   0  0  0  0  0  0  0  0  0  0  0  0
    1.7418    0.8397   -0.9325 N   0  0  0  0  0  0  0  0  0  0  0  0
    1.5080   -0.1326   -0.0415 C   0  0  0  0  0  0  0  0  0  0  0  0
    0.2241   -0.7881    0.2713 C   0  0  1  0  0  0  0  0  0  0  0  0
    0.0849   -0.9373    1.6242 O   0  0  0  0  0  0  0  0  0  0  0  0
   -0.9451   -0.0350   -0.3043 C   0  0  0  0  0  0  0  0  0  0  0  0
   -2.1450   -0.8179   -0.0417 N   0  0  0  0  0  0  0  0  0  0  0  0
   -3.3453   -0.3021   -0.7312 C   0  0  0  0  0  0  0  0  0  0  0  0
   -3.4538    0.7240    0.3699 C   0  0  0  0  0  0  0  0  0  0  0  0
   -2.8108   -0.3754    1.1856 C   0  0  0  0  0  0  0  0  0  0  0  0
    2.6861   -0.4016    0.5118 N   0  0  0  0  0  0  0  0  0  0  0  0
    5.1595    0.7652    1.3797 H   0  0  0  0  0  0  0  0  0  0  0  0
    5.3687   -0.7344    0.4187 H   0  0  0  0  0  0  0  0  0  0  0  0
    5.6317    0.8942   -0.3914 H   0  0  0  0  0  0  0  0  0  0  0  0
    0.2473   -1.8192   -0.2100 H   0  0  0  0  0  0  0  0  0  0  0  0
    0.5343   -0.2318    2.1454 H   0  0  0  0  0  0  0  0  0  0  0  0
   -0.7694    0.1455   -1.3648 H   0  0  0  0  0  0  0  0  0  0  0  0
   -1.0041    0.9424    0.2552 H   0  0  0  0  0  0  0  0  0  0  0  0
   -3.1446    0.0747   -1.7536 H   0  0  0  0  0  0  0  0  0  0  0  0
   -4.1494   -1.0481   -0.6428 H   0  0  0  0  0  0  0  0  0  0  0  0
   -4.5161    0.9494    0.6538 H   0  0  0  0  0  0  0  0  0  0  0  0
   -2.8787    1.6427    0.2233 H   0  0  0  0  0  0  0  0  0  0  0  0
   -2.1514   -0.0420    1.9911 H   0  0  0  0  0  0  0  0  0  0  0  0
   -3.5767   -1.1356    1.4549 H   0  0  0  0  0  0  0  0  0  0  0  0
  1  2  1  0
  2  3  1  0
  3  4  2  0
  4  5  1  0
  5  6  1  0
  6  7  1  0
  6  8  1  0
  8  9  1  0
  9 10  1  0
 10 11  1  0
 11 12  1  0
  5 13  2  0
 13  2  1  0
 12  9  1  0
  1 14  1  0
  1 15  1  0
  1 16  1  0
  6 17  1  6
  7 18  1  0
  8 19  1  0
  8 20  1  0
 10 21  1  0
 10 22  1  0
 11 23  1  0
 11 24  1  0
 12 25  1  0
 12 26  1  0
M  END
$$$$

     RDKit          3D

 26 27  0  0  0  0  0  0  0  0999 V2000
    4.9495   -0.0942    0.3100 C   0  0  0  0  0  0  0  0  0  0  0  0
    3.5726   -0.3943   -0.0454 N   0  0  0  0  0  0  0  0  0  0  0  0
    3.1308   -1.1876   -0.9982 N   0  0  0  0  0  0  0  0  0  0  0  0
    1.8044   -1.1950   -1.0031 N   0  0  0  0  0  0  0  0  0  0  0  0
    1.3773   -0.3819   -0.0235 C   0  0  0  0  0  0  0  0  0  0  0  0
   -0.0421   -0.0666    0.3546 C   0  0  1  0  0  0  0  0  0  0  0  0
   -0.0556    1.3149    0.5360 O   0  0  0  0  0  0  0  0  0  0  0  0
   -0.9023   -0.5110   -0.7877 C   0  0  0  0  0  0  0  0  0  0  0  0
   -2.2629   -0.2066   -0.7250 N   0  0  0  0  0  0  0  0  0  0  0  0
   -3.1242   -0.8111    0.2266 C   0  0  0  0  0  0  0  0  0  0  0  0
   -3.4109    0.6034    0.7522 C   0  0  0  0  0  0  0  0  0  0  0  0
   -2.7495    1.0985   -0.5429 C   0  0  0  0  0  0  0  0  0  0  0  0
    2.4987    0.1031    0.5560 N   0  0  0  0  0  0  0  0  0  0  0  0
    5.5742   -0.9997    0.3721 H   0  0  0  0  0  0  0  0  0  0  0  0
    4.9811    0.3527    1.3472 H   0  0  0  0  0  0  0  0  0  0  0  0
    5.3949    0.6671   -0.3544 H   0  0  0  0  0  0  0  0  0  0  0  0
   -0.2409   -0.5669    1.3102 H   0  0  0  0  0  0  0  0  0  0  0  0
    0.4253    1.7059   -0.2443 H   0  0  0  0  0  0  0  0  0  0  0  0
   -0.4659   -0.1283   -1.7176 H   0  0  0  0  0  0  0  0  0  0  0  0
   -0.8024   -1.6360   -0.8349 H   0  0  0  0  0  0  0  0  0  0  0  0
   -2.6808   -1.4797    0.9718 H   0  0  0  0  0  0  0  0  0  0  0  0
   -4.0650   -1.1763   -0.2499 H   0  0  0  0  0  0  0  0  0  0  0  0
   -4.4665    0.8663    0.8385 H   0  0  0  0  0  0  0  0  0  0  0  0
   -2.7929    0.7957    1.6531 H   0  0  0  0  0  0  0  0  0  0  0  0
   -2.0799    1.9430   -0.4327 H   0  0  0  0  0  0  0  0  0  0  0  0
   -3.5669    1.3848   -1.2687 H   0  0  0  0  0  0  0  0  0  0  0  0
  1  2  1  0
  2  3  1  0
  3  4  2  0
  4  5  1  0
  5  6  1  0
  6  7  1  0
  6  8  1  0
  8  9  1  0
  9 10  1  0
 10 11  1  0
 11 12  1  0
  5 13  2  0
 13  2  1  0
 12  9  1  0
  1 14  1  0
  1 15  1  0
  1 16  1  0
  6 17  1  1
  7 18  1  0
  8 19  1  0
  8 20  1  0
 10 21  1  0
 10 22  1  0
 11 23  1  0
 11 24  1  0
 12 25  1  0
 12 26  1  0
M  END
$$$$

     RDKit          3D

 26 27  0  0  0  0  0  0  0  0999 V2000
   -5.1227   -0.1472    0.5177 C   0  0  0  0  0  0  0  0  0  0  0  0
   -3.7396   -0.0397    0.0545 N   0  0  0  0  0  0  0  0  0  0  0  0
   -3.3051    0.1704   -1.1770 N   0  0  0  0  0  0  0  0  0  0  0  0
   -1.9768    0.2050   -1.1991 N   0  0  0  0  0  0  0  0  0  0  0  0
   -1.5504    0.0126    0.0460 C   0  0  0  0  0  0  0  0  0  0  0  0
   -0.1795   -0.0461    0.6038 C   0  0  1  0  0  0  0  0  0  0  0  0
   -0.1241   -1.1535    1.4811 O   0  0  0  0  0  0  0  0  0  0  0  0
    0.8622   -0.2906   -0.4522 C   0  0  0  0  0  0  0  0  0  0  0  0
    2.1431   -0.3880    0.2119 N   0  0  0  0  0  0  0  0  0  0  0  0
    3.2692   -0.6256   -0.6701 C   0  0  0  0  0  0  0  0  0  0  0  0
    3.8726    0.6782   -0.2157 C   0  0  0  0  0  0  0  0  0  0  0  0
    2.6948    0.8269    0.7088 C   0  0  0  0  0  0  0  0  0  0  0  0
   -2.6532   -0.1360    0.8025 N   0  0  0  0  0  0  0  0  0  0  0  0
   -5.7211   -0.7841   -0.1855 H   0  0  0  0  0  0  0  0  0  0  0  0
   -5.6000    0.8303    0.6106 H   0  0  0  0  0  0  0  0  0  0  0  0
   -5.1215   -0.7106    1.4883 H   0  0  0  0  0  0  0  0  0  0  0  0
    0.0947    0.8353    1.1945 H   0  0  0  0  0  0  0  0  0  0  0  0
   -0.0541   -0.8802    2.4168 H   0  0  0  0  0  0  0  0  0  0  0  0
    0.8280    0.5523   -1.1877 H   0  0  0  0  0  0  0  0  0  0  0  0
    0.6594   -1.2066   -1.0354 H   0  0  0  0  0  0  0  0  0  0  0  0
    3.0425   -0.7057   -1.7344 H   0  0  0  0  0  0  0  0  0  0  0  0
    3.8687   -1.4829   -0.2576 H   0  0  0  0  0  0  0  0  0  0  0  0
    3.8271    1.4933   -0.9914 H   0  0  0  0  0  0  0  0  0  0  0  0
    4.8596    0.5822    0.2542 H   0  0  0  0  0  0  0  0  0  0  0  0
    2.0802    1.7343    0.5677 H   0  0  0  0  0  0  0  0  0  0  0  0
    3.0460    0.6760    1.7701 H   0  0  0  0  0  0  0  0  0  0  0  0
  1  2  1  0
  2  3  1  0
  3  4  2  0
  4  5  1  0
  5  6  1  0
  6  7  1  0
  6  8  1  0
  8  9  1  0
  9 10  1  0
 10 11  1  0
 11 12  1  0
  5 13  2  0
 13  2  1  0
 12  9  1  0
  1 14  1  0
  1 15  1  0
  1 16  1  0
  6 17  1  1
  7 18  1  0
  8 19  1  0
  8 20  1  0
 10 21  1  0
 10 22  1  0
 11 23  1  0
 11 24  1  0
 12 25  1  0
 12 26  1  0
M  END
$$$$

     RDKit          3D

 26 27  0  0  0  0  0  0  0  0999 V2000
    4.2261   -1.1607    0.6593 C   0  0  0  0  0  0  0  0  0  0  0  0
    2.8730   -0.7811    0.2775 N   0  0  0  0  0  0  0  0  0  0  0  0
    1.8788   -1.6382    0.1432 N   0  0  0  0  0  0  0  0  0  0  0  0
    0.8019   -0.9834   -0.2060 N   0  0  0  0  0  0  0  0  0  0  0  0
    1.1367    0.3070   -0.2895 C   0  0  0  0  0  0  0  0  0  0  0  0
    0.2050    1.3979   -0.6589 C   0  0  1  0  0  0  0  0  0  0  0  0
    0.7711    2.2782   -1.5835 O   0  0  0  0  0  0  0  0  0  0  0  0
   -1.1121    0.8396   -1.1731 C   0  0  0  0  0  0  0  0  0  0  0  0
   -1.6251   -0.0087   -0.2450 N   0  0  0  0  0  0  0  0  0  0  0  0
   -2.7967   -0.7402   -0.2818 C   0  0  0  0  0  0  0  0  0  0  0  0
   -3.1842    0.0898    0.9548 C   0  0  0  0  0  0  0  0  0  0  0  0
   -1.6549    0.1169    1.1327 C   0  0  0  0  0  0  0  0  0  0  0  0
    2.4236    0.4304    0.0112 N   0  0  0  0  0  0  0  0  0  0  0  0
    4.4445   -2.1628    0.2393 H   0  0  0  0  0  0  0  0  0  0  0  0
    4.3380   -1.1937    1.7458 H   0  0  0  0  0  0  0  0  0  0  0  0
    4.9537   -0.4043    0.2779 H   0  0  0  0  0  0  0  0  0  0  0  0
    0.0453    2.0004    0.2732 H   0  0  0  0  0  0  0  0  0  0  0  0
    1.0681    1.7263   -2.3518 H   0  0  0  0  0  0  0  0  0  0  0  0
   -1.7765    1.7369   -1.3412 H   0  0  0  0  0  0  0  0  0  0  0  0
   -0.9146    0.3796   -2.1415 H   0  0  0  0  0  0  0  0  0  0  0  0
   -2.6850   -1.7933    0.0532 H   0  0  0  0  0  0  0  0  0  0  0  0
   -3.4860   -0.5967   -1.1341 H   0  0  0  0  0  0  0  0  0  0  0  0
   -3.5336    1.0746    0.6215 H   0  0  0  0  0  0  0  0  0  0  0  0
   -3.7292   -0.4400    1.7173 H   0  0  0  0  0  0  0  0  0  0  0  0
   -1.2822    1.0085    1.6358 H   0  0  0  0  0  0  0  0  0  0  0  0
   -1.3857   -0.8427    1.6637 H   0  0  0  0  0  0  0  0  0  0  0  0
  1  2  1  0
  2  3  1  0
  3  4  2  0
  4  5  1  0
  5  6  1  0
  6  7  1  0
  6  8  1  0
  8  9  1  0
  9 10  1  0
 10 11  1  0
 11 12  1  0
  5 13  2  0
 13  2  1  0
 12  9  1  0
  1 14  1  0
  1 15  1  0
  1 16  1  0
  6 17  1  1
  7 18  1  0
  8 19  1  0
  8 20  1  0
 10 21  1  0
 10 22  1  0
 11 23  1  0
 11 24  1  0
 12 25  1  0
 12 26  1  0
M  END
$$$$

     RDKit          3D

 26 27  0  0  0  0  0  0  0  0999 V2000
    4.2857   -1.1915    0.6924 C   0  0  0  0  0  0  0  0  0  0  0  0
    3.0974   -0.3593    0.5832 N   0  0  0  0  0  0  0  0  0  0  0  0
    2.6433    0.4517    1.5148 N   0  0  0  0  0  0  0  0  0  0  0  0
    1.5652    1.0398    1.0856 N   0  0  0  0  0  0  0  0  0  0  0  0
    1.3019    0.6074   -0.1566 C   0  0  0  0  0  0  0  0  0  0  0  0
    0.1542    1.0308   -1.0162 C   0  0  1  0  0  0  0  0  0  0  0  0
    0.6771    1.2675   -2.2796 O   0  0  0  0  0  0  0  0  0  0  0  0
   -0.8732   -0.0440   -1.1113 C   0  0  0  0  0  0  0  0  0  0  0  0
   -1.4912   -0.3808    0.1400 N   0  0  0  0  0  0  0  0  0  0  0  0
   -2.3386    0.5924    0.7446 C   0  0  0  0  0  0  0  0  0  0  0  0
   -3.2937   -0.5324    1.0952 C   0  0  0  0  0  0  0  0  0  0  0  0
   -2.6644   -1.2022   -0.0924 C   0  0  0  0  0  0  0  0  0  0  0  0
    2.2704   -0.2636   -0.4479 N   0  0  0  0  0  0  0  0  0  0  0  0
    4.8547   -0.8963    1.5762 H   0  0  0  0  0  0  0  0  0  0  0  0
    4.0442   -2.2668    0.7867 H   0  0  0  0  0  0  0  0  0  0  0  0
    4.9219   -1.0540   -0.2248 H   0  0  0  0  0  0  0  0  0  0  0  0
   -0.2582    1.9734   -0.6061 H   0  0  0  0  0  0  0  0  0  0  0  0
    0.9494    0.4363   -2.7244 H   0  0  0  0  0  0  0  0  0  0  0  0
   -1.6174    0.2080   -1.8865 H   0  0  0  0  0  0  0  0  0  0  0  0
   -0.3522   -0.9718   -1.4728 H   0  0  0  0  0  0  0  0  0  0  0  0
   -1.9412    1.0471    1.6908 H   0  0  0  0  0  0  0  0  0  0  0  0
   -2.8473    1.3066    0.0836 H   0  0  0  0  0  0  0  0  0  0  0  0
   -4.3585   -0.2485    0.9755 H   0  0  0  0  0  0  0  0  0  0  0  0
   -3.0677   -0.9812    2.0770 H   0  0  0  0  0  0  0  0  0  0  0  0
   -2.4870   -2.2905    0.0051 H   0  0  0  0  0  0  0  0  0  0  0  0
   -3.1748   -0.8936   -1.0321 H   0  0  0  0  0  0  0  0  0  0  0  0
  1  2  1  0
  2  3  1  0
  3  4  2  0
  4  5  1  0
  5  6  1  0
  6  7  1  0
  6  8  1  0
  8  9  1  0
  9 10  1  0
 10 11  1  0
 11 12  1  0
  5 13  2  0
 13  2  1  0
 12  9  1  0
  1 14  1  0
  1 15  1  0
  1 16  1  0
  6 17  1  1
  7 18  1  0
  8 19  1  0
  8 20  1  0
 10 21  1  0
 10 22  1  0
 11 23  1  0
 11 24  1  0
 12 25  1  0
 12 26  1  0
M  END
$$$$
