
     RDKit          3D

 27 27  0  0  0  0  0  0  0  0999 V2000
   -3.0418    0.9497    0.6561 C   0  0  0  0  0  0  0  0  0  0  0  0
   -2.3885   -0.2515    0.5381 O   0  0  0  0  0  0  0  0  0  0  0  0
   -1.2483   -0.2035   -0.1977 C   0  0  2  0  0  0  0  0  0  0  0  0
   -1.6264    0.2523   -1.4886 O   0  0  0  0  0  0  0  0  0  0  0  0
   -0.7250   -1.6329   -0.4889 C   0  0  0  0  0  0  0  0  0  0  0  0
    0.6139   -1.7697   -0.2808 O   0  0  0  0  0  0  0  0  0  0  0  0
    1.4094   -0.8688   -0.9688 C   0  0  2  0  0  0  0  0  0  0  0  0
    2.8089   -0.9664   -0.3960 C   0  0  0  0  0  0  0  0  0  0  0  0
    3.6474   -0.0722   -1.0624 O   0  0  0  0  0  0  0  0  0  0  0  0
    0.9566    0.5595   -0.7791 C   0  0  1  0  0  0  0  0  0  0  0  0
    0.3803    0.9791   -1.9660 O   0  0  0  0  0  0  0  0  0  0  0  0
   -0.0736    0.5131    0.3607 C   0  0  1  0  0  0  0  0  0  0  0  0
   -0.2610    1.7533    0.8790 O   0  0  0  0  0  0  0  0  0  0  0  0
   -2.4771    1.7519    1.1492 H   0  0  0  0  0  0  0  0  0  0  0  0
   -4.0212    0.7521    1.1512 H   0  0  0  0  0  0  0  0  0  0  0  0
   -3.2502    1.3637   -0.3807 H   0  0  0  0  0  0  0  0  0  0  0  0
   -2.3994   -0.3444   -1.7365 H   0  0  0  0  0  0  0  0  0  0  0  0
   -1.2290   -2.2723    0.2959 H   0  0  0  0  0  0  0  0  0  0  0  0
   -1.1090   -2.0159   -1.4460 H   0  0  0  0  0  0  0  0  0  0  0  0
    1.4665   -1.1584   -2.0396 H   0  0  0  0  0  0  0  0  0  0  0  0
    3.2277   -1.9848   -0.4969 H   0  0  0  0  0  0  0  0  0  0  0  0
    2.7554   -0.6898    0.6772 H   0  0  0  0  0  0  0  0  0  0  0  0
    3.7812    0.7415   -0.5388 H   0  0  0  0  0  0  0  0  0  0  0  0
    1.7818    1.2482   -0.5358 H   0  0  0  0  0  0  0  0  0  0  0  0
    0.8142    1.8009   -2.3218 H   0  0  0  0  0  0  0  0  0  0  0  0
    0.3930   -0.2007    1.1089 H   0  0  0  0  0  0  0  0  0  0  0  0
   -0.1858    1.7663    1.8632 H   0  0  0  0  0  0  0  0  0  0  0  0
  1  2  1  0
  3  2  1  1
  3  4  1  0
  3  5  1  0
  5  6  1  0
  6  7  1  0
  7  8  1  0
  8  9  1  0
  7 10  1  0
 10 11  1  0
 10 12  1  0
 12 13  1  0
 12  3  1  0
  1 14  1  0
  1 15  1  0
  1 16  1  0
  4 17  1  0
  5 18  1  0
  5 19  1  0
  7 20  1  6
  8 21  1  0
  8 22  1  0
  9 23  1  0
 10 24  1  1
 11 25  1  0
 12 26  1  1
 13 27  1  0
M  END
$$$$

     RDKit          3D

 27 27  0  0  0  0  0  0  0  0999 V2000
   -3.1397    0.4052    0.5838 C   0  0  0  0  0  0  0  0  0  0  0  0
   -2.2825   -0.6803    0.6595 O   0  0  0  0  0  0  0  0  0  0  0  0
   -1.1952   -0.5071   -0.1563 C   0  0  2  0  0  0  0  0  0  0  0  0
   -1.6349   -0.3661   -1.4849 O   0  0  0  0  0  0  0  0  0  0  0  0
   -0.2557   -1.7167   -0.1012 C   0  0  0  0  0  0  0  0  0  0  0  0
    0.7443   -1.5447    0.8488 O   0  0  0  0  0  0  0  0  0  0  0  0
    1.6768   -0.6656    0.3582 C   0  0  2  0  0  0  0  0  0  0  0  0
    2.5196   -0.0822    1.4866 C   0  0  0  0  0  0  0  0  0  0  0  0
    3.4314    0.7947    0.8780 O   0  0  0  0  0  0  0  0  0  0  0  0
    1.0384    0.4554   -0.3923 C   0  0  1  0  0  0  0  0  0  0  0  0
    0.9675    0.2128   -1.7628 O   0  0  0  0  0  0  0  0  0  0  0  0
   -0.3600    0.7102    0.1493 C   0  0  1  0  0  0  0  0  0  0  0  0
   -0.8788    1.8707   -0.4297 O   0  0  0  0  0  0  0  0  0  0  0  0
   -2.6987    1.3595    0.8880 H   0  0  0  0  0  0  0  0  0  0  0  0
   -3.4858    0.5381   -0.4692 H   0  0  0  0  0  0  0  0  0  0  0  0
   -4.0568    0.2203    1.1893 H   0  0  0  0  0  0  0  0  0  0  0  0
   -2.3176   -1.0514   -1.6332 H   0  0  0  0  0  0  0  0  0  0  0  0
   -0.8836   -2.6120    0.1468 H   0  0  0  0  0  0  0  0  0  0  0  0
    0.1730   -1.8597   -1.0913 H   0  0  0  0  0  0  0  0  0  0  0  0
    2.3631   -1.2195   -0.3336 H   0  0  0  0  0  0  0  0  0  0  0  0
    3.0514   -0.8987    2.0386 H   0  0  0  0  0  0  0  0  0  0  0  0
    1.8371    0.4696    2.1462 H   0  0  0  0  0  0  0  0  0  0  0  0
    4.1675    0.2834    0.4611 H   0  0  0  0  0  0  0  0  0  0  0  0
    1.6270    1.4009   -0.2747 H   0  0  0  0  0  0  0  0  0  0  0  0
    0.6406    1.0363   -2.2039 H   0  0  0  0  0  0  0  0  0  0  0  0
   -0.2774    0.8316    1.2633 H   0  0  0  0  0  0  0  0  0  0  0  0
   -0.7711    2.6154    0.1937 H   0  0  0  0  0  0  0  0  0  0  0  0
  1  2  1  0
  3  2  1  1
  3  4  1  0
  3  5  1  0
  5  6  1  0
  6  7  1  0
  7  8  1  0
  8  9  1  0
  7 10  1  0
 10 11  1  0
 10 12  1  0
 12 13  1  0
 12  3  1  0
  1 14  1  0
  1 15  1  0
  1 16  1  0
  4 17  1  0
  5 18  1  0
  5 19  1  0
  7 20  1  6
  8 21  1  0
  8 22  1  0
  9 23  1  0
 10 24  1  6
 11 25  1  0
 12 26  1  1
 13 27  1  0
M  END
$$$$

     RDKit          3D

 27 27  0  0  0  0  0  0  0  0999 V2000
   -2.8481    0.4858   -1.3281 C   0  0  0  0  0  0  0  0  0  0  0  0
   -1.8372   -0.4474   -1.0743 O   0  0  0  0  0  0  0  0  0  0  0  0
   -1.3440   -0.2631    0.2263 C   0  0  2  0  0  0  0  0  0  0  0  0
   -2.4189   -0.4496    1.1029 O   0  0  0  0  0  0  0  0  0  0  0  0
   -0.7240    1.0848    0.3919 C   0  0  0  0  0  0  0  0  0  0  0  0
    0.3283    1.1297    1.2750 O   0  0  0  0  0  0  0  0  0  0  0  0
    1.4014    0.3488    0.9392 C   0  0  2  0  0  0  0  0  0  0  0  0
    2.5343    1.1786    0.4105 C   0  0  0  0  0  0  0  0  0  0  0  0
    3.6156    0.3321    0.0787 O   0  0  0  0  0  0  0  0  0  0  0  0
    1.0375   -0.7880   -0.0076 C   0  0  1  0  0  0  0  0  0  0  0  0
    1.9998   -1.7908    0.2176 O   0  0  0  0  0  0  0  0  0  0  0  0
   -0.3049   -1.3283    0.4948 C   0  0  1  0  0  0  0  0  0  0  0  0
   -0.1468   -1.5267    1.8664 O   0  0  0  0  0  0  0  0  0  0  0  0
   -2.4863    1.5308   -1.2432 H   0  0  0  0  0  0  0  0  0  0  0  0
   -3.6492    0.3520   -0.5890 H   0  0  0  0  0  0  0  0  0  0  0  0
   -3.1818    0.3475   -2.3785 H   0  0  0  0  0  0  0  0  0  0  0  0
   -2.8567   -1.3098    0.8532 H   0  0  0  0  0  0  0  0  0  0  0  0
   -1.4711    1.8484    0.7383 H   0  0  0  0  0  0  0  0  0  0  0  0
   -0.3891    1.4404   -0.6041 H   0  0  0  0  0  0  0  0  0  0  0  0
    1.7684   -0.1299    1.8944 H   0  0  0  0  0  0  0  0  0  0  0  0
    2.2472    1.7474   -0.4937 H   0  0  0  0  0  0  0  0  0  0  0  0
    2.8478    1.8675    1.2147 H   0  0  0  0  0  0  0  0  0  0  0  0
    4.4474    0.8189    0.2988 H   0  0  0  0  0  0  0  0  0  0  0  0
    0.9968   -0.4714   -1.0493 H   0  0  0  0  0  0  0  0  0  0  0  0
    1.9380   -2.4286   -0.5314 H   0  0  0  0  0  0  0  0  0  0  0  0
   -0.5179   -2.2703   -0.0327 H   0  0  0  0  0  0  0  0  0  0  0  0
   -0.9865   -1.3088    2.3209 H   0  0  0  0  0  0  0  0  0  0  0  0
  1  2  1  0
  3  2  1  6
  3  4  1  0
  3  5  1  0
  5  6  1  0
  6  7  1  0
  7  8  1  0
  8  9  1  0
  7 10  1  0
 10 11  1  0
 10 12  1  0
 12 13  1  0
 12  3  1  0
  1 14  1  0
  1 15  1  0
  1 16  1  0
  4 17  1  0
  5 18  1  0
  5 19  1  0
  7 20  1  1
  8 21  1  0
  8 22  1  0
  9 23  1  0
 10 24  1  6
 11 25  1  0
 12 26  1  6
 13 27  1  0
M  END
$$$$

     RDKit          3D

 27 27  0  0  0  0  0  0  0  0999 V2000
    3.2136    0.5543    0.6501 C   0  0  0  0  0  0  0  0  0  0  0  0
    2.1505    0.9164   -0.1241 O   0  0  0  0  0  0  0  0  0  0  0  0
    1.0973    0.0559   -0.2104 C   0  0  2  0  0  0  0  0  0  0  0  0
    1.4625   -1.1960   -0.7339 O   0  0  0  0  0  0  0  0  0  0  0  0
    0.1108    0.7120   -1.2043 C   0  0  0  0  0  0  0  0  0  0  0  0
   -0.9375   -0.1117   -1.5111 O   0  0  0  0  0  0  0  0  0  0  0  0
   -1.6801   -0.5084   -0.4088 C   0  0  2  0  0  0  0  0  0  0  0  0
   -2.5347    0.6285    0.1285 C   0  0  0  0  0  0  0  0  0  0  0  0
   -3.4276    1.0962   -0.8093 O   0  0  0  0  0  0  0  0  0  0  0  0
   -0.8400   -1.1075    0.6778 C   0  0  1  0  0  0  0  0  0  0  0  0
   -0.2428   -2.2606    0.1712 O   0  0  0  0  0  0  0  0  0  0  0  0
    0.2915   -0.1344    1.0483 C   0  0  1  0  0  0  0  0  0  0  0  0
    1.0167   -0.6444    2.1173 O   0  0  0  0  0  0  0  0  0  0  0  0
    3.9732    1.3841    0.5701 H   0  0  0  0  0  0  0  0  0  0  0  0
    3.6872   -0.3821    0.3453 H   0  0  0  0  0  0  0  0  0  0  0  0
    2.9105    0.5699    1.7254 H   0  0  0  0  0  0  0  0  0  0  0  0
    1.6505   -1.1438   -1.7049 H   0  0  0  0  0  0  0  0  0  0  0  0
    0.6263    0.9861   -2.1374 H   0  0  0  0  0  0  0  0  0  0  0  0
   -0.1979    1.6559   -0.7149 H   0  0  0  0  0  0  0  0  0  0  0  0
   -2.3834   -1.2930   -0.7572 H   0  0  0  0  0  0  0  0  0  0  0  0
   -3.1029    0.3054    1.0235 H   0  0  0  0  0  0  0  0  0  0  0  0
   -1.8974    1.4817    0.4734 H   0  0  0  0  0  0  0  0  0  0  0  0
   -3.5603    2.0556   -0.6885 H   0  0  0  0  0  0  0  0  0  0  0  0
   -1.4647   -1.2946    1.5551 H   0  0  0  0  0  0  0  0  0  0  0  0
   -0.4757   -3.0222    0.7441 H   0  0  0  0  0  0  0  0  0  0  0  0
   -0.1415    0.8631    1.3071 H   0  0  0  0  0  0  0  0  0  0  0  0
    0.6956   -0.1663    2.9319 H   0  0  0  0  0  0  0  0  0  0  0  0
  1  2  1  0
  3  2  1  1
  3  4  1  0
  3  5  1  0
  5  6  1  0
  6  7  1  0
  7  8  1  0
  8  9  1  0
  7 10  1  0
 10 11  1  0
 10 12  1  0
 12 13  1  0
 12  3  1  0
  1 14  1  0
  1 15  1  0
  1 16  1  0
  4 17  1  0
  5 18  1  0
  5 19  1  0
  7 20  1  6
  8 21  1  0
  8 22  1  0
  9 23  1  0
 10 24  1  1
 11 25  1  0
 12 26  1  1
 13 27  1  0
M  END
$$$$

     RDKit          3D

 27 27  0  0  0  0  0  0  0  0999 V2000
   -3.1138   -1.2481    0.3721 C   0  0  0  0  0  0  0  0  0  0  0  0
   -2.4271   -0.1613    0.8505 O   0  0  0  0  0  0  0  0  0  0  0  0
   -1.1599   -0.0921    0.2811 C   0  0  2  0  0  0  0  0  0  0  0  0
   -1.3334    0.0147   -1.1149 O   0  0  0  0  0  0  0  0  0  0  0  0
   -0.4135   -1.3313    0.5614 C   0  0  0  0  0  0  0  0  0  0  0  0
    0.9372   -1.1592    0.8566 O   0  0  0  0  0  0  0  0  0  0  0  0
    1.4190   -0.1849   -0.0010 C   0  0  2  0  0  0  0  0  0  0  0  0
    2.9202   -0.2534   -0.1667 C   0  0  0  0  0  0  0  0  0  0  0  0
    3.6072   -0.0877    1.0158 O   0  0  0  0  0  0  0  0  0  0  0  0
    1.0039    1.1473    0.6201 C   0  0  1  0  0  0  0  0  0  0  0  0
    1.5604    2.1478   -0.1623 O   0  0  0  0  0  0  0  0  0  0  0  0
   -0.4813    1.1822    0.6906 C   0  0  1  0  0  0  0  0  0  0  0  0
   -0.9124    2.2755   -0.0927 O   0  0  0  0  0  0  0  0  0  0  0  0
   -2.5966   -2.1979    0.5974 H   0  0  0  0  0  0  0  0  0  0  0  0
   -3.2369   -1.2276   -0.7385 H   0  0  0  0  0  0  0  0  0  0  0  0
   -4.1332   -1.3424    0.7837 H   0  0  0  0  0  0  0  0  0  0  0  0
   -2.1818    0.4497   -1.3485 H   0  0  0  0  0  0  0  0  0  0  0  0
   -0.8187   -1.8689    1.4717 H   0  0  0  0  0  0  0  0  0  0  0  0
   -0.4660   -2.0847   -0.2530 H   0  0  0  0  0  0  0  0  0  0  0  0
    0.9673   -0.2419   -1.0037 H   0  0  0  0  0  0  0  0  0  0  0  0
    3.1749   -1.1992   -0.6504 H   0  0  0  0  0  0  0  0  0  0  0  0
    3.1915    0.6137   -0.8362 H   0  0  0  0  0  0  0  0  0  0  0  0
    3.3739   -0.8150    1.6313 H   0  0  0  0  0  0  0  0  0  0  0  0
    1.4595    1.1744    1.6391 H   0  0  0  0  0  0  0  0  0  0  0  0
    1.0224    2.9829   -0.1281 H   0  0  0  0  0  0  0  0  0  0  0  0
   -0.7805    1.4272    1.7310 H   0  0  0  0  0  0  0  0  0  0  0  0
   -0.5825    2.0801   -1.0066 H   0  0  0  0  0  0  0  0  0  0  0  0
  1  2  1  0
  3  2  1  1
  3  4  1  0
  3  5  1  0
  5  6  1  0
  6  7  1  0
  7  8  1  0
  8  9  1  0
  7 10  1  0
 10 11  1  0
 10 12  1  0
 12 13  1  0
 12  3  1  0
  1 14  1  0
  1 15  1  0
  1 16  1  0
  4 17  1  0
  5 18  1  0
  5 19  1  0
  7 20  1  6
  8 21  1  0
  8 22  1  0
  9 23  1  0
 10 24  1  1
 11 25  1  0
 12 26  1  1
 13 27  1  0
M  END
$$$$

     RDKit          3D

 27 27  0  0  0  0  0  0  0  0999 V2000
    3.3072   -0.7160   -0.1324 C   0  0  0  0  0  0  0  0  0  0  0  0
    2.2481   -0.7855    0.7388 O   0  0  0  0  0  0  0  0  0  0  0  0
    1.0666   -0.5433    0.0543 C   0  0  2  0  0  0  0  0  0  0  0  0
    0.8721   -1.4831   -0.9625 O   0  0  0  0  0  0  0  0  0  0  0  0
    0.9897    0.8335   -0.5608 C   0  0  0  0  0  0  0  0  0  0  0  0
   -0.1276    1.5406   -0.1490 O   0  0  0  0  0  0  0  0  0  0  0  0
   -1.3243    0.9199   -0.3428 C   0  0  2  0  0  0  0  0  0  0  0  0
   -2.3725    1.7033    0.4623 C   0  0  0  0  0  0  0  0  0  0  0  0
   -3.6410    1.1141    0.3072 O   0  0  0  0  0  0  0  0  0  0  0  0
   -1.3390   -0.4825    0.2187 C   0  0  1  0  0  0  0  0  0  0  0  0
   -1.2835   -1.4004   -0.8466 O   0  0  0  0  0  0  0  0  0  0  0  0
   -0.0890   -0.6015    1.0620 C   0  0  1  0  0  0  0  0  0  0  0  0
   -0.0513   -1.7480    1.8180 O   0  0  0  0  0  0  0  0  0  0  0  0
    3.1861   -1.4835   -0.9449 H   0  0  0  0  0  0  0  0  0  0  0  0
    3.5003    0.2773   -0.5658 H   0  0  0  0  0  0  0  0  0  0  0  0
    4.2249   -1.0008    0.4516 H   0  0  0  0  0  0  0  0  0  0  0  0
    1.3102   -2.3453   -0.6764 H   0  0  0  0  0  0  0  0  0  0  0  0
    1.8673    1.4063   -0.1349 H   0  0  0  0  0  0  0  0  0  0  0  0
    1.1359    0.8269   -1.6491 H   0  0  0  0  0  0  0  0  0  0  0  0
   -1.6378    0.8934   -1.4228 H   0  0  0  0  0  0  0  0  0  0  0  0
   -2.4664    2.7436    0.0925 H   0  0  0  0  0  0  0  0  0  0  0  0
   -2.1192    1.7405    1.5204 H   0  0  0  0  0  0  0  0  0  0  0  0
   -3.9897    1.4561   -0.5608 H   0  0  0  0  0  0  0  0  0  0  0  0
   -2.2571   -0.6927    0.8028 H   0  0  0  0  0  0  0  0  0  0  0  0
   -1.4095   -0.9269   -1.6886 H   0  0  0  0  0  0  0  0  0  0  0  0
    0.0488    0.2865    1.7103 H   0  0  0  0  0  0  0  0  0  0  0  0
    0.3507   -1.5325    2.7179 H   0  0  0  0  0  0  0  0  0  0  0  0
  1  2  1  0
  3  2  1  1
  3  4  1  0
  3  5  1  0
  5  6  1  0
  6  7  1  0
  7  8  1  0
  8  9  1  0
  7 10  1  0
 10 11  1  0
 10 12  1  0
 12 13  1  0
 12  3  1  0
  1 14  1  0
  1 15  1  0
  1 16  1  0
  4 17  1  0
  5 18  1  0
  5 19  1  0
  7 20  1  6
  8 21  1  0
  8 22  1  0
  9 23  1  0
 10 24  1  1
 11 25  1  0
 12 26  1  1
 13 27  1  0
M  END
$$$$

     RDKit          3D

 27 27  0  0  0  0  0  0  0  0999 V2000
    3.4533    0.1436    0.3599 C   0  0  0  0  0  0  0  0  0  0  0  0
    2.3691   -0.2580    1.1426 O   0  0  0  0  0  0  0  0  0  0  0  0
    1.1709    0.2037    0.6665 C   0  0  2  0  0  0  0  0  0  0  0  0
    1.2028    1.5976    0.6498 O   0  0  0  0  0  0  0  0  0  0  0  0
    0.0875   -0.2748    1.6312 C   0  0  0  0  0  0  0  0  0  0  0  0
   -1.0390    0.4584    1.3035 O   0  0  0  0  0  0  0  0  0  0  0  0
   -1.5713    0.1537    0.0746 C   0  0  2  0  0  0  0  0  0  0  0  0
   -2.8278   -0.6780    0.3218 C   0  0  0  0  0  0  0  0  0  0  0  0
   -3.7627   -0.0013    1.0656 O   0  0  0  0  0  0  0  0  0  0  0  0
   -0.6716   -0.5373   -0.8751 C   0  0  1  0  0  0  0  0  0  0  0  0
   -0.9677   -0.1159   -2.1943 O   0  0  0  0  0  0  0  0  0  0  0  0
    0.7826   -0.3655   -0.6729 C   0  0  1  0  0  0  0  0  0  0  0  0
    1.3803    0.3983   -1.7031 O   0  0  0  0  0  0  0  0  0  0  0  0
    4.4103   -0.2358    0.7558 H   0  0  0  0  0  0  0  0  0  0  0  0
    3.4334    1.2273    0.2451 H   0  0  0  0  0  0  0  0  0  0  0  0
    3.3118   -0.3684   -0.6329 H   0  0  0  0  0  0  0  0  0  0  0  0
    1.0967    1.9777   -0.2556 H   0  0  0  0  0  0  0  0  0  0  0  0
   -0.0166   -1.3529    1.4913 H   0  0  0  0  0  0  0  0  0  0  0  0
    0.3607    0.0054    2.6765 H   0  0  0  0  0  0  0  0  0  0  0  0
   -1.9167    1.1068   -0.3788 H   0  0  0  0  0  0  0  0  0  0  0  0
   -3.2827   -0.9078   -0.6824 H   0  0  0  0  0  0  0  0  0  0  0  0
   -2.5930   -1.6286    0.8361 H   0  0  0  0  0  0  0  0  0  0  0  0
   -4.2212    0.6421    0.4900 H   0  0  0  0  0  0  0  0  0  0  0  0
   -0.9379   -1.6306   -0.8761 H   0  0  0  0  0  0  0  0  0  0  0  0
   -1.2921    0.8206   -2.2050 H   0  0  0  0  0  0  0  0  0  0  0  0
    1.2980   -1.3696   -0.7420 H   0  0  0  0  0  0  0  0  0  0  0  0
    0.7430    0.9893   -2.1445 H   0  0  0  0  0  0  0  0  0  0  0  0
  1  2  1  0
  3  2  1  1
  3  4  1  0
  3  5  1  0
  5  6  1  0
  6  7  1  0
  7  8  1  0
  8  9  1  0
  7 10  1  0
 10 11  1  0
 10 12  1  0
 12 13  1  0
 12  3  1  0
  1 14  1  0
  1 15  1  0
  1 16  1  0
  4 17  1  0
  5 18  1  0
  5 19  1  0
  7 20  1  6
  8 21  1  0
  8 22  1  0
  9 23  1  0
 10 24  1  6
 11 25  1  0
 12 26  1  1
 13 27  1  0
M  END
$$$$

     RDKit          3D

 27 27  0  0  0  0  0  0  0  0999 V2000
   -3.3187    0.9359    0.4463 C   0  0  0  0  0  0  0  0  0  0  0  0
   -2.3126    0.4639   -0.3681 O   0  0  0  0  0  0  0  0  0  0  0  0
   -1.2497   -0.0927    0.2857 C   0  0  2  0  0  0  0  0  0  0  0  0
   -1.6084   -1.1936    1.0753 O   0  0  0  0  0  0  0  0  0  0  0  0
   -0.4519    0.8683    1.1076 C   0  0  0  0  0  0  0  0  0  0  0  0
    0.7229    1.2834    0.4454 O   0  0  0  0  0  0  0  0  0  0  0  0
    1.6277    0.2500    0.4472 C   0  0  2  0  0  0  0  0  0  0  0  0
    2.9403    0.6942   -0.1357 C   0  0  0  0  0  0  0  0  0  0  0  0
    2.8128    1.1329   -1.4478 O   0  0  0  0  0  0  0  0  0  0  0  0
    1.0498   -0.9562   -0.2173 C   0  0  1  0  0  0  0  0  0  0  0  0
    0.8716   -2.0118    0.6950 O   0  0  0  0  0  0  0  0  0  0  0  0
   -0.3141   -0.6450   -0.7904 C   0  0  1  0  0  0  0  0  0  0  0  0
   -0.9187   -1.7593   -1.3195 O   0  0  0  0  0  0  0  0  0  0  0  0
   -3.0087    1.7222    1.1499 H   0  0  0  0  0  0  0  0  0  0  0  0
   -4.0830    1.4067   -0.2295 H   0  0  0  0  0  0  0  0  0  0  0  0
   -3.8660    0.1393    0.9929 H   0  0  0  0  0  0  0  0  0  0  0  0
   -2.1091   -1.8681    0.5857 H   0  0  0  0  0  0  0  0  0  0  0  0
   -0.1108    0.3741    2.0542 H   0  0  0  0  0  0  0  0  0  0  0  0
   -0.9834    1.7901    1.3825 H   0  0  0  0  0  0  0  0  0  0  0  0
    1.8276   -0.0109    1.5197 H   0  0  0  0  0  0  0  0  0  0  0  0
    3.2993    1.5452    0.4809 H   0  0  0  0  0  0  0  0  0  0  0  0
    3.6951   -0.1144   -0.0844 H   0  0  0  0  0  0  0  0  0  0  0  0
    3.7231    1.4503   -1.7212 H   0  0  0  0  0  0  0  0  0  0  0  0
    1.6803   -1.2911   -1.0594 H   0  0  0  0  0  0  0  0  0  0  0  0
    1.0781   -1.6889    1.6064 H   0  0  0  0  0  0  0  0  0  0  0  0
   -0.2574    0.1379   -1.5768 H   0  0  0  0  0  0  0  0  0  0  0  0
   -0.7362   -2.5626   -0.7541 H   0  0  0  0  0  0  0  0  0  0  0  0
  1  2  1  0
  3  2  1  6
  3  4  1  0
  3  5  1  0
  5  6  1  0
  6  7  1  0
  7  8  1  0
  8  9  1  0
  7 10  1  0
 10 11  1  0
 10 12  1  0
 12 13  1  0
 12  3  1  0
  1 14  1  0
  1 15  1  0
  1 16  1  0
  4 17  1  0
  5 18  1  0
  5 19  1  0
  7 20  1  1
  8 21  1  0
  8 22  1  0
  9 23  1  0
 10 24  1  6
 11 25  1  0
 12 26  1  6
 13 27  1  0
M  END
$$$$
