
     RDKit          3D

 26 26  0  0  0  0  0  0  0  0999 V2000
    2.8794   -1.1540    0.4579 C   0  0  0  0  0  0  0  0  0  0  0  0
    2.0140   -0.3470   -0.2959 O   0  0  0  0  0  0  0  0  0  0  0  0
    0.7795   -0.2123    0.3373 C   0  0  1  0  0  0  0  0  0  0  0  0
    0.5202    1.2586    0.5189 C   0  0  1  0  0  0  0  0  0  0  0  0
    1.0293    1.9190   -0.6099 O   0  0  0  0  0  0  0  0  0  0  0  0
   -0.9071    1.6025    0.7411 C   0  0  1  0  0  0  0  0  0  0  0  0
   -1.3040    2.6504   -0.1242 O   0  0  0  0  0  0  0  0  0  0  0  0
   -1.8139    0.6254    0.6763 O   0  0  0  0  0  0  0  0  0  0  0  0
   -1.6410   -0.4632   -0.0709 C   0  0  2  0  0  0  0  0  0  0  0  0
   -2.1616   -1.6755    0.7199 C   0  0  0  0  0  0  0  0  0  0  0  0
   -0.2718   -0.7647   -0.5688 C   0  0  1  0  0  0  0  0  0  0  0  0
   -0.1022   -0.3215   -1.8939 O   0  0  0  0  0  0  0  0  0  0  0  0
    3.8423   -1.2303   -0.0842 H   0  0  0  0  0  0  0  0  0  0  0  0
    2.4819   -2.1662    0.5991 H   0  0  0  0  0  0  0  0  0  0  0  0
    3.0812   -0.6436    1.4375 H   0  0  0  0  0  0  0  0  0  0  0  0
    0.7508   -0.7696    1.2937 H   0  0  0  0  0  0  0  0  0  0  0  0
    1.1917    1.5880    1.3667 H   0  0  0  0  0  0  0  0  0  0  0  0
    1.2821    2.8445   -0.3768 H   0  0  0  0  0  0  0  0  0  0  0  0
   -0.9731    2.0709    1.7704 H   0  0  0  0  0  0  0  0  0  0  0  0
   -0.6983    2.7249   -0.8773 H   0  0  0  0  0  0  0  0  0  0  0  0
   -2.3184   -0.4201   -0.9747 H   0  0  0  0  0  0  0  0  0  0  0  0
   -3.0464   -1.3322    1.3066 H   0  0  0  0  0  0  0  0  0  0  0  0
   -1.4083   -2.0127    1.4584 H   0  0  0  0  0  0  0  0  0  0  0  0
   -2.5131   -2.4564    0.0414 H   0  0  0  0  0  0  0  0  0  0  0  0
   -0.1494   -1.8805   -0.6086 H   0  0  0  0  0  0  0  0  0  0  0  0
   -0.5439    0.5656   -1.9280 H   0  0  0  0  0  0  0  0  0  0  0  0
  1  2  1  0
  2  3  1  0
  3  4  1  0
  4  5  1  0
  4  6  1  0
  6  7  1  0
  6  8  1  0
  8  9  1  0
  9 10  1  0
  9 11  1  0
 11 12  1  0
 11  3  1  0
  1 13  1  0
  1 14  1  0
  1 15  1  0
  3 16  1  1
  4 17  1  1
  5 18  1  0
  6 19  1  1
  7 20  1  0
  9 21  1  6
 10 22  1  0
 10 23  1  0
 10 24  1  0
 11 25  1  6
 12 26  1  0
M  END
$$$$

     RDKit          3D

 26 26  0  0  0  0  0  0  0  0999 V2000
    2.7778   -0.2785   -0.5997 C   0  0  0  0  0  0  0  0  0  0  0  0
    1.4336    0.0561   -0.7231 O   0  0  0  0  0  0  0  0  0  0  0  0
    0.8096   -0.1107    0.4948 C   0  0  1  0  0  0  0  0  0  0  0  0
    0.1534    1.1683    0.9853 C   0  0  1  0  0  0  0  0  0  0  0  0
    1.1041    2.1832    1.1558 O   0  0  0  0  0  0  0  0  0  0  0  0
   -0.9916    1.6096    0.1605 C   0  0  1  0  0  0  0  0  0  0  0  0
   -0.5122    2.5732   -0.7578 O   0  0  0  0  0  0  0  0  0  0  0  0
   -1.7070    0.6998   -0.5031 O   0  0  0  0  0  0  0  0  0  0  0  0
   -1.2620   -0.5478   -0.6849 C   0  0  2  0  0  0  0  0  0  0  0  0
   -2.4406   -1.4968   -0.8209 C   0  0  0  0  0  0  0  0  0  0  0  0
   -0.3647   -1.0930    0.3888 C   0  0  1  0  0  0  0  0  0  0  0  0
    0.0357   -2.3712    0.1381 O   0  0  0  0  0  0  0  0  0  0  0  0
    3.2754    0.3639    0.1480 H   0  0  0  0  0  0  0  0  0  0  0  0
    3.3102   -0.1841   -1.5707 H   0  0  0  0  0  0  0  0  0  0  0  0
    2.9156   -1.3236   -0.2590 H   0  0  0  0  0  0  0  0  0  0  0  0
    1.5227   -0.4633    1.2527 H   0  0  0  0  0  0  0  0  0  0  0  0
   -0.2201    0.9319    2.0171 H   0  0  0  0  0  0  0  0  0  0  0  0
    1.6931    2.2843    0.3883 H   0  0  0  0  0  0  0  0  0  0  0  0
   -1.6871    2.1986    0.8304 H   0  0  0  0  0  0  0  0  0  0  0  0
   -0.2453    3.3785   -0.2339 H   0  0  0  0  0  0  0  0  0  0  0  0
   -0.6984   -0.6274   -1.6484 H   0  0  0  0  0  0  0  0  0  0  0  0
   -2.6982   -1.6787   -1.8863 H   0  0  0  0  0  0  0  0  0  0  0  0
   -3.3453   -1.0485   -0.3606 H   0  0  0  0  0  0  0  0  0  0  0  0
   -2.2510   -2.4521   -0.2848 H   0  0  0  0  0  0  0  0  0  0  0  0
   -0.9124   -0.9909    1.3536 H   0  0  0  0  0  0  0  0  0  0  0  0
    0.3046   -2.7808    1.0198 H   0  0  0  0  0  0  0  0  0  0  0  0
  1  2  1  0
  2  3  1  0
  3  4  1  0
  4  5  1  0
  4  6  1  0
  6  7  1  0
  6  8  1  0
  8  9  1  0
  9 10  1  0
  9 11  1  0
 11 12  1  0
 11  3  1  0
  1 13  1  0
  1 14  1  0
  1 15  1  0
  3 16  1  1
  4 17  1  1
  5 18  1  0
  6 19  1  1
  7 20  1  0
  9 21  1  6
 10 22  1  0
 10 23  1  0
 10 24  1  0
 11 25  1  1
 12 26  1  0
M  END
$$$$

     RDKit          3D

 26 26  0  0  0  0  0  0  0  0999 V2000
    2.4283   -1.4133    1.4083 C   0  0  0  0  0  0  0  0  0  0  0  0
    1.9681   -0.9560    0.1691 O   0  0  0  0  0  0  0  0  0  0  0  0
    0.7748   -0.2744    0.2829 C   0  0  1  0  0  0  0  0  0  0  0  0
    0.8567    1.1218   -0.2794 C   0  0  1  0  0  0  0  0  0  0  0  0
    1.2902    1.0283   -1.5919 O   0  0  0  0  0  0  0  0  0  0  0  0
   -0.5280    1.7237   -0.2147 C   0  0  1  0  0  0  0  0  0  0  0  0
   -0.4244    3.0060   -0.8007 O   0  0  0  0  0  0  0  0  0  0  0  0
   -1.4616    1.0276   -0.9354 O   0  0  0  0  0  0  0  0  0  0  0  0
   -1.5647   -0.3057   -0.6308 C   0  0  2  0  0  0  0  0  0  0  0  0
   -2.3924   -0.5739    0.6087 C   0  0  0  0  0  0  0  0  0  0  0  0
   -0.2584   -1.0217   -0.5322 C   0  0  1  0  0  0  0  0  0  0  0  0
    0.2745   -1.1174   -1.8385 O   0  0  0  0  0  0  0  0  0  0  0  0
    1.6220   -2.0961    1.7918 H   0  0  0  0  0  0  0  0  0  0  0  0
    3.3385   -2.0275    1.2504 H   0  0  0  0  0  0  0  0  0  0  0  0
    2.5484   -0.6184    2.1487 H   0  0  0  0  0  0  0  0  0  0  0  0
    0.4263   -0.2319    1.3502 H   0  0  0  0  0  0  0  0  0  0  0  0
    1.5332    1.7778    0.2664 H   0  0  0  0  0  0  0  0  0  0  0  0
    1.6611    1.9130   -1.8346 H   0  0  0  0  0  0  0  0  0  0  0  0
   -0.7840    1.8855    0.8401 H   0  0  0  0  0  0  0  0  0  0  0  0
   -0.5502    3.7213   -0.1487 H   0  0  0  0  0  0  0  0  0  0  0  0
   -2.1321   -0.7830   -1.4837 H   0  0  0  0  0  0  0  0  0  0  0  0
   -3.2787    0.1148    0.6557 H   0  0  0  0  0  0  0  0  0  0  0  0
   -2.8151   -1.5953    0.5101 H   0  0  0  0  0  0  0  0  0  0  0  0
   -1.7933   -0.5594    1.5321 H   0  0  0  0  0  0  0  0  0  0  0  0
   -0.4532   -2.0323   -0.1141 H   0  0  0  0  0  0  0  0  0  0  0  0
   -0.2858   -1.7132   -2.4099 H   0  0  0  0  0  0  0  0  0  0  0  0
  1  2  1  0
  2  3  1  0
  3  4  1  0
  4  5  1  0
  4  6  1  0
  6  7  1  0
  6  8  1  0
  8  9  1  0
  9 10  1  0
  9 11  1  0
 11 12  1  0
 11  3  1  0
  1 13  1  0
  1 14  1  0
  1 15  1  0
  3 16  1  1
  4 17  1  1
  5 18  1  0
  6 19  1  1
  7 20  1  0
  9 21  1  6
 10 22  1  0
 10 23  1  0
 10 24  1  0
 11 25  1  1
 12 26  1  0
M  END
$$$$

     RDKit          3D

 26 26  0  0  0  0  0  0  0  0999 V2000
    3.0849   -1.1038    0.6665 C   0  0  0  0  0  0  0  0  0  0  0  0
    2.0843   -0.8556   -0.2466 O   0  0  0  0  0  0  0  0  0  0  0  0
    0.9345   -0.3370    0.2271 C   0  0  1  0  0  0  0  0  0  0  0  0
    0.7543    1.1050   -0.2690 C   0  0  1  0  0  0  0  0  0  0  0  0
    0.6578    1.1776   -1.6332 O   0  0  0  0  0  0  0  0  0  0  0  0
   -0.3659    1.7445    0.4806 C   0  0  1  0  0  0  0  0  0  0  0  0
   -0.8639    2.8478   -0.2000 O   0  0  0  0  0  0  0  0  0  0  0  0
   -1.3850    0.8635    0.8167 O   0  0  0  0  0  0  0  0  0  0  0  0
   -1.4703   -0.1382   -0.1180 C   0  0  2  0  0  0  0  0  0  0  0  0
   -2.7724   -0.9116    0.0081 C   0  0  0  0  0  0  0  0  0  0  0  0
   -0.3093   -1.1250    0.0333 C   0  0  1  0  0  0  0  0  0  0  0  0
   -0.3303   -1.9116   -1.1043 O   0  0  0  0  0  0  0  0  0  0  0  0
    3.9901   -1.5243    0.2146 H   0  0  0  0  0  0  0  0  0  0  0  0
    2.7405   -1.6521    1.5721 H   0  0  0  0  0  0  0  0  0  0  0  0
    3.3944   -0.0895    1.0637 H   0  0  0  0  0  0  0  0  0  0  0  0
    1.0626   -0.2157    1.3444 H   0  0  0  0  0  0  0  0  0  0  0  0
    1.7005    1.6421    0.0248 H   0  0  0  0  0  0  0  0  0  0  0  0
    1.1234    1.9405   -2.0403 H   0  0  0  0  0  0  0  0  0  0  0  0
    0.0259    2.1431    1.4620 H   0  0  0  0  0  0  0  0  0  0  0  0
   -1.8328    2.7499   -0.2696 H   0  0  0  0  0  0  0  0  0  0  0  0
   -1.4357    0.2494   -1.1627 H   0  0  0  0  0  0  0  0  0  0  0  0
   -3.0289   -1.4209   -0.9432 H   0  0  0  0  0  0  0  0  0  0  0  0
   -3.5938   -0.1862    0.1953 H   0  0  0  0  0  0  0  0  0  0  0  0
   -2.7068   -1.6708    0.7897 H   0  0  0  0  0  0  0  0  0  0  0  0
   -0.5314   -1.7471    0.9017 H   0  0  0  0  0  0  0  0  0  0  0  0
   -0.9265   -1.5740   -1.8136 H   0  0  0  0  0  0  0  0  0  0  0  0
  1  2  1  0
  2  3  1  0
  3  4  1  0
  4  5  1  0
  4  6  1  0
  6  7  1  0
  6  8  1  0
  8  9  1  0
  9 10  1  0
  9 11  1  0
 11 12  1  0
 11  3  1  0
  1 13  1  0
  1 14  1  0
  1 15  1  0
  3 16  1  1
  4 17  1  1
  5 18  1  0
  6 19  1  1
  7 20  1  0
  9 21  1  6
 10 22  1  0
 10 23  1  0
 10 24  1  0
 11 25  1  1
 12 26  1  0
M  END
$$$$

     RDKit          3D

 26 26  0  0  0  0  0  0  0  0999 V2000
    2.7007   -0.7139   -0.8871 C   0  0  0  0  0  0  0  0  0  0  0  0
    1.4103   -0.2273   -0.7870 O   0  0  0  0  0  0  0  0  0  0  0  0
    0.9215   -0.2023    0.5029 C   0  0  1  0  0  0  0  0  0  0  0  0
    0.6469    1.2513    0.8525 C   0  0  1  0  0  0  0  0  0  0  0  0
    1.7319    2.0097    0.4096 O   0  0  0  0  0  0  0  0  0  0  0  0
   -0.5821    1.7550    0.1631 C   0  0  1  0  0  0  0  0  0  0  0  0
   -0.4196    1.8691   -1.2193 O   0  0  0  0  0  0  0  0  0  0  0  0
   -1.6288    0.9029    0.4438 O   0  0  0  0  0  0  0  0  0  0  0  0
   -1.4164   -0.3461   -0.1597 C   0  0  2  0  0  0  0  0  0  0  0  0
   -2.7235   -1.0610   -0.1740 C   0  0  0  0  0  0  0  0  0  0  0  0
   -0.3446   -1.0385    0.6356 C   0  0  1  0  0  0  0  0  0  0  0  0
   -0.0514   -2.3049    0.2081 O   0  0  0  0  0  0  0  0  0  0  0  0
    2.9734   -0.6821   -1.9667 H   0  0  0  0  0  0  0  0  0  0  0  0
    3.4438   -0.1290   -0.3412 H   0  0  0  0  0  0  0  0  0  0  0  0
    2.7830   -1.7797   -0.5857 H   0  0  0  0  0  0  0  0  0  0  0  0
    1.6421   -0.5773    1.2583 H   0  0  0  0  0  0  0  0  0  0  0  0
    0.5140    1.3938    1.9415 H   0  0  0  0  0  0  0  0  0  0  0  0
    2.1538    2.4908    1.1879 H   0  0  0  0  0  0  0  0  0  0  0  0
   -0.8049    2.7608    0.5566 H   0  0  0  0  0  0  0  0  0  0  0  0
   -1.2956    2.1253   -1.5947 H   0  0  0  0  0  0  0  0  0  0  0  0
   -1.0285   -0.1182   -1.1818 H   0  0  0  0  0  0  0  0  0  0  0  0
   -2.6661   -2.1419   -0.3391 H   0  0  0  0  0  0  0  0  0  0  0  0
   -3.3182   -0.6415   -1.0372 H   0  0  0  0  0  0  0  0  0  0  0  0
   -3.2933   -0.8202    0.7370 H   0  0  0  0  0  0  0  0  0  0  0  0
   -0.6300   -1.0265    1.7114 H   0  0  0  0  0  0  0  0  0  0  0  0
   -0.7184   -2.7483   -0.3345 H   0  0  0  0  0  0  0  0  0  0  0  0
  1  2  1  0
  2  3  1  0
  3  4  1  0
  4  5  1  0
  4  6  1  0
  6  7  1  0
  6  8  1  0
  8  9  1  0
  9 10  1  0
  9 11  1  0
 11 12  1  0
 11  3  1  0
  1 13  1  0
  1 14  1  0
  1 15  1  0
  3 16  1  1
  4 17  1  1
  5 18  1  0
  6 19  1  1
  7 20  1  0
  9 21  1  6
 10 22  1  0
 10 23  1  0
 10 24  1  0
 11 25  1  1
 12 26  1  0
M  END
$$$$

     RDKit          3D

 26 26  0  0  0  0  0  0  0  0999 V2000
    2.6446    1.2154    0.2911 C   0  0  0  0  0  0  0  0  0  0  0  0
    1.4157    0.6152    0.4972 O   0  0  0  0  0  0  0  0  0  0  0  0
    0.9422   -0.0795   -0.5902 C   0  0  1  0  0  0  0  0  0  0  0  0
    0.6373   -1.4973   -0.1238 C   0  0  1  0  0  0  0  0  0  0  0  0
    1.5646   -1.8715    0.8188 O   0  0  0  0  0  0  0  0  0  0  0  0
   -0.7492   -1.4984    0.4976 C   0  0  1  0  0  0  0  0  0  0  0  0
   -0.7335   -2.5388    1.4561 O   0  0  0  0  0  0  0  0  0  0  0  0
   -1.0429   -0.3440    1.1739 O   0  0  0  0  0  0  0  0  0  0  0  0
   -1.0792    0.7934    0.4209 C   0  0  2  0  0  0  0  0  0  0  0  0
   -2.4428    1.3945    0.2859 C   0  0  0  0  0  0  0  0  0  0  0  0
   -0.4339    0.5151   -0.9269 C   0  0  1  0  0  0  0  0  0  0  0  0
   -0.3246    1.6479   -1.6988 O   0  0  0  0  0  0  0  0  0  0  0  0
    3.4530    0.5162    0.0414 H   0  0  0  0  0  0  0  0  0  0  0  0
    2.5776    2.0584   -0.4289 H   0  0  0  0  0  0  0  0  0  0  0  0
    2.9299    1.6899    1.2689 H   0  0  0  0  0  0  0  0  0  0  0  0
    1.6023   -0.0630   -1.4710 H   0  0  0  0  0  0  0  0  0  0  0  0
    0.6235   -2.1509   -1.0222 H   0  0  0  0  0  0  0  0  0  0  0  0
    1.5236   -2.8626    0.9785 H   0  0  0  0  0  0  0  0  0  0  0  0
   -1.5325   -1.8018   -0.2401 H   0  0  0  0  0  0  0  0  0  0  0  0
   -0.9602   -3.3989    0.9961 H   0  0  0  0  0  0  0  0  0  0  0  0
   -0.4064    1.5469    0.9249 H   0  0  0  0  0  0  0  0  0  0  0  0
   -2.9762    0.8723   -0.5184 H   0  0  0  0  0  0  0  0  0  0  0  0
   -2.3002    2.4716    0.0126 H   0  0  0  0  0  0  0  0  0  0  0  0
   -2.9477    1.3177    1.2748 H   0  0  0  0  0  0  0  0  0  0  0  0
   -1.0485   -0.2277   -1.4481 H   0  0  0  0  0  0  0  0  0  0  0  0
   -0.9365    1.6800   -2.4704 H   0  0  0  0  0  0  0  0  0  0  0  0
  1  2  1  0
  2  3  1  0
  3  4  1  0
  4  5  1  0
  4  6  1  0
  6  7  1  0
  6  8  1  0
  8  9  1  0
  9 10  1  0
  9 11  1  0
 11 12  1  0
 11  3  1  0
  1 13  1  0
  1 14  1  0
  1 15  1  0
  3 16  1  6
  4 17  1  6
  5 18  1  0
  6 19  1  6
  7 20  1  0
  9 21  1  1
 10 22  1  0
 10 23  1  0
 10 24  1  0
 11 25  1  6
 12 26  1  0
M  END
$$$$

     RDKit          3D

 26 26  0  0  0  0  0  0  0  0999 V2000
   -2.5416   -0.9110    0.8017 C   0  0  0  0  0  0  0  0  0  0  0  0
   -1.3021   -0.2747    0.7741 O   0  0  0  0  0  0  0  0  0  0  0  0
   -0.8464   -0.1841   -0.5558 C   0  0  1  0  0  0  0  0  0  0  0  0
   -0.5155    1.2654   -0.7980 C   0  0  1  0  0  0  0  0  0  0  0  0
   -1.6778    1.9991   -0.6467 O   0  0  0  0  0  0  0  0  0  0  0  0
    0.6000    1.7179    0.0636 C   0  0  1  0  0  0  0  0  0  0  0  0
    0.1280    2.8400    0.7922 O   0  0  0  0  0  0  0  0  0  0  0  0
    1.1168    0.8489    0.9438 O   0  0  0  0  0  0  0  0  0  0  0  0
    1.2322   -0.4536    0.6336 C   0  0  2  0  0  0  0  0  0  0  0  0
    2.6640   -0.9570    0.5269 C   0  0  0  0  0  0  0  0  0  0  0  0
    0.5112   -0.9024   -0.6100 C   0  0  1  0  0  0  0  0  0  0  0  0
    0.3226   -2.2582   -0.6599 O   0  0  0  0  0  0  0  0  0  0  0  0
   -3.2458   -0.3086    0.1966 H   0  0  0  0  0  0  0  0  0  0  0  0
   -2.8782   -0.9429    1.8599 H   0  0  0  0  0  0  0  0  0  0  0  0
   -2.3816   -1.9351    0.3885 H   0  0  0  0  0  0  0  0  0  0  0  0
   -1.5379   -0.6185   -1.2716 H   0  0  0  0  0  0  0  0  0  0  0  0
   -0.2390    1.3405   -1.8906 H   0  0  0  0  0  0  0  0  0  0  0  0
   -2.1394    2.1483   -1.5219 H   0  0  0  0  0  0  0  0  0  0  0  0
    1.4154    2.1484   -0.5892 H   0  0  0  0  0  0  0  0  0  0  0  0
    0.4712    2.8275    1.7233 H   0  0  0  0  0  0  0  0  0  0  0  0
    0.7790   -1.0508    1.4814 H   0  0  0  0  0  0  0  0  0  0  0  0
    2.5826   -1.9747    0.0537 H   0  0  0  0  0  0  0  0  0  0  0  0
    3.1371   -1.0273    1.5219 H   0  0  0  0  0  0  0  0  0  0  0  0
    3.2051   -0.3138   -0.1639 H   0  0  0  0  0  0  0  0  0  0  0  0
    1.0660   -0.4944   -1.4812 H   0  0  0  0  0  0  0  0  0  0  0  0
    0.0743   -2.5289   -1.5723 H   0  0  0  0  0  0  0  0  0  0  0  0
  1  2  1  0
  2  3  1  0
  3  4  1  0
  4  5  1  0
  4  6  1  0
  6  7  1  0
  6  8  1  0
  8  9  1  0
  9 10  1  0
  9 11  1  0
 11 12  1  0
 11  3  1  0
  1 13  1  0
  1 14  1  0
  1 15  1  0
  3 16  1  6
  4 17  1  6
  5 18  1  0
  6 19  1  6
  7 20  1  0
  9 21  1  1
 10 22  1  0
 10 23  1  0
 10 24  1  0
 11 25  1  6
 12 26  1  0
M  END
$$$$

     RDKit          3D

 26 26  0  0  0  0  0  0  0  0999 V2000
    2.6663    1.4544    0.2726 C   0  0  0  0  0  0  0  0  0  0  0  0
    1.9791    0.2753    0.4887 O   0  0  0  0  0  0  0  0  0  0  0  0
    0.6308    0.3500    0.2118 C   0  0  1  0  0  0  0  0  0  0  0  0
    0.2307   -0.5512   -0.9491 C   0  0  1  0  0  0  0  0  0  0  0  0
    1.3481   -1.0990   -1.5734 O   0  0  0  0  0  0  0  0  0  0  0  0
   -0.6540   -1.6710   -0.4713 C   0  0  1  0  0  0  0  0  0  0  0  0
    0.0307   -2.5948    0.3066 O   0  0  0  0  0  0  0  0  0  0  0  0
   -1.7899   -1.1877    0.1075 O   0  0  0  0  0  0  0  0  0  0  0  0
   -1.6394   -0.1560    0.9821 C   0  0  2  0  0  0  0  0  0  0  0  0
   -2.3395    1.0642    0.4009 C   0  0  0  0  0  0  0  0  0  0  0  0
   -0.2430    0.1345    1.4112 C   0  0  1  0  0  0  0  0  0  0  0  0
    0.2144   -0.8456    2.2686 O   0  0  0  0  0  0  0  0  0  0  0  0
    2.6041    1.8051   -0.7877 H   0  0  0  0  0  0  0  0  0  0  0  0
    3.7446    1.2378    0.4448 H   0  0  0  0  0  0  0  0  0  0  0  0
    2.3920    2.2645    0.9615 H   0  0  0  0  0  0  0  0  0  0  0  0
    0.4381    1.3907   -0.1302 H   0  0  0  0  0  0  0  0  0  0  0  0
   -0.3291    0.0022   -1.7319 H   0  0  0  0  0  0  0  0  0  0  0  0
    1.4600   -0.7908   -2.4968 H   0  0  0  0  0  0  0  0  0  0  0  0
   -0.9682   -2.2331   -1.3999 H   0  0  0  0  0  0  0  0  0  0  0  0
   -0.5340   -3.1106    0.9010 H   0  0  0  0  0  0  0  0  0  0  0  0
   -2.2213   -0.4175    1.9143 H   0  0  0  0  0  0  0  0  0  0  0  0
   -3.4271    0.9499    0.5885 H   0  0  0  0  0  0  0  0  0  0  0  0
   -2.0131    1.9976    0.8934 H   0  0  0  0  0  0  0  0  0  0  0  0
   -2.2104    1.0725   -0.6941 H   0  0  0  0  0  0  0  0  0  0  0  0
   -0.2568    1.0892    1.9926 H   0  0  0  0  0  0  0  0  0  0  0  0
    0.8867   -0.4305    2.8819 H   0  0  0  0  0  0  0  0  0  0  0  0
  1  2  1  0
  2  3  1  0
  3  4  1  0
  4  5  1  0
  4  6  1  0
  6  7  1  0
  6  8  1  0
  8  9  1  0
  9 10  1  0
  9 11  1  0
 11 12  1  0
 11  3  1  0
  1 13  1  0
  1 14  1  0
  1 15  1  0
  3 16  1  6
  4 17  1  6
  5 18  1  0
  6 19  1  6
  7 20  1  0
  9 21  1  1
 10 22  1  0
 10 23  1  0
 10 24  1  0
 11 25  1  1
 12 26  1  0
M  END
$$$$
