
     RDKit          3D

 24 25  0  0  0  0  0  0  0  0999 V2000
    1.3566   -2.0170    0.9428 O   0  0  0  0  0  0  0  0  0  0  0  0
    0.7683   -1.1991   -0.0244 C   0  0  2  0  0  0  0  0  0  0  0  0
    1.4460    0.1268    0.0113 C   0  0  1  0  0  0  0  0  0  0  0  0
    2.6189    0.0299   -0.7697 O   0  0  0  0  0  0  0  0  0  0  0  0
    0.6388    1.2519   -0.5621 C   0  0  2  0  0  0  0  0  0  0  0  0
    1.1975    2.4449   -0.0476 O   0  0  0  0  0  0  0  0  0  0  0  0
   -0.8148    1.2011   -0.2031 C   0  0  1  0  0  0  0  0  0  0  0  0
   -1.6186    0.5089   -1.1909 N   0  0  0  0  0  0  0  0  0  0  0  0
   -1.3165   -0.8347   -1.1168 N   0  0  0  0  0  0  0  0  0  0  0  0
   -0.7337   -1.0895    0.1852 C   0  0  2  0  0  0  0  0  0  0  0  0
   -0.9452    0.2145    0.9673 C   0  0  2  0  0  0  0  0  0  0  0  0
   -2.2477    0.3193    1.4207 O   0  0  0  0  0  0  0  0  0  0  0  0
    0.8878   -2.8969    0.9286 H   0  0  0  0  0  0  0  0  0  0  0  0
    0.9264   -1.7017   -1.0075 H   0  0  0  0  0  0  0  0  0  0  0  0
    1.7969    0.3423    1.0405 H   0  0  0  0  0  0  0  0  0  0  0  0
    3.4125   -0.1494   -0.2232 H   0  0  0  0  0  0  0  0  0  0  0  0
    0.7737    1.3076   -1.6593 H   0  0  0  0  0  0  0  0  0  0  0  0
    0.8941    2.6335    0.8611 H   0  0  0  0  0  0  0  0  0  0  0  0
   -1.2663    2.1640    0.0348 H   0  0  0  0  0  0  0  0  0  0  0  0
   -1.5825    0.9240   -2.1256 H   0  0  0  0  0  0  0  0  0  0  0  0
   -2.1321   -1.4587   -1.3050 H   0  0  0  0  0  0  0  0  0  0  0  0
   -1.1588   -1.9512    0.6975 H   0  0  0  0  0  0  0  0  0  0  0  0
   -0.1817    0.3727    1.7266 H   0  0  0  0  0  0  0  0  0  0  0  0
   -2.7197   -0.5433    1.4186 H   0  0  0  0  0  0  0  0  0  0  0  0
  1  2  1  0
  2  3  1  0
  3  4  1  0
  3  5  1  0
  5  6  1  0
  5  7  1  0
  7  8  1  0
  8  9  1  0
  9 10  1  0
 10 11  1  0
 11 12  1  0
 10  2  1  0
 11  7  1  0
  1 13  1  0
  2 14  1  6
  3 15  1  1
  4 16  1  0
  5 17  1  6
  6 18  1  0
  7 19  1  1
  8 20  1  0
  9 21  1  0
 10 22  1  1
 11 23  1  1
 12 24  1  0
M  END
$$$$

     RDKit          3D

 24 25  0  0  0  0  0  0  0  0999 V2000
    1.1526   -0.9368   -1.9018 O   0  0  0  0  0  0  0  0  0  0  0  0
    0.8490    0.1735   -1.0833 C   0  0  2  0  0  0  0  0  0  0  0  0
    1.3936    0.0171    0.2733 C   0  0  1  0  0  0  0  0  0  0  0  0
    2.1395    1.1695    0.6212 O   0  0  0  0  0  0  0  0  0  0  0  0
    0.4615   -0.2933    1.3693 C   0  0  2  0  0  0  0  0  0  0  0  0
    0.4037   -1.6571    1.6561 O   0  0  0  0  0  0  0  0  0  0  0  0
   -0.9852    0.1266    1.0762 C   0  0  1  0  0  0  0  0  0  0  0  0
   -0.9843    1.4720    0.7166 N   0  0  0  0  0  0  0  0  0  0  0  0
   -0.9115    1.6931   -0.5931 N   0  0  0  0  0  0  0  0  0  0  0  0
   -0.6269    0.3971   -1.1810 C   0  0  2  0  0  0  0  0  0  0  0  0
   -1.3023   -0.5892   -0.2450 C   0  0  2  0  0  0  0  0  0  0  0  0
   -2.6427   -0.7217   -0.4604 O   0  0  0  0  0  0  0  0  0  0  0  0
    1.7354   -1.5803   -1.4369 H   0  0  0  0  0  0  0  0  0  0  0  0
    1.3391    1.0430   -1.6031 H   0  0  0  0  0  0  0  0  0  0  0  0
    2.1752   -0.8007    0.2426 H   0  0  0  0  0  0  0  0  0  0  0  0
    2.9379    1.1401    0.0143 H   0  0  0  0  0  0  0  0  0  0  0  0
    0.7293    0.2062    2.3446 H   0  0  0  0  0  0  0  0  0  0  0  0
    1.1469   -2.1075    1.2026 H   0  0  0  0  0  0  0  0  0  0  0  0
   -1.6370   -0.2013    1.8803 H   0  0  0  0  0  0  0  0  0  0  0  0
   -1.1549    2.1958    1.3829 H   0  0  0  0  0  0  0  0  0  0  0  0
   -1.7038    2.1847   -1.0529 H   0  0  0  0  0  0  0  0  0  0  0  0
   -0.9621    0.2928   -2.2077 H   0  0  0  0  0  0  0  0  0  0  0  0
   -0.7368   -1.5386   -0.3266 H   0  0  0  0  0  0  0  0  0  0  0  0
   -2.8165   -1.6853   -0.6878 H   0  0  0  0  0  0  0  0  0  0  0  0
  1  2  1  0
  2  3  1  0
  3  4  1  0
  3  5  1  0
  5  6  1  0
  5  7  1  0
  7  8  1  0
  8  9  1  0
  9 10  1  0
 10 11  1  0
 11 12  1  0
 10  2  1  0
 11  7  1  0
  1 13  1  0
  2 14  1  6
  3 15  1  6
  4 16  1  0
  5 17  1  1
  6 18  1  0
  7 19  1  1
  8 20  1  0
  9 21  1  0
 10 22  1  6
 11 23  1  1
 12 24  1  0
M  END
$$$$

     RDKit          3D

 24 25  0  0  0  0  0  0  0  0999 V2000
   -0.3670    1.9067    1.3239 O   0  0  0  0  0  0  0  0  0  0  0  0
   -0.5575    1.3140    0.0811 C   0  0  2  0  0  0  0  0  0  0  0  0
   -1.5221    0.1918    0.2260 C   0  0  1  0  0  0  0  0  0  0  0  0
   -2.3643    0.0448   -0.8991 O   0  0  0  0  0  0  0  0  0  0  0  0
   -0.9260   -1.1217    0.5789 C   0  0  2  0  0  0  0  0  0  0  0  0
   -0.8177   -1.3385    1.9557 O   0  0  0  0  0  0  0  0  0  0  0  0
    0.4397   -1.3613   -0.0093 C   0  0  1  0  0  0  0  0  0  0  0  0
    0.4824   -1.1723   -1.4351 N   0  0  0  0  0  0  0  0  0  0  0  0
    0.5413    0.1762   -1.6996 N   0  0  0  0  0  0  0  0  0  0  0  0
    0.7733    0.8875   -0.4836 C   0  0  2  0  0  0  0  0  0  0  0  0
    1.3146   -0.1910    0.4649 C   0  0  2  0  0  0  0  0  0  0  0  0
    2.6307   -0.4923    0.2031 O   0  0  0  0  0  0  0  0  0  0  0  0
    0.3282    2.6068    1.2498 H   0  0  0  0  0  0  0  0  0  0  0  0
   -0.9972    2.0554   -0.6340 H   0  0  0  0  0  0  0  0  0  0  0  0
   -2.2316    0.4709    1.0605 H   0  0  0  0  0  0  0  0  0  0  0  0
   -1.8729   -0.0010   -1.7345 H   0  0  0  0  0  0  0  0  0  0  0  0
   -1.6109   -1.9218    0.1969 H   0  0  0  0  0  0  0  0  0  0  0  0
   -0.8134   -0.5246    2.4829 H   0  0  0  0  0  0  0  0  0  0  0  0
    0.8195   -2.3239    0.3221 H   0  0  0  0  0  0  0  0  0  0  0  0
   -0.2049   -1.7107   -1.9676 H   0  0  0  0  0  0  0  0  0  0  0  0
    1.2030    0.4382   -2.4612 H   0  0  0  0  0  0  0  0  0  0  0  0
    1.4572    1.7262   -0.5457 H   0  0  0  0  0  0  0  0  0  0  0  0
    1.0905    0.0310    1.5115 H   0  0  0  0  0  0  0  0  0  0  0  0
    3.2050    0.3096    0.2125 H   0  0  0  0  0  0  0  0  0  0  0  0
  1  2  1  0
  2  3  1  0
  3  4  1  0
  3  5  1  0
  5  6  1  0
  5  7  1  0
  7  8  1  0
  8  9  1  0
  9 10  1  0
 10 11  1  0
 11 12  1  0
 10  2  1  0
 11  7  1  0
  1 13  1  0
  2 14  1  6
  3 15  1  1
  4 16  1  0
  5 17  1  6
  6 18  1  0
  7 19  1  6
  8 20  1  0
  9 21  1  0
 10 22  1  6
 11 23  1  1
 12 24  1  0
M  END
$$$$

     RDKit          3D

 24 25  0  0  0  0  0  0  0  0999 V2000
    0.5980    2.5887    0.0314 O   0  0  0  0  0  0  0  0  0  0  0  0
    0.2507    1.3032    0.5126 C   0  0  2  0  0  0  0  0  0  0  0  0
    1.4046    0.4056    0.3726 C   0  0  1  0  0  0  0  0  0  0  0  0
    2.0933    0.3770    1.6101 O   0  0  0  0  0  0  0  0  0  0  0  0
    1.1326   -0.9969   -0.0060 C   0  0  2  0  0  0  0  0  0  0  0  0
    1.7649   -1.3025   -1.2332 O   0  0  0  0  0  0  0  0  0  0  0  0
   -0.3447   -1.2961   -0.2311 C   0  0  1  0  0  0  0  0  0  0  0  0
   -1.0718   -1.0290    0.9763 N   0  0  0  0  0  0  0  0  0  0  0  0
   -1.8038    0.1340    0.7992 N   0  0  0  0  0  0  0  0  0  0  0  0
   -1.0065    0.9089   -0.1665 C   0  0  2  0  0  0  0  0  0  0  0  0
   -0.7963   -0.1992   -1.2091 C   0  0  2  0  0  0  0  0  0  0  0  0
   -2.0033   -0.5936   -1.7187 O   0  0  0  0  0  0  0  0  0  0  0  0
    0.6786    2.5537   -0.9739 H   0  0  0  0  0  0  0  0  0  0  0  0
    0.0033    1.4819    1.6004 H   0  0  0  0  0  0  0  0  0  0  0  0
    2.1576    0.8516   -0.3420 H   0  0  0  0  0  0  0  0  0  0  0  0
    1.7121   -0.3455    2.1858 H   0  0  0  0  0  0  0  0  0  0  0  0
    1.5210   -1.7602    0.7101 H   0  0  0  0  0  0  0  0  0  0  0  0
    2.0159   -0.4368   -1.6758 H   0  0  0  0  0  0  0  0  0  0  0  0
   -0.4689   -2.2925   -0.6416 H   0  0  0  0  0  0  0  0  0  0  0  0
   -1.7299   -1.7920    1.2308 H   0  0  0  0  0  0  0  0  0  0  0  0
   -1.9882    0.6636    1.6549 H   0  0  0  0  0  0  0  0  0  0  0  0
   -1.5720    1.7466   -0.5732 H   0  0  0  0  0  0  0  0  0  0  0  0
   -0.0242    0.0472   -1.9306 H   0  0  0  0  0  0  0  0  0  0  0  0
   -2.5231   -1.0176   -0.9826 H   0  0  0  0  0  0  0  0  0  0  0  0
  1  2  1  0
  2  3  1  0
  3  4  1  0
  3  5  1  0
  5  6  1  0
  5  7  1  0
  7  8  1  0
  8  9  1  0
  9 10  1  0
 10 11  1  0
 11 12  1  0
 10  2  1  0
 11  7  1  0
  1 13  1  0
  2 14  1  1
  3 15  1  6
  4 16  1  0
  5 17  1  1
  6 18  1  0
  7 19  1  6
  8 20  1  0
  9 21  1  0
 10 22  1  6
 11 23  1  6
 12 24  1  0
M  END
$$$$

     RDKit          3D

 24 25  0  0  0  0  0  0  0  0999 V2000
   -1.5714   -2.1436   -0.3711 O   0  0  0  0  0  0  0  0  0  0  0  0
   -1.0412   -1.0115    0.2946 C   0  0  2  0  0  0  0  0  0  0  0  0
   -1.4920    0.2005   -0.4008 C   0  0  1  0  0  0  0  0  0  0  0  0
   -2.6628    0.6685    0.2446 O   0  0  0  0  0  0  0  0  0  0  0  0
   -0.5565    1.3346   -0.5040 C   0  0  2  0  0  0  0  0  0  0  0  0
   -0.3131    1.7198   -1.8419 O   0  0  0  0  0  0  0  0  0  0  0  0
    0.8025    1.0364    0.1349 C   0  0  1  0  0  0  0  0  0  0  0  0
    0.5439    0.7227    1.5116 N   0  0  0  0  0  0  0  0  0  0  0  0
    0.8204   -0.6133    1.7267 N   0  0  0  0  0  0  0  0  0  0  0  0
    0.4210   -1.2114    0.4389 C   0  0  2  0  0  0  0  0  0  0  0  0
    1.2333   -0.2976   -0.4919 C   0  0  2  0  0  0  0  0  0  0  0  0
    2.5627   -0.5121   -0.2345 O   0  0  0  0  0  0  0  0  0  0  0  0
   -0.9760   -2.4622   -1.0752 H   0  0  0  0  0  0  0  0  0  0  0  0
   -1.4919   -1.0756    1.3294 H   0  0  0  0  0  0  0  0  0  0  0  0
   -1.8446   -0.0541   -1.4436 H   0  0  0  0  0  0  0  0  0  0  0  0
   -2.4076    0.7340    1.2195 H   0  0  0  0  0  0  0  0  0  0  0  0
   -0.9053    2.2725   -0.0004 H   0  0  0  0  0  0  0  0  0  0  0  0
   -0.2946    0.9632   -2.4511 H   0  0  0  0  0  0  0  0  0  0  0  0
    1.5152    1.8294   -0.0418 H   0  0  0  0  0  0  0  0  0  0  0  0
    0.9316    1.3759    2.1944 H   0  0  0  0  0  0  0  0  0  0  0  0
    1.8660   -0.7917    1.7821 H   0  0  0  0  0  0  0  0  0  0  0  0
    0.7681   -2.2461    0.3455 H   0  0  0  0  0  0  0  0  0  0  0  0
    0.9260   -0.3893   -1.5298 H   0  0  0  0  0  0  0  0  0  0  0  0
    3.1663   -0.0488   -0.8362 H   0  0  0  0  0  0  0  0  0  0  0  0
  1  2  1  0
  2  3  1  0
  3  4  1  0
  3  5  1  0
  5  6  1  0
  5  7  1  0
  7  8  1  0
  8  9  1  0
  9 10  1  0
 10 11  1  0
 11 12  1  0
 10  2  1  0
 11  7  1  0
  1 13  1  0
  2 14  1  1
  3 15  1  6
  4 16  1  0
  5 17  1  1
  6 18  1  0
  7 19  1  1
  8 20  1  0
  9 21  1  0
 10 22  1  1
 11 23  1  6
 12 24  1  0
M  END
$$$$

     RDKit          3D

 24 25  0  0  0  0  0  0  0  0999 V2000
   -1.5330   -0.9702   -1.6822 O   0  0  0  0  0  0  0  0  0  0  0  0
   -1.0567   -0.7316   -0.3715 C   0  0  2  0  0  0  0  0  0  0  0  0
   -1.3713    0.6357    0.0930 C   0  0  1  0  0  0  0  0  0  0  0  0
   -2.0961    0.6223    1.3089 O   0  0  0  0  0  0  0  0  0  0  0  0
   -0.2253    1.5872    0.1434 C   0  0  2  0  0  0  0  0  0  0  0  0
   -0.0066    2.0768   -1.1610 O   0  0  0  0  0  0  0  0  0  0  0  0
    1.0668    0.8584    0.5330 C   0  0  1  0  0  0  0  0  0  0  0  0
    0.7295   -0.0556    1.5766 N   0  0  0  0  0  0  0  0  0  0  0  0
    0.7365   -1.3418    1.0850 N   0  0  0  0  0  0  0  0  0  0  0  0
    0.3566   -1.1555   -0.3225 C   0  0  2  0  0  0  0  0  0  0  0  0
    1.3382   -0.0372   -0.6851 C   0  0  2  0  0  0  0  0  0  0  0  0
    2.6243   -0.4952   -0.5681 O   0  0  0  0  0  0  0  0  0  0  0  0
   -1.8658   -1.8998   -1.7727 H   0  0  0  0  0  0  0  0  0  0  0  0
   -1.6506   -1.4527    0.2657 H   0  0  0  0  0  0  0  0  0  0  0  0
   -2.1160    1.0712   -0.6411 H   0  0  0  0  0  0  0  0  0  0  0  0
   -1.5267    0.5119    2.0826 H   0  0  0  0  0  0  0  0  0  0  0  0
   -0.4223    2.4384    0.7942 H   0  0  0  0  0  0  0  0  0  0  0  0
   -0.5785    1.6144   -1.8180 H   0  0  0  0  0  0  0  0  0  0  0  0
    1.8818    1.5412    0.7377 H   0  0  0  0  0  0  0  0  0  0  0  0
    1.2025    0.0850    2.4712 H   0  0  0  0  0  0  0  0  0  0  0  0
    0.0756   -1.9935    1.5248 H   0  0  0  0  0  0  0  0  0  0  0  0
    0.5305   -2.0428   -0.9241 H   0  0  0  0  0  0  0  0  0  0  0  0
    1.0880    0.4514   -1.6224 H   0  0  0  0  0  0  0  0  0  0  0  0
    2.8187   -1.3182   -1.0473 H   0  0  0  0  0  0  0  0  0  0  0  0
  1  2  1  0
  2  3  1  0
  3  4  1  0
  3  5  1  0
  5  6  1  0
  5  7  1  0
  7  8  1  0
  8  9  1  0
  9 10  1  0
 10 11  1  0
 11 12  1  0
 10  2  1  0
 11  7  1  0
  1 13  1  0
  2 14  1  1
  3 15  1  6
  4 16  1  0
  5 17  1  1
  6 18  1  0
  7 19  1  1
  8 20  1  0
  9 21  1  0
 10 22  1  6
 11 23  1  6
 12 24  1  0
M  END
$$$$

     RDKit          3D

 24 25  0  0  0  0  0  0  0  0999 V2000
   -0.5339   -2.6498    0.0347 O   0  0  0  0  0  0  0  0  0  0  0  0
   -0.3106   -1.3263    0.4777 C   0  0  2  0  0  0  0  0  0  0  0  0
   -1.2968   -0.4525   -0.2005 C   0  0  1  0  0  0  0  0  0  0  0  0
   -2.4802   -0.4672    0.5758 O   0  0  0  0  0  0  0  0  0  0  0  0
   -0.8962    0.9676   -0.3683 C   0  0  2  0  0  0  0  0  0  0  0  0
   -1.4130    1.4482   -1.5824 O   0  0  0  0  0  0  0  0  0  0  0  0
    0.5923    1.1941   -0.3964 C   0  0  1  0  0  0  0  0  0  0  0  0
    1.0728    1.2112    0.9500 N   0  0  0  0  0  0  0  0  0  0  0  0
    1.6024   -0.0154    1.2654 N   0  0  0  0  0  0  0  0  0  0  0  0
    1.1197   -0.9704    0.2594 C   0  0  2  0  0  0  0  0  0  0  0  0
    1.2093   -0.0813   -0.9877 C   0  0  2  0  0  0  0  0  0  0  0  0
    2.5399    0.1805   -1.2421 O   0  0  0  0  0  0  0  0  0  0  0  0
   -1.5067   -2.8316   -0.0162 H   0  0  0  0  0  0  0  0  0  0  0  0
   -0.4688   -1.3835    1.5953 H   0  0  0  0  0  0  0  0  0  0  0  0
   -1.6160   -0.8791   -1.1925 H   0  0  0  0  0  0  0  0  0  0  0  0
   -2.4007    0.2628    1.2521 H   0  0  0  0  0  0  0  0  0  0  0  0
   -1.3231    1.6264    0.4190 H   0  0  0  0  0  0  0  0  0  0  0  0
   -1.7488    2.3708   -1.4964 H   0  0  0  0  0  0  0  0  0  0  0  0
    0.8429    2.0829   -0.9798 H   0  0  0  0  0  0  0  0  0  0  0  0
    0.3177    1.5289    1.5848 H   0  0  0  0  0  0  0  0  0  0  0  0
    1.4437   -0.3414    2.2262 H   0  0  0  0  0  0  0  0  0  0  0  0
    1.7699   -1.8398    0.1960 H   0  0  0  0  0  0  0  0  0  0  0  0
    0.6408   -0.4725   -1.8246 H   0  0  0  0  0  0  0  0  0  0  0  0
    2.8434    0.8375   -0.5495 H   0  0  0  0  0  0  0  0  0  0  0  0
  1  2  1  0
  2  3  1  0
  3  4  1  0
  3  5  1  0
  5  6  1  0
  5  7  1  0
  7  8  1  0
  8  9  1  0
  9 10  1  0
 10 11  1  0
 11 12  1  0
 10  2  1  0
 11  7  1  0
  1 13  1  0
  2 14  1  1
  3 15  1  6
  4 16  1  0
  5 17  1  1
  6 18  1  0
  7 19  1  6
  8 20  1  0
  9 21  1  0
 10 22  1  6
 11 23  1  6
 12 24  1  0
M  END
$$$$

     RDKit          3D

 24 25  0  0  0  0  0  0  0  0999 V2000
    1.2985    2.1194   -0.1776 O   0  0  0  0  0  0  0  0  0  0  0  0
    0.5558    1.2076    0.6088 C   0  0  2  0  0  0  0  0  0  0  0  0
    1.2554   -0.0810    0.7364 C   0  0  1  0  0  0  0  0  0  0  0  0
    1.3830   -0.4148    2.1057 O   0  0  0  0  0  0  0  0  0  0  0  0
    0.7054   -1.2359    0.0028 C   0  0  2  0  0  0  0  0  0  0  0  0
    1.4820   -1.5604   -1.1335 O   0  0  0  0  0  0  0  0  0  0  0  0
   -0.7068   -1.0902   -0.4684 C   0  0  1  0  0  0  0  0  0  0  0  0
   -1.5537   -0.9095    0.6822 N   0  0  0  0  0  0  0  0  0  0  0  0
   -1.6768    0.4351    0.9332 N   0  0  0  0  0  0  0  0  0  0  0  0
   -0.8188    1.1607    0.0462 C   0  0  2  0  0  0  0  0  0  0  0  0
   -0.7782    0.2605   -1.1934 C   0  0  2  0  0  0  0  0  0  0  0  0
   -1.9003    0.3798   -1.9672 O   0  0  0  0  0  0  0  0  0  0  0  0
    0.6718    2.7766   -0.6196 H   0  0  0  0  0  0  0  0  0  0  0  0
    0.4844    1.7164    1.6156 H   0  0  0  0  0  0  0  0  0  0  0  0
    2.3231    0.0670    0.3957 H   0  0  0  0  0  0  0  0  0  0  0  0
    2.2534   -0.9058    2.2530 H   0  0  0  0  0  0  0  0  0  0  0  0
    0.7324   -2.1612    0.6509 H   0  0  0  0  0  0  0  0  0  0  0  0
    1.9070   -2.4298   -1.0649 H   0  0  0  0  0  0  0  0  0  0  0  0
   -0.9892   -1.9226   -1.1065 H   0  0  0  0  0  0  0  0  0  0  0  0
   -2.4687   -1.4046    0.6139 H   0  0  0  0  0  0  0  0  0  0  0  0
   -1.4604    0.7007    1.9315 H   0  0  0  0  0  0  0  0  0  0  0  0
   -1.1661    2.1643   -0.2175 H   0  0  0  0  0  0  0  0  0  0  0  0
    0.1726    0.4507   -1.7221 H   0  0  0  0  0  0  0  0  0  0  0  0
   -1.7055    0.6771   -2.9054 H   0  0  0  0  0  0  0  0  0  0  0  0
  1  2  1  0
  2  3  1  0
  3  4  1  0
  3  5  1  0
  5  6  1  0
  5  7  1  0
  7  8  1  0
  8  9  1  0
  9 10  1  0
 10 11  1  0
 11 12  1  0
 10  2  1  0
 11  7  1  0
  1 13  1  0
  2 14  1  1
  3 15  1  6
  4 16  1  0
  5 17  1  1
  6 18  1  0
  7 19  1  6
  8 20  1  0
  9 21  1  0
 10 22  1  6
 11 23  1  6
 12 24  1  0
M  END
$$$$
