
     RDKit          3D

 26 26  0  0  0  0  0  0  0  0999 V2000
    2.7865    0.0214    0.5692 C   0  0  0  0  0  0  0  0  0  0  0  0
    1.7442   -0.9077   -0.0016 C   0  0  0  0  0  0  0  0  0  0  0  0
    0.6908   -0.1372   -0.8026 C   0  0  1  0  0  0  0  0  0  0  0  0
   -0.2466   -1.0844   -1.3013 N   0  0  0  0  0  0  0  0  0  0  0  0
   -1.2449   -1.4135   -0.3018 C   0  0  0  0  0  0  0  0  0  0  0  0
   -2.0936   -0.1410   -0.1815 C   0  0  1  0  0  0  0  0  0  0  0  0
   -3.2553   -0.3539    0.5044 O   0  0  0  0  0  0  0  0  0  0  0  0
   -1.1978    0.8418    0.5462 C   0  0  2  0  0  0  0  0  0  0  0  0
   -1.8562    2.0726    0.6852 O   0  0  0  0  0  0  0  0  0  0  0  0
    0.1364    1.0106   -0.0643 C   0  0  2  0  0  0  0  0  0  0  0  0
    0.1033    2.1635   -0.8779 O   0  0  0  0  0  0  0  0  0  0  0  0
    2.6455    0.2286    1.6461 H   0  0  0  0  0  0  0  0  0  0  0  0
    2.7399    0.9794    0.0255 H   0  0  0  0  0  0  0  0  0  0  0  0
    3.8013   -0.4091    0.3993 H   0  0  0  0  0  0  0  0  0  0  0  0
    1.3103   -1.4814    0.8190 H   0  0  0  0  0  0  0  0  0  0  0  0
    2.2464   -1.6011   -0.7276 H   0  0  0  0  0  0  0  0  0  0  0  0
    1.2592    0.2647   -1.6928 H   0  0  0  0  0  0  0  0  0  0  0  0
    0.2720   -1.9634   -1.5537 H   0  0  0  0  0  0  0  0  0  0  0  0
   -0.7195   -1.6014    0.6571 H   0  0  0  0  0  0  0  0  0  0  0  0
   -1.8555   -2.2832   -0.5798 H   0  0  0  0  0  0  0  0  0  0  0  0
   -2.2707    0.2695   -1.2081 H   0  0  0  0  0  0  0  0  0  0  0  0
   -3.7505   -1.1118    0.0944 H   0  0  0  0  0  0  0  0  0  0  0  0
   -1.1024    0.4369    1.5959 H   0  0  0  0  0  0  0  0  0  0  0  0
   -2.0289    2.5124   -0.1698 H   0  0  0  0  0  0  0  0  0  0  0  0
    0.8606    1.2776    0.7609 H   0  0  0  0  0  0  0  0  0  0  0  0
    1.0255    2.4099   -1.1640 H   0  0  0  0  0  0  0  0  0  0  0  0
  1  2  1  0
  2  3  1  0
  3  4  1  0
  4  5  1  0
  5  6  1  0
  6  7  1  0
  6  8  1  0
  8  9  1  0
  8 10  1  0
 10 11  1  0
 10  3  1  0
  1 12  1  0
  1 13  1  0
  1 14  1  0
  2 15  1  0
  2 16  1  0
  3 17  1  6
  4 18  1  0
  5 19  1  0
  5 20  1  0
  6 21  1  6
  7 22  1  0
  8 23  1  1
  9 24  1  0
 10 25  1  1
 11 26  1  0
M  END
$$$$

     RDKit          3D

 26 26  0  0  0  0  0  0  0  0999 V2000
    2.9267   -0.6459   -0.0905 C   0  0  0  0  0  0  0  0  0  0  0  0
    2.0836    0.0943    0.8822 C   0  0  0  0  0  0  0  0  0  0  0  0
    0.6822    0.3628    0.4154 C   0  0  1  0  0  0  0  0  0  0  0  0
    0.6002    1.1411   -0.7797 N   0  0  0  0  0  0  0  0  0  0  0  0
   -0.7235    1.7344   -0.8476 C   0  0  0  0  0  0  0  0  0  0  0  0
   -1.7407    1.0178   -0.0282 C   0  0  1  0  0  0  0  0  0  0  0  0
   -3.0069    1.3009   -0.5846 O   0  0  0  0  0  0  0  0  0  0  0  0
   -1.5323   -0.4898   -0.1522 C   0  0  2  0  0  0  0  0  0  0  0  0
   -2.4446   -1.1913    0.6223 O   0  0  0  0  0  0  0  0  0  0  0  0
   -0.1377   -0.8829    0.2429 C   0  0  2  0  0  0  0  0  0  0  0  0
   -0.1106   -1.6156    1.4297 O   0  0  0  0  0  0  0  0  0  0  0  0
    3.7115   -1.2022    0.5024 H   0  0  0  0  0  0  0  0  0  0  0  0
    3.5281    0.0766   -0.7108 H   0  0  0  0  0  0  0  0  0  0  0  0
    2.4159   -1.3989   -0.6910 H   0  0  0  0  0  0  0  0  0  0  0  0
    2.5629    1.0404    1.1526 H   0  0  0  0  0  0  0  0  0  0  0  0
    2.0014   -0.5198    1.8122 H   0  0  0  0  0  0  0  0  0  0  0  0
    0.1959    0.9716    1.2335 H   0  0  0  0  0  0  0  0  0  0  0  0
    0.6887    0.5168   -1.6305 H   0  0  0  0  0  0  0  0  0  0  0  0
   -0.6549    2.8105   -0.5573 H   0  0  0  0  0  0  0  0  0  0  0  0
   -1.0963    1.7389   -1.9109 H   0  0  0  0  0  0  0  0  0  0  0  0
   -1.8006    1.3412    1.0241 H   0  0  0  0  0  0  0  0  0  0  0  0
   -3.6538    0.5923   -0.4301 H   0  0  0  0  0  0  0  0  0  0  0  0
   -1.7643   -0.7327   -1.2230 H   0  0  0  0  0  0  0  0  0  0  0  0
   -2.6625   -2.0347    0.1583 H   0  0  0  0  0  0  0  0  0  0  0  0
    0.3130   -1.4834   -0.5785 H   0  0  0  0  0  0  0  0  0  0  0  0
   -0.3814   -2.5425    1.1946 H   0  0  0  0  0  0  0  0  0  0  0  0
  1  2  1  0
  2  3  1  0
  3  4  1  0
  4  5  1  0
  5  6  1  0
  6  7  1  0
  6  8  1  0
  8  9  1  0
  8 10  1  0
 10 11  1  0
 10  3  1  0
  1 12  1  0
  1 13  1  0
  1 14  1  0
  2 15  1  0
  2 16  1  0
  3 17  1  1
  4 18  1  0
  5 19  1  0
  5 20  1  0
  6 21  1  1
  7 22  1  0
  8 23  1  6
  9 24  1  0
 10 25  1  6
 11 26  1  0
M  END
$$$$

     RDKit          3D

 26 26  0  0  0  0  0  0  0  0999 V2000
   -3.1084    0.4681    0.5011 C   0  0  0  0  0  0  0  0  0  0  0  0
   -1.9990   -0.5300    0.7111 C   0  0  0  0  0  0  0  0  0  0  0  0
   -0.6983   -0.1043    0.1178 C   0  0  1  0  0  0  0  0  0  0  0  0
   -0.2226    1.1365    0.6749 N   0  0  0  0  0  0  0  0  0  0  0  0
    1.0186    1.5384    0.0899 C   0  0  0  0  0  0  0  0  0  0  0  0
    2.0830    0.5075    0.2669 C   0  0  1  0  0  0  0  0  0  0  0  0
    2.5772    0.4272    1.5615 O   0  0  0  0  0  0  0  0  0  0  0  0
    1.6622   -0.8737   -0.1489 C   0  0  2  0  0  0  0  0  0  0  0  0
    1.5048   -0.9726   -1.5379 O   0  0  0  0  0  0  0  0  0  0  0  0
    0.3328   -1.1702    0.5072 C   0  0  2  0  0  0  0  0  0  0  0  0
   -0.1725   -2.4053    0.1689 O   0  0  0  0  0  0  0  0  0  0  0  0
   -4.0415   -0.0113    0.9180 H   0  0  0  0  0  0  0  0  0  0  0  0
   -2.9622    1.3931    1.0644 H   0  0  0  0  0  0  0  0  0  0  0  0
   -3.2959    0.6030   -0.5766 H   0  0  0  0  0  0  0  0  0  0  0  0
   -1.8484   -0.7049    1.7917 H   0  0  0  0  0  0  0  0  0  0  0  0
   -2.2928   -1.4946    0.2529 H   0  0  0  0  0  0  0  0  0  0  0  0
   -0.7907   -0.0432   -0.9938 H   0  0  0  0  0  0  0  0  0  0  0  0
   -0.9216    1.8775    0.7434 H   0  0  0  0  0  0  0  0  0  0  0  0
    0.9513    1.7950   -0.9830 H   0  0  0  0  0  0  0  0  0  0  0  0
    1.3585    2.4571    0.6514 H   0  0  0  0  0  0  0  0  0  0  0  0
    2.9665    0.7746   -0.3840 H   0  0  0  0  0  0  0  0  0  0  0  0
    3.5383    0.6445    1.6326 H   0  0  0  0  0  0  0  0  0  0  0  0
    2.3845   -1.6152    0.2178 H   0  0  0  0  0  0  0  0  0  0  0  0
    1.4206   -0.0640   -1.9340 H   0  0  0  0  0  0  0  0  0  0  0  0
    0.4828   -1.0407    1.6064 H   0  0  0  0  0  0  0  0  0  0  0  0
    0.0727   -2.5924   -0.7687 H   0  0  0  0  0  0  0  0  0  0  0  0
  1  2  1  0
  2  3  1  0
  3  4  1  0
  4  5  1  0
  5  6  1  0
  6  7  1  0
  6  8  1  0
  8  9  1  0
  8 10  1  0
 10 11  1  0
 10  3  1  0
  1 12  1  0
  1 13  1  0
  1 14  1  0
  2 15  1  0
  2 16  1  0
  3 17  1  6
  4 18  1  0
  5 19  1  0
  5 20  1  0
  6 21  1  6
  7 22  1  0
  8 23  1  1
  9 24  1  0
 10 25  1  1
 11 26  1  0
M  END
$$$$

     RDKit          3D

 26 26  0  0  0  0  0  0  0  0999 V2000
   -3.1656   -0.2708   -0.1936 C   0  0  0  0  0  0  0  0  0  0  0  0
   -1.9697    0.4248   -0.7797 C   0  0  0  0  0  0  0  0  0  0  0  0
   -0.7269    0.1164    0.0315 C   0  0  1  0  0  0  0  0  0  0  0  0
   -0.4336   -1.2872    0.0680 N   0  0  0  0  0  0  0  0  0  0  0  0
    0.7231   -1.4803    0.9015 C   0  0  0  0  0  0  0  0  0  0  0  0
    1.9468   -0.8583    0.2626 C   0  0  1  0  0  0  0  0  0  0  0  0
    2.3697   -1.6075   -0.8250 O   0  0  0  0  0  0  0  0  0  0  0  0
    1.7418    0.5835   -0.0252 C   0  0  2  0  0  0  0  0  0  0  0  0
    2.1258    1.3488    1.0872 O   0  0  0  0  0  0  0  0  0  0  0  0
    0.3878    0.9583   -0.5016 C   0  0  2  0  0  0  0  0  0  0  0  0
    0.1434    2.2767   -0.0569 O   0  0  0  0  0  0  0  0  0  0  0  0
   -3.3520    0.1230    0.8173 H   0  0  0  0  0  0  0  0  0  0  0  0
   -4.0451    0.0052   -0.8230 H   0  0  0  0  0  0  0  0  0  0  0  0
   -3.0235   -1.3728   -0.2030 H   0  0  0  0  0  0  0  0  0  0  0  0
   -1.8484    0.2624   -1.8500 H   0  0  0  0  0  0  0  0  0  0  0  0
   -2.1498    1.5307   -0.6415 H   0  0  0  0  0  0  0  0  0  0  0  0
   -0.9374    0.4404    1.0721 H   0  0  0  0  0  0  0  0  0  0  0  0
   -0.3992   -1.7543   -0.8375 H   0  0  0  0  0  0  0  0  0  0  0  0
    0.5377   -0.8821    1.8413 H   0  0  0  0  0  0  0  0  0  0  0  0
    0.8980   -2.5089    1.2120 H   0  0  0  0  0  0  0  0  0  0  0  0
    2.7649   -0.9448    1.0349 H   0  0  0  0  0  0  0  0  0  0  0  0
    3.3469   -1.4609   -0.9138 H   0  0  0  0  0  0  0  0  0  0  0  0
    2.4745    0.8717   -0.8351 H   0  0  0  0  0  0  0  0  0  0  0  0
    2.2458    2.3120    0.8361 H   0  0  0  0  0  0  0  0  0  0  0  0
    0.3199    0.9835   -1.6129 H   0  0  0  0  0  0  0  0  0  0  0  0
    0.0251    2.1907    0.9343 H   0  0  0  0  0  0  0  0  0  0  0  0
  1  2  1  0
  2  3  1  0
  3  4  1  0
  4  5  1  0
  5  6  1  0
  6  7  1  0
  6  8  1  0
  8  9  1  0
  8 10  1  0
 10 11  1  0
 10  3  1  0
  1 12  1  0
  1 13  1  0
  1 14  1  0
  2 15  1  0
  2 16  1  0
  3 17  1  1
  4 18  1  0
  5 19  1  0
  5 20  1  0
  6 21  1  1
  7 22  1  0
  8 23  1  6
  9 24  1  0
 10 25  1  6
 11 26  1  0
M  END
$$$$

     RDKit          3D

 26 26  0  0  0  0  0  0  0  0999 V2000
    3.1151    0.1319   -0.2076 C   0  0  0  0  0  0  0  0  0  0  0  0
    1.9608   -0.8212   -0.3297 C   0  0  0  0  0  0  0  0  0  0  0  0
    0.6775   -0.1154    0.1336 C   0  0  1  0  0  0  0  0  0  0  0  0
    0.4825    1.0044   -0.6936 N   0  0  0  0  0  0  0  0  0  0  0  0
   -0.8065    1.5187   -0.8642 C   0  0  0  0  0  0  0  0  0  0  0  0
   -1.9580    0.6746   -0.4848 C   0  0  1  0  0  0  0  0  0  0  0  0
   -2.3162   -0.1123   -1.6040 O   0  0  0  0  0  0  0  0  0  0  0  0
   -1.6729   -0.3017    0.6337 C   0  0  2  0  0  0  0  0  0  0  0  0
   -1.3122    0.4239    1.7847 O   0  0  0  0  0  0  0  0  0  0  0  0
   -0.4615   -1.1054    0.1325 C   0  0  2  0  0  0  0  0  0  0  0  0
   -0.2566   -2.1205    1.0249 O   0  0  0  0  0  0  0  0  0  0  0  0
    3.3327    0.2739    0.8717 H   0  0  0  0  0  0  0  0  0  0  0  0
    4.0036   -0.2652   -0.7230 H   0  0  0  0  0  0  0  0  0  0  0  0
    2.9180    1.1322   -0.6231 H   0  0  0  0  0  0  0  0  0  0  0  0
    1.7874   -1.0767   -1.3943 H   0  0  0  0  0  0  0  0  0  0  0  0
    2.1720   -1.7185    0.2486 H   0  0  0  0  0  0  0  0  0  0  0  0
    0.8714    0.1258    1.2192 H   0  0  0  0  0  0  0  0  0  0  0  0
    1.0759    1.0580   -1.5419 H   0  0  0  0  0  0  0  0  0  0  0  0
   -0.9075    2.5027   -0.3186 H   0  0  0  0  0  0  0  0  0  0  0  0
   -0.9381    1.8096   -1.9488 H   0  0  0  0  0  0  0  0  0  0  0  0
   -2.8445    1.2874   -0.2580 H   0  0  0  0  0  0  0  0  0  0  0  0
   -3.0780   -0.7182   -1.3815 H   0  0  0  0  0  0  0  0  0  0  0  0
   -2.5406   -0.9299    0.8149 H   0  0  0  0  0  0  0  0  0  0  0  0
   -1.4545    1.3999    1.6615 H   0  0  0  0  0  0  0  0  0  0  0  0
   -0.7119   -1.4543   -0.8905 H   0  0  0  0  0  0  0  0  0  0  0  0
   -1.1379   -2.6040    1.1255 H   0  0  0  0  0  0  0  0  0  0  0  0
  1  2  1  0
  2  3  1  0
  3  4  1  0
  4  5  1  0
  5  6  1  0
  6  7  1  0
  6  8  1  0
  8  9  1  0
  8 10  1  0
 10 11  1  0
 10  3  1  0
  1 12  1  0
  1 13  1  0
  1 14  1  0
  2 15  1  0
  2 16  1  0
  3 17  1  1
  4 18  1  0
  5 19  1  0
  5 20  1  0
  6 21  1  1
  7 22  1  0
  8 23  1  1
  9 24  1  0
 10 25  1  6
 11 26  1  0
M  END
$$$$

     RDKit          3D

 26 26  0  0  0  0  0  0  0  0999 V2000
    3.1631    0.6551    0.0245 C   0  0  0  0  0  0  0  0  0  0  0  0
    2.1248   -0.4122    0.0759 C   0  0  0  0  0  0  0  0  0  0  0  0
    0.7229    0.0988    0.2477 C   0  0  1  0  0  0  0  0  0  0  0  0
    0.2851    0.9656   -0.7934 N   0  0  0  0  0  0  0  0  0  0  0  0
   -0.9628    1.5656   -0.3384 C   0  0  0  0  0  0  0  0  0  0  0  0
   -2.0394    0.5637   -0.1059 C   0  0  1  0  0  0  0  0  0  0  0  0
   -2.9183    0.6342   -1.2136 O   0  0  0  0  0  0  0  0  0  0  0  0
   -1.6173   -0.8172    0.1542 C   0  0  2  0  0  0  0  0  0  0  0  0
   -2.3793   -1.3585    1.2176 O   0  0  0  0  0  0  0  0  0  0  0  0
   -0.1918   -1.0659    0.4381 C   0  0  2  0  0  0  0  0  0  0  0  0
   -0.0011   -1.4961    1.7727 O   0  0  0  0  0  0  0  0  0  0  0  0
    4.1558    0.1749    0.2300 H   0  0  0  0  0  0  0  0  0  0  0  0
    3.0392    1.4447    0.7743 H   0  0  0  0  0  0  0  0  0  0  0  0
    3.2561    1.0657   -1.0133 H   0  0  0  0  0  0  0  0  0  0  0  0
    2.3638   -1.1420    0.8753 H   0  0  0  0  0  0  0  0  0  0  0  0
    2.1854   -0.9915   -0.8877 H   0  0  0  0  0  0  0  0  0  0  0  0
    0.7071    0.6893    1.2043 H   0  0  0  0  0  0  0  0  0  0  0  0
    0.0447    0.4287   -1.6573 H   0  0  0  0  0  0  0  0  0  0  0  0
   -1.2886    2.3626   -1.0345 H   0  0  0  0  0  0  0  0  0  0  0  0
   -0.7179    2.0892    0.6305 H   0  0  0  0  0  0  0  0  0  0  0  0
   -2.6631    0.9437    0.7565 H   0  0  0  0  0  0  0  0  0  0  0  0
   -2.4975    0.1645   -1.9916 H   0  0  0  0  0  0  0  0  0  0  0  0
   -1.9116   -1.4520   -0.7339 H   0  0  0  0  0  0  0  0  0  0  0  0
   -3.1026   -0.7325    1.4662 H   0  0  0  0  0  0  0  0  0  0  0  0
    0.2254   -1.9131   -0.1821 H   0  0  0  0  0  0  0  0  0  0  0  0
    0.0178   -2.4652    1.8465 H   0  0  0  0  0  0  0  0  0  0  0  0
  1  2  1  0
  2  3  1  0
  3  4  1  0
  4  5  1  0
  5  6  1  0
  6  7  1  0
  6  8  1  0
  8  9  1  0
  8 10  1  0
 10 11  1  0
 10  3  1  0
  1 12  1  0
  1 13  1  0
  1 14  1  0
  2 15  1  0
  2 16  1  0
  3 17  1  1
  4 18  1  0
  5 19  1  0
  5 20  1  0
  6 21  1  1
  7 22  1  0
  8 23  1  6
  9 24  1  0
 10 25  1  6
 11 26  1  0
M  END
$$$$

     RDKit          3D

 26 26  0  0  0  0  0  0  0  0999 V2000
   -3.1462   -0.5793   -0.2496 C   0  0  0  0  0  0  0  0  0  0  0  0
   -1.9660    0.2244   -0.7377 C   0  0  0  0  0  0  0  0  0  0  0  0
   -0.8356    0.2072    0.3075 C   0  0  1  0  0  0  0  0  0  0  0  0
   -0.4575   -1.1080    0.5033 N   0  0  0  0  0  0  0  0  0  0  0  0
    0.8599   -1.5262    0.4978 C   0  0  0  0  0  0  0  0  0  0  0  0
    1.9297   -0.5106    0.3491 C   0  0  1  0  0  0  0  0  0  0  0  0
    3.0386   -1.0777   -0.2821 O   0  0  0  0  0  0  0  0  0  0  0  0
    1.5108    0.6766   -0.4740 C   0  0  2  0  0  0  0  0  0  0  0  0
    2.4811    1.6672   -0.2875 O   0  0  0  0  0  0  0  0  0  0  0  0
    0.1667    1.2165   -0.0858 C   0  0  2  0  0  0  0  0  0  0  0  0
    0.3977    2.1526    0.9525 O   0  0  0  0  0  0  0  0  0  0  0  0
   -3.0765   -0.8520    0.8202 H   0  0  0  0  0  0  0  0  0  0  0  0
   -3.2247   -1.5163   -0.8405 H   0  0  0  0  0  0  0  0  0  0  0  0
   -4.0705    0.0148   -0.3823 H   0  0  0  0  0  0  0  0  0  0  0  0
   -1.5797   -0.2176   -1.6823 H   0  0  0  0  0  0  0  0  0  0  0  0
   -2.2562    1.2626   -0.9088 H   0  0  0  0  0  0  0  0  0  0  0  0
   -1.3462    0.5832    1.2457 H   0  0  0  0  0  0  0  0  0  0  0  0
   -1.1170   -1.8422    0.2144 H   0  0  0  0  0  0  0  0  0  0  0  0
    1.0787   -2.1073    1.4425 H   0  0  0  0  0  0  0  0  0  0  0  0
    1.0116   -2.2947   -0.3172 H   0  0  0  0  0  0  0  0  0  0  0  0
    2.2915   -0.1272    1.3303 H   0  0  0  0  0  0  0  0  0  0  0  0
    3.8879   -0.7116    0.0551 H   0  0  0  0  0  0  0  0  0  0  0  0
    1.5502    0.3904   -1.5449 H   0  0  0  0  0  0  0  0  0  0  0  0
    3.2924    1.3164    0.1560 H   0  0  0  0  0  0  0  0  0  0  0  0
   -0.1795    1.8407   -0.9453 H   0  0  0  0  0  0  0  0  0  0  0  0
   -0.2412    2.9182    0.8636 H   0  0  0  0  0  0  0  0  0  0  0  0
  1  2  1  0
  2  3  1  0
  3  4  1  0
  4  5  1  0
  5  6  1  0
  6  7  1  0
  6  8  1  0
  8  9  1  0
  8 10  1  0
 10 11  1  0
 10  3  1  0
  1 12  1  0
  1 13  1  0
  1 14  1  0
  2 15  1  0
  2 16  1  0
  3 17  1  1
  4 18  1  0
  5 19  1  0
  5 20  1  0
  6 21  1  1
  7 22  1  0
  8 23  1  6
  9 24  1  0
 10 25  1  6
 11 26  1  0
M  END
$$$$

     RDKit          3D

 26 26  0  0  0  0  0  0  0  0999 V2000
   -2.9420    0.2533   -0.0921 C   0  0  0  0  0  0  0  0  0  0  0  0
   -1.8012    0.1119   -1.0664 C   0  0  0  0  0  0  0  0  0  0  0  0
   -0.6185   -0.6319   -0.4573 C   0  0  1  0  0  0  0  0  0  0  0  0
    0.3978   -0.7032   -1.4734 N   0  0  0  0  0  0  0  0  0  0  0  0
    1.2683    0.4592   -1.2932 C   0  0  0  0  0  0  0  0  0  0  0  0
    2.1391    0.0852   -0.0929 C   0  0  1  0  0  0  0  0  0  0  0  0
    3.1248    1.0623   -0.0050 O   0  0  0  0  0  0  0  0  0  0  0  0
    1.2533    0.0446    1.1033 C   0  0  2  0  0  0  0  0  0  0  0  0
    1.6639   -1.0252    1.9002 O   0  0  0  0  0  0  0  0  0  0  0  0
   -0.2033   -0.0232    0.8198 C   0  0  2  0  0  0  0  0  0  0  0  0
   -0.8201   -0.7108    1.8768 O   0  0  0  0  0  0  0  0  0  0  0  0
   -2.6147    0.6296    0.8856 H   0  0  0  0  0  0  0  0  0  0  0  0
   -3.6160    1.0502   -0.5149 H   0  0  0  0  0  0  0  0  0  0  0  0
   -3.5566   -0.6743   -0.0173 H   0  0  0  0  0  0  0  0  0  0  0  0
   -1.4766    1.1146   -1.3865 H   0  0  0  0  0  0  0  0  0  0  0  0
   -2.1879   -0.4128   -1.9618 H   0  0  0  0  0  0  0  0  0  0  0  0
   -0.9855   -1.6839   -0.3063 H   0  0  0  0  0  0  0  0  0  0  0  0
   -0.0141   -0.6532   -2.4115 H   0  0  0  0  0  0  0  0  0  0  0  0
    0.6360    1.3042   -0.9450 H   0  0  0  0  0  0  0  0  0  0  0  0
    1.8640    0.6864   -2.1809 H   0  0  0  0  0  0  0  0  0  0  0  0
    2.5268   -0.9183   -0.2979 H   0  0  0  0  0  0  0  0  0  0  0  0
    4.0413    0.6921    0.0283 H   0  0  0  0  0  0  0  0  0  0  0  0
    1.4785    0.9661    1.7080 H   0  0  0  0  0  0  0  0  0  0  0  0
    2.1477   -0.7510    2.7081 H   0  0  0  0  0  0  0  0  0  0  0  0
   -0.6124    1.0197    0.8671 H   0  0  0  0  0  0  0  0  0  0  0  0
   -1.0927   -0.0737    2.6054 H   0  0  0  0  0  0  0  0  0  0  0  0
  1  2  1  0
  2  3  1  0
  3  4  1  0
  4  5  1  0
  5  6  1  0
  6  7  1  0
  6  8  1  0
  8  9  1  0
  8 10  1  0
 10 11  1  0
 10  3  1  0
  1 12  1  0
  1 13  1  0
  1 14  1  0
  2 15  1  0
  2 16  1  0
  3 17  1  1
  4 18  1  0
  5 19  1  0
  5 20  1  0
  6 21  1  6
  7 22  1  0
  8 23  1  1
  9 24  1  0
 10 25  1  6
 11 26  1  0
M  END
$$$$
