
     RDKit          3D

 25 25  0  0  0  0  0  0  0  0999 V2000
    2.9178    0.9476    0.6804 C   0  0  0  0  0  0  0  0  0  0  0  0
    2.0773    0.7773   -0.4101 O   0  0  0  0  0  0  0  0  0  0  0  0
    1.1486   -0.1529   -0.2469 N   0  0  0  0  0  0  0  0  0  0  0  0
    1.1475   -1.2447   -1.1024 C   0  0  0  0  0  0  0  0  0  0  0  0
   -0.0476    0.2500    0.3911 C   0  0  2  0  0  0  0  0  0  0  0  0
   -0.6528   -0.7483    1.3208 C   0  0  0  0  0  0  0  0  0  0  0  0
   -2.4117   -0.4901    1.0386 S   0  0  0  0  0  6  0  0  0  0  0  0
   -3.1932   -1.7260    1.2752 O   0  0  0  0  0  0  0  0  0  0  0  0
   -2.8876    0.6971    1.7845 O   0  0  0  0  0  0  0  0  0  0  0  0
   -2.2266   -0.1093   -0.6933 C   0  0  0  0  0  0  0  0  0  0  0  0
   -1.0187    0.7614   -0.5967 C   0  0  2  0  0  0  0  0  0  0  0  0
   -0.4134    0.9263   -1.8442 O   0  0  0  0  0  0  0  0  0  0  0  0
    3.0974    2.0206    0.8769 H   0  0  0  0  0  0  0  0  0  0  0  0
    2.4900    0.4159    1.5500 H   0  0  0  0  0  0  0  0  0  0  0  0
    3.8873    0.4231    0.4401 H   0  0  0  0  0  0  0  0  0  0  0  0
    0.1963   -1.7692   -1.1552 H   0  0  0  0  0  0  0  0  0  0  0  0
    2.0091   -1.9386   -0.8792 H   0  0  0  0  0  0  0  0  0  0  0  0
    1.3676   -0.8941   -2.1550 H   0  0  0  0  0  0  0  0  0  0  0  0
    0.2394    1.1283    1.0532 H   0  0  0  0  0  0  0  0  0  0  0  0
   -0.4266   -0.5860    2.3853 H   0  0  0  0  0  0  0  0  0  0  0  0
   -0.4347   -1.7992    1.0715 H   0  0  0  0  0  0  0  0  0  0  0  0
   -3.0796    0.4889   -1.0732 H   0  0  0  0  0  0  0  0  0  0  0  0
   -2.0810   -1.0408   -1.2759 H   0  0  0  0  0  0  0  0  0  0  0  0
   -1.4016    1.7913   -0.3284 H   0  0  0  0  0  0  0  0  0  0  0  0
   -0.3034    1.8712   -2.1070 H   0  0  0  0  0  0  0  0  0  0  0  0
  1  2  1  0
  2  3  1  0
  3  4  1  0
  3  5  1  0
  5  6  1  0
  6  7  1  0
  7  8  2  0
  7  9  2  0
  7 10  1  0
 10 11  1  0
 11 12  1  0
 11  5  1  0
  1 13  1  0
  1 14  1  0
  1 15  1  0
  4 16  1  0
  4 17  1  0
  4 18  1  0
  5 19  1  1
  6 20  1  0
  6 21  1  0
 10 22  1  0
 10 23  1  0
 11 24  1  1
 12 25  1  0
M  END
$$$$

     RDKit          3D

 25 25  0  0  0  0  0  0  0  0999 V2000
    2.4748    1.6997   -0.1272 C   0  0  0  0  0  0  0  0  0  0  0  0
    1.2568    1.2120   -0.4843 O   0  0  0  0  0  0  0  0  0  0  0  0
    0.9983   -0.0510   -0.3513 N   0  0  0  0  0  0  0  0  0  0  0  0
    2.0503   -0.9914   -0.2393 C   0  0  0  0  0  0  0  0  0  0  0  0
   -0.1625   -0.4406    0.3738 C   0  0  2  0  0  0  0  0  0  0  0  0
   -0.7584   -1.6527   -0.2772 C   0  0  0  0  0  0  0  0  0  0  0  0
   -2.3667   -1.1333   -0.8627 S   0  0  0  0  0  6  0  0  0  0  0  0
   -2.5706   -1.4464   -2.3024 O   0  0  0  0  0  0  0  0  0  0  0  0
   -3.4404   -1.6767    0.0197 O   0  0  0  0  0  0  0  0  0  0  0  0
   -2.1448    0.6201   -0.5802 C   0  0  0  0  0  0  0  0  0  0  0  0
   -1.1949    0.5938    0.5723 C   0  0  2  0  0  0  0  0  0  0  0  0
   -0.6540    1.8558    0.7220 O   0  0  0  0  0  0  0  0  0  0  0  0
    3.2396    0.9663    0.1491 H   0  0  0  0  0  0  0  0  0  0  0  0
    2.3336    2.3775    0.7524 H   0  0  0  0  0  0  0  0  0  0  0  0
    2.9399    2.3542   -0.9081 H   0  0  0  0  0  0  0  0  0  0  0  0
    2.6637   -0.9021    0.6920 H   0  0  0  0  0  0  0  0  0  0  0  0
    2.6931   -1.0834   -1.1514 H   0  0  0  0  0  0  0  0  0  0  0  0
    1.5711   -2.0015   -0.1444 H   0  0  0  0  0  0  0  0  0  0  0  0
    0.1843   -0.7776    1.3851 H   0  0  0  0  0  0  0  0  0  0  0  0
   -0.1872   -1.9337   -1.1980 H   0  0  0  0  0  0  0  0  0  0  0  0
   -0.8321   -2.5319    0.3857 H   0  0  0  0  0  0  0  0  0  0  0  0
   -1.7715    1.1344   -1.4768 H   0  0  0  0  0  0  0  0  0  0  0  0
   -3.1391    0.9869   -0.2349 H   0  0  0  0  0  0  0  0  0  0  0  0
   -1.7967    0.3866    1.4916 H   0  0  0  0  0  0  0  0  0  0  0  0
   -1.3867    2.4351    1.0783 H   0  0  0  0  0  0  0  0  0  0  0  0
  1  2  1  0
  2  3  1  0
  3  4  1  0
  3  5  1  0
  5  6  1  0
  6  7  1  0
  7  8  2  0
  7  9  2  0
  7 10  1  0
 10 11  1  0
 11 12  1  0
 11  5  1  0
  1 13  1  0
  1 14  1  0
  1 15  1  0
  4 16  1  0
  4 17  1  0
  4 18  1  0
  5 19  1  1
  6 20  1  0
  6 21  1  0
 10 22  1  0
 10 23  1  0
 11 24  1  1
 12 25  1  0
M  END
$$$$

     RDKit          3D

 25 25  0  0  0  0  0  0  0  0999 V2000
    2.6073    1.5151    0.0401 C   0  0  0  0  0  0  0  0  0  0  0  0
    1.5625    0.7959    0.6414 O   0  0  0  0  0  0  0  0  0  0  0  0
    1.2467   -0.2968   -0.0654 N   0  0  0  0  0  0  0  0  0  0  0  0
    1.8093   -1.5136    0.4496 C   0  0  0  0  0  0  0  0  0  0  0  0
   -0.1207   -0.3985   -0.4507 C   0  0  2  0  0  0  0  0  0  0  0  0
   -0.5766    0.8780   -1.0865 C   0  0  0  0  0  0  0  0  0  0  0  0
   -2.3344    0.8970   -0.7048 S   0  0  0  0  0  6  0  0  0  0  0  0
   -3.1762    1.0818   -1.8899 O   0  0  0  0  0  0  0  0  0  0  0  0
   -2.5902    1.8444    0.4125 O   0  0  0  0  0  0  0  0  0  0  0  0
   -2.4310   -0.7683   -0.0272 C   0  0  0  0  0  0  0  0  0  0  0  0
   -1.0561   -0.7664    0.6588 C   0  0  2  0  0  0  0  0  0  0  0  0
   -1.1276    0.1501    1.6799 O   0  0  0  0  0  0  0  0  0  0  0  0
    3.2258    0.8598   -0.6214 H   0  0  0  0  0  0  0  0  0  0  0  0
    2.2204    2.3268   -0.6251 H   0  0  0  0  0  0  0  0  0  0  0  0
    3.2562    2.0156    0.7755 H   0  0  0  0  0  0  0  0  0  0  0  0
    1.0335   -2.3150    0.3469 H   0  0  0  0  0  0  0  0  0  0  0  0
    2.6546   -1.7913   -0.2389 H   0  0  0  0  0  0  0  0  0  0  0  0
    2.2154   -1.4363    1.4667 H   0  0  0  0  0  0  0  0  0  0  0  0
   -0.1891   -1.2192   -1.2103 H   0  0  0  0  0  0  0  0  0  0  0  0
   -0.1111    1.7824   -0.7111 H   0  0  0  0  0  0  0  0  0  0  0  0
   -0.5138    0.7998   -2.2050 H   0  0  0  0  0  0  0  0  0  0  0  0
   -3.2523   -0.8820    0.6754 H   0  0  0  0  0  0  0  0  0  0  0  0
   -2.4113   -1.4870   -0.8589 H   0  0  0  0  0  0  0  0  0  0  0  0
   -0.8542   -1.7940    0.9651 H   0  0  0  0  0  0  0  0  0  0  0  0
   -1.0873   -0.2783    2.5830 H   0  0  0  0  0  0  0  0  0  0  0  0
  1  2  1  0
  2  3  1  0
  3  4  1  0
  3  5  1  0
  5  6  1  0
  6  7  1  0
  7  8  2  0
  7  9  2  0
  7 10  1  0
 10 11  1  0
 11 12  1  0
 11  5  1  0
  1 13  1  0
  1 14  1  0
  1 15  1  0
  4 16  1  0
  4 17  1  0
  4 18  1  0
  5 19  1  6
  6 20  1  0
  6 21  1  0
 10 22  1  0
 10 23  1  0
 11 24  1  1
 12 25  1  0
M  END
$$$$

     RDKit          3D

 25 25  0  0  0  0  0  0  0  0999 V2000
    2.4031   -0.5796    1.3480 C   0  0  0  0  0  0  0  0  0  0  0  0
    1.5866   -1.0243    0.3069 O   0  0  0  0  0  0  0  0  0  0  0  0
    0.9409    0.0480   -0.1846 N   0  0  0  0  0  0  0  0  0  0  0  0
    1.8177    0.6864   -1.1623 C   0  0  0  0  0  0  0  0  0  0  0  0
   -0.2959   -0.2599   -0.8403 C   0  0  2  0  0  0  0  0  0  0  0  0
   -0.9833    1.0285   -1.1957 C   0  0  0  0  0  0  0  0  0  0  0  0
   -1.7176    1.4153    0.3913 S   0  0  0  0  0  6  0  0  0  0  0  0
   -2.9872    2.1763    0.2507 O   0  0  0  0  0  0  0  0  0  0  0  0
   -0.7166    2.0773    1.2770 O   0  0  0  0  0  0  0  0  0  0  0  0
   -1.9940   -0.2705    0.9174 C   0  0  0  0  0  0  0  0  0  0  0  0
   -1.2420   -1.1015   -0.0713 C   0  0  2  0  0  0  0  0  0  0  0  0
   -0.6359   -2.1373    0.6046 O   0  0  0  0  0  0  0  0  0  0  0  0
    1.8677   -0.7913    2.3001 H   0  0  0  0  0  0  0  0  0  0  0  0
    2.5968    0.5063    1.3120 H   0  0  0  0  0  0  0  0  0  0  0  0
    3.3815   -1.0817    1.3771 H   0  0  0  0  0  0  0  0  0  0  0  0
    1.3290    0.7977   -2.1489 H   0  0  0  0  0  0  0  0  0  0  0  0
    2.1492    1.6976   -0.8159 H   0  0  0  0  0  0  0  0  0  0  0  0
    2.7405    0.0937   -1.3437 H   0  0  0  0  0  0  0  0  0  0  0  0
   -0.0462   -0.7791   -1.7910 H   0  0  0  0  0  0  0  0  0  0  0  0
   -0.2851    1.8327   -1.4550 H   0  0  0  0  0  0  0  0  0  0  0  0
   -1.7780    0.8465   -1.9319 H   0  0  0  0  0  0  0  0  0  0  0  0
   -1.7013   -0.4200    1.9652 H   0  0  0  0  0  0  0  0  0  0  0  0
   -3.0971   -0.4332    0.8230 H   0  0  0  0  0  0  0  0  0  0  0  0
   -1.9670   -1.5545   -0.7907 H   0  0  0  0  0  0  0  0  0  0  0  0
   -1.3657   -2.7734    0.8582 H   0  0  0  0  0  0  0  0  0  0  0  0
  1  2  1  0
  2  3  1  0
  3  4  1  0
  3  5  1  0
  5  6  1  0
  6  7  1  0
  7  8  2  0
  7  9  2  0
  7 10  1  0
 10 11  1  0
 11 12  1  0
 11  5  1  0
  1 13  1  0
  1 14  1  0
  1 15  1  0
  4 16  1  0
  4 17  1  0
  4 18  1  0
  5 19  1  6
  6 20  1  0
  6 21  1  0
 10 22  1  0
 10 23  1  0
 11 24  1  6
 12 25  1  0
M  END
$$$$

     RDKit          3D

 25 25  0  0  0  0  0  0  0  0999 V2000
    2.9087    0.9452    0.1987 C   0  0  0  0  0  0  0  0  0  0  0  0
    2.1268    0.6656   -0.8891 O   0  0  0  0  0  0  0  0  0  0  0  0
    1.1554   -0.2167   -0.6945 N   0  0  0  0  0  0  0  0  0  0  0  0
    1.4934   -1.3915    0.0152 C   0  0  0  0  0  0  0  0  0  0  0  0
   -0.1414    0.3087   -0.4793 C   0  0  2  0  0  0  0  0  0  0  0  0
   -0.3975    0.7437    0.9445 C   0  0  0  0  0  0  0  0  0  0  0  0
   -2.1330    1.1951    0.7516 S   0  0  0  0  0  6  0  0  0  0  0  0
   -2.2779    2.4903    0.0367 O   0  0  0  0  0  0  0  0  0  0  0  0
   -2.8675    1.1123    2.0281 O   0  0  0  0  0  0  0  0  0  0  0  0
   -2.5237   -0.1786   -0.3444 C   0  0  0  0  0  0  0  0  0  0  0  0
   -1.2165   -0.6090   -0.9002 C   0  0  2  0  0  0  0  0  0  0  0  0
   -0.9311   -1.9634   -0.6234 O   0  0  0  0  0  0  0  0  0  0  0  0
    2.9917    2.0597    0.3011 H   0  0  0  0  0  0  0  0  0  0  0  0
    2.5335    0.5666    1.1589 H   0  0  0  0  0  0  0  0  0  0  0  0
    3.9526    0.6071   -0.0296 H   0  0  0  0  0  0  0  0  0  0  0  0
    0.9663   -1.5455    0.9734 H   0  0  0  0  0  0  0  0  0  0  0  0
    1.3893   -2.2697   -0.6522 H   0  0  0  0  0  0  0  0  0  0  0  0
    2.5883   -1.3310    0.2836 H   0  0  0  0  0  0  0  0  0  0  0  0
   -0.2269    1.2509   -1.0959 H   0  0  0  0  0  0  0  0  0  0  0  0
   -0.3918   -0.0701    1.6683 H   0  0  0  0  0  0  0  0  0  0  0  0
    0.2207    1.6086    1.1830 H   0  0  0  0  0  0  0  0  0  0  0  0
   -3.2913    0.0866   -1.0695 H   0  0  0  0  0  0  0  0  0  0  0  0
   -2.8786   -0.9969    0.3486 H   0  0  0  0  0  0  0  0  0  0  0  0
   -1.3011   -0.5601   -2.0263 H   0  0  0  0  0  0  0  0  0  0  0  0
   -1.7482   -2.5077   -0.6159 H   0  0  0  0  0  0  0  0  0  0  0  0
  1  2  1  0
  2  3  1  0
  3  4  1  0
  3  5  1  0
  5  6  1  0
  6  7  1  0
  7  8  2  0
  7  9  2  0
  7 10  1  0
 10 11  1  0
 11 12  1  0
 11  5  1  0
  1 13  1  0
  1 14  1  0
  1 15  1  0
  4 16  1  0
  4 17  1  0
  4 18  1  0
  5 19  1  6
  6 20  1  0
  6 21  1  0
 10 22  1  0
 10 23  1  0
 11 24  1  6
 12 25  1  0
M  END
$$$$

     RDKit          3D

 25 25  0  0  0  0  0  0  0  0999 V2000
    2.9608    0.1766   -0.8519 C   0  0  0  0  0  0  0  0  0  0  0  0
    2.0959   -0.6793   -0.1940 O   0  0  0  0  0  0  0  0  0  0  0  0
    0.9611   -0.0446    0.2158 N   0  0  0  0  0  0  0  0  0  0  0  0
    1.1191    0.4961    1.4980 C   0  0  0  0  0  0  0  0  0  0  0  0
   -0.1381   -0.8353   -0.1118 C   0  0  2  0  0  0  0  0  0  0  0  0
   -0.5850   -0.4461   -1.5192 C   0  0  0  0  0  0  0  0  0  0  0  0
   -1.7326    0.8869   -1.1995 S   0  0  0  0  0  6  0  0  0  0  0  0
   -3.0184    0.6516   -1.9144 O   0  0  0  0  0  0  0  0  0  0  0  0
   -1.1357    2.2241   -1.4589 O   0  0  0  0  0  0  0  0  0  0  0  0
   -1.9273    0.6589    0.5671 C   0  0  0  0  0  0  0  0  0  0  0  0
   -1.3868   -0.7426    0.6703 C   0  0  2  0  0  0  0  0  0  0  0  0
   -1.3469   -1.2473    1.9478 O   0  0  0  0  0  0  0  0  0  0  0  0
    2.6108    0.4648   -1.8634 H   0  0  0  0  0  0  0  0  0  0  0  0
    3.9124   -0.3618   -0.9939 H   0  0  0  0  0  0  0  0  0  0  0  0
    3.1741    1.0997   -0.2893 H   0  0  0  0  0  0  0  0  0  0  0  0
    0.3888    0.2451    2.2674 H   0  0  0  0  0  0  0  0  0  0  0  0
    2.1184    0.2019    1.9109 H   0  0  0  0  0  0  0  0  0  0  0  0
    1.1792    1.6108    1.4070 H   0  0  0  0  0  0  0  0  0  0  0  0
    0.1605   -1.9023   -0.1571 H   0  0  0  0  0  0  0  0  0  0  0  0
    0.2894   -0.0781   -2.0776 H   0  0  0  0  0  0  0  0  0  0  0  0
   -1.0512   -1.2845   -2.0520 H   0  0  0  0  0  0  0  0  0  0  0  0
   -1.3520    1.4107    1.1160 H   0  0  0  0  0  0  0  0  0  0  0  0
   -3.0146    0.6768    0.7789 H   0  0  0  0  0  0  0  0  0  0  0  0
   -2.1419   -1.3727    0.1277 H   0  0  0  0  0  0  0  0  0  0  0  0
   -2.1401   -1.8093    2.1761 H   0  0  0  0  0  0  0  0  0  0  0  0
  1  2  1  0
  2  3  1  0
  3  4  1  0
  3  5  1  0
  5  6  1  0
  6  7  1  0
  7  8  2  0
  7  9  2  0
  7 10  1  0
 10 11  1  0
 11 12  1  0
 11  5  1  0
  1 13  1  0
  1 14  1  0
  1 15  1  0
  4 16  1  0
  4 17  1  0
  4 18  1  0
  5 19  1  6
  6 20  1  0
  6 21  1  0
 10 22  1  0
 10 23  1  0
 11 24  1  6
 12 25  1  0
M  END
$$$$

     RDKit          3D

 25 25  0  0  0  0  0  0  0  0999 V2000
   -2.8158    1.3098   -0.2713 C   0  0  0  0  0  0  0  0  0  0  0  0
   -2.1691    0.3949    0.5378 O   0  0  0  0  0  0  0  0  0  0  0  0
   -1.0946   -0.1774   -0.0783 N   0  0  0  0  0  0  0  0  0  0  0  0
   -1.3238   -1.5893   -0.0442 C   0  0  0  0  0  0  0  0  0  0  0  0
    0.1231    0.2864    0.4825 C   0  0  2  0  0  0  0  0  0  0  0  0
    0.6842    1.3658   -0.3955 C   0  0  0  0  0  0  0  0  0  0  0  0
    2.3616    0.8455   -0.7417 S   0  0  0  0  0  6  0  0  0  0  0  0
    3.3134    1.2857    0.3116 O   0  0  0  0  0  0  0  0  0  0  0  0
    2.7840    1.1405   -2.1248 O   0  0  0  0  0  0  0  0  0  0  0  0
    2.0349   -0.8940   -0.4687 C   0  0  0  0  0  0  0  0  0  0  0  0
    1.1718   -0.7153    0.7709 C   0  0  2  0  0  0  0  0  0  0  0  0
    0.7401   -1.8923    1.3123 O   0  0  0  0  0  0  0  0  0  0  0  0
   -3.2630    0.8051   -1.1429 H   0  0  0  0  0  0  0  0  0  0  0  0
   -3.5862    1.8033    0.3476 H   0  0  0  0  0  0  0  0  0  0  0  0
   -2.0730    2.0827   -0.5477 H   0  0  0  0  0  0  0  0  0  0  0  0
   -2.2825   -1.7597   -0.6017 H   0  0  0  0  0  0  0  0  0  0  0  0
   -1.5541   -1.9642    0.9858 H   0  0  0  0  0  0  0  0  0  0  0  0
   -0.5792   -2.1971   -0.5742 H   0  0  0  0  0  0  0  0  0  0  0  0
   -0.1248    0.7918    1.4526 H   0  0  0  0  0  0  0  0  0  0  0  0
    0.7003    2.3636    0.0627 H   0  0  0  0  0  0  0  0  0  0  0  0
    0.1842    1.3992   -1.3968 H   0  0  0  0  0  0  0  0  0  0  0  0
    2.9359   -1.4566   -0.2162 H   0  0  0  0  0  0  0  0  0  0  0  0
    1.4772   -1.2473   -1.3409 H   0  0  0  0  0  0  0  0  0  0  0  0
    1.8641   -0.2603    1.5273 H   0  0  0  0  0  0  0  0  0  0  0  0
    0.4913   -1.7206    2.2603 H   0  0  0  0  0  0  0  0  0  0  0  0
  1  2  1  0
  2  3  1  0
  3  4  1  0
  3  5  1  0
  5  6  1  0
  6  7  1  0
  7  8  2  0
  7  9  2  0
  7 10  1  0
 10 11  1  0
 11 12  1  0
 11  5  1  0
  1 13  1  0
  1 14  1  0
  1 15  1  0
  4 16  1  0
  4 17  1  0
  4 18  1  0
  5 19  1  1
  6 20  1  0
  6 21  1  0
 10 22  1  0
 10 23  1  0
 11 24  1  1
 12 25  1  0
M  END
$$$$

     RDKit          3D

 25 25  0  0  0  0  0  0  0  0999 V2000
    2.7699    0.3739    0.7492 C   0  0  0  0  0  0  0  0  0  0  0  0
    1.7634    1.1208    0.1467 O   0  0  0  0  0  0  0  0  0  0  0  0
    0.9981    0.3982   -0.6853 N   0  0  0  0  0  0  0  0  0  0  0  0
    1.7489   -0.5218   -1.5044 C   0  0  0  0  0  0  0  0  0  0  0  0
   -0.1061   -0.2586    0.0140 C   0  0  2  0  0  0  0  0  0  0  0  0
   -1.0270   -0.7782   -1.0550 C   0  0  0  0  0  0  0  0  0  0  0  0
   -2.5949   -0.8102   -0.1912 S   0  0  0  0  0  6  0  0  0  0  0  0
   -2.8494   -2.1487    0.4290 O   0  0  0  0  0  0  0  0  0  0  0  0
   -3.7177   -0.3582   -1.0571 O   0  0  0  0  0  0  0  0  0  0  0  0
   -2.2085    0.3544    1.0954 C   0  0  0  0  0  0  0  0  0  0  0  0
   -0.7942    0.7358    0.8447 C   0  0  2  0  0  0  0  0  0  0  0  0
   -0.6679    2.0468    0.3566 O   0  0  0  0  0  0  0  0  0  0  0  0
    3.7142    0.3894    0.1973 H   0  0  0  0  0  0  0  0  0  0  0  0
    2.9085    0.7597    1.7769 H   0  0  0  0  0  0  0  0  0  0  0  0
    2.4826   -0.7055    0.8474 H   0  0  0  0  0  0  0  0  0  0  0  0
    1.7749   -1.5162   -1.0236 H   0  0  0  0  0  0  0  0  0  0  0  0
    1.2828   -0.6311   -2.4958 H   0  0  0  0  0  0  0  0  0  0  0  0
    2.7586   -0.0798   -1.6405 H   0  0  0  0  0  0  0  0  0  0  0  0
    0.3529   -1.0815    0.5952 H   0  0  0  0  0  0  0  0  0  0  0  0
   -1.1358   -0.0982   -1.8984 H   0  0  0  0  0  0  0  0  0  0  0  0
   -0.7687   -1.8174   -1.3148 H   0  0  0  0  0  0  0  0  0  0  0  0
   -2.8475    1.2637    0.8938 H   0  0  0  0  0  0  0  0  0  0  0  0
   -2.4206   -0.0472    2.0951 H   0  0  0  0  0  0  0  0  0  0  0  0
   -0.2819    0.7632    1.8532 H   0  0  0  0  0  0  0  0  0  0  0  0
   -1.1346    2.6466    0.9717 H   0  0  0  0  0  0  0  0  0  0  0  0
  1  2  1  0
  2  3  1  0
  3  4  1  0
  3  5  1  0
  5  6  1  0
  6  7  1  0
  7  8  2  0
  7  9  2  0
  7 10  1  0
 10 11  1  0
 11 12  1  0
 11  5  1  0
  1 13  1  0
  1 14  1  0
  1 15  1  0
  4 16  1  0
  4 17  1  0
  4 18  1  0
  5 19  1  1
  6 20  1  0
  6 21  1  0
 10 22  1  0
 10 23  1  0
 11 24  1  1
 12 25  1  0
M  END
$$$$
