
     RDKit          3D

 26 26  0  0  0  0  0  0  0  0999 V2000
    1.8559    1.9880   -0.4914 C   0  0  0  0  0  0  0  0  0  0  0  0
    2.6332    0.8339   -0.1698 N   0  0  0  0  0  0  0  0  0  0  0  0
    1.7608   -0.2925    0.7441 S   0  0  0  0  0  6  0  0  0  0  0  0
    2.6556   -1.4158    1.2448 O   0  0  0  0  0  0  0  0  0  0  0  0
    1.2996    0.4268    2.0110 O   0  0  0  0  0  0  0  0  0  0  0  0
    0.3298   -0.9666   -0.0531 C   0  0  1  0  0  0  0  0  0  0  0  0
   -0.1342   -2.1546    0.8212 C   0  0  0  0  0  0  0  0  0  0  0  0
   -1.5460   -1.9576    1.0434 N   0  0  0  0  0  0  0  0  0  0  0  0
   -1.6274   -0.4903    1.1148 C   0  0  0  0  0  0  0  0  0  0  0  0
   -0.8251   -0.0500   -0.1040 C   0  0  2  0  0  0  0  0  0  0  0  0
   -1.5813   -0.1315   -1.2590 O   0  0  0  0  0  0  0  0  0  0  0  0
   -1.8384    1.0380   -1.9057 C   0  0  0  0  0  0  0  0  0  0  0  0
    2.5382    2.8329   -0.8209 H   0  0  0  0  0  0  0  0  0  0  0  0
    1.3150    2.3947    0.3710 H   0  0  0  0  0  0  0  0  0  0  0  0
    1.1782    1.7974   -1.3397 H   0  0  0  0  0  0  0  0  0  0  0  0
    2.9466    0.3570   -1.0617 H   0  0  0  0  0  0  0  0  0  0  0  0
    0.6280   -1.4297   -1.0271 H   0  0  0  0  0  0  0  0  0  0  0  0
    0.0568   -3.1045    0.3212 H   0  0  0  0  0  0  0  0  0  0  0  0
    0.3914   -2.1439    1.8092 H   0  0  0  0  0  0  0  0  0  0  0  0
   -1.8373   -2.3171    1.9787 H   0  0  0  0  0  0  0  0  0  0  0  0
   -1.0335   -0.1992    2.0033 H   0  0  0  0  0  0  0  0  0  0  0  0
   -2.6436   -0.1126    1.1397 H   0  0  0  0  0  0  0  0  0  0  0  0
   -0.5551    0.9999    0.0628 H   0  0  0  0  0  0  0  0  0  0  0  0
   -0.9940    1.6191   -2.2668 H   0  0  0  0  0  0  0  0  0  0  0  0
   -2.4347    0.7641   -2.8263 H   0  0  0  0  0  0  0  0  0  0  0  0
   -2.5385    1.7142   -1.3397 H   0  0  0  0  0  0  0  0  0  0  0  0
  1  2  1  0
  2  3  1  0
  3  4  2  0
  3  5  2  0
  3  6  1  0
  6  7  1  0
  7  8  1  0
  8  9  1  0
  9 10  1  0
 10 11  1  0
 11 12  1  0
 10  6  1  0
  1 13  1  0
  1 14  1  0
  1 15  1  0
  2 16  1  0
  6 17  1  6
  7 18  1  0
  7 19  1  0
  8 20  1  0
  9 21  1  0
  9 22  1  0
 10 23  1  1
 12 24  1  0
 12 25  1  0
 12 26  1  0
M  END
$$$$

     RDKit          3D

 26 26  0  0  0  0  0  0  0  0999 V2000
   -2.9261    0.6764    0.3753 C   0  0  0  0  0  0  0  0  0  0  0  0
   -2.1236    1.2325   -0.6997 N   0  0  0  0  0  0  0  0  0  0  0  0
   -1.2004   -0.0606   -1.3652 S   0  0  0  0  0  6  0  0  0  0  0  0
   -0.4495    0.4411   -2.5625 O   0  0  0  0  0  0  0  0  0  0  0  0
   -2.1445   -1.1366   -1.8384 O   0  0  0  0  0  0  0  0  0  0  0  0
   -0.1109   -0.7786   -0.1926 C   0  0  1  0  0  0  0  0  0  0  0  0
    0.6302   -1.9622   -0.8396 C   0  0  0  0  0  0  0  0  0  0  0  0
    1.6925   -2.2208    0.1089 N   0  0  0  0  0  0  0  0  0  0  0  0
    1.9603   -1.0049    0.8298 C   0  0  0  0  0  0  0  0  0  0  0  0
    1.0597    0.0691    0.1936 C   0  0  2  0  0  0  0  0  0  0  0  0
    0.7972    1.0859    1.0723 O   0  0  0  0  0  0  0  0  0  0  0  0
    1.3104    2.2741    0.5052 C   0  0  0  0  0  0  0  0  0  0  0  0
   -3.9353    0.4392   -0.0477 H   0  0  0  0  0  0  0  0  0  0  0  0
   -2.4722   -0.2165    0.8357 H   0  0  0  0  0  0  0  0  0  0  0  0
   -3.0699    1.4658    1.1433 H   0  0  0  0  0  0  0  0  0  0  0  0
   -1.5038    1.9622   -0.3186 H   0  0  0  0  0  0  0  0  0  0  0  0
   -0.6786   -1.1737    0.6684 H   0  0  0  0  0  0  0  0  0  0  0  0
   -0.0419   -2.8021   -1.0029 H   0  0  0  0  0  0  0  0  0  0  0  0
    1.1213   -1.5824   -1.7653 H   0  0  0  0  0  0  0  0  0  0  0  0
    1.4737   -3.0335    0.7263 H   0  0  0  0  0  0  0  0  0  0  0  0
    3.0213   -0.7273    0.7500 H   0  0  0  0  0  0  0  0  0  0  0  0
    1.6070   -1.0742    1.8910 H   0  0  0  0  0  0  0  0  0  0  0  0
    1.5833    0.4140   -0.7202 H   0  0  0  0  0  0  0  0  0  0  0  0
    1.1400    3.1430    1.1452 H   0  0  0  0  0  0  0  0  0  0  0  0
    0.8373    2.4170   -0.4867 H   0  0  0  0  0  0  0  0  0  0  0  0
    2.4224    2.1530    0.3421 H   0  0  0  0  0  0  0  0  0  0  0  0
  1  2  1  0
  2  3  1  0
  3  4  2  0
  3  5  2  0
  3  6  1  0
  6  7  1  0
  7  8  1  0
  8  9  1  0
  9 10  1  0
 10 11  1  0
 11 12  1  0
 10  6  1  0
  1 13  1  0
  1 14  1  0
  1 15  1  0
  2 16  1  0
  6 17  1  1
  7 18  1  0
  7 19  1  0
  8 20  1  0
  9 21  1  0
  9 22  1  0
 10 23  1  6
 12 24  1  0
 12 25  1  0
 12 26  1  0
M  END
$$$$

     RDKit          3D

 26 26  0  0  0  0  0  0  0  0999 V2000
    2.4636    0.4713    0.4680 C   0  0  0  0  0  0  0  0  0  0  0  0
    2.4493   -0.1316   -0.8365 N   0  0  0  0  0  0  0  0  0  0  0  0
    1.0012    0.2495   -1.6506 S   0  0  0  0  0  6  0  0  0  0  0  0
    1.0354    1.7356   -1.9161 O   0  0  0  0  0  0  0  0  0  0  0  0
    1.1387   -0.3761   -3.0462 O   0  0  0  0  0  0  0  0  0  0  0  0
   -0.4764   -0.2951   -0.9600 C   0  0  1  0  0  0  0  0  0  0  0  0
   -0.5327   -1.8207   -0.9593 C   0  0  0  0  0  0  0  0  0  0  0  0
   -1.6316   -2.1174   -0.0917 N   0  0  0  0  0  0  0  0  0  0  0  0
   -1.7849   -1.0685    0.8709 C   0  0  0  0  0  0  0  0  0  0  0  0
   -0.8113    0.0581    0.4413 C   0  0  2  0  0  0  0  0  0  0  0  0
   -1.5877    1.2222    0.4179 O   0  0  0  0  0  0  0  0  0  0  0  0
   -1.1531    2.1516    1.3537 C   0  0  0  0  0  0  0  0  0  0  0  0
    2.2761   -0.2452    1.2997 H   0  0  0  0  0  0  0  0  0  0  0  0
    3.5270    0.8529    0.6335 H   0  0  0  0  0  0  0  0  0  0  0  0
    1.8241    1.3521    0.5391 H   0  0  0  0  0  0  0  0  0  0  0  0
    3.2450    0.1924   -1.3947 H   0  0  0  0  0  0  0  0  0  0  0  0
   -1.3295    0.0237   -1.6462 H   0  0  0  0  0  0  0  0  0  0  0  0
   -0.7859   -2.1698   -1.9840 H   0  0  0  0  0  0  0  0  0  0  0  0
    0.4199   -2.2566   -0.5931 H   0  0  0  0  0  0  0  0  0  0  0  0
   -1.6213   -3.0760    0.3105 H   0  0  0  0  0  0  0  0  0  0  0  0
   -1.5700   -1.3849    1.9101 H   0  0  0  0  0  0  0  0  0  0  0  0
   -2.8338   -0.7315    0.8425 H   0  0  0  0  0  0  0  0  0  0  0  0
   -0.0214    0.0838    1.1707 H   0  0  0  0  0  0  0  0  0  0  0  0
   -1.2160    1.7119    2.3763 H   0  0  0  0  0  0  0  0  0  0  0  0
   -0.1568    2.5567    1.1573 H   0  0  0  0  0  0  0  0  0  0  0  0
   -1.8680    3.0114    1.2869 H   0  0  0  0  0  0  0  0  0  0  0  0
  1  2  1  0
  2  3  1  0
  3  4  2  0
  3  5  2  0
  3  6  1  0
  6  7  1  0
  7  8  1  0
  8  9  1  0
  9 10  1  0
 10 11  1  0
 11 12  1  0
 10  6  1  0
  1 13  1  0
  1 14  1  0
  1 15  1  0
  2 16  1  0
  6 17  1  6
  7 18  1  0
  7 19  1  0
  8 20  1  0
  9 21  1  0
  9 22  1  0
 10 23  1  1
 12 24  1  0
 12 25  1  0
 12 26  1  0
M  END
$$$$

     RDKit          3D

 26 26  0  0  0  0  0  0  0  0999 V2000
    3.2473   -0.2255    0.7524 C   0  0  0  0  0  0  0  0  0  0  0  0
    2.6520    1.0568    0.5540 N   0  0  0  0  0  0  0  0  0  0  0  0
    0.9480    1.0900    0.8293 S   0  0  0  0  0  6  0  0  0  0  0  0
    0.5122    2.5108    0.5214 O   0  0  0  0  0  0  0  0  0  0  0  0
    0.5931    0.7852    2.2393 O   0  0  0  0  0  0  0  0  0  0  0  0
    0.1031    0.0260   -0.2743 C   0  0  1  0  0  0  0  0  0  0  0  0
    0.5199   -1.4241   -0.1173 C   0  0  0  0  0  0  0  0  0  0  0  0
   -0.5563   -2.0840   -0.8754 N   0  0  0  0  0  0  0  0  0  0  0  0
   -1.7639   -1.4359   -0.3980 C   0  0  0  0  0  0  0  0  0  0  0  0
   -1.3661   -0.0397    0.0460 C   0  0  2  0  0  0  0  0  0  0  0  0
   -2.0279    0.9374   -0.6476 O   0  0  0  0  0  0  0  0  0  0  0  0
   -2.7409    1.8326    0.1068 C   0  0  0  0  0  0  0  0  0  0  0  0
    4.1930   -0.0727    1.3475 H   0  0  0  0  0  0  0  0  0  0  0  0
    2.6507   -0.9376    1.3321 H   0  0  0  0  0  0  0  0  0  0  0  0
    3.5947   -0.6663   -0.2048 H   0  0  0  0  0  0  0  0  0  0  0  0
    3.0930    1.7741    1.1325 H   0  0  0  0  0  0  0  0  0  0  0  0
    0.2965    0.3687   -1.3089 H   0  0  0  0  0  0  0  0  0  0  0  0
    1.4577   -1.6699   -0.6160 H   0  0  0  0  0  0  0  0  0  0  0  0
    0.4259   -1.7318    0.9234 H   0  0  0  0  0  0  0  0  0  0  0  0
   -0.5733   -3.0693   -0.5415 H   0  0  0  0  0  0  0  0  0  0  0  0
   -2.5268   -1.3794   -1.2202 H   0  0  0  0  0  0  0  0  0  0  0  0
   -2.1771   -1.9748    0.4790 H   0  0  0  0  0  0  0  0  0  0  0  0
   -1.5195    0.0996    1.1259 H   0  0  0  0  0  0  0  0  0  0  0  0
   -2.1922    2.4196    0.8361 H   0  0  0  0  0  0  0  0  0  0  0  0
   -3.2579    2.5531   -0.5688 H   0  0  0  0  0  0  0  0  0  0  0  0
   -3.5853    1.2571    0.5894 H   0  0  0  0  0  0  0  0  0  0  0  0
  1  2  1  0
  2  3  1  0
  3  4  2  0
  3  5  2  0
  3  6  1  0
  6  7  1  0
  7  8  1  0
  8  9  1  0
  9 10  1  0
 10 11  1  0
 11 12  1  0
 10  6  1  0
  1 13  1  0
  1 14  1  0
  1 15  1  0
  2 16  1  0
  6 17  1  6
  7 18  1  0
  7 19  1  0
  8 20  1  0
  9 21  1  0
  9 22  1  0
 10 23  1  1
 12 24  1  0
 12 25  1  0
 12 26  1  0
M  END
$$$$

     RDKit          3D

 26 26  0  0  0  0  0  0  0  0999 V2000
    3.2393   -0.3983   -0.6608 C   0  0  0  0  0  0  0  0  0  0  0  0
    2.6956   -1.0311    0.5287 N   0  0  0  0  0  0  0  0  0  0  0  0
    1.2755   -0.1437    0.9757 S   0  0  0  0  0  6  0  0  0  0  0  0
    1.5797    1.2824    1.2715 O   0  0  0  0  0  0  0  0  0  0  0  0
    0.6965   -0.7646    2.2043 O   0  0  0  0  0  0  0  0  0  0  0  0
    0.0563   -0.2095   -0.3096 C   0  0  1  0  0  0  0  0  0  0  0  0
   -0.4194   -1.6196   -0.5745 C   0  0  0  0  0  0  0  0  0  0  0  0
   -1.7026   -1.7717    0.0277 N   0  0  0  0  0  0  0  0  0  0  0  0
   -1.9476   -0.5966    0.8411 C   0  0  0  0  0  0  0  0  0  0  0  0
   -1.1904    0.4623    0.1336 C   0  0  2  0  0  0  0  0  0  0  0  0
   -1.8737    1.1448   -0.8312 O   0  0  0  0  0  0  0  0  0  0  0  0
   -1.9997    2.5016   -0.5995 C   0  0  0  0  0  0  0  0  0  0  0  0
    3.5829    0.6193   -0.3304 H   0  0  0  0  0  0  0  0  0  0  0  0
    2.4333   -0.2567   -1.3865 H   0  0  0  0  0  0  0  0  0  0  0  0
    4.0830   -0.9730   -1.0984 H   0  0  0  0  0  0  0  0  0  0  0  0
    3.4147   -0.9725    1.2823 H   0  0  0  0  0  0  0  0  0  0  0  0
    0.4551    0.2248   -1.2587 H   0  0  0  0  0  0  0  0  0  0  0  0
   -0.4470   -1.8381   -1.6632 H   0  0  0  0  0  0  0  0  0  0  0  0
    0.3242   -2.3227   -0.1146 H   0  0  0  0  0  0  0  0  0  0  0  0
   -2.4433   -1.9650   -0.6606 H   0  0  0  0  0  0  0  0  0  0  0  0
   -1.6001   -0.7814    1.8846 H   0  0  0  0  0  0  0  0  0  0  0  0
   -3.0500   -0.4385    0.8410 H   0  0  0  0  0  0  0  0  0  0  0  0
   -0.8910    1.2238    0.9093 H   0  0  0  0  0  0  0  0  0  0  0  0
   -2.5571    2.5954    0.3804 H   0  0  0  0  0  0  0  0  0  0  0  0
   -1.0554    3.0311   -0.4526 H   0  0  0  0  0  0  0  0  0  0  0  0
   -2.6590    2.9976   -1.3397 H   0  0  0  0  0  0  0  0  0  0  0  0
  1  2  1  0
  2  3  1  0
  3  4  2  0
  3  5  2  0
  3  6  1  0
  6  7  1  0
  7  8  1  0
  8  9  1  0
  9 10  1  0
 10 11  1  0
 11 12  1  0
 10  6  1  0
  1 13  1  0
  1 14  1  0
  1 15  1  0
  2 16  1  0
  6 17  1  6
  7 18  1  0
  7 19  1  0
  8 20  1  0
  9 21  1  0
  9 22  1  0
 10 23  1  1
 12 24  1  0
 12 25  1  0
 12 26  1  0
M  END
$$$$

     RDKit          3D

 26 26  0  0  0  0  0  0  0  0999 V2000
    2.9231    0.8197   -0.4268 C   0  0  0  0  0  0  0  0  0  0  0  0
    2.1106    1.1834    0.7185 N   0  0  0  0  0  0  0  0  0  0  0  0
    1.2263   -0.1809    1.2925 S   0  0  0  0  0  6  0  0  0  0  0  0
    2.2428   -1.2656    1.5842 O   0  0  0  0  0  0  0  0  0  0  0  0
    0.4988    0.1011    2.5486 O   0  0  0  0  0  0  0  0  0  0  0  0
    0.1347   -0.7847    0.0713 C   0  0  1  0  0  0  0  0  0  0  0  0
   -0.5782   -2.0327    0.6140 C   0  0  0  0  0  0  0  0  0  0  0  0
   -1.6918   -2.1899   -0.2693 N   0  0  0  0  0  0  0  0  0  0  0  0
   -1.9496   -0.9431   -0.9232 C   0  0  0  0  0  0  0  0  0  0  0  0
   -1.0603    0.0759   -0.1913 C   0  0  2  0  0  0  0  0  0  0  0  0
   -0.8384    1.1644   -0.9868 O   0  0  0  0  0  0  0  0  0  0  0  0
   -1.3581    2.2873   -0.3098 C   0  0  0  0  0  0  0  0  0  0  0  0
    3.2939    1.7067   -0.9593 H   0  0  0  0  0  0  0  0  0  0  0  0
    3.7928    0.1925   -0.1441 H   0  0  0  0  0  0  0  0  0  0  0  0
    2.3235    0.2029   -1.1412 H   0  0  0  0  0  0  0  0  0  0  0  0
    1.4972    1.9681    0.4602 H   0  0  0  0  0  0  0  0  0  0  0  0
    0.6307   -1.1083   -0.8579 H   0  0  0  0  0  0  0  0  0  0  0  0
    0.0990   -2.8963    0.6501 H   0  0  0  0  0  0  0  0  0  0  0  0
   -0.9669   -1.7313    1.6135 H   0  0  0  0  0  0  0  0  0  0  0  0
   -1.5889   -2.9941   -0.9212 H   0  0  0  0  0  0  0  0  0  0  0  0
   -3.0122   -0.6378   -0.8753 H   0  0  0  0  0  0  0  0  0  0  0  0
   -1.6011   -0.9680   -1.9894 H   0  0  0  0  0  0  0  0  0  0  0  0
   -1.5712    0.3145    0.7598 H   0  0  0  0  0  0  0  0  0  0  0  0
   -0.8492    2.4144    0.6673 H   0  0  0  0  0  0  0  0  0  0  0  0
   -1.2671    3.2096   -0.9182 H   0  0  0  0  0  0  0  0  0  0  0  0
   -2.4402    2.0921   -0.0661 H   0  0  0  0  0  0  0  0  0  0  0  0
  1  2  1  0
  2  3  1  0
  3  4  2  0
  3  5  2  0
  3  6  1  0
  6  7  1  0
  7  8  1  0
  8  9  1  0
  9 10  1  0
 10 11  1  0
 11 12  1  0
 10  6  1  0
  1 13  1  0
  1 14  1  0
  1 15  1  0
  2 16  1  0
  6 17  1  6
  7 18  1  0
  7 19  1  0
  8 20  1  0
  9 21  1  0
  9 22  1  0
 10 23  1  1
 12 24  1  0
 12 25  1  0
 12 26  1  0
M  END
$$$$

     RDKit          3D

 26 26  0  0  0  0  0  0  0  0999 V2000
    3.2551    0.0719    0.6330 C   0  0  0  0  0  0  0  0  0  0  0  0
    2.5242    1.2910    0.8160 N   0  0  0  0  0  0  0  0  0  0  0  0
    0.8701    0.9453    1.1434 S   0  0  0  0  0  6  0  0  0  0  0  0
    0.7824    0.0760    2.3696 O   0  0  0  0  0  0  0  0  0  0  0  0
    0.1301    2.2353    1.4298 O   0  0  0  0  0  0  0  0  0  0  0  0
    0.1872    0.1086   -0.2136 C   0  0  1  0  0  0  0  0  0  0  0  0
    0.6007   -1.3100   -0.4104 C   0  0  0  0  0  0  0  0  0  0  0  0
   -0.4857   -1.9434   -1.1764 N   0  0  0  0  0  0  0  0  0  0  0  0
   -1.5185   -0.9390   -1.3382 C   0  0  0  0  0  0  0  0  0  0  0  0
   -1.3328   -0.1262   -0.0499 C   0  0  2  0  0  0  0  0  0  0  0  0
   -2.0193    1.0448   -0.0559 O   0  0  0  0  0  0  0  0  0  0  0  0
   -2.8983    1.2165    0.9988 C   0  0  0  0  0  0  0  0  0  0  0  0
    4.2582    0.2201    1.1311 H   0  0  0  0  0  0  0  0  0  0  0  0
    2.7718   -0.8230    1.0573 H   0  0  0  0  0  0  0  0  0  0  0  0
    3.4962   -0.1467   -0.4284 H   0  0  0  0  0  0  0  0  0  0  0  0
    2.5877    1.8311   -0.0927 H   0  0  0  0  0  0  0  0  0  0  0  0
    0.2640    0.6895   -1.1570 H   0  0  0  0  0  0  0  0  0  0  0  0
    0.6432   -1.7812    0.6087 H   0  0  0  0  0  0  0  0  0  0  0  0
    1.5355   -1.3954   -0.9621 H   0  0  0  0  0  0  0  0  0  0  0  0
   -0.8758   -2.7181   -0.5976 H   0  0  0  0  0  0  0  0  0  0  0  0
   -2.5160   -1.3592   -1.4197 H   0  0  0  0  0  0  0  0  0  0  0  0
   -1.2115   -0.2975   -2.1832 H   0  0  0  0  0  0  0  0  0  0  0  0
   -1.5299   -0.8130    0.7700 H   0  0  0  0  0  0  0  0  0  0  0  0
   -3.6822    0.4332    1.0375 H   0  0  0  0  0  0  0  0  0  0  0  0
   -3.4376    2.1751    0.8255 H   0  0  0  0  0  0  0  0  0  0  0  0
   -2.3989    1.3142    1.9844 H   0  0  0  0  0  0  0  0  0  0  0  0
  1  2  1  0
  2  3  1  0
  3  4  2  0
  3  5  2  0
  3  6  1  0
  6  7  1  0
  7  8  1  0
  8  9  1  0
  9 10  1  0
 10 11  1  0
 11 12  1  0
 10  6  1  0
  1 13  1  0
  1 14  1  0
  1 15  1  0
  2 16  1  0
  6 17  1  6
  7 18  1  0
  7 19  1  0
  8 20  1  0
  9 21  1  0
  9 22  1  0
 10 23  1  1
 12 24  1  0
 12 25  1  0
 12 26  1  0
M  END
$$$$

     RDKit          3D

 26 26  0  0  0  0  0  0  0  0999 V2000
    2.6474    0.7540    0.2517 C   0  0  0  0  0  0  0  0  0  0  0  0
    1.7800    1.4954   -0.6114 N   0  0  0  0  0  0  0  0  0  0  0  0
    0.9442    0.4533   -1.6577 S   0  0  0  0  0  6  0  0  0  0  0  0
    0.1231    1.2787   -2.6402 O   0  0  0  0  0  0  0  0  0  0  0  0
    1.9272   -0.3123   -2.5342 O   0  0  0  0  0  0  0  0  0  0  0  0
   -0.1009   -0.7065   -0.9213 C   0  0  1  0  0  0  0  0  0  0  0  0
    0.5314   -1.6490    0.0747 C   0  0  0  0  0  0  0  0  0  0  0  0
   -0.6694   -2.4116    0.4733 N   0  0  0  0  0  0  0  0  0  0  0  0
   -1.7352   -1.4338    0.5394 C   0  0  0  0  0  0  0  0  0  0  0  0
   -1.1799   -0.1282   -0.0227 C   0  0  2  0  0  0  0  0  0  0  0  0
   -2.1174    0.6047   -0.6944 O   0  0  0  0  0  0  0  0  0  0  0  0
   -2.1711    1.8732   -0.0727 C   0  0  0  0  0  0  0  0  0  0  0  0
    2.7873   -0.2969   -0.0689 H   0  0  0  0  0  0  0  0  0  0  0  0
    2.2779    0.7659    1.2950 H   0  0  0  0  0  0  0  0  0  0  0  0
    3.6733    1.1860    0.2926 H   0  0  0  0  0  0  0  0  0  0  0  0
    2.3047    2.2271   -1.1237 H   0  0  0  0  0  0  0  0  0  0  0  0
   -0.6135   -1.3559   -1.6737 H   0  0  0  0  0  0  0  0  0  0  0  0
    1.3115   -2.2822   -0.3292 H   0  0  0  0  0  0  0  0  0  0  0  0
    0.8132   -1.0913    1.0036 H   0  0  0  0  0  0  0  0  0  0  0  0
   -0.5424   -2.8445    1.4100 H   0  0  0  0  0  0  0  0  0  0  0  0
   -2.5613   -1.7479   -0.1630 H   0  0  0  0  0  0  0  0  0  0  0  0
   -2.1565   -1.3103    1.5482 H   0  0  0  0  0  0  0  0  0  0  0  0
   -0.6900    0.3881    0.8122 H   0  0  0  0  0  0  0  0  0  0  0  0
   -2.9150    2.4947   -0.5839 H   0  0  0  0  0  0  0  0  0  0  0  0
   -2.5052    1.7499    0.9975 H   0  0  0  0  0  0  0  0  0  0  0  0
   -1.1635    2.2995   -0.0225 H   0  0  0  0  0  0  0  0  0  0  0  0
  1  2  1  0
  2  3  1  0
  3  4  2  0
  3  5  2  0
  3  6  1  0
  6  7  1  0
  7  8  1  0
  8  9  1  0
  9 10  1  0
 10 11  1  0
 11 12  1  0
 10  6  1  0
  1 13  1  0
  1 14  1  0
  1 15  1  0
  2 16  1  0
  6 17  1  6
  7 18  1  0
  7 19  1  0
  8 20  1  0
  9 21  1  0
  9 22  1  0
 10 23  1  1
 12 24  1  0
 12 25  1  0
 12 26  1  0
M  END
$$$$
