
     RDKit          3D

 24 25  0  0  0  0  0  0  0  0999 V2000
   -0.5356    3.0624   -0.1505 O   0  0  0  0  0  0  0  0  0  0  0  0
   -0.7850    1.8358   -0.0411 C   0  0  0  0  0  0  0  0  0  0  0  0
   -2.0877    1.3308   -0.2788 N   0  0  0  0  0  0  0  0  0  0  0  0
   -2.1635   -0.0787   -0.5675 C   0  0  0  0  0  0  0  0  0  0  0  0
   -1.4377   -0.9221    0.4371 C   0  0  0  0  0  0  0  0  0  0  0  0
   -0.1050   -0.4098    0.8513 C   0  0  1  0  0  0  0  0  0  0  0  0
    0.9983   -1.3930    0.4706 C   0  0  0  0  0  0  0  0  0  0  0  0
    2.3016   -0.8267    0.6186 N   0  0  0  0  0  0  0  0  0  0  0  0
    2.5023    0.2579   -0.1949 N   0  0  0  0  0  0  0  0  0  0  0  0
    1.2754    0.6583   -0.8088 C   0  0  0  0  0  0  0  0  0  0  0  0
    0.2869    0.9271    0.3361 C   0  0  1  0  0  0  0  0  0  0  0  0
   -2.9471    1.9526   -0.2458 H   0  0  0  0  0  0  0  0  0  0  0  0
   -3.2314   -0.3740   -0.5814 H   0  0  0  0  0  0  0  0  0  0  0  0
   -1.7681   -0.2370   -1.5853 H   0  0  0  0  0  0  0  0  0  0  0  0
   -2.1317   -1.0637    1.3018 H   0  0  0  0  0  0  0  0  0  0  0  0
   -1.3143   -1.9303   -0.0131 H   0  0  0  0  0  0  0  0  0  0  0  0
   -0.0838   -0.3729    1.9600 H   0  0  0  0  0  0  0  0  0  0  0  0
    0.8200   -1.8416   -0.5278 H   0  0  0  0  0  0  0  0  0  0  0  0
    0.9099   -2.2394    1.1935 H   0  0  0  0  0  0  0  0  0  0  0  0
    3.0022   -1.5727    0.4524 H   0  0  0  0  0  0  0  0  0  0  0  0
    3.3179    0.2221   -0.8112 H   0  0  0  0  0  0  0  0  0  0  0  0
    0.8594   -0.0665   -1.5291 H   0  0  0  0  0  0  0  0  0  0  0  0
    1.4027    1.6129   -1.3927 H   0  0  0  0  0  0  0  0  0  0  0  0
    0.9142    1.4686    1.1065 H   0  0  0  0  0  0  0  0  0  0  0  0
  1  2  2  0
  2  3  1  0
  3  4  1  0
  4  5  1  0
  5  6  1  0
  6  7  1  0
  7  8  1  0
  8  9  1  0
  9 10  1  0
 10 11  1  0
 11  2  1  0
 11  6  1  0
  3 12  1  0
  4 13  1  0
  4 14  1  0
  5 15  1  0
  5 16  1  0
  6 17  1  1
  7 18  1  0
  7 19  1  0
  8 20  1  0
  9 21  1  0
 10 22  1  0
 10 23  1  0
 11 24  1  1
M  END
$$$$

     RDKit          3D

 24 25  0  0  0  0  0  0  0  0999 V2000
    0.5757    2.9641   -0.3811 O   0  0  0  0  0  0  0  0  0  0  0  0
    0.7651    1.7436   -0.2210 C   0  0  0  0  0  0  0  0  0  0  0  0
    2.0270    1.2940    0.2454 N   0  0  0  0  0  0  0  0  0  0  0  0
    2.4873   -0.0643   -0.0053 C   0  0  0  0  0  0  0  0  0  0  0  0
    1.2808   -0.9781    0.1666 C   0  0  0  0  0  0  0  0  0  0  0  0
    0.1451   -0.5747   -0.7370 C   0  0  1  0  0  0  0  0  0  0  0  0
   -0.9807   -1.5557   -0.5223 C   0  0  0  0  0  0  0  0  0  0  0  0
   -2.2545   -0.8651   -0.6290 N   0  0  0  0  0  0  0  0  0  0  0  0
   -2.4325   -0.0076    0.4617 N   0  0  0  0  0  0  0  0  0  0  0  0
   -1.3723    0.9516    0.5606 C   0  0  0  0  0  0  0  0  0  0  0  0
   -0.3359    0.8150   -0.5248 C   0  0  1  0  0  0  0  0  0  0  0  0
    2.6603    1.9122    0.7765 H   0  0  0  0  0  0  0  0  0  0  0  0
    3.2619   -0.3792    0.6919 H   0  0  0  0  0  0  0  0  0  0  0  0
    2.8348   -0.1140   -1.0486 H   0  0  0  0  0  0  0  0  0  0  0  0
    1.6048   -2.0007   -0.1659 H   0  0  0  0  0  0  0  0  0  0  0  0
    0.9933   -1.0721    1.2200 H   0  0  0  0  0  0  0  0  0  0  0  0
    0.5539   -0.6307   -1.7890 H   0  0  0  0  0  0  0  0  0  0  0  0
   -0.8805   -2.0236    0.4669 H   0  0  0  0  0  0  0  0  0  0  0  0
   -0.9688   -2.3445   -1.2880 H   0  0  0  0  0  0  0  0  0  0  0  0
   -2.9919   -1.6044   -0.5557 H   0  0  0  0  0  0  0  0  0  0  0  0
   -3.3687    0.4163    0.3871 H   0  0  0  0  0  0  0  0  0  0  0  0
   -0.9228    1.0049    1.5805 H   0  0  0  0  0  0  0  0  0  0  0  0
   -1.8434    1.9669    0.4098 H   0  0  0  0  0  0  0  0  0  0  0  0
   -0.8377    1.1460   -1.4774 H   0  0  0  0  0  0  0  0  0  0  0  0
  1  2  2  0
  2  3  1  0
  3  4  1  0
  4  5  1  0
  5  6  1  0
  6  7  1  0
  7  8  1  0
  8  9  1  0
  9 10  1  0
 10 11  1  0
 11  2  1  0
 11  6  1  0
  3 12  1  0
  4 13  1  0
  4 14  1  0
  5 15  1  0
  5 16  1  0
  6 17  1  6
  7 18  1  0
  7 19  1  0
  8 20  1  0
  9 21  1  0
 10 22  1  0
 10 23  1  0
 11 24  1  6
M  END
$$$$

     RDKit          3D

 24 25  0  0  0  0  0  0  0  0999 V2000
    0.9496    2.6750   -0.4477 O   0  0  0  0  0  0  0  0  0  0  0  0
    0.8933    1.4246   -0.3264 C   0  0  0  0  0  0  0  0  0  0  0  0
    1.8999    0.7535    0.3884 N   0  0  0  0  0  0  0  0  0  0  0  0
    2.0498   -0.6858    0.3830 C   0  0  0  0  0  0  0  0  0  0  0  0
    1.1169   -1.3685   -0.5689 C   0  0  0  0  0  0  0  0  0  0  0  0
   -0.2494   -0.7479   -0.6043 C   0  0  1  0  0  0  0  0  0  0  0  0
   -0.9030   -1.0287    0.7442 C   0  0  0  0  0  0  0  0  0  0  0  0
   -1.1571    0.2570    1.3628 N   0  0  0  0  0  0  0  0  0  0  0  0
   -2.1531    0.8819    0.5869 N   0  0  0  0  0  0  0  0  0  0  0  0
   -1.5125    1.3891   -0.5964 C   0  0  0  0  0  0  0  0  0  0  0  0
   -0.2310    0.7090   -0.9413 C   0  0  1  0  0  0  0  0  0  0  0  0
    2.5736    1.3006    0.9501 H   0  0  0  0  0  0  0  0  0  0  0  0
    3.0999   -0.9087    0.0591 H   0  0  0  0  0  0  0  0  0  0  0  0
    1.8729   -1.0578    1.4137 H   0  0  0  0  0  0  0  0  0  0  0  0
    1.5725   -1.4954   -1.5658 H   0  0  0  0  0  0  0  0  0  0  0  0
    0.9746   -2.4189   -0.1766 H   0  0  0  0  0  0  0  0  0  0  0  0
   -0.8144   -1.2748   -1.4269 H   0  0  0  0  0  0  0  0  0  0  0  0
   -0.2453   -1.5897    1.4208 H   0  0  0  0  0  0  0  0  0  0  0  0
   -1.8325   -1.6051    0.5879 H   0  0  0  0  0  0  0  0  0  0  0  0
   -1.4695    0.0805    2.3265 H   0  0  0  0  0  0  0  0  0  0  0  0
   -2.8286    0.1198    0.3293 H   0  0  0  0  0  0  0  0  0  0  0  0
   -2.2201    1.3271   -1.4540 H   0  0  0  0  0  0  0  0  0  0  0  0
   -1.2874    2.4765   -0.3908 H   0  0  0  0  0  0  0  0  0  0  0  0
   -0.0992    0.7869   -2.0535 H   0  0  0  0  0  0  0  0  0  0  0  0
  1  2  2  0
  2  3  1  0
  3  4  1  0
  4  5  1  0
  5  6  1  0
  6  7  1  0
  7  8  1  0
  8  9  1  0
  9 10  1  0
 10 11  1  0
 11  2  1  0
 11  6  1  0
  3 12  1  0
  4 13  1  0
  4 14  1  0
  5 15  1  0
  5 16  1  0
  6 17  1  6
  7 18  1  0
  7 19  1  0
  8 20  1  0
  9 21  1  0
 10 22  1  0
 10 23  1  0
 11 24  1  6
M  END
$$$$

     RDKit          3D

 24 25  0  0  0  0  0  0  0  0999 V2000
   -1.1626    2.3787   -0.9633 O   0  0  0  0  0  0  0  0  0  0  0  0
   -1.1679    1.3252   -0.2735 C   0  0  0  0  0  0  0  0  0  0  0  0
   -2.3728    0.6119   -0.1178 N   0  0  0  0  0  0  0  0  0  0  0  0
   -2.2994   -0.7245    0.4080 C   0  0  0  0  0  0  0  0  0  0  0  0
   -1.0464   -1.3484   -0.1834 C   0  0  0  0  0  0  0  0  0  0  0  0
    0.1644   -0.6716    0.3496 C   0  0  1  0  0  0  0  0  0  0  0  0
    1.3479   -1.0828   -0.5301 C   0  0  0  0  0  0  0  0  0  0  0  0
    2.5281   -0.5410    0.0948 N   0  0  0  0  0  0  0  0  0  0  0  0
    2.5168    0.8506    0.0213 N   0  0  0  0  0  0  0  0  0  0  0  0
    1.2546    1.3891   -0.3897 C   0  0  0  0  0  0  0  0  0  0  0  0
    0.0903    0.8203    0.3838 C   0  0  1  0  0  0  0  0  0  0  0  0
   -3.2867    1.0155   -0.3660 H   0  0  0  0  0  0  0  0  0  0  0  0
   -2.1026   -0.6452    1.5105 H   0  0  0  0  0  0  0  0  0  0  0  0
   -3.1992   -1.3340    0.2057 H   0  0  0  0  0  0  0  0  0  0  0  0
   -1.0992   -1.1744   -1.2958 H   0  0  0  0  0  0  0  0  0  0  0  0
   -0.9786   -2.4281    0.0620 H   0  0  0  0  0  0  0  0  0  0  0  0
    0.4004   -1.0323    1.3813 H   0  0  0  0  0  0  0  0  0  0  0  0
    1.3883   -2.1768   -0.5207 H   0  0  0  0  0  0  0  0  0  0  0  0
    1.2094   -0.7423   -1.5702 H   0  0  0  0  0  0  0  0  0  0  0  0
    2.4840   -0.8045    1.1123 H   0  0  0  0  0  0  0  0  0  0  0  0
    2.8441    1.2948    0.9074 H   0  0  0  0  0  0  0  0  0  0  0  0
    1.2756    2.4855   -0.1599 H   0  0  0  0  0  0  0  0  0  0  0  0
    1.0883    1.2924   -1.4868 H   0  0  0  0  0  0  0  0  0  0  0  0
    0.1231    1.2418    1.4206 H   0  0  0  0  0  0  0  0  0  0  0  0
  1  2  2  0
  2  3  1  0
  3  4  1  0
  4  5  1  0
  5  6  1  0
  6  7  1  0
  7  8  1  0
  8  9  1  0
  9 10  1  0
 10 11  1  0
 11  2  1  0
 11  6  1  0
  3 12  1  0
  4 13  1  0
  4 14  1  0
  5 15  1  0
  5 16  1  0
  6 17  1  1
  7 18  1  0
  7 19  1  0
  8 20  1  0
  9 21  1  0
 10 22  1  0
 10 23  1  0
 11 24  1  1
M  END
$$$$

     RDKit          3D

 24 25  0  0  0  0  0  0  0  0999 V2000
   -0.2996   -2.6086    0.4086 O   0  0  0  0  0  0  0  0  0  0  0  0
   -0.7575   -1.5202   -0.0007 C   0  0  0  0  0  0  0  0  0  0  0  0
   -2.0529   -1.0826    0.3989 N   0  0  0  0  0  0  0  0  0  0  0  0
   -2.3900    0.2912    0.1756 C   0  0  0  0  0  0  0  0  0  0  0  0
   -1.2220    1.2137    0.2388 C   0  0  0  0  0  0  0  0  0  0  0  0
   -0.0405    0.8000   -0.5644 C   0  0  1  0  0  0  0  0  0  0  0  0
    1.2186    1.2939    0.1101 C   0  0  0  0  0  0  0  0  0  0  0  0
    1.7659    0.3693    1.0499 N   0  0  0  0  0  0  0  0  0  0  0  0
    1.8149   -0.9378    0.6210 N   0  0  0  0  0  0  0  0  0  0  0  0
    1.4856   -1.0772   -0.7753 C   0  0  0  0  0  0  0  0  0  0  0  0
    0.0236   -0.6505   -0.9102 C   0  0  1  0  0  0  0  0  0  0  0  0
   -2.7452   -1.7127    0.8370 H   0  0  0  0  0  0  0  0  0  0  0  0
   -3.1044    0.5995    0.9797 H   0  0  0  0  0  0  0  0  0  0  0  0
   -2.9635    0.4360   -0.7789 H   0  0  0  0  0  0  0  0  0  0  0  0
   -1.5834    2.2292   -0.0902 H   0  0  0  0  0  0  0  0  0  0  0  0
   -0.9039    1.3608    1.3012 H   0  0  0  0  0  0  0  0  0  0  0  0
   -0.0959    1.3600   -1.5452 H   0  0  0  0  0  0  0  0  0  0  0  0
    0.9342    2.2185    0.6824 H   0  0  0  0  0  0  0  0  0  0  0  0
    1.9776    1.6159   -0.6326 H   0  0  0  0  0  0  0  0  0  0  0  0
    2.7653    0.6709    1.2357 H   0  0  0  0  0  0  0  0  0  0  0  0
    2.7073   -1.4281    0.8292 H   0  0  0  0  0  0  0  0  0  0  0  0
    1.5812   -2.1424   -1.0641 H   0  0  0  0  0  0  0  0  0  0  0  0
    2.1430   -0.4512   -1.4189 H   0  0  0  0  0  0  0  0  0  0  0  0
   -0.2585   -0.8475   -1.9740 H   0  0  0  0  0  0  0  0  0  0  0  0
  1  2  2  0
  2  3  1  0
  3  4  1  0
  4  5  1  0
  5  6  1  0
  6  7  1  0
  7  8  1  0
  8  9  1  0
  9 10  1  0
 10 11  1  0
 11  2  1  0
 11  6  1  0
  3 12  1  0
  4 13  1  0
  4 14  1  0
  5 15  1  0
  5 16  1  0
  6 17  1  6
  7 18  1  0
  7 19  1  0
  8 20  1  0
  9 21  1  0
 10 22  1  0
 10 23  1  0
 11 24  1  6
M  END
$$$$

     RDKit          3D

 24 25  0  0  0  0  0  0  0  0999 V2000
   -0.9296    2.9324    0.1332 O   0  0  0  0  0  0  0  0  0  0  0  0
   -0.9167    1.6609    0.0122 C   0  0  0  0  0  0  0  0  0  0  0  0
   -2.0887    1.0748   -0.5672 N   0  0  0  0  0  0  0  0  0  0  0  0
   -2.2998   -0.3444   -0.2681 C   0  0  0  0  0  0  0  0  0  0  0  0
   -0.9484   -1.0099   -0.5295 C   0  0  0  0  0  0  0  0  0  0  0  0
   -0.0619   -0.5599    0.6341 C   0  0  1  0  0  0  0  0  0  0  0  0
    1.1475   -1.4217    0.7611 C   0  0  0  0  0  0  0  0  0  0  0  0
    2.2124   -1.0660   -0.1402 N   0  0  0  0  0  0  0  0  0  0  0  0
    2.5097    0.2848   -0.0324 N   0  0  0  0  0  0  0  0  0  0  0  0
    1.3997    1.0963   -0.5000 C   0  0  0  0  0  0  0  0  0  0  0  0
    0.2438    0.8891    0.4513 C   0  0  1  0  0  0  0  0  0  0  0  0
   -2.7584    1.5862   -1.1582 H   0  0  0  0  0  0  0  0  0  0  0  0
   -3.1096   -0.7835   -0.8386 H   0  0  0  0  0  0  0  0  0  0  0  0
   -2.4775   -0.3909    0.8261 H   0  0  0  0  0  0  0  0  0  0  0  0
   -1.0232   -2.0973   -0.6012 H   0  0  0  0  0  0  0  0  0  0  0  0
   -0.5483   -0.5484   -1.4577 H   0  0  0  0  0  0  0  0  0  0  0  0
   -0.6854   -0.6974    1.5536 H   0  0  0  0  0  0  0  0  0  0  0  0
    0.8326   -2.4842    0.5548 H   0  0  0  0  0  0  0  0  0  0  0  0
    1.4989   -1.4439    1.8251 H   0  0  0  0  0  0  0  0  0  0  0  0
    1.9642   -1.3309   -1.1075 H   0  0  0  0  0  0  0  0  0  0  0  0
    2.7146    0.4819    0.9646 H   0  0  0  0  0  0  0  0  0  0  0  0
    1.0750    0.7335   -1.4964 H   0  0  0  0  0  0  0  0  0  0  0  0
    1.7015    2.1480   -0.4781 H   0  0  0  0  0  0  0  0  0  0  0  0
    0.5475    1.2902    1.4591 H   0  0  0  0  0  0  0  0  0  0  0  0
  1  2  2  0
  2  3  1  0
  3  4  1  0
  4  5  1  0
  5  6  1  0
  6  7  1  0
  7  8  1  0
  8  9  1  0
  9 10  1  0
 10 11  1  0
 11  2  1  0
 11  6  1  0
  3 12  1  0
  4 13  1  0
  4 14  1  0
  5 15  1  0
  5 16  1  0
  6 17  1  1
  7 18  1  0
  7 19  1  0
  8 20  1  0
  9 21  1  0
 10 22  1  0
 10 23  1  0
 11 24  1  1
M  END
$$$$

     RDKit          3D

 24 25  0  0  0  0  0  0  0  0999 V2000
   -0.4684    2.9557    0.2597 O   0  0  0  0  0  0  0  0  0  0  0  0
   -0.7050    1.7246    0.3618 C   0  0  0  0  0  0  0  0  0  0  0  0
   -2.0214    1.2471    0.4861 N   0  0  0  0  0  0  0  0  0  0  0  0
   -2.2295   -0.1336    0.0983 C   0  0  0  0  0  0  0  0  0  0  0  0
   -1.2603   -1.0396    0.7959 C   0  0  0  0  0  0  0  0  0  0  0  0
    0.1554   -0.5923    0.7814 C   0  0  1  0  0  0  0  0  0  0  0  0
    0.9934   -1.5418   -0.0628 C   0  0  0  0  0  0  0  0  0  0  0  0
    2.2894   -0.9865   -0.3279 N   0  0  0  0  0  0  0  0  0  0  0  0
    2.2439    0.1250   -1.1624 N   0  0  0  0  0  0  0  0  0  0  0  0
    1.0110    0.8596   -1.0693 C   0  0  0  0  0  0  0  0  0  0  0  0
    0.4231    0.7977    0.3485 C   0  0  1  0  0  0  0  0  0  0  0  0
   -2.8008    1.8661    0.8412 H   0  0  0  0  0  0  0  0  0  0  0  0
   -3.2613   -0.3946    0.4125 H   0  0  0  0  0  0  0  0  0  0  0  0
   -2.2041   -0.1956   -0.9962 H   0  0  0  0  0  0  0  0  0  0  0  0
   -1.6529   -1.1934    1.8347 H   0  0  0  0  0  0  0  0  0  0  0  0
   -1.3427   -2.0325    0.3052 H   0  0  0  0  0  0  0  0  0  0  0  0
    0.5546   -0.7170    1.8132 H   0  0  0  0  0  0  0  0  0  0  0  0
    1.1295   -2.4673    0.5322 H   0  0  0  0  0  0  0  0  0  0  0  0
    0.4858   -1.8040   -1.0095 H   0  0  0  0  0  0  0  0  0  0  0  0
    2.8586   -0.8630    0.5202 H   0  0  0  0  0  0  0  0  0  0  0  0
    3.0863    0.7266   -1.0751 H   0  0  0  0  0  0  0  0  0  0  0  0
    1.2328    1.9200   -1.3049 H   0  0  0  0  0  0  0  0  0  0  0  0
    0.2559    0.4687   -1.7722 H   0  0  0  0  0  0  0  0  0  0  0  0
    1.2268    1.2699    0.9908 H   0  0  0  0  0  0  0  0  0  0  0  0
  1  2  2  0
  2  3  1  0
  3  4  1  0
  4  5  1  0
  5  6  1  0
  6  7  1  0
  7  8  1  0
  8  9  1  0
  9 10  1  0
 10 11  1  0
 11  2  1  0
 11  6  1  0
  3 12  1  0
  4 13  1  0
  4 14  1  0
  5 15  1  0
  5 16  1  0
  6 17  1  1
  7 18  1  0
  7 19  1  0
  8 20  1  0
  9 21  1  0
 10 22  1  0
 10 23  1  0
 11 24  1  1
M  END
$$$$

     RDKit          3D

 24 25  0  0  0  0  0  0  0  0999 V2000
   -0.5145    2.8947    0.3717 O   0  0  0  0  0  0  0  0  0  0  0  0
   -0.7685    1.6731    0.3761 C   0  0  0  0  0  0  0  0  0  0  0  0
   -2.1266    1.2810    0.2874 N   0  0  0  0  0  0  0  0  0  0  0  0
   -2.4275   -0.1361    0.2976 C   0  0  0  0  0  0  0  0  0  0  0  0
   -1.3066   -0.8082   -0.5066 C   0  0  0  0  0  0  0  0  0  0  0  0
   -0.0395   -0.7071    0.3189 C   0  0  1  0  0  0  0  0  0  0  0  0
    1.0100   -1.5631   -0.3245 C   0  0  0  0  0  0  0  0  0  0  0  0
    2.3352   -1.0907   -0.2042 N   0  0  0  0  0  0  0  0  0  0  0  0
    2.5479    0.2449   -0.3120 N   0  0  0  0  0  0  0  0  0  0  0  0
    1.3865    1.0447   -0.5891 C   0  0  0  0  0  0  0  0  0  0  0  0
    0.3515    0.7242    0.4724 C   0  0  1  0  0  0  0  0  0  0  0  0
   -2.8747    1.9976    0.2177 H   0  0  0  0  0  0  0  0  0  0  0  0
   -2.3286   -0.4911    1.3449 H   0  0  0  0  0  0  0  0  0  0  0  0
   -3.4143   -0.3692   -0.1170 H   0  0  0  0  0  0  0  0  0  0  0  0
   -1.1987   -0.2653   -1.4726 H   0  0  0  0  0  0  0  0  0  0  0  0
   -1.6297   -1.8534   -0.6487 H   0  0  0  0  0  0  0  0  0  0  0  0
   -0.3161   -1.1062    1.3383 H   0  0  0  0  0  0  0  0  0  0  0  0
    0.9551   -2.5698    0.1858 H   0  0  0  0  0  0  0  0  0  0  0  0
    0.7406   -1.7746   -1.3832 H   0  0  0  0  0  0  0  0  0  0  0  0
    2.9388   -1.5916    0.4702 H   0  0  0  0  0  0  0  0  0  0  0  0
    3.1208    0.6524    0.4817 H   0  0  0  0  0  0  0  0  0  0  0  0
    1.0206    0.8605   -1.6059 H   0  0  0  0  0  0  0  0  0  0  0  0
    1.6837    2.1103   -0.4567 H   0  0  0  0  0  0  0  0  0  0  0  0
    0.8545    0.8429    1.4578 H   0  0  0  0  0  0  0  0  0  0  0  0
  1  2  2  0
  2  3  1  0
  3  4  1  0
  4  5  1  0
  5  6  1  0
  6  7  1  0
  7  8  1  0
  8  9  1  0
  9 10  1  0
 10 11  1  0
 11  2  1  0
 11  6  1  0
  3 12  1  0
  4 13  1  0
  4 14  1  0
  5 15  1  0
  5 16  1  0
  6 17  1  1
  7 18  1  0
  7 19  1  0
  8 20  1  0
  9 21  1  0
 10 22  1  0
 10 23  1  0
 11 24  1  1
M  END
$$$$
