
     RDKit          3D

 25 26  0  0  0  0  0  0  0  0999 V2000
   -0.7112    1.1584    1.6001 C   0  0  0  0  0  0  0  0  0  0  0  0
   -0.4457    0.8242    0.1440 C   0  0  2  0  0  0  0  0  0  0  0  0
   -1.7337    0.8609   -0.6608 C   0  0  0  0  0  0  0  0  0  0  0  0
   -2.0448   -0.5485   -1.0561 C   0  0  2  0  0  0  0  0  0  0  0  0
   -3.3736   -0.8630   -0.7819 O   0  0  0  0  0  0  0  0  0  0  0  0
   -1.1896   -1.3511   -0.1133 C   0  0  0  0  0  0  0  0  0  0  0  0
    0.0008   -0.5318   -0.0100 N   0  0  0  0  0  0  0  0  0  0  0  0
    1.3243   -1.0167   -0.0569 C   0  0  0  0  0  0  0  0  0  0  0  0
    1.5502   -2.2657   -0.2050 O   0  0  0  0  0  0  0  0  0  0  0  0
    2.4718   -0.1438    0.0582 C   0  0  0  0  0  0  0  0  0  0  0  0
    2.5032    1.1963    0.2256 N   0  0  0  0  0  0  0  0  0  0  0  0
    3.7456    1.6090    0.2871 N   0  0  0  0  0  0  0  0  0  0  0  0
    4.5359    0.5585    0.1624 N   0  0  0  0  0  0  0  0  0  0  0  0
    3.7812   -0.5152    0.0224 N   0  0  0  0  0  0  0  0  0  0  0  0
   -0.3747    0.3230    2.2625 H   0  0  0  0  0  0  0  0  0  0  0  0
   -1.8027    1.3700    1.7727 H   0  0  0  0  0  0  0  0  0  0  0  0
   -0.1550    2.0695    1.8990 H   0  0  0  0  0  0  0  0  0  0  0  0
    0.2533    1.5890   -0.2629 H   0  0  0  0  0  0  0  0  0  0  0  0
   -1.5444    1.4296   -1.6165 H   0  0  0  0  0  0  0  0  0  0  0  0
   -2.5623    1.3437   -0.1083 H   0  0  0  0  0  0  0  0  0  0  0  0
   -1.7517   -0.7930   -2.0881 H   0  0  0  0  0  0  0  0  0  0  0  0
   -3.8927   -0.9539   -1.6288 H   0  0  0  0  0  0  0  0  0  0  0  0
   -1.6776   -1.5120    0.8563 H   0  0  0  0  0  0  0  0  0  0  0  0
   -0.9846   -2.3252   -0.6020 H   0  0  0  0  0  0  0  0  0  0  0  0
    4.0781   -1.5121   -0.0996 H   0  0  0  0  0  0  0  0  0  0  0  0
  1  2  1  0
  2  3  1  0
  3  4  1  0
  4  5  1  0
  4  6  1  0
  6  7  1  0
  7  8  1  0
  8  9  2  0
  8 10  1  0
 10 11  2  0
 11 12  1  0
 12 13  2  0
 13 14  1  0
  7  2  1  0
 14 10  1  0
  1 15  1  0
  1 16  1  0
  1 17  1  0
  2 18  1  6
  3 19  1  0
  3 20  1  0
  4 21  1  6
  5 22  1  0
  6 23  1  0
  6 24  1  0
 14 25  1  0
M  END
$$$$

     RDKit          3D

 25 26  0  0  0  0  0  0  0  0999 V2000
   -1.3153    2.1895    0.5739 C   0  0  0  0  0  0  0  0  0  0  0  0
   -1.4346    0.8175    0.0073 C   0  0  2  0  0  0  0  0  0  0  0  0
   -2.0004   -0.1942    0.9628 C   0  0  0  0  0  0  0  0  0  0  0  0
   -1.6505   -1.4916    0.2606 C   0  0  2  0  0  0  0  0  0  0  0  0
   -1.2101   -2.4616    1.1325 O   0  0  0  0  0  0  0  0  0  0  0  0
   -0.5491   -1.1207   -0.7440 C   0  0  0  0  0  0  0  0  0  0  0  0
   -0.1459    0.2076   -0.2954 N   0  0  0  0  0  0  0  0  0  0  0  0
    1.1419    0.7715   -0.1795 C   0  0  0  0  0  0  0  0  0  0  0  0
    1.2393    1.9518    0.2376 O   0  0  0  0  0  0  0  0  0  0  0  0
    2.3643    0.0652   -0.5152 C   0  0  0  0  0  0  0  0  0  0  0  0
    2.5058   -1.2054   -0.9822 N   0  0  0  0  0  0  0  0  0  0  0  0
    3.7849   -1.4757   -1.1654 N   0  0  0  0  0  0  0  0  0  0  0  0
    4.4642   -0.4012   -0.8241 N   0  0  0  0  0  0  0  0  0  0  0  0
    3.6320    0.5307   -0.4327 N   0  0  0  0  0  0  0  0  0  0  0  0
   -0.8921    2.8479   -0.2076 H   0  0  0  0  0  0  0  0  0  0  0  0
   -0.7136    2.2464    1.4876 H   0  0  0  0  0  0  0  0  0  0  0  0
   -2.3393    2.5612    0.7735 H   0  0  0  0  0  0  0  0  0  0  0  0
   -2.0317    0.8322   -0.9047 H   0  0  0  0  0  0  0  0  0  0  0  0
   -1.4106   -0.2013    1.9202 H   0  0  0  0  0  0  0  0  0  0  0  0
   -3.0818   -0.0893    1.1361 H   0  0  0  0  0  0  0  0  0  0  0  0
   -2.5684   -1.8309   -0.2656 H   0  0  0  0  0  0  0  0  0  0  0  0
   -0.8801   -3.2192    0.6093 H   0  0  0  0  0  0  0  0  0  0  0  0
   -1.0606   -0.9696   -1.7172 H   0  0  0  0  0  0  0  0  0  0  0  0
    0.2445   -1.8583   -0.7646 H   0  0  0  0  0  0  0  0  0  0  0  0
    3.9068    1.4976   -0.1030 H   0  0  0  0  0  0  0  0  0  0  0  0
  1  2  1  0
  2  3  1  0
  3  4  1  0
  4  5  1  0
  4  6  1  0
  6  7  1  0
  7  8  1  0
  8  9  2  0
  8 10  1  0
 10 11  2  0
 11 12  1  0
 12 13  2  0
 13 14  1  0
  7  2  1  0
 14 10  1  0
  1 15  1  0
  1 16  1  0
  1 17  1  0
  2 18  1  6
  3 19  1  0
  3 20  1  0
  4 21  1  6
  5 22  1  0
  6 23  1  0
  6 24  1  0
 14 25  1  0
M  END
$$$$

     RDKit          3D

 25 26  0  0  0  0  0  0  0  0999 V2000
   -1.4157   -2.1602   -0.1760 C   0  0  0  0  0  0  0  0  0  0  0  0
   -1.2067   -0.8577    0.5585 C   0  0  2  0  0  0  0  0  0  0  0  0
   -2.2640    0.1015    0.1063 C   0  0  0  0  0  0  0  0  0  0  0  0
   -1.6445    1.4563    0.3681 C   0  0  2  0  0  0  0  0  0  0  0  0
   -2.0661    2.3512   -0.5891 O   0  0  0  0  0  0  0  0  0  0  0  0
   -0.1740    1.1985    0.2949 C   0  0  0  0  0  0  0  0  0  0  0  0
    0.0424   -0.2320    0.2754 N   0  0  0  0  0  0  0  0  0  0  0  0
    1.3051   -0.8235    0.0151 C   0  0  0  0  0  0  0  0  0  0  0  0
    1.3776   -2.0892    0.0214 O   0  0  0  0  0  0  0  0  0  0  0  0
    2.5062   -0.0426   -0.2554 C   0  0  0  0  0  0  0  0  0  0  0  0
    2.5980    1.2973   -0.2956 N   0  0  0  0  0  0  0  0  0  0  0  0
    3.8459    1.6317   -0.5681 N   0  0  0  0  0  0  0  0  0  0  0  0
    4.5182    0.5117   -0.6950 N   0  0  0  0  0  0  0  0  0  0  0  0
    3.7214   -0.5265   -0.5084 N   0  0  0  0  0  0  0  0  0  0  0  0
   -2.4908   -2.4480    0.0135 H   0  0  0  0  0  0  0  0  0  0  0  0
   -0.7807   -2.9737    0.1717 H   0  0  0  0  0  0  0  0  0  0  0  0
   -1.3483   -2.0133   -1.2796 H   0  0  0  0  0  0  0  0  0  0  0  0
   -1.2655   -1.0894    1.6411 H   0  0  0  0  0  0  0  0  0  0  0  0
   -3.2059   -0.0441    0.6801 H   0  0  0  0  0  0  0  0  0  0  0  0
   -2.4349   -0.0441   -0.9683 H   0  0  0  0  0  0  0  0  0  0  0  0
   -1.9747    1.8261    1.3510 H   0  0  0  0  0  0  0  0  0  0  0  0
   -2.1702    3.2707   -0.2074 H   0  0  0  0  0  0  0  0  0  0  0  0
    0.2997    1.5912    1.2019 H   0  0  0  0  0  0  0  0  0  0  0  0
    0.2784    1.6517   -0.6145 H   0  0  0  0  0  0  0  0  0  0  0  0
    3.9489   -1.5437   -0.5416 H   0  0  0  0  0  0  0  0  0  0  0  0
  1  2  1  0
  2  3  1  0
  3  4  1  0
  4  5  1  0
  4  6  1  0
  6  7  1  0
  7  8  1  0
  8  9  2  0
  8 10  1  0
 10 11  2  0
 11 12  1  0
 12 13  2  0
 13 14  1  0
  7  2  1  0
 14 10  1  0
  1 15  1  0
  1 16  1  0
  1 17  1  0
  2 18  1  1
  3 19  1  0
  3 20  1  0
  4 21  1  1
  5 22  1  0
  6 23  1  0
  6 24  1  0
 14 25  1  0
M  END
$$$$

     RDKit          3D

 25 26  0  0  0  0  0  0  0  0999 V2000
   -0.4165    1.5480    1.2010 C   0  0  0  0  0  0  0  0  0  0  0  0
   -0.5168    0.7420   -0.0955 C   0  0  2  0  0  0  0  0  0  0  0  0
   -2.0270    0.5447   -0.3973 C   0  0  0  0  0  0  0  0  0  0  0  0
   -2.0253   -0.8984   -0.8675 C   0  0  2  0  0  0  0  0  0  0  0  0
   -3.2748   -1.4627   -0.8585 O   0  0  0  0  0  0  0  0  0  0  0  0
   -1.0948   -1.4790    0.1777 C   0  0  0  0  0  0  0  0  0  0  0  0
    0.0457   -0.5537    0.0248 N   0  0  0  0  0  0  0  0  0  0  0  0
    1.3602   -1.0249    0.0163 C   0  0  0  0  0  0  0  0  0  0  0  0
    1.5843   -2.3020    0.1348 O   0  0  0  0  0  0  0  0  0  0  0  0
    2.5799   -0.2530   -0.1124 C   0  0  0  0  0  0  0  0  0  0  0  0
    3.8555   -0.7521   -0.1318 N   0  0  0  0  0  0  0  0  0  0  0  0
    4.7110    0.2387   -0.2660 N   0  0  0  0  0  0  0  0  0  0  0  0
    4.0036    1.3459   -0.3311 N   0  0  0  0  0  0  0  0  0  0  0  0
    2.7049    1.0553   -0.2383 N   0  0  0  0  0  0  0  0  0  0  0  0
   -0.6116    2.5990    0.9517 H   0  0  0  0  0  0  0  0  0  0  0  0
    0.5817    1.4340    1.6340 H   0  0  0  0  0  0  0  0  0  0  0  0
   -1.1830    1.1811    1.9394 H   0  0  0  0  0  0  0  0  0  0  0  0
   -0.1254    1.3720   -0.9180 H   0  0  0  0  0  0  0  0  0  0  0  0
   -2.3900    1.2570   -1.1308 H   0  0  0  0  0  0  0  0  0  0  0  0
   -2.6050    0.6358    0.5389 H   0  0  0  0  0  0  0  0  0  0  0  0
   -1.5198   -0.9291   -1.8577 H   0  0  0  0  0  0  0  0  0  0  0  0
   -3.2280   -2.2844   -0.2994 H   0  0  0  0  0  0  0  0  0  0  0  0
   -1.5784   -1.2936    1.1630 H   0  0  0  0  0  0  0  0  0  0  0  0
   -0.8313   -2.5164   -0.0100 H   0  0  0  0  0  0  0  0  0  0  0  0
    2.0011    1.7958   -0.2672 H   0  0  0  0  0  0  0  0  0  0  0  0
  1  2  1  0
  2  3  1  0
  3  4  1  0
  4  5  1  0
  4  6  1  0
  6  7  1  0
  7  8  1  0
  8  9  2  0
  8 10  1  0
 10 11  2  0
 11 12  1  0
 12 13  2  0
 13 14  1  0
  7  2  1  0
 14 10  1  0
  1 15  1  0
  1 16  1  0
  1 17  1  0
  2 18  1  6
  3 19  1  0
  3 20  1  0
  4 21  1  6
  5 22  1  0
  6 23  1  0
  6 24  1  0
 14 25  1  0
M  END
$$$$

     RDKit          3D

 25 26  0  0  0  0  0  0  0  0999 V2000
   -0.9497    2.2306    0.8635 C   0  0  0  0  0  0  0  0  0  0  0  0
   -1.1351    1.0526   -0.0420 C   0  0  2  0  0  0  0  0  0  0  0  0
   -2.1113    0.0338    0.5252 C   0  0  0  0  0  0  0  0  0  0  0  0
   -1.9052   -1.0526   -0.5412 C   0  0  2  0  0  0  0  0  0  0  0  0
   -2.4407   -2.2563   -0.1689 O   0  0  0  0  0  0  0  0  0  0  0  0
   -0.3836   -1.0745   -0.6030 C   0  0  0  0  0  0  0  0  0  0  0  0
    0.0476    0.2371   -0.1779 N   0  0  0  0  0  0  0  0  0  0  0  0
    1.3837    0.6273    0.0554 C   0  0  0  0  0  0  0  0  0  0  0  0
    1.6547    1.8009    0.4257 O   0  0  0  0  0  0  0  0  0  0  0  0
    2.4815   -0.3117   -0.1246 C   0  0  0  0  0  0  0  0  0  0  0  0
    2.3577   -1.5883   -0.5122 N   0  0  0  0  0  0  0  0  0  0  0  0
    3.5470   -2.1615   -0.5762 N   0  0  0  0  0  0  0  0  0  0  0  0
    4.4319   -1.2211   -0.2205 N   0  0  0  0  0  0  0  0  0  0  0  0
    3.7894   -0.1028    0.0527 N   0  0  0  0  0  0  0  0  0  0  0  0
   -1.9490    2.6872    1.0243 H   0  0  0  0  0  0  0  0  0  0  0  0
   -0.5202    1.9732    1.8271 H   0  0  0  0  0  0  0  0  0  0  0  0
   -0.3572    2.9866    0.3002 H   0  0  0  0  0  0  0  0  0  0  0  0
   -1.5292    1.3512   -1.0234 H   0  0  0  0  0  0  0  0  0  0  0  0
   -1.7609   -0.3678    1.5061 H   0  0  0  0  0  0  0  0  0  0  0  0
   -3.1368    0.3918    0.5442 H   0  0  0  0  0  0  0  0  0  0  0  0
   -2.2965   -0.6323   -1.4777 H   0  0  0  0  0  0  0  0  0  0  0  0
   -3.4026   -2.2504   -0.4282 H   0  0  0  0  0  0  0  0  0  0  0  0
   -0.0001   -1.8831    0.0544 H   0  0  0  0  0  0  0  0  0  0  0  0
   -0.0614   -1.2529   -1.6374 H   0  0  0  0  0  0  0  0  0  0  0  0
    4.2460    0.7830    0.3544 H   0  0  0  0  0  0  0  0  0  0  0  0
  1  2  1  0
  2  3  1  0
  3  4  1  0
  4  5  1  0
  4  6  1  0
  6  7  1  0
  7  8  1  0
  8  9  2  0
  8 10  1  0
 10 11  2  0
 11 12  1  0
 12 13  2  0
 13 14  1  0
  7  2  1  0
 14 10  1  0
  1 15  1  0
  1 16  1  0
  1 17  1  0
  2 18  1  6
  3 19  1  0
  3 20  1  0
  4 21  1  6
  5 22  1  0
  6 23  1  0
  6 24  1  0
 14 25  1  0
M  END
$$$$

     RDKit          3D

 25 26  0  0  0  0  0  0  0  0999 V2000
   -1.2691   -1.7471   -1.4723 C   0  0  0  0  0  0  0  0  0  0  0  0
   -1.2790   -0.8775   -0.2594 C   0  0  2  0  0  0  0  0  0  0  0  0
   -2.0832    0.3903   -0.4469 C   0  0  0  0  0  0  0  0  0  0  0  0
   -1.6873    1.0891    0.8623 C   0  0  2  0  0  0  0  0  0  0  0  0
   -2.0444    2.4094    0.8821 O   0  0  0  0  0  0  0  0  0  0  0  0
   -0.1739    0.8807    0.7882 C   0  0  0  0  0  0  0  0  0  0  0  0
    0.0486   -0.3268    0.0398 N   0  0  0  0  0  0  0  0  0  0  0  0
    1.2840   -0.8825   -0.3333 C   0  0  0  0  0  0  0  0  0  0  0  0
    1.2948   -1.9800   -1.0145 O   0  0  0  0  0  0  0  0  0  0  0  0
    2.5836   -0.3246   -0.0167 C   0  0  0  0  0  0  0  0  0  0  0  0
    3.7661   -0.9068   -0.4137 N   0  0  0  0  0  0  0  0  0  0  0  0
    4.7627   -0.1828    0.0129 N   0  0  0  0  0  0  0  0  0  0  0  0
    4.2926    0.8370    0.6648 N   0  0  0  0  0  0  0  0  0  0  0  0
    2.9642    0.7545    0.6493 N   0  0  0  0  0  0  0  0  0  0  0  0
   -0.9063   -2.7523   -1.1648 H   0  0  0  0  0  0  0  0  0  0  0  0
   -2.3264   -1.8798   -1.7989 H   0  0  0  0  0  0  0  0  0  0  0  0
   -0.7032   -1.3214   -2.3212 H   0  0  0  0  0  0  0  0  0  0  0  0
   -1.6342   -1.4321    0.6075 H   0  0  0  0  0  0  0  0  0  0  0  0
   -3.1638    0.2115   -0.4909 H   0  0  0  0  0  0  0  0  0  0  0  0
   -1.6913    1.0069   -1.2643 H   0  0  0  0  0  0  0  0  0  0  0  0
   -2.1162    0.5001    1.6920 H   0  0  0  0  0  0  0  0  0  0  0  0
   -2.7531    2.5100    1.5941 H   0  0  0  0  0  0  0  0  0  0  0  0
    0.2274    1.7876    0.2895 H   0  0  0  0  0  0  0  0  0  0  0  0
    0.2454    0.7764    1.8051 H   0  0  0  0  0  0  0  0  0  0  0  0
    2.3621    1.4601    1.1094 H   0  0  0  0  0  0  0  0  0  0  0  0
  1  2  1  0
  2  3  1  0
  3  4  1  0
  4  5  1  0
  4  6  1  0
  6  7  1  0
  7  8  1  0
  8  9  2  0
  8 10  1  0
 10 11  2  0
 11 12  1  0
 12 13  2  0
 13 14  1  0
  7  2  1  0
 14 10  1  0
  1 15  1  0
  1 16  1  0
  1 17  1  0
  2 18  1  1
  3 19  1  0
  3 20  1  0
  4 21  1  1
  5 22  1  0
  6 23  1  0
  6 24  1  0
 14 25  1  0
M  END
$$$$

     RDKit          3D

 25 26  0  0  0  0  0  0  0  0999 V2000
   -1.1879    2.1310    0.0443 C   0  0  0  0  0  0  0  0  0  0  0  0
   -1.1897    0.8613   -0.7597 C   0  0  2  0  0  0  0  0  0  0  0  0
   -2.2877   -0.0771   -0.3131 C   0  0  0  0  0  0  0  0  0  0  0  0
   -1.6733   -1.4213   -0.6420 C   0  0  2  0  0  0  0  0  0  0  0  0
   -2.3402   -2.3908    0.0902 O   0  0  0  0  0  0  0  0  0  0  0  0
   -0.2553   -1.2547   -0.1656 C   0  0  0  0  0  0  0  0  0  0  0  0
    0.0366    0.1401   -0.4375 N   0  0  0  0  0  0  0  0  0  0  0  0
    1.3179    0.7506   -0.4038 C   0  0  0  0  0  0  0  0  0  0  0  0
    1.4723    1.9719   -0.6557 O   0  0  0  0  0  0  0  0  0  0  0  0
    2.4981   -0.0596   -0.0666 C   0  0  0  0  0  0  0  0  0  0  0  0
    2.5554   -1.3599    0.2315 N   0  0  0  0  0  0  0  0  0  0  0  0
    3.8125   -1.6941    0.4728 N   0  0  0  0  0  0  0  0  0  0  0  0
    4.5683   -0.6134    0.3315 N   0  0  0  0  0  0  0  0  0  0  0  0
    3.7673    0.3803    0.0033 N   0  0  0  0  0  0  0  0  0  0  0  0
   -0.6082    1.9651    0.9868 H   0  0  0  0  0  0  0  0  0  0  0  0
   -2.1998    2.4301    0.3596 H   0  0  0  0  0  0  0  0  0  0  0  0
   -0.6557    2.9323   -0.5097 H   0  0  0  0  0  0  0  0  0  0  0  0
   -1.2942    1.0493   -1.8293 H   0  0  0  0  0  0  0  0  0  0  0  0
   -3.2121    0.0423   -0.9178 H   0  0  0  0  0  0  0  0  0  0  0  0
   -2.4487    0.0226    0.7682 H   0  0  0  0  0  0  0  0  0  0  0  0
   -1.6986   -1.6025   -1.7304 H   0  0  0  0  0  0  0  0  0  0  0  0
   -3.3180   -2.2542    0.0736 H   0  0  0  0  0  0  0  0  0  0  0  0
   -0.1923   -1.3847    0.9315 H   0  0  0  0  0  0  0  0  0  0  0  0
    0.4433   -1.9309   -0.6985 H   0  0  0  0  0  0  0  0  0  0  0  0
    4.0898    1.3663   -0.1742 H   0  0  0  0  0  0  0  0  0  0  0  0
  1  2  1  0
  2  3  1  0
  3  4  1  0
  4  5  1  0
  4  6  1  0
  6  7  1  0
  7  8  1  0
  8  9  2  0
  8 10  1  0
 10 11  2  0
 11 12  1  0
 12 13  2  0
 13 14  1  0
  7  2  1  0
 14 10  1  0
  1 15  1  0
  1 16  1  0
  1 17  1  0
  2 18  1  6
  3 19  1  0
  3 20  1  0
  4 21  1  6
  5 22  1  0
  6 23  1  0
  6 24  1  0
 14 25  1  0
M  END
$$$$

     RDKit          3D

 25 26  0  0  0  0  0  0  0  0999 V2000
   -1.0403   -2.3048    0.6188 C   0  0  0  0  0  0  0  0  0  0  0  0
   -1.1563   -0.8152    0.7700 C   0  0  2  0  0  0  0  0  0  0  0  0
   -2.2092   -0.2682   -0.1983 C   0  0  0  0  0  0  0  0  0  0  0  0
   -1.9023    1.2303   -0.1015 C   0  0  2  0  0  0  0  0  0  0  0  0
   -2.2416    1.8896   -1.2739 O   0  0  0  0  0  0  0  0  0  0  0  0
   -0.3916    1.2582    0.0959 C   0  0  0  0  0  0  0  0  0  0  0  0
    0.0145   -0.0960    0.3632 N   0  0  0  0  0  0  0  0  0  0  0  0
    1.3288   -0.5841    0.2366 C   0  0  0  0  0  0  0  0  0  0  0  0
    1.5296   -1.8047    0.5091 O   0  0  0  0  0  0  0  0  0  0  0  0
    2.4515    0.2219   -0.1830 C   0  0  0  0  0  0  0  0  0  0  0  0
    2.4776    1.5282   -0.5205 N   0  0  0  0  0  0  0  0  0  0  0  0
    3.7097    1.8946   -0.8490 N   0  0  0  0  0  0  0  0  0  0  0  0
    4.4751    0.8268   -0.7233 N   0  0  0  0  0  0  0  0  0  0  0  0
    3.7164   -0.1981   -0.3175 N   0  0  0  0  0  0  0  0  0  0  0  0
   -0.6228   -2.8082    1.4887 H   0  0  0  0  0  0  0  0  0  0  0  0
   -0.5266   -2.5297   -0.3337 H   0  0  0  0  0  0  0  0  0  0  0  0
   -2.0932   -2.6892    0.4798 H   0  0  0  0  0  0  0  0  0  0  0  0
   -1.4727   -0.5017    1.7755 H   0  0  0  0  0  0  0  0  0  0  0  0
   -2.0104   -0.6508   -1.2162 H   0  0  0  0  0  0  0  0  0  0  0  0
   -3.1999   -0.5042    0.1856 H   0  0  0  0  0  0  0  0  0  0  0  0
   -2.4445    1.6450    0.7582 H   0  0  0  0  0  0  0  0  0  0  0  0
   -2.4613    2.8389   -1.0109 H   0  0  0  0  0  0  0  0  0  0  0  0
   -0.1859    1.8678    1.0122 H   0  0  0  0  0  0  0  0  0  0  0  0
    0.1188    1.6938   -0.7866 H   0  0  0  0  0  0  0  0  0  0  0  0
    4.1366   -1.1401   -0.1579 H   0  0  0  0  0  0  0  0  0  0  0  0
  1  2  1  0
  2  3  1  0
  3  4  1  0
  4  5  1  0
  4  6  1  0
  6  7  1  0
  7  8  1  0
  8  9  2  0
  8 10  1  0
 10 11  2  0
 11 12  1  0
 12 13  2  0
 13 14  1  0
  7  2  1  0
 14 10  1  0
  1 15  1  0
  1 16  1  0
  1 17  1  0
  2 18  1  1
  3 19  1  0
  3 20  1  0
  4 21  1  1
  5 22  1  0
  6 23  1  0
  6 24  1  0
 14 25  1  0
M  END
$$$$
