
     RDKit          3D

 22 21  0  0  0  0  0  0  0  0999 V2000
   -4.6555   -0.7628    0.1427 C   0  0  0  0  0  0  0  0  0  0  0  0
   -3.3551   -0.6562   -0.4937 N   0  0  0  0  0  0  0  0  0  0  0  0
   -2.2445   -0.3419    0.3398 C   0  0  0  0  0  0  0  0  0  0  0  0
   -2.3973   -0.1648    1.5845 O   0  0  0  0  0  0  0  0  0  0  0  0
   -0.9247   -0.2124   -0.1745 N   0  0  0  0  0  0  0  0  0  0  0  0
    0.1694    0.1094    0.7216 C   0  0  0  0  0  0  0  0  0  0  0  0
    1.4420    0.1934   -0.0267 C   0  0  0  0  0  0  0  0  0  0  0  0
    1.4256   -0.0112   -1.2719 O   0  0  0  0  0  0  0  0  0  0  0  0
    2.6746    0.4971    0.6197 N   0  0  0  0  0  0  0  0  0  0  0  0
    3.8548    0.5635   -0.1452 C   0  0  0  0  0  0  0  0  0  0  0  0
    5.0988    0.8638    0.4691 N   0  0  0  0  0  0  0  0  0  0  0  0
    3.7779    0.3505   -1.3824 O   0  0  0  0  0  0  0  0  0  0  0  0
   -5.4826   -0.6903   -0.5719 H   0  0  0  0  0  0  0  0  0  0  0  0
   -4.6768   -1.7134    0.7293 H   0  0  0  0  0  0  0  0  0  0  0  0
   -4.7137    0.1098    0.8545 H   0  0  0  0  0  0  0  0  0  0  0  0
   -3.2207   -0.8006   -1.5185 H   0  0  0  0  0  0  0  0  0  0  0  0
   -0.7657   -0.3545   -1.2096 H   0  0  0  0  0  0  0  0  0  0  0  0
    0.1978   -0.6908    1.4881 H   0  0  0  0  0  0  0  0  0  0  0  0
   -0.0001    1.1114    1.1814 H   0  0  0  0  0  0  0  0  0  0  0  0
    2.7236    0.6718    1.6480 H   0  0  0  0  0  0  0  0  0  0  0  0
    5.5791    1.7321    0.2196 H   0  0  0  0  0  0  0  0  0  0  0  0
    5.4929    0.1961    1.1573 H   0  0  0  0  0  0  0  0  0  0  0  0
  1  2  1  0
  2  3  1  0
  3  4  2  0
  3  5  1  0
  5  6  1  0
  6  7  1  0
  7  8  2  0
  7  9  1  0
  9 10  1  0
 10 11  1  0
 10 12  2  0
  1 13  1  0
  1 14  1  0
  1 15  1  0
  2 16  1  0
  5 17  1  0
  6 18  1  0
  6 19  1  0
  9 20  1  0
 11 21  1  0
 11 22  1  0
M  END
$$$$

     RDKit          3D

 22 21  0  0  0  0  0  0  0  0999 V2000
   -4.0958    0.9439    0.0256 C   0  0  0  0  0  0  0  0  0  0  0  0
   -3.2063   -0.0597   -0.5282 N   0  0  0  0  0  0  0  0  0  0  0  0
   -1.9008   -0.2577    0.0119 C   0  0  0  0  0  0  0  0  0  0  0  0
   -1.4723    0.4237    0.9812 O   0  0  0  0  0  0  0  0  0  0  0  0
   -1.0110   -1.2417   -0.5209 N   0  0  0  0  0  0  0  0  0  0  0  0
    0.3172   -1.4505    0.0208 C   0  0  0  0  0  0  0  0  0  0  0  0
    1.1554   -0.2506   -0.0601 C   0  0  0  0  0  0  0  0  0  0  0  0
    0.6913    0.8050   -0.5614 O   0  0  0  0  0  0  0  0  0  0  0  0
    2.4885   -0.2937    0.4308 N   0  0  0  0  0  0  0  0  0  0  0  0
    3.3104    0.8791    0.3527 C   0  0  0  0  0  0  0  0  0  0  0  0
    4.6459    0.8603    0.8368 N   0  0  0  0  0  0  0  0  0  0  0  0
    2.8083    1.9150   -0.1560 O   0  0  0  0  0  0  0  0  0  0  0  0
   -3.6960    1.2830    1.0248 H   0  0  0  0  0  0  0  0  0  0  0  0
   -5.1007    0.5325    0.2441 H   0  0  0  0  0  0  0  0  0  0  0  0
   -4.1452    1.8546   -0.5918 H   0  0  0  0  0  0  0  0  0  0  0  0
   -3.5512   -0.6292   -1.3308 H   0  0  0  0  0  0  0  0  0  0  0  0
   -1.3853   -1.7985   -1.3269 H   0  0  0  0  0  0  0  0  0  0  0  0
    0.7724   -2.3036   -0.5093 H   0  0  0  0  0  0  0  0  0  0  0  0
    0.2048   -1.7963    1.0905 H   0  0  0  0  0  0  0  0  0  0  0  0
    2.9146   -1.1465    0.8541 H   0  0  0  0  0  0  0  0  0  0  0  0
    4.8100    1.2419    1.7950 H   0  0  0  0  0  0  0  0  0  0  0  0
    5.4459    0.4891    0.2845 H   0  0  0  0  0  0  0  0  0  0  0  0
  1  2  1  0
  2  3  1  0
  3  4  2  0
  3  5  1  0
  5  6  1  0
  6  7  1  0
  7  8  2  0
  7  9  1  0
  9 10  1  0
 10 11  1  0
 10 12  2  0
  1 13  1  0
  1 14  1  0
  1 15  1  0
  2 16  1  0
  5 17  1  0
  6 18  1  0
  6 19  1  0
  9 20  1  0
 11 21  1  0
 11 22  1  0
M  END
$$$$

     RDKit          3D

 22 21  0  0  0  0  0  0  0  0999 V2000
   -4.0799    0.6049   -0.2974 C   0  0  0  0  0  0  0  0  0  0  0  0
   -3.1529   -0.2813    0.3612 N   0  0  0  0  0  0  0  0  0  0  0  0
   -1.8028   -0.4727   -0.0916 C   0  0  0  0  0  0  0  0  0  0  0  0
   -1.4521    0.1785   -1.1097 O   0  0  0  0  0  0  0  0  0  0  0  0
   -0.9195   -1.3566    0.5866 N   0  0  0  0  0  0  0  0  0  0  0  0
    0.4399   -1.5445    0.1245 C   0  0  0  0  0  0  0  0  0  0  0  0
    1.1190   -0.2294    0.1696 C   0  0  0  0  0  0  0  0  0  0  0  0
    0.5056    0.7838    0.5601 O   0  0  0  0  0  0  0  0  0  0  0  0
    2.4851   -0.0741   -0.2274 N   0  0  0  0  0  0  0  0  0  0  0  0
    3.1022    1.2189   -0.1671 C   0  0  0  0  0  0  0  0  0  0  0  0
    4.4636    1.3630   -0.5649 N   0  0  0  0  0  0  0  0  0  0  0  0
    2.4515    2.2280    0.2342 O   0  0  0  0  0  0  0  0  0  0  0  0
   -4.0803    1.5661    0.2778 H   0  0  0  0  0  0  0  0  0  0  0  0
   -3.7152    0.8650   -1.3096 H   0  0  0  0  0  0  0  0  0  0  0  0
   -5.0868    0.1839   -0.4174 H   0  0  0  0  0  0  0  0  0  0  0  0
   -3.4307   -0.8270    1.2060 H   0  0  0  0  0  0  0  0  0  0  0  0
   -1.2169   -1.8926    1.4292 H   0  0  0  0  0  0  0  0  0  0  0  0
    0.9769   -2.2908    0.7522 H   0  0  0  0  0  0  0  0  0  0  0  0
    0.4063   -1.9087   -0.9383 H   0  0  0  0  0  0  0  0  0  0  0  0
    2.9948   -0.9275   -0.5541 H   0  0  0  0  0  0  0  0  0  0  0  0
    4.8377    2.2153   -1.0374 H   0  0  0  0  0  0  0  0  0  0  0  0
    5.1546    0.5979   -0.3920 H   0  0  0  0  0  0  0  0  0  0  0  0
  1  2  1  0
  2  3  1  0
  3  4  2  0
  3  5  1  0
  5  6  1  0
  6  7  1  0
  7  8  2  0
  7  9  1  0
  9 10  1  0
 10 11  1  0
 10 12  2  0
  1 13  1  0
  1 14  1  0
  1 15  1  0
  2 16  1  0
  5 17  1  0
  6 18  1  0
  6 19  1  0
  9 20  1  0
 11 21  1  0
 11 22  1  0
M  END
$$$$

     RDKit          3D

 22 21  0  0  0  0  0  0  0  0999 V2000
    4.0361   -1.0937   -0.6117 C   0  0  0  0  0  0  0  0  0  0  0  0
    3.2644    0.0438   -0.2056 N   0  0  0  0  0  0  0  0  0  0  0  0
    1.9008   -0.0272    0.2204 C   0  0  0  0  0  0  0  0  0  0  0  0
    1.3766   -1.1932    0.2247 O   0  0  0  0  0  0  0  0  0  0  0  0
    1.1670    1.1148    0.6150 N   0  0  0  0  0  0  0  0  0  0  0  0
   -0.2058    1.0296    1.0420 C   0  0  0  0  0  0  0  0  0  0  0  0
   -1.0978    0.4831    0.0138 C   0  0  0  0  0  0  0  0  0  0  0  0
   -0.6532    0.1410   -1.1072 O   0  0  0  0  0  0  0  0  0  0  0  0
   -2.4847    0.3315    0.2710 N   0  0  0  0  0  0  0  0  0  0  0  0
   -3.4131   -0.1859   -0.6628 C   0  0  0  0  0  0  0  0  0  0  0  0
   -4.7767   -0.3054   -0.3314 N   0  0  0  0  0  0  0  0  0  0  0  0
   -2.9983   -0.5406   -1.8031 O   0  0  0  0  0  0  0  0  0  0  0  0
    3.3634   -1.9168   -0.8870 H   0  0  0  0  0  0  0  0  0  0  0  0
    4.6486   -0.8292   -1.5121 H   0  0  0  0  0  0  0  0  0  0  0  0
    4.7852   -1.3862    0.1645 H   0  0  0  0  0  0  0  0  0  0  0  0
    3.6751    1.0240   -0.1996 H   0  0  0  0  0  0  0  0  0  0  0  0
    1.6275    2.0383    0.5971 H   0  0  0  0  0  0  0  0  0  0  0  0
   -0.1958    0.3885    1.9707 H   0  0  0  0  0  0  0  0  0  0  0  0
   -0.5673    2.0198    1.4007 H   0  0  0  0  0  0  0  0  0  0  0  0
   -2.8683    0.6157    1.2092 H   0  0  0  0  0  0  0  0  0  0  0  0
   -5.0742   -0.7304    0.5699 H   0  0  0  0  0  0  0  0  0  0  0  0
   -5.5096    0.0274   -0.9782 H   0  0  0  0  0  0  0  0  0  0  0  0
  1  2  1  0
  2  3  1  0
  3  4  2  0
  3  5  1  0
  5  6  1  0
  6  7  1  0
  7  8  2  0
  7  9  1  0
  9 10  1  0
 10 11  1  0
 10 12  2  0
  1 13  1  0
  1 14  1  0
  1 15  1  0
  2 16  1  0
  5 17  1  0
  6 18  1  0
  6 19  1  0
  9 20  1  0
 11 21  1  0
 11 22  1  0
M  END
$$$$

     RDKit          3D

 22 21  0  0  0  0  0  0  0  0999 V2000
    4.2288    0.9782   -0.4230 C   0  0  0  0  0  0  0  0  0  0  0  0
    2.7900    0.9523   -0.4725 N   0  0  0  0  0  0  0  0  0  0  0  0
    2.0650   -0.2392   -0.1688 C   0  0  0  0  0  0  0  0  0  0  0  0
    2.6474   -1.3010    0.1502 O   0  0  0  0  0  0  0  0  0  0  0  0
    0.6248   -0.2459   -0.2237 N   0  0  0  0  0  0  0  0  0  0  0  0
   -0.0688   -1.4625    0.0882 C   0  0  0  0  0  0  0  0  0  0  0  0
   -1.5113   -1.2986   -0.0143 C   0  0  0  0  0  0  0  0  0  0  0  0
   -2.2196   -2.3404    0.2483 O   0  0  0  0  0  0  0  0  0  0  0  0
   -2.1732   -0.1047   -0.3733 N   0  0  0  0  0  0  0  0  0  0  0  0
   -3.6201   -0.0862   -0.4355 C   0  0  0  0  0  0  0  0  0  0  0  0
   -4.3067    1.1040   -0.7945 N   0  0  0  0  0  0  0  0  0  0  0  0
   -4.2367   -1.1429   -0.1652 O   0  0  0  0  0  0  0  0  0  0  0  0
    4.5466    1.6667    0.3964 H   0  0  0  0  0  0  0  0  0  0  0  0
    4.5835    1.3294   -1.4149 H   0  0  0  0  0  0  0  0  0  0  0  0
    4.6225   -0.0558   -0.2271 H   0  0  0  0  0  0  0  0  0  0  0  0
    2.3007    1.8478   -0.7414 H   0  0  0  0  0  0  0  0  0  0  0  0
    0.1906    0.6418   -0.4883 H   0  0  0  0  0  0  0  0  0  0  0  0
    0.2284   -2.2967   -0.6074 H   0  0  0  0  0  0  0  0  0  0  0  0
    0.2010   -1.8151    1.1159 H   0  0  0  0  0  0  0  0  0  0  0  0
   -1.7214    0.7777   -0.6016 H   0  0  0  0  0  0  0  0  0  0  0  0
   -5.0203    1.0612   -1.5782 H   0  0  0  0  0  0  0  0  0  0  0  0
   -4.1513    2.0296   -0.3297 H   0  0  0  0  0  0  0  0  0  0  0  0
  1  2  1  0
  2  3  1  0
  3  4  2  0
  3  5  1  0
  5  6  1  0
  6  7  1  0
  7  8  2  0
  7  9  1  0
  9 10  1  0
 10 11  1  0
 10 12  2  0
  1 13  1  0
  1 14  1  0
  1 15  1  0
  2 16  1  0
  5 17  1  0
  6 18  1  0
  6 19  1  0
  9 20  1  0
 11 21  1  0
 11 22  1  0
M  END
$$$$

     RDKit          3D

 22 21  0  0  0  0  0  0  0  0999 V2000
    4.6859   -0.1521   -0.3155 C   0  0  0  0  0  0  0  0  0  0  0  0
    3.3582   -0.2980   -0.8788 N   0  0  0  0  0  0  0  0  0  0  0  0
    2.2495   -0.0438   -0.0285 C   0  0  0  0  0  0  0  0  0  0  0  0
    2.4629    0.2933    1.1633 O   0  0  0  0  0  0  0  0  0  0  0  0
    0.9032   -0.1577   -0.4803 N   0  0  0  0  0  0  0  0  0  0  0  0
   -0.1624    0.1217    0.4599 C   0  0  0  0  0  0  0  0  0  0  0  0
   -1.4864   -0.0483   -0.1879 C   0  0  0  0  0  0  0  0  0  0  0  0
   -1.6057   -0.3885   -1.3874 O   0  0  0  0  0  0  0  0  0  0  0  0
   -2.6654    0.1833    0.5799 N   0  0  0  0  0  0  0  0  0  0  0  0
   -3.9403    0.0353    0.0110 C   0  0  0  0  0  0  0  0  0  0  0  0
   -5.0981    0.2705    0.7926 N   0  0  0  0  0  0  0  0  0  0  0  0
   -4.0628   -0.3019   -1.1784 O   0  0  0  0  0  0  0  0  0  0  0  0
    4.6860    0.5906    0.5138 H   0  0  0  0  0  0  0  0  0  0  0  0
    5.0453   -1.1188    0.1464 H   0  0  0  0  0  0  0  0  0  0  0  0
    5.3941    0.1278   -1.1261 H   0  0  0  0  0  0  0  0  0  0  0  0
    3.1825   -0.5772   -1.8658 H   0  0  0  0  0  0  0  0  0  0  0  0
    0.7510   -0.4384   -1.4717 H   0  0  0  0  0  0  0  0  0  0  0  0
   -0.0730   -0.4546    1.4003 H   0  0  0  0  0  0  0  0  0  0  0  0
   -0.0311    1.2032    0.7523 H   0  0  0  0  0  0  0  0  0  0  0  0
   -2.5331    0.4711    1.5958 H   0  0  0  0  0  0  0  0  0  0  0  0
   -5.8340    0.9655    0.5359 H   0  0  0  0  0  0  0  0  0  0  0  0
   -5.2262   -0.2829    1.6792 H   0  0  0  0  0  0  0  0  0  0  0  0
  1  2  1  0
  2  3  1  0
  3  4  2  0
  3  5  1  0
  5  6  1  0
  6  7  1  0
  7  8  2  0
  7  9  1  0
  9 10  1  0
 10 11  1  0
 10 12  2  0
  1 13  1  0
  1 14  1  0
  1 15  1  0
  2 16  1  0
  5 17  1  0
  6 18  1  0
  6 19  1  0
  9 20  1  0
 11 21  1  0
 11 22  1  0
M  END
$$$$

     RDKit          3D

 22 21  0  0  0  0  0  0  0  0999 V2000
    4.0745   -0.2045   -0.7037 C   0  0  0  0  0  0  0  0  0  0  0  0
    3.1853    0.5078    0.1938 N   0  0  0  0  0  0  0  0  0  0  0  0
    1.8368    0.0681    0.4397 C   0  0  0  0  0  0  0  0  0  0  0  0
    1.4843   -0.9694   -0.1729 O   0  0  0  0  0  0  0  0  0  0  0  0
    0.9850    0.7834    1.3236 N   0  0  0  0  0  0  0  0  0  0  0  0
   -0.3587    0.2874    1.5261 C   0  0  0  0  0  0  0  0  0  0  0  0
   -1.1037    0.2630    0.2162 C   0  0  0  0  0  0  0  0  0  0  0  0
   -0.5660    0.6366   -0.8588 O   0  0  0  0  0  0  0  0  0  0  0  0
   -2.4368   -0.1888    0.1885 N   0  0  0  0  0  0  0  0  0  0  0  0
   -3.2344   -0.2563   -0.9792 C   0  0  0  0  0  0  0  0  0  0  0  0
   -4.5677   -0.7247   -0.9126 N   0  0  0  0  0  0  0  0  0  0  0  0
   -2.7343    0.1085   -2.0772 O   0  0  0  0  0  0  0  0  0  0  0  0
    3.8032   -1.2952   -0.7044 H   0  0  0  0  0  0  0  0  0  0  0  0
    4.0717    0.1969   -1.7252 H   0  0  0  0  0  0  0  0  0  0  0  0
    5.0936   -0.1428   -0.2257 H   0  0  0  0  0  0  0  0  0  0  0  0
    3.4695    1.3730    0.7087 H   0  0  0  0  0  0  0  0  0  0  0  0
    1.2937    1.6426    1.8239 H   0  0  0  0  0  0  0  0  0  0  0  0
   -0.3815   -0.7512    1.9088 H   0  0  0  0  0  0  0  0  0  0  0  0
   -0.9316    0.9234    2.2285 H   0  0  0  0  0  0  0  0  0  0  0  0
   -2.8731   -0.4964    1.0856 H   0  0  0  0  0  0  0  0  0  0  0  0
   -4.7770   -1.7061   -0.6797 H   0  0  0  0  0  0  0  0  0  0  0  0
   -5.3327   -0.0554   -1.1043 H   0  0  0  0  0  0  0  0  0  0  0  0
  1  2  1  0
  2  3  1  0
  3  4  2  0
  3  5  1  0
  5  6  1  0
  6  7  1  0
  7  8  2  0
  7  9  1  0
  9 10  1  0
 10 11  1  0
 10 12  2  0
  1 13  1  0
  1 14  1  0
  1 15  1  0
  2 16  1  0
  5 17  1  0
  6 18  1  0
  6 19  1  0
  9 20  1  0
 11 21  1  0
 11 22  1  0
M  END
$$$$

     RDKit          3D

 22 21  0  0  0  0  0  0  0  0999 V2000
   -4.3730   -0.0382    0.4077 C   0  0  0  0  0  0  0  0  0  0  0  0
   -3.0143    0.1682   -0.0660 N   0  0  0  0  0  0  0  0  0  0  0  0
   -1.9438   -0.4014    0.6725 C   0  0  0  0  0  0  0  0  0  0  0  0
   -2.2120   -1.0631    1.7089 O   0  0  0  0  0  0  0  0  0  0  0  0
   -0.5775   -0.2307    0.2520 N   0  0  0  0  0  0  0  0  0  0  0  0
    0.4278   -0.8484    1.0711 C   0  0  0  0  0  0  0  0  0  0  0  0
    1.8044   -0.6693    0.6367 C   0  0  0  0  0  0  0  0  0  0  0  0
    2.7157   -1.1937    1.3254 O   0  0  0  0  0  0  0  0  0  0  0  0
    2.1825    0.0605   -0.5160 N   0  0  0  0  0  0  0  0  0  0  0  0
    3.5701    0.1945   -0.8834 C   0  0  0  0  0  0  0  0  0  0  0  0
    4.0008    0.9060   -2.0145 N   0  0  0  0  0  0  0  0  0  0  0  0
    4.4147   -0.3671   -0.1305 O   0  0  0  0  0  0  0  0  0  0  0  0
   -4.4097    0.3779    1.4506 H   0  0  0  0  0  0  0  0  0  0  0  0
   -5.1242    0.3852   -0.2543 H   0  0  0  0  0  0  0  0  0  0  0  0
   -4.5048   -1.1474    0.5537 H   0  0  0  0  0  0  0  0  0  0  0  0
   -2.7775    0.7137   -0.9222 H   0  0  0  0  0  0  0  0  0  0  0  0
   -0.4312    0.3229   -0.6057 H   0  0  0  0  0  0  0  0  0  0  0  0
    0.3133   -0.3752    2.0929 H   0  0  0  0  0  0  0  0  0  0  0  0
    0.1335   -1.9130    1.1942 H   0  0  0  0  0  0  0  0  0  0  0  0
    1.4970    0.5191   -1.1314 H   0  0  0  0  0  0  0  0  0  0  0  0
    3.8590    1.9352   -2.0306 H   0  0  0  0  0  0  0  0  0  0  0  0
    4.4492    0.4076   -2.8112 H   0  0  0  0  0  0  0  0  0  0  0  0
  1  2  1  0
  2  3  1  0
  3  4  2  0
  3  5  1  0
  5  6  1  0
  6  7  1  0
  7  8  2  0
  7  9  1  0
  9 10  1  0
 10 11  1  0
 10 12  2  0
  1 13  1  0
  1 14  1  0
  1 15  1  0
  2 16  1  0
  5 17  1  0
  6 18  1  0
  6 19  1  0
  9 20  1  0
 11 21  1  0
 11 22  1  0
M  END
$$$$
