
     RDKit          3D

 26 27  0  0  0  0  0  0  0  0999 V2000
    2.5539    1.4082   -0.1624 C   0  0  0  0  0  0  0  0  0  0  0  0
    2.7118    0.0465    0.2985 N   0  0  0  0  0  0  0  0  0  0  0  0
    3.5918   -0.3999    1.2026 N   0  0  0  0  0  0  0  0  0  0  0  0
    3.4320   -1.6855    1.3571 N   0  0  0  0  0  0  0  0  0  0  0  0
    2.4365   -2.0678    0.5412 N   0  0  0  0  0  0  0  0  0  0  0  0
    1.9787   -0.9956   -0.1250 C   0  0  0  0  0  0  0  0  0  0  0  0
    0.8907   -0.9657   -1.1212 C   0  0  0  0  0  0  0  0  0  0  0  0
   -0.3995   -0.7204   -0.5149 N   0  0  0  0  0  0  0  0  0  0  0  0
   -0.9197    0.6196   -0.3305 C   0  0  0  0  0  0  0  0  0  0  0  0
   -2.3807    0.5087   -0.0506 C   0  0  2  0  0  0  0  0  0  0  0  0
   -2.7752    1.5099    0.9430 N   0  0  0  0  0  0  0  0  0  0  0  0
   -2.5415   -0.8939    0.4864 C   0  0  0  0  0  0  0  0  0  0  0  0
   -1.3542   -1.6345   -0.0103 C   0  0  0  0  0  0  0  0  0  0  0  0
   -1.2264   -2.8943    0.0184 O   0  0  0  0  0  0  0  0  0  0  0  0
    2.0548    1.4059   -1.1475 H   0  0  0  0  0  0  0  0  0  0  0  0
    1.8771    1.9395    0.5624 H   0  0  0  0  0  0  0  0  0  0  0  0
    3.5400    1.9290   -0.1985 H   0  0  0  0  0  0  0  0  0  0  0  0
    1.0453   -0.1937   -1.9025 H   0  0  0  0  0  0  0  0  0  0  0  0
    0.8147   -1.9267   -1.6863 H   0  0  0  0  0  0  0  0  0  0  0  0
   -0.7367    1.2003   -1.2613 H   0  0  0  0  0  0  0  0  0  0  0  0
   -0.3573    1.0656    0.5258 H   0  0  0  0  0  0  0  0  0  0  0  0
   -2.9386    0.6937   -0.9759 H   0  0  0  0  0  0  0  0  0  0  0  0
   -3.3274    2.2634    0.4730 H   0  0  0  0  0  0  0  0  0  0  0  0
   -1.9182    1.9136    1.4153 H   0  0  0  0  0  0  0  0  0  0  0  0
   -3.4909   -1.2890    0.0730 H   0  0  0  0  0  0  0  0  0  0  0  0
   -2.5610   -0.8367    1.5905 H   0  0  0  0  0  0  0  0  0  0  0  0
  1  2  1  0
  2  3  1  0
  3  4  2  0
  4  5  1  0
  5  6  2  0
  6  7  1  0
  7  8  1  0
  8  9  1  0
  9 10  1  0
 10 11  1  0
 10 12  1  0
 12 13  1  0
 13 14  2  0
  6  2  1  0
 13  8  1  0
  1 15  1  0
  1 16  1  0
  1 17  1  0
  7 18  1  0
  7 19  1  0
  9 20  1  0
  9 21  1  0
 10 22  1  6
 11 23  1  0
 11 24  1  0
 12 25  1  0
 12 26  1  0
M  END
$$$$

     RDKit          3D

 26 27  0  0  0  0  0  0  0  0999 V2000
    3.1388    0.2539    0.7061 C   0  0  0  0  0  0  0  0  0  0  0  0
    2.6751   -0.2976   -0.5338 N   0  0  0  0  0  0  0  0  0  0  0  0
    3.2730   -0.1154   -1.7097 N   0  0  0  0  0  0  0  0  0  0  0  0
    2.5911   -0.7548   -2.6330 N   0  0  0  0  0  0  0  0  0  0  0  0
    1.5733   -1.3341   -2.0432 N   0  0  0  0  0  0  0  0  0  0  0  0
    1.6093   -1.0589   -0.7280 C   0  0  0  0  0  0  0  0  0  0  0  0
    0.6179   -1.5416    0.2748 C   0  0  0  0  0  0  0  0  0  0  0  0
   -0.4785   -0.5893    0.4034 N   0  0  0  0  0  0  0  0  0  0  0  0
   -1.6995   -0.6350   -0.4029 C   0  0  0  0  0  0  0  0  0  0  0  0
   -2.5804    0.4266    0.2348 C   0  0  2  0  0  0  0  0  0  0  0  0
   -3.4963    1.0142   -0.7139 N   0  0  0  0  0  0  0  0  0  0  0  0
   -1.5463    1.4341    0.6910 C   0  0  0  0  0  0  0  0  0  0  0  0
   -0.5396    0.5086    1.3075 C   0  0  0  0  0  0  0  0  0  0  0  0
    0.1102    0.6423    2.3661 O   0  0  0  0  0  0  0  0  0  0  0  0
    3.0417   -0.5077    1.4891 H   0  0  0  0  0  0  0  0  0  0  0  0
    4.2274    0.5020    0.6378 H   0  0  0  0  0  0  0  0  0  0  0  0
    2.6214    1.1966    0.9353 H   0  0  0  0  0  0  0  0  0  0  0  0
    0.2223   -2.5285    0.0002 H   0  0  0  0  0  0  0  0  0  0  0  0
    1.1174   -1.6070    1.2580 H   0  0  0  0  0  0  0  0  0  0  0  0
   -1.4985   -0.3883   -1.4617 H   0  0  0  0  0  0  0  0  0  0  0  0
   -2.1206   -1.6513   -0.2672 H   0  0  0  0  0  0  0  0  0  0  0  0
   -3.0743    0.0280    1.1241 H   0  0  0  0  0  0  0  0  0  0  0  0
   -3.1692    0.9286   -1.7002 H   0  0  0  0  0  0  0  0  0  0  0  0
   -3.5708    2.0396   -0.4520 H   0  0  0  0  0  0  0  0  0  0  0  0
   -1.0987    1.8783   -0.1995 H   0  0  0  0  0  0  0  0  0  0  0  0
   -1.9461    2.1568    1.4167 H   0  0  0  0  0  0  0  0  0  0  0  0
  1  2  1  0
  2  3  1  0
  3  4  2  0
  4  5  1  0
  5  6  2  0
  6  7  1  0
  7  8  1  0
  8  9  1  0
  9 10  1  0
 10 11  1  0
 10 12  1  0
 12 13  1  0
 13 14  2  0
  6  2  1  0
 13  8  1  0
  1 15  1  0
  1 16  1  0
  1 17  1  0
  7 18  1  0
  7 19  1  0
  9 20  1  0
  9 21  1  0
 10 22  1  1
 11 23  1  0
 11 24  1  0
 12 25  1  0
 12 26  1  0
M  END
$$$$

     RDKit          3D

 26 27  0  0  0  0  0  0  0  0999 V2000
    3.9924    0.2756   -0.3271 C   0  0  0  0  0  0  0  0  0  0  0  0
    2.9883   -0.4855    0.4124 N   0  0  0  0  0  0  0  0  0  0  0  0
    3.2090   -1.4741    1.2683 N   0  0  0  0  0  0  0  0  0  0  0  0
    2.0408   -1.9246    1.7455 N   0  0  0  0  0  0  0  0  0  0  0  0
    1.1106   -1.1944    1.1658 N   0  0  0  0  0  0  0  0  0  0  0  0
    1.6607   -0.2930    0.3338 C   0  0  0  0  0  0  0  0  0  0  0  0
    0.9761    0.7121   -0.5048 C   0  0  0  0  0  0  0  0  0  0  0  0
   -0.4620    0.6106   -0.3212 N   0  0  0  0  0  0  0  0  0  0  0  0
   -1.3385   -0.2494   -1.1297 C   0  0  0  0  0  0  0  0  0  0  0  0
   -2.4707   -0.4854   -0.1444 C   0  0  2  0  0  0  0  0  0  0  0  0
   -3.6628   -0.9498   -0.8201 N   0  0  0  0  0  0  0  0  0  0  0  0
   -2.6475    0.9275    0.3996 C   0  0  0  0  0  0  0  0  0  0  0  0
   -1.2367    1.3044    0.6409 C   0  0  0  0  0  0  0  0  0  0  0  0
   -0.7957    2.0801    1.5158 O   0  0  0  0  0  0  0  0  0  0  0  0
    4.1840    1.2572    0.1846 H   0  0  0  0  0  0  0  0  0  0  0  0
    4.9710   -0.2662   -0.2654 H   0  0  0  0  0  0  0  0  0  0  0  0
    3.7199    0.4103   -1.3817 H   0  0  0  0  0  0  0  0  0  0  0  0
    1.3129    1.7366   -0.2408 H   0  0  0  0  0  0  0  0  0  0  0  0
    1.1808    0.5479   -1.5929 H   0  0  0  0  0  0  0  0  0  0  0  0
   -0.8385   -1.1718   -1.4412 H   0  0  0  0  0  0  0  0  0  0  0  0
   -1.7716    0.3145   -1.9803 H   0  0  0  0  0  0  0  0  0  0  0  0
   -2.1535   -1.1432    0.6797 H   0  0  0  0  0  0  0  0  0  0  0  0
   -4.3195   -1.3439   -0.1052 H   0  0  0  0  0  0  0  0  0  0  0  0
   -3.3526   -1.7051   -1.4802 H   0  0  0  0  0  0  0  0  0  0  0  0
   -3.2683    0.9548    1.2972 H   0  0  0  0  0  0  0  0  0  0  0  0
   -3.0287    1.5549   -0.4311 H   0  0  0  0  0  0  0  0  0  0  0  0
  1  2  1  0
  2  3  1  0
  3  4  2  0
  4  5  1  0
  5  6  2  0
  6  7  1  0
  7  8  1  0
  8  9  1  0
  9 10  1  0
 10 11  1  0
 10 12  1  0
 12 13  1  0
 13 14  2  0
  6  2  1  0
 13  8  1  0
  1 15  1  0
  1 16  1  0
  1 17  1  0
  7 18  1  0
  7 19  1  0
  9 20  1  0
  9 21  1  0
 10 22  1  1
 11 23  1  0
 11 24  1  0
 12 25  1  0
 12 26  1  0
M  END
$$$$

     RDKit          3D

 26 27  0  0  0  0  0  0  0  0999 V2000
    3.0376    1.2866   -0.2027 C   0  0  0  0  0  0  0  0  0  0  0  0
    2.8237    0.0429    0.5286 N   0  0  0  0  0  0  0  0  0  0  0  0
    3.4992   -0.3445    1.6017 N   0  0  0  0  0  0  0  0  0  0  0  0
    3.0608   -1.5058    2.0128 N   0  0  0  0  0  0  0  0  0  0  0  0
    2.0949   -1.8581    1.1889 N   0  0  0  0  0  0  0  0  0  0  0  0
    1.9271   -0.9082    0.2531 C   0  0  0  0  0  0  0  0  0  0  0  0
    0.9315   -0.9525   -0.8460 C   0  0  0  0  0  0  0  0  0  0  0  0
   -0.3209   -0.3683   -0.5005 N   0  0  0  0  0  0  0  0  0  0  0  0
   -1.4445   -1.0527    0.0882 C   0  0  0  0  0  0  0  0  0  0  0  0
   -2.3218   -0.0113    0.7303 C   0  0  2  0  0  0  0  0  0  0  0  0
   -3.6942   -0.4801    0.6345 N   0  0  0  0  0  0  0  0  0  0  0  0
   -2.0798    1.2005   -0.1300 C   0  0  0  0  0  0  0  0  0  0  0  0
   -0.6952    0.9843   -0.6690 C   0  0  0  0  0  0  0  0  0  0  0  0
   -0.0471    1.9449   -1.1789 O   0  0  0  0  0  0  0  0  0  0  0  0
    2.3496    2.0525    0.1655 H   0  0  0  0  0  0  0  0  0  0  0  0
    4.0705    1.6396    0.0189 H   0  0  0  0  0  0  0  0  0  0  0  0
    2.9923    1.1186   -1.2991 H   0  0  0  0  0  0  0  0  0  0  0  0
    0.8300   -2.0219   -1.1957 H   0  0  0  0  0  0  0  0  0  0  0  0
    1.4242   -0.4379   -1.7216 H   0  0  0  0  0  0  0  0  0  0  0  0
   -1.1481   -1.8658    0.7710 H   0  0  0  0  0  0  0  0  0  0  0  0
   -2.0388   -1.4782   -0.7726 H   0  0  0  0  0  0  0  0  0  0  0  0
   -2.0515    0.1955    1.7765 H   0  0  0  0  0  0  0  0  0  0  0  0
   -4.3671    0.1919    1.0441 H   0  0  0  0  0  0  0  0  0  0  0  0
   -3.9082   -0.7429   -0.3451 H   0  0  0  0  0  0  0  0  0  0  0  0
   -2.8289    1.2284   -0.9506 H   0  0  0  0  0  0  0  0  0  0  0  0
   -2.0954    2.1425    0.4550 H   0  0  0  0  0  0  0  0  0  0  0  0
  1  2  1  0
  2  3  1  0
  3  4  2  0
  4  5  1  0
  5  6  2  0
  6  7  1  0
  7  8  1  0
  8  9  1  0
  9 10  1  0
 10 11  1  0
 10 12  1  0
 12 13  1  0
 13 14  2  0
  6  2  1  0
 13  8  1  0
  1 15  1  0
  1 16  1  0
  1 17  1  0
  7 18  1  0
  7 19  1  0
  9 20  1  0
  9 21  1  0
 10 22  1  1
 11 23  1  0
 11 24  1  0
 12 25  1  0
 12 26  1  0
M  END
$$$$

     RDKit          3D

 26 27  0  0  0  0  0  0  0  0999 V2000
    3.9989   -0.5464   -0.0873 C   0  0  0  0  0  0  0  0  0  0  0  0
    3.0706    0.4602    0.4064 N   0  0  0  0  0  0  0  0  0  0  0  0
    3.4416    1.5356    1.0757 N   0  0  0  0  0  0  0  0  0  0  0  0
    2.3691    2.2356    1.3746 N   0  0  0  0  0  0  0  0  0  0  0  0
    1.3320    1.6187    0.9049 N   0  0  0  0  0  0  0  0  0  0  0  0
    1.7339    0.5014    0.2914 C   0  0  0  0  0  0  0  0  0  0  0  0
    0.9533   -0.5509   -0.4068 C   0  0  0  0  0  0  0  0  0  0  0  0
   -0.4455   -0.3197   -0.4180 N   0  0  0  0  0  0  0  0  0  0  0  0
   -1.3952   -0.7661    0.5756 C   0  0  0  0  0  0  0  0  0  0  0  0
   -2.5078    0.2273    0.4949 C   0  0  2  0  0  0  0  0  0  0  0  0
   -3.7426   -0.2331    1.0740 N   0  0  0  0  0  0  0  0  0  0  0  0
   -2.6309    0.4052   -1.0247 C   0  0  0  0  0  0  0  0  0  0  0  0
   -1.1820    0.3889   -1.3975 C   0  0  0  0  0  0  0  0  0  0  0  0
   -0.7198    0.9254   -2.4206 O   0  0  0  0  0  0  0  0  0  0  0  0
    4.9493   -0.0956   -0.4496 H   0  0  0  0  0  0  0  0  0  0  0  0
    3.5904   -1.1364   -0.9118 H   0  0  0  0  0  0  0  0  0  0  0  0
    4.2998   -1.2232    0.7547 H   0  0  0  0  0  0  0  0  0  0  0  0
    1.2038   -1.5236    0.1006 H   0  0  0  0  0  0  0  0  0  0  0  0
    1.4066   -0.6398   -1.4334 H   0  0  0  0  0  0  0  0  0  0  0  0
   -0.9511   -0.8565    1.5830 H   0  0  0  0  0  0  0  0  0  0  0  0
   -1.8045   -1.7535    0.2348 H   0  0  0  0  0  0  0  0  0  0  0  0
   -2.2490    1.2091    0.9115 H   0  0  0  0  0  0  0  0  0  0  0  0
   -4.4789    0.4636    0.8227 H   0  0  0  0  0  0  0  0  0  0  0  0
   -4.0408   -1.1499    0.7175 H   0  0  0  0  0  0  0  0  0  0  0  0
   -3.1320    1.3310   -1.2950 H   0  0  0  0  0  0  0  0  0  0  0  0
   -3.0692   -0.5075   -1.4778 H   0  0  0  0  0  0  0  0  0  0  0  0
  1  2  1  0
  2  3  1  0
  3  4  2  0
  4  5  1  0
  5  6  2  0
  6  7  1  0
  7  8  1  0
  8  9  1  0
  9 10  1  0
 10 11  1  0
 10 12  1  0
 12 13  1  0
 13 14  2  0
  6  2  1  0
 13  8  1  0
  1 15  1  0
  1 16  1  0
  1 17  1  0
  7 18  1  0
  7 19  1  0
  9 20  1  0
  9 21  1  0
 10 22  1  1
 11 23  1  0
 11 24  1  0
 12 25  1  0
 12 26  1  0
M  END
$$$$

     RDKit          3D

 26 27  0  0  0  0  0  0  0  0999 V2000
    3.9559   -0.2554   -0.2299 C   0  0  0  0  0  0  0  0  0  0  0  0
    2.8688    0.4953   -0.8798 N   0  0  0  0  0  0  0  0  0  0  0  0
    2.9992    1.4456   -1.7886 N   0  0  0  0  0  0  0  0  0  0  0  0
    1.7785    1.8387   -2.0917 N   0  0  0  0  0  0  0  0  0  0  0  0
    0.8874    1.1577   -1.3949 N   0  0  0  0  0  0  0  0  0  0  0  0
    1.5658    0.3004   -0.6206 C   0  0  0  0  0  0  0  0  0  0  0  0
    1.0212   -0.6911    0.3511 C   0  0  0  0  0  0  0  0  0  0  0  0
   -0.4200   -0.6559    0.3989 N   0  0  0  0  0  0  0  0  0  0  0  0
   -1.3076    0.1320    1.2363 C   0  0  0  0  0  0  0  0  0  0  0  0
   -2.3629    0.4986    0.2108 C   0  0  2  0  0  0  0  0  0  0  0  0
   -3.5048    1.1424    0.7887 N   0  0  0  0  0  0  0  0  0  0  0  0
   -2.6865   -0.9037   -0.2991 C   0  0  0  0  0  0  0  0  0  0  0  0
   -1.2956   -1.4386   -0.4198 C   0  0  0  0  0  0  0  0  0  0  0  0
   -0.9183   -2.4268   -1.1262 O   0  0  0  0  0  0  0  0  0  0  0  0
    4.3761    0.4070    0.5550 H   0  0  0  0  0  0  0  0  0  0  0  0
    3.6035   -1.2086    0.1643 H   0  0  0  0  0  0  0  0  0  0  0  0
    4.7940   -0.4227   -0.9644 H   0  0  0  0  0  0  0  0  0  0  0  0
    1.4251   -1.6820    0.0897 H   0  0  0  0  0  0  0  0  0  0  0  0
    1.3921   -0.4452    1.3621 H   0  0  0  0  0  0  0  0  0  0  0  0
   -0.8300    0.9931    1.6958 H   0  0  0  0  0  0  0  0  0  0  0  0
   -1.7815   -0.5586    1.9549 H   0  0  0  0  0  0  0  0  0  0  0  0
   -1.9181    1.0490   -0.6387 H   0  0  0  0  0  0  0  0  0  0  0  0
   -3.1602    1.9143    1.4040 H   0  0  0  0  0  0  0  0  0  0  0  0
   -4.0387    1.5922    0.0070 H   0  0  0  0  0  0  0  0  0  0  0  0
   -3.2016   -0.8686   -1.2755 H   0  0  0  0  0  0  0  0  0  0  0  0
   -3.2418   -1.4091    0.4954 H   0  0  0  0  0  0  0  0  0  0  0  0
  1  2  1  0
  2  3  1  0
  3  4  2  0
  4  5  1  0
  5  6  2  0
  6  7  1  0
  7  8  1  0
  8  9  1  0
  9 10  1  0
 10 11  1  0
 10 12  1  0
 12 13  1  0
 13 14  2  0
  6  2  1  0
 13  8  1  0
  1 15  1  0
  1 16  1  0
  1 17  1  0
  7 18  1  0
  7 19  1  0
  9 20  1  0
  9 21  1  0
 10 22  1  6
 11 23  1  0
 11 24  1  0
 12 25  1  0
 12 26  1  0
M  END
$$$$

     RDKit          3D

 26 27  0  0  0  0  0  0  0  0999 V2000
   -4.0266   -0.5121   -0.3143 C   0  0  0  0  0  0  0  0  0  0  0  0
   -3.0967    0.5222    0.0796 N   0  0  0  0  0  0  0  0  0  0  0  0
   -3.4742    1.7062    0.5390 N   0  0  0  0  0  0  0  0  0  0  0  0
   -2.3942    2.4200    0.8083 N   0  0  0  0  0  0  0  0  0  0  0  0
   -1.3434    1.6791    0.5161 N   0  0  0  0  0  0  0  0  0  0  0  0
   -1.7605    0.4872    0.0583 C   0  0  0  0  0  0  0  0  0  0  0  0
   -0.9236   -0.6576   -0.3887 C   0  0  0  0  0  0  0  0  0  0  0  0
    0.4728   -0.3578   -0.2810 N   0  0  0  0  0  0  0  0  0  0  0  0
    1.2903   -0.6097    0.8846 C   0  0  0  0  0  0  0  0  0  0  0  0
    2.7137   -0.4951    0.3797 C   0  0  2  0  0  0  0  0  0  0  0  0
    3.5209   -0.0221    1.4784 N   0  0  0  0  0  0  0  0  0  0  0  0
    2.6317    0.4639   -0.7610 C   0  0  0  0  0  0  0  0  0  0  0  0
    1.2637    0.2279   -1.2930 C   0  0  0  0  0  0  0  0  0  0  0  0
    0.8784    0.5116   -2.4712 O   0  0  0  0  0  0  0  0  0  0  0  0
   -3.4918   -1.3530   -0.8127 H   0  0  0  0  0  0  0  0  0  0  0  0
   -4.8070   -0.1136   -0.9998 H   0  0  0  0  0  0  0  0  0  0  0  0
   -4.5321   -0.8585    0.6145 H   0  0  0  0  0  0  0  0  0  0  0  0
   -1.1503   -1.5565    0.2140 H   0  0  0  0  0  0  0  0  0  0  0  0
   -1.2274   -0.8933   -1.4370 H   0  0  0  0  0  0  0  0  0  0  0  0
    1.1746   -1.6460    1.2635 H   0  0  0  0  0  0  0  0  0  0  0  0
    1.1218    0.1620    1.6568 H   0  0  0  0  0  0  0  0  0  0  0  0
    3.1204   -1.4662    0.0446 H   0  0  0  0  0  0  0  0  0  0  0  0
    4.4786   -0.4072    1.4979 H   0  0  0  0  0  0  0  0  0  0  0  0
    3.4532    0.9975    1.6327 H   0  0  0  0  0  0  0  0  0  0  0  0
    2.7054    1.5265   -0.4362 H   0  0  0  0  0  0  0  0  0  0  0  0
    3.4024    0.2446   -1.5566 H   0  0  0  0  0  0  0  0  0  0  0  0
  1  2  1  0
  2  3  1  0
  3  4  2  0
  4  5  1  0
  5  6  2  0
  6  7  1  0
  7  8  1  0
  8  9  1  0
  9 10  1  0
 10 11  1  0
 10 12  1  0
 12 13  1  0
 13 14  2  0
  6  2  1  0
 13  8  1  0
  1 15  1  0
  1 16  1  0
  1 17  1  0
  7 18  1  0
  7 19  1  0
  9 20  1  0
  9 21  1  0
 10 22  1  6
 11 23  1  0
 11 24  1  0
 12 25  1  0
 12 26  1  0
M  END
$$$$

     RDKit          3D

 26 27  0  0  0  0  0  0  0  0999 V2000
    3.8884    0.6833    0.0583 C   0  0  0  0  0  0  0  0  0  0  0  0
    3.0491   -0.4179    0.4882 N   0  0  0  0  0  0  0  0  0  0  0  0
    3.5682   -1.5265    1.0262 N   0  0  0  0  0  0  0  0  0  0  0  0
    2.5938   -2.3546    1.3230 N   0  0  0  0  0  0  0  0  0  0  0  0
    1.4452   -1.7583    0.9666 N   0  0  0  0  0  0  0  0  0  0  0  0
    1.7216   -0.5511    0.4456 C   0  0  0  0  0  0  0  0  0  0  0  0
    0.7700    0.4336   -0.0701 C   0  0  0  0  0  0  0  0  0  0  0  0
   -0.5950    0.0193    0.0109 N   0  0  0  0  0  0  0  0  0  0  0  0
   -1.2677   -0.7174   -1.0679 C   0  0  0  0  0  0  0  0  0  0  0  0
   -2.6655   -0.1403   -0.9764 C   0  0  2  0  0  0  0  0  0  0  0  0
   -2.6850    1.2360   -1.3719 N   0  0  0  0  0  0  0  0  0  0  0  0
   -2.8917   -0.2455    0.5386 C   0  0  0  0  0  0  0  0  0  0  0  0
   -1.5615    0.1880    1.0406 C   0  0  0  0  0  0  0  0  0  0  0  0
   -1.3055    0.6325    2.1778 O   0  0  0  0  0  0  0  0  0  0  0  0
    4.5604    0.4196   -0.7614 H   0  0  0  0  0  0  0  0  0  0  0  0
    4.5067    0.9636    0.9443 H   0  0  0  0  0  0  0  0  0  0  0  0
    3.2263    1.5406   -0.1756 H   0  0  0  0  0  0  0  0  0  0  0  0
    0.8368    1.4182    0.4781 H   0  0  0  0  0  0  0  0  0  0  0  0
    0.9901    0.7033   -1.1315 H   0  0  0  0  0  0  0  0  0  0  0  0
   -0.7949   -0.5260   -2.0410 H   0  0  0  0  0  0  0  0  0  0  0  0
   -1.2854   -1.7605   -0.7658 H   0  0  0  0  0  0  0  0  0  0  0  0
   -3.4006   -0.7455   -1.5292 H   0  0  0  0  0  0  0  0  0  0  0  0
   -3.6140    1.5665   -1.7040 H   0  0  0  0  0  0  0  0  0  0  0  0
   -2.3214    1.8683   -0.6313 H   0  0  0  0  0  0  0  0  0  0  0  0
   -3.7158    0.3961    0.8738 H   0  0  0  0  0  0  0  0  0  0  0  0
   -3.0525   -1.3254    0.7663 H   0  0  0  0  0  0  0  0  0  0  0  0
  1  2  1  0
  2  3  1  0
  3  4  2  0
  4  5  1  0
  5  6  2  0
  6  7  1  0
  7  8  1  0
  8  9  1  0
  9 10  1  0
 10 11  1  0
 10 12  1  0
 12 13  1  0
 13 14  2  0
  6  2  1  0
 13  8  1  0
  1 15  1  0
  1 16  1  0
  1 17  1  0
  7 18  1  0
  7 19  1  0
  9 20  1  0
  9 21  1  0
 10 22  1  6
 11 23  1  0
 11 24  1  0
 12 25  1  0
 12 26  1  0
M  END
$$$$
