
     RDKit          3D

 23 24  0  0  0  0  0  0  0  0999 V2000
    4.3260   -1.1156   -0.1770 N   0  0  0  0  0  0  0  0  0  0  0  0
    3.1374   -0.3839    0.0555 C   0  0  0  0  0  0  0  0  0  0  0  0
    3.2232    0.9254    0.3821 N   0  0  0  0  0  0  0  0  0  0  0  0
    2.1233    1.6622    0.6124 C   0  0  0  0  0  0  0  0  0  0  0  0
    0.8693    1.0818    0.5169 C   0  0  0  0  0  0  0  0  0  0  0  0
    0.7646   -0.2539    0.1843 C   0  0  0  0  0  0  0  0  0  0  0  0
   -0.4832   -0.9167    0.0634 N   0  0  0  0  0  0  0  0  0  0  0  0
   -1.6815   -0.1860    0.2743 C   0  0  2  0  0  0  0  0  0  0  0  0
   -2.9308   -1.0512    0.1661 C   0  0  0  0  0  0  0  0  0  0  0  0
   -3.9375   -0.1087   -0.0102 O   0  0  0  0  0  0  0  0  0  0  0  0
   -3.4285    0.8931   -0.7597 N   0  0  0  0  0  0  0  0  0  0  0  0
   -1.9967    0.7439   -0.8725 C   0  0  0  0  0  0  0  0  0  0  0  0
   -1.2712    1.2712   -1.7174 O   0  0  0  0  0  0  0  0  0  0  0  0
    1.9130   -0.9159   -0.0290 N   0  0  0  0  0  0  0  0  0  0  0  0
    5.0205   -0.7424   -0.8444 H   0  0  0  0  0  0  0  0  0  0  0  0
    4.4816   -2.0021    0.3174 H   0  0  0  0  0  0  0  0  0  0  0  0
    2.1562    2.7144    0.8763 H   0  0  0  0  0  0  0  0  0  0  0  0
   -0.0403    1.6288    0.6948 H   0  0  0  0  0  0  0  0  0  0  0  0
   -0.4689   -1.9287   -0.1789 H   0  0  0  0  0  0  0  0  0  0  0  0
   -1.7419    0.4033    1.1963 H   0  0  0  0  0  0  0  0  0  0  0  0
   -2.8899   -1.7424   -0.6801 H   0  0  0  0  0  0  0  0  0  0  0  0
   -3.1271   -1.6129    1.1014 H   0  0  0  0  0  0  0  0  0  0  0  0
   -4.0176    1.6361   -1.1721 H   0  0  0  0  0  0  0  0  0  0  0  0
  1  2  1  0
  2  3  2  0
  3  4  1  0
  4  5  2  0
  5  6  1  0
  6  7  1  0
  7  8  1  0
  8  9  1  0
  9 10  1  0
 10 11  1  0
 11 12  1  0
 12 13  2  0
  6 14  2  0
 14  2  1  0
 12  8  1  0
  1 15  1  0
  1 16  1  0
  4 17  1  0
  5 18  1  0
  7 19  1  0
  8 20  1  1
  9 21  1  0
  9 22  1  0
 11 23  1  0
M  END
$$$$

     RDKit          3D

 23 24  0  0  0  0  0  0  0  0999 V2000
    4.2268    1.2487    0.3224 N   0  0  0  0  0  0  0  0  0  0  0  0
    3.0593    0.4168    0.2607 C   0  0  0  0  0  0  0  0  0  0  0  0
    3.1558   -0.8957    0.5768 N   0  0  0  0  0  0  0  0  0  0  0  0
    2.0806   -1.7011    0.5288 C   0  0  0  0  0  0  0  0  0  0  0  0
    0.8845   -1.1321    0.1454 C   0  0  0  0  0  0  0  0  0  0  0  0
    0.8025    0.2032   -0.1725 C   0  0  0  0  0  0  0  0  0  0  0  0
   -0.4464    0.8091   -0.5693 N   0  0  0  0  0  0  0  0  0  0  0  0
   -1.5970   -0.0214   -0.5973 C   0  0  2  0  0  0  0  0  0  0  0  0
   -2.8399    0.6897   -1.1008 C   0  0  0  0  0  0  0  0  0  0  0  0
   -3.8585   -0.1199   -0.6044 O   0  0  0  0  0  0  0  0  0  0  0  0
   -3.4670   -0.5641    0.6134 N   0  0  0  0  0  0  0  0  0  0  0  0
   -2.0784   -0.2987    0.8090 C   0  0  0  0  0  0  0  0  0  0  0  0
   -1.4634   -0.3044    1.8792 O   0  0  0  0  0  0  0  0  0  0  0  0
    1.9135    0.9702   -0.1083 N   0  0  0  0  0  0  0  0  0  0  0  0
    4.9214    1.0225    1.0546 H   0  0  0  0  0  0  0  0  0  0  0  0
    4.3140    2.0192   -0.3562 H   0  0  0  0  0  0  0  0  0  0  0  0
    2.1438   -2.7647    0.7818 H   0  0  0  0  0  0  0  0  0  0  0  0
   -0.0085   -1.7468    0.0887 H   0  0  0  0  0  0  0  0  0  0  0  0
   -0.4383    1.8125   -0.8116 H   0  0  0  0  0  0  0  0  0  0  0  0
   -1.4412   -0.9627   -1.1150 H   0  0  0  0  0  0  0  0  0  0  0  0
   -2.8341    0.6482   -2.2152 H   0  0  0  0  0  0  0  0  0  0  0  0
   -2.9280    1.6953   -0.6928 H   0  0  0  0  0  0  0  0  0  0  0  0
   -4.1016   -1.0234    1.2824 H   0  0  0  0  0  0  0  0  0  0  0  0
  1  2  1  0
  2  3  2  0
  3  4  1  0
  4  5  2  0
  5  6  1  0
  6  7  1  0
  7  8  1  0
  8  9  1  0
  9 10  1  0
 10 11  1  0
 11 12  1  0
 12 13  2  0
  6 14  2  0
 14  2  1  0
 12  8  1  0
  1 15  1  0
  1 16  1  0
  4 17  1  0
  5 18  1  0
  7 19  1  0
  8 20  1  6
  9 21  1  0
  9 22  1  0
 11 23  1  0
M  END
$$$$

     RDKit          3D

 23 24  0  0  0  0  0  0  0  0999 V2000
    3.2322    1.3430    0.8299 N   0  0  0  0  0  0  0  0  0  0  0  0
    2.6167    0.3719    0.0007 C   0  0  0  0  0  0  0  0  0  0  0  0
    3.2584   -0.3330   -0.9346 N   0  0  0  0  0  0  0  0  0  0  0  0
    2.6427   -1.2459   -1.7027 C   0  0  0  0  0  0  0  0  0  0  0  0
    1.2732   -1.4376   -1.4843 C   0  0  0  0  0  0  0  0  0  0  0  0
    0.5978   -0.7215   -0.5270 C   0  0  0  0  0  0  0  0  0  0  0  0
   -0.7829   -0.9479   -0.3415 N   0  0  0  0  0  0  0  0  0  0  0  0
   -1.4776   -0.1890    0.6667 C   0  0  2  0  0  0  0  0  0  0  0  0
   -2.9380   -0.5297    0.7569 C   0  0  0  0  0  0  0  0  0  0  0  0
   -3.5522    0.6037    1.2196 O   0  0  0  0  0  0  0  0  0  0  0  0
   -2.8426    1.6693    0.7892 N   0  0  0  0  0  0  0  0  0  0  0  0
   -1.5657    1.2664    0.3052 C   0  0  0  0  0  0  0  0  0  0  0  0
   -0.7193    1.9793   -0.2867 O   0  0  0  0  0  0  0  0  0  0  0  0
    1.2793    0.1722    0.2009 N   0  0  0  0  0  0  0  0  0  0  0  0
    3.0803    1.4431    1.8547 H   0  0  0  0  0  0  0  0  0  0  0  0
    3.8917    2.0142    0.3818 H   0  0  0  0  0  0  0  0  0  0  0  0
    3.1685   -1.8136   -2.4586 H   0  0  0  0  0  0  0  0  0  0  0  0
    0.7856   -2.1803   -2.1133 H   0  0  0  0  0  0  0  0  0  0  0  0
   -1.3005   -1.6379   -0.9060 H   0  0  0  0  0  0  0  0  0  0  0  0
   -0.9881   -0.2385    1.6417 H   0  0  0  0  0  0  0  0  0  0  0  0
   -3.0770   -1.3421    1.4829 H   0  0  0  0  0  0  0  0  0  0  0  0
   -3.3487   -0.8845   -0.2070 H   0  0  0  0  0  0  0  0  0  0  0  0
   -3.2335    2.6384    0.8314 H   0  0  0  0  0  0  0  0  0  0  0  0
  1  2  1  0
  2  3  2  0
  3  4  1  0
  4  5  2  0
  5  6  1  0
  6  7  1  0
  7  8  1  0
  8  9  1  0
  9 10  1  0
 10 11  1  0
 11 12  1  0
 12 13  2  0
  6 14  2  0
 14  2  1  0
 12  8  1  0
  1 15  1  0
  1 16  1  0
  4 17  1  0
  5 18  1  0
  7 19  1  0
  8 20  1  1
  9 21  1  0
  9 22  1  0
 11 23  1  0
M  END
$$$$

     RDKit          3D

 23 24  0  0  0  0  0  0  0  0999 V2000
    3.0055   -1.1887   -1.7882 N   0  0  0  0  0  0  0  0  0  0  0  0
    2.5543   -0.6453   -0.5467 C   0  0  0  0  0  0  0  0  0  0  0  0
    3.3872   -0.5629    0.4993 N   0  0  0  0  0  0  0  0  0  0  0  0
    2.9335   -0.0467    1.6543 C   0  0  0  0  0  0  0  0  0  0  0  0
    1.6072    0.3875    1.7271 C   0  0  0  0  0  0  0  0  0  0  0  0
    0.7613    0.2979    0.6463 C   0  0  0  0  0  0  0  0  0  0  0  0
   -0.5809    0.7430    0.7373 N   0  0  0  0  0  0  0  0  0  0  0  0
   -1.5103    0.6739   -0.3595 C   0  0  2  0  0  0  0  0  0  0  0  0
   -2.8724    1.2175    0.0153 C   0  0  0  0  0  0  0  0  0  0  0  0
   -3.8245    0.3945   -0.5219 O   0  0  0  0  0  0  0  0  0  0  0  0
   -3.2629   -0.8137   -0.7493 N   0  0  0  0  0  0  0  0  0  0  0  0
   -1.8513   -0.7214   -0.7365 C   0  0  0  0  0  0  0  0  0  0  0  0
   -1.0754   -1.6724   -1.0023 O   0  0  0  0  0  0  0  0  0  0  0  0
    1.2595   -0.2256   -0.4887 N   0  0  0  0  0  0  0  0  0  0  0  0
    2.7648   -2.1638   -2.1010 H   0  0  0  0  0  0  0  0  0  0  0  0
    3.5978   -0.6413   -2.4458 H   0  0  0  0  0  0  0  0  0  0  0  0
    3.5882    0.0290    2.5103 H   0  0  0  0  0  0  0  0  0  0  0  0
    1.2805    0.7941    2.6662 H   0  0  0  0  0  0  0  0  0  0  0  0
   -0.9091    1.1391    1.6428 H   0  0  0  0  0  0  0  0  0  0  0  0
   -1.1199    1.2090   -1.2661 H   0  0  0  0  0  0  0  0  0  0  0  0
   -2.9366    1.1822    1.1401 H   0  0  0  0  0  0  0  0  0  0  0  0
   -2.9572    2.2772   -0.3272 H   0  0  0  0  0  0  0  0  0  0  0  0
   -3.8393   -1.6633   -0.9061 H   0  0  0  0  0  0  0  0  0  0  0  0
  1  2  1  0
  2  3  2  0
  3  4  1  0
  4  5  2  0
  5  6  1  0
  6  7  1  0
  7  8  1  0
  8  9  1  0
  9 10  1  0
 10 11  1  0
 11 12  1  0
 12 13  2  0
  6 14  2  0
 14  2  1  0
 12  8  1  0
  1 15  1  0
  1 16  1  0
  4 17  1  0
  5 18  1  0
  7 19  1  0
  8 20  1  6
  9 21  1  0
  9 22  1  0
 11 23  1  0
M  END
$$$$

     RDKit          3D

 23 24  0  0  0  0  0  0  0  0999 V2000
   -3.2315   -1.8142    0.2573 N   0  0  0  0  0  0  0  0  0  0  0  0
   -2.5541   -0.5696    0.1640 C   0  0  0  0  0  0  0  0  0  0  0  0
   -3.2911    0.5462    0.4047 N   0  0  0  0  0  0  0  0  0  0  0  0
   -2.7128    1.7604    0.3337 C   0  0  0  0  0  0  0  0  0  0  0  0
   -1.3645    1.7901    0.0101 C   0  0  0  0  0  0  0  0  0  0  0  0
   -0.6336    0.6526   -0.2303 C   0  0  0  0  0  0  0  0  0  0  0  0
    0.7613    0.7654   -0.5637 N   0  0  0  0  0  0  0  0  0  0  0  0
    1.6024   -0.3503   -0.8239 C   0  0  2  0  0  0  0  0  0  0  0  0
    1.6462   -1.2211    0.4309 C   0  0  0  0  0  0  0  0  0  0  0  0
    2.3217   -0.3524    1.3046 O   0  0  0  0  0  0  0  0  0  0  0  0
    3.3406    0.1704    0.5708 N   0  0  0  0  0  0  0  0  0  0  0  0
    3.0178    0.1107   -0.8221 C   0  0  0  0  0  0  0  0  0  0  0  0
    3.7662    0.3854   -1.7697 O   0  0  0  0  0  0  0  0  0  0  0  0
   -1.2616   -0.5300   -0.1455 N   0  0  0  0  0  0  0  0  0  0  0  0
   -3.3924   -2.2085    1.2013 H   0  0  0  0  0  0  0  0  0  0  0  0
   -3.5574   -2.3171   -0.5930 H   0  0  0  0  0  0  0  0  0  0  0  0
   -3.2859    2.6581    0.5225 H   0  0  0  0  0  0  0  0  0  0  0  0
   -0.8908    2.7666   -0.0491 H   0  0  0  0  0  0  0  0  0  0  0  0
    1.1687    1.7246   -0.6161 H   0  0  0  0  0  0  0  0  0  0  0  0
    1.3453   -0.9327   -1.7182 H   0  0  0  0  0  0  0  0  0  0  0  0
    0.6705   -1.4921    0.8176 H   0  0  0  0  0  0  0  0  0  0  0  0
    2.3314   -2.0855    0.2854 H   0  0  0  0  0  0  0  0  0  0  0  0
    4.2035    0.5428    1.0288 H   0  0  0  0  0  0  0  0  0  0  0  0
  1  2  1  0
  2  3  2  0
  3  4  1  0
  4  5  2  0
  5  6  1  0
  6  7  1  0
  7  8  1  0
  8  9  1  0
  9 10  1  0
 10 11  1  0
 11 12  1  0
 12 13  2  0
  6 14  2  0
 14  2  1  0
 12  8  1  0
  1 15  1  0
  1 16  1  0
  4 17  1  0
  5 18  1  0
  7 19  1  0
  8 20  1  6
  9 21  1  0
  9 22  1  0
 11 23  1  0
M  END
$$$$

     RDKit          3D

 23 24  0  0  0  0  0  0  0  0999 V2000
    3.9689    1.7086   -0.0176 N   0  0  0  0  0  0  0  0  0  0  0  0
    2.9856    0.6857    0.0039 C   0  0  0  0  0  0  0  0  0  0  0  0
    3.2757   -0.5805    0.3457 N   0  0  0  0  0  0  0  0  0  0  0  0
    2.3374   -1.5343    0.3610 C   0  0  0  0  0  0  0  0  0  0  0  0
    1.0341   -1.2493    0.0249 C   0  0  0  0  0  0  0  0  0  0  0  0
    0.7293    0.0441   -0.3257 C   0  0  0  0  0  0  0  0  0  0  0  0
   -0.5839    0.4356   -0.6761 N   0  0  0  0  0  0  0  0  0  0  0  0
   -1.6911   -0.4919   -0.6415 C   0  0  2  0  0  0  0  0  0  0  0  0
   -2.9487    0.1471   -1.2282 C   0  0  0  0  0  0  0  0  0  0  0  0
   -3.5205    0.8878   -0.2328 O   0  0  0  0  0  0  0  0  0  0  0  0
   -3.0279    0.4917    0.9617 N   0  0  0  0  0  0  0  0  0  0  0  0
   -2.1200   -0.5758    0.7743 C   0  0  0  0  0  0  0  0  0  0  0  0
   -1.7676   -1.3981    1.6203 O   0  0  0  0  0  0  0  0  0  0  0  0
    1.7156    0.9747   -0.3260 N   0  0  0  0  0  0  0  0  0  0  0  0
    4.8198    1.6072    0.5530 H   0  0  0  0  0  0  0  0  0  0  0  0
    3.8116    2.5384   -0.6073 H   0  0  0  0  0  0  0  0  0  0  0  0
    2.6144   -2.5594    0.6465 H   0  0  0  0  0  0  0  0  0  0  0  0
    0.3190   -2.0483    0.0440 H   0  0  0  0  0  0  0  0  0  0  0  0
   -0.7784    1.4155   -0.9701 H   0  0  0  0  0  0  0  0  0  0  0  0
   -1.4821   -1.4394   -1.1256 H   0  0  0  0  0  0  0  0  0  0  0  0
   -3.6382   -0.7112   -1.4493 H   0  0  0  0  0  0  0  0  0  0  0  0
   -2.7213    0.6872   -2.1542 H   0  0  0  0  0  0  0  0  0  0  0  0
   -3.3316    0.9645    1.8426 H   0  0  0  0  0  0  0  0  0  0  0  0
  1  2  1  0
  2  3  2  0
  3  4  1  0
  4  5  2  0
  5  6  1  0
  6  7  1  0
  7  8  1  0
  8  9  1  0
  9 10  1  0
 10 11  1  0
 11 12  1  0
 12 13  2  0
  6 14  2  0
 14  2  1  0
 12  8  1  0
  1 15  1  0
  1 16  1  0
  4 17  1  0
  5 18  1  0
  7 19  1  0
  8 20  1  6
  9 21  1  0
  9 22  1  0
 11 23  1  0
M  END
$$$$

     RDKit          3D

 23 24  0  0  0  0  0  0  0  0999 V2000
    3.1223    1.9000    0.5861 N   0  0  0  0  0  0  0  0  0  0  0  0
    2.5239    0.7417    0.0181 C   0  0  0  0  0  0  0  0  0  0  0  0
    3.2496   -0.0517   -0.7845 N   0  0  0  0  0  0  0  0  0  0  0  0
    2.7351   -1.1472   -1.3405 C   0  0  0  0  0  0  0  0  0  0  0  0
    1.4060   -1.5053   -1.0994 C   0  0  0  0  0  0  0  0  0  0  0  0
    0.6729   -0.6801   -0.2725 C   0  0  0  0  0  0  0  0  0  0  0  0
   -0.6791   -1.0175   -0.0091 N   0  0  0  0  0  0  0  0  0  0  0  0
   -1.4528   -0.1634    0.8521 C   0  0  2  0  0  0  0  0  0  0  0  0
   -2.8708   -0.6666    1.0268 C   0  0  0  0  0  0  0  0  0  0  0  0
   -3.4555   -0.3362   -0.1941 O   0  0  0  0  0  0  0  0  0  0  0  0
   -2.9827    0.8881   -0.5106 N   0  0  0  0  0  0  0  0  0  0  0  0
   -1.7096    1.1005    0.0925 C   0  0  0  0  0  0  0  0  0  0  0  0
   -0.9858    2.1143   -0.0005 O   0  0  0  0  0  0  0  0  0  0  0  0
    1.2252    0.4169    0.2707 N   0  0  0  0  0  0  0  0  0  0  0  0
    3.6084    2.5522   -0.0679 H   0  0  0  0  0  0  0  0  0  0  0  0
    3.0960    2.1190    1.6032 H   0  0  0  0  0  0  0  0  0  0  0  0
    3.3056   -1.7811   -1.9784 H   0  0  0  0  0  0  0  0  0  0  0  0
    0.9771   -2.3936   -1.5459 H   0  0  0  0  0  0  0  0  0  0  0  0
   -1.1277   -1.8558   -0.4145 H   0  0  0  0  0  0  0  0  0  0  0  0
   -0.9576    0.0390    1.8206 H   0  0  0  0  0  0  0  0  0  0  0  0
   -3.3245   -0.0835    1.8585 H   0  0  0  0  0  0  0  0  0  0  0  0
   -2.8796   -1.7525    1.2021 H   0  0  0  0  0  0  0  0  0  0  0  0
   -3.4963    1.5628   -1.1128 H   0  0  0  0  0  0  0  0  0  0  0  0
  1  2  1  0
  2  3  2  0
  3  4  1  0
  4  5  2  0
  5  6  1  0
  6  7  1  0
  7  8  1  0
  8  9  1  0
  9 10  1  0
 10 11  1  0
 11 12  1  0
 12 13  2  0
  6 14  2  0
 14  2  1  0
 12  8  1  0
  1 15  1  0
  1 16  1  0
  4 17  1  0
  5 18  1  0
  7 19  1  0
  8 20  1  1
  9 21  1  0
  9 22  1  0
 11 23  1  0
M  END
$$$$

     RDKit          3D

 23 24  0  0  0  0  0  0  0  0999 V2000
    4.0648    1.1975    0.6624 N   0  0  0  0  0  0  0  0  0  0  0  0
    3.0045    0.3040    0.3442 C   0  0  0  0  0  0  0  0  0  0  0  0
    3.1494   -1.0243    0.2581 N   0  0  0  0  0  0  0  0  0  0  0  0
    2.1508   -1.8787   -0.0429 C   0  0  0  0  0  0  0  0  0  0  0  0
    0.8963   -1.3261   -0.2756 C   0  0  0  0  0  0  0  0  0  0  0  0
    0.7230    0.0325   -0.1930 C   0  0  0  0  0  0  0  0  0  0  0  0
   -0.5350    0.6013   -0.4202 N   0  0  0  0  0  0  0  0  0  0  0  0
   -1.7273   -0.1584   -0.7320 C   0  0  2  0  0  0  0  0  0  0  0  0
   -2.8607    0.8352   -0.9748 C   0  0  0  0  0  0  0  0  0  0  0  0
   -3.1865    1.3474    0.2704 O   0  0  0  0  0  0  0  0  0  0  0  0
   -2.8563    0.4198    1.1948 N   0  0  0  0  0  0  0  0  0  0  0  0
   -2.2278   -0.7115    0.5799 C   0  0  0  0  0  0  0  0  0  0  0  0
   -2.1488   -1.8492    1.0649 O   0  0  0  0  0  0  0  0  0  0  0  0
    1.7694    0.8058    0.1113 N   0  0  0  0  0  0  0  0  0  0  0  0
    4.5489    1.1271    1.6032 H   0  0  0  0  0  0  0  0  0  0  0  0
    4.3302    1.9004   -0.0552 H   0  0  0  0  0  0  0  0  0  0  0  0
    2.2579   -2.9384   -0.1135 H   0  0  0  0  0  0  0  0  0  0  0  0
    0.0638   -1.9685   -0.5239 H   0  0  0  0  0  0  0  0  0  0  0  0
   -0.6170    1.6454   -0.3600 H   0  0  0  0  0  0  0  0  0  0  0  0
   -1.6189   -0.9072   -1.5038 H   0  0  0  0  0  0  0  0  0  0  0  0
   -3.6889    0.3536   -1.4993 H   0  0  0  0  0  0  0  0  0  0  0  0
   -2.4444    1.6481   -1.5955 H   0  0  0  0  0  0  0  0  0  0  0  0
   -3.0472    0.5442    2.2003 H   0  0  0  0  0  0  0  0  0  0  0  0
  1  2  1  0
  2  3  2  0
  3  4  1  0
  4  5  2  0
  5  6  1  0
  6  7  1  0
  7  8  1  0
  8  9  1  0
  9 10  1  0
 10 11  1  0
 11 12  1  0
 12 13  2  0
  6 14  2  0
 14  2  1  0
 12  8  1  0
  1 15  1  0
  1 16  1  0
  4 17  1  0
  5 18  1  0
  7 19  1  0
  8 20  1  6
  9 21  1  0
  9 22  1  0
 11 23  1  0
M  END
$$$$
