
     RDKit          3D

 16 17  0  0  0  0  0  0  0  0999 V2000
   -0.9572    2.8270   -1.3248 O   0  0  0  0  0  0  0  0  0  0  0  0
   -0.5967    1.6887   -0.9732 C   0  0  0  0  0  0  0  0  0  0  0  0
    0.4490    0.9885   -1.5465 O   0  0  0  0  0  0  0  0  0  0  0  0
    0.5823   -0.2912   -0.9067 C   0  0  1  0  0  0  0  0  0  0  0  0
    1.3511   -0.0910    0.3638 C   0  0  2  0  0  0  0  0  0  0  0  0
    1.7819   -1.2474    0.9535 O   0  0  0  0  0  0  0  0  0  0  0  0
    0.1060    0.7802    1.4045 S   0  0  0  0  0  0  0  0  0  0  0  0
   -1.1586    0.8623    0.0716 C   0  0  2  0  0  0  0  0  0  0  0  0
   -0.8830   -0.5313   -0.5198 C   0  0  2  0  0  0  0  0  0  0  0  0
   -1.0069   -1.5137    0.4301 O   0  0  0  0  0  0  0  0  0  0  0  0
    0.9711   -1.0553   -1.5707 H   0  0  0  0  0  0  0  0  0  0  0  0
    2.1769    0.6168    0.1551 H   0  0  0  0  0  0  0  0  0  0  0  0
    2.6904   -1.4489    0.6160 H   0  0  0  0  0  0  0  0  0  0  0  0
   -2.1448    1.0173    0.4124 H   0  0  0  0  0  0  0  0  0  0  0  0
   -1.4325   -0.7004   -1.4443 H   0  0  0  0  0  0  0  0  0  0  0  0
   -1.9292   -1.9017    0.3361 H   0  0  0  0  0  0  0  0  0  0  0  0
  1  2  2  0
  2  3  1  0
  3  4  1  0
  4  5  1  0
  5  6  1  0
  5  7  1  0
  7  8  1  0
  8  9  1  0
  9 10  1  0
  8  2  1  0
  9  4  1  0
  4 11  1  6
  5 12  1  6
  6 13  1  0
  8 14  1  1
  9 15  1  6
 10 16  1  0
M  END
$$$$

     RDKit          3D

 16 17  0  0  0  0  0  0  0  0999 V2000
   -0.7995    3.0433    0.3394 O   0  0  0  0  0  0  0  0  0  0  0  0
   -0.5146    1.8572    0.1016 C   0  0  0  0  0  0  0  0  0  0  0  0
    0.3702    1.4395   -0.8758 O   0  0  0  0  0  0  0  0  0  0  0  0
    0.4363    0.0092   -0.8931 C   0  0  1  0  0  0  0  0  0  0  0  0
    1.3804   -0.4321    0.1879 C   0  0  2  0  0  0  0  0  0  0  0  0
    1.7200   -1.7538    0.1313 O   0  0  0  0  0  0  0  0  0  0  0  0
    0.3937   -0.0421    1.6949 S   0  0  0  0  0  0  0  0  0  0  0  0
   -1.0202    0.6765    0.7640 C   0  0  2  0  0  0  0  0  0  0  0  0
   -0.9854   -0.3193   -0.4090 C   0  0  2  0  0  0  0  0  0  0  0  0
   -1.0917   -1.6073    0.0495 O   0  0  0  0  0  0  0  0  0  0  0  0
    0.6395   -0.3954   -1.8778 H   0  0  0  0  0  0  0  0  0  0  0  0
    2.2254    0.2692    0.2049 H   0  0  0  0  0  0  0  0  0  0  0  0
    2.6443   -1.8031   -0.2727 H   0  0  0  0  0  0  0  0  0  0  0  0
   -1.9289    0.7038    1.3000 H   0  0  0  0  0  0  0  0  0  0  0  0
   -1.6664   -0.0378   -1.2068 H   0  0  0  0  0  0  0  0  0  0  0  0
   -1.8033   -1.6077    0.7617 H   0  0  0  0  0  0  0  0  0  0  0  0
  1  2  2  0
  2  3  1  0
  3  4  1  0
  4  5  1  0
  5  6  1  0
  5  7  1  0
  7  8  1  0
  8  9  1  0
  9 10  1  0
  8  2  1  0
  9  4  1  0
  4 11  1  6
  5 12  1  1
  6 13  1  0
  8 14  1  1
  9 15  1  6
 10 16  1  0
M  END
$$$$

     RDKit          3D

 16 17  0  0  0  0  0  0  0  0999 V2000
   -1.7237    2.4021   -1.6949 O   0  0  0  0  0  0  0  0  0  0  0  0
   -1.0074    1.4743   -1.3029 C   0  0  0  0  0  0  0  0  0  0  0  0
   -0.1367    0.6362   -2.0304 O   0  0  0  0  0  0  0  0  0  0  0  0
    0.2648   -0.4657   -1.2600 C   0  0  1  0  0  0  0  0  0  0  0  0
    1.5403   -0.1121   -0.4802 C   0  0  2  0  0  0  0  0  0  0  0  0
    1.9080   -1.1145    0.3742 O   0  0  0  0  0  0  0  0  0  0  0  0
    0.8635    1.2486    0.5625 S   0  0  0  0  0  0  0  0  0  0  0  0
   -0.8852    0.9982    0.0843 C   0  0  2  0  0  0  0  0  0  0  0  0
   -0.8423   -0.5117   -0.1939 C   0  0  2  0  0  0  0  0  0  0  0  0
   -0.4832   -1.2389    0.9032 O   0  0  0  0  0  0  0  0  0  0  0  0
    0.3530   -1.3968   -1.8054 H   0  0  0  0  0  0  0  0  0  0  0  0
    2.3001    0.2446   -1.1660 H   0  0  0  0  0  0  0  0  0  0  0  0
    2.3657   -0.6752    1.1603 H   0  0  0  0  0  0  0  0  0  0  0  0
   -1.5992    1.3109    0.7948 H   0  0  0  0  0  0  0  0  0  0  0  0
   -1.7458   -0.8364   -0.7076 H   0  0  0  0  0  0  0  0  0  0  0  0
   -1.1718   -1.9636    1.0286 H   0  0  0  0  0  0  0  0  0  0  0  0
  1  2  2  0
  2  3  1  0
  3  4  1  0
  4  5  1  0
  5  6  1  0
  5  7  1  0
  7  8  1  0
  8  9  1  0
  9 10  1  0
  8  2  1  0
  9  4  1  0
  4 11  1  6
  5 12  1  6
  6 13  1  0
  8 14  1  1
  9 15  1  6
 10 16  1  0
M  END
$$$$

     RDKit          3D

 16 17  0  0  0  0  0  0  0  0999 V2000
   -2.4029   -2.1118    0.3515 O   0  0  0  0  0  0  0  0  0  0  0  0
   -1.4625   -1.2919    0.2728 C   0  0  0  0  0  0  0  0  0  0  0  0
   -0.2940   -1.3861    1.0148 O   0  0  0  0  0  0  0  0  0  0  0  0
    0.5459   -0.2684    0.7591 C   0  0  1  0  0  0  0  0  0  0  0  0
    1.3481   -0.5156   -0.5153 C   0  0  2  0  0  0  0  0  0  0  0  0
    2.2641    0.4858   -0.7109 O   0  0  0  0  0  0  0  0  0  0  0  0
   -0.0039   -0.4496   -1.7667 S   0  0  0  0  0  0  0  0  0  0  0  0
   -1.3398   -0.1059   -0.5516 C   0  0  2  0  0  0  0  0  0  0  0  0
   -0.5069    0.7878    0.3825 C   0  0  2  0  0  0  0  0  0  0  0  0
    0.0550    1.8173   -0.3190 O   0  0  0  0  0  0  0  0  0  0  0  0
    1.1547    0.0313    1.6022 H   0  0  0  0  0  0  0  0  0  0  0  0
    1.7510   -1.5350   -0.5519 H   0  0  0  0  0  0  0  0  0  0  0  0
    2.7371    0.6315    0.1641 H   0  0  0  0  0  0  0  0  0  0  0  0
   -2.1988    0.3510   -0.9615 H   0  0  0  0  0  0  0  0  0  0  0  0
   -1.0367    1.0492    1.2905 H   0  0  0  0  0  0  0  0  0  0  0  0
   -0.6104    2.5103   -0.4605 H   0  0  0  0  0  0  0  0  0  0  0  0
  1  2  2  0
  2  3  1  0
  3  4  1  0
  4  5  1  0
  5  6  1  0
  5  7  1  0
  7  8  1  0
  8  9  1  0
  9 10  1  0
  8  2  1  0
  9  4  1  0
  4 11  1  1
  5 12  1  1
  6 13  1  0
  8 14  1  6
  9 15  1  1
 10 16  1  0
M  END
$$$$

     RDKit          3D

 16 17  0  0  0  0  0  0  0  0999 V2000
   -1.8448    2.6565   -0.0639 O   0  0  0  0  0  0  0  0  0  0  0  0
   -1.1446    1.6172   -0.1493 C   0  0  0  0  0  0  0  0  0  0  0  0
   -0.1501    1.4088   -1.1174 O   0  0  0  0  0  0  0  0  0  0  0  0
    0.3947    0.1128   -1.0145 C   0  0  1  0  0  0  0  0  0  0  0  0
    1.4748    0.1165    0.0497 C   0  0  2  0  0  0  0  0  0  0  0  0
    2.1890   -1.0439    0.1110 O   0  0  0  0  0  0  0  0  0  0  0  0
    0.4514    0.3660    1.5606 S   0  0  0  0  0  0  0  0  0  0  0  0
   -1.1510    0.4062    0.6667 C   0  0  2  0  0  0  0  0  0  0  0  0
   -0.7907   -0.6454   -0.3939 C   0  0  2  0  0  0  0  0  0  0  0  0
   -0.4110   -1.8371    0.1621 O   0  0  0  0  0  0  0  0  0  0  0  0
    0.7078   -0.3228   -1.9570 H   0  0  0  0  0  0  0  0  0  0  0  0
    2.1047    1.0181   -0.0904 H   0  0  0  0  0  0  0  0  0  0  0  0
    2.3214   -1.4217    1.0046 H   0  0  0  0  0  0  0  0  0  0  0  0
   -1.9952    0.1805    1.2585 H   0  0  0  0  0  0  0  0  0  0  0  0
   -1.5694   -0.6978   -1.1496 H   0  0  0  0  0  0  0  0  0  0  0  0
   -0.5869   -1.9139    1.1231 H   0  0  0  0  0  0  0  0  0  0  0  0
  1  2  2  0
  2  3  1  0
  3  4  1  0
  4  5  1  0
  5  6  1  0
  5  7  1  0
  7  8  1  0
  8  9  1  0
  9 10  1  0
  8  2  1  0
  9  4  1  0
  4 11  1  6
  5 12  1  6
  6 13  1  0
  8 14  1  1
  9 15  1  6
 10 16  1  0
M  END
$$$$

     RDKit          3D

 16 17  0  0  0  0  0  0  0  0999 V2000
   -2.7240    1.5750    0.8421 O   0  0  0  0  0  0  0  0  0  0  0  0
   -1.6530    1.0341    0.5026 C   0  0  0  0  0  0  0  0  0  0  0  0
   -0.4308    1.6841    0.3814 O   0  0  0  0  0  0  0  0  0  0  0  0
    0.5540    0.8258   -0.1616 C   0  0  1  0  0  0  0  0  0  0  0  0
    1.2023   -0.0531    0.9061 C   0  0  2  0  0  0  0  0  0  0  0  0
    2.1068   -0.8791    0.2633 O   0  0  0  0  0  0  0  0  0  0  0  0
   -0.2705   -1.0156    1.4500 S   0  0  0  0  0  0  0  0  0  0  0  0
   -1.3931   -0.3590    0.1549 C   0  0  2  0  0  0  0  0  0  0  0  0
   -0.3277   -0.1669   -0.9374 C   0  0  2  0  0  0  0  0  0  0  0  0
    0.3875   -1.3260   -1.1098 O   0  0  0  0  0  0  0  0  0  0  0  0
    1.2747    1.3269   -0.7994 H   0  0  0  0  0  0  0  0  0  0  0  0
    1.5988    0.5085    1.7427 H   0  0  0  0  0  0  0  0  0  0  0  0
    2.8402   -0.3290   -0.0577 H   0  0  0  0  0  0  0  0  0  0  0  0
   -2.1945   -0.9937   -0.1029 H   0  0  0  0  0  0  0  0  0  0  0  0
   -0.7386    0.2770   -1.8367 H   0  0  0  0  0  0  0  0  0  0  0  0
   -0.2321   -2.1090   -1.2377 H   0  0  0  0  0  0  0  0  0  0  0  0
  1  2  2  0
  2  3  1  0
  3  4  1  0
  4  5  1  0
  5  6  1  0
  5  7  1  0
  7  8  1  0
  8  9  1  0
  9 10  1  0
  8  2  1  0
  9  4  1  0
  4 11  1  6
  5 12  1  1
  6 13  1  0
  8 14  1  6
  9 15  1  6
 10 16  1  0
M  END
$$$$

     RDKit          3D

 16 17  0  0  0  0  0  0  0  0999 V2000
   -2.6454   -1.8685    0.7660 O   0  0  0  0  0  0  0  0  0  0  0  0
   -1.6137   -1.1869    0.5475 C   0  0  0  0  0  0  0  0  0  0  0  0
   -0.3940   -1.2590    1.2295 O   0  0  0  0  0  0  0  0  0  0  0  0
    0.4380   -0.1627    0.8720 C   0  0  1  0  0  0  0  0  0  0  0  0
    1.2611   -0.5907   -0.3282 C   0  0  2  0  0  0  0  0  0  0  0  0
    2.1199    0.3954   -0.7624 O   0  0  0  0  0  0  0  0  0  0  0  0
   -0.0907   -0.7478   -1.5743 S   0  0  0  0  0  0  0  0  0  0  0  0
   -1.4301   -0.1554   -0.4664 C   0  0  2  0  0  0  0  0  0  0  0  0
   -0.5877    0.8501    0.3359 C   0  0  2  0  0  0  0  0  0  0  0  0
   -0.0278    1.7478   -0.5265 O   0  0  0  0  0  0  0  0  0  0  0  0
    1.0210    0.2287    1.6942 H   0  0  0  0  0  0  0  0  0  0  0  0
    1.7370   -1.5499   -0.1379 H   0  0  0  0  0  0  0  0  0  0  0  0
    2.8466    0.5641   -0.1390 H   0  0  0  0  0  0  0  0  0  0  0  0
   -2.2683    0.2514   -0.9616 H   0  0  0  0  0  0  0  0  0  0  0  0
   -1.1240    1.2578    1.1852 H   0  0  0  0  0  0  0  0  0  0  0  0
    0.7579    2.2257   -0.1706 H   0  0  0  0  0  0  0  0  0  0  0  0
  1  2  2  0
  2  3  1  0
  3  4  1  0
  4  5  1  0
  5  6  1  0
  5  7  1  0
  7  8  1  0
  8  9  1  0
  9 10  1  0
  8  2  1  0
  9  4  1  0
  4 11  1  1
  5 12  1  1
  6 13  1  0
  8 14  1  6
  9 15  1  1
 10 16  1  0
M  END
$$$$

     RDKit          3D

 16 17  0  0  0  0  0  0  0  0999 V2000
    1.7734    2.6502   -0.3992 O   0  0  0  0  0  0  0  0  0  0  0  0
    1.1280    1.6054   -0.1637 C   0  0  0  0  0  0  0  0  0  0  0  0
    0.2944    1.4751    0.9360 O   0  0  0  0  0  0  0  0  0  0  0  0
   -0.3086    0.1743    0.9440 C   0  0  1  0  0  0  0  0  0  0  0  0
   -1.4699    0.1947   -0.0025 C   0  0  2  0  0  0  0  0  0  0  0  0
   -2.3114   -0.8724    0.0897 O   0  0  0  0  0  0  0  0  0  0  0  0
   -0.6114    0.2575   -1.6325 S   0  0  0  0  0  0  0  0  0  0  0  0
    1.0700    0.3565   -0.8959 C   0  0  2  0  0  0  0  0  0  0  0  0
    0.8130   -0.6220    0.2614 C   0  0  2  0  0  0  0  0  0  0  0  0
    0.3988   -1.8469   -0.1743 O   0  0  0  0  0  0  0  0  0  0  0  0
   -0.5290   -0.1854    1.9431 H   0  0  0  0  0  0  0  0  0  0  0  0
   -1.9696    1.1863    0.0951 H   0  0  0  0  0  0  0  0  0  0  0  0
   -2.5540   -1.2785   -0.7810 H   0  0  0  0  0  0  0  0  0  0  0  0
    1.8518    0.0831   -1.5499 H   0  0  0  0  0  0  0  0  0  0  0  0
    1.6760   -0.6048    0.9177 H   0  0  0  0  0  0  0  0  0  0  0  0
    0.7485   -2.5730    0.4119 H   0  0  0  0  0  0  0  0  0  0  0  0
  1  2  2  0
  2  3  1  0
  3  4  1  0
  4  5  1  0
  5  6  1  0
  5  7  1  0
  7  8  1  0
  8  9  1  0
  9 10  1  0
  8  2  1  0
  9  4  1  0
  4 11  1  1
  5 12  1  1
  6 13  1  0
  8 14  1  6
  9 15  1  1
 10 16  1  0
M  END
$$$$
