
     RDKit          3D

 20 21  0  0  0  0  0  0  0  0999 V2000
    2.5748    2.6444    0.0995 O   0  0  0  0  0  0  0  0  0  0  0  0
    2.2732    1.4190    0.1175 C   0  0  0  0  0  0  0  0  0  0  0  0
    0.9899    0.8090    0.0388 N   0  0  0  0  0  0  0  0  0  0  0  0
    1.0809   -0.4706    0.0889 C   0  0  0  0  0  0  0  0  0  0  0  0
   -0.0815   -1.3005    0.0270 N   0  0  0  0  0  0  0  0  0  0  0  0
   -1.4031   -0.8547   -0.0668 C   0  0  2  0  0  0  0  0  0  0  0  0
   -1.8047   -0.0352   -1.2311 C   0  0  0  0  0  0  0  0  0  0  0  0
   -2.9262    0.6444   -0.7225 O   0  0  0  0  0  0  0  0  0  0  0  0
   -2.5070    1.1134    0.4739 N   0  0  0  0  0  0  0  0  0  0  0  0
   -1.7544    0.0662    1.0771 C   0  0  0  0  0  0  0  0  0  0  0  0
   -1.4326   -0.0977    2.2716 O   0  0  0  0  0  0  0  0  0  0  0  0
    2.4389   -0.8667    0.2072 N   0  0  0  0  0  0  0  0  0  0  0  0
    3.2287    0.3119    0.2285 C   0  0  0  0  0  0  0  0  0  0  0  0
    4.4854    0.3625    0.3239 O   0  0  0  0  0  0  0  0  0  0  0  0
    0.1015   -2.3267    0.0558 H   0  0  0  0  0  0  0  0  0  0  0  0
   -2.1059   -1.7087    0.0131 H   0  0  0  0  0  0  0  0  0  0  0  0
   -2.1414   -0.6614   -2.0823 H   0  0  0  0  0  0  0  0  0  0  0  0
   -1.1094    0.7407   -1.5470 H   0  0  0  0  0  0  0  0  0  0  0  0
   -2.6816    2.0651    0.9137 H   0  0  0  0  0  0  0  0  0  0  0  0
    2.7744   -1.8544    0.2663 H   0  0  0  0  0  0  0  0  0  0  0  0
  1  2  2  0
  2  3  1  0
  3  4  2  0
  4  5  1  0
  5  6  1  0
  6  7  1  0
  7  8  1  0
  8  9  1  0
  9 10  1  0
 10 11  2  0
  4 12  1  0
 12 13  1  0
 13 14  2  0
 13  2  1  0
 10  6  1  0
  5 15  1  0
  6 16  1  1
  7 17  1  0
  7 18  1  0
  9 19  1  0
 12 20  1  0
M  END
$$$$

     RDKit          3D

 20 21  0  0  0  0  0  0  0  0999 V2000
    2.5480    2.8848    1.5450 O   0  0  0  0  0  0  0  0  0  0  0  0
    2.0810    1.7118    1.4840 C   0  0  0  0  0  0  0  0  0  0  0  0
    1.1520    1.1713    0.5557 N   0  0  0  0  0  0  0  0  0  0  0  0
    0.9112   -0.0685    0.8101 C   0  0  0  0  0  0  0  0  0  0  0  0
    0.0205   -0.8782    0.0513 N   0  0  0  0  0  0  0  0  0  0  0  0
   -0.4829   -0.4487   -1.2513 C   0  0  2  0  0  0  0  0  0  0  0  0
   -1.2564    0.8452   -1.1548 C   0  0  0  0  0  0  0  0  0  0  0  0
   -2.5161    0.5937   -1.6829 O   0  0  0  0  0  0  0  0  0  0  0  0
   -2.7697   -0.7150   -1.4785 N   0  0  0  0  0  0  0  0  0  0  0  0
   -1.5410   -1.3995   -1.6818 C   0  0  0  0  0  0  0  0  0  0  0  0
   -1.4203   -2.5773   -2.1383 O   0  0  0  0  0  0  0  0  0  0  0  0
    1.6607   -0.4993    1.9492 N   0  0  0  0  0  0  0  0  0  0  0  0
    2.4210    0.6215    2.4035 C   0  0  0  0  0  0  0  0  0  0  0  0
    3.2084    0.6757    3.3721 O   0  0  0  0  0  0  0  0  0  0  0  0
   -0.2676   -1.7978    0.4536 H   0  0  0  0  0  0  0  0  0  0  0  0
    0.3323   -0.3646   -1.9928 H   0  0  0  0  0  0  0  0  0  0  0  0
   -0.7458    1.6130   -1.7753 H   0  0  0  0  0  0  0  0  0  0  0  0
   -1.3018    1.2385   -0.1184 H   0  0  0  0  0  0  0  0  0  0  0  0
   -3.7036   -1.1474   -1.2178 H   0  0  0  0  0  0  0  0  0  0  0  0
    1.6700   -1.4592    2.3929 H   0  0  0  0  0  0  0  0  0  0  0  0
  1  2  2  0
  2  3  1  0
  3  4  2  0
  4  5  1  0
  5  6  1  0
  6  7  1  0
  7  8  1  0
  8  9  1  0
  9 10  1  0
 10 11  2  0
  4 12  1  0
 12 13  1  0
 13 14  2  0
 13  2  1  0
 10  6  1  0
  5 15  1  0
  6 16  1  6
  7 17  1  0
  7 18  1  0
  9 19  1  0
 12 20  1  0
M  END
$$$$

     RDKit          3D

 20 21  0  0  0  0  0  0  0  0999 V2000
    3.5977    1.8928    0.6881 O   0  0  0  0  0  0  0  0  0  0  0  0
    2.9414    0.8458    0.4279 C   0  0  0  0  0  0  0  0  0  0  0  0
    1.5637    0.8152   -0.0023 N   0  0  0  0  0  0  0  0  0  0  0  0
    1.1714   -0.3926   -0.1889 C   0  0  0  0  0  0  0  0  0  0  0  0
   -0.1439   -0.7186   -0.6155 N   0  0  0  0  0  0  0  0  0  0  0  0
   -1.1865    0.2970   -0.6876 C   0  0  2  0  0  0  0  0  0  0  0  0
   -1.3534    0.8554    0.6991 C   0  0  0  0  0  0  0  0  0  0  0  0
   -2.6608    0.7270    1.0707 O   0  0  0  0  0  0  0  0  0  0  0  0
   -3.3806    0.3049    0.0322 N   0  0  0  0  0  0  0  0  0  0  0  0
   -2.5170   -0.3178   -0.9342 C   0  0  0  0  0  0  0  0  0  0  0  0
   -2.8859   -1.1715   -1.7556 O   0  0  0  0  0  0  0  0  0  0  0  0
    2.2518   -1.3067    0.0982 N   0  0  0  0  0  0  0  0  0  0  0  0
    3.3780   -0.5397    0.4895 C   0  0  0  0  0  0  0  0  0  0  0  0
    4.5027   -0.9687    0.8164 O   0  0  0  0  0  0  0  0  0  0  0  0
   -0.3909   -1.6817   -0.8840 H   0  0  0  0  0  0  0  0  0  0  0  0
   -0.9325    1.0773   -1.4325 H   0  0  0  0  0  0  0  0  0  0  0  0
   -0.7344    0.3044    1.4613 H   0  0  0  0  0  0  0  0  0  0  0  0
   -0.9763    1.9000    0.7293 H   0  0  0  0  0  0  0  0  0  0  0  0
   -4.4220    0.4288   -0.0312 H   0  0  0  0  0  0  0  0  0  0  0  0
    2.1773   -2.3514    0.0190 H   0  0  0  0  0  0  0  0  0  0  0  0
  1  2  2  0
  2  3  1  0
  3  4  2  0
  4  5  1  0
  5  6  1  0
  6  7  1  0
  7  8  1  0
  8  9  1  0
  9 10  1  0
 10 11  2  0
  4 12  1  0
 12 13  1  0
 13 14  2  0
 13  2  1  0
 10  6  1  0
  5 15  1  0
  6 16  1  6
  7 17  1  0
  7 18  1  0
  9 19  1  0
 12 20  1  0
M  END
$$$$

     RDKit          3D

 20 21  0  0  0  0  0  0  0  0999 V2000
    3.0972    2.5789   -0.9609 O   0  0  0  0  0  0  0  0  0  0  0  0
    2.6595    1.4651   -0.5715 C   0  0  0  0  0  0  0  0  0  0  0  0
    1.2968    1.0772   -0.4348 N   0  0  0  0  0  0  0  0  0  0  0  0
    1.2119   -0.1398   -0.0096 C   0  0  0  0  0  0  0  0  0  0  0  0
   -0.0254   -0.8267    0.2314 N   0  0  0  0  0  0  0  0  0  0  0  0
   -1.2036   -0.5223   -0.5289 C   0  0  2  0  0  0  0  0  0  0  0  0
   -1.6131    0.9284   -0.3695 C   0  0  0  0  0  0  0  0  0  0  0  0
   -3.0079    0.8713   -0.3552 O   0  0  0  0  0  0  0  0  0  0  0  0
   -3.2956   -0.1829    0.4202 N   0  0  0  0  0  0  0  0  0  0  0  0
   -2.3606   -1.2220    0.0868 C   0  0  0  0  0  0  0  0  0  0  0  0
   -2.4894   -2.4682    0.2748 O   0  0  0  0  0  0  0  0  0  0  0  0
    2.5077   -0.6957    0.1835 N   0  0  0  0  0  0  0  0  0  0  0  0
    3.4647    0.2965   -0.1639 C   0  0  0  0  0  0  0  0  0  0  0  0
    4.7155    0.2550   -0.1504 O   0  0  0  0  0  0  0  0  0  0  0  0
   -0.0423   -1.5546    0.9765 H   0  0  0  0  0  0  0  0  0  0  0  0
   -1.0817   -0.7865   -1.5961 H   0  0  0  0  0  0  0  0  0  0  0  0
   -1.2482    1.5478   -1.2200 H   0  0  0  0  0  0  0  0  0  0  0  0
   -1.2890    1.3489    0.5880 H   0  0  0  0  0  0  0  0  0  0  0  0
   -4.0389   -0.3128    1.1534 H   0  0  0  0  0  0  0  0  0  0  0  0
    2.7426   -1.6575    0.5194 H   0  0  0  0  0  0  0  0  0  0  0  0
  1  2  2  0
  2  3  1  0
  3  4  2  0
  4  5  1  0
  5  6  1  0
  6  7  1  0
  7  8  1  0
  8  9  1  0
  9 10  1  0
 10 11  2  0
  4 12  1  0
 12 13  1  0
 13 14  2  0
 13  2  1  0
 10  6  1  0
  5 15  1  0
  6 16  1  6
  7 17  1  0
  7 18  1  0
  9 19  1  0
 12 20  1  0
M  END
$$$$

     RDKit          3D

 20 21  0  0  0  0  0  0  0  0999 V2000
    2.3811    2.0163    1.8727 O   0  0  0  0  0  0  0  0  0  0  0  0
    2.1418    1.0286    1.1232 C   0  0  0  0  0  0  0  0  0  0  0  0
    0.8791    0.4777    0.7666 N   0  0  0  0  0  0  0  0  0  0  0  0
    1.0343   -0.5370   -0.0253 C   0  0  0  0  0  0  0  0  0  0  0  0
   -0.0712   -1.2695   -0.5307 N   0  0  0  0  0  0  0  0  0  0  0  0
   -1.4020   -0.7699   -0.5037 C   0  0  2  0  0  0  0  0  0  0  0  0
   -1.5591    0.5346   -1.2845 C   0  0  0  0  0  0  0  0  0  0  0  0
   -2.7438    1.0339   -0.7556 O   0  0  0  0  0  0  0  0  0  0  0  0
   -2.6353    0.8447    0.5784 N   0  0  0  0  0  0  0  0  0  0  0  0
   -1.8333   -0.3037    0.8466 C   0  0  0  0  0  0  0  0  0  0  0  0
   -1.5721   -0.7827    1.9686 O   0  0  0  0  0  0  0  0  0  0  0  0
    2.4307   -0.7599   -0.2734 N   0  0  0  0  0  0  0  0  0  0  0  0
    3.1652    0.2239    0.4462 C   0  0  0  0  0  0  0  0  0  0  0  0
    4.4084    0.4053    0.5186 O   0  0  0  0  0  0  0  0  0  0  0  0
    0.1240   -2.2109   -0.9341 H   0  0  0  0  0  0  0  0  0  0  0  0
   -2.1355   -1.4860   -0.8674 H   0  0  0  0  0  0  0  0  0  0  0  0
   -1.6208    0.3573   -2.3606 H   0  0  0  0  0  0  0  0  0  0  0  0
   -0.7407    1.2146   -0.9856 H   0  0  0  0  0  0  0  0  0  0  0  0
   -3.0986    1.4861    1.2700 H   0  0  0  0  0  0  0  0  0  0  0  0
    2.8475   -1.5034   -0.8702 H   0  0  0  0  0  0  0  0  0  0  0  0
  1  2  2  0
  2  3  1  0
  3  4  2  0
  4  5  1  0
  5  6  1  0
  6  7  1  0
  7  8  1  0
  8  9  1  0
  9 10  1  0
 10 11  2  0
  4 12  1  0
 12 13  1  0
 13 14  2  0
 13  2  1  0
 10  6  1  0
  5 15  1  0
  6 16  1  6
  7 17  1  0
  7 18  1  0
  9 19  1  0
 12 20  1  0
M  END
$$$$

     RDKit          3D

 20 21  0  0  0  0  0  0  0  0999 V2000
    2.2607    1.8961    2.1936 O   0  0  0  0  0  0  0  0  0  0  0  0
    2.0741    1.0627    1.2450 C   0  0  0  0  0  0  0  0  0  0  0  0
    0.8542    0.4386    0.8625 N   0  0  0  0  0  0  0  0  0  0  0  0
    1.0591   -0.3425   -0.1418 C   0  0  0  0  0  0  0  0  0  0  0  0
    0.0318   -1.1066   -0.7515 N   0  0  0  0  0  0  0  0  0  0  0  0
   -1.3436   -0.8106   -0.4555 C   0  0  2  0  0  0  0  0  0  0  0  0
   -1.7231    0.6039   -0.8348 C   0  0  0  0  0  0  0  0  0  0  0  0
   -2.8529    0.8161   -0.0498 O   0  0  0  0  0  0  0  0  0  0  0  0
   -2.5688    0.2699    1.1631 N   0  0  0  0  0  0  0  0  0  0  0  0
   -1.6098   -0.7720    1.0107 C   0  0  0  0  0  0  0  0  0  0  0  0
   -1.1385   -1.4592    1.9297 O   0  0  0  0  0  0  0  0  0  0  0  0
    2.4223   -0.3300   -0.5405 N   0  0  0  0  0  0  0  0  0  0  0  0
    3.1018    0.5639    0.3315 C   0  0  0  0  0  0  0  0  0  0  0  0
    4.3240    0.8440    0.2983 O   0  0  0  0  0  0  0  0  0  0  0  0
    0.2281   -1.8847   -1.4144 H   0  0  0  0  0  0  0  0  0  0  0  0
   -2.0445   -1.4871   -0.9791 H   0  0  0  0  0  0  0  0  0  0  0  0
   -0.9023    1.3078   -0.5848 H   0  0  0  0  0  0  0  0  0  0  0  0
   -2.0179    0.6450   -1.9066 H   0  0  0  0  0  0  0  0  0  0  0  0
   -3.0278    0.6175    2.0367 H   0  0  0  0  0  0  0  0  0  0  0  0
    2.8731   -0.8729   -1.3321 H   0  0  0  0  0  0  0  0  0  0  0  0
  1  2  2  0
  2  3  1  0
  3  4  2  0
  4  5  1  0
  5  6  1  0
  6  7  1  0
  7  8  1  0
  8  9  1  0
  9 10  1  0
 10 11  2  0
  4 12  1  0
 12 13  1  0
 13 14  2  0
 13  2  1  0
 10  6  1  0
  5 15  1  0
  6 16  1  6
  7 17  1  0
  7 18  1  0
  9 19  1  0
 12 20  1  0
M  END
$$$$

     RDKit          3D

 20 21  0  0  0  0  0  0  0  0999 V2000
    3.2754    2.0820    1.5215 O   0  0  0  0  0  0  0  0  0  0  0  0
    2.7747    1.1438    0.8594 C   0  0  0  0  0  0  0  0  0  0  0  0
    1.3882    0.7869    0.7793 N   0  0  0  0  0  0  0  0  0  0  0  0
    1.2290   -0.2323    0.0048 C   0  0  0  0  0  0  0  0  0  0  0  0
   -0.0447   -0.7998   -0.2562 N   0  0  0  0  0  0  0  0  0  0  0  0
   -1.2529   -0.3331    0.4012 C   0  0  2  0  0  0  0  0  0  0  0  0
   -2.4426   -1.1054   -0.0606 C   0  0  0  0  0  0  0  0  0  0  0  0
   -3.1782   -0.2939   -0.9173 O   0  0  0  0  0  0  0  0  0  0  0  0
   -2.8390    0.9832   -0.6416 N   0  0  0  0  0  0  0  0  0  0  0  0
   -1.6016    1.0560    0.0183 C   0  0  0  0  0  0  0  0  0  0  0  0
   -0.9010    2.0729    0.2557 O   0  0  0  0  0  0  0  0  0  0  0  0
    2.5063   -0.6597   -0.5131 N   0  0  0  0  0  0  0  0  0  0  0  0
    3.5110    0.2003    0.0154 C   0  0  0  0  0  0  0  0  0  0  0  0
    4.7522    0.1659   -0.1898 O   0  0  0  0  0  0  0  0  0  0  0  0
   -0.1134   -1.5699   -0.9362 H   0  0  0  0  0  0  0  0  0  0  0  0
   -1.1358   -0.4163    1.5177 H   0  0  0  0  0  0  0  0  0  0  0  0
   -2.0869   -1.9902   -0.6196 H   0  0  0  0  0  0  0  0  0  0  0  0
   -3.0682   -1.4351    0.8137 H   0  0  0  0  0  0  0  0  0  0  0  0
   -3.4275    1.8065   -0.8909 H   0  0  0  0  0  0  0  0  0  0  0  0
    2.6550   -1.4617   -1.1618 H   0  0  0  0  0  0  0  0  0  0  0  0
  1  2  2  0
  2  3  1  0
  3  4  2  0
  4  5  1  0
  5  6  1  0
  6  7  1  0
  7  8  1  0
  8  9  1  0
  9 10  1  0
 10 11  2  0
  4 12  1  0
 12 13  1  0
 13 14  2  0
 13  2  1  0
 10  6  1  0
  5 15  1  0
  6 16  1  1
  7 17  1  0
  7 18  1  0
  9 19  1  0
 12 20  1  0
M  END
$$$$

     RDKit          3D

 20 21  0  0  0  0  0  0  0  0999 V2000
    3.8806    1.1000   -1.0814 O   0  0  0  0  0  0  0  0  0  0  0  0
    3.0568    0.5024   -0.3088 C   0  0  0  0  0  0  0  0  0  0  0  0
    1.7255    0.1398   -0.6263 N   0  0  0  0  0  0  0  0  0  0  0  0
    1.1520   -0.4536    0.3724 C   0  0  0  0  0  0  0  0  0  0  0  0
   -0.1897   -0.9162    0.3049 N   0  0  0  0  0  0  0  0  0  0  0  0
   -1.1062   -0.3792   -0.6605 C   0  0  2  0  0  0  0  0  0  0  0  0
   -1.2882    1.1332   -0.4751 C   0  0  0  0  0  0  0  0  0  0  0  0
   -2.4976    1.3310   -1.1468 O   0  0  0  0  0  0  0  0  0  0  0  0
   -3.3018    0.3080   -0.7345 N   0  0  0  0  0  0  0  0  0  0  0  0
   -2.5018   -0.8320   -0.4443 C   0  0  0  0  0  0  0  0  0  0  0  0
   -2.9697   -1.9398   -0.0890 O   0  0  0  0  0  0  0  0  0  0  0  0
    2.0637   -0.5461    1.4749 N   0  0  0  0  0  0  0  0  0  0  0  0
    3.2848    0.0581    1.0608 C   0  0  0  0  0  0  0  0  0  0  0  0
    4.3467    0.1970    1.7043 O   0  0  0  0  0  0  0  0  0  0  0  0
   -0.4917   -1.6550    0.9736 H   0  0  0  0  0  0  0  0  0  0  0  0
   -0.7635   -0.5372   -1.6938 H   0  0  0  0  0  0  0  0  0  0  0  0
   -1.4618    1.3905    0.5841 H   0  0  0  0  0  0  0  0  0  0  0  0
   -0.4732    1.6796   -0.9509 H   0  0  0  0  0  0  0  0  0  0  0  0
   -4.3231    0.3956   -0.6610 H   0  0  0  0  0  0  0  0  0  0  0  0
    1.8583   -0.9762    2.3975 H   0  0  0  0  0  0  0  0  0  0  0  0
  1  2  2  0
  2  3  1  0
  3  4  2  0
  4  5  1  0
  5  6  1  0
  6  7  1  0
  7  8  1  0
  8  9  1  0
  9 10  1  0
 10 11  2  0
  4 12  1  0
 12 13  1  0
 13 14  2  0
 13  2  1  0
 10  6  1  0
  5 15  1  0
  6 16  1  6
  7 17  1  0
  7 18  1  0
  9 19  1  0
 12 20  1  0
M  END
$$$$
