
     RDKit          3D

 23 23  0  0  0  0  0  0  0  0999 V2000
   -2.4938    0.8795    0.6718 C   0  0  0  0  0  0  0  0  0  0  0  0
   -1.1369    0.1762    0.6012 C   0  0  2  0  0  0  0  0  0  0  0  0
   -0.4860    0.5289   -0.7272 C   0  0  0  0  0  0  0  0  0  0  0  0
    0.7538   -0.1146   -0.8383 N   0  0  0  0  0  0  0  0  0  0  0  0
    2.1469    0.7793   -0.6504 S   0  0  0  0  0  6  0  0  0  0  0  0
    2.2994    1.5140    0.9243 N   0  0  0  0  0  0  0  0  0  0  0  0
    2.3036    1.9064   -1.6457 O   0  0  0  0  0  0  0  0  0  0  0  0
    3.3511   -0.1066   -0.8254 O   0  0  0  0  0  0  0  0  0  0  0  0
    0.8187   -1.5066   -0.6479 C   0  0  0  0  0  0  0  0  0  0  0  0
   -0.5106   -2.0518   -0.2679 C   0  0  0  0  0  0  0  0  0  0  0  0
   -0.8872   -3.2011   -0.6838 O   0  0  0  0  0  0  0  0  0  0  0  0
   -1.3462   -1.2597    0.5680 N   0  0  0  0  0  0  0  0  0  0  0  0
   -2.9856    0.7912   -0.3240 H   0  0  0  0  0  0  0  0  0  0  0  0
   -2.3351    1.9538    0.8982 H   0  0  0  0  0  0  0  0  0  0  0  0
   -3.1490    0.4075    1.4432 H   0  0  0  0  0  0  0  0  0  0  0  0
   -0.5418    0.4813    1.4625 H   0  0  0  0  0  0  0  0  0  0  0  0
   -1.1794    0.1139   -1.5155 H   0  0  0  0  0  0  0  0  0  0  0  0
   -0.3933    1.5947   -0.8988 H   0  0  0  0  0  0  0  0  0  0  0  0
    3.3267    1.6125    1.1427 H   0  0  0  0  0  0  0  0  0  0  0  0
    1.7997    0.9705    1.6533 H   0  0  0  0  0  0  0  0  0  0  0  0
    1.1560   -1.9741   -1.6173 H   0  0  0  0  0  0  0  0  0  0  0  0
    1.5673   -1.7977    0.1446 H   0  0  0  0  0  0  0  0  0  0  0  0
   -2.0785   -1.6975    1.1326 H   0  0  0  0  0  0  0  0  0  0  0  0
  1  2  1  0
  2  3  1  0
  3  4  1  0
  4  5  1  0
  5  6  1  0
  5  7  2  0
  5  8  2  0
  4  9  1  0
  9 10  1  0
 10 11  2  0
 10 12  1  0
 12  2  1  0
  1 13  1  0
  1 14  1  0
  1 15  1  0
  2 16  1  1
  3 17  1  0
  3 18  1  0
  6 19  1  0
  6 20  1  0
  9 21  1  0
  9 22  1  0
 12 23  1  0
M  END
$$$$

     RDKit          3D

 23 23  0  0  0  0  0  0  0  0999 V2000
   -2.4199   -1.2509   -0.0197 C   0  0  0  0  0  0  0  0  0  0  0  0
   -1.5600   -0.1604   -0.6611 C   0  0  2  0  0  0  0  0  0  0  0  0
   -0.1647   -0.6304   -0.8536 C   0  0  0  0  0  0  0  0  0  0  0  0
    0.8513    0.3242   -0.8096 N   0  0  0  0  0  0  0  0  0  0  0  0
    2.2366   -0.0602    0.0969 S   0  0  0  0  0  6  0  0  0  0  0  0
    3.0701   -1.4450   -0.4872 N   0  0  0  0  0  0  0  0  0  0  0  0
    1.8572   -0.1952    1.5405 O   0  0  0  0  0  0  0  0  0  0  0  0
    3.1929    1.1111    0.0021 O   0  0  0  0  0  0  0  0  0  0  0  0
    0.5196    1.6937   -0.7349 C   0  0  0  0  0  0  0  0  0  0  0  0
   -0.7050    2.0177    0.0025 C   0  0  0  0  0  0  0  0  0  0  0  0
   -0.8473    3.1888    0.4442 O   0  0  0  0  0  0  0  0  0  0  0  0
   -1.6811    1.0038    0.1906 N   0  0  0  0  0  0  0  0  0  0  0  0
   -3.4121   -1.3164   -0.5000 H   0  0  0  0  0  0  0  0  0  0  0  0
   -1.8931   -2.2143   -0.1775 H   0  0  0  0  0  0  0  0  0  0  0  0
   -2.5332   -1.0562    1.0742 H   0  0  0  0  0  0  0  0  0  0  0  0
   -2.0547    0.1018   -1.6333 H   0  0  0  0  0  0  0  0  0  0  0  0
   -0.1248   -1.1603   -1.8512 H   0  0  0  0  0  0  0  0  0  0  0  0
    0.0260   -1.4548   -0.1106 H   0  0  0  0  0  0  0  0  0  0  0  0
    3.7715   -1.7117    0.2634 H   0  0  0  0  0  0  0  0  0  0  0  0
    2.4311   -2.2463   -0.6788 H   0  0  0  0  0  0  0  0  0  0  0  0
    1.3629    2.2287   -0.2194 H   0  0  0  0  0  0  0  0  0  0  0  0
    0.4925    2.1206   -1.7684 H   0  0  0  0  0  0  0  0  0  0  0  0
   -2.4159    1.1116    0.8914 H   0  0  0  0  0  0  0  0  0  0  0  0
  1  2  1  0
  2  3  1  0
  3  4  1  0
  4  5  1  0
  5  6  1  0
  5  7  2  0
  5  8  2  0
  4  9  1  0
  9 10  1  0
 10 11  2  0
 10 12  1  0
 12  2  1  0
  1 13  1  0
  1 14  1  0
  1 15  1  0
  2 16  1  6
  3 17  1  0
  3 18  1  0
  6 19  1  0
  6 20  1  0
  9 21  1  0
  9 22  1  0
 12 23  1  0
M  END
$$$$

     RDKit          3D

 23 23  0  0  0  0  0  0  0  0999 V2000
   -2.6713    0.0718   -1.0765 C   0  0  0  0  0  0  0  0  0  0  0  0
   -1.4740    0.4643   -0.2018 C   0  0  2  0  0  0  0  0  0  0  0  0
   -0.1982   -0.0155   -0.7868 C   0  0  0  0  0  0  0  0  0  0  0  0
    0.7820   -0.5278    0.0408 N   0  0  0  0  0  0  0  0  0  0  0  0
    2.3991   -0.2727   -0.3763 S   0  0  0  0  0  6  0  0  0  0  0  0
    2.8544    1.3772   -0.4339 N   0  0  0  0  0  0  0  0  0  0  0  0
    3.2785   -0.9679    0.6475 O   0  0  0  0  0  0  0  0  0  0  0  0
    2.7088   -0.9382   -1.7046 O   0  0  0  0  0  0  0  0  0  0  0  0
    0.5815   -0.6838    1.4116 C   0  0  0  0  0  0  0  0  0  0  0  0
   -0.7804   -0.6081    1.9112 C   0  0  0  0  0  0  0  0  0  0  0  0
   -1.0797   -1.0683    3.0305 O   0  0  0  0  0  0  0  0  0  0  0  0
   -1.7628   -0.0078    1.1163 N   0  0  0  0  0  0  0  0  0  0  0  0
   -3.5397   -0.2298   -0.4664 H   0  0  0  0  0  0  0  0  0  0  0  0
   -2.4040   -0.7939   -1.7163 H   0  0  0  0  0  0  0  0  0  0  0  0
   -2.9922    0.9021   -1.7221 H   0  0  0  0  0  0  0  0  0  0  0  0
   -1.5142    1.5870   -0.1598 H   0  0  0  0  0  0  0  0  0  0  0  0
   -0.4614   -0.7885   -1.5710 H   0  0  0  0  0  0  0  0  0  0  0  0
    0.2280    0.8336   -1.4001 H   0  0  0  0  0  0  0  0  0  0  0  0
    2.6805    1.7247   -1.4018 H   0  0  0  0  0  0  0  0  0  0  0  0
    3.9093    1.4271   -0.3109 H   0  0  0  0  0  0  0  0  0  0  0  0
    1.0022   -1.6823    1.7316 H   0  0  0  0  0  0  0  0  0  0  0  0
    1.1883    0.0898    1.9627 H   0  0  0  0  0  0  0  0  0  0  0  0
   -2.7347    0.1070    1.4761 H   0  0  0  0  0  0  0  0  0  0  0  0
  1  2  1  0
  2  3  1  0
  3  4  1  0
  4  5  1  0
  5  6  1  0
  5  7  2  0
  5  8  2  0
  4  9  1  0
  9 10  1  0
 10 11  2  0
 10 12  1  0
 12  2  1  0
  1 13  1  0
  1 14  1  0
  1 15  1  0
  2 16  1  1
  3 17  1  0
  3 18  1  0
  6 19  1  0
  6 20  1  0
  9 21  1  0
  9 22  1  0
 12 23  1  0
M  END
$$$$

     RDKit          3D

 23 23  0  0  0  0  0  0  0  0999 V2000
   -2.2999    1.5379   -0.6244 C   0  0  0  0  0  0  0  0  0  0  0  0
   -1.4552    0.5365    0.1209 C   0  0  2  0  0  0  0  0  0  0  0  0
   -0.0554    0.4382   -0.4850 C   0  0  0  0  0  0  0  0  0  0  0  0
    0.7511   -0.2874    0.4191 N   0  0  0  0  0  0  0  0  0  0  0  0
    2.4064   -0.3629    0.0327 S   0  0  0  0  0  6  0  0  0  0  0  0
    3.0213    1.2491    0.0319 N   0  0  0  0  0  0  0  0  0  0  0  0
    2.6464   -0.9167   -1.3581 O   0  0  0  0  0  0  0  0  0  0  0  0
    3.1515   -1.2000    1.0033 O   0  0  0  0  0  0  0  0  0  0  0  0
    0.1983   -1.4555    0.9844 C   0  0  0  0  0  0  0  0  0  0  0  0
   -1.1204   -1.8506    0.4223 C   0  0  0  0  0  0  0  0  0  0  0  0
   -1.4587   -3.0533    0.2681 O   0  0  0  0  0  0  0  0  0  0  0  0
   -2.0084   -0.8012    0.0558 N   0  0  0  0  0  0  0  0  0  0  0  0
   -1.7892    2.5222   -0.5232 H   0  0  0  0  0  0  0  0  0  0  0  0
   -2.4222    1.2890   -1.6889 H   0  0  0  0  0  0  0  0  0  0  0  0
   -3.2558    1.6249   -0.0767 H   0  0  0  0  0  0  0  0  0  0  0  0
   -1.3784    0.8542    1.1618 H   0  0  0  0  0  0  0  0  0  0  0  0
   -0.1374   -0.0046   -1.5057 H   0  0  0  0  0  0  0  0  0  0  0  0
    0.3799    1.4737   -0.5947 H   0  0  0  0  0  0  0  0  0  0  0  0
    3.9589    1.3261    0.4445 H   0  0  0  0  0  0  0  0  0  0  0  0
    2.9187    1.6737   -0.9065 H   0  0  0  0  0  0  0  0  0  0  0  0
    0.9170   -2.3119    0.9731 H   0  0  0  0  0  0  0  0  0  0  0  0
    0.0162   -1.2611    2.0798 H   0  0  0  0  0  0  0  0  0  0  0  0
   -2.9848   -1.0203   -0.2346 H   0  0  0  0  0  0  0  0  0  0  0  0
  1  2  1  0
  2  3  1  0
  3  4  1  0
  4  5  1  0
  5  6  1  0
  5  7  2  0
  5  8  2  0
  4  9  1  0
  9 10  1  0
 10 11  2  0
 10 12  1  0
 12  2  1  0
  1 13  1  0
  1 14  1  0
  1 15  1  0
  2 16  1  1
  3 17  1  0
  3 18  1  0
  6 19  1  0
  6 20  1  0
  9 21  1  0
  9 22  1  0
 12 23  1  0
M  END
$$$$

     RDKit          3D

 23 23  0  0  0  0  0  0  0  0999 V2000
   -2.2856   -0.4324    1.4406 C   0  0  0  0  0  0  0  0  0  0  0  0
   -1.3511   -0.4570    0.2366 C   0  0  2  0  0  0  0  0  0  0  0  0
   -0.1231    0.2968    0.5952 C   0  0  0  0  0  0  0  0  0  0  0  0
    0.8306    0.4803   -0.4261 N   0  0  0  0  0  0  0  0  0  0  0  0
    2.3009   -0.2970   -0.1032 S   0  0  0  0  0  6  0  0  0  0  0  0
    2.9591    0.3951    1.3561 N   0  0  0  0  0  0  0  0  0  0  0  0
    3.2693   -0.0453   -1.2479 O   0  0  0  0  0  0  0  0  0  0  0  0
    2.1582   -1.7674    0.1492 O   0  0  0  0  0  0  0  0  0  0  0  0
    0.3824    0.4055   -1.7622 C   0  0  0  0  0  0  0  0  0  0  0  0
   -1.0696    0.5974   -1.9426 C   0  0  0  0  0  0  0  0  0  0  0  0
   -1.5662    1.1349   -2.9759 O   0  0  0  0  0  0  0  0  0  0  0  0
   -1.9578    0.1627   -0.9159 N   0  0  0  0  0  0  0  0  0  0  0  0
   -3.2746   -0.8353    1.1477 H   0  0  0  0  0  0  0  0  0  0  0  0
   -1.8009   -1.0725    2.2094 H   0  0  0  0  0  0  0  0  0  0  0  0
   -2.3731    0.6182    1.7924 H   0  0  0  0  0  0  0  0  0  0  0  0
   -1.1201   -1.5185    0.0230 H   0  0  0  0  0  0  0  0  0  0  0  0
    0.3523   -0.2331    1.4703 H   0  0  0  0  0  0  0  0  0  0  0  0
   -0.4263    1.2963    0.9972 H   0  0  0  0  0  0  0  0  0  0  0  0
    3.9774    0.2977    1.4131 H   0  0  0  0  0  0  0  0  0  0  0  0
    2.5181   -0.0134    2.1928 H   0  0  0  0  0  0  0  0  0  0  0  0
    0.8854    1.2278   -2.3493 H   0  0  0  0  0  0  0  0  0  0  0  0
    0.7023   -0.5365   -2.2867 H   0  0  0  0  0  0  0  0  0  0  0  0
   -2.9875    0.2958   -1.0139 H   0  0  0  0  0  0  0  0  0  0  0  0
  1  2  1  0
  2  3  1  0
  3  4  1  0
  4  5  1  0
  5  6  1  0
  5  7  2  0
  5  8  2  0
  4  9  1  0
  9 10  1  0
 10 11  2  0
 10 12  1  0
 12  2  1  0
  1 13  1  0
  1 14  1  0
  1 15  1  0
  2 16  1  6
  3 17  1  0
  3 18  1  0
  6 19  1  0
  6 20  1  0
  9 21  1  0
  9 22  1  0
 12 23  1  0
M  END
$$$$

     RDKit          3D

 23 23  0  0  0  0  0  0  0  0999 V2000
   -2.7232    0.1004    0.6750 C   0  0  0  0  0  0  0  0  0  0  0  0
   -1.6086    0.1767   -0.3313 C   0  0  2  0  0  0  0  0  0  0  0  0
   -0.4967   -0.7320    0.0523 C   0  0  0  0  0  0  0  0  0  0  0  0
    0.6268   -0.6679   -0.8330 N   0  0  0  0  0  0  0  0  0  0  0  0
    2.0089   -1.4665   -0.2549 S   0  0  0  0  0  6  0  0  0  0  0  0
    2.6046   -0.8080    1.2155 N   0  0  0  0  0  0  0  0  0  0  0  0
    1.7892   -2.9378   -0.0721 O   0  0  0  0  0  0  0  0  0  0  0  0
    3.1087   -1.2896   -1.2921 O   0  0  0  0  0  0  0  0  0  0  0  0
    0.8516    0.5650   -1.4726 C   0  0  0  0  0  0  0  0  0  0  0  0
    0.1912    1.7319   -0.8796 C   0  0  0  0  0  0  0  0  0  0  0  0
    0.7304    2.8515   -0.8449 O   0  0  0  0  0  0  0  0  0  0  0  0
   -1.1173    1.5434   -0.3308 N   0  0  0  0  0  0  0  0  0  0  0  0
   -3.4379    0.9183    0.4570 H   0  0  0  0  0  0  0  0  0  0  0  0
   -3.2117   -0.9032    0.6446 H   0  0  0  0  0  0  0  0  0  0  0  0
   -2.3333    0.2640    1.6906 H   0  0  0  0  0  0  0  0  0  0  0  0
   -1.9908   -0.0425   -1.3389 H   0  0  0  0  0  0  0  0  0  0  0  0
   -0.8735   -1.7764    0.0363 H   0  0  0  0  0  0  0  0  0  0  0  0
   -0.2138   -0.5331    1.1227 H   0  0  0  0  0  0  0  0  0  0  0  0
    3.3746   -0.1269    1.0759 H   0  0  0  0  0  0  0  0  0  0  0  0
    1.8545   -0.4613    1.8469 H   0  0  0  0  0  0  0  0  0  0  0  0
    0.5656    0.4772   -2.5563 H   0  0  0  0  0  0  0  0  0  0  0  0
    1.9606    0.7793   -1.4570 H   0  0  0  0  0  0  0  0  0  0  0  0
   -1.6594    2.3375    0.0355 H   0  0  0  0  0  0  0  0  0  0  0  0
  1  2  1  0
  2  3  1  0
  3  4  1  0
  4  5  1  0
  5  6  1  0
  5  7  2  0
  5  8  2  0
  4  9  1  0
  9 10  1  0
 10 11  2  0
 10 12  1  0
 12  2  1  0
  1 13  1  0
  1 14  1  0
  1 15  1  0
  2 16  1  6
  3 17  1  0
  3 18  1  0
  6 19  1  0
  6 20  1  0
  9 21  1  0
  9 22  1  0
 12 23  1  0
M  END
$$$$

     RDKit          3D

 23 23  0  0  0  0  0  0  0  0999 V2000
   -2.1578    1.1193   -1.1592 C   0  0  0  0  0  0  0  0  0  0  0  0
   -1.2419    0.4673   -0.1384 C   0  0  2  0  0  0  0  0  0  0  0  0
   -0.0075   -0.0338   -0.8514 C   0  0  0  0  0  0  0  0  0  0  0  0
    0.9080   -0.5932    0.0775 N   0  0  0  0  0  0  0  0  0  0  0  0
    1.9804    0.5274    0.7783 S   0  0  0  0  0  6  0  0  0  0  0  0
    2.9467    1.2410   -0.4664 N   0  0  0  0  0  0  0  0  0  0  0  0
    2.9373   -0.1063    1.7464 O   0  0  0  0  0  0  0  0  0  0  0  0
    1.1437    1.5842    1.4697 O   0  0  0  0  0  0  0  0  0  0  0  0
    0.3994   -1.5944    0.9451 C   0  0  0  0  0  0  0  0  0  0  0  0
   -1.0454   -1.8132    0.7711 C   0  0  0  0  0  0  0  0  0  0  0  0
   -1.5282   -2.9812    0.9046 O   0  0  0  0  0  0  0  0  0  0  0  0
   -1.8659   -0.6977    0.4554 N   0  0  0  0  0  0  0  0  0  0  0  0
   -2.3087    2.2003   -0.9544 H   0  0  0  0  0  0  0  0  0  0  0  0
   -1.7087    1.0694   -2.1871 H   0  0  0  0  0  0  0  0  0  0  0  0
   -3.1380    0.6389   -1.1211 H   0  0  0  0  0  0  0  0  0  0  0  0
   -0.9919    1.2257    0.5994 H   0  0  0  0  0  0  0  0  0  0  0  0
   -0.3438   -0.8368   -1.5395 H   0  0  0  0  0  0  0  0  0  0  0  0
    0.4363    0.8150   -1.3759 H   0  0  0  0  0  0  0  0  0  0  0  0
    3.7142    1.8083   -0.0917 H   0  0  0  0  0  0  0  0  0  0  0  0
    3.1754    0.5907   -1.2208 H   0  0  0  0  0  0  0  0  0  0  0  0
    0.9358   -2.5548    0.7109 H   0  0  0  0  0  0  0  0  0  0  0  0
    0.6299   -1.3725    2.0113 H   0  0  0  0  0  0  0  0  0  0  0  0
   -2.8695   -0.7036    0.6362 H   0  0  0  0  0  0  0  0  0  0  0  0
  1  2  1  0
  2  3  1  0
  3  4  1  0
  4  5  1  0
  5  6  1  0
  5  7  2  0
  5  8  2  0
  4  9  1  0
  9 10  1  0
 10 11  2  0
 10 12  1  0
 12  2  1  0
  1 13  1  0
  1 14  1  0
  1 15  1  0
  2 16  1  1
  3 17  1  0
  3 18  1  0
  6 19  1  0
  6 20  1  0
  9 21  1  0
  9 22  1  0
 12 23  1  0
M  END
$$$$

     RDKit          3D

 23 23  0  0  0  0  0  0  0  0999 V2000
   -2.5176    1.1900   -0.4681 C   0  0  0  0  0  0  0  0  0  0  0  0
   -1.5259    0.3575    0.2695 C   0  0  2  0  0  0  0  0  0  0  0  0
   -0.1234    0.5819   -0.2278 C   0  0  0  0  0  0  0  0  0  0  0  0
    0.8139   -0.2518    0.4817 N   0  0  0  0  0  0  0  0  0  0  0  0
    2.3960    0.0512   -0.1404 S   0  0  0  0  0  6  0  0  0  0  0  0
    2.7814    1.6866    0.1371 N   0  0  0  0  0  0  0  0  0  0  0  0
    2.4937   -0.2970   -1.5986 O   0  0  0  0  0  0  0  0  0  0  0  0
    3.3331   -0.8894    0.5922 O   0  0  0  0  0  0  0  0  0  0  0  0
    0.5366   -1.6506    0.3916 C   0  0  0  0  0  0  0  0  0  0  0  0
   -0.8857   -2.0001    0.4752 C   0  0  0  0  0  0  0  0  0  0  0  0
   -1.2056   -3.1656    0.8607 O   0  0  0  0  0  0  0  0  0  0  0  0
   -1.8646   -1.0493    0.1308 N   0  0  0  0  0  0  0  0  0  0  0  0
   -3.4237    1.3278    0.1689 H   0  0  0  0  0  0  0  0  0  0  0  0
   -2.8506    0.7124   -1.4046 H   0  0  0  0  0  0  0  0  0  0  0  0
   -2.1304    2.2094   -0.6722 H   0  0  0  0  0  0  0  0  0  0  0  0
   -1.5192    0.5708    1.3625 H   0  0  0  0  0  0  0  0  0  0  0  0
    0.1376    1.6428    0.0335 H   0  0  0  0  0  0  0  0  0  0  0  0
   -0.0320    0.5114   -1.3277 H   0  0  0  0  0  0  0  0  0  0  0  0
    3.1598    2.1962   -0.6663 H   0  0  0  0  0  0  0  0  0  0  0  0
    3.2000    1.8917    1.0491 H   0  0  0  0  0  0  0  0  0  0  0  0
    1.0449   -2.1413    1.2717 H   0  0  0  0  0  0  0  0  0  0  0  0
    0.9845   -2.1262   -0.5058 H   0  0  0  0  0  0  0  0  0  0  0  0
   -2.8027   -1.3584   -0.2130 H   0  0  0  0  0  0  0  0  0  0  0  0
  1  2  1  0
  2  3  1  0
  3  4  1  0
  4  5  1  0
  5  6  1  0
  5  7  2  0
  5  8  2  0
  4  9  1  0
  9 10  1  0
 10 11  2  0
 10 12  1  0
 12  2  1  0
  1 13  1  0
  1 14  1  0
  1 15  1  0
  2 16  1  1
  3 17  1  0
  3 18  1  0
  6 19  1  0
  6 20  1  0
  9 21  1  0
  9 22  1  0
 12 23  1  0
M  END
$$$$
