
     RDKit          3D

 23 23  0  0  0  0  0  0  0  0999 V2000
    3.5279   -0.1964    0.7721 O   0  0  0  0  0  0  0  0  0  0  0  0
    2.1316   -0.0561    0.9382 C   0  0  0  0  0  0  0  0  0  0  0  0
    1.5416    0.0581   -0.4363 C   0  0  1  0  0  0  0  0  0  0  0  0
    1.8622   -1.1060   -1.1308 O   0  0  0  0  0  0  0  0  0  0  0  0
    0.0644    0.2177   -0.4570 C   0  0  2  0  0  0  0  0  0  0  0  0
   -0.3896    1.3539    0.2094 O   0  0  0  0  0  0  0  0  0  0  0  0
   -1.7775    1.2149   -0.0309 C   0  0  2  0  0  0  0  0  0  0  0  0
   -2.5220    2.1512    0.6365 O   0  0  0  0  0  0  0  0  0  0  0  0
   -2.0671   -0.2084    0.4083 C   0  0  2  0  0  0  0  0  0  0  0  0
   -2.4759   -0.2530    1.7075 F   0  0  0  0  0  0  0  0  0  0  0  0
   -0.6998   -0.8743    0.2145 C   0  0  1  0  0  0  0  0  0  0  0  0
   -0.8596   -1.9667   -0.6256 O   0  0  0  0  0  0  0  0  0  0  0  0
    3.8590    0.4441    0.0943 H   0  0  0  0  0  0  0  0  0  0  0  0
    1.7907   -0.9624    1.4619 H   0  0  0  0  0  0  0  0  0  0  0  0
    1.9975    0.8733    1.5218 H   0  0  0  0  0  0  0  0  0  0  0  0
    1.9972    0.9123   -0.9569 H   0  0  0  0  0  0  0  0  0  0  0  0
    1.5983   -1.8609   -0.5531 H   0  0  0  0  0  0  0  0  0  0  0  0
   -0.2677    0.2819   -1.5052 H   0  0  0  0  0  0  0  0  0  0  0  0
   -1.8689    1.2898   -1.1532 H   0  0  0  0  0  0  0  0  0  0  0  0
   -2.6146    2.9451    0.0387 H   0  0  0  0  0  0  0  0  0  0  0  0
   -2.8121   -0.6704   -0.2972 H   0  0  0  0  0  0  0  0  0  0  0  0
   -0.3186   -1.1499    1.2099 H   0  0  0  0  0  0  0  0  0  0  0  0
   -1.6970   -2.4377   -0.4671 H   0  0  0  0  0  0  0  0  0  0  0  0
  1  2  1  0
  2  3  1  0
  3  4  1  0
  3  5  1  0
  5  6  1  0
  6  7  1  0
  7  8  1  0
  7  9  1  0
  9 10  1  0
  9 11  1  0
 11 12  1  0
 11  5  1  0
  1 13  1  0
  2 14  1  0
  2 15  1  0
  3 16  1  6
  4 17  1  0
  5 18  1  6
  7 19  1  6
  8 20  1  0
  9 21  1  6
 11 22  1  1
 12 23  1  0
M  END
$$$$

     RDKit          3D

 23 23  0  0  0  0  0  0  0  0999 V2000
    1.8462   -0.3520    1.8316 O   0  0  0  0  0  0  0  0  0  0  0  0
    2.1860   -0.1644    0.5023 C   0  0  0  0  0  0  0  0  0  0  0  0
    1.4534    0.9896   -0.1178 C   0  0  1  0  0  0  0  0  0  0  0  0
    1.8738    1.0852   -1.4570 O   0  0  0  0  0  0  0  0  0  0  0  0
   -0.0290    0.8315   -0.1264 C   0  0  2  0  0  0  0  0  0  0  0  0
   -0.6043    0.7231    1.1139 O   0  0  0  0  0  0  0  0  0  0  0  0
   -1.9112    0.3663    0.8882 C   0  0  2  0  0  0  0  0  0  0  0  0
   -2.4514   -0.4491    1.8753 O   0  0  0  0  0  0  0  0  0  0  0  0
   -1.9642   -0.3898   -0.4226 C   0  0  2  0  0  0  0  0  0  0  0  0
   -2.5391   -1.6167   -0.3130 F   0  0  0  0  0  0  0  0  0  0  0  0
   -0.4764   -0.4695   -0.7731 C   0  0  1  0  0  0  0  0  0  0  0  0
   -0.2671   -0.4954   -2.1244 O   0  0  0  0  0  0  0  0  0  0  0  0
    2.6233   -0.6627    2.3837 H   0  0  0  0  0  0  0  0  0  0  0  0
    2.0911   -1.0833   -0.1021 H   0  0  0  0  0  0  0  0  0  0  0  0
    3.2761    0.1043    0.4873 H   0  0  0  0  0  0  0  0  0  0  0  0
    1.7112    1.9251    0.3717 H   0  0  0  0  0  0  0  0  0  0  0  0
    2.0420    0.1738   -1.7982 H   0  0  0  0  0  0  0  0  0  0  0  0
   -0.4621    1.6601   -0.7139 H   0  0  0  0  0  0  0  0  0  0  0  0
   -2.5343    1.2927    0.8473 H   0  0  0  0  0  0  0  0  0  0  0  0
   -3.2129   -0.9343    1.4393 H   0  0  0  0  0  0  0  0  0  0  0  0
   -2.5004    0.2718   -1.1629 H   0  0  0  0  0  0  0  0  0  0  0  0
   -0.0579   -1.3515   -0.2455 H   0  0  0  0  0  0  0  0  0  0  0  0
   -0.0926   -1.4549   -2.3837 H   0  0  0  0  0  0  0  0  0  0  0  0
  1  2  1  0
  2  3  1  0
  3  4  1  0
  3  5  1  0
  5  6  1  0
  6  7  1  0
  7  8  1  0
  7  9  1  0
  9 10  1  0
  9 11  1  0
 11 12  1  0
 11  5  1  0
  1 13  1  0
  2 14  1  0
  2 15  1  0
  3 16  1  1
  4 17  1  0
  5 18  1  6
  7 19  1  6
  8 20  1  0
  9 21  1  6
 11 22  1  1
 12 23  1  0
M  END
$$$$

     RDKit          3D

 23 23  0  0  0  0  0  0  0  0999 V2000
    3.5599   -0.2834   -0.0286 O   0  0  0  0  0  0  0  0  0  0  0  0
    2.1853   -0.6144   -0.0631 C   0  0  0  0  0  0  0  0  0  0  0  0
    1.4392    0.6434    0.2826 C   0  0  1  0  0  0  0  0  0  0  0  0
    1.7570    1.6070   -0.6630 O   0  0  0  0  0  0  0  0  0  0  0  0
   -0.0445    0.4810    0.3082 C   0  0  2  0  0  0  0  0  0  0  0  0
   -0.4845   -0.4653    1.2250 O   0  0  0  0  0  0  0  0  0  0  0  0
   -1.8808   -0.3880    1.0038 C   0  0  2  0  0  0  0  0  0  0  0  0
   -2.5742   -1.3439    1.7013 O   0  0  0  0  0  0  0  0  0  0  0  0
   -1.9729   -0.5771   -0.4966 C   0  0  2  0  0  0  0  0  0  0  0  0
   -2.1063   -1.9129   -0.7834 F   0  0  0  0  0  0  0  0  0  0  0  0
   -0.6167   -0.0472   -0.9835 C   0  0  1  0  0  0  0  0  0  0  0  0
   -0.8223    0.9914   -1.8677 O   0  0  0  0  0  0  0  0  0  0  0  0
    3.7261    0.4612    0.5969 H   0  0  0  0  0  0  0  0  0  0  0  0
    1.9964   -0.9359   -1.1168 H   0  0  0  0  0  0  0  0  0  0  0  0
    2.0304   -1.4224    0.6592 H   0  0  0  0  0  0  0  0  0  0  0  0
    1.7741    0.9783    1.2663 H   0  0  0  0  0  0  0  0  0  0  0  0
    1.4722    1.3342   -1.5544 H   0  0  0  0  0  0  0  0  0  0  0  0
   -0.4990    1.4549    0.5215 H   0  0  0  0  0  0  0  0  0  0  0  0
   -2.1547    0.6633    1.2937 H   0  0  0  0  0  0  0  0  0  0  0  0
   -2.3447   -1.2443    2.6594 H   0  0  0  0  0  0  0  0  0  0  0  0
   -2.7733    0.0407   -0.9236 H   0  0  0  0  0  0  0  0  0  0  0  0
   -0.0206   -0.8760   -1.4171 H   0  0  0  0  0  0  0  0  0  0  0  0
   -1.6461    1.4555   -1.6203 H   0  0  0  0  0  0  0  0  0  0  0  0
  1  2  1  0
  2  3  1  0
  3  4  1  0
  3  5  1  0
  5  6  1  0
  6  7  1  0
  7  8  1  0
  7  9  1  0
  9 10  1  0
  9 11  1  0
 11 12  1  0
 11  5  1  0
  1 13  1  0
  2 14  1  0
  2 15  1  0
  3 16  1  1
  4 17  1  0
  5 18  1  1
  7 19  1  6
  8 20  1  0
  9 21  1  6
 11 22  1  6
 12 23  1  0
M  END
$$$$

     RDKit          3D

 23 23  0  0  0  0  0  0  0  0999 V2000
   -2.3928    1.4718   -0.3356 O   0  0  0  0  0  0  0  0  0  0  0  0
   -2.5628    0.0935   -0.2223 C   0  0  0  0  0  0  0  0  0  0  0  0
   -1.4797   -0.5326    0.6429 C   0  0  1  0  0  0  0  0  0  0  0  0
   -1.7712   -1.9138    0.6713 O   0  0  0  0  0  0  0  0  0  0  0  0
   -0.1198   -0.3950    0.0208 C   0  0  2  0  0  0  0  0  0  0  0  0
    0.7785   -1.1012    0.8264 O   0  0  0  0  0  0  0  0  0  0  0  0
    1.9952   -0.7547    0.2017 C   0  0  2  0  0  0  0  0  0  0  0  0
    3.0816   -1.2838    0.8442 O   0  0  0  0  0  0  0  0  0  0  0  0
    1.9337    0.7467    0.2353 C   0  0  2  0  0  0  0  0  0  0  0  0
    2.3596    1.2249    1.4567 F   0  0  0  0  0  0  0  0  0  0  0  0
    0.4315    0.9963    0.0697 C   0  0  1  0  0  0  0  0  0  0  0  0
    0.2469    1.6330   -1.1410 O   0  0  0  0  0  0  0  0  0  0  0  0
   -2.2792    1.9163    0.5200 H   0  0  0  0  0  0  0  0  0  0  0  0
   -3.5237   -0.0779    0.3018 H   0  0  0  0  0  0  0  0  0  0  0  0
   -2.5803   -0.3669   -1.2123 H   0  0  0  0  0  0  0  0  0  0  0  0
   -1.5184   -0.1691    1.6662 H   0  0  0  0  0  0  0  0  0  0  0  0
   -1.4187   -2.2618   -0.1954 H   0  0  0  0  0  0  0  0  0  0  0  0
   -0.0904   -0.8307   -0.9757 H   0  0  0  0  0  0  0  0  0  0  0  0
    1.8855   -1.0696   -0.8569 H   0  0  0  0  0  0  0  0  0  0  0  0
    3.3469   -2.1259    0.3693 H   0  0  0  0  0  0  0  0  0  0  0  0
    2.5144    1.1504   -0.6056 H   0  0  0  0  0  0  0  0  0  0  0  0
    0.0694    1.5991    0.9011 H   0  0  0  0  0  0  0  0  0  0  0  0
    1.0938    2.0511   -1.4732 H   0  0  0  0  0  0  0  0  0  0  0  0
  1  2  1  0
  2  3  1  0
  3  4  1  0
  3  5  1  0
  5  6  1  0
  6  7  1  0
  7  8  1  0
  7  9  1  0
  9 10  1  0
  9 11  1  0
 11 12  1  0
 11  5  1  0
  1 13  1  0
  2 14  1  0
  2 15  1  0
  3 16  1  1
  4 17  1  0
  5 18  1  6
  7 19  1  6
  8 20  1  0
  9 21  1  6
 11 22  1  1
 12 23  1  0
M  END
$$$$

     RDKit          3D

 23 23  0  0  0  0  0  0  0  0999 V2000
    3.6051    0.4007   -0.1718 O   0  0  0  0  0  0  0  0  0  0  0  0
    2.2702    0.7592   -0.3672 C   0  0  0  0  0  0  0  0  0  0  0  0
    1.4165   -0.3927    0.1424 C   0  0  1  0  0  0  0  0  0  0  0  0
    1.6330   -0.6387    1.4713 O   0  0  0  0  0  0  0  0  0  0  0  0
   -0.0159   -0.0976   -0.1953 C   0  0  2  0  0  0  0  0  0  0  0  0
   -0.5182    1.0125    0.4605 O   0  0  0  0  0  0  0  0  0  0  0  0
   -1.8599    0.9863    0.0779 C   0  0  2  0  0  0  0  0  0  0  0  0
   -2.6515    1.8208    0.8515 O   0  0  0  0  0  0  0  0  0  0  0  0
   -2.2937   -0.4636    0.1800 C   0  0  2  0  0  0  0  0  0  0  0  0
   -3.0743   -0.6955    1.2958 F   0  0  0  0  0  0  0  0  0  0  0  0
   -0.9617   -1.1810    0.2766 C   0  0  1  0  0  0  0  0  0  0  0  0
   -0.9127   -2.2856   -0.5752 O   0  0  0  0  0  0  0  0  0  0  0  0
    4.2253    1.0843   -0.5223 H   0  0  0  0  0  0  0  0  0  0  0  0
    2.1354    0.9279   -1.4389 H   0  0  0  0  0  0  0  0  0  0  0  0
    2.0557    1.6961    0.1764 H   0  0  0  0  0  0  0  0  0  0  0  0
    1.7151   -1.2903   -0.4378 H   0  0  0  0  0  0  0  0  0  0  0  0
    2.2747   -1.3940    1.5903 H   0  0  0  0  0  0  0  0  0  0  0  0
   -0.1622    0.0277   -1.2660 H   0  0  0  0  0  0  0  0  0  0  0  0
   -1.8788    1.2565   -0.9995 H   0  0  0  0  0  0  0  0  0  0  0  0
   -2.7088    2.6866    0.3641 H   0  0  0  0  0  0  0  0  0  0  0  0
   -2.7886   -0.8210   -0.7470 H   0  0  0  0  0  0  0  0  0  0  0  0
   -0.7466   -1.4883    1.3275 H   0  0  0  0  0  0  0  0  0  0  0  0
   -0.7581   -1.9104   -1.4934 H   0  0  0  0  0  0  0  0  0  0  0  0
  1  2  1  0
  2  3  1  0
  3  4  1  0
  3  5  1  0
  5  6  1  0
  6  7  1  0
  7  8  1  0
  7  9  1  0
  9 10  1  0
  9 11  1  0
 11 12  1  0
 11  5  1  0
  1 13  1  0
  2 14  1  0
  2 15  1  0
  3 16  1  6
  4 17  1  0
  5 18  1  6
  7 19  1  6
  8 20  1  0
  9 21  1  6
 11 22  1  1
 12 23  1  0
M  END
$$$$

     RDKit          3D

 23 23  0  0  0  0  0  0  0  0999 V2000
    3.0144    0.2709    1.5003 O   0  0  0  0  0  0  0  0  0  0  0  0
    1.9942   -0.5245    0.9285 C   0  0  0  0  0  0  0  0  0  0  0  0
    1.2264    0.3570    0.0024 C   0  0  1  0  0  0  0  0  0  0  0  0
    2.1259    0.8287   -0.9706 O   0  0  0  0  0  0  0  0  0  0  0  0
    0.0939   -0.2911   -0.7032 C   0  0  2  0  0  0  0  0  0  0  0  0
   -0.5153    0.6583   -1.5221 O   0  0  0  0  0  0  0  0  0  0  0  0
   -1.5907    1.1740   -0.8362 C   0  0  2  0  0  0  0  0  0  0  0  0
   -1.2487    2.0919    0.1323 O   0  0  0  0  0  0  0  0  0  0  0  0
   -2.2170   -0.0435   -0.2027 C   0  0  2  0  0  0  0  0  0  0  0  0
   -2.9108    0.2726    0.9501 F   0  0  0  0  0  0  0  0  0  0  0  0
   -0.9712   -0.8696    0.1308 C   0  0  1  0  0  0  0  0  0  0  0  0
   -1.2924   -2.1876   -0.2565 O   0  0  0  0  0  0  0  0  0  0  0  0
    3.2044    1.0547    0.9249 H   0  0  0  0  0  0  0  0  0  0  0  0
    1.4167   -0.9049    1.7797 H   0  0  0  0  0  0  0  0  0  0  0  0
    2.5326   -1.3294    0.3775 H   0  0  0  0  0  0  0  0  0  0  0  0
    0.8989    1.2607    0.5632 H   0  0  0  0  0  0  0  0  0  0  0  0
    2.3023    0.1369   -1.6599 H   0  0  0  0  0  0  0  0  0  0  0  0
    0.5130   -1.1048   -1.3622 H   0  0  0  0  0  0  0  0  0  0  0  0
   -2.3072    1.6050   -1.5599 H   0  0  0  0  0  0  0  0  0  0  0  0
   -1.4310    1.7518    1.0588 H   0  0  0  0  0  0  0  0  0  0  0  0
   -2.8520   -0.5474   -0.9506 H   0  0  0  0  0  0  0  0  0  0  0  0
   -0.8415   -0.8422    1.2023 H   0  0  0  0  0  0  0  0  0  0  0  0
   -1.1451   -2.8175    0.4731 H   0  0  0  0  0  0  0  0  0  0  0  0
  1  2  1  0
  2  3  1  0
  3  4  1  0
  3  5  1  0
  5  6  1  0
  6  7  1  0
  7  8  1  0
  7  9  1  0
  9 10  1  0
  9 11  1  0
 11 12  1  0
 11  5  1  0
  1 13  1  0
  2 14  1  0
  2 15  1  0
  3 16  1  1
  4 17  1  0
  5 18  1  6
  7 19  1  6
  8 20  1  0
  9 21  1  6
 11 22  1  1
 12 23  1  0
M  END
$$$$

     RDKit          3D

 23 23  0  0  0  0  0  0  0  0999 V2000
    3.4783    0.1639    0.3948 O   0  0  0  0  0  0  0  0  0  0  0  0
    2.3713   -0.5138   -0.1456 C   0  0  0  0  0  0  0  0  0  0  0  0
    1.1579   -0.0277    0.6134 C   0  0  1  0  0  0  0  0  0  0  0  0
    1.0712    1.3506    0.4176 O   0  0  0  0  0  0  0  0  0  0  0  0
   -0.1049   -0.7089    0.1331 C   0  0  2  0  0  0  0  0  0  0  0  0
   -0.2951   -0.4670   -1.2061 O   0  0  0  0  0  0  0  0  0  0  0  0
   -1.3237    0.4475   -1.3501 C   0  0  2  0  0  0  0  0  0  0  0  0
   -0.9255    1.7600   -1.2518 O   0  0  0  0  0  0  0  0  0  0  0  0
   -2.2931    0.1324   -0.2166 C   0  0  2  0  0  0  0  0  0  0  0  0
   -2.9398    1.2809    0.1321 F   0  0  0  0  0  0  0  0  0  0  0  0
   -1.3130   -0.2528    0.8859 C   0  0  1  0  0  0  0  0  0  0  0  0
   -1.9057   -1.2420    1.6422 O   0  0  0  0  0  0  0  0  0  0  0  0
    4.2906   -0.1383   -0.0630 H   0  0  0  0  0  0  0  0  0  0  0  0
    2.2900   -0.2103   -1.2008 H   0  0  0  0  0  0  0  0  0  0  0  0
    2.5029   -1.6057   -0.0028 H   0  0  0  0  0  0  0  0  0  0  0  0
    1.2705   -0.2065    1.6938 H   0  0  0  0  0  0  0  0  0  0  0  0
    1.6834    1.6592   -0.3047 H   0  0  0  0  0  0  0  0  0  0  0  0
    0.0376   -1.7999    0.3228 H   0  0  0  0  0  0  0  0  0  0  0  0
   -1.8088    0.3181   -2.3448 H   0  0  0  0  0  0  0  0  0  0  0  0
   -1.4113    2.2720   -0.5552 H   0  0  0  0  0  0  0  0  0  0  0  0
   -2.9727   -0.6958   -0.4751 H   0  0  0  0  0  0  0  0  0  0  0  0
   -1.0848    0.6320    1.5299 H   0  0  0  0  0  0  0  0  0  0  0  0
   -1.7752   -2.1480    1.2694 H   0  0  0  0  0  0  0  0  0  0  0  0
  1  2  1  0
  2  3  1  0
  3  4  1  0
  3  5  1  0
  5  6  1  0
  6  7  1  0
  7  8  1  0
  7  9  1  0
  9 10  1  0
  9 11  1  0
 11 12  1  0
 11  5  1  0
  1 13  1  0
  2 14  1  0
  2 15  1  0
  3 16  1  1
  4 17  1  0
  5 18  1  6
  7 19  1  6
  8 20  1  0
  9 21  1  6
 11 22  1  1
 12 23  1  0
M  END
$$$$

     RDKit          3D

 23 23  0  0  0  0  0  0  0  0999 V2000
    3.6674   -0.7793    0.1798 O   0  0  0  0  0  0  0  0  0  0  0  0
    2.3585   -0.7581    0.6380 C   0  0  0  0  0  0  0  0  0  0  0  0
    1.5247    0.0977   -0.2588 C   0  0  1  0  0  0  0  0  0  0  0  0
    1.5581   -0.4246   -1.5455 O   0  0  0  0  0  0  0  0  0  0  0  0
    0.1074    0.2190    0.2143 C   0  0  2  0  0  0  0  0  0  0  0  0
   -0.5615   -1.0004    0.2469 O   0  0  0  0  0  0  0  0  0  0  0  0
   -1.8823   -0.6466    0.4841 C   0  0  2  0  0  0  0  0  0  0  0  0
   -2.7478   -1.6212   -0.0575 O   0  0  0  0  0  0  0  0  0  0  0  0
   -2.1180    0.6974   -0.1181 C   0  0  2  0  0  0  0  0  0  0  0  0
   -3.0922    0.7304   -1.0734 F   0  0  0  0  0  0  0  0  0  0  0  0
   -0.7603    0.9719   -0.7765 C   0  0  1  0  0  0  0  0  0  0  0  0
   -0.4684    2.3064   -0.8366 O   0  0  0  0  0  0  0  0  0  0  0  0
    3.8536    0.1225   -0.2300 H   0  0  0  0  0  0  0  0  0  0  0  0
    2.3331   -0.3390    1.6676 H   0  0  0  0  0  0  0  0  0  0  0  0
    1.9948   -1.8207    0.6234 H   0  0  0  0  0  0  0  0  0  0  0  0
    1.9562    1.1193   -0.2757 H   0  0  0  0  0  0  0  0  0  0  0  0
    1.4483   -1.4135   -1.4696 H   0  0  0  0  0  0  0  0  0  0  0  0
    0.0243    0.7256    1.1793 H   0  0  0  0  0  0  0  0  0  0  0  0
   -2.0185   -0.6554    1.5913 H   0  0  0  0  0  0  0  0  0  0  0  0
   -2.9321   -2.3231    0.6217 H   0  0  0  0  0  0  0  0  0  0  0  0
   -2.2476    1.5098    0.6493 H   0  0  0  0  0  0  0  0  0  0  0  0
   -0.6998    0.4378   -1.7461 H   0  0  0  0  0  0  0  0  0  0  0  0
   -1.2978    2.8439   -0.8128 H   0  0  0  0  0  0  0  0  0  0  0  0
  1  2  1  0
  2  3  1  0
  3  4  1  0
  3  5  1  0
  5  6  1  0
  6  7  1  0
  7  8  1  0
  7  9  1  0
  9 10  1  0
  9 11  1  0
 11 12  1  0
 11  5  1  0
  1 13  1  0
  2 14  1  0
  2 15  1  0
  3 16  1  6
  4 17  1  0
  5 18  1  1
  7 19  1  1
  8 20  1  0
  9 21  1  1
 11 22  1  6
 12 23  1  0
M  END
$$$$
