
     RDKit          3D

 28 28  0  0  0  0  0  0  0  0999 V2000
   -3.9560   -1.0356    0.2960 N   0  0  0  0  0  0  0  0  0  0  0  0
   -3.2189   -0.0741   -0.0939 C   0  0  0  0  0  0  0  0  0  0  0  0
   -3.7702    1.2287   -0.3610 N   0  0  0  0  0  0  0  0  0  0  0  0
   -1.8251   -0.2155   -0.2896 N   0  0  0  0  0  0  0  0  0  0  0  0
   -1.0212   -0.6908    0.8083 C   0  0  0  0  0  0  0  0  0  0  0  0
    0.3843   -0.9829    0.3307 C   0  0  0  0  0  0  0  0  0  0  0  0
    0.9196    0.1004   -0.4452 N   0  0  0  0  0  0  0  0  0  0  0  0
    2.2785    0.4610   -0.3132 C   0  0  0  0  0  0  0  0  0  0  0  0
    2.7424    1.4239   -1.0068 O   0  0  0  0  0  0  0  0  0  0  0  0
    3.2079   -0.2326    0.6040 C   0  0  0  0  0  0  0  0  0  0  0  0
    4.5016    0.3557    0.5142 N   0  0  0  0  0  0  0  0  0  0  0  0
    0.0832    0.8300   -1.3633 C   0  0  0  0  0  0  0  0  0  0  0  0
   -1.2543    0.1156   -1.5658 C   0  0  0  0  0  0  0  0  0  0  0  0
   -3.5179   -1.9553    0.4764 H   0  0  0  0  0  0  0  0  0  0  0  0
   -4.4867    1.5781    0.3137 H   0  0  0  0  0  0  0  0  0  0  0  0
   -3.4545    1.7704   -1.1873 H   0  0  0  0  0  0  0  0  0  0  0  0
   -0.9330    0.1106    1.5790 H   0  0  0  0  0  0  0  0  0  0  0  0
   -1.4691   -1.6171    1.2034 H   0  0  0  0  0  0  0  0  0  0  0  0
    0.9862   -1.2320    1.2244 H   0  0  0  0  0  0  0  0  0  0  0  0
    0.3193   -1.9202   -0.2712 H   0  0  0  0  0  0  0  0  0  0  0  0
    2.8153   -0.3070    1.6363 H   0  0  0  0  0  0  0  0  0  0  0  0
    3.2877   -1.2959    0.2436 H   0  0  0  0  0  0  0  0  0  0  0  0
    4.6872    1.0509    1.2788 H   0  0  0  0  0  0  0  0  0  0  0  0
    5.2848   -0.3040    0.4472 H   0  0  0  0  0  0  0  0  0  0  0  0
   -0.1796    1.7933   -0.8539 H   0  0  0  0  0  0  0  0  0  0  0  0
    0.5387    1.0158   -2.3408 H   0  0  0  0  0  0  0  0  0  0  0  0
   -1.8837    0.8127   -2.1544 H   0  0  0  0  0  0  0  0  0  0  0  0
   -1.0664   -0.7841   -2.1938 H   0  0  0  0  0  0  0  0  0  0  0  0
  1  2  2  3
  2  3  1  0
  2  4  1  0
  4  5  1  0
  5  6  1  0
  6  7  1  0
  7  8  1  0
  8  9  2  0
  8 10  1  0
 10 11  1  0
  7 12  1  0
 12 13  1  0
 13  4  1  0
  1 14  1  0
  3 15  1  0
  3 16  1  0
  5 17  1  0
  5 18  1  0
  6 19  1  0
  6 20  1  0
 10 21  1  0
 10 22  1  0
 11 23  1  0
 11 24  1  0
 12 25  1  0
 12 26  1  0
 13 27  1  0
 13 28  1  0
M  END
$$$$

     RDKit          3D

 28 28  0  0  0  0  0  0  0  0999 V2000
   -3.0367    1.3654   -0.5709 N   0  0  0  0  0  0  0  0  0  0  0  0
   -2.5977    0.2313   -1.0042 C   0  0  0  0  0  0  0  0  0  0  0  0
   -3.3173   -0.3565   -2.0850 N   0  0  0  0  0  0  0  0  0  0  0  0
   -1.4854   -0.4514   -0.4981 N   0  0  0  0  0  0  0  0  0  0  0  0
   -1.5369   -1.0260    0.8096 C   0  0  0  0  0  0  0  0  0  0  0  0
   -0.1558   -1.3002    1.3571 C   0  0  0  0  0  0  0  0  0  0  0  0
    0.8320   -0.3856    0.8312 N   0  0  0  0  0  0  0  0  0  0  0  0
    1.8219    0.1043    1.7201 C   0  0  0  0  0  0  0  0  0  0  0  0
    1.7718   -0.3116    2.9283 O   0  0  0  0  0  0  0  0  0  0  0  0
    2.9034    1.0415    1.4057 C   0  0  0  0  0  0  0  0  0  0  0  0
    2.9293    1.4910    0.0489 N   0  0  0  0  0  0  0  0  0  0  0  0
    0.8504    0.0459   -0.5612 C   0  0  0  0  0  0  0  0  0  0  0  0
   -0.2920   -0.5779   -1.2856 C   0  0  0  0  0  0  0  0  0  0  0  0
   -2.5811    1.8857    0.2218 H   0  0  0  0  0  0  0  0  0  0  0  0
   -3.6911    0.2291   -2.8885 H   0  0  0  0  0  0  0  0  0  0  0  0
   -3.5188   -1.3781   -2.1544 H   0  0  0  0  0  0  0  0  0  0  0  0
   -2.1241   -0.3818    1.4905 H   0  0  0  0  0  0  0  0  0  0  0  0
   -2.0700   -1.9983    0.7536 H   0  0  0  0  0  0  0  0  0  0  0  0
   -0.1822   -1.1752    2.4532 H   0  0  0  0  0  0  0  0  0  0  0  0
    0.1793   -2.3302    1.1348 H   0  0  0  0  0  0  0  0  0  0  0  0
    2.8498    1.9400    2.0917 H   0  0  0  0  0  0  0  0  0  0  0  0
    3.9150    0.6122    1.6478 H   0  0  0  0  0  0  0  0  0  0  0  0
    2.9037    2.5224   -0.0696 H   0  0  0  0  0  0  0  0  0  0  0  0
    3.7239    1.0709   -0.4474 H   0  0  0  0  0  0  0  0  0  0  0  0
    0.6790    1.1504   -0.5936 H   0  0  0  0  0  0  0  0  0  0  0  0
    1.8117   -0.2472   -1.0420 H   0  0  0  0  0  0  0  0  0  0  0  0
   -0.1492   -1.6645   -1.4703 H   0  0  0  0  0  0  0  0  0  0  0  0
   -0.4329   -0.1057   -2.3026 H   0  0  0  0  0  0  0  0  0  0  0  0
  1  2  2  3
  2  3  1  0
  2  4  1  0
  4  5  1  0
  5  6  1  0
  6  7  1  0
  7  8  1  0
  8  9  2  0
  8 10  1  0
 10 11  1  0
  7 12  1  0
 12 13  1  0
 13  4  1  0
  1 14  1  0
  3 15  1  0
  3 16  1  0
  5 17  1  0
  5 18  1  0
  6 19  1  0
  6 20  1  0
 10 21  1  0
 10 22  1  0
 11 23  1  0
 11 24  1  0
 12 25  1  0
 12 26  1  0
 13 27  1  0
 13 28  1  0
M  END
$$$$

     RDKit          3D

 28 28  0  0  0  0  0  0  0  0999 V2000
   -3.8774   -1.0177   -1.1892 N   0  0  0  0  0  0  0  0  0  0  0  0
   -3.1774   -0.1074   -0.5704 C   0  0  0  0  0  0  0  0  0  0  0  0
   -3.8561    1.0843   -0.1969 N   0  0  0  0  0  0  0  0  0  0  0  0
   -1.8079   -0.2579   -0.2662 N   0  0  0  0  0  0  0  0  0  0  0  0
   -1.2214   -1.4893    0.2023 C   0  0  0  0  0  0  0  0  0  0  0  0
    0.0604   -1.2780    0.9562 C   0  0  0  0  0  0  0  0  0  0  0  0
    0.9559   -0.3918    0.2476 N   0  0  0  0  0  0  0  0  0  0  0  0
    2.3015   -0.2441    0.6123 C   0  0  0  0  0  0  0  0  0  0  0  0
    2.8090   -0.8730    1.5764 O   0  0  0  0  0  0  0  0  0  0  0  0
    3.1905    0.6780   -0.1421 C   0  0  0  0  0  0  0  0  0  0  0  0
    4.5301    0.6903    0.3837 N   0  0  0  0  0  0  0  0  0  0  0  0
    0.4131    0.3522   -0.8695 C   0  0  0  0  0  0  0  0  0  0  0  0
   -0.9338    0.8881   -0.4318 C   0  0  0  0  0  0  0  0  0  0  0  0
   -3.4783   -1.9142   -1.5007 H   0  0  0  0  0  0  0  0  0  0  0  0
   -3.3107    1.9172    0.1463 H   0  0  0  0  0  0  0  0  0  0  0  0
   -4.8850    1.2049   -0.2363 H   0  0  0  0  0  0  0  0  0  0  0  0
   -1.9583   -1.9387    0.9277 H   0  0  0  0  0  0  0  0  0  0  0  0
   -1.0444   -2.2105   -0.6162 H   0  0  0  0  0  0  0  0  0  0  0  0
   -0.2063   -0.8794    1.9663 H   0  0  0  0  0  0  0  0  0  0  0  0
    0.5611   -2.2779    1.0248 H   0  0  0  0  0  0  0  0  0  0  0  0
    3.2598    0.3200   -1.1995 H   0  0  0  0  0  0  0  0  0  0  0  0
    2.7990    1.7165   -0.1237 H   0  0  0  0  0  0  0  0  0  0  0  0
    5.1168    1.2421   -0.2840 H   0  0  0  0  0  0  0  0  0  0  0  0
    4.5811    1.0766    1.3527 H   0  0  0  0  0  0  0  0  0  0  0  0
    0.2390   -0.4074   -1.6839 H   0  0  0  0  0  0  0  0  0  0  0  0
    1.0934    1.1475   -1.2309 H   0  0  0  0  0  0  0  0  0  0  0  0
   -0.8100    1.3307    0.5961 H   0  0  0  0  0  0  0  0  0  0  0  0
   -1.3438    1.6389   -1.1363 H   0  0  0  0  0  0  0  0  0  0  0  0
  1  2  2  3
  2  3  1  0
  2  4  1  0
  4  5  1  0
  5  6  1  0
  6  7  1  0
  7  8  1  0
  8  9  2  0
  8 10  1  0
 10 11  1  0
  7 12  1  0
 12 13  1  0
 13  4  1  0
  1 14  1  0
  3 15  1  0
  3 16  1  0
  5 17  1  0
  5 18  1  0
  6 19  1  0
  6 20  1  0
 10 21  1  0
 10 22  1  0
 11 23  1  0
 11 24  1  0
 12 25  1  0
 12 26  1  0
 13 27  1  0
 13 28  1  0
M  END
$$$$

     RDKit          3D

 28 28  0  0  0  0  0  0  0  0999 V2000
    3.5978   -0.3568    1.0636 N   0  0  0  0  0  0  0  0  0  0  0  0
    2.8890    0.4859    0.3901 C   0  0  0  0  0  0  0  0  0  0  0  0
    3.3492    1.8055    0.1240 N   0  0  0  0  0  0  0  0  0  0  0  0
    1.6204    0.0972   -0.1007 N   0  0  0  0  0  0  0  0  0  0  0  0
    0.5464    1.0968   -0.1968 C   0  0  0  0  0  0  0  0  0  0  0  0
   -0.5499    0.5616    0.7427 C   0  0  0  0  0  0  0  0  0  0  0  0
   -0.9824   -0.6703    0.1636 N   0  0  0  0  0  0  0  0  0  0  0  0
   -2.2117   -0.9805   -0.4237 C   0  0  0  0  0  0  0  0  0  0  0  0
   -2.3807   -2.1816   -0.8712 O   0  0  0  0  0  0  0  0  0  0  0  0
   -3.3773   -0.1062   -0.6114 C   0  0  0  0  0  0  0  0  0  0  0  0
   -3.2365    1.2399   -0.1374 N   0  0  0  0  0  0  0  0  0  0  0  0
    0.0559   -1.7438    0.2001 C   0  0  0  0  0  0  0  0  0  0  0  0
    1.2980   -1.2433   -0.5241 C   0  0  0  0  0  0  0  0  0  0  0  0
    4.5353   -0.0844    1.4319 H   0  0  0  0  0  0  0  0  0  0  0  0
    3.4978    2.0540   -0.8835 H   0  0  0  0  0  0  0  0  0  0  0  0
    3.5340    2.5032    0.8892 H   0  0  0  0  0  0  0  0  0  0  0  0
    0.1652    1.1128   -1.2381 H   0  0  0  0  0  0  0  0  0  0  0  0
    0.8923    2.0853    0.1026 H   0  0  0  0  0  0  0  0  0  0  0  0
   -1.2890    1.3084    0.9733 H   0  0  0  0  0  0  0  0  0  0  0  0
    0.0439    0.2957    1.6779 H   0  0  0  0  0  0  0  0  0  0  0  0
   -3.6467   -0.1435   -1.6965 H   0  0  0  0  0  0  0  0  0  0  0  0
   -4.2699   -0.5898   -0.1157 H   0  0  0  0  0  0  0  0  0  0  0  0
   -3.6885    1.3694    0.7948 H   0  0  0  0  0  0  0  0  0  0  0  0
   -3.5665    1.9451   -0.8344 H   0  0  0  0  0  0  0  0  0  0  0  0
    0.3113   -1.8331    1.2749 H   0  0  0  0  0  0  0  0  0  0  0  0
   -0.3367   -2.6633   -0.2471 H   0  0  0  0  0  0  0  0  0  0  0  0
    2.1031   -1.9538   -0.3339 H   0  0  0  0  0  0  0  0  0  0  0  0
    1.0962   -1.1983   -1.6141 H   0  0  0  0  0  0  0  0  0  0  0  0
  1  2  2  3
  2  3  1  0
  2  4  1  0
  4  5  1  0
  5  6  1  0
  6  7  1  0
  7  8  1  0
  8  9  2  0
  8 10  1  0
 10 11  1  0
  7 12  1  0
 12 13  1  0
 13  4  1  0
  1 14  1  0
  3 15  1  0
  3 16  1  0
  5 17  1  0
  5 18  1  0
  6 19  1  0
  6 20  1  0
 10 21  1  0
 10 22  1  0
 11 23  1  0
 11 24  1  0
 12 25  1  0
 12 26  1  0
 13 27  1  0
 13 28  1  0
M  END
$$$$

     RDKit          3D

 28 28  0  0  0  0  0  0  0  0999 V2000
   -3.9208   -0.5149   -0.1351 N   0  0  0  0  0  0  0  0  0  0  0  0
   -3.0167    0.4063   -0.1461 C   0  0  0  0  0  0  0  0  0  0  0  0
   -3.4747    1.7514   -0.1363 N   0  0  0  0  0  0  0  0  0  0  0  0
   -1.6413    0.0627   -0.1668 N   0  0  0  0  0  0  0  0  0  0  0  0
   -1.2628   -1.2979   -0.4860 C   0  0  0  0  0  0  0  0  0  0  0  0
   -0.0857   -1.7527    0.3220 C   0  0  0  0  0  0  0  0  0  0  0  0
    0.9941   -0.7524    0.2606 N   0  0  0  0  0  0  0  0  0  0  0  0
    2.2775   -1.0999   -0.1854 C   0  0  0  0  0  0  0  0  0  0  0  0
    2.3906   -2.3488   -0.5376 O   0  0  0  0  0  0  0  0  0  0  0  0
    3.4948   -0.3320   -0.3259 C   0  0  0  0  0  0  0  0  0  0  0  0
    3.5017    1.0351    0.0305 N   0  0  0  0  0  0  0  0  0  0  0  0
    0.6385    0.5593    0.6799 C   0  0  0  0  0  0  0  0  0  0  0  0
   -0.6781    1.0674    0.1269 C   0  0  0  0  0  0  0  0  0  0  0  0
   -4.9253   -0.3375   -0.1201 H   0  0  0  0  0  0  0  0  0  0  0  0
   -3.0906    2.4893   -0.7626 H   0  0  0  0  0  0  0  0  0  0  0  0
   -4.2313    1.9909    0.5365 H   0  0  0  0  0  0  0  0  0  0  0  0
   -2.0869   -2.0086   -0.3284 H   0  0  0  0  0  0  0  0  0  0  0  0
   -0.9424   -1.3105   -1.5625 H   0  0  0  0  0  0  0  0  0  0  0  0
   -0.3493   -1.8696    1.3933 H   0  0  0  0  0  0  0  0  0  0  0  0
    0.2456   -2.7289   -0.0518 H   0  0  0  0  0  0  0  0  0  0  0  0
    4.3498   -0.8424    0.1941 H   0  0  0  0  0  0  0  0  0  0  0  0
    3.7770   -0.3796   -1.4308 H   0  0  0  0  0  0  0  0  0  0  0  0
    3.7497    1.2429    1.0225 H   0  0  0  0  0  0  0  0  0  0  0  0
    3.9385    1.6770   -0.6489 H   0  0  0  0  0  0  0  0  0  0  0  0
    1.3590    1.3645    0.4647 H   0  0  0  0  0  0  0  0  0  0  0  0
    0.5776    0.5599    1.8154 H   0  0  0  0  0  0  0  0  0  0  0  0
   -1.1100    1.7386    0.9072 H   0  0  0  0  0  0  0  0  0  0  0  0
   -0.4782    1.6303   -0.8105 H   0  0  0  0  0  0  0  0  0  0  0  0
  1  2  2  3
  2  3  1  0
  2  4  1  0
  4  5  1  0
  5  6  1  0
  6  7  1  0
  7  8  1  0
  8  9  2  0
  8 10  1  0
 10 11  1  0
  7 12  1  0
 12 13  1  0
 13  4  1  0
  1 14  1  0
  3 15  1  0
  3 16  1  0
  5 17  1  0
  5 18  1  0
  6 19  1  0
  6 20  1  0
 10 21  1  0
 10 22  1  0
 11 23  1  0
 11 24  1  0
 12 25  1  0
 12 26  1  0
 13 27  1  0
 13 28  1  0
M  END
$$$$

     RDKit          3D

 28 28  0  0  0  0  0  0  0  0999 V2000
   -3.6439   -0.9380    0.0125 N   0  0  0  0  0  0  0  0  0  0  0  0
   -3.0831    0.2226    0.0973 C   0  0  0  0  0  0  0  0  0  0  0  0
   -3.8756    1.3747    0.3668 N   0  0  0  0  0  0  0  0  0  0  0  0
   -1.6596    0.3278   -0.0834 N   0  0  0  0  0  0  0  0  0  0  0  0
   -0.9055    1.1112    0.8779 C   0  0  0  0  0  0  0  0  0  0  0  0
    0.1295    0.1772    1.4869 C   0  0  0  0  0  0  0  0  0  0  0  0
    0.9339   -0.3235    0.3888 N   0  0  0  0  0  0  0  0  0  0  0  0
    2.3325   -0.0625    0.3122 C   0  0  0  0  0  0  0  0  0  0  0  0
    2.8559    0.6197    1.2303 O   0  0  0  0  0  0  0  0  0  0  0  0
    3.1630   -0.5623   -0.7937 C   0  0  0  0  0  0  0  0  0  0  0  0
    4.5392   -0.1456   -0.6101 N   0  0  0  0  0  0  0  0  0  0  0  0
    0.2373   -1.1011   -0.6219 C   0  0  0  0  0  0  0  0  0  0  0  0
   -0.9497   -0.2952   -1.1549 C   0  0  0  0  0  0  0  0  0  0  0  0
   -4.6731   -1.0283    0.1412 H   0  0  0  0  0  0  0  0  0  0  0  0
   -3.4422    2.2256    0.8016 H   0  0  0  0  0  0  0  0  0  0  0  0
   -4.8824    1.3510    0.1245 H   0  0  0  0  0  0  0  0  0  0  0  0
   -0.3664    1.9268    0.3469 H   0  0  0  0  0  0  0  0  0  0  0  0
   -1.5219    1.5068    1.6936 H   0  0  0  0  0  0  0  0  0  0  0  0
    0.7736    0.8201    2.1306 H   0  0  0  0  0  0  0  0  0  0  0  0
   -0.3696   -0.6330    2.0515 H   0  0  0  0  0  0  0  0  0  0  0  0
    2.8420   -0.1583   -1.7806 H   0  0  0  0  0  0  0  0  0  0  0  0
    3.1499   -1.6849   -0.8240 H   0  0  0  0  0  0  0  0  0  0  0  0
    5.2111   -0.9469   -0.7598 H   0  0  0  0  0  0  0  0  0  0  0  0
    4.6566    0.1261    0.3917 H   0  0  0  0  0  0  0  0  0  0  0  0
   -0.2028   -2.0156   -0.1353 H   0  0  0  0  0  0  0  0  0  0  0  0
    0.8782   -1.4384   -1.4333 H   0  0  0  0  0  0  0  0  0  0  0  0
   -1.6286   -0.9553   -1.7015 H   0  0  0  0  0  0  0  0  0  0  0  0
   -0.4985    0.4991   -1.8045 H   0  0  0  0  0  0  0  0  0  0  0  0
  1  2  2  3
  2  3  1  0
  2  4  1  0
  4  5  1  0
  5  6  1  0
  6  7  1  0
  7  8  1  0
  8  9  2  0
  8 10  1  0
 10 11  1  0
  7 12  1  0
 12 13  1  0
 13  4  1  0
  1 14  1  0
  3 15  1  0
  3 16  1  0
  5 17  1  0
  5 18  1  0
  6 19  1  0
  6 20  1  0
 10 21  1  0
 10 22  1  0
 11 23  1  0
 11 24  1  0
 12 25  1  0
 12 26  1  0
 13 27  1  0
 13 28  1  0
M  END
$$$$

     RDKit          3D

 28 28  0  0  0  0  0  0  0  0999 V2000
   -3.7309   -1.0502    0.1799 N   0  0  0  0  0  0  0  0  0  0  0  0
   -3.1027    0.0482    0.3879 C   0  0  0  0  0  0  0  0  0  0  0  0
   -3.8513    1.1911    0.7407 N   0  0  0  0  0  0  0  0  0  0  0  0
   -1.6938    0.0497    0.2511 N   0  0  0  0  0  0  0  0  0  0  0  0
   -1.0993    1.1106   -0.5397 C   0  0  0  0  0  0  0  0  0  0  0  0
   -0.0249    0.5017   -1.3999 C   0  0  0  0  0  0  0  0  0  0  0  0
    0.9006   -0.1613   -0.5095 N   0  0  0  0  0  0  0  0  0  0  0  0
    2.2524    0.2670   -0.3981 C   0  0  0  0  0  0  0  0  0  0  0  0
    2.6309    1.2367   -1.0904 O   0  0  0  0  0  0  0  0  0  0  0  0
    3.2249   -0.3881    0.5022 C   0  0  0  0  0  0  0  0  0  0  0  0
    4.5196    0.2568    0.4091 N   0  0  0  0  0  0  0  0  0  0  0  0
    0.3763   -1.2799    0.2582 C   0  0  0  0  0  0  0  0  0  0  0  0
   -0.9420   -0.9842    0.8936 C   0  0  0  0  0  0  0  0  0  0  0  0
   -3.3179   -1.9502   -0.0807 H   0  0  0  0  0  0  0  0  0  0  0  0
   -4.2350    1.7693   -0.0411 H   0  0  0  0  0  0  0  0  0  0  0  0
   -4.0515    1.5038    1.7096 H   0  0  0  0  0  0  0  0  0  0  0  0
   -0.6467    1.8730    0.1320 H   0  0  0  0  0  0  0  0  0  0  0  0
   -1.8205    1.5993   -1.1889 H   0  0  0  0  0  0  0  0  0  0  0  0
    0.4688    1.2384   -2.0577 H   0  0  0  0  0  0  0  0  0  0  0  0
   -0.5113   -0.2940   -2.0313 H   0  0  0  0  0  0  0  0  0  0  0  0
    2.8342   -0.2611    1.5461 H   0  0  0  0  0  0  0  0  0  0  0  0
    3.3735   -1.4581    0.2546 H   0  0  0  0  0  0  0  0  0  0  0  0
    4.5376    1.1892    0.8972 H   0  0  0  0  0  0  0  0  0  0  0  0
    4.8079    0.2975   -0.5753 H   0  0  0  0  0  0  0  0  0  0  0  0
    1.1474   -1.5357    1.0379 H   0  0  0  0  0  0  0  0  0  0  0  0
    0.2508   -2.1182   -0.4594 H   0  0  0  0  0  0  0  0  0  0  0  0
   -0.7534   -0.7319    1.9778 H   0  0  0  0  0  0  0  0  0  0  0  0
   -1.5439   -1.9196    0.9261 H   0  0  0  0  0  0  0  0  0  0  0  0
  1  2  2  3
  2  3  1  0
  2  4  1  0
  4  5  1  0
  5  6  1  0
  6  7  1  0
  7  8  1  0
  8  9  2  0
  8 10  1  0
 10 11  1  0
  7 12  1  0
 12 13  1  0
 13  4  1  0
  1 14  1  0
  3 15  1  0
  3 16  1  0
  5 17  1  0
  5 18  1  0
  6 19  1  0
  6 20  1  0
 10 21  1  0
 10 22  1  0
 11 23  1  0
 11 24  1  0
 12 25  1  0
 12 26  1  0
 13 27  1  0
 13 28  1  0
M  END
$$$$

     RDKit          3D

 28 28  0  0  0  0  0  0  0  0999 V2000
   -3.6766   -1.4733   -0.0698 N   0  0  0  0  0  0  0  0  0  0  0  0
   -2.9984   -0.4604   -0.4688 C   0  0  0  0  0  0  0  0  0  0  0  0
   -3.5402    0.5288   -1.3258 N   0  0  0  0  0  0  0  0  0  0  0  0
   -1.6555   -0.3284   -0.0341 N   0  0  0  0  0  0  0  0  0  0  0  0
   -0.6647   -1.3157   -0.4120 C   0  0  0  0  0  0  0  0  0  0  0  0
    0.7187   -0.6899   -0.5187 C   0  0  0  0  0  0  0  0  0  0  0  0
    0.9728    0.2451    0.5354 N   0  0  0  0  0  0  0  0  0  0  0  0
    2.1996    0.9165    0.6164 C   0  0  0  0  0  0  0  0  0  0  0  0
    2.4104    1.7493    1.5653 O   0  0  0  0  0  0  0  0  0  0  0  0
    3.3306    0.7590   -0.3209 C   0  0  0  0  0  0  0  0  0  0  0  0
    3.1377   -0.1497   -1.3803 N   0  0  0  0  0  0  0  0  0  0  0  0
   -0.0478    0.4964    1.5233 C   0  0  0  0  0  0  0  0  0  0  0  0
   -1.3250    0.8171    0.7897 C   0  0  0  0  0  0  0  0  0  0  0  0
   -3.2862   -2.1951    0.5536 H   0  0  0  0  0  0  0  0  0  0  0  0
   -3.1093    0.6363   -2.2796 H   0  0  0  0  0  0  0  0  0  0  0  0
   -4.3277    1.1180   -1.0194 H   0  0  0  0  0  0  0  0  0  0  0  0
   -0.8954   -1.8182   -1.3543 H   0  0  0  0  0  0  0  0  0  0  0  0
   -0.6335   -2.1035    0.3949 H   0  0  0  0  0  0  0  0  0  0  0  0
    1.4489   -1.5262   -0.4320 H   0  0  0  0  0  0  0  0  0  0  0  0
    0.7682   -0.2429   -1.5307 H   0  0  0  0  0  0  0  0  0  0  0  0
    4.2095    0.4381    0.2819 H   0  0  0  0  0  0  0  0  0  0  0  0
    3.5827    1.7630   -0.7172 H   0  0  0  0  0  0  0  0  0  0  0  0
    3.7262   -1.0054   -1.3630 H   0  0  0  0  0  0  0  0  0  0  0  0
    2.9844    0.2532   -2.3154 H   0  0  0  0  0  0  0  0  0  0  0  0
   -0.2289   -0.4824    2.0478 H   0  0  0  0  0  0  0  0  0  0  0  0
    0.2423    1.2879    2.2414 H   0  0  0  0  0  0  0  0  0  0  0  0
   -2.1534    1.0874    1.4654 H   0  0  0  0  0  0  0  0  0  0  0  0
   -1.1896    1.6948    0.0997 H   0  0  0  0  0  0  0  0  0  0  0  0
  1  2  2  3
  2  3  1  0
  2  4  1  0
  4  5  1  0
  5  6  1  0
  6  7  1  0
  7  8  1  0
  8  9  2  0
  8 10  1  0
 10 11  1  0
  7 12  1  0
 12 13  1  0
 13  4  1  0
  1 14  1  0
  3 15  1  0
  3 16  1  0
  5 17  1  0
  5 18  1  0
  6 19  1  0
  6 20  1  0
 10 21  1  0
 10 22  1  0
 11 23  1  0
 11 24  1  0
 12 25  1  0
 12 26  1  0
 13 27  1  0
 13 28  1  0
M  END
$$$$
