
     RDKit          3D

 27 29  0  0  0  0  0  0  0  0999 V2000
    0.3428    0.6968    2.1498 O   0  0  0  0  0  0  0  0  0  0  0  0
    0.5290    0.1508    1.0111 C   0  0  0  0  0  0  0  0  0  0  0  0
   -0.6945    0.0006    0.1743 C   0  0  2  0  0  0  0  0  0  0  0  0
   -1.7988    0.9752    0.3814 C   0  0  1  0  0  0  0  0  0  0  0  0
   -2.8822    1.1196   -0.6356 C   0  0  0  0  0  0  0  0  0  0  0  0
   -3.8786    0.1580   -0.1495 N   0  0  0  0  0  0  0  0  0  0  0  0
   -3.0300   -1.0093    0.0893 C   0  0  0  0  0  0  0  0  0  0  0  0
   -1.9105   -0.4262    0.9249 C   0  0  1  0  0  0  0  0  0  0  0  0
    1.7898   -0.2791    0.5722 N   0  0  0  0  0  0  0  0  0  0  0  0
    2.3207   -0.9066   -0.6064 C   0  0  0  0  0  0  0  0  0  0  0  0
    3.6007   -0.1390   -0.3350 C   0  0  0  0  0  0  0  0  0  0  0  0
    3.4919    1.1322   -0.8546 O   0  0  0  0  0  0  0  0  0  0  0  0
    3.1262   -0.2878    1.1019 C   0  0  0  0  0  0  0  0  0  0  0  0
   -0.5181   -0.4753   -0.8125 H   0  0  0  0  0  0  0  0  0  0  0  0
   -1.6106    1.7906    1.1118 H   0  0  0  0  0  0  0  0  0  0  0  0
   -3.3147    2.1336   -0.5644 H   0  0  0  0  0  0  0  0  0  0  0  0
   -2.5697    0.8495   -1.6553 H   0  0  0  0  0  0  0  0  0  0  0  0
   -4.2067    0.4741    0.7895 H   0  0  0  0  0  0  0  0  0  0  0  0
   -3.5587   -1.7956    0.6648 H   0  0  0  0  0  0  0  0  0  0  0  0
   -2.6669   -1.3704   -0.8876 H   0  0  0  0  0  0  0  0  0  0  0  0
   -1.9041   -0.5474    2.0092 H   0  0  0  0  0  0  0  0  0  0  0  0
    1.8167   -0.6617   -1.5585 H   0  0  0  0  0  0  0  0  0  0  0  0
    2.5089   -1.9922   -0.4412 H   0  0  0  0  0  0  0  0  0  0  0  0
    4.5286   -0.6953   -0.5654 H   0  0  0  0  0  0  0  0  0  0  0  0
    3.7082    1.8484   -0.2259 H   0  0  0  0  0  0  0  0  0  0  0  0
    3.3795   -1.2971    1.4702 H   0  0  0  0  0  0  0  0  0  0  0  0
    3.4011    0.5534    1.7636 H   0  0  0  0  0  0  0  0  0  0  0  0
  1  2  2  0
  2  3  1  0
  3  4  1  0
  4  5  1  0
  5  6  1  0
  6  7  1  0
  7  8  1  0
  2  9  1  0
  9 10  1  0
 10 11  1  0
 11 12  1  0
 11 13  1  0
  8  3  1  0
 13  9  1  0
  8  4  1  0
  3 14  1  6
  4 15  1  1
  5 16  1  0
  5 17  1  0
  6 18  1  0
  7 19  1  0
  7 20  1  0
  8 21  1  1
 10 22  1  0
 10 23  1  0
 11 24  1  0
 12 25  1  0
 13 26  1  0
 13 27  1  0
M  END
$$$$

     RDKit          3D

 27 29  0  0  0  0  0  0  0  0999 V2000
   -0.6188   -2.4386    1.3684 O   0  0  0  0  0  0  0  0  0  0  0  0
   -0.3822   -1.4085    0.6379 C   0  0  0  0  0  0  0  0  0  0  0  0
    1.0084   -1.0264    0.3792 C   0  0  2  0  0  0  0  0  0  0  0  0
    1.3564    0.3969    0.5687 C   0  0  1  0  0  0  0  0  0  0  0  0
    2.8208    0.7018    0.8158 C   0  0  0  0  0  0  0  0  0  0  0  0
    3.2351    1.1125   -0.5361 N   0  0  0  0  0  0  0  0  0  0  0  0
    2.7305   -0.0299   -1.2997 C   0  0  0  0  0  0  0  0  0  0  0  0
    1.3253   -0.2412   -0.8078 C   0  0  1  0  0  0  0  0  0  0  0  0
   -1.5331   -0.7333    0.1450 N   0  0  0  0  0  0  0  0  0  0  0  0
   -1.8916    0.4052   -0.6716 C   0  0  0  0  0  0  0  0  0  0  0  0
   -3.1504    0.5405    0.2019 C   0  0  0  0  0  0  0  0  0  0  0  0
   -4.2528    1.0265   -0.4498 O   0  0  0  0  0  0  0  0  0  0  0  0
   -2.9929   -0.9461    0.2756 C   0  0  0  0  0  0  0  0  0  0  0  0
    1.7593   -1.7415    0.8435 H   0  0  0  0  0  0  0  0  0  0  0  0
    0.6511    1.2077    0.7107 H   0  0  0  0  0  0  0  0  0  0  0  0
    2.9818    1.5022    1.5428 H   0  0  0  0  0  0  0  0  0  0  0  0
    3.3583   -0.2227    1.0394 H   0  0  0  0  0  0  0  0  0  0  0  0
    4.2721    1.1237   -0.5779 H   0  0  0  0  0  0  0  0  0  0  0  0
    2.7265    0.2052   -2.3786 H   0  0  0  0  0  0  0  0  0  0  0  0
    3.3977   -0.8884   -1.0929 H   0  0  0  0  0  0  0  0  0  0  0  0
    0.5307   -0.0354   -1.5225 H   0  0  0  0  0  0  0  0  0  0  0  0
   -2.2485    0.0756   -1.6832 H   0  0  0  0  0  0  0  0  0  0  0  0
   -1.2516    1.2797   -0.6641 H   0  0  0  0  0  0  0  0  0  0  0  0
   -2.8941    1.0041    1.1755 H   0  0  0  0  0  0  0  0  0  0  0  0
   -4.3149    1.9972   -0.2613 H   0  0  0  0  0  0  0  0  0  0  0  0
   -3.3279   -1.4181   -0.6790 H   0  0  0  0  0  0  0  0  0  0  0  0
   -3.2954   -1.4487    1.1912 H   0  0  0  0  0  0  0  0  0  0  0  0
  1  2  2  0
  2  3  1  0
  3  4  1  0
  4  5  1  0
  5  6  1  0
  6  7  1  0
  7  8  1  0
  2  9  1  0
  9 10  1  0
 10 11  1  0
 11 12  1  0
 11 13  1  0
  8  3  1  0
 13  9  1  0
  8  4  1  0
  3 14  1  1
  4 15  1  6
  5 16  1  0
  5 17  1  0
  6 18  1  0
  7 19  1  0
  7 20  1  0
  8 21  1  6
 10 22  1  0
 10 23  1  0
 11 24  1  0
 12 25  1  0
 13 26  1  0
 13 27  1  0
M  END
$$$$

     RDKit          3D

 27 29  0  0  0  0  0  0  0  0999 V2000
    0.4723    0.8143    2.1640 O   0  0  0  0  0  0  0  0  0  0  0  0
    0.5019    0.4843    0.9521 C   0  0  0  0  0  0  0  0  0  0  0  0
   -0.7411   -0.0504    0.3411 C   0  0  2  0  0  0  0  0  0  0  0  0
   -2.0053    0.5607    0.8402 C   0  0  1  0  0  0  0  0  0  0  0  0
   -3.2663    0.5012    0.0339 C   0  0  0  0  0  0  0  0  0  0  0  0
   -3.7710   -0.8385    0.1127 N   0  0  0  0  0  0  0  0  0  0  0  0
   -2.6751   -1.7097    0.4232 C   0  0  0  0  0  0  0  0  0  0  0  0
   -1.6771   -0.8543    1.1459 C   0  0  1  0  0  0  0  0  0  0  0  0
    1.6911    0.6171    0.1808 N   0  0  0  0  0  0  0  0  0  0  0  0
    3.0477    1.0774    0.4066 C   0  0  0  0  0  0  0  0  0  0  0  0
    3.4804    0.0365   -0.6348 C   0  0  0  0  0  0  0  0  0  0  0  0
    4.5216    0.4222   -1.4397 O   0  0  0  0  0  0  0  0  0  0  0  0
    2.0844    0.3496   -1.1895 C   0  0  0  0  0  0  0  0  0  0  0  0
   -0.6639   -0.3289   -0.7368 H   0  0  0  0  0  0  0  0  0  0  0  0
   -1.9414    1.2563    1.7148 H   0  0  0  0  0  0  0  0  0  0  0  0
   -3.1299    0.8636   -0.9905 H   0  0  0  0  0  0  0  0  0  0  0  0
   -4.0172    1.1590    0.5544 H   0  0  0  0  0  0  0  0  0  0  0  0
   -4.2940   -1.1438   -0.7328 H   0  0  0  0  0  0  0  0  0  0  0  0
   -3.0671   -2.5083    1.1078 H   0  0  0  0  0  0  0  0  0  0  0  0
   -2.2518   -2.2195   -0.4629 H   0  0  0  0  0  0  0  0  0  0  0  0
   -1.3662   -1.1609    2.1735 H   0  0  0  0  0  0  0  0  0  0  0  0
    3.1523    2.0969   -0.0330 H   0  0  0  0  0  0  0  0  0  0  0  0
    3.4556    0.9271    1.4052 H   0  0  0  0  0  0  0  0  0  0  0  0
    3.4990   -0.9866   -0.2297 H   0  0  0  0  0  0  0  0  0  0  0  0
    5.2792   -0.2082   -1.2746 H   0  0  0  0  0  0  0  0  0  0  0  0
    2.0922    1.3209   -1.7462 H   0  0  0  0  0  0  0  0  0  0  0  0
    1.5896   -0.4780   -1.6903 H   0  0  0  0  0  0  0  0  0  0  0  0
  1  2  2  0
  2  3  1  0
  3  4  1  0
  4  5  1  0
  5  6  1  0
  6  7  1  0
  7  8  1  0
  2  9  1  0
  9 10  1  0
 10 11  1  0
 11 12  1  0
 11 13  1  0
  8  3  1  0
 13  9  1  0
  8  4  1  0
  3 14  1  6
  4 15  1  1
  5 16  1  0
  5 17  1  0
  6 18  1  0
  7 19  1  0
  7 20  1  0
  8 21  1  1
 10 22  1  0
 10 23  1  0
 11 24  1  0
 12 25  1  0
 13 26  1  0
 13 27  1  0
M  END
$$$$

     RDKit          3D

 27 29  0  0  0  0  0  0  0  0999 V2000
    0.5509    2.6355   -0.6664 O   0  0  0  0  0  0  0  0  0  0  0  0
    0.3649    1.3960   -0.3765 C   0  0  0  0  0  0  0  0  0  0  0  0
   -0.9984    0.8219   -0.4991 C   0  0  2  0  0  0  0  0  0  0  0  0
   -1.5722   -0.0601    0.5564 C   0  0  1  0  0  0  0  0  0  0  0  0
   -3.0815   -0.2036    0.6100 C   0  0  0  0  0  0  0  0  0  0  0  0
   -3.5511   -0.1179   -0.7469 N   0  0  0  0  0  0  0  0  0  0  0  0
   -2.5915   -0.9146   -1.4731 C   0  0  0  0  0  0  0  0  0  0  0  0
   -1.2557   -0.5885   -0.8067 C   0  0  1  0  0  0  0  0  0  0  0  0
    1.4948    0.6791    0.0393 N   0  0  0  0  0  0  0  0  0  0  0  0
    1.7698   -0.6698    0.4454 C   0  0  0  0  0  0  0  0  0  0  0  0
    3.1701   -0.3000    0.9202 C   0  0  0  0  0  0  0  0  0  0  0  0
    4.1960   -1.0555    0.3733 O   0  0  0  0  0  0  0  0  0  0  0  0
    2.8827    0.9975    0.2377 C   0  0  0  0  0  0  0  0  0  0  0  0
   -1.7512    1.5656   -0.8839 H   0  0  0  0  0  0  0  0  0  0  0  0
   -1.0364   -0.3543    1.4540 H   0  0  0  0  0  0  0  0  0  0  0  0
   -3.5610    0.5864    1.2223 H   0  0  0  0  0  0  0  0  0  0  0  0
   -3.3932   -1.1920    1.0066 H   0  0  0  0  0  0  0  0  0  0  0  0
   -3.6563    0.8455   -1.0989 H   0  0  0  0  0  0  0  0  0  0  0  0
   -2.5197   -0.5057   -2.5004 H   0  0  0  0  0  0  0  0  0  0  0  0
   -2.8459   -1.9721   -1.4194 H   0  0  0  0  0  0  0  0  0  0  0  0
   -0.4673   -1.3552   -0.8260 H   0  0  0  0  0  0  0  0  0  0  0  0
    1.8928   -1.3602   -0.4414 H   0  0  0  0  0  0  0  0  0  0  0  0
    1.2057   -1.1026    1.2675 H   0  0  0  0  0  0  0  0  0  0  0  0
    3.2522   -0.2179    2.0352 H   0  0  0  0  0  0  0  0  0  0  0  0
    5.0074   -0.5133    0.2309 H   0  0  0  0  0  0  0  0  0  0  0  0
    3.0404    1.9049    0.8585 H   0  0  0  0  0  0  0  0  0  0  0  0
    3.4538    1.0507   -0.7338 H   0  0  0  0  0  0  0  0  0  0  0  0
  1  2  2  0
  2  3  1  0
  3  4  1  0
  4  5  1  0
  5  6  1  0
  6  7  1  0
  7  8  1  0
  2  9  1  0
  9 10  1  0
 10 11  1  0
 11 12  1  0
 11 13  1  0
  8  3  1  0
 13  9  1  0
  8  4  1  0
  3 14  1  6
  4 15  1  1
  5 16  1  0
  5 17  1  0
  6 18  1  0
  7 19  1  0
  7 20  1  0
  8 21  1  1
 10 22  1  0
 10 23  1  0
 11 24  1  0
 12 25  1  0
 13 26  1  0
 13 27  1  0
M  END
$$$$

     RDKit          3D

 27 29  0  0  0  0  0  0  0  0999 V2000
    0.0871    2.1671   -0.3705 O   0  0  0  0  0  0  0  0  0  0  0  0
    0.3609    0.9741   -0.1614 C   0  0  0  0  0  0  0  0  0  0  0  0
   -0.7616    0.0191   -0.0068 C   0  0  2  0  0  0  0  0  0  0  0  0
   -2.0356    0.3489   -0.7119 C   0  0  1  0  0  0  0  0  0  0  0  0
   -2.9918   -0.7519   -1.0248 C   0  0  0  0  0  0  0  0  0  0  0  0
   -3.7085   -1.0117    0.1834 N   0  0  0  0  0  0  0  0  0  0  0  0
   -2.9572   -0.4920    1.2863 C   0  0  0  0  0  0  0  0  0  0  0  0
   -1.9699    0.5065    0.7404 C   0  0  1  0  0  0  0  0  0  0  0  0
    1.7195    0.5366   -0.0726 N   0  0  0  0  0  0  0  0  0  0  0  0
    2.4240   -0.7003    0.1484 C   0  0  0  0  0  0  0  0  0  0  0  0
    3.6733    0.0606    0.5359 C   0  0  0  0  0  0  0  0  0  0  0  0
    4.8270   -0.3162   -0.1305 O   0  0  0  0  0  0  0  0  0  0  0  0
    3.0012    1.2035   -0.1758 C   0  0  0  0  0  0  0  0  0  0  0  0
   -0.5138   -1.0382    0.1786 H   0  0  0  0  0  0  0  0  0  0  0  0
   -2.0987    1.2805   -1.3113 H   0  0  0  0  0  0  0  0  0  0  0  0
   -2.4457   -1.6441   -1.3682 H   0  0  0  0  0  0  0  0  0  0  0  0
   -3.6782   -0.4549   -1.8636 H   0  0  0  0  0  0  0  0  0  0  0  0
   -4.6863   -0.6299    0.1379 H   0  0  0  0  0  0  0  0  0  0  0  0
   -2.4563   -1.3383    1.8147 H   0  0  0  0  0  0  0  0  0  0  0  0
   -3.6380    0.0446    1.9797 H   0  0  0  0  0  0  0  0  0  0  0  0
   -1.8876    1.4946    1.2311 H   0  0  0  0  0  0  0  0  0  0  0  0
    2.5473   -1.3531   -0.7437 H   0  0  0  0  0  0  0  0  0  0  0  0
    2.0536   -1.2667    1.0389 H   0  0  0  0  0  0  0  0  0  0  0  0
    3.7793    0.2167    1.6222 H   0  0  0  0  0  0  0  0  0  0  0  0
    5.0001   -1.2865   -0.1048 H   0  0  0  0  0  0  0  0  0  0  0  0
    3.0683    2.1865    0.3292 H   0  0  0  0  0  0  0  0  0  0  0  0
    3.2874    1.2444   -1.2645 H   0  0  0  0  0  0  0  0  0  0  0  0
  1  2  2  0
  2  3  1  0
  3  4  1  0
  4  5  1  0
  5  6  1  0
  6  7  1  0
  7  8  1  0
  2  9  1  0
  9 10  1  0
 10 11  1  0
 11 12  1  0
 11 13  1  0
  8  3  1  0
 13  9  1  0
  8  4  1  0
  3 14  1  1
  4 15  1  6
  5 16  1  0
  5 17  1  0
  6 18  1  0
  7 19  1  0
  7 20  1  0
  8 21  1  6
 10 22  1  0
 10 23  1  0
 11 24  1  0
 12 25  1  0
 13 26  1  0
 13 27  1  0
M  END
$$$$

     RDKit          3D

 27 29  0  0  0  0  0  0  0  0999 V2000
    0.6137    1.8908    0.6120 O   0  0  0  0  0  0  0  0  0  0  0  0
    0.5493    0.6854    0.1918 C   0  0  0  0  0  0  0  0  0  0  0  0
   -0.7381    0.0960   -0.2355 C   0  0  2  0  0  0  0  0  0  0  0  0
   -1.6704    1.0225   -0.9173 C   0  0  1  0  0  0  0  0  0  0  0  0
   -2.8510    0.5106   -1.6948 C   0  0  0  0  0  0  0  0  0  0  0  0
   -3.9104    0.4121   -0.6777 N   0  0  0  0  0  0  0  0  0  0  0  0
   -3.1761   -0.2867    0.3781 C   0  0  0  0  0  0  0  0  0  0  0  0
   -1.9332    0.5500    0.4833 C   0  0  1  0  0  0  0  0  0  0  0  0
    1.7676   -0.0413    0.1606 N   0  0  0  0  0  0  0  0  0  0  0  0
    3.1541    0.1910    0.4844 C   0  0  0  0  0  0  0  0  0  0  0  0
    3.5422   -1.1452   -0.1327 C   0  0  0  0  0  0  0  0  0  0  0  0
    4.1201   -0.9967   -1.3877 O   0  0  0  0  0  0  0  0  0  0  0  0
    2.0749   -1.3996   -0.2460 C   0  0  0  0  0  0  0  0  0  0  0  0
   -0.6668   -0.9490   -0.5774 H   0  0  0  0  0  0  0  0  0  0  0  0
   -1.3586    2.0482   -1.1193 H   0  0  0  0  0  0  0  0  0  0  0  0
   -3.1982    1.2414   -2.4328 H   0  0  0  0  0  0  0  0  0  0  0  0
   -2.7044   -0.5095   -2.0879 H   0  0  0  0  0  0  0  0  0  0  0  0
   -4.1758    1.3577   -0.3454 H   0  0  0  0  0  0  0  0  0  0  0  0
   -3.7557   -0.3567    1.3044 H   0  0  0  0  0  0  0  0  0  0  0  0
   -2.9327   -1.2955   -0.0499 H   0  0  0  0  0  0  0  0  0  0  0  0
   -1.8939    1.3439    1.2513 H   0  0  0  0  0  0  0  0  0  0  0  0
    3.5336    1.0581   -0.1263 H   0  0  0  0  0  0  0  0  0  0  0  0
    3.3995    0.2966    1.5492 H   0  0  0  0  0  0  0  0  0  0  0  0
    4.0924   -1.7821    0.5776 H   0  0  0  0  0  0  0  0  0  0  0  0
    4.7229   -0.2050   -1.4148 H   0  0  0  0  0  0  0  0  0  0  0  0
    1.7235   -1.5756   -1.2873 H   0  0  0  0  0  0  0  0  0  0  0  0
    1.6717   -2.1614    0.4592 H   0  0  0  0  0  0  0  0  0  0  0  0
  1  2  2  0
  2  3  1  0
  3  4  1  0
  4  5  1  0
  5  6  1  0
  6  7  1  0
  7  8  1  0
  2  9  1  0
  9 10  1  0
 10 11  1  0
 11 12  1  0
 11 13  1  0
  8  3  1  0
 13  9  1  0
  8  4  1  0
  3 14  1  6
  4 15  1  1
  5 16  1  0
  5 17  1  0
  6 18  1  0
  7 19  1  0
  7 20  1  0
  8 21  1  1
 10 22  1  0
 10 23  1  0
 11 24  1  0
 12 25  1  0
 13 26  1  0
 13 27  1  0
M  END
$$$$

     RDKit          3D

 27 29  0  0  0  0  0  0  0  0999 V2000
    0.2521   -2.2531   -0.0749 O   0  0  0  0  0  0  0  0  0  0  0  0
    0.4401   -0.9930   -0.0746 C   0  0  0  0  0  0  0  0  0  0  0  0
   -0.7592   -0.1321   -0.1466 C   0  0  2  0  0  0  0  0  0  0  0  0
   -1.9485   -0.6252    0.6437 C   0  0  1  0  0  0  0  0  0  0  0  0
   -2.8882    0.4596    1.0988 C   0  0  0  0  0  0  0  0  0  0  0  0
   -3.7613    0.6696   -0.0167 N   0  0  0  0  0  0  0  0  0  0  0  0
   -3.0195    0.3874   -1.2237 C   0  0  0  0  0  0  0  0  0  0  0  0
   -1.9729   -0.6294   -0.8525 C   0  0  1  0  0  0  0  0  0  0  0  0
    1.7397   -0.4635   -0.0079 N   0  0  0  0  0  0  0  0  0  0  0  0
    2.2838    0.8755    0.0111 C   0  0  0  0  0  0  0  0  0  0  0  0
    3.6623    0.3387    0.2801 C   0  0  0  0  0  0  0  0  0  0  0  0
    4.6473    0.7215   -0.6055 O   0  0  0  0  0  0  0  0  0  0  0  0
    3.0722   -1.0252    0.0692 C   0  0  0  0  0  0  0  0  0  0  0  0
   -0.5487    0.9500   -0.1436 H   0  0  0  0  0  0  0  0  0  0  0  0
   -1.8654   -1.5636    1.2026 H   0  0  0  0  0  0  0  0  0  0  0  0
   -2.3102    1.3853    1.2970 H   0  0  0  0  0  0  0  0  0  0  0  0
   -3.4473    0.1299    2.0126 H   0  0  0  0  0  0  0  0  0  0  0  0
   -4.6550    0.1664    0.0249 H   0  0  0  0  0  0  0  0  0  0  0  0
   -2.5560    1.3300   -1.6237 H   0  0  0  0  0  0  0  0  0  0  0  0
   -3.7344   -0.0127   -1.9885 H   0  0  0  0  0  0  0  0  0  0  0  0
   -1.9279   -1.5679   -1.4242 H   0  0  0  0  0  0  0  0  0  0  0  0
    2.1652    1.4438   -0.9274 H   0  0  0  0  0  0  0  0  0  0  0  0
    1.8525    1.4227    0.8958 H   0  0  0  0  0  0  0  0  0  0  0  0
    3.9821    0.5130    1.3290 H   0  0  0  0  0  0  0  0  0  0  0  0
    4.7389    1.6806   -0.7155 H   0  0  0  0  0  0  0  0  0  0  0  0
    3.2057   -1.6845    0.9753 H   0  0  0  0  0  0  0  0  0  0  0  0
    3.3524   -1.5236   -0.8649 H   0  0  0  0  0  0  0  0  0  0  0  0
  1  2  2  0
  2  3  1  0
  3  4  1  0
  4  5  1  0
  5  6  1  0
  6  7  1  0
  7  8  1  0
  2  9  1  0
  9 10  1  0
 10 11  1  0
 11 12  1  0
 11 13  1  0
  8  3  1  0
 13  9  1  0
  8  4  1  0
  3 14  1  1
  4 15  1  1
  5 16  1  0
  5 17  1  0
  6 18  1  0
  7 19  1  0
  7 20  1  0
  8 21  1  6
 10 22  1  0
 10 23  1  0
 11 24  1  0
 12 25  1  0
 13 26  1  0
 13 27  1  0
M  END
$$$$

     RDKit          3D

 27 29  0  0  0  0  0  0  0  0999 V2000
   -0.2478    1.4470    1.5080 O   0  0  0  0  0  0  0  0  0  0  0  0
   -0.4610    0.5675    0.6242 C   0  0  0  0  0  0  0  0  0  0  0  0
    0.7478   -0.0557    0.0212 C   0  0  2  0  0  0  0  0  0  0  0  0
    1.9043   -0.2698    0.9218 C   0  0  1  0  0  0  0  0  0  0  0  0
    3.0267   -1.1752    0.4694 C   0  0  0  0  0  0  0  0  0  0  0  0
    3.9539   -0.1936   -0.1119 N   0  0  0  0  0  0  0  0  0  0  0  0
    3.0525    0.4688   -1.0628 C   0  0  0  0  0  0  0  0  0  0  0  0
    1.9006    0.8448   -0.1729 C   0  0  1  0  0  0  0  0  0  0  0  0
   -1.7583    0.2087    0.2431 N   0  0  0  0  0  0  0  0  0  0  0  0
   -2.3476   -0.7113   -0.6876 C   0  0  0  0  0  0  0  0  0  0  0  0
   -3.4789    0.2894   -0.8283 C   0  0  0  0  0  0  0  0  0  0  0  0
   -4.7319   -0.2631   -0.9956 O   0  0  0  0  0  0  0  0  0  0  0  0
   -3.0929    0.5943    0.6064 C   0  0  0  0  0  0  0  0  0  0  0  0
    0.5294   -0.8160   -0.7434 H   0  0  0  0  0  0  0  0  0  0  0  0
    1.8220    0.0528    1.9584 H   0  0  0  0  0  0  0  0  0  0  0  0
    3.4793   -1.7554    1.2724 H   0  0  0  0  0  0  0  0  0  0  0  0
    2.6774   -1.7867   -0.3959 H   0  0  0  0  0  0  0  0  0  0  0  0
    4.1065    0.5236    0.6512 H   0  0  0  0  0  0  0  0  0  0  0  0
    2.7011   -0.2072   -1.8470 H   0  0  0  0  0  0  0  0  0  0  0  0
    3.5703    1.3669   -1.4369 H   0  0  0  0  0  0  0  0  0  0  0  0
    1.9165    1.8733    0.2552 H   0  0  0  0  0  0  0  0  0  0  0  0
   -1.7919   -0.8951   -1.6217 H   0  0  0  0  0  0  0  0  0  0  0  0
   -2.7082   -1.6481   -0.1715 H   0  0  0  0  0  0  0  0  0  0  0  0
   -3.2069    1.1020   -1.5298 H   0  0  0  0  0  0  0  0  0  0  0  0
   -4.7113   -1.1008   -1.5183 H   0  0  0  0  0  0  0  0  0  0  0  0
   -3.6128   -0.1083    1.3107 H   0  0  0  0  0  0  0  0  0  0  0  0
   -3.2387    1.6468    0.9088 H   0  0  0  0  0  0  0  0  0  0  0  0
  1  2  2  0
  2  3  1  0
  3  4  1  0
  4  5  1  0
  5  6  1  0
  6  7  1  0
  7  8  1  0
  2  9  1  0
  9 10  1  0
 10 11  1  0
 11 12  1  0
 11 13  1  0
  8  3  1  0
 13  9  1  0
  8  4  1  0
  3 14  1  6
  4 15  1  1
  5 16  1  0
  5 17  1  0
  6 18  1  0
  7 19  1  0
  7 20  1  0
  8 21  1  1
 10 22  1  0
 10 23  1  0
 11 24  1  0
 12 25  1  0
 13 26  1  0
 13 27  1  0
M  END
$$$$
