
     RDKit          3D

 29 29  0  0  0  0  0  0  0  0999 V2000
    3.7926    0.9498    2.1113 C   0  0  0  0  0  0  0  0  0  0  0  0
    3.0842    1.2170    0.9511 O   0  0  0  0  0  0  0  0  0  0  0  0
    2.3034    0.1871    0.5141 C   0  0  2  0  0  0  0  0  0  0  0  0
    2.6335   -0.3123   -0.8575 C   0  0  0  0  0  0  0  0  0  0  0  0
    0.8432    0.5189    0.5435 C   0  0  0  0  0  0  0  0  0  0  0  0
    0.4042    1.6163    0.9263 O   0  0  0  0  0  0  0  0  0  0  0  0
   -0.1160   -0.4416    0.1209 N   0  0  0  0  0  0  0  0  0  0  0  0
   -1.5133   -0.2368    0.1067 C   0  0  2  0  0  0  0  0  0  0  0  0
   -2.3578   -1.1601    0.8785 C   0  0  0  0  0  0  0  0  0  0  0  0
   -3.5888   -1.2539    0.2598 O   0  0  0  0  0  0  0  0  0  0  0  0
   -3.5913   -0.4081   -0.8312 C   0  0  0  0  0  0  0  0  0  0  0  0
   -2.1434   -0.2928   -1.2711 C   0  0  1  0  0  0  0  0  0  0  0  0
   -1.9030    0.9496   -1.9788 N   0  0  0  0  0  0  0  0  0  0  0  0
    4.3790    1.8813    2.3390 H   0  0  0  0  0  0  0  0  0  0  0  0
    3.1305    0.8063    2.9931 H   0  0  0  0  0  0  0  0  0  0  0  0
    4.5084    0.1142    1.9690 H   0  0  0  0  0  0  0  0  0  0  0  0
    2.4134   -0.6841    1.2215 H   0  0  0  0  0  0  0  0  0  0  0  0
    2.2642   -1.3630   -0.9282 H   0  0  0  0  0  0  0  0  0  0  0  0
    3.7303   -0.3731   -1.0436 H   0  0  0  0  0  0  0  0  0  0  0  0
    2.1352    0.2461   -1.6700 H   0  0  0  0  0  0  0  0  0  0  0  0
    0.2617   -1.3712   -0.2030 H   0  0  0  0  0  0  0  0  0  0  0  0
   -1.7168    0.8047    0.4834 H   0  0  0  0  0  0  0  0  0  0  0  0
   -2.5151   -0.7575    1.9222 H   0  0  0  0  0  0  0  0  0  0  0  0
   -1.9761   -2.1797    1.0131 H   0  0  0  0  0  0  0  0  0  0  0  0
   -4.2669   -0.7032   -1.6301 H   0  0  0  0  0  0  0  0  0  0  0  0
   -3.8617    0.6141   -0.4315 H   0  0  0  0  0  0  0  0  0  0  0  0
   -1.8606   -1.1763   -1.8374 H   0  0  0  0  0  0  0  0  0  0  0  0
   -1.8281    1.7537   -1.3261 H   0  0  0  0  0  0  0  0  0  0  0  0
   -2.6451    1.0548   -2.6870 H   0  0  0  0  0  0  0  0  0  0  0  0
  1  2  1  0
  2  3  1  0
  3  4  1  0
  3  5  1  0
  5  6  2  0
  5  7  1  0
  7  8  1  0
  8  9  1  0
  9 10  1  0
 10 11  1  0
 11 12  1  0
 12 13  1  0
 12  8  1  0
  1 14  1  0
  1 15  1  0
  1 16  1  0
  3 17  1  1
  4 18  1  0
  4 19  1  0
  4 20  1  0
  7 21  1  0
  8 22  1  1
  9 23  1  0
  9 24  1  0
 11 25  1  0
 11 26  1  0
 12 27  1  6
 13 28  1  0
 13 29  1  0
M  END
$$$$

     RDKit          3D

 29 29  0  0  0  0  0  0  0  0999 V2000
    4.0625    1.4370   -0.3095 C   0  0  0  0  0  0  0  0  0  0  0  0
    3.1446    0.5330   -0.8402 O   0  0  0  0  0  0  0  0  0  0  0  0
    2.2918    0.0334    0.1344 C   0  0  2  0  0  0  0  0  0  0  0  0
    2.4580   -1.4903    0.2355 C   0  0  0  0  0  0  0  0  0  0  0  0
    0.9058    0.2812   -0.2724 C   0  0  0  0  0  0  0  0  0  0  0  0
    0.7015    0.8701   -1.3699 O   0  0  0  0  0  0  0  0  0  0  0  0
   -0.2154   -0.1293    0.5464 N   0  0  0  0  0  0  0  0  0  0  0  0
   -1.4962    0.1683    0.0418 C   0  0  2  0  0  0  0  0  0  0  0  0
   -2.3457    0.9936    1.0224 C   0  0  0  0  0  0  0  0  0  0  0  0
   -3.5642    0.9683    0.3834 O   0  0  0  0  0  0  0  0  0  0  0  0
   -3.7423   -0.2545   -0.2010 C   0  0  0  0  0  0  0  0  0  0  0  0
   -2.4280   -1.0126   -0.0945 C   0  0  1  0  0  0  0  0  0  0  0  0
   -2.1544   -1.7789   -1.2945 N   0  0  0  0  0  0  0  0  0  0  0  0
    3.5068    2.2632    0.1339 H   0  0  0  0  0  0  0  0  0  0  0  0
    4.7653    1.7624   -1.0945 H   0  0  0  0  0  0  0  0  0  0  0  0
    4.6754    0.8808    0.4464 H   0  0  0  0  0  0  0  0  0  0  0  0
    2.5510    0.4812    1.1145 H   0  0  0  0  0  0  0  0  0  0  0  0
    1.5355   -1.8636    0.7355 H   0  0  0  0  0  0  0  0  0  0  0  0
    3.3737   -1.7603    0.7825 H   0  0  0  0  0  0  0  0  0  0  0  0
    2.5072   -1.8440   -0.8251 H   0  0  0  0  0  0  0  0  0  0  0  0
    0.0089   -0.6104    1.4406 H   0  0  0  0  0  0  0  0  0  0  0  0
   -1.4723    0.6784   -0.9176 H   0  0  0  0  0  0  0  0  0  0  0  0
   -1.9443    2.0085    1.1412 H   0  0  0  0  0  0  0  0  0  0  0  0
   -2.4295    0.4302    1.9624 H   0  0  0  0  0  0  0  0  0  0  0  0
   -3.8889   -0.0721   -1.3065 H   0  0  0  0  0  0  0  0  0  0  0  0
   -4.5842   -0.8154    0.2330 H   0  0  0  0  0  0  0  0  0  0  0  0
   -2.4486   -1.6455    0.8154 H   0  0  0  0  0  0  0  0  0  0  0  0
   -2.6592   -2.6792   -1.2502 H   0  0  0  0  0  0  0  0  0  0  0  0
   -1.1146   -1.9268   -1.3932 H   0  0  0  0  0  0  0  0  0  0  0  0
  1  2  1  0
  2  3  1  0
  3  4  1  0
  3  5  1  0
  5  6  2  0
  5  7  1  0
  7  8  1  0
  8  9  1  0
  9 10  1  0
 10 11  1  0
 11 12  1  0
 12 13  1  0
 12  8  1  0
  1 14  1  0
  1 15  1  0
  1 16  1  0
  3 17  1  1
  4 18  1  0
  4 19  1  0
  4 20  1  0
  7 21  1  0
  8 22  1  6
  9 23  1  0
  9 24  1  0
 11 25  1  0
 11 26  1  0
 12 27  1  1
 13 28  1  0
 13 29  1  0
M  END
$$$$

     RDKit          3D

 29 29  0  0  0  0  0  0  0  0999 V2000
   -3.1011   -0.9567   -1.5281 C   0  0  0  0  0  0  0  0  0  0  0  0
   -2.6724   -0.2568   -0.4124 O   0  0  0  0  0  0  0  0  0  0  0  0
   -2.1549   -1.0750    0.5832 C   0  0  2  0  0  0  0  0  0  0  0  0
   -2.9760   -0.9939    1.8563 C   0  0  0  0  0  0  0  0  0  0  0  0
   -0.7358   -0.7179    0.8293 C   0  0  0  0  0  0  0  0  0  0  0  0
   -0.1169   -1.3704    1.7084 O   0  0  0  0  0  0  0  0  0  0  0  0
   -0.0476    0.2948    0.1470 N   0  0  0  0  0  0  0  0  0  0  0  0
    1.3282    0.6227    0.4030 C   0  0  2  0  0  0  0  0  0  0  0  0
    1.5329    2.0439    0.8317 C   0  0  0  0  0  0  0  0  0  0  0  0
    2.7267    2.4902    0.3327 O   0  0  0  0  0  0  0  0  0  0  0  0
    3.3204    1.4974   -0.3994 C   0  0  0  0  0  0  0  0  0  0  0  0
    2.2110    0.5219   -0.7927 C   0  0  1  0  0  0  0  0  0  0  0  0
    2.7231   -0.8012   -1.0303 N   0  0  0  0  0  0  0  0  0  0  0  0
   -3.4897   -0.2173   -2.2492 H   0  0  0  0  0  0  0  0  0  0  0  0
   -3.8257   -1.7590   -1.2983 H   0  0  0  0  0  0  0  0  0  0  0  0
   -2.2254   -1.4638   -2.0062 H   0  0  0  0  0  0  0  0  0  0  0  0
   -2.2171   -2.1220    0.2215 H   0  0  0  0  0  0  0  0  0  0  0  0
   -4.0521   -1.0127    1.5774 H   0  0  0  0  0  0  0  0  0  0  0  0
   -2.8030   -0.0436    2.3964 H   0  0  0  0  0  0  0  0  0  0  0  0
   -2.7460   -1.8541    2.5029 H   0  0  0  0  0  0  0  0  0  0  0  0
   -0.5462    0.8462   -0.5859 H   0  0  0  0  0  0  0  0  0  0  0  0
    1.7476   -0.0314    1.2007 H   0  0  0  0  0  0  0  0  0  0  0  0
    0.7067    2.6688    0.3911 H   0  0  0  0  0  0  0  0  0  0  0  0
    1.4613    2.1761    1.9327 H   0  0  0  0  0  0  0  0  0  0  0  0
    4.0395    0.9681    0.2687 H   0  0  0  0  0  0  0  0  0  0  0  0
    3.8320    1.8855   -1.3209 H   0  0  0  0  0  0  0  0  0  0  0  0
    1.7772    0.8996   -1.7213 H   0  0  0  0  0  0  0  0  0  0  0  0
    2.6582   -1.4274   -0.2065 H   0  0  0  0  0  0  0  0  0  0  0  0
    3.6451   -0.8123   -1.5041 H   0  0  0  0  0  0  0  0  0  0  0  0
  1  2  1  0
  2  3  1  0
  3  4  1  0
  3  5  1  0
  5  6  2  0
  5  7  1  0
  7  8  1  0
  8  9  1  0
  9 10  1  0
 10 11  1  0
 11 12  1  0
 12 13  1  0
 12  8  1  0
  1 14  1  0
  1 15  1  0
  1 16  1  0
  3 17  1  6
  4 18  1  0
  4 19  1  0
  4 20  1  0
  7 21  1  0
  8 22  1  1
  9 23  1  0
  9 24  1  0
 11 25  1  0
 11 26  1  0
 12 27  1  6
 13 28  1  0
 13 29  1  0
M  END
$$$$

     RDKit          3D

 29 29  0  0  0  0  0  0  0  0999 V2000
    3.0786   -1.7955    0.6505 C   0  0  0  0  0  0  0  0  0  0  0  0
    2.5595   -0.5439    0.9742 O   0  0  0  0  0  0  0  0  0  0  0  0
    2.4216    0.2836   -0.1079 C   0  0  2  0  0  0  0  0  0  0  0  0
    3.3205    1.5000   -0.0308 C   0  0  0  0  0  0  0  0  0  0  0  0
    1.0200    0.6537   -0.4012 C   0  0  0  0  0  0  0  0  0  0  0  0
    0.8084    1.4120   -1.3805 O   0  0  0  0  0  0  0  0  0  0  0  0
   -0.1015    0.2207    0.3347 N   0  0  0  0  0  0  0  0  0  0  0  0
   -1.4586    0.5702    0.0623 C   0  0  2  0  0  0  0  0  0  0  0  0
   -2.1870    1.1818    1.2199 C   0  0  0  0  0  0  0  0  0  0  0  0
   -3.5251    1.0357    0.9335 O   0  0  0  0  0  0  0  0  0  0  0  0
   -3.6920    0.0138    0.0412 C   0  0  0  0  0  0  0  0  0  0  0  0
   -2.3434   -0.6361   -0.1920 C   0  0  1  0  0  0  0  0  0  0  0  0
   -2.2093   -1.1453   -1.5337 N   0  0  0  0  0  0  0  0  0  0  0  0
    3.1658   -2.4112    1.5535 H   0  0  0  0  0  0  0  0  0  0  0  0
    3.9770   -1.7512    0.0303 H   0  0  0  0  0  0  0  0  0  0  0  0
    2.2870   -2.2932    0.0163 H   0  0  0  0  0  0  0  0  0  0  0  0
    2.7808   -0.2953   -1.0097 H   0  0  0  0  0  0  0  0  0  0  0  0
    4.3619    1.1248   -0.2236 H   0  0  0  0  0  0  0  0  0  0  0  0
    3.0859    2.1578   -0.8917 H   0  0  0  0  0  0  0  0  0  0  0  0
    3.2711    2.0112    0.9400 H   0  0  0  0  0  0  0  0  0  0  0  0
    0.0787   -0.4095    1.1479 H   0  0  0  0  0  0  0  0  0  0  0  0
   -1.5651    1.2415   -0.8163 H   0  0  0  0  0  0  0  0  0  0  0  0
   -1.9921    0.5501    2.1361 H   0  0  0  0  0  0  0  0  0  0  0  0
   -1.8976    2.2456    1.4030 H   0  0  0  0  0  0  0  0  0  0  0  0
   -4.4697   -0.7198    0.3266 H   0  0  0  0  0  0  0  0  0  0  0  0
   -3.9734    0.4816   -0.9477 H   0  0  0  0  0  0  0  0  0  0  0  0
   -2.2195   -1.4041    0.5867 H   0  0  0  0  0  0  0  0  0  0  0  0
   -1.4647   -1.8433   -1.6086 H   0  0  0  0  0  0  0  0  0  0  0  0
   -3.1179   -1.4359   -1.9558 H   0  0  0  0  0  0  0  0  0  0  0  0
  1  2  1  0
  2  3  1  0
  3  4  1  0
  3  5  1  0
  5  6  2  0
  5  7  1  0
  7  8  1  0
  8  9  1  0
  9 10  1  0
 10 11  1  0
 11 12  1  0
 12 13  1  0
 12  8  1  0
  1 14  1  0
  1 15  1  0
  1 16  1  0
  3 17  1  6
  4 18  1  0
  4 19  1  0
  4 20  1  0
  7 21  1  0
  8 22  1  6
  9 23  1  0
  9 24  1  0
 11 25  1  0
 11 26  1  0
 12 27  1  1
 13 28  1  0
 13 29  1  0
M  END
$$$$

     RDKit          3D

 29 29  0  0  0  0  0  0  0  0999 V2000
    4.2535    1.0509   -0.3658 C   0  0  0  0  0  0  0  0  0  0  0  0
    3.3102    0.1572   -0.9095 O   0  0  0  0  0  0  0  0  0  0  0  0
    2.3250   -0.0545    0.0251 C   0  0  2  0  0  0  0  0  0  0  0  0
    2.3070   -1.5260    0.3741 C   0  0  0  0  0  0  0  0  0  0  0  0
    1.0095    0.2580   -0.6055 C   0  0  0  0  0  0  0  0  0  0  0  0
    0.9224    0.6399   -1.7875 O   0  0  0  0  0  0  0  0  0  0  0  0
   -0.1970    0.1255    0.1390 N   0  0  0  0  0  0  0  0  0  0  0  0
   -1.4626    0.4346   -0.4941 C   0  0  2  0  0  0  0  0  0  0  0  0
   -2.1660    1.4480    0.3445 C   0  0  0  0  0  0  0  0  0  0  0  0
   -3.0224    0.8167    1.1997 O   0  0  0  0  0  0  0  0  0  0  0  0
   -2.9591   -0.5366    1.0157 C   0  0  0  0  0  0  0  0  0  0  0  0
   -2.3466   -0.7841   -0.3493 C   0  0  1  0  0  0  0  0  0  0  0  0
   -3.3731   -0.7840   -1.3810 N   0  0  0  0  0  0  0  0  0  0  0  0
    4.6860    0.6037    0.5544 H   0  0  0  0  0  0  0  0  0  0  0  0
    3.7898    2.0367   -0.1480 H   0  0  0  0  0  0  0  0  0  0  0  0
    5.0247    1.2056   -1.1475 H   0  0  0  0  0  0  0  0  0  0  0  0
    2.4834    0.5018    0.9623 H   0  0  0  0  0  0  0  0  0  0  0  0
    3.0192   -1.7374    1.1922 H   0  0  0  0  0  0  0  0  0  0  0  0
    2.6051   -2.1386   -0.5096 H   0  0  0  0  0  0  0  0  0  0  0  0
    1.2955   -1.8061    0.6856 H   0  0  0  0  0  0  0  0  0  0  0  0
   -0.1316   -0.1895    1.1157 H   0  0  0  0  0  0  0  0  0  0  0  0
   -1.3144    0.7501   -1.5303 H   0  0  0  0  0  0  0  0  0  0  0  0
   -1.4718    2.0944    0.9106 H   0  0  0  0  0  0  0  0  0  0  0  0
   -2.7694    2.1034   -0.3240 H   0  0  0  0  0  0  0  0  0  0  0  0
   -3.9781   -0.9568    1.1077 H   0  0  0  0  0  0  0  0  0  0  0  0
   -2.3109   -0.9906    1.8018 H   0  0  0  0  0  0  0  0  0  0  0  0
   -1.7608   -1.7159   -0.3271 H   0  0  0  0  0  0  0  0  0  0  0  0
   -4.2229   -1.2214   -0.9338 H   0  0  0  0  0  0  0  0  0  0  0  0
   -3.5446    0.2148   -1.6356 H   0  0  0  0  0  0  0  0  0  0  0  0
  1  2  1  0
  2  3  1  0
  3  4  1  0
  3  5  1  0
  5  6  2  0
  5  7  1  0
  7  8  1  0
  8  9  1  0
  9 10  1  0
 10 11  1  0
 11 12  1  0
 12 13  1  0
 12  8  1  0
  1 14  1  0
  1 15  1  0
  1 16  1  0
  3 17  1  1
  4 18  1  0
  4 19  1  0
  4 20  1  0
  7 21  1  0
  8 22  1  6
  9 23  1  0
  9 24  1  0
 11 25  1  0
 11 26  1  0
 12 27  1  1
 13 28  1  0
 13 29  1  0
M  END
$$$$

     RDKit          3D

 29 29  0  0  0  0  0  0  0  0999 V2000
    4.3985    0.2972   -0.0624 C   0  0  0  0  0  0  0  0  0  0  0  0
    3.3184    0.1343   -0.8987 O   0  0  0  0  0  0  0  0  0  0  0  0
    2.2613   -0.4805   -0.2362 C   0  0  2  0  0  0  0  0  0  0  0  0
    2.0411   -1.8215   -0.9023 C   0  0  0  0  0  0  0  0  0  0  0  0
    1.0717    0.3940   -0.3370 C   0  0  0  0  0  0  0  0  0  0  0  0
    1.1217    1.5047   -0.9526 O   0  0  0  0  0  0  0  0  0  0  0  0
   -0.1858    0.0601    0.2360 N   0  0  0  0  0  0  0  0  0  0  0  0
   -1.3549    0.9142    0.1399 C   0  0  2  0  0  0  0  0  0  0  0  0
   -1.8582    1.1317    1.5557 C   0  0  0  0  0  0  0  0  0  0  0  0
   -2.5391   -0.0001    1.9100 O   0  0  0  0  0  0  0  0  0  0  0  0
   -2.9302   -0.6776    0.7925 C   0  0  0  0  0  0  0  0  0  0  0  0
   -2.5477    0.1263   -0.4195 C   0  0  1  0  0  0  0  0  0  0  0  0
   -3.5823    1.1062   -0.6816 N   0  0  0  0  0  0  0  0  0  0  0  0
    4.7610   -0.6701    0.3190 H   0  0  0  0  0  0  0  0  0  0  0  0
    5.2123    0.8288   -0.5964 H   0  0  0  0  0  0  0  0  0  0  0  0
    4.1038    0.9912    0.7772 H   0  0  0  0  0  0  0  0  0  0  0  0
    2.5730   -0.6764    0.7948 H   0  0  0  0  0  0  0  0  0  0  0  0
    1.1490   -2.3303   -0.4807 H   0  0  0  0  0  0  0  0  0  0  0  0
    2.0600   -1.7780   -1.9915 H   0  0  0  0  0  0  0  0  0  0  0  0
    2.9186   -2.4604   -0.5960 H   0  0  0  0  0  0  0  0  0  0  0  0
   -0.2787   -0.8341    0.7480 H   0  0  0  0  0  0  0  0  0  0  0  0
   -1.1815    1.8341   -0.4109 H   0  0  0  0  0  0  0  0  0  0  0  0
   -0.9912    1.3725    2.1839 H   0  0  0  0  0  0  0  0  0  0  0  0
   -2.5965    1.9836    1.5863 H   0  0  0  0  0  0  0  0  0  0  0  0
   -3.9923   -0.9932    0.7832 H   0  0  0  0  0  0  0  0  0  0  0  0
   -2.3433   -1.6399    0.7309 H   0  0  0  0  0  0  0  0  0  0  0  0
   -2.2666   -0.4681   -1.2895 H   0  0  0  0  0  0  0  0  0  0  0  0
   -4.2340    0.8253   -1.4329 H   0  0  0  0  0  0  0  0  0  0  0  0
   -4.1084    1.3261    0.1953 H   0  0  0  0  0  0  0  0  0  0  0  0
  1  2  1  0
  2  3  1  0
  3  4  1  0
  3  5  1  0
  5  6  2  0
  5  7  1  0
  7  8  1  0
  8  9  1  0
  9 10  1  0
 10 11  1  0
 11 12  1  0
 12 13  1  0
 12  8  1  0
  1 14  1  0
  1 15  1  0
  1 16  1  0
  3 17  1  1
  4 18  1  0
  4 19  1  0
  4 20  1  0
  7 21  1  0
  8 22  1  6
  9 23  1  0
  9 24  1  0
 11 25  1  0
 11 26  1  0
 12 27  1  6
 13 28  1  0
 13 29  1  0
M  END
$$$$

     RDKit          3D

 29 29  0  0  0  0  0  0  0  0999 V2000
    3.1423    0.8656   -1.5732 C   0  0  0  0  0  0  0  0  0  0  0  0
    2.5073   -0.2367   -0.9951 O   0  0  0  0  0  0  0  0  0  0  0  0
    2.4004   -0.1090    0.3676 C   0  0  2  0  0  0  0  0  0  0  0  0
    3.1645   -1.1701    1.1240 C   0  0  0  0  0  0  0  0  0  0  0  0
    0.9834   -0.1625    0.8353 C   0  0  0  0  0  0  0  0  0  0  0  0
    0.6908   -0.0620    2.0543 O   0  0  0  0  0  0  0  0  0  0  0  0
   -0.1051   -0.3290   -0.0675 N   0  0  0  0  0  0  0  0  0  0  0  0
   -1.4680   -0.3826    0.3599 C   0  0  2  0  0  0  0  0  0  0  0  0
   -2.2169   -1.5902   -0.1312 C   0  0  0  0  0  0  0  0  0  0  0  0
   -3.5425   -1.2631   -0.2398 O   0  0  0  0  0  0  0  0  0  0  0  0
   -3.6932    0.0909   -0.1207 C   0  0  0  0  0  0  0  0  0  0  0  0
   -2.3146    0.7198   -0.2924 C   0  0  1  0  0  0  0  0  0  0  0  0
   -2.1912    1.9594    0.4195 N   0  0  0  0  0  0  0  0  0  0  0  0
    4.1810    1.0032   -1.1737 H   0  0  0  0  0  0  0  0  0  0  0  0
    3.2844    0.6391   -2.6646 H   0  0  0  0  0  0  0  0  0  0  0  0
    2.5610    1.8040   -1.4208 H   0  0  0  0  0  0  0  0  0  0  0  0
    2.8645    0.8723    0.6553 H   0  0  0  0  0  0  0  0  0  0  0  0
    3.0525   -2.1822    0.6734 H   0  0  0  0  0  0  0  0  0  0  0  0
    2.7103   -1.2041    2.1558 H   0  0  0  0  0  0  0  0  0  0  0  0
    4.2367   -0.8897    1.2642 H   0  0  0  0  0  0  0  0  0  0  0  0
    0.1036   -0.4154   -1.0850 H   0  0  0  0  0  0  0  0  0  0  0  0
   -1.6125   -0.2860    1.4336 H   0  0  0  0  0  0  0  0  0  0  0  0
   -2.0260   -2.4915    0.4974 H   0  0  0  0  0  0  0  0  0  0  0  0
   -1.8419   -1.8193   -1.1576 H   0  0  0  0  0  0  0  0  0  0  0  0
   -4.4374    0.5324   -0.8055 H   0  0  0  0  0  0  0  0  0  0  0  0
   -3.9795    0.3082    0.9455 H   0  0  0  0  0  0  0  0  0  0  0  0
   -2.1182    0.7835   -1.3670 H   0  0  0  0  0  0  0  0  0  0  0  0
   -1.3332    2.4400    0.0611 H   0  0  0  0  0  0  0  0  0  0  0  0
   -3.0024    2.5751    0.2474 H   0  0  0  0  0  0  0  0  0  0  0  0
  1  2  1  0
  2  3  1  0
  3  4  1  0
  3  5  1  0
  5  6  2  0
  5  7  1  0
  7  8  1  0
  8  9  1  0
  9 10  1  0
 10 11  1  0
 11 12  1  0
 12 13  1  0
 12  8  1  0
  1 14  1  0
  1 15  1  0
  1 16  1  0
  3 17  1  1
  4 18  1  0
  4 19  1  0
  4 20  1  0
  7 21  1  0
  8 22  1  1
  9 23  1  0
  9 24  1  0
 11 25  1  0
 11 26  1  0
 12 27  1  6
 13 28  1  0
 13 29  1  0
M  END
$$$$

     RDKit          3D

 29 29  0  0  0  0  0  0  0  0999 V2000
   -3.8742    2.1068    0.0339 C   0  0  0  0  0  0  0  0  0  0  0  0
   -3.1534    1.1802    0.7498 O   0  0  0  0  0  0  0  0  0  0  0  0
   -2.3272    0.4427   -0.0656 C   0  0  2  0  0  0  0  0  0  0  0  0
   -2.7070   -1.0323   -0.0587 C   0  0  0  0  0  0  0  0  0  0  0  0
   -0.8999    0.6176    0.3193 C   0  0  0  0  0  0  0  0  0  0  0  0
   -0.5507    1.3655    1.2862 O   0  0  0  0  0  0  0  0  0  0  0  0
    0.1273   -0.0486   -0.3841 N   0  0  0  0  0  0  0  0  0  0  0  0
    1.5209    0.0362   -0.1147 C   0  0  2  0  0  0  0  0  0  0  0  0
    2.3839    0.5105   -1.2121 C   0  0  0  0  0  0  0  0  0  0  0  0
    3.4260   -0.4245   -1.3675 O   0  0  0  0  0  0  0  0  0  0  0  0
    3.5895   -1.0216   -0.1216 C   0  0  0  0  0  0  0  0  0  0  0  0
    2.1506   -1.2712    0.2868 C   0  0  1  0  0  0  0  0  0  0  0  0
    2.0545   -1.4228    1.7325 N   0  0  0  0  0  0  0  0  0  0  0  0
   -4.5320    1.6486   -0.7502 H   0  0  0  0  0  0  0  0  0  0  0  0
   -3.2282    2.8771   -0.4695 H   0  0  0  0  0  0  0  0  0  0  0  0
   -4.5460    2.6845    0.7031 H   0  0  0  0  0  0  0  0  0  0  0  0
   -2.4550    0.7884   -1.1082 H   0  0  0  0  0  0  0  0  0  0  0  0
   -2.2240   -1.5569    0.7827 H   0  0  0  0  0  0  0  0  0  0  0  0
   -2.3057   -1.4629   -0.9891 H   0  0  0  0  0  0  0  0  0  0  0  0
   -3.7884   -1.1657   -0.0392 H   0  0  0  0  0  0  0  0  0  0  0  0
   -0.1786   -0.6676   -1.1864 H   0  0  0  0  0  0  0  0  0  0  0  0
    1.6540    0.7315    0.7615 H   0  0  0  0  0  0  0  0  0  0  0  0
    2.9104    1.4772   -0.9585 H   0  0  0  0  0  0  0  0  0  0  0  0
    1.9121    0.6535   -2.1797 H   0  0  0  0  0  0  0  0  0  0  0  0
    4.1425   -1.9561   -0.2235 H   0  0  0  0  0  0  0  0  0  0  0  0
    4.0768   -0.3379    0.6065 H   0  0  0  0  0  0  0  0  0  0  0  0
    1.7454   -2.1318   -0.2524 H   0  0  0  0  0  0  0  0  0  0  0  0
    2.2968   -0.5114    2.1789 H   0  0  0  0  0  0  0  0  0  0  0  0
    2.7797   -2.1091    2.0396 H   0  0  0  0  0  0  0  0  0  0  0  0
  1  2  1  0
  2  3  1  0
  3  4  1  0
  3  5  1  0
  5  6  2  0
  5  7  1  0
  7  8  1  0
  8  9  1  0
  9 10  1  0
 10 11  1  0
 11 12  1  0
 12 13  1  0
 12  8  1  0
  1 14  1  0
  1 15  1  0
  1 16  1  0
  3 17  1  6
  4 18  1  0
  4 19  1  0
  4 20  1  0
  7 21  1  0
  8 22  1  1
  9 23  1  0
  9 24  1  0
 11 25  1  0
 11 26  1  0
 12 27  1  6
 13 28  1  0
 13 29  1  0
M  END
$$$$
