
     RDKit          3D

 21 22  0  0  0  0  0  0  0  0999 V2000
   -4.6328   -0.0540    0.1451 C   0  0  0  0  0  0  0  0  0  0  0  0
   -3.2501    0.4099    0.1245 N   0  0  0  0  0  0  0  0  0  0  0  0
   -2.8075    1.6211    0.4279 N   0  0  0  0  0  0  0  0  0  0  0  0
   -1.4741    1.6588    0.2885 N   0  0  0  0  0  0  0  0  0  0  0  0
   -1.0665    0.4414   -0.1127 C   0  0  0  0  0  0  0  0  0  0  0  0
    0.2924    0.0731   -0.3734 N   0  0  0  0  0  0  0  0  0  0  0  0
    0.7854   -0.2884   -1.5744 C   0  0  0  0  0  0  0  0  0  0  0  0
    2.0786   -0.5581   -1.4306 N   0  0  0  0  0  0  0  0  0  0  0  0
    2.4550   -0.3811   -0.1484 C   0  0  0  0  0  0  0  0  0  0  0  0
    3.8286   -0.5899    0.3813 C   0  0  0  0  0  0  0  0  0  0  0  0
    4.6013    0.5688    0.3157 O   0  0  0  0  0  0  0  0  0  0  0  0
    1.3136    0.0188    0.5104 C   0  0  0  0  0  0  0  0  0  0  0  0
   -2.1738   -0.3043   -0.2053 N   0  0  0  0  0  0  0  0  0  0  0  0
   -5.0564   -0.0551   -0.8800 H   0  0  0  0  0  0  0  0  0  0  0  0
   -5.2409    0.5433    0.8210 H   0  0  0  0  0  0  0  0  0  0  0  0
   -4.6064   -1.1284    0.4720 H   0  0  0  0  0  0  0  0  0  0  0  0
    0.1627   -0.3308   -2.4797 H   0  0  0  0  0  0  0  0  0  0  0  0
    4.3587   -1.3666   -0.2050 H   0  0  0  0  0  0  0  0  0  0  0  0
    3.7633   -0.9832    1.4344 H   0  0  0  0  0  0  0  0  0  0  0  0
    5.4169    0.4528   -0.2406 H   0  0  0  0  0  0  0  0  0  0  0  0
    1.2519    0.2516    1.5711 H   0  0  0  0  0  0  0  0  0  0  0  0
  1  2  1  0
  2  3  1  0
  3  4  2  0
  4  5  1  0
  5  6  1  0
  6  7  1  0
  7  8  2  0
  8  9  1  0
  9 10  1  0
 10 11  1  0
  9 12  2  0
  5 13  2  0
 13  2  1  0
 12  6  1  0
  1 14  1  0
  1 15  1  0
  1 16  1  0
  7 17  1  0
 10 18  1  0
 10 19  1  0
 11 20  1  0
 12 21  1  0
M  END
$$$$

     RDKit          3D

 21 22  0  0  0  0  0  0  0  0999 V2000
   -4.5598    0.1852    0.1071 C   0  0  0  0  0  0  0  0  0  0  0  0
   -3.1727    0.3598    0.5107 N   0  0  0  0  0  0  0  0  0  0  0  0
   -2.6772    0.9413    1.5740 N   0  0  0  0  0  0  0  0  0  0  0  0
   -1.3443    0.8887    1.5716 N   0  0  0  0  0  0  0  0  0  0  0  0
   -0.9815    0.2412    0.4494 C   0  0  0  0  0  0  0  0  0  0  0  0
    0.3546   -0.0602    0.0064 N   0  0  0  0  0  0  0  0  0  0  0  0
    0.7285   -0.3095   -1.2618 C   0  0  0  0  0  0  0  0  0  0  0  0
    2.0366   -0.5463   -1.2915 N   0  0  0  0  0  0  0  0  0  0  0  0
    2.5112   -0.4499   -0.0369 C   0  0  0  0  0  0  0  0  0  0  0  0
    3.9454   -0.6457    0.3747 C   0  0  0  0  0  0  0  0  0  0  0  0
    4.6296    0.5782    0.3200 O   0  0  0  0  0  0  0  0  0  0  0  0
    1.4432   -0.1428    0.7767 C   0  0  0  0  0  0  0  0  0  0  0  0
   -2.1075   -0.0719   -0.1815 N   0  0  0  0  0  0  0  0  0  0  0  0
   -4.6244    0.1959   -1.0047 H   0  0  0  0  0  0  0  0  0  0  0  0
   -5.1578    1.0690    0.4551 H   0  0  0  0  0  0  0  0  0  0  0  0
   -4.9910   -0.7673    0.5169 H   0  0  0  0  0  0  0  0  0  0  0  0
    0.0046   -0.2989   -2.0820 H   0  0  0  0  0  0  0  0  0  0  0  0
    4.0276   -1.1385    1.3504 H   0  0  0  0  0  0  0  0  0  0  0  0
    4.4526   -1.3071   -0.3663 H   0  0  0  0  0  0  0  0  0  0  0  0
    3.9870    1.2744    0.0532 H   0  0  0  0  0  0  0  0  0  0  0  0
    1.4952    0.0045    1.8630 H   0  0  0  0  0  0  0  0  0  0  0  0
  1  2  1  0
  2  3  1  0
  3  4  2  0
  4  5  1  0
  5  6  1  0
  6  7  1  0
  7  8  2  0
  8  9  1  0
  9 10  1  0
 10 11  1  0
  9 12  2  0
  5 13  2  0
 13  2  1  0
 12  6  1  0
  1 14  1  0
  1 15  1  0
  1 16  1  0
  7 17  1  0
 10 18  1  0
 10 19  1  0
 11 20  1  0
 12 21  1  0
M  END
$$$$

     RDKit          3D

 21 22  0  0  0  0  0  0  0  0999 V2000
   -4.5464   -0.3917    0.3210 C   0  0  0  0  0  0  0  0  0  0  0  0
   -3.1215   -0.6298    0.0441 N   0  0  0  0  0  0  0  0  0  0  0  0
   -2.5500   -1.7899   -0.2453 N   0  0  0  0  0  0  0  0  0  0  0  0
   -1.2488   -1.6172   -0.4329 N   0  0  0  0  0  0  0  0  0  0  0  0
   -0.9692   -0.3030   -0.2594 C   0  0  0  0  0  0  0  0  0  0  0  0
    0.3089    0.3287   -0.3664 N   0  0  0  0  0  0  0  0  0  0  0  0
    0.5707    1.5793   -0.7777 C   0  0  0  0  0  0  0  0  0  0  0  0
    1.8879    1.8119   -0.7425 N   0  0  0  0  0  0  0  0  0  0  0  0
    2.4750    0.6962   -0.3034 C   0  0  0  0  0  0  0  0  0  0  0  0
    3.9175    0.4943   -0.1064 C   0  0  0  0  0  0  0  0  0  0  0  0
    4.1636   -0.8083    0.3678 O   0  0  0  0  0  0  0  0  0  0  0  0
    1.4913   -0.2286   -0.0688 C   0  0  0  0  0  0  0  0  0  0  0  0
   -2.1516    0.2691    0.0332 N   0  0  0  0  0  0  0  0  0  0  0  0
   -5.0807   -1.3404    0.3362 H   0  0  0  0  0  0  0  0  0  0  0  0
   -4.5634    0.1407    1.2982 H   0  0  0  0  0  0  0  0  0  0  0  0
   -4.9310    0.3381   -0.4240 H   0  0  0  0  0  0  0  0  0  0  0  0
   -0.1651    2.2994   -1.0925 H   0  0  0  0  0  0  0  0  0  0  0  0
    4.5348    0.6931   -0.9871 H   0  0  0  0  0  0  0  0  0  0  0  0
    4.2734    1.1745    0.7122 H   0  0  0  0  0  0  0  0  0  0  0  0
    4.0509   -1.4649   -0.3850 H   0  0  0  0  0  0  0  0  0  0  0  0
    1.6537   -1.2516    0.3008 H   0  0  0  0  0  0  0  0  0  0  0  0
  1  2  1  0
  2  3  1  0
  3  4  2  0
  4  5  1  0
  5  6  1  0
  6  7  1  0
  7  8  2  0
  8  9  1  0
  9 10  1  0
 10 11  1  0
  9 12  2  0
  5 13  2  0
 13  2  1  0
 12  6  1  0
  1 14  1  0
  1 15  1  0
  1 16  1  0
  7 17  1  0
 10 18  1  0
 10 19  1  0
 11 20  1  0
 12 21  1  0
M  END
$$$$

     RDKit          3D

 21 22  0  0  0  0  0  0  0  0999 V2000
    4.4380   -0.5596    0.4143 C   0  0  0  0  0  0  0  0  0  0  0  0
    3.1576    0.1045    0.3207 N   0  0  0  0  0  0  0  0  0  0  0  0
    3.0356    1.4247    0.1798 N   0  0  0  0  0  0  0  0  0  0  0  0
    1.7442    1.6979    0.1270 N   0  0  0  0  0  0  0  0  0  0  0  0
    1.0276    0.5514    0.2340 C   0  0  0  0  0  0  0  0  0  0  0  0
   -0.3896    0.3932    0.2242 N   0  0  0  0  0  0  0  0  0  0  0  0
   -1.1673    0.7043    1.2901 C   0  0  0  0  0  0  0  0  0  0  0  0
   -2.4264    0.4326    0.9283 N   0  0  0  0  0  0  0  0  0  0  0  0
   -2.4750   -0.0396   -0.3288 C   0  0  0  0  0  0  0  0  0  0  0  0
   -3.6348   -0.4708   -1.1493 C   0  0  0  0  0  0  0  0  0  0  0  0
   -4.8321   -0.3557   -0.4869 O   0  0  0  0  0  0  0  0  0  0  0  0
   -1.1707   -0.0610   -0.7694 C   0  0  0  0  0  0  0  0  0  0  0  0
    1.9329   -0.4359    0.3546 N   0  0  0  0  0  0  0  0  0  0  0  0
    4.3958   -1.6238    0.1228 H   0  0  0  0  0  0  0  0  0  0  0  0
    5.1184   -0.0575   -0.3192 H   0  0  0  0  0  0  0  0  0  0  0  0
    4.8273   -0.5123    1.4492 H   0  0  0  0  0  0  0  0  0  0  0  0
   -0.8671    1.0950    2.2538 H   0  0  0  0  0  0  0  0  0  0  0  0
   -3.6887    0.2134   -2.0463 H   0  0  0  0  0  0  0  0  0  0  0  0
   -3.4305   -1.4885   -1.5234 H   0  0  0  0  0  0  0  0  0  0  0  0
   -4.7395   -0.1215    0.4704 H   0  0  0  0  0  0  0  0  0  0  0  0
   -0.8555   -0.3894   -1.7461 H   0  0  0  0  0  0  0  0  0  0  0  0
  1  2  1  0
  2  3  1  0
  3  4  2  0
  4  5  1  0
  5  6  1  0
  6  7  1  0
  7  8  2  0
  8  9  1  0
  9 10  1  0
 10 11  1  0
  9 12  2  0
  5 13  2  0
 13  2  1  0
 12  6  1  0
  1 14  1  0
  1 15  1  0
  1 16  1  0
  7 17  1  0
 10 18  1  0
 10 19  1  0
 11 20  1  0
 12 21  1  0
M  END
$$$$

     RDKit          3D

 21 22  0  0  0  0  0  0  0  0999 V2000
    4.4771   -0.0537    0.4717 C   0  0  0  0  0  0  0  0  0  0  0  0
    3.1513   -0.1813   -0.1066 N   0  0  0  0  0  0  0  0  0  0  0  0
    2.8396   -0.9124   -1.1616 N   0  0  0  0  0  0  0  0  0  0  0  0
    1.5682   -0.8251   -1.4413 N   0  0  0  0  0  0  0  0  0  0  0  0
    0.9954   -0.0005   -0.5382 C   0  0  0  0  0  0  0  0  0  0  0  0
   -0.3625    0.3859   -0.4528 N   0  0  0  0  0  0  0  0  0  0  0  0
   -0.8304    1.6331   -0.5616 C   0  0  0  0  0  0  0  0  0  0  0  0
   -2.1783    1.5820   -0.4229 N   0  0  0  0  0  0  0  0  0  0  0  0
   -2.5718    0.3279   -0.2286 C   0  0  0  0  0  0  0  0  0  0  0  0
   -3.9660   -0.0985   -0.0387 C   0  0  0  0  0  0  0  0  0  0  0  0
   -4.1187   -1.4507    0.1445 O   0  0  0  0  0  0  0  0  0  0  0  0
   -1.4024   -0.4316   -0.2491 C   0  0  0  0  0  0  0  0  0  0  0  0
    2.0235    0.3756    0.2735 N   0  0  0  0  0  0  0  0  0  0  0  0
    4.5920   -0.5981    1.4124 H   0  0  0  0  0  0  0  0  0  0  0  0
    4.7070    1.0442    0.5786 H   0  0  0  0  0  0  0  0  0  0  0  0
    5.2296   -0.4410   -0.2416 H   0  0  0  0  0  0  0  0  0  0  0  0
   -0.2808    2.5659   -0.7314 H   0  0  0  0  0  0  0  0  0  0  0  0
   -4.5140    0.1716   -0.9867 H   0  0  0  0  0  0  0  0  0  0  0  0
   -4.4741    0.4304    0.8107 H   0  0  0  0  0  0  0  0  0  0  0  0
   -3.4607   -2.0164   -0.2887 H   0  0  0  0  0  0  0  0  0  0  0  0
   -1.4241   -1.5073   -0.1135 H   0  0  0  0  0  0  0  0  0  0  0  0
  1  2  1  0
  2  3  1  0
  3  4  2  0
  4  5  1  0
  5  6  1  0
  6  7  1  0
  7  8  2  0
  8  9  1  0
  9 10  1  0
 10 11  1  0
  9 12  2  0
  5 13  2  0
 13  2  1  0
 12  6  1  0
  1 14  1  0
  1 15  1  0
  1 16  1  0
  7 17  1  0
 10 18  1  0
 10 19  1  0
 11 20  1  0
 12 21  1  0
M  END
$$$$

     RDKit          3D

 21 22  0  0  0  0  0  0  0  0999 V2000
    4.4532    0.4579    0.0405 C   0  0  0  0  0  0  0  0  0  0  0  0
    3.1557   -0.2075    0.1552 N   0  0  0  0  0  0  0  0  0  0  0  0
    2.8680   -1.4114    0.5545 N   0  0  0  0  0  0  0  0  0  0  0  0
    1.5467   -1.6173    0.5043 N   0  0  0  0  0  0  0  0  0  0  0  0
    0.9859   -0.4925    0.0539 C   0  0  0  0  0  0  0  0  0  0  0  0
   -0.3601   -0.1553   -0.1909 N   0  0  0  0  0  0  0  0  0  0  0  0
   -0.9193    0.1285   -1.3819 C   0  0  0  0  0  0  0  0  0  0  0  0
   -2.2347    0.3993   -1.1755 N   0  0  0  0  0  0  0  0  0  0  0  0
   -2.5252    0.2919    0.1373 C   0  0  0  0  0  0  0  0  0  0  0  0
   -3.8430    0.5013    0.8128 C   0  0  0  0  0  0  0  0  0  0  0  0
   -4.5797   -0.6746    0.8807 O   0  0  0  0  0  0  0  0  0  0  0  0
   -1.3197   -0.0617    0.7476 C   0  0  0  0  0  0  0  0  0  0  0  0
    2.0117    0.3711   -0.1562 N   0  0  0  0  0  0  0  0  0  0  0  0
    4.3223    1.5583    0.0134 H   0  0  0  0  0  0  0  0  0  0  0  0
    4.9863    0.1403   -0.8730 H   0  0  0  0  0  0  0  0  0  0  0  0
    5.0893    0.2462    0.9492 H   0  0  0  0  0  0  0  0  0  0  0  0
   -0.3909    0.1342   -2.3327 H   0  0  0  0  0  0  0  0  0  0  0  0
   -3.5953    0.7946    1.8702 H   0  0  0  0  0  0  0  0  0  0  0  0
   -4.4266    1.2888    0.3043 H   0  0  0  0  0  0  0  0  0  0  0  0
   -3.9744   -1.4743    0.8464 H   0  0  0  0  0  0  0  0  0  0  0  0
   -1.2504   -0.2179    1.8124 H   0  0  0  0  0  0  0  0  0  0  0  0
  1  2  1  0
  2  3  1  0
  3  4  2  0
  4  5  1  0
  5  6  1  0
  6  7  1  0
  7  8  2  0
  8  9  1  0
  9 10  1  0
 10 11  1  0
  9 12  2  0
  5 13  2  0
 13  2  1  0
 12  6  1  0
  1 14  1  0
  1 15  1  0
  1 16  1  0
  7 17  1  0
 10 18  1  0
 10 19  1  0
 11 20  1  0
 12 21  1  0
M  END
$$$$

     RDKit          3D

 21 22  0  0  0  0  0  0  0  0999 V2000
   -4.3566    0.6642    0.4846 C   0  0  0  0  0  0  0  0  0  0  0  0
   -3.1650   -0.1076    0.2159 N   0  0  0  0  0  0  0  0  0  0  0  0
   -3.1164   -1.3958   -0.0138 N   0  0  0  0  0  0  0  0  0  0  0  0
   -1.8758   -1.7908   -0.2224 N   0  0  0  0  0  0  0  0  0  0  0  0
   -1.0825   -0.7109   -0.1239 C   0  0  0  0  0  0  0  0  0  0  0  0
    0.3357   -0.6309   -0.2698 N   0  0  0  0  0  0  0  0  0  0  0  0
    1.1182   -1.4613   -0.9813 C   0  0  0  0  0  0  0  0  0  0  0  0
    2.3843   -1.0230   -0.8468 N   0  0  0  0  0  0  0  0  0  0  0  0
    2.4202    0.0657   -0.0665 C   0  0  0  0  0  0  0  0  0  0  0  0
    3.6152    0.8758    0.3465 C   0  0  0  0  0  0  0  0  0  0  0  0
    4.1684    0.4095    1.5141 O   0  0  0  0  0  0  0  0  0  0  0  0
    1.1328    0.3148    0.2981 C   0  0  0  0  0  0  0  0  0  0  0  0
   -1.9049    0.3216    0.1486 N   0  0  0  0  0  0  0  0  0  0  0  0
   -4.9146    0.8572   -0.4494 H   0  0  0  0  0  0  0  0  0  0  0  0
   -4.1261    1.6180    1.0044 H   0  0  0  0  0  0  0  0  0  0  0  0
   -5.0165    0.0835    1.1537 H   0  0  0  0  0  0  0  0  0  0  0  0
    0.7648   -2.3143   -1.5461 H   0  0  0  0  0  0  0  0  0  0  0  0
    4.3564    0.7879   -0.4984 H   0  0  0  0  0  0  0  0  0  0  0  0
    3.3487    1.9399    0.4152 H   0  0  0  0  0  0  0  0  0  0  0  0
    5.1637    0.3819    1.4117 H   0  0  0  0  0  0  0  0  0  0  0  0
    0.7498    1.1146    0.9302 H   0  0  0  0  0  0  0  0  0  0  0  0
  1  2  1  0
  2  3  1  0
  3  4  2  0
  4  5  1  0
  5  6  1  0
  6  7  1  0
  7  8  2  0
  8  9  1  0
  9 10  1  0
 10 11  1  0
  9 12  2  0
  5 13  2  0
 13  2  1  0
 12  6  1  0
  1 14  1  0
  1 15  1  0
  1 16  1  0
  7 17  1  0
 10 18  1  0
 10 19  1  0
 11 20  1  0
 12 21  1  0
M  END
$$$$

     RDKit          3D

 21 22  0  0  0  0  0  0  0  0999 V2000
    4.3145   -0.8599    0.3468 C   0  0  0  0  0  0  0  0  0  0  0  0
    3.1205   -0.3249   -0.2740 N   0  0  0  0  0  0  0  0  0  0  0  0
    3.0331    0.1472   -1.5089 N   0  0  0  0  0  0  0  0  0  0  0  0
    1.7998    0.5555   -1.7536 N   0  0  0  0  0  0  0  0  0  0  0  0
    1.0648    0.3460   -0.6554 C   0  0  0  0  0  0  0  0  0  0  0  0
   -0.3152    0.6298   -0.4535 N   0  0  0  0  0  0  0  0  0  0  0  0
   -0.9715    1.7446   -0.8454 C   0  0  0  0  0  0  0  0  0  0  0  0
   -2.2506    1.5943   -0.4524 N   0  0  0  0  0  0  0  0  0  0  0  0
   -2.4090    0.4175    0.1730 C   0  0  0  0  0  0  0  0  0  0  0  0
   -3.7063   -0.0726    0.7398 C   0  0  0  0  0  0  0  0  0  0  0  0
   -4.7097    0.8681    0.5209 O   0  0  0  0  0  0  0  0  0  0  0  0
   -1.1888   -0.1957    0.1749 C   0  0  0  0  0  0  0  0  0  0  0  0
    1.9061   -0.1988    0.2432 N   0  0  0  0  0  0  0  0  0  0  0  0
    4.2147   -0.7423    1.4419 H   0  0  0  0  0  0  0  0  0  0  0  0
    5.1825   -0.2722    0.0254 H   0  0  0  0  0  0  0  0  0  0  0  0
    4.4878   -1.9268    0.0873 H   0  0  0  0  0  0  0  0  0  0  0  0
   -0.5526    2.6088   -1.3800 H   0  0  0  0  0  0  0  0  0  0  0  0
   -3.6420   -0.2468    1.8277 H   0  0  0  0  0  0  0  0  0  0  0  0
   -3.9803   -0.9878    0.1664 H   0  0  0  0  0  0  0  0  0  0  0  0
   -4.4096    1.7181    0.9661 H   0  0  0  0  0  0  0  0  0  0  0  0
   -0.9883   -1.1692    0.6098 H   0  0  0  0  0  0  0  0  0  0  0  0
  1  2  1  0
  2  3  1  0
  3  4  2  0
  4  5  1  0
  5  6  1  0
  6  7  1  0
  7  8  2  0
  8  9  1  0
  9 10  1  0
 10 11  1  0
  9 12  2  0
  5 13  2  0
 13  2  1  0
 12  6  1  0
  1 14  1  0
  1 15  1  0
  1 16  1  0
  7 17  1  0
 10 18  1  0
 10 19  1  0
 11 20  1  0
 12 21  1  0
M  END
$$$$
