
     RDKit          3D

 25 25  0  0  0  0  0  0  0  0999 V2000
    3.5861    1.3446   -0.0516 C   0  0  0  0  0  0  0  0  0  0  0  0
    2.2818    0.8033   -0.1655 O   0  0  0  0  0  0  0  0  0  0  0  0
    1.9654   -0.5142    0.0226 C   0  0  0  0  0  0  0  0  0  0  0  0
    2.9167   -1.3015    0.3208 O   0  0  0  0  0  0  0  0  0  0  0  0
    0.5852   -1.0209   -0.1100 C   0  0  2  0  0  0  0  0  0  0  0  0
    0.5221   -2.3705    0.1251 O   0  0  0  0  0  0  0  0  0  0  0  0
   -0.0463   -0.6529   -1.4370 C   0  0  0  0  0  0  0  0  0  0  0  0
   -1.3944   -0.9548   -1.1471 O   0  0  0  0  0  0  0  0  0  0  0  0
   -1.5589   -0.0434   -0.0797 C   0  0  1  0  0  0  0  0  0  0  0  0
   -2.7556   -0.1837    0.5550 O   0  0  0  0  0  0  0  0  0  0  0  0
   -3.4786    1.0006    0.4219 C   0  0  0  0  0  0  0  0  0  0  0  0
   -0.3675   -0.3045    0.8451 C   0  0  1  0  0  0  0  0  0  0  0  0
   -0.7113   -1.0798    1.9238 O   0  0  0  0  0  0  0  0  0  0  0  0
    3.6212    2.0298    0.8210 H   0  0  0  0  0  0  0  0  0  0  0  0
    3.8411    1.8848   -0.9882 H   0  0  0  0  0  0  0  0  0  0  0  0
    4.2918    0.5179    0.1522 H   0  0  0  0  0  0  0  0  0  0  0  0
    0.4121   -2.9195   -0.6744 H   0  0  0  0  0  0  0  0  0  0  0  0
    0.0124    0.4308   -1.5418 H   0  0  0  0  0  0  0  0  0  0  0  0
    0.3370   -1.2317   -2.2811 H   0  0  0  0  0  0  0  0  0  0  0  0
   -1.4508    0.9612   -0.5407 H   0  0  0  0  0  0  0  0  0  0  0  0
   -3.6295    1.1825   -0.6572 H   0  0  0  0  0  0  0  0  0  0  0  0
   -2.9076    1.8769    0.8311 H   0  0  0  0  0  0  0  0  0  0  0  0
   -4.4476    0.9626    0.9640 H   0  0  0  0  0  0  0  0  0  0  0  0
    0.0735    0.6657    1.1044 H   0  0  0  0  0  0  0  0  0  0  0  0
   -1.6983   -1.0832    1.9964 H   0  0  0  0  0  0  0  0  0  0  0  0
  1  2  1  0
  2  3  1  0
  3  4  2  0
  3  5  1  0
  5  6  1  1
  5  7  1  0
  7  8  1  0
  8  9  1  0
  9 10  1  0
 10 11  1  0
  9 12  1  0
 12 13  1  0
 12  5  1  0
  1 14  1  0
  1 15  1  0
  1 16  1  0
  6 17  1  0
  7 18  1  0
  7 19  1  0
  9 20  1  6
 11 21  1  0
 11 22  1  0
 11 23  1  0
 12 24  1  1
 13 25  1  0
M  END
$$$$

     RDKit          3D

 25 25  0  0  0  0  0  0  0  0999 V2000
    4.1739    0.2817    0.4832 C   0  0  0  0  0  0  0  0  0  0  0  0
    3.0057   -0.2123   -0.1821 O   0  0  0  0  0  0  0  0  0  0  0  0
    1.7428    0.2962    0.0786 C   0  0  0  0  0  0  0  0  0  0  0  0
    1.6773    1.2214    0.9371 O   0  0  0  0  0  0  0  0  0  0  0  0
    0.5617   -0.2317   -0.6208 C   0  0  2  0  0  0  0  0  0  0  0  0
    0.9449   -1.2290   -1.4924 O   0  0  0  0  0  0  0  0  0  0  0  0
   -0.1131    0.9232   -1.3232 C   0  0  0  0  0  0  0  0  0  0  0  0
   -1.0835    1.4103   -0.4623 O   0  0  0  0  0  0  0  0  0  0  0  0
   -1.5691    0.3372    0.2655 C   0  0  1  0  0  0  0  0  0  0  0  0
   -2.7336   -0.0960   -0.3605 O   0  0  0  0  0  0  0  0  0  0  0  0
   -3.8569    0.0245    0.4524 C   0  0  0  0  0  0  0  0  0  0  0  0
   -0.5192   -0.7155    0.3048 C   0  0  1  0  0  0  0  0  0  0  0  0
   -1.0509   -1.8828   -0.2428 O   0  0  0  0  0  0  0  0  0  0  0  0
    4.1918   -0.0347    1.5373 H   0  0  0  0  0  0  0  0  0  0  0  0
    5.0566   -0.1666   -0.0181 H   0  0  0  0  0  0  0  0  0  0  0  0
    4.2510    1.3833    0.3829 H   0  0  0  0  0  0  0  0  0  0  0  0
    1.3417   -1.9573   -0.9609 H   0  0  0  0  0  0  0  0  0  0  0  0
   -0.4858    0.6018   -2.2957 H   0  0  0  0  0  0  0  0  0  0  0  0
    0.6101    1.7561   -1.4909 H   0  0  0  0  0  0  0  0  0  0  0  0
   -1.7554    0.6992    1.3007 H   0  0  0  0  0  0  0  0  0  0  0  0
   -3.7788   -0.5623    1.3867 H   0  0  0  0  0  0  0  0  0  0  0  0
   -4.1241    1.0892    0.6565 H   0  0  0  0  0  0  0  0  0  0  0  0
   -4.7059   -0.4054   -0.1188 H   0  0  0  0  0  0  0  0  0  0  0  0
   -0.1461   -0.9416    1.3225 H   0  0  0  0  0  0  0  0  0  0  0  0
   -1.6352   -1.5889   -0.9936 H   0  0  0  0  0  0  0  0  0  0  0  0
  1  2  1  0
  2  3  1  0
  3  4  2  0
  3  5  1  0
  5  6  1  6
  5  7  1  0
  7  8  1  0
  8  9  1  0
  9 10  1  0
 10 11  1  0
  9 12  1  0
 12 13  1  0
 12  5  1  0
  1 14  1  0
  1 15  1  0
  1 16  1  0
  6 17  1  0
  7 18  1  0
  7 19  1  0
  9 20  1  1
 11 21  1  0
 11 22  1  0
 11 23  1  0
 12 24  1  1
 13 25  1  0
M  END
$$$$

     RDKit          3D

 25 25  0  0  0  0  0  0  0  0999 V2000
    3.5315    0.8328    0.4957 C   0  0  0  0  0  0  0  0  0  0  0  0
    2.1645    0.5485    0.1688 O   0  0  0  0  0  0  0  0  0  0  0  0
    1.7435   -0.6816   -0.2615 C   0  0  0  0  0  0  0  0  0  0  0  0
    2.6098   -1.5933   -0.3695 O   0  0  0  0  0  0  0  0  0  0  0  0
    0.3215   -0.9559   -0.5954 C   0  0  2  0  0  0  0  0  0  0  0  0
    0.1974   -2.2923   -1.0034 O   0  0  0  0  0  0  0  0  0  0  0  0
   -0.1722   -0.0945   -1.7226 C   0  0  0  0  0  0  0  0  0  0  0  0
   -1.3904    0.4322   -1.3591 O   0  0  0  0  0  0  0  0  0  0  0  0
   -1.4732    0.4423    0.0177 C   0  0  1  0  0  0  0  0  0  0  0  0
   -2.7949    0.3083    0.4345 O   0  0  0  0  0  0  0  0  0  0  0  0
   -3.1488    1.4205    1.1919 C   0  0  0  0  0  0  0  0  0  0  0  0
   -0.6049   -0.6670    0.5405 C   0  0  1  0  0  0  0  0  0  0  0  0
   -1.3548   -1.7939    0.9077 O   0  0  0  0  0  0  0  0  0  0  0  0
    3.7048    1.8778    0.1504 H   0  0  0  0  0  0  0  0  0  0  0  0
    3.7111    0.7250    1.5865 H   0  0  0  0  0  0  0  0  0  0  0  0
    4.1630    0.1818   -0.1148 H   0  0  0  0  0  0  0  0  0  0  0  0
    0.8935   -2.8635   -0.6045 H   0  0  0  0  0  0  0  0  0  0  0  0
   -0.2023   -0.6325   -2.6952 H   0  0  0  0  0  0  0  0  0  0  0  0
    0.5342    0.7536   -1.8686 H   0  0  0  0  0  0  0  0  0  0  0  0
   -1.0607    1.3946    0.3998 H   0  0  0  0  0  0  0  0  0  0  0  0
   -3.0207    2.3101    0.5133 H   0  0  0  0  0  0  0  0  0  0  0  0
   -4.1635    1.3752    1.5820 H   0  0  0  0  0  0  0  0  0  0  0  0
   -2.3801    1.5588    2.0065 H   0  0  0  0  0  0  0  0  0  0  0  0
   -0.0690   -0.3506    1.4688 H   0  0  0  0  0  0  0  0  0  0  0  0
   -1.7392   -2.2363    0.0978 H   0  0  0  0  0  0  0  0  0  0  0  0
  1  2  1  0
  2  3  1  0
  3  4  2  0
  3  5  1  0
  5  6  1  6
  5  7  1  0
  7  8  1  0
  8  9  1  0
  9 10  1  0
 10 11  1  0
  9 12  1  0
 12 13  1  0
 12  5  1  0
  1 14  1  0
  1 15  1  0
  1 16  1  0
  6 17  1  0
  7 18  1  0
  7 19  1  0
  9 20  1  1
 11 21  1  0
 11 22  1  0
 11 23  1  0
 12 24  1  1
 13 25  1  0
M  END
$$$$

     RDKit          3D

 25 25  0  0  0  0  0  0  0  0999 V2000
   -3.3058    1.1345    1.1896 C   0  0  0  0  0  0  0  0  0  0  0  0
   -2.0560    0.5766    0.8243 O   0  0  0  0  0  0  0  0  0  0  0  0
   -1.9429   -0.2880   -0.2662 C   0  0  0  0  0  0  0  0  0  0  0  0
   -2.9854   -0.5406   -0.8943 O   0  0  0  0  0  0  0  0  0  0  0  0
   -0.6473   -0.8819   -0.6651 C   0  0  2  0  0  0  0  0  0  0  0  0
   -0.8416   -1.6920   -1.7734 O   0  0  0  0  0  0  0  0  0  0  0  0
   -0.0892   -1.6863    0.4891 C   0  0  0  0  0  0  0  0  0  0  0  0
    1.2742   -1.5029    0.3669 O   0  0  0  0  0  0  0  0  0  0  0  0
    1.4225   -0.1320    0.1526 C   0  0  1  0  0  0  0  0  0  0  0  0
    2.6897    0.0924   -0.3203 O   0  0  0  0  0  0  0  0  0  0  0  0
    3.4441    0.9149    0.5202 C   0  0  0  0  0  0  0  0  0  0  0  0
    0.4130    0.1584   -0.9267 C   0  0  1  0  0  0  0  0  0  0  0  0
    1.0179    0.0132   -2.1680 O   0  0  0  0  0  0  0  0  0  0  0  0
   -3.3818    2.1414    0.7506 H   0  0  0  0  0  0  0  0  0  0  0  0
   -3.3624    1.1908    2.2935 H   0  0  0  0  0  0  0  0  0  0  0  0
   -4.1651    0.5353    0.8438 H   0  0  0  0  0  0  0  0  0  0  0  0
    0.0262   -1.8785   -2.1907 H   0  0  0  0  0  0  0  0  0  0  0  0
   -0.4198   -1.2325    1.4366 H   0  0  0  0  0  0  0  0  0  0  0  0
   -0.3520   -2.7563    0.4043 H   0  0  0  0  0  0  0  0  0  0  0  0
    1.1973    0.3653    1.1116 H   0  0  0  0  0  0  0  0  0  0  0  0
    2.9718    1.8967    0.6413 H   0  0  0  0  0  0  0  0  0  0  0  0
    3.5642    0.3988    1.5085 H   0  0  0  0  0  0  0  0  0  0  0  0
    4.4201    1.0782    0.0176 H   0  0  0  0  0  0  0  0  0  0  0  0
    0.0290    1.1907   -0.7698 H   0  0  0  0  0  0  0  0  0  0  0  0
    1.0792    0.9038   -2.5758 H   0  0  0  0  0  0  0  0  0  0  0  0
  1  2  1  0
  2  3  1  0
  3  4  2  0
  3  5  1  0
  5  6  1  6
  5  7  1  0
  7  8  1  0
  8  9  1  0
  9 10  1  0
 10 11  1  0
  9 12  1  0
 12 13  1  0
 12  5  1  0
  1 14  1  0
  1 15  1  0
  1 16  1  0
  6 17  1  0
  7 18  1  0
  7 19  1  0
  9 20  1  1
 11 21  1  0
 11 22  1  0
 11 23  1  0
 12 24  1  1
 13 25  1  0
M  END
$$$$

     RDKit          3D

 25 25  0  0  0  0  0  0  0  0999 V2000
   -4.1988    0.0616   -0.2236 C   0  0  0  0  0  0  0  0  0  0  0  0
   -2.8897    0.2958    0.2224 O   0  0  0  0  0  0  0  0  0  0  0  0
   -1.7465    0.0918   -0.4990 C   0  0  0  0  0  0  0  0  0  0  0  0
   -1.8742   -0.3464   -1.6720 O   0  0  0  0  0  0  0  0  0  0  0  0
   -0.3745    0.3432   -0.0152 C   0  0  2  0  0  0  0  0  0  0  0  0
   -0.3405    0.8220    1.2826 O   0  0  0  0  0  0  0  0  0  0  0  0
    0.3326    1.2392   -0.9899 C   0  0  0  0  0  0  0  0  0  0  0  0
    1.4950    0.6252   -1.3740 O   0  0  0  0  0  0  0  0  0  0  0  0
    1.8385   -0.2769   -0.3520 C   0  0  1  0  0  0  0  0  0  0  0  0
    2.2543    0.4720    0.7320 O   0  0  0  0  0  0  0  0  0  0  0  0
    3.5493    0.1318    1.1181 C   0  0  0  0  0  0  0  0  0  0  0  0
    0.4900   -0.9046   -0.0607 C   0  0  1  0  0  0  0  0  0  0  0  0
    0.4460   -1.4934    1.1997 O   0  0  0  0  0  0  0  0  0  0  0  0
   -4.3804   -0.9730   -0.5426 H   0  0  0  0  0  0  0  0  0  0  0  0
   -4.5059    0.7211   -1.0561 H   0  0  0  0  0  0  0  0  0  0  0  0
   -4.8795    0.2923    0.6259 H   0  0  0  0  0  0  0  0  0  0  0  0
   -0.5398    0.0971    1.9224 H   0  0  0  0  0  0  0  0  0  0  0  0
   -0.2972    1.4527   -1.9024 H   0  0  0  0  0  0  0  0  0  0  0  0
    0.4850    2.2181   -0.4947 H   0  0  0  0  0  0  0  0  0  0  0  0
    2.5752   -0.9910   -0.7145 H   0  0  0  0  0  0  0  0  0  0  0  0
    4.2932    0.2943    0.3138 H   0  0  0  0  0  0  0  0  0  0  0  0
    3.5522   -0.9393    1.4389 H   0  0  0  0  0  0  0  0  0  0  0  0
    3.8389    0.8062    1.9624 H   0  0  0  0  0  0  0  0  0  0  0  0
    0.2005   -1.5878   -0.8668 H   0  0  0  0  0  0  0  0  0  0  0  0
    0.6762   -2.4520    1.1828 H   0  0  0  0  0  0  0  0  0  0  0  0
  1  2  1  0
  2  3  1  0
  3  4  2  0
  3  5  1  0
  5  6  1  1
  5  7  1  0
  7  8  1  0
  8  9  1  0
  9 10  1  0
 10 11  1  0
  9 12  1  0
 12 13  1  0
 12  5  1  0
  1 14  1  0
  1 15  1  0
  1 16  1  0
  6 17  1  0
  7 18  1  0
  7 19  1  0
  9 20  1  6
 11 21  1  0
 11 22  1  0
 11 23  1  0
 12 24  1  6
 13 25  1  0
M  END
$$$$

     RDKit          3D

 25 25  0  0  0  0  0  0  0  0999 V2000
    4.0460    0.8790   -0.4088 C   0  0  0  0  0  0  0  0  0  0  0  0
    2.9505    0.2405    0.2217 O   0  0  0  0  0  0  0  0  0  0  0  0
    1.6967    0.1497   -0.3214 C   0  0  0  0  0  0  0  0  0  0  0  0
    1.4954    0.6630   -1.4520 O   0  0  0  0  0  0  0  0  0  0  0  0
    0.5451   -0.5320    0.3624 C   0  0  2  0  0  0  0  0  0  0  0  0
    0.9505   -1.0383    1.5974 O   0  0  0  0  0  0  0  0  0  0  0  0
    0.0029   -1.6596   -0.4738 C   0  0  0  0  0  0  0  0  0  0  0  0
   -1.3746   -1.5413   -0.4921 O   0  0  0  0  0  0  0  0  0  0  0  0
   -1.6863   -0.2065   -0.3117 C   0  0  1  0  0  0  0  0  0  0  0  0
   -2.8937   -0.0760    0.3334 O   0  0  0  0  0  0  0  0  0  0  0  0
   -3.8472    0.6188   -0.3801 C   0  0  0  0  0  0  0  0  0  0  0  0
   -0.6098    0.3906    0.5657 C   0  0  1  0  0  0  0  0  0  0  0  0
   -1.0561    0.3273    1.8944 O   0  0  0  0  0  0  0  0  0  0  0  0
    4.1910    0.5558   -1.4479 H   0  0  0  0  0  0  0  0  0  0  0  0
    4.0054    1.9816   -0.3126 H   0  0  0  0  0  0  0  0  0  0  0  0
    4.9542    0.5649    0.1706 H   0  0  0  0  0  0  0  0  0  0  0  0
    1.6437   -0.3936    1.9399 H   0  0  0  0  0  0  0  0  0  0  0  0
    0.3679   -1.6356   -1.5075 H   0  0  0  0  0  0  0  0  0  0  0  0
    0.2455   -2.6400   -0.0133 H   0  0  0  0  0  0  0  0  0  0  0  0
   -1.7620    0.2993   -1.2993 H   0  0  0  0  0  0  0  0  0  0  0  0
   -4.0133    0.0502   -1.3389 H   0  0  0  0  0  0  0  0  0  0  0  0
   -4.8061    0.5446    0.1763 H   0  0  0  0  0  0  0  0  0  0  0  0
   -3.5725    1.6729   -0.5877 H   0  0  0  0  0  0  0  0  0  0  0  0
   -0.3941    1.4384    0.2658 H   0  0  0  0  0  0  0  0  0  0  0  0
   -1.0791   -0.6536    2.1256 H   0  0  0  0  0  0  0  0  0  0  0  0
  1  2  1  0
  2  3  1  0
  3  4  2  0
  3  5  1  0
  5  6  1  1
  5  7  1  0
  7  8  1  0
  8  9  1  0
  9 10  1  0
 10 11  1  0
  9 12  1  0
 12 13  1  0
 12  5  1  0
  1 14  1  0
  1 15  1  0
  1 16  1  0
  6 17  1  0
  7 18  1  0
  7 19  1  0
  9 20  1  6
 11 21  1  0
 11 22  1  0
 11 23  1  0
 12 24  1  6
 13 25  1  0
M  END
$$$$

     RDKit          3D

 25 25  0  0  0  0  0  0  0  0999 V2000
   -3.7582    1.2377   -0.2261 C   0  0  0  0  0  0  0  0  0  0  0  0
   -2.8403    0.1756   -0.2371 O   0  0  0  0  0  0  0  0  0  0  0  0
   -1.5259    0.2614    0.1490 C   0  0  0  0  0  0  0  0  0  0  0  0
   -1.1060    1.3792    0.5451 O   0  0  0  0  0  0  0  0  0  0  0  0
   -0.5600   -0.8567    0.1373 C   0  0  2  0  0  0  0  0  0  0  0  0
   -1.1484   -2.0442   -0.3228 O   0  0  0  0  0  0  0  0  0  0  0  0
    0.0460   -1.1066    1.5029 C   0  0  0  0  0  0  0  0  0  0  0  0
    1.4076   -0.9268    1.3884 O   0  0  0  0  0  0  0  0  0  0  0  0
    1.6205   -0.0516    0.3205 C   0  0  1  0  0  0  0  0  0  0  0  0
    2.9133   -0.1377   -0.1359 O   0  0  0  0  0  0  0  0  0  0  0  0
    3.5002    1.1204   -0.0747 C   0  0  0  0  0  0  0  0  0  0  0  0
    0.6457   -0.5985   -0.7007 C   0  0  1  0  0  0  0  0  0  0  0  0
    1.1615   -1.8456   -1.1025 O   0  0  0  0  0  0  0  0  0  0  0  0
   -4.0215    1.5859    0.7861 H   0  0  0  0  0  0  0  0  0  0  0  0
   -3.4752    2.0832   -0.8623 H   0  0  0  0  0  0  0  0  0  0  0  0
   -4.7155    0.8310   -0.6676 H   0  0  0  0  0  0  0  0  0  0  0  0
   -1.5623   -1.8174   -1.1970 H   0  0  0  0  0  0  0  0  0  0  0  0
   -0.3687   -0.3522    2.2239 H   0  0  0  0  0  0  0  0  0  0  0  0
   -0.2388   -2.0948    1.8760 H   0  0  0  0  0  0  0  0  0  0  0  0
    1.3306    0.9908    0.6345 H   0  0  0  0  0  0  0  0  0  0  0  0
    2.9711    1.8778   -0.6903 H   0  0  0  0  0  0  0  0  0  0  0  0
    3.5366    1.5009    0.9773 H   0  0  0  0  0  0  0  0  0  0  0  0
    4.5501    1.1108   -0.4390 H   0  0  0  0  0  0  0  0  0  0  0  0
    0.4818    0.0812   -1.5446 H   0  0  0  0  0  0  0  0  0  0  0  0
    1.1558   -2.4038   -0.2678 H   0  0  0  0  0  0  0  0  0  0  0  0
  1  2  1  0
  2  3  1  0
  3  4  2  0
  3  5  1  0
  5  6  1  6
  5  7  1  0
  7  8  1  0
  8  9  1  0
  9 10  1  0
 10 11  1  0
  9 12  1  0
 12 13  1  0
 12  5  1  0
  1 14  1  0
  1 15  1  0
  1 16  1  0
  6 17  1  0
  7 18  1  0
  7 19  1  0
  9 20  1  1
 11 21  1  0
 11 22  1  0
 11 23  1  0
 12 24  1  6
 13 25  1  0
M  END
$$$$

     RDKit          3D

 25 25  0  0  0  0  0  0  0  0999 V2000
    3.8524    1.2013   -0.9705 C   0  0  0  0  0  0  0  0  0  0  0  0
    2.6208    1.0552   -0.2894 O   0  0  0  0  0  0  0  0  0  0  0  0
    1.7560   -0.0086   -0.5016 C   0  0  0  0  0  0  0  0  0  0  0  0
    2.0958   -0.8749   -1.3406 O   0  0  0  0  0  0  0  0  0  0  0  0
    0.4791   -0.1094    0.2410 C   0  0  2  0  0  0  0  0  0  0  0  0
    0.3352    0.9701    1.1081 O   0  0  0  0  0  0  0  0  0  0  0  0
    0.3406   -1.4369    0.9561 C   0  0  0  0  0  0  0  0  0  0  0  0
   -0.9766   -1.7966    0.9387 O   0  0  0  0  0  0  0  0  0  0  0  0
   -1.7099   -0.8477    0.2775 C   0  0  1  0  0  0  0  0  0  0  0  0
   -2.1022    0.1180    1.2022 O   0  0  0  0  0  0  0  0  0  0  0  0
   -3.4831    0.3008    1.2032 C   0  0  0  0  0  0  0  0  0  0  0  0
   -0.7151   -0.2133   -0.7023 C   0  0  1  0  0  0  0  0  0  0  0  0
   -1.1338    0.9959   -1.1660 O   0  0  0  0  0  0  0  0  0  0  0  0
    4.3842    2.0536   -0.4574 H   0  0  0  0  0  0  0  0  0  0  0  0
    3.7039    1.4480   -2.0494 H   0  0  0  0  0  0  0  0  0  0  0  0
    4.4807    0.2958   -0.8933 H   0  0  0  0  0  0  0  0  0  0  0  0
    0.5392    0.6747    2.0405 H   0  0  0  0  0  0  0  0  0  0  0  0
    0.9089   -2.1817    0.3445 H   0  0  0  0  0  0  0  0  0  0  0  0
    0.7920   -1.4134    1.9677 H   0  0  0  0  0  0  0  0  0  0  0  0
   -2.5800   -1.2768   -0.2723 H   0  0  0  0  0  0  0  0  0  0  0  0
   -3.7444    1.0738    1.9503 H   0  0  0  0  0  0  0  0  0  0  0  0
   -3.8088    0.6989    0.2196 H   0  0  0  0  0  0  0  0  0  0  0  0
   -4.0263   -0.6452    1.4281 H   0  0  0  0  0  0  0  0  0  0  0  0
   -0.4725   -0.9572   -1.4710 H   0  0  0  0  0  0  0  0  0  0  0  0
   -1.5362    0.8754   -2.0731 H   0  0  0  0  0  0  0  0  0  0  0  0
  1  2  1  0
  2  3  1  0
  3  4  2  0
  3  5  1  0
  5  6  1  1
  5  7  1  0
  7  8  1  0
  8  9  1  0
  9 10  1  0
 10 11  1  0
  9 12  1  0
 12 13  1  0
 12  5  1  0
  1 14  1  0
  1 15  1  0
  1 16  1  0
  6 17  1  0
  7 18  1  0
  7 19  1  0
  9 20  1  6
 11 21  1  0
 11 22  1  0
 11 23  1  0
 12 24  1  6
 13 25  1  0
M  END
$$$$
