
     RDKit          3D

 25 26  0  0  0  0  0  0  0  0999 V2000
   -1.7319    1.4254   -0.7589 C   0  0  0  0  0  0  0  0  0  0  0  0
   -1.1698    0.0515   -1.0634 C   0  0  2  0  0  0  0  0  0  0  0  0
   -2.1376   -0.8919   -0.8011 O   0  0  0  0  0  0  0  0  0  0  0  0
   -2.1448   -0.9248    0.6049 C   0  0  0  0  0  0  0  0  0  0  0  0
   -0.6620   -1.0829    0.9344 C   0  0  0  0  0  0  0  0  0  0  0  0
   -0.0020   -0.2766   -0.1309 C   0  0  2  0  0  0  0  0  0  0  0  0
    0.5103    0.9899    0.3251 N   0  0  0  0  0  0  0  0  0  0  0  0
    1.7171    0.8798    1.0996 C   0  0  0  0  0  0  0  0  0  0  0  0
    2.7658    0.2682    0.2439 C   0  0  0  0  0  0  0  0  0  0  0  0
    3.9596    0.6524    0.2266 O   0  0  0  0  0  0  0  0  0  0  0  0
    2.3701   -0.8115   -0.5938 N   0  0  0  0  0  0  0  0  0  0  0  0
    0.9909   -1.0977   -0.8290 C   0  0  0  0  0  0  0  0  0  0  0  0
    0.6861   -2.0223   -1.6084 O   0  0  0  0  0  0  0  0  0  0  0  0
   -1.3360    2.1297   -1.4944 H   0  0  0  0  0  0  0  0  0  0  0  0
   -1.4836    1.7656    0.2595 H   0  0  0  0  0  0  0  0  0  0  0  0
   -2.8459    1.4360   -0.8397 H   0  0  0  0  0  0  0  0  0  0  0  0
   -0.7708   -0.0241   -2.0925 H   0  0  0  0  0  0  0  0  0  0  0  0
   -2.5573   -0.0025    1.0437 H   0  0  0  0  0  0  0  0  0  0  0  0
   -2.7096   -1.8399    0.9153 H   0  0  0  0  0  0  0  0  0  0  0  0
   -0.4254   -0.7740    1.9543 H   0  0  0  0  0  0  0  0  0  0  0  0
   -0.4550   -2.1834    0.7967 H   0  0  0  0  0  0  0  0  0  0  0  0
    0.7518    1.5432   -0.5436 H   0  0  0  0  0  0  0  0  0  0  0  0
    2.0218    1.9094    1.3786 H   0  0  0  0  0  0  0  0  0  0  0  0
    1.5571    0.2957    2.0257 H   0  0  0  0  0  0  0  0  0  0  0  0
    3.1010   -1.4155   -1.0525 H   0  0  0  0  0  0  0  0  0  0  0  0
  1  2  1  0
  2  3  1  0
  3  4  1  0
  4  5  1  0
  5  6  1  0
  6  7  1  1
  7  8  1  0
  8  9  1  0
  9 10  2  0
  9 11  1  0
 11 12  1  0
 12 13  2  0
  6  2  1  0
 12  6  1  0
  1 14  1  0
  1 15  1  0
  1 16  1  0
  2 17  1  6
  4 18  1  0
  4 19  1  0
  5 20  1  0
  5 21  1  0
  7 22  1  0
  8 23  1  0
  8 24  1  0
 11 25  1  0
M  END
$$$$

     RDKit          3D

 25 26  0  0  0  0  0  0  0  0999 V2000
   -1.2154    0.4342    1.9969 C   0  0  0  0  0  0  0  0  0  0  0  0
   -1.4643    0.2419    0.5332 C   0  0  2  0  0  0  0  0  0  0  0  0
   -2.0706   -0.9461    0.2125 O   0  0  0  0  0  0  0  0  0  0  0  0
   -1.9897   -0.9697   -1.1801 C   0  0  0  0  0  0  0  0  0  0  0  0
   -0.6421   -0.3995   -1.5450 C   0  0  0  0  0  0  0  0  0  0  0  0
   -0.1276    0.0869   -0.2089 C   0  0  2  0  0  0  0  0  0  0  0  0
    0.6691   -0.8892    0.4776 N   0  0  0  0  0  0  0  0  0  0  0  0
    2.0018   -0.9249   -0.0962 C   0  0  0  0  0  0  0  0  0  0  0  0
    2.6665    0.3419    0.2698 C   0  0  0  0  0  0  0  0  0  0  0  0
    3.8404    0.3361    0.6887 O   0  0  0  0  0  0  0  0  0  0  0  0
    1.9090    1.5289    0.1194 N   0  0  0  0  0  0  0  0  0  0  0  0
    0.5508    1.3780   -0.2810 C   0  0  0  0  0  0  0  0  0  0  0  0
   -0.0524    2.3923   -0.7008 O   0  0  0  0  0  0  0  0  0  0  0  0
   -1.6109   -0.3670    2.6365 H   0  0  0  0  0  0  0  0  0  0  0  0
   -0.1187    0.5094    2.2464 H   0  0  0  0  0  0  0  0  0  0  0  0
   -1.6941    1.3828    2.3093 H   0  0  0  0  0  0  0  0  0  0  0  0
   -2.0219    1.0666    0.0565 H   0  0  0  0  0  0  0  0  0  0  0  0
   -2.1363   -1.9975   -1.5813 H   0  0  0  0  0  0  0  0  0  0  0  0
   -2.8030   -0.3149   -1.5984 H   0  0  0  0  0  0  0  0  0  0  0  0
   -0.0220   -1.2178   -1.9579 H   0  0  0  0  0  0  0  0  0  0  0  0
   -0.7701    0.4379   -2.2691 H   0  0  0  0  0  0  0  0  0  0  0  0
    0.2308   -1.8046    0.5848 H   0  0  0  0  0  0  0  0  0  0  0  0
    2.5694   -1.8184    0.2098 H   0  0  0  0  0  0  0  0  0  0  0  0
    1.9577   -0.9522   -1.2210 H   0  0  0  0  0  0  0  0  0  0  0  0
    2.3433    2.4650    0.2983 H   0  0  0  0  0  0  0  0  0  0  0  0
  1  2  1  0
  2  3  1  0
  3  4  1  0
  4  5  1  0
  5  6  1  0
  6  7  1  1
  7  8  1  0
  8  9  1  0
  9 10  2  0
  9 11  1  0
 11 12  1  0
 12 13  2  0
  6  2  1  0
 12  6  1  0
  1 14  1  0
  1 15  1  0
  1 16  1  0
  2 17  1  6
  4 18  1  0
  4 19  1  0
  5 20  1  0
  5 21  1  0
  7 22  1  0
  8 23  1  0
  8 24  1  0
 11 25  1  0
M  END
$$$$

     RDKit          3D

 25 26  0  0  0  0  0  0  0  0999 V2000
   -1.2837    1.8338    0.9775 C   0  0  0  0  0  0  0  0  0  0  0  0
   -1.4423    0.5748    0.1621 C   0  0  2  0  0  0  0  0  0  0  0  0
   -2.1964   -0.3940    0.8178 O   0  0  0  0  0  0  0  0  0  0  0  0
   -2.0802   -1.4648   -0.0881 C   0  0  0  0  0  0  0  0  0  0  0  0
   -0.5555   -1.5728   -0.1846 C   0  0  0  0  0  0  0  0  0  0  0  0
   -0.1225   -0.1183   -0.0815 C   0  0  2  0  0  0  0  0  0  0  0  0
    0.7658    0.0328    1.0183 N   0  0  0  0  0  0  0  0  0  0  0  0
    2.1469   -0.1379    0.7589 C   0  0  0  0  0  0  0  0  0  0  0  0
    2.6356    0.3602   -0.5143 C   0  0  0  0  0  0  0  0  0  0  0  0
    3.8492    0.6255   -0.6561 O   0  0  0  0  0  0  0  0  0  0  0  0
    1.7550    0.5499   -1.5992 N   0  0  0  0  0  0  0  0  0  0  0  0
    0.3898    0.2958   -1.3785 C   0  0  0  0  0  0  0  0  0  0  0  0
   -0.4134    0.4316   -2.3351 O   0  0  0  0  0  0  0  0  0  0  0  0
   -0.8420    1.6382    1.9572 H   0  0  0  0  0  0  0  0  0  0  0  0
   -2.2934    2.2716    1.0987 H   0  0  0  0  0  0  0  0  0  0  0  0
   -0.7027    2.5465    0.3570 H   0  0  0  0  0  0  0  0  0  0  0  0
   -1.9247    0.7985   -0.7949 H   0  0  0  0  0  0  0  0  0  0  0  0
   -2.5389   -2.3818    0.2933 H   0  0  0  0  0  0  0  0  0  0  0  0
   -2.5129   -1.1119   -1.0370 H   0  0  0  0  0  0  0  0  0  0  0  0
   -0.2093   -2.1839    0.6563 H   0  0  0  0  0  0  0  0  0  0  0  0
   -0.2650   -2.0165   -1.1610 H   0  0  0  0  0  0  0  0  0  0  0  0
    0.4972   -0.6392    1.7946 H   0  0  0  0  0  0  0  0  0  0  0  0
    2.4882   -1.2087    0.8732 H   0  0  0  0  0  0  0  0  0  0  0  0
    2.7116    0.4047    1.5740 H   0  0  0  0  0  0  0  0  0  0  0  0
    2.1438    0.8661   -2.5086 H   0  0  0  0  0  0  0  0  0  0  0  0
  1  2  1  0
  2  3  1  0
  3  4  1  0
  4  5  1  0
  5  6  1  0
  6  7  1  1
  7  8  1  0
  8  9  1  0
  9 10  2  0
  9 11  1  0
 11 12  1  0
 12 13  2  0
  6  2  1  0
 12  6  1  0
  1 14  1  0
  1 15  1  0
  1 16  1  0
  2 17  1  6
  4 18  1  0
  4 19  1  0
  5 20  1  0
  5 21  1  0
  7 22  1  0
  8 23  1  0
  8 24  1  0
 11 25  1  0
M  END
$$$$

     RDKit          3D

 25 26  0  0  0  0  0  0  0  0999 V2000
   -1.4463   -0.7644    1.4963 C   0  0  0  0  0  0  0  0  0  0  0  0
   -0.7277    0.5055    1.0463 C   0  0  2  0  0  0  0  0  0  0  0  0
   -1.6872    1.4742    0.7834 O   0  0  0  0  0  0  0  0  0  0  0  0
   -2.1723    1.2157   -0.4927 C   0  0  0  0  0  0  0  0  0  0  0  0
   -0.9911    0.7177   -1.2989 C   0  0  0  0  0  0  0  0  0  0  0  0
   -0.0025    0.2460   -0.2621 C   0  0  2  0  0  0  0  0  0  0  0  0
    0.2788   -1.1493   -0.3361 N   0  0  0  0  0  0  0  0  0  0  0  0
    1.4739   -1.4829    0.3666 C   0  0  0  0  0  0  0  0  0  0  0  0
    2.6273   -0.8795   -0.3553 C   0  0  0  0  0  0  0  0  0  0  0  0
    3.6276   -1.5371   -0.7346 O   0  0  0  0  0  0  0  0  0  0  0  0
    2.5171    0.5313   -0.5932 N   0  0  0  0  0  0  0  0  0  0  0  0
    1.2265    1.0886   -0.3712 C   0  0  0  0  0  0  0  0  0  0  0  0
    1.1108    2.3291   -0.2627 O   0  0  0  0  0  0  0  0  0  0  0  0
   -0.8763   -1.6749    1.2520 H   0  0  0  0  0  0  0  0  0  0  0  0
   -2.4103   -0.8514    0.9180 H   0  0  0  0  0  0  0  0  0  0  0  0
   -1.6795   -0.7439    2.5725 H   0  0  0  0  0  0  0  0  0  0  0  0
    0.0166    0.8276    1.7837 H   0  0  0  0  0  0  0  0  0  0  0  0
   -2.9981    0.4869   -0.5051 H   0  0  0  0  0  0  0  0  0  0  0  0
   -2.5431    2.1941   -0.9102 H   0  0  0  0  0  0  0  0  0  0  0  0
   -0.5905    1.5770   -1.8715 H   0  0  0  0  0  0  0  0  0  0  0  0
   -1.2811   -0.0715   -2.0126 H   0  0  0  0  0  0  0  0  0  0  0  0
    0.1540   -1.5906   -1.2466 H   0  0  0  0  0  0  0  0  0  0  0  0
    1.6116   -2.5510    0.5678 H   0  0  0  0  0  0  0  0  0  0  0  0
    1.4174   -0.9790    1.3727 H   0  0  0  0  0  0  0  0  0  0  0  0
    3.3442    1.0818   -0.9065 H   0  0  0  0  0  0  0  0  0  0  0  0
  1  2  1  0
  2  3  1  0
  3  4  1  0
  4  5  1  0
  5  6  1  0
  6  7  1  6
  7  8  1  0
  8  9  1  0
  9 10  2  0
  9 11  1  0
 11 12  1  0
 12 13  2  0
  6  2  1  0
 12  6  1  0
  1 14  1  0
  1 15  1  0
  1 16  1  0
  2 17  1  1
  4 18  1  0
  4 19  1  0
  5 20  1  0
  5 21  1  0
  7 22  1  0
  8 23  1  0
  8 24  1  0
 11 25  1  0
M  END
$$$$

     RDKit          3D

 25 26  0  0  0  0  0  0  0  0999 V2000
   -2.1271    1.1967   -0.8563 C   0  0  0  0  0  0  0  0  0  0  0  0
   -1.5608   -0.0925   -0.3315 C   0  0  2  0  0  0  0  0  0  0  0  0
   -2.1335   -0.4629    0.8930 O   0  0  0  0  0  0  0  0  0  0  0  0
   -1.3577   -1.6033    1.1804 C   0  0  0  0  0  0  0  0  0  0  0  0
    0.0408   -0.9877    1.1304 C   0  0  0  0  0  0  0  0  0  0  0  0
   -0.1046   -0.0583   -0.0650 C   0  0  2  0  0  0  0  0  0  0  0  0
    0.3955    1.2590    0.1882 N   0  0  0  0  0  0  0  0  0  0  0  0
    1.7871    1.2976    0.4744 C   0  0  0  0  0  0  0  0  0  0  0  0
    2.5976    0.2668   -0.1786 C   0  0  0  0  0  0  0  0  0  0  0  0
    3.7782    0.0878    0.1750 O   0  0  0  0  0  0  0  0  0  0  0  0
    2.0323   -0.5262   -1.2150 N   0  0  0  0  0  0  0  0  0  0  0  0
    0.6117   -0.5992   -1.2599 C   0  0  0  0  0  0  0  0  0  0  0  0
    0.0293   -1.0863   -2.2417 O   0  0  0  0  0  0  0  0  0  0  0  0
   -1.7167    1.3692   -1.8547 H   0  0  0  0  0  0  0  0  0  0  0  0
   -3.2299    1.0293   -0.9930 H   0  0  0  0  0  0  0  0  0  0  0  0
   -1.9113    2.0603   -0.2239 H   0  0  0  0  0  0  0  0  0  0  0  0
   -1.8103   -0.8954   -1.0607 H   0  0  0  0  0  0  0  0  0  0  0  0
   -1.5901   -2.0310    2.1599 H   0  0  0  0  0  0  0  0  0  0  0  0
   -1.4084   -2.3188    0.3415 H   0  0  0  0  0  0  0  0  0  0  0  0
    0.1953   -0.3968    2.0378 H   0  0  0  0  0  0  0  0  0  0  0  0
    0.7889   -1.7730    0.9598 H   0  0  0  0  0  0  0  0  0  0  0  0
   -0.1163    1.7259    0.9756 H   0  0  0  0  0  0  0  0  0  0  0  0
    2.1800    2.2935    0.1170 H   0  0  0  0  0  0  0  0  0  0  0  0
    2.0100    1.2818    1.5640 H   0  0  0  0  0  0  0  0  0  0  0  0
    2.6201   -1.0364   -1.9168 H   0  0  0  0  0  0  0  0  0  0  0  0
  1  2  1  0
  2  3  1  0
  3  4  1  0
  4  5  1  0
  5  6  1  0
  6  7  1  1
  7  8  1  0
  8  9  1  0
  9 10  2  0
  9 11  1  0
 11 12  1  0
 12 13  2  0
  6  2  1  0
 12  6  1  0
  1 14  1  0
  1 15  1  0
  1 16  1  0
  2 17  1  6
  4 18  1  0
  4 19  1  0
  5 20  1  0
  5 21  1  0
  7 22  1  0
  8 23  1  0
  8 24  1  0
 11 25  1  0
M  END
$$$$

     RDKit          3D

 25 26  0  0  0  0  0  0  0  0999 V2000
   -1.5830   -1.5765   -1.3339 C   0  0  0  0  0  0  0  0  0  0  0  0
   -1.4911   -0.5775   -0.2364 C   0  0  2  0  0  0  0  0  0  0  0  0
   -2.0581    0.6672   -0.5845 O   0  0  0  0  0  0  0  0  0  0  0  0
   -1.7531    1.4549    0.5249 C   0  0  0  0  0  0  0  0  0  0  0  0
   -0.3713    1.0766    0.9736 C   0  0  0  0  0  0  0  0  0  0  0  0
   -0.1032   -0.1638    0.1205 C   0  0  2  0  0  0  0  0  0  0  0  0
    0.6756    0.1537   -1.0525 N   0  0  0  0  0  0  0  0  0  0  0  0
    1.8952    0.8352   -0.7834 C   0  0  0  0  0  0  0  0  0  0  0  0
    2.5611    0.2215    0.3906 C   0  0  0  0  0  0  0  0  0  0  0  0
    3.6309    0.7281    0.8053 O   0  0  0  0  0  0  0  0  0  0  0  0
    2.0320   -0.9230    1.0667 N   0  0  0  0  0  0  0  0  0  0  0  0
    0.6450   -1.1857    0.8886 C   0  0  0  0  0  0  0  0  0  0  0  0
    0.1464   -2.2316    1.3742 O   0  0  0  0  0  0  0  0  0  0  0  0
   -0.8499   -2.3736   -1.1927 H   0  0  0  0  0  0  0  0  0  0  0  0
   -2.5952   -2.0714   -1.2476 H   0  0  0  0  0  0  0  0  0  0  0  0
   -1.5506   -1.1480   -2.3446 H   0  0  0  0  0  0  0  0  0  0  0  0
   -2.0257   -0.8965    0.6824 H   0  0  0  0  0  0  0  0  0  0  0  0
   -1.8266    2.5326    0.2446 H   0  0  0  0  0  0  0  0  0  0  0  0
   -2.5336    1.2286    1.2949 H   0  0  0  0  0  0  0  0  0  0  0  0
   -0.3766    0.7774    2.0611 H   0  0  0  0  0  0  0  0  0  0  0  0
    0.3820    1.8499    0.8466 H   0  0  0  0  0  0  0  0  0  0  0  0
    0.1350    0.5049   -1.8437 H   0  0  0  0  0  0  0  0  0  0  0  0
    1.7995    1.9228   -0.6190 H   0  0  0  0  0  0  0  0  0  0  0  0
    2.5555    0.7076   -1.6881 H   0  0  0  0  0  0  0  0  0  0  0  0
    2.6599   -1.5134    1.6526 H   0  0  0  0  0  0  0  0  0  0  0  0
  1  2  1  0
  2  3  1  0
  3  4  1  0
  4  5  1  0
  5  6  1  0
  6  7  1  6
  7  8  1  0
  8  9  1  0
  9 10  2  0
  9 11  1  0
 11 12  1  0
 12 13  2  0
  6  2  1  0
 12  6  1  0
  1 14  1  0
  1 15  1  0
  1 16  1  0
  2 17  1  1
  4 18  1  0
  4 19  1  0
  5 20  1  0
  5 21  1  0
  7 22  1  0
  8 23  1  0
  8 24  1  0
 11 25  1  0
M  END
$$$$

     RDKit          3D

 25 26  0  0  0  0  0  0  0  0999 V2000
   -1.7059    1.8813    0.7900 C   0  0  0  0  0  0  0  0  0  0  0  0
   -1.5022    0.6050    0.0519 C   0  0  2  0  0  0  0  0  0  0  0  0
   -2.1071   -0.4912    0.6894 O   0  0  0  0  0  0  0  0  0  0  0  0
   -1.7276   -1.5349   -0.1674 C   0  0  0  0  0  0  0  0  0  0  0  0
   -0.2399   -1.3358   -0.3269 C   0  0  0  0  0  0  0  0  0  0  0  0
   -0.0957    0.1662   -0.0928 C   0  0  2  0  0  0  0  0  0  0  0  0
    0.7270    0.3864    1.0616 N   0  0  0  0  0  0  0  0  0  0  0  0
    1.9778   -0.2872    0.9949 C   0  0  0  0  0  0  0  0  0  0  0  0
    2.5226   -0.3694   -0.3870 C   0  0  0  0  0  0  0  0  0  0  0  0
    3.5152   -1.0942   -0.6480 O   0  0  0  0  0  0  0  0  0  0  0  0
    1.9339    0.3711   -1.4506 N   0  0  0  0  0  0  0  0  0  0  0  0
    0.5710    0.7526   -1.2855 C   0  0  0  0  0  0  0  0  0  0  0  0
   -0.0010    1.5242   -2.0956 O   0  0  0  0  0  0  0  0  0  0  0  0
   -0.7865    2.4286    1.0201 H   0  0  0  0  0  0  0  0  0  0  0  0
   -2.2176    1.6332    1.7626 H   0  0  0  0  0  0  0  0  0  0  0  0
   -2.4197    2.5187    0.1918 H   0  0  0  0  0  0  0  0  0  0  0  0
   -1.9550    0.6476   -0.9795 H   0  0  0  0  0  0  0  0  0  0  0  0
   -1.9628   -2.5157    0.3364 H   0  0  0  0  0  0  0  0  0  0  0  0
   -2.2269   -1.4809   -1.1455 H   0  0  0  0  0  0  0  0  0  0  0  0
    0.2632   -1.9330    0.4398 H   0  0  0  0  0  0  0  0  0  0  0  0
    0.0755   -1.6019   -1.3612 H   0  0  0  0  0  0  0  0  0  0  0  0
    0.2148    0.1138    1.9304 H   0  0  0  0  0  0  0  0  0  0  0  0
    2.7348    0.3058    1.5879 H   0  0  0  0  0  0  0  0  0  0  0  0
    1.9571   -1.3216    1.3980 H   0  0  0  0  0  0  0  0  0  0  0  0
    2.4549    0.6314   -2.3147 H   0  0  0  0  0  0  0  0  0  0  0  0
  1  2  1  0
  2  3  1  0
  3  4  1  0
  4  5  1  0
  5  6  1  0
  6  7  1  1
  7  8  1  0
  8  9  1  0
  9 10  2  0
  9 11  1  0
 11 12  1  0
 12 13  2  0
  6  2  1  0
 12  6  1  0
  1 14  1  0
  1 15  1  0
  1 16  1  0
  2 17  1  6
  4 18  1  0
  4 19  1  0
  5 20  1  0
  5 21  1  0
  7 22  1  0
  8 23  1  0
  8 24  1  0
 11 25  1  0
M  END
$$$$

     RDKit          3D

 25 26  0  0  0  0  0  0  0  0999 V2000
   -1.9673   -0.1031    1.6832 C   0  0  0  0  0  0  0  0  0  0  0  0
   -1.6071    0.2311    0.2849 C   0  0  2  0  0  0  0  0  0  0  0  0
   -2.0460   -0.7114   -0.6444 O   0  0  0  0  0  0  0  0  0  0  0  0
   -1.3202   -0.5485   -1.7950 C   0  0  0  0  0  0  0  0  0  0  0  0
   -0.2314    0.4729   -1.5135 C   0  0  0  0  0  0  0  0  0  0  0  0
   -0.1331    0.2578    0.0049 C   0  0  2  0  0  0  0  0  0  0  0  0
    0.4157   -1.0622    0.1911 N   0  0  0  0  0  0  0  0  0  0  0  0
    1.7977   -1.1465   -0.2309 C   0  0  0  0  0  0  0  0  0  0  0  0
    2.6098   -0.0212    0.2883 C   0  0  0  0  0  0  0  0  0  0  0  0
    3.8588   -0.1729    0.3309 O   0  0  0  0  0  0  0  0  0  0  0  0
    2.0272    1.2109    0.7347 N   0  0  0  0  0  0  0  0  0  0  0  0
    0.5986    1.3199    0.6766 C   0  0  0  0  0  0  0  0  0  0  0  0
    0.0215    2.3035    1.1926 O   0  0  0  0  0  0  0  0  0  0  0  0
   -2.1905    0.8546    2.2300 H   0  0  0  0  0  0  0  0  0  0  0  0
   -1.1987   -0.6245    2.2523 H   0  0  0  0  0  0  0  0  0  0  0  0
   -2.9526   -0.6522    1.6822 H   0  0  0  0  0  0  0  0  0  0  0  0
   -2.0183    1.2172   -0.0574 H   0  0  0  0  0  0  0  0  0  0  0  0
   -0.7685   -1.5045   -2.0336 H   0  0  0  0  0  0  0  0  0  0  0  0
   -1.9630   -0.2626   -2.6419 H   0  0  0  0  0  0  0  0  0  0  0  0
    0.6999    0.2763   -2.0261 H   0  0  0  0  0  0  0  0  0  0  0  0
   -0.6501    1.4762   -1.6524 H   0  0  0  0  0  0  0  0  0  0  0  0
    0.3081   -1.4369    1.1419 H   0  0  0  0  0  0  0  0  0  0  0  0
    1.8982   -1.2255   -1.3392 H   0  0  0  0  0  0  0  0  0  0  0  0
    2.1804   -2.1339    0.1568 H   0  0  0  0  0  0  0  0  0  0  0  0
    2.6312    1.9856    1.0841 H   0  0  0  0  0  0  0  0  0  0  0  0
  1  2  1  0
  2  3  1  0
  3  4  1  0
  4  5  1  0
  5  6  1  0
  6  7  1  6
  7  8  1  0
  8  9  1  0
  9 10  2  0
  9 11  1  0
 11 12  1  0
 12 13  2  0
  6  2  1  0
 12  6  1  0
  1 14  1  0
  1 15  1  0
  1 16  1  0
  2 17  1  6
  4 18  1  0
  4 19  1  0
  5 20  1  0
  5 21  1  0
  7 22  1  0
  8 23  1  0
  8 24  1  0
 11 25  1  0
M  END
$$$$
