
     RDKit          3D

 26 26  0  0  0  0  0  0  0  0999 V2000
    4.9717   -0.2055   -0.1706 C   0  0  0  0  0  0  0  0  0  0  0  0
    3.7478    0.5483   -0.3655 N   0  0  0  0  0  0  0  0  0  0  0  0
    2.5369   -0.0427    0.1185 C   0  0  0  0  0  0  0  0  0  0  0  0
    2.5672   -1.1647    0.6820 O   0  0  0  0  0  0  0  0  0  0  0  0
    1.2421    0.6624   -0.0410 C   0  0  0  0  0  0  0  0  0  0  0  0
   -0.0553   -0.3037    0.6458 S   0  0  0  0  0  4  0  0  0  0  0  0
    0.0062   -1.7669    0.3914 O   0  0  0  0  0  0  0  0  0  0  0  0
   -1.6716    0.4114    0.5303 C   0  0  2  0  0  0  0  0  0  0  0  0
   -2.6561   -0.5715    1.1777 C   0  0  0  0  0  0  0  0  0  0  0  0
   -3.8127   -0.6517    0.2245 C   0  0  0  0  0  0  0  0  0  0  0  0
   -3.5835    0.3622   -0.7770 N   0  0  0  0  0  0  0  0  0  0  0  0
   -2.1370    0.4147   -0.8914 C   0  0  0  0  0  0  0  0  0  0  0  0
    5.8064    0.1653   -0.7790 H   0  0  0  0  0  0  0  0  0  0  0  0
    4.7523   -1.2890   -0.3836 H   0  0  0  0  0  0  0  0  0  0  0  0
    5.1987   -0.1623    0.9141 H   0  0  0  0  0  0  0  0  0  0  0  0
    3.6888    1.4648   -0.8205 H   0  0  0  0  0  0  0  0  0  0  0  0
    1.2898    1.6395    0.4903 H   0  0  0  0  0  0  0  0  0  0  0  0
    1.0904    0.9296   -1.1208 H   0  0  0  0  0  0  0  0  0  0  0  0
   -1.7477    1.3943    0.9909 H   0  0  0  0  0  0  0  0  0  0  0  0
   -2.9613   -0.2130    2.1612 H   0  0  0  0  0  0  0  0  0  0  0  0
   -2.1940   -1.5976    1.2443 H   0  0  0  0  0  0  0  0  0  0  0  0
   -3.8557   -1.6305   -0.3060 H   0  0  0  0  0  0  0  0  0  0  0  0
   -4.7915   -0.5033    0.7539 H   0  0  0  0  0  0  0  0  0  0  0  0
   -3.8810    1.3195   -0.4292 H   0  0  0  0  0  0  0  0  0  0  0  0
   -1.7954    1.2913   -1.4680 H   0  0  0  0  0  0  0  0  0  0  0  0
   -1.7556   -0.5009   -1.3795 H   0  0  0  0  0  0  0  0  0  0  0  0
  1  2  1  0
  2  3  1  0
  3  4  2  0
  3  5  1  0
  6  5  1  6
  6  7  2  0
  6  8  1  0
  8  9  1  0
  9 10  1  0
 10 11  1  0
 11 12  1  0
 12  8  1  0
  1 13  1  0
  1 14  1  0
  1 15  1  0
  2 16  1  0
  5 17  1  0
  5 18  1  0
  8 19  1  1
  9 20  1  0
  9 21  1  0
 10 22  1  0
 10 23  1  0
 11 24  1  0
 12 25  1  0
 12 26  1  0
M  END
$$$$

     RDKit          3D

 26 26  0  0  0  0  0  0  0  0999 V2000
    3.5961    0.8616   -0.3582 C   0  0  0  0  0  0  0  0  0  0  0  0
    2.3741    0.6673    0.3938 N   0  0  0  0  0  0  0  0  0  0  0  0
    2.0536   -0.6088    0.9512 C   0  0  0  0  0  0  0  0  0  0  0  0
    2.8854   -1.5354    0.7505 O   0  0  0  0  0  0  0  0  0  0  0  0
    0.8219   -0.8602    1.7260 C   0  0  0  0  0  0  0  0  0  0  0  0
   -0.4901   -1.3987    0.6478 S   0  0  0  0  0  4  0  0  0  0  0  0
   -0.1490   -2.6953   -0.0523 O   0  0  0  0  0  0  0  0  0  0  0  0
   -0.8751   -0.1728   -0.6067 C   0  0  2  0  0  0  0  0  0  0  0  0
   -1.3116    1.1146    0.0631 C   0  0  0  0  0  0  0  0  0  0  0  0
   -2.6774    0.7226    0.6020 C   0  0  0  0  0  0  0  0  0  0  0  0
   -3.0922   -0.4576   -0.0969 N   0  0  0  0  0  0  0  0  0  0  0  0
   -2.1976   -0.6132   -1.2445 C   0  0  0  0  0  0  0  0  0  0  0  0
    3.5164    0.3652   -1.3249 H   0  0  0  0  0  0  0  0  0  0  0  0
    3.7495    1.9390   -0.4872 H   0  0  0  0  0  0  0  0  0  0  0  0
    4.4261    0.4200    0.2451 H   0  0  0  0  0  0  0  0  0  0  0  0
    1.7081    1.4385    0.5460 H   0  0  0  0  0  0  0  0  0  0  0  0
    0.5122    0.0778    2.2309 H   0  0  0  0  0  0  0  0  0  0  0  0
    0.9510   -1.6160    2.5259 H   0  0  0  0  0  0  0  0  0  0  0  0
   -0.0833   -0.0417   -1.3422 H   0  0  0  0  0  0  0  0  0  0  0  0
   -0.6643    1.4222    0.8897 H   0  0  0  0  0  0  0  0  0  0  0  0
   -1.4481    1.8823   -0.7253 H   0  0  0  0  0  0  0  0  0  0  0  0
   -2.5802    0.4852    1.6934 H   0  0  0  0  0  0  0  0  0  0  0  0
   -3.4192    1.5191    0.4331 H   0  0  0  0  0  0  0  0  0  0  0  0
   -2.9859   -1.3078    0.5223 H   0  0  0  0  0  0  0  0  0  0  0  0
   -2.4907    0.0602   -2.0656 H   0  0  0  0  0  0  0  0  0  0  0  0
   -2.1295   -1.6681   -1.5093 H   0  0  0  0  0  0  0  0  0  0  0  0
  1  2  1  0
  2  3  1  0
  3  4  2  0
  3  5  1  0
  6  5  1  6
  6  7  2  0
  6  8  1  0
  8  9  1  0
  9 10  1  0
 10 11  1  0
 11 12  1  0
 12  8  1  0
  1 13  1  0
  1 14  1  0
  1 15  1  0
  2 16  1  0
  5 17  1  0
  5 18  1  0
  8 19  1  6
  9 20  1  0
  9 21  1  0
 10 22  1  0
 10 23  1  0
 11 24  1  0
 12 25  1  0
 12 26  1  0
M  END
$$$$

     RDKit          3D

 26 26  0  0  0  0  0  0  0  0999 V2000
    5.0186   -0.1327    0.1845 C   0  0  0  0  0  0  0  0  0  0  0  0
    3.7890   -0.3085   -0.5494 N   0  0  0  0  0  0  0  0  0  0  0  0
    2.5537    0.1163    0.0401 C   0  0  0  0  0  0  0  0  0  0  0  0
    2.6111    0.6326    1.1952 O   0  0  0  0  0  0  0  0  0  0  0  0
    1.2584   -0.0462   -0.6830 C   0  0  0  0  0  0  0  0  0  0  0  0
   -0.0369    0.5847    0.3442 S   0  0  0  0  0  4  0  0  0  0  0  0
    0.0129    0.1401    1.7706 O   0  0  0  0  0  0  0  0  0  0  0  0
   -1.6516    0.4575   -0.3908 C   0  0  2  0  0  0  0  0  0  0  0  0
   -2.7393    1.0046    0.5103 C   0  0  0  0  0  0  0  0  0  0  0  0
   -3.9623    0.3939   -0.1731 C   0  0  0  0  0  0  0  0  0  0  0  0
   -3.5380   -0.9840   -0.3284 N   0  0  0  0  0  0  0  0  0  0  0  0
   -2.1184   -0.9710   -0.5576 C   0  0  0  0  0  0  0  0  0  0  0  0
    5.0206    0.8978    0.6299 H   0  0  0  0  0  0  0  0  0  0  0  0
    5.9087   -0.1680   -0.4744 H   0  0  0  0  0  0  0  0  0  0  0  0
    5.0737   -0.8754    1.0112 H   0  0  0  0  0  0  0  0  0  0  0  0
    3.7777   -0.7364   -1.4965 H   0  0  0  0  0  0  0  0  0  0  0  0
    1.0535   -1.1049   -0.9235 H   0  0  0  0  0  0  0  0  0  0  0  0
    1.3105    0.5373   -1.6177 H   0  0  0  0  0  0  0  0  0  0  0  0
   -1.7122    1.0035   -1.3374 H   0  0  0  0  0  0  0  0  0  0  0  0
   -2.7765    2.0916    0.5265 H   0  0  0  0  0  0  0  0  0  0  0  0
   -2.6620    0.5434    1.5247 H   0  0  0  0  0  0  0  0  0  0  0  0
   -4.8668    0.4989    0.4358 H   0  0  0  0  0  0  0  0  0  0  0  0
   -4.0418    0.9055   -1.1663 H   0  0  0  0  0  0  0  0  0  0  0  0
   -3.8143   -1.4898    0.5396 H   0  0  0  0  0  0  0  0  0  0  0  0
   -1.8193   -1.4123   -1.5131 H   0  0  0  0  0  0  0  0  0  0  0  0
   -1.6492   -1.5786    0.2477 H   0  0  0  0  0  0  0  0  0  0  0  0
  1  2  1  0
  2  3  1  0
  3  4  2  0
  3  5  1  0
  6  5  1  6
  6  7  2  0
  6  8  1  0
  8  9  1  0
  9 10  1  0
 10 11  1  0
 11 12  1  0
 12  8  1  0
  1 13  1  0
  1 14  1  0
  1 15  1  0
  2 16  1  0
  5 17  1  0
  5 18  1  0
  8 19  1  6
  9 20  1  0
  9 21  1  0
 10 22  1  0
 10 23  1  0
 11 24  1  0
 12 25  1  0
 12 26  1  0
M  END
$$$$

     RDKit          3D

 26 26  0  0  0  0  0  0  0  0999 V2000
    4.9796   -0.0946    0.0954 C   0  0  0  0  0  0  0  0  0  0  0  0
    3.7335    0.5866   -0.2065 N   0  0  0  0  0  0  0  0  0  0  0  0
    2.5258   -0.0505    0.2186 C   0  0  0  0  0  0  0  0  0  0  0  0
    2.5572   -1.1486    0.8244 O   0  0  0  0  0  0  0  0  0  0  0  0
    1.2374    0.6263   -0.0783 C   0  0  0  0  0  0  0  0  0  0  0  0
   -0.0903   -0.3680    0.5520 S   0  0  0  0  0  4  0  0  0  0  0  0
   -0.0597   -1.7736   -0.0016 O   0  0  0  0  0  0  0  0  0  0  0  0
   -1.6992    0.3323    0.2613 C   0  0  2  0  0  0  0  0  0  0  0  0
   -2.7488   -0.5955    0.8382 C   0  0  0  0  0  0  0  0  0  0  0  0
   -3.9663   -0.1487    0.0181 C   0  0  0  0  0  0  0  0  0  0  0  0
   -3.3908   -0.2176   -1.3141 N   0  0  0  0  0  0  0  0  0  0  0  0
   -2.0794    0.3868   -1.1850 C   0  0  0  0  0  0  0  0  0  0  0  0
    5.6811    0.6980    0.4692 H   0  0  0  0  0  0  0  0  0  0  0  0
    5.4071   -0.5550   -0.8302 H   0  0  0  0  0  0  0  0  0  0  0  0
    4.8445   -0.8310    0.9079 H   0  0  0  0  0  0  0  0  0  0  0  0
    3.6854    1.4855   -0.7009 H   0  0  0  0  0  0  0  0  0  0  0  0
    1.2183    1.6218    0.3947 H   0  0  0  0  0  0  0  0  0  0  0  0
    1.0938    0.7383   -1.1815 H   0  0  0  0  0  0  0  0  0  0  0  0
   -1.8134    1.3512    0.6881 H   0  0  0  0  0  0  0  0  0  0  0  0
   -2.4990   -1.6174    0.5175 H   0  0  0  0  0  0  0  0  0  0  0  0
   -2.9064   -0.4665    1.9069 H   0  0  0  0  0  0  0  0  0  0  0  0
   -4.2082    0.9010    0.2251 H   0  0  0  0  0  0  0  0  0  0  0  0
   -4.8122   -0.8389    0.1454 H   0  0  0  0  0  0  0  0  0  0  0  0
   -3.2345   -1.2332   -1.5181 H   0  0  0  0  0  0  0  0  0  0  0  0
   -1.3203   -0.2139   -1.7537 H   0  0  0  0  0  0  0  0  0  0  0  0
   -2.1352    1.4250   -1.5667 H   0  0  0  0  0  0  0  0  0  0  0  0
  1  2  1  0
  2  3  1  0
  3  4  2  0
  3  5  1  0
  6  5  1  6
  6  7  2  0
  6  8  1  0
  8  9  1  0
  9 10  1  0
 10 11  1  0
 11 12  1  0
 12  8  1  0
  1 13  1  0
  1 14  1  0
  1 15  1  0
  2 16  1  0
  5 17  1  0
  5 18  1  0
  8 19  1  1
  9 20  1  0
  9 21  1  0
 10 22  1  0
 10 23  1  0
 11 24  1  0
 12 25  1  0
 12 26  1  0
M  END
$$$$

     RDKit          3D

 26 26  0  0  0  0  0  0  0  0999 V2000
    4.8019   -0.0493    0.5380 C   0  0  0  0  0  0  0  0  0  0  0  0
    3.4558    0.5129    0.3772 N   0  0  0  0  0  0  0  0  0  0  0  0
    2.5778   -0.1591   -0.5068 C   0  0  0  0  0  0  0  0  0  0  0  0
    2.9744   -1.2058   -1.1247 O   0  0  0  0  0  0  0  0  0  0  0  0
    1.2156    0.3360   -0.7186 C   0  0  0  0  0  0  0  0  0  0  0  0
    0.0546   -0.2781    0.5311 S   0  0  0  0  0  4  0  0  0  0  0  0
    0.0194   -1.7901    0.4420 O   0  0  0  0  0  0  0  0  0  0  0  0
   -1.5356    0.4212    0.1086 C   0  0  2  0  0  0  0  0  0  0  0  0
   -2.6318    0.0237    1.0413 C   0  0  0  0  0  0  0  0  0  0  0  0
   -3.8385    0.2887    0.1713 C   0  0  0  0  0  0  0  0  0  0  0  0
   -3.4459   -0.4654   -1.0255 N   0  0  0  0  0  0  0  0  0  0  0  0
   -2.0493   -0.1674   -1.2155 C   0  0  0  0  0  0  0  0  0  0  0  0
    4.7669   -0.9000    1.2659 H   0  0  0  0  0  0  0  0  0  0  0  0
    5.1591   -0.4640   -0.4503 H   0  0  0  0  0  0  0  0  0  0  0  0
    5.4706    0.7671    0.8582 H   0  0  0  0  0  0  0  0  0  0  0  0
    3.1786    1.3657    0.8950 H   0  0  0  0  0  0  0  0  0  0  0  0
    1.1779    1.4503   -0.7419 H   0  0  0  0  0  0  0  0  0  0  0  0
    0.9018    0.0179   -1.7538 H   0  0  0  0  0  0  0  0  0  0  0  0
   -1.4845    1.5147    0.0551 H   0  0  0  0  0  0  0  0  0  0  0  0
   -2.6320   -1.0769    1.2464 H   0  0  0  0  0  0  0  0  0  0  0  0
   -2.6576    0.6131    1.9785 H   0  0  0  0  0  0  0  0  0  0  0  0
   -3.8396    1.3502   -0.0905 H   0  0  0  0  0  0  0  0  0  0  0  0
   -4.7714   -0.0993    0.5987 H   0  0  0  0  0  0  0  0  0  0  0  0
   -3.5450   -1.4786   -0.7698 H   0  0  0  0  0  0  0  0  0  0  0  0
   -1.4749   -1.1195   -1.4191 H   0  0  0  0  0  0  0  0  0  0  0  0
   -1.8482    0.5919   -1.9956 H   0  0  0  0  0  0  0  0  0  0  0  0
  1  2  1  0
  2  3  1  0
  3  4  2  0
  3  5  1  0
  6  5  1  6
  6  7  2  0
  6  8  1  0
  8  9  1  0
  9 10  1  0
 10 11  1  0
 11 12  1  0
 12  8  1  0
  1 13  1  0
  1 14  1  0
  1 15  1  0
  2 16  1  0
  5 17  1  0
  5 18  1  0
  8 19  1  6
  9 20  1  0
  9 21  1  0
 10 22  1  0
 10 23  1  0
 11 24  1  0
 12 25  1  0
 12 26  1  0
M  END
$$$$

     RDKit          3D

 26 26  0  0  0  0  0  0  0  0999 V2000
    4.0317    0.8961    0.1857 C   0  0  0  0  0  0  0  0  0  0  0  0
    3.2454   -0.2491   -0.1962 N   0  0  0  0  0  0  0  0  0  0  0  0
    1.8563   -0.2917    0.1606 C   0  0  0  0  0  0  0  0  0  0  0  0
    1.3840    0.6612    0.7862 O   0  0  0  0  0  0  0  0  0  0  0  0
    1.0990   -1.4637   -0.2438 C   0  0  0  0  0  0  0  0  0  0  0  0
   -0.6287   -1.4824   -0.1489 S   0  0  0  0  0  4  0  0  0  0  0  0
   -1.2128   -2.8599   -0.0253 O   0  0  0  0  0  0  0  0  0  0  0  0
   -1.6054   -0.3917   -1.0745 C   0  0  2  0  0  0  0  0  0  0  0  0
   -1.3678    1.0525   -0.8088 C   0  0  0  0  0  0  0  0  0  0  0  0
   -1.9099    1.2153    0.5769 C   0  0  0  0  0  0  0  0  0  0  0  0
   -2.6499   -0.0124    0.9017 N   0  0  0  0  0  0  0  0  0  0  0  0
   -3.0413   -0.4605   -0.4441 C   0  0  0  0  0  0  0  0  0  0  0  0
    4.9983    0.8915   -0.3506 H   0  0  0  0  0  0  0  0  0  0  0  0
    3.4700    1.8053   -0.1289 H   0  0  0  0  0  0  0  0  0  0  0  0
    4.2047    0.9445    1.2697 H   0  0  0  0  0  0  0  0  0  0  0  0
    3.6658   -1.0397   -0.7228 H   0  0  0  0  0  0  0  0  0  0  0  0
    1.5173   -2.3696    0.3102 H   0  0  0  0  0  0  0  0  0  0  0  0
    1.4107   -1.6698   -1.3267 H   0  0  0  0  0  0  0  0  0  0  0  0
   -1.7034   -0.6285   -2.1605 H   0  0  0  0  0  0  0  0  0  0  0  0
   -2.0219    1.6143   -1.5552 H   0  0  0  0  0  0  0  0  0  0  0  0
   -0.3340    1.3314   -0.9361 H   0  0  0  0  0  0  0  0  0  0  0  0
   -1.1554    1.4528    1.3249 H   0  0  0  0  0  0  0  0  0  0  0  0
   -2.6930    2.0099    0.5784 H   0  0  0  0  0  0  0  0  0  0  0  0
   -3.4886    0.1983    1.4823 H   0  0  0  0  0  0  0  0  0  0  0  0
   -3.6484    0.3213   -0.8971 H   0  0  0  0  0  0  0  0  0  0  0  0
   -3.4226   -1.4753   -0.4672 H   0  0  0  0  0  0  0  0  0  0  0  0
  1  2  1  0
  2  3  1  0
  3  4  2  0
  3  5  1  0
  6  5  1  6
  6  7  2  0
  6  8  1  0
  8  9  1  0
  9 10  1  0
 10 11  1  0
 11 12  1  0
 12  8  1  0
  1 13  1  0
  1 14  1  0
  1 15  1  0
  2 16  1  0
  5 17  1  0
  5 18  1  0
  8 19  1  6
  9 20  1  0
  9 21  1  0
 10 22  1  0
 10 23  1  0
 11 24  1  0
 12 25  1  0
 12 26  1  0
M  END
$$$$

     RDKit          3D

 26 26  0  0  0  0  0  0  0  0999 V2000
    4.8120    0.0341   -0.0053 C   0  0  0  0  0  0  0  0  0  0  0  0
    3.5392   -0.5331   -0.4068 N   0  0  0  0  0  0  0  0  0  0  0  0
    2.3384   -0.1106    0.2611 C   0  0  0  0  0  0  0  0  0  0  0  0
    2.4227    0.7441    1.1808 O   0  0  0  0  0  0  0  0  0  0  0  0
    1.0358   -0.6757   -0.1330 C   0  0  0  0  0  0  0  0  0  0  0  0
   -0.2535    0.0563    0.8884 S   0  0  0  0  0  4  0  0  0  0  0  0
   -0.2079    1.5435    0.9053 O   0  0  0  0  0  0  0  0  0  0  0  0
   -1.8273   -0.6351    0.4029 C   0  0  2  0  0  0  0  0  0  0  0  0
   -2.0403   -0.2977   -1.0570 C   0  0  0  0  0  0  0  0  0  0  0  0
   -2.9817    0.8790   -1.0300 C   0  0  0  0  0  0  0  0  0  0  0  0
   -3.1617    1.2392    0.3540 N   0  0  0  0  0  0  0  0  0  0  0  0
   -3.0099   -0.0011    1.0521 C   0  0  0  0  0  0  0  0  0  0  0  0
    5.5952   -0.2598   -0.7219 H   0  0  0  0  0  0  0  0  0  0  0  0
    5.0320   -0.3451    1.0345 H   0  0  0  0  0  0  0  0  0  0  0  0
    4.6747    1.1484    0.0326 H   0  0  0  0  0  0  0  0  0  0  0  0
    3.4220   -1.2387   -1.1578 H   0  0  0  0  0  0  0  0  0  0  0  0
    1.0575   -1.7766    0.0010 H   0  0  0  0  0  0  0  0  0  0  0  0
    0.8748   -0.4717   -1.2041 H   0  0  0  0  0  0  0  0  0  0  0  0
   -1.8608   -1.7364    0.5772 H   0  0  0  0  0  0  0  0  0  0  0  0
   -1.0883   -0.0647   -1.5666 H   0  0  0  0  0  0  0  0  0  0  0  0
   -2.5133   -1.1976   -1.5162 H   0  0  0  0  0  0  0  0  0  0  0  0
   -2.5966    1.7226   -1.6468 H   0  0  0  0  0  0  0  0  0  0  0  0
   -3.9748    0.5461   -1.4380 H   0  0  0  0  0  0  0  0  0  0  0  0
   -2.4779    1.9465    0.6632 H   0  0  0  0  0  0  0  0  0  0  0  0
   -2.9122    0.1182    2.1478 H   0  0  0  0  0  0  0  0  0  0  0  0
   -3.8981   -0.6345    0.7866 H   0  0  0  0  0  0  0  0  0  0  0  0
  1  2  1  0
  2  3  1  0
  3  4  2  0
  3  5  1  0
  6  5  1  1
  6  7  2  0
  6  8  1  0
  8  9  1  0
  9 10  1  0
 10 11  1  0
 11 12  1  0
 12  8  1  0
  1 13  1  0
  1 14  1  0
  1 15  1  0
  2 16  1  0
  5 17  1  0
  5 18  1  0
  8 19  1  6
  9 20  1  0
  9 21  1  0
 10 22  1  0
 10 23  1  0
 11 24  1  0
 12 25  1  0
 12 26  1  0
M  END
$$$$

     RDKit          3D

 26 26  0  0  0  0  0  0  0  0999 V2000
    4.8779   -0.4238   -0.0458 C   0  0  0  0  0  0  0  0  0  0  0  0
    3.6734    0.3415   -0.3474 N   0  0  0  0  0  0  0  0  0  0  0  0
    2.4181   -0.0563    0.1958 C   0  0  0  0  0  0  0  0  0  0  0  0
    2.4087   -1.0798    0.9320 O   0  0  0  0  0  0  0  0  0  0  0  0
    1.1561    0.6923   -0.0819 C   0  0  0  0  0  0  0  0  0  0  0  0
   -0.1926   -0.0969    0.7616 S   0  0  0  0  0  4  0  0  0  0  0  0
   -0.2380   -1.5712    0.4792 O   0  0  0  0  0  0  0  0  0  0  0  0
   -1.7359    0.7360    0.4812 C   0  0  2  0  0  0  0  0  0  0  0  0
   -2.8596    0.0503    1.2042 C   0  0  0  0  0  0  0  0  0  0  0  0
   -3.2620   -1.0408    0.2373 C   0  0  0  0  0  0  0  0  0  0  0  0
   -2.9090   -0.6000   -1.0802 N   0  0  0  0  0  0  0  0  0  0  0  0
   -2.1223    0.5903   -0.9678 C   0  0  0  0  0  0  0  0  0  0  0  0
    4.7466   -0.8123    0.9851 H   0  0  0  0  0  0  0  0  0  0  0  0
    5.7768    0.2267   -0.0846 H   0  0  0  0  0  0  0  0  0  0  0  0
    4.9389   -1.2775   -0.7406 H   0  0  0  0  0  0  0  0  0  0  0  0
    3.6933    1.1912   -0.9608 H   0  0  0  0  0  0  0  0  0  0  0  0
    1.2468    1.7528    0.2304 H   0  0  0  0  0  0  0  0  0  0  0  0
    0.9477    0.7283   -1.1895 H   0  0  0  0  0  0  0  0  0  0  0  0
   -1.6155    1.7955    0.7802 H   0  0  0  0  0  0  0  0  0  0  0  0
   -3.7066    0.7513    1.2755 H   0  0  0  0  0  0  0  0  0  0  0  0
   -2.5590   -0.3630    2.1932 H   0  0  0  0  0  0  0  0  0  0  0  0
   -4.3354   -1.2138    0.3331 H   0  0  0  0  0  0  0  0  0  0  0  0
   -2.6991   -1.9597    0.5391 H   0  0  0  0  0  0  0  0  0  0  0  0
   -3.7561   -0.3750   -1.6535 H   0  0  0  0  0  0  0  0  0  0  0  0
   -2.6759    1.5101   -1.2481 H   0  0  0  0  0  0  0  0  0  0  0  0
   -1.2173    0.5036   -1.6009 H   0  0  0  0  0  0  0  0  0  0  0  0
  1  2  1  0
  2  3  1  0
  3  4  2  0
  3  5  1  0
  6  5  1  6
  6  7  2  0
  6  8  1  0
  8  9  1  0
  9 10  1  0
 10 11  1  0
 11 12  1  0
 12  8  1  0
  1 13  1  0
  1 14  1  0
  1 15  1  0
  2 16  1  0
  5 17  1  0
  5 18  1  0
  8 19  1  1
  9 20  1  0
  9 21  1  0
 10 22  1  0
 10 23  1  0
 11 24  1  0
 12 25  1  0
 12 26  1  0
M  END
$$$$
