
     RDKit          3D

 24 25  0  0  0  0  0  0  0  0999 V2000
   -2.1660   -0.0070   -1.2842 C   0  0  0  0  0  0  0  0  0  0  0  0
   -0.8830   -0.3954   -1.0385 O   0  0  0  0  0  0  0  0  0  0  0  0
   -0.5872   -0.9222    0.1762 C   0  0  2  0  0  0  0  0  0  0  0  0
   -1.6233   -1.3653    1.0814 C   0  0  0  0  0  0  0  0  0  0  0  0
   -1.8710    0.0278    1.2828 O   0  0  0  0  0  0  0  0  0  0  0  0
   -0.5519    0.1087    1.3523 C   0  0  2  0  0  0  0  0  0  0  0  0
    0.3672    1.0163    0.6816 C   0  0  1  0  0  0  0  0  0  0  0  0
    0.9538    1.9682    1.4856 O   0  0  0  0  0  0  0  0  0  0  0  0
    1.4112   -0.0329    0.2345 C   0  0  2  0  0  0  0  0  0  0  0  0
    1.9685    0.2797   -1.1130 C   0  0  0  0  0  0  0  0  0  0  0  0
    2.8665   -0.7462   -1.4291 O   0  0  0  0  0  0  0  0  0  0  0  0
    0.7359   -1.2656    0.2774 O   0  0  0  0  0  0  0  0  0  0  0  0
   -2.9213   -0.8149   -1.1981 H   0  0  0  0  0  0  0  0  0  0  0  0
   -2.5162    0.9025   -0.7629 H   0  0  0  0  0  0  0  0  0  0  0  0
   -2.1972    0.2891   -2.3790 H   0  0  0  0  0  0  0  0  0  0  0  0
   -2.5041   -1.9115    0.7059 H   0  0  0  0  0  0  0  0  0  0  0  0
   -1.2472   -1.8379    1.9948 H   0  0  0  0  0  0  0  0  0  0  0  0
   -0.1035   -0.4086    2.2247 H   0  0  0  0  0  0  0  0  0  0  0  0
   -0.0709    1.4331   -0.2452 H   0  0  0  0  0  0  0  0  0  0  0  0
    1.2821    2.6988    0.8998 H   0  0  0  0  0  0  0  0  0  0  0  0
    2.1938   -0.0581    1.0204 H   0  0  0  0  0  0  0  0  0  0  0  0
    1.1672    0.3516   -1.8591 H   0  0  0  0  0  0  0  0  0  0  0  0
    2.5151    1.2437   -1.0558 H   0  0  0  0  0  0  0  0  0  0  0  0
    3.7817   -0.5541   -1.0527 H   0  0  0  0  0  0  0  0  0  0  0  0
  1  2  1  0
  3  2  1  6
  3  4  1  0
  4  5  1  0
  5  6  1  0
  6  7  1  0
  7  8  1  0
  7  9  1  0
  9 10  1  0
 10 11  1  0
  9 12  1  0
  6  3  1  0
 12  3  1  0
  1 13  1  0
  1 14  1  0
  1 15  1  0
  4 16  1  0
  4 17  1  0
  6 18  1  1
  7 19  1  6
  8 20  1  0
  9 21  1  1
 10 22  1  0
 10 23  1  0
 11 24  1  0
M  END
$$$$

     RDKit          3D

 24 25  0  0  0  0  0  0  0  0999 V2000
   -1.9297   -1.3864   -0.6053 C   0  0  0  0  0  0  0  0  0  0  0  0
   -0.8012   -1.1468    0.0980 O   0  0  0  0  0  0  0  0  0  0  0  0
   -0.7176    0.0104    0.8037 C   0  0  2  0  0  0  0  0  0  0  0  0
   -1.9292    0.7359    1.0950 C   0  0  0  0  0  0  0  0  0  0  0  0
   -1.8555    1.1733   -0.2501 O   0  0  0  0  0  0  0  0  0  0  0  0
   -0.5642    1.3021   -0.0181 C   0  0  2  0  0  0  0  0  0  0  0  0
    0.5830    0.7735   -0.7830 C   0  0  1  0  0  0  0  0  0  0  0  0
    1.2615    1.6988   -1.5464 O   0  0  0  0  0  0  0  0  0  0  0  0
    1.4128    0.3462    0.4492 C   0  0  2  0  0  0  0  0  0  0  0  0
    2.2874   -0.8133    0.2008 C   0  0  0  0  0  0  0  0  0  0  0  0
    1.6706   -1.9830   -0.1547 O   0  0  0  0  0  0  0  0  0  0  0  0
    0.4690    0.1679    1.4897 O   0  0  0  0  0  0  0  0  0  0  0  0
   -1.8285   -2.4185   -1.0805 H   0  0  0  0  0  0  0  0  0  0  0  0
   -2.0814   -0.6582   -1.4583 H   0  0  0  0  0  0  0  0  0  0  0  0
   -2.8103   -1.4386    0.0517 H   0  0  0  0  0  0  0  0  0  0  0  0
   -2.8756    0.1975    1.2864 H   0  0  0  0  0  0  0  0  0  0  0  0
   -1.8345    1.6089    1.7528 H   0  0  0  0  0  0  0  0  0  0  0  0
   -0.2403    2.1315    0.6657 H   0  0  0  0  0  0  0  0  0  0  0  0
    0.3087   -0.1420   -1.3187 H   0  0  0  0  0  0  0  0  0  0  0  0
    1.2413    2.5657   -1.0916 H   0  0  0  0  0  0  0  0  0  0  0  0
    2.0131    1.2179    0.7108 H   0  0  0  0  0  0  0  0  0  0  0  0
    2.9648   -0.9195    1.0741 H   0  0  0  0  0  0  0  0  0  0  0  0
    2.9706   -0.5144   -0.6454 H   0  0  0  0  0  0  0  0  0  0  0  0
    2.2852   -2.5086   -0.7258 H   0  0  0  0  0  0  0  0  0  0  0  0
  1  2  1  0
  3  2  1  6
  3  4  1  0
  4  5  1  0
  5  6  1  0
  6  7  1  0
  7  8  1  0
  7  9  1  0
  9 10  1  0
 10 11  1  0
  9 12  1  0
  6  3  1  0
 12  3  1  0
  1 13  1  0
  1 14  1  0
  1 15  1  0
  4 16  1  0
  4 17  1  0
  6 18  1  1
  7 19  1  6
  8 20  1  0
  9 21  1  1
 10 22  1  0
 10 23  1  0
 11 24  1  0
M  END
$$$$

     RDKit          3D

 24 25  0  0  0  0  0  0  0  0999 V2000
    1.7620    1.8299   -0.0351 C   0  0  0  0  0  0  0  0  0  0  0  0
    1.2949    0.7050   -0.6619 O   0  0  0  0  0  0  0  0  0  0  0  0
    1.0837   -0.3694    0.1736 C   0  0  2  0  0  0  0  0  0  0  0  0
    2.0398   -1.4729    0.0352 C   0  0  0  0  0  0  0  0  0  0  0  0
    1.4563   -1.5909   -1.2723 O   0  0  0  0  0  0  0  0  0  0  0  0
    0.3205   -1.4839   -0.5971 C   0  0  2  0  0  0  0  0  0  0  0  0
   -0.8540   -0.6572   -0.8746 C   0  0  1  0  0  0  0  0  0  0  0  0
   -1.9336   -1.3862   -1.3439 O   0  0  0  0  0  0  0  0  0  0  0  0
   -1.0859   -0.2614    0.6053 C   0  0  2  0  0  0  0  0  0  0  0  0
   -1.9513    0.9209    0.7525 C   0  0  0  0  0  0  0  0  0  0  0  0
   -1.5132    2.0858    0.1878 O   0  0  0  0  0  0  0  0  0  0  0  0
    0.1931   -0.1763    1.1470 O   0  0  0  0  0  0  0  0  0  0  0  0
    1.8784    2.6186   -0.8293 H   0  0  0  0  0  0  0  0  0  0  0  0
    2.7768    1.7087    0.4011 H   0  0  0  0  0  0  0  0  0  0  0  0
    1.1388    2.2254    0.7768 H   0  0  0  0  0  0  0  0  0  0  0  0
    1.8280   -2.3696    0.6107 H   0  0  0  0  0  0  0  0  0  0  0  0
    3.0980   -1.2766   -0.0970 H   0  0  0  0  0  0  0  0  0  0  0  0
    0.1199   -2.2851    0.1531 H   0  0  0  0  0  0  0  0  0  0  0  0
   -0.6190    0.2322   -1.4595 H   0  0  0  0  0  0  0  0  0  0  0  0
   -1.9984   -2.2067   -0.8048 H   0  0  0  0  0  0  0  0  0  0  0  0
   -1.5948   -1.1449    1.0419 H   0  0  0  0  0  0  0  0  0  0  0  0
   -2.9247    0.6649    0.2412 H   0  0  0  0  0  0  0  0  0  0  0  0
   -2.2234    1.0126    1.8232 H   0  0  0  0  0  0  0  0  0  0  0  0
   -2.2921    2.6768    0.0258 H   0  0  0  0  0  0  0  0  0  0  0  0
  1  2  1  0
  3  2  1  6
  3  4  1  0
  4  5  1  0
  5  6  1  0
  6  7  1  0
  7  8  1  0
  7  9  1  0
  9 10  1  0
 10 11  1  0
  9 12  1  0
  6  3  1  0
 12  3  1  0
  1 13  1  0
  1 14  1  0
  1 15  1  0
  4 16  1  0
  4 17  1  0
  6 18  1  1
  7 19  1  6
  8 20  1  0
  9 21  1  1
 10 22  1  0
 10 23  1  0
 11 24  1  0
M  END
$$$$

     RDKit          3D

 24 25  0  0  0  0  0  0  0  0999 V2000
    1.8351    1.3686   -1.0922 C   0  0  0  0  0  0  0  0  0  0  0  0
    1.1916    0.1259   -1.0667 O   0  0  0  0  0  0  0  0  0  0  0  0
    1.0303   -0.1928    0.2719 C   0  0  2  0  0  0  0  0  0  0  0  0
    1.9818   -1.2133    0.6900 C   0  0  0  0  0  0  0  0  0  0  0  0
    1.1858   -2.0577   -0.1561 O   0  0  0  0  0  0  0  0  0  0  0  0
    0.1880   -1.4828    0.5047 C   0  0  2  0  0  0  0  0  0  0  0  0
   -1.0784   -0.9724    0.0420 C   0  0  1  0  0  0  0  0  0  0  0  0
   -2.1348   -1.6246    0.6872 O   0  0  0  0  0  0  0  0  0  0  0  0
   -1.0109    0.4482    0.6437 C   0  0  2  0  0  0  0  0  0  0  0  0
   -1.5177    1.3853   -0.3793 C   0  0  0  0  0  0  0  0  0  0  0  0
   -2.8691    1.0299   -0.6130 O   0  0  0  0  0  0  0  0  0  0  0  0
    0.3183    0.6295    1.0251 O   0  0  0  0  0  0  0  0  0  0  0  0
    2.8297    1.3227   -0.5806 H   0  0  0  0  0  0  0  0  0  0  0  0
    1.2653    2.1656   -0.6121 H   0  0  0  0  0  0  0  0  0  0  0  0
    2.0488    1.6840   -2.1344 H   0  0  0  0  0  0  0  0  0  0  0  0
    1.9225   -1.6479    1.6990 H   0  0  0  0  0  0  0  0  0  0  0  0
    2.9961   -1.2032    0.2832 H   0  0  0  0  0  0  0  0  0  0  0  0
    0.2050   -1.7019    1.5891 H   0  0  0  0  0  0  0  0  0  0  0  0
   -1.2795   -0.9401   -1.0232 H   0  0  0  0  0  0  0  0  0  0  0  0
   -1.8855   -1.9560    1.5771 H   0  0  0  0  0  0  0  0  0  0  0  0
   -1.6577    0.5252    1.5418 H   0  0  0  0  0  0  0  0  0  0  0  0
   -1.0417    1.3259   -1.3684 H   0  0  0  0  0  0  0  0  0  0  0  0
   -1.5367    2.4389   -0.0822 H   0  0  0  0  0  0  0  0  0  0  0  0
   -2.9861    0.5431   -1.4464 H   0  0  0  0  0  0  0  0  0  0  0  0
  1  2  1  0
  3  2  1  6
  3  4  1  0
  4  5  1  0
  5  6  1  0
  6  7  1  0
  7  8  1  0
  7  9  1  0
  9 10  1  0
 10 11  1  0
  9 12  1  0
  6  3  1  0
 12  3  1  0
  1 13  1  0
  1 14  1  0
  1 15  1  0
  4 16  1  0
  4 17  1  0
  6 18  1  1
  7 19  1  6
  8 20  1  0
  9 21  1  1
 10 22  1  0
 10 23  1  0
 11 24  1  0
M  END
$$$$

     RDKit          3D

 24 25  0  0  0  0  0  0  0  0999 V2000
   -2.2441   -0.1411    1.0399 C   0  0  0  0  0  0  0  0  0  0  0  0
   -0.9968    0.3707    0.8841 O   0  0  0  0  0  0  0  0  0  0  0  0
   -0.6032    0.8073   -0.3395 C   0  0  2  0  0  0  0  0  0  0  0  0
   -1.6476    1.0080   -1.3123 C   0  0  0  0  0  0  0  0  0  0  0  0
   -1.6793   -0.3995   -1.4184 O   0  0  0  0  0  0  0  0  0  0  0  0
   -0.3636   -0.3258   -1.3871 C   0  0  2  0  0  0  0  0  0  0  0  0
    0.5874   -1.0400   -0.5144 C   0  0  1  0  0  0  0  0  0  0  0  0
    1.3284   -2.0271   -1.1119 O   0  0  0  0  0  0  0  0  0  0  0  0
    1.4624    0.1933   -0.1975 C   0  0  2  0  0  0  0  0  0  0  0  0
    2.1040    0.1403    1.1278 C   0  0  0  0  0  0  0  0  0  0  0  0
    1.2500    0.1362    2.2034 O   0  0  0  0  0  0  0  0  0  0  0  0
    0.6672    1.3139   -0.4326 O   0  0  0  0  0  0  0  0  0  0  0  0
   -2.3332   -0.3935    2.1526 H   0  0  0  0  0  0  0  0  0  0  0  0
   -2.4165   -1.1371    0.5647 H   0  0  0  0  0  0  0  0  0  0  0  0
   -3.0815    0.5253    0.8259 H   0  0  0  0  0  0  0  0  0  0  0  0
   -1.4125    1.4537   -2.2889 H   0  0  0  0  0  0  0  0  0  0  0  0
   -2.6534    1.3472   -0.9912 H   0  0  0  0  0  0  0  0  0  0  0  0
    0.1091    0.0989   -2.2965 H   0  0  0  0  0  0  0  0  0  0  0  0
    0.1419   -1.3453    0.4327 H   0  0  0  0  0  0  0  0  0  0  0  0
    2.2308   -1.6551   -1.3582 H   0  0  0  0  0  0  0  0  0  0  0  0
    2.2405    0.1716   -1.0141 H   0  0  0  0  0  0  0  0  0  0  0  0
    2.8000   -0.7110    1.2618 H   0  0  0  0  0  0  0  0  0  0  0  0
    2.7659    1.0543    1.2008 H   0  0  0  0  0  0  0  0  0  0  0  0
    1.7442    0.5546    2.9689 H   0  0  0  0  0  0  0  0  0  0  0  0
  1  2  1  0
  3  2  1  1
  3  4  1  0
  4  5  1  0
  5  6  1  0
  6  7  1  0
  7  8  1  0
  7  9  1  0
  9 10  1  0
 10 11  1  0
  9 12  1  0
  6  3  1  0
 12  3  1  0
  1 13  1  0
  1 14  1  0
  1 15  1  0
  4 16  1  0
  4 17  1  0
  6 18  1  6
  7 19  1  1
  8 20  1  0
  9 21  1  6
 10 22  1  0
 10 23  1  0
 11 24  1  0
M  END
$$$$

     RDKit          3D

 24 25  0  0  0  0  0  0  0  0999 V2000
   -1.7601    1.9095    0.2284 C   0  0  0  0  0  0  0  0  0  0  0  0
   -1.1357    0.8680    0.9138 O   0  0  0  0  0  0  0  0  0  0  0  0
   -1.0341   -0.1857    0.0283 C   0  0  2  0  0  0  0  0  0  0  0  0
   -2.0844   -1.1847    0.3163 C   0  0  0  0  0  0  0  0  0  0  0  0
   -1.2672   -1.4424    1.4672 O   0  0  0  0  0  0  0  0  0  0  0  0
   -0.2922   -1.4337    0.5809 C   0  0  2  0  0  0  0  0  0  0  0  0
    1.0389   -0.8841    0.6001 C   0  0  1  0  0  0  0  0  0  0  0  0
    1.9836   -1.8928    0.4070 O   0  0  0  0  0  0  0  0  0  0  0  0
    0.9847   -0.0921   -0.7235 C   0  0  2  0  0  0  0  0  0  0  0  0
    1.6098    1.2290   -0.5150 C   0  0  0  0  0  0  0  0  0  0  0  0
    2.9448    1.0919   -0.1404 O   0  0  0  0  0  0  0  0  0  0  0  0
   -0.3564   -0.0647   -1.1035 O   0  0  0  0  0  0  0  0  0  0  0  0
   -1.1202    2.1596   -0.6414 H   0  0  0  0  0  0  0  0  0  0  0  0
   -2.7423    1.6001   -0.1915 H   0  0  0  0  0  0  0  0  0  0  0  0
   -1.8368    2.8289    0.8398 H   0  0  0  0  0  0  0  0  0  0  0  0
   -2.0903   -2.0808   -0.3375 H   0  0  0  0  0  0  0  0  0  0  0  0
   -3.0595   -0.8449    0.6601 H   0  0  0  0  0  0  0  0  0  0  0  0
   -0.4087   -2.2399   -0.1877 H   0  0  0  0  0  0  0  0  0  0  0  0
    1.3445   -0.2545    1.4268 H   0  0  0  0  0  0  0  0  0  0  0  0
    1.6889   -2.4007   -0.4149 H   0  0  0  0  0  0  0  0  0  0  0  0
    1.5223   -0.6242   -1.5287 H   0  0  0  0  0  0  0  0  0  0  0  0
    1.5905    1.8220   -1.4607 H   0  0  0  0  0  0  0  0  0  0  0  0
    1.1358    1.8643    0.2500 H   0  0  0  0  0  0  0  0  0  0  0  0
    3.3442    0.2520   -0.4736 H   0  0  0  0  0  0  0  0  0  0  0  0
  1  2  1  0
  3  2  1  1
  3  4  1  0
  4  5  1  0
  5  6  1  0
  6  7  1  0
  7  8  1  0
  7  9  1  0
  9 10  1  0
 10 11  1  0
  9 12  1  0
  6  3  1  0
 12  3  1  0
  1 13  1  0
  1 14  1  0
  1 15  1  0
  4 16  1  0
  4 17  1  0
  6 18  1  6
  7 19  1  1
  8 20  1  0
  9 21  1  6
 10 22  1  0
 10 23  1  0
 11 24  1  0
M  END
$$$$

     RDKit          3D

 24 25  0  0  0  0  0  0  0  0999 V2000
   -2.1129   -1.3440   -0.4193 C   0  0  0  0  0  0  0  0  0  0  0  0
   -1.5210   -0.1185   -0.7073 O   0  0  0  0  0  0  0  0  0  0  0  0
   -0.9880    0.3695    0.4801 C   0  0  2  0  0  0  0  0  0  0  0  0
   -1.7241    1.4706    1.0435 C   0  0  0  0  0  0  0  0  0  0  0  0
   -1.2655    2.1819   -0.1151 O   0  0  0  0  0  0  0  0  0  0  0  0
   -0.1053    1.6274    0.1875 C   0  0  2  0  0  0  0  0  0  0  0  0
    0.8406    0.9090   -0.6516 C   0  0  1  0  0  0  0  0  0  0  0  0
    1.9665    1.5701   -1.0512 O   0  0  0  0  0  0  0  0  0  0  0  0
    1.1538   -0.1772    0.4022 C   0  0  2  0  0  0  0  0  0  0  0  0
    1.8403   -1.3406   -0.1467 C   0  0  0  0  0  0  0  0  0  0  0  0
    1.1891   -2.0741   -1.1000 O   0  0  0  0  0  0  0  0  0  0  0  0
   -0.0621   -0.4071    1.0459 O   0  0  0  0  0  0  0  0  0  0  0  0
   -1.3288   -2.0115   -0.0230 H   0  0  0  0  0  0  0  0  0  0  0  0
   -2.9719   -1.2427    0.2812 H   0  0  0  0  0  0  0  0  0  0  0  0
   -2.5155   -1.8237   -1.3341 H   0  0  0  0  0  0  0  0  0  0  0  0
   -1.2447    1.9603    1.9180 H   0  0  0  0  0  0  0  0  0  0  0  0
   -2.8090    1.4910    1.0789 H   0  0  0  0  0  0  0  0  0  0  0  0
    0.3254    1.9191    1.1670 H   0  0  0  0  0  0  0  0  0  0  0  0
    0.3003    0.4123   -1.4973 H   0  0  0  0  0  0  0  0  0  0  0  0
    2.3919    1.9800   -0.2835 H   0  0  0  0  0  0  0  0  0  0  0  0
    1.8097    0.3161    1.1508 H   0  0  0  0  0  0  0  0  0  0  0  0
    2.1828   -1.9840    0.6867 H   0  0  0  0  0  0  0  0  0  0  0  0
    2.7945   -0.9691   -0.6243 H   0  0  0  0  0  0  0  0  0  0  0  0
    1.8540   -2.7149   -1.4885 H   0  0  0  0  0  0  0  0  0  0  0  0
  1  2  1  0
  3  2  1  6
  3  4  1  0
  4  5  1  0
  5  6  1  0
  6  7  1  0
  7  8  1  0
  7  9  1  0
  9 10  1  0
 10 11  1  0
  9 12  1  0
  6  3  1  0
 12  3  1  0
  1 13  1  0
  1 14  1  0
  1 15  1  0
  4 16  1  0
  4 17  1  0
  6 18  1  1
  7 19  1  6
  8 20  1  0
  9 21  1  1
 10 22  1  0
 10 23  1  0
 11 24  1  0
M  END
$$$$

     RDKit          3D

 24 25  0  0  0  0  0  0  0  0999 V2000
   -1.7520    1.6005    1.0074 C   0  0  0  0  0  0  0  0  0  0  0  0
   -1.1980    0.3378    1.2229 O   0  0  0  0  0  0  0  0  0  0  0  0
   -1.0743   -0.2428   -0.0369 C   0  0  2  0  0  0  0  0  0  0  0  0
   -2.1255   -1.2427   -0.2443 C   0  0  0  0  0  0  0  0  0  0  0  0
   -1.3741   -2.0072    0.7071 O   0  0  0  0  0  0  0  0  0  0  0  0
   -0.3342   -1.6154   -0.0161 C   0  0  2  0  0  0  0  0  0  0  0  0
    0.9527   -1.0855    0.3908 C   0  0  1  0  0  0  0  0  0  0  0  0
    2.0350   -1.8793    0.0197 O   0  0  0  0  0  0  0  0  0  0  0  0
    0.9947    0.1470   -0.5417 C   0  0  2  0  0  0  0  0  0  0  0  0
    1.6042    1.2583    0.2157 C   0  0  0  0  0  0  0  0  0  0  0  0
    2.9233    0.8501    0.5318 O   0  0  0  0  0  0  0  0  0  0  0  0
   -0.3212    0.3416   -0.9615 O   0  0  0  0  0  0  0  0  0  0  0  0
   -1.1184    2.2395    0.3592 H   0  0  0  0  0  0  0  0  0  0  0  0
   -2.0247    2.1021    1.9558 H   0  0  0  0  0  0  0  0  0  0  0  0
   -2.7273    1.4924    0.4474 H   0  0  0  0  0  0  0  0  0  0  0  0
   -3.1228   -1.0893    0.1653 H   0  0  0  0  0  0  0  0  0  0  0  0
   -2.1447   -1.8109   -1.1878 H   0  0  0  0  0  0  0  0  0  0  0  0
   -0.3518   -2.0081   -1.0531 H   0  0  0  0  0  0  0  0  0  0  0  0
    1.0134   -0.7671    1.4390 H   0  0  0  0  0  0  0  0  0  0  0  0
    2.4031   -1.6485   -0.8575 H   0  0  0  0  0  0  0  0  0  0  0  0
    1.5764   -0.0928   -1.4576 H   0  0  0  0  0  0  0  0  0  0  0  0
    1.6515    2.2184   -0.2908 H   0  0  0  0  0  0  0  0  0  0  0  0
    1.1241    1.3996    1.2050 H   0  0  0  0  0  0  0  0  0  0  0  0
    3.3909    1.5023    1.0816 H   0  0  0  0  0  0  0  0  0  0  0  0
  1  2  1  0
  3  2  1  1
  3  4  1  0
  4  5  1  0
  5  6  1  0
  6  7  1  0
  7  8  1  0
  7  9  1  0
  9 10  1  0
 10 11  1  0
  9 12  1  0
  6  3  1  0
 12  3  1  0
  1 13  1  0
  1 14  1  0
  1 15  1  0
  4 16  1  0
  4 17  1  0
  6 18  1  6
  7 19  1  1
  8 20  1  0
  9 21  1  6
 10 22  1  0
 10 23  1  0
 11 24  1  0
M  END
$$$$
