
     RDKit          3D

 23 22  0  0  0  0  0  0  0  0999 V2000
    3.1821    1.2500   -0.0813 C   0  0  0  0  0  0  0  0  0  0  0  0
    2.1229    0.3617    0.2672 O   0  0  0  0  0  0  0  0  0  0  0  0
    0.9836    0.2234   -0.5124 C   0  0  0  0  0  0  0  0  0  0  0  0
    0.9172    0.9220   -1.5562 O   0  0  0  0  0  0  0  0  0  0  0  0
   -0.0995   -0.7004   -0.1341 C   0  0  1  0  0  0  0  0  0  0  0  0
   -0.2422   -1.7580   -1.2075 C   0  0  0  0  0  0  0  0  0  0  0  0
    0.2543   -1.3291    1.0568 O   0  0  0  0  0  0  0  0  0  0  0  0
   -1.4181   -0.0015    0.0803 C   0  0  1  0  0  0  0  0  0  0  0  0
   -2.3863   -0.9376    0.4359 O   0  0  0  0  0  0  0  0  0  0  0  0
   -1.3550    1.0921    1.0865 C   0  0  0  0  0  0  0  0  0  0  0  0
   -2.6049    1.7083    1.1380 O   0  0  0  0  0  0  0  0  0  0  0  0
    2.8786    2.2652    0.2681 H   0  0  0  0  0  0  0  0  0  0  0  0
    4.0875    0.9756    0.4865 H   0  0  0  0  0  0  0  0  0  0  0  0
    3.3848    1.2430   -1.1599 H   0  0  0  0  0  0  0  0  0  0  0  0
    0.2600   -1.4169   -2.1426 H   0  0  0  0  0  0  0  0  0  0  0  0
    0.1879   -2.7291   -0.8919 H   0  0  0  0  0  0  0  0  0  0  0  0
   -1.3243   -1.8549   -1.4732 H   0  0  0  0  0  0  0  0  0  0  0  0
    0.2957   -2.3041    0.9594 H   0  0  0  0  0  0  0  0  0  0  0  0
   -1.7282    0.4360   -0.8889 H   0  0  0  0  0  0  0  0  0  0  0  0
   -2.3535   -1.0949    1.4178 H   0  0  0  0  0  0  0  0  0  0  0  0
   -1.1510    0.7202    2.1189 H   0  0  0  0  0  0  0  0  0  0  0  0
   -0.5722    1.8251    0.8027 H   0  0  0  0  0  0  0  0  0  0  0  0
   -3.3194    1.1040    0.7795 H   0  0  0  0  0  0  0  0  0  0  0  0
  1  2  1  0
  2  3  1  0
  3  4  2  0
  3  5  1  0
  5  6  1  0
  5  7  1  1
  5  8  1  0
  8  9  1  0
  8 10  1  0
 10 11  1  0
  1 12  1  0
  1 13  1  0
  1 14  1  0
  6 15  1  0
  6 16  1  0
  6 17  1  0
  7 18  1  0
  8 19  1  6
  9 20  1  0
 10 21  1  0
 10 22  1  0
 11 23  1  0
M  END
$$$$

     RDKit          3D

 23 22  0  0  0  0  0  0  0  0999 V2000
   -3.1533   -0.4447   -0.7658 C   0  0  0  0  0  0  0  0  0  0  0  0
   -1.8042   -0.0991   -0.5580 O   0  0  0  0  0  0  0  0  0  0  0  0
   -1.2354   -0.0231    0.7170 C   0  0  0  0  0  0  0  0  0  0  0  0
   -1.9379   -0.2671    1.6967 O   0  0  0  0  0  0  0  0  0  0  0  0
    0.1998    0.3556    0.7513 C   0  0  1  0  0  0  0  0  0  0  0  0
    0.2788    1.7411    0.1270 C   0  0  0  0  0  0  0  0  0  0  0  0
    0.7158    0.4174    2.0280 O   0  0  0  0  0  0  0  0  0  0  0  0
    0.9631   -0.6533   -0.0439 C   0  0  1  0  0  0  0  0  0  0  0  0
    0.4756   -0.7436   -1.3275 O   0  0  0  0  0  0  0  0  0  0  0  0
    2.4413   -0.3411   -0.1122 C   0  0  0  0  0  0  0  0  0  0  0  0
    3.0966   -1.3599   -0.8004 O   0  0  0  0  0  0  0  0  0  0  0  0
   -3.2348   -1.3399   -1.4020 H   0  0  0  0  0  0  0  0  0  0  0  0
   -3.6469    0.3984   -1.2827 H   0  0  0  0  0  0  0  0  0  0  0  0
   -3.6423   -0.6745    0.2127 H   0  0  0  0  0  0  0  0  0  0  0  0
    1.3079    2.0579   -0.0340 H   0  0  0  0  0  0  0  0  0  0  0  0
   -0.2831    2.4134    0.8211 H   0  0  0  0  0  0  0  0  0  0  0  0
   -0.2998    1.6896   -0.8221 H   0  0  0  0  0  0  0  0  0  0  0  0
    0.0530    0.3975    2.7434 H   0  0  0  0  0  0  0  0  0  0  0  0
    0.8607   -1.6322    0.4612 H   0  0  0  0  0  0  0  0  0  0  0  0
    0.7864    0.0049   -1.8958 H   0  0  0  0  0  0  0  0  0  0  0  0
    2.5698    0.5989   -0.6982 H   0  0  0  0  0  0  0  0  0  0  0  0
    2.8865   -0.2721    0.9041 H   0  0  0  0  0  0  0  0  0  0  0  0
    2.6024   -2.2242   -0.7199 H   0  0  0  0  0  0  0  0  0  0  0  0
  1  2  1  0
  2  3  1  0
  3  4  2  0
  3  5  1  0
  5  6  1  0
  5  7  1  1
  5  8  1  0
  8  9  1  0
  8 10  1  0
 10 11  1  0
  1 12  1  0
  1 13  1  0
  1 14  1  0
  6 15  1  0
  6 16  1  0
  6 17  1  0
  7 18  1  0
  8 19  1  1
  9 20  1  0
 10 21  1  0
 10 22  1  0
 11 23  1  0
M  END
$$$$

     RDKit          3D

 23 22  0  0  0  0  0  0  0  0999 V2000
    3.5819    0.8558   -0.3819 C   0  0  0  0  0  0  0  0  0  0  0  0
    2.3502    0.6181    0.2836 O   0  0  0  0  0  0  0  0  0  0  0  0
    1.2845   -0.0215   -0.2848 C   0  0  0  0  0  0  0  0  0  0  0  0
    1.3883   -0.4313   -1.4741 O   0  0  0  0  0  0  0  0  0  0  0  0
   -0.0126   -0.2804    0.3932 C   0  0  1  0  0  0  0  0  0  0  0  0
   -0.2327   -1.7573    0.5037 C   0  0  0  0  0  0  0  0  0  0  0  0
    0.0700    0.2417    1.6829 O   0  0  0  0  0  0  0  0  0  0  0  0
   -1.1568    0.3993   -0.3541 C   0  0  1  0  0  0  0  0  0  0  0  0
   -1.2694   -0.0957   -1.6432 O   0  0  0  0  0  0  0  0  0  0  0  0
   -2.4275    0.0710    0.4036 C   0  0  0  0  0  0  0  0  0  0  0  0
   -3.5474    0.6353   -0.1931 O   0  0  0  0  0  0  0  0  0  0  0  0
    3.7971    0.0356   -1.1130 H   0  0  0  0  0  0  0  0  0  0  0  0
    4.4025    0.8498    0.3806 H   0  0  0  0  0  0  0  0  0  0  0  0
    3.5184    1.8470   -0.8612 H   0  0  0  0  0  0  0  0  0  0  0  0
    0.7313   -2.2004    0.8742 H   0  0  0  0  0  0  0  0  0  0  0  0
   -0.9892   -1.9450    1.2960 H   0  0  0  0  0  0  0  0  0  0  0  0
   -0.5456   -2.2228   -0.4532 H   0  0  0  0  0  0  0  0  0  0  0  0
    0.5474    1.1140    1.6057 H   0  0  0  0  0  0  0  0  0  0  0  0
   -0.9840    1.4854   -0.3750 H   0  0  0  0  0  0  0  0  0  0  0  0
   -2.2264   -0.1945   -1.8561 H   0  0  0  0  0  0  0  0  0  0  0  0
   -2.5580   -1.0289    0.3645 H   0  0  0  0  0  0  0  0  0  0  0  0
   -2.2839    0.3964    1.4493 H   0  0  0  0  0  0  0  0  0  0  0  0
   -3.4380    1.6283   -0.2478 H   0  0  0  0  0  0  0  0  0  0  0  0
  1  2  1  0
  2  3  1  0
  3  4  2  0
  3  5  1  0
  5  6  1  0
  5  7  1  1
  5  8  1  0
  8  9  1  0
  8 10  1  0
 10 11  1  0
  1 12  1  0
  1 13  1  0
  1 14  1  0
  6 15  1  0
  6 16  1  0
  6 17  1  0
  7 18  1  0
  8 19  1  6
  9 20  1  0
 10 21  1  0
 10 22  1  0
 11 23  1  0
M  END
$$$$

     RDKit          3D

 23 22  0  0  0  0  0  0  0  0999 V2000
   -3.3024   -0.9440    0.1584 C   0  0  0  0  0  0  0  0  0  0  0  0
   -2.1272   -0.2910    0.6216 O   0  0  0  0  0  0  0  0  0  0  0  0
   -1.0872    0.0708   -0.2253 C   0  0  0  0  0  0  0  0  0  0  0  0
   -1.2320   -0.2099   -1.4467 O   0  0  0  0  0  0  0  0  0  0  0  0
    0.1311    0.7446    0.2367 C   0  0  1  0  0  0  0  0  0  0  0  0
    0.2353    2.0820   -0.4855 C   0  0  0  0  0  0  0  0  0  0  0  0
    0.0358    0.9364    1.6216 O   0  0  0  0  0  0  0  0  0  0  0  0
    1.3962   -0.0033   -0.0282 C   0  0  1  0  0  0  0  0  0  0  0  0
    2.4499    0.7903    0.4587 O   0  0  0  0  0  0  0  0  0  0  0  0
    1.4852   -1.3301    0.6561 C   0  0  0  0  0  0  0  0  0  0  0  0
    2.7341   -1.8824    0.3380 O   0  0  0  0  0  0  0  0  0  0  0  0
   -3.1428   -1.9880   -0.1118 H   0  0  0  0  0  0  0  0  0  0  0  0
   -4.0652   -0.8988    0.9614 H   0  0  0  0  0  0  0  0  0  0  0  0
   -3.7386   -0.3543   -0.6927 H   0  0  0  0  0  0  0  0  0  0  0  0
    0.3536    1.8331   -1.5698 H   0  0  0  0  0  0  0  0  0  0  0  0
    1.1486    2.5864   -0.1375 H   0  0  0  0  0  0  0  0  0  0  0  0
   -0.6866    2.6700   -0.3213 H   0  0  0  0  0  0  0  0  0  0  0  0
   -0.2041    0.0290    1.9875 H   0  0  0  0  0  0  0  0  0  0  0  0
    1.5968   -0.1345   -1.1142 H   0  0  0  0  0  0  0  0  0  0  0  0
    2.4295    0.6943    1.4485 H   0  0  0  0  0  0  0  0  0  0  0  0
    0.7293   -2.0551    0.3039 H   0  0  0  0  0  0  0  0  0  0  0  0
    1.4721   -1.2038    1.7597 H   0  0  0  0  0  0  0  0  0  0  0  0
    3.3885   -1.1416    0.2089 H   0  0  0  0  0  0  0  0  0  0  0  0
  1  2  1  0
  2  3  1  0
  3  4  2  0
  3  5  1  0
  5  6  1  0
  5  7  1  1
  5  8  1  0
  8  9  1  0
  8 10  1  0
 10 11  1  0
  1 12  1  0
  1 13  1  0
  1 14  1  0
  6 15  1  0
  6 16  1  0
  6 17  1  0
  7 18  1  0
  8 19  1  6
  9 20  1  0
 10 21  1  0
 10 22  1  0
 11 23  1  0
M  END
$$$$

     RDKit          3D

 23 22  0  0  0  0  0  0  0  0999 V2000
    3.1160    0.6491    1.0063 C   0  0  0  0  0  0  0  0  0  0  0  0
    1.9239   -0.1068    0.8881 O   0  0  0  0  0  0  0  0  0  0  0  0
    1.0585    0.0723   -0.1808 C   0  0  0  0  0  0  0  0  0  0  0  0
    1.3593    0.9307   -1.0530 O   0  0  0  0  0  0  0  0  0  0  0  0
   -0.1967   -0.7018   -0.3347 C   0  0  1  0  0  0  0  0  0  0  0  0
   -0.1963   -1.5229   -1.6055 C   0  0  0  0  0  0  0  0  0  0  0  0
   -0.2814   -1.5674    0.7528 O   0  0  0  0  0  0  0  0  0  0  0  0
   -1.3758    0.2689   -0.3365 C   0  0  1  0  0  0  0  0  0  0  0  0
   -2.5805   -0.3823   -0.4169 O   0  0  0  0  0  0  0  0  0  0  0  0
   -1.2878    1.1239    0.9085 C   0  0  0  0  0  0  0  0  0  0  0  0
   -2.2853    2.0820    0.9175 O   0  0  0  0  0  0  0  0  0  0  0  0
    2.9989    1.2795    1.9090 H   0  0  0  0  0  0  0  0  0  0  0  0
    3.9951   -0.0343    1.0847 H   0  0  0  0  0  0  0  0  0  0  0  0
    3.2318    1.2714    0.0932 H   0  0  0  0  0  0  0  0  0  0  0  0
   -0.6023   -0.9522   -2.4676 H   0  0  0  0  0  0  0  0  0  0  0  0
    0.8576   -1.8136   -1.8155 H   0  0  0  0  0  0  0  0  0  0  0  0
   -0.8357   -2.4211   -1.4904 H   0  0  0  0  0  0  0  0  0  0  0  0
    0.2050   -2.4033    0.6155 H   0  0  0  0  0  0  0  0  0  0  0  0
   -1.2751    0.9137   -1.2336 H   0  0  0  0  0  0  0  0  0  0  0  0
   -2.9935   -0.3508   -1.3293 H   0  0  0  0  0  0  0  0  0  0  0  0
   -0.2949    1.5684    1.0146 H   0  0  0  0  0  0  0  0  0  0  0  0
   -1.4220    0.4210    1.7797 H   0  0  0  0  0  0  0  0  0  0  0  0
   -3.1188    1.6756    1.2939 H   0  0  0  0  0  0  0  0  0  0  0  0
  1  2  1  0
  2  3  1  0
  3  4  2  0
  3  5  1  0
  5  6  1  0
  5  7  1  1
  5  8  1  0
  8  9  1  0
  8 10  1  0
 10 11  1  0
  1 12  1  0
  1 13  1  0
  1 14  1  0
  6 15  1  0
  6 16  1  0
  6 17  1  0
  7 18  1  0
  8 19  1  6
  9 20  1  0
 10 21  1  0
 10 22  1  0
 11 23  1  0
M  END
$$$$

     RDKit          3D

 23 22  0  0  0  0  0  0  0  0999 V2000
    3.4200   -0.1678   -0.2640 C   0  0  0  0  0  0  0  0  0  0  0  0
    2.2155    0.5712   -0.3532 O   0  0  0  0  0  0  0  0  0  0  0  0
    1.0329    0.0935    0.2047 C   0  0  0  0  0  0  0  0  0  0  0  0
    1.0712   -1.0092    0.7864 O   0  0  0  0  0  0  0  0  0  0  0  0
   -0.2462    0.8078    0.1478 C   0  0  1  0  0  0  0  0  0  0  0  0
   -0.8585    1.0901    1.4781 C   0  0  0  0  0  0  0  0  0  0  0  0
    0.0237    2.0644   -0.4525 O   0  0  0  0  0  0  0  0  0  0  0  0
   -1.2398    0.1248   -0.7286 C   0  0  1  0  0  0  0  0  0  0  0  0
   -0.6891   -0.0657   -1.9967 O   0  0  0  0  0  0  0  0  0  0  0  0
   -1.8713   -1.0988   -0.1830 C   0  0  0  0  0  0  0  0  0  0  0  0
   -1.0184   -2.1615   -0.0806 O   0  0  0  0  0  0  0  0  0  0  0  0
    4.0487    0.2024    0.5510 H   0  0  0  0  0  0  0  0  0  0  0  0
    3.1744   -1.2515   -0.1707 H   0  0  0  0  0  0  0  0  0  0  0  0
    3.9564   -0.0318   -1.2291 H   0  0  0  0  0  0  0  0  0  0  0  0
   -0.7611    0.2560    2.2033 H   0  0  0  0  0  0  0  0  0  0  0  0
   -1.9504    1.2317    1.3208 H   0  0  0  0  0  0  0  0  0  0  0  0
   -0.4976    2.0567    1.9273 H   0  0  0  0  0  0  0  0  0  0  0  0
   -0.8220    2.3689   -0.8528 H   0  0  0  0  0  0  0  0  0  0  0  0
   -2.0981    0.8726   -0.8513 H   0  0  0  0  0  0  0  0  0  0  0  0
   -0.5839   -1.0363   -2.2038 H   0  0  0  0  0  0  0  0  0  0  0  0
   -2.2562   -0.8763    0.8382 H   0  0  0  0  0  0  0  0  0  0  0  0
   -2.7834   -1.3201   -0.7827 H   0  0  0  0  0  0  0  0  0  0  0  0
   -1.2669   -2.7209    0.6916 H   0  0  0  0  0  0  0  0  0  0  0  0
  1  2  1  0
  2  3  1  0
  3  4  2  0
  3  5  1  0
  5  6  1  0
  5  7  1  6
  5  8  1  0
  8  9  1  0
  8 10  1  0
 10 11  1  0
  1 12  1  0
  1 13  1  0
  1 14  1  0
  6 15  1  0
  6 16  1  0
  6 17  1  0
  7 18  1  0
  8 19  1  6
  9 20  1  0
 10 21  1  0
 10 22  1  0
 11 23  1  0
M  END
$$$$

     RDKit          3D

 23 22  0  0  0  0  0  0  0  0999 V2000
    3.0272    0.8680   -1.1357 C   0  0  0  0  0  0  0  0  0  0  0  0
    1.7784    0.1941   -1.0261 O   0  0  0  0  0  0  0  0  0  0  0  0
    1.1718    0.0158    0.2229 C   0  0  0  0  0  0  0  0  0  0  0  0
    1.8043    0.4864    1.2043 O   0  0  0  0  0  0  0  0  0  0  0  0
   -0.1105   -0.6683    0.3993 C   0  0  1  0  0  0  0  0  0  0  0  0
   -0.0614   -2.1230   -0.0415 C   0  0  0  0  0  0  0  0  0  0  0  0
   -0.4357   -0.6780    1.7541 O   0  0  0  0  0  0  0  0  0  0  0  0
   -1.2488   -0.0208   -0.3337 C   0  0  1  0  0  0  0  0  0  0  0  0
   -2.4039   -0.7673   -0.1047 O   0  0  0  0  0  0  0  0  0  0  0  0
   -1.4681    1.4167    0.0426 C   0  0  0  0  0  0  0  0  0  0  0  0
   -2.5060    1.9140   -0.7340 O   0  0  0  0  0  0  0  0  0  0  0  0
    3.5270    0.6361   -2.0747 H   0  0  0  0  0  0  0  0  0  0  0  0
    2.7845    1.9674   -1.0681 H   0  0  0  0  0  0  0  0  0  0  0  0
    3.6774    0.6465   -0.2493 H   0  0  0  0  0  0  0  0  0  0  0  0
    0.9442   -2.5483    0.0219 H   0  0  0  0  0  0  0  0  0  0  0  0
   -0.7194   -2.7433    0.6099 H   0  0  0  0  0  0  0  0  0  0  0  0
   -0.4825   -2.2215   -1.0745 H   0  0  0  0  0  0  0  0  0  0  0  0
   -0.2174   -1.5229    2.1927 H   0  0  0  0  0  0  0  0  0  0  0  0
   -1.0443   -0.0718   -1.4227 H   0  0  0  0  0  0  0  0  0  0  0  0
   -2.6436   -0.8011    0.8490 H   0  0  0  0  0  0  0  0  0  0  0  0
   -0.5652    2.0079   -0.2147 H   0  0  0  0  0  0  0  0  0  0  0  0
   -1.6795    1.5792    1.0957 H   0  0  0  0  0  0  0  0  0  0  0  0
   -3.1284    2.4343   -0.1912 H   0  0  0  0  0  0  0  0  0  0  0  0
  1  2  1  0
  2  3  1  0
  3  4  2  0
  3  5  1  0
  5  6  1  0
  5  7  1  1
  5  8  1  0
  8  9  1  0
  8 10  1  0
 10 11  1  0
  1 12  1  0
  1 13  1  0
  1 14  1  0
  6 15  1  0
  6 16  1  0
  6 17  1  0
  7 18  1  0
  8 19  1  6
  9 20  1  0
 10 21  1  0
 10 22  1  0
 11 23  1  0
M  END
$$$$

     RDKit          3D

 23 22  0  0  0  0  0  0  0  0999 V2000
    3.1396    1.3242   -0.3877 C   0  0  0  0  0  0  0  0  0  0  0  0
    1.9393    1.0079    0.2941 O   0  0  0  0  0  0  0  0  0  0  0  0
    1.1631   -0.0469   -0.1026 C   0  0  0  0  0  0  0  0  0  0  0  0
    1.5434   -0.7327   -1.0932 O   0  0  0  0  0  0  0  0  0  0  0  0
   -0.1142   -0.4427    0.5646 C   0  0  1  0  0  0  0  0  0  0  0  0
    0.0173   -1.8741    1.0741 C   0  0  0  0  0  0  0  0  0  0  0  0
   -0.4102    0.3827    1.6231 O   0  0  0  0  0  0  0  0  0  0  0  0
   -1.2745   -0.4189   -0.3933 C   0  0  1  0  0  0  0  0  0  0  0  0
   -2.3937   -0.8758    0.3023 O   0  0  0  0  0  0  0  0  0  0  0  0
   -1.5479    0.9480   -0.9514 C   0  0  0  0  0  0  0  0  0  0  0  0
   -2.6279    0.8731   -1.8078 O   0  0  0  0  0  0  0  0  0  0  0  0
    3.2233    0.7232   -1.3069 H   0  0  0  0  0  0  0  0  0  0  0  0
    3.2754    2.4057   -0.5354 H   0  0  0  0  0  0  0  0  0  0  0  0
    3.9726    0.9722    0.2829 H   0  0  0  0  0  0  0  0  0  0  0  0
    0.9421   -2.3218    0.6517 H   0  0  0  0  0  0  0  0  0  0  0  0
    0.1276   -1.8840    2.1822 H   0  0  0  0  0  0  0  0  0  0  0  0
   -0.8270   -2.5118    0.7360 H   0  0  0  0  0  0  0  0  0  0  0  0
   -0.1710   -0.0364    2.5003 H   0  0  0  0  0  0  0  0  0  0  0  0
   -1.1302   -1.1088   -1.2462 H   0  0  0  0  0  0  0  0  0  0  0  0
   -2.9282   -0.1374    0.6890 H   0  0  0  0  0  0  0  0  0  0  0  0
   -1.7599    1.6625   -0.1464 H   0  0  0  0  0  0  0  0  0  0  0  0
   -0.6655    1.2380   -1.5646 H   0  0  0  0  0  0  0  0  0  0  0  0
   -3.4933    0.8537   -1.3651 H   0  0  0  0  0  0  0  0  0  0  0  0
  1  2  1  0
  2  3  1  0
  3  4  2  0
  3  5  1  0
  5  6  1  0
  5  7  1  1
  5  8  1  0
  8  9  1  0
  8 10  1  0
 10 11  1  0
  1 12  1  0
  1 13  1  0
  1 14  1  0
  6 15  1  0
  6 16  1  0
  6 17  1  0
  7 18  1  0
  8 19  1  6
  9 20  1  0
 10 21  1  0
 10 22  1  0
 11 23  1  0
M  END
$$$$
