
     RDKit          3D

 26 27  0  0  0  0  0  0  0  0999 V2000
   -1.8350    0.2808   -2.2713 N   0  0  0  0  0  0  0  0  0  0  0  0
   -2.1364    0.4225   -0.8649 C   0  0  1  0  0  0  0  0  0  0  0  0
   -3.5282   -0.0347   -0.5360 C   0  0  0  0  0  0  0  0  0  0  0  0
   -3.5017   -0.7256    0.6385 O   0  0  0  0  0  0  0  0  0  0  0  0
   -2.2390   -0.7156    1.1606 C   0  0  0  0  0  0  0  0  0  0  0  0
   -1.3091   -0.5487   -0.0261 C   0  0  2  0  0  0  0  0  0  0  0  0
   -0.0317   -0.0043    0.3370 N   0  0  0  0  0  0  0  0  0  0  0  0
    1.2059   -0.6452    0.0569 C   0  0  0  0  0  0  0  0  0  0  0  0
    1.1534   -1.7492   -0.5429 O   0  0  0  0  0  0  0  0  0  0  0  0
    2.4899   -0.0481    0.4489 C   0  0  0  0  0  0  0  0  0  0  0  0
    3.7312   -0.5982    0.2183 C   0  0  0  0  0  0  0  0  0  0  0  0
    4.6491    0.2989    0.7528 C   0  0  0  0  0  0  0  0  0  0  0  0
    3.9892    1.3419    1.2812 N   0  0  0  0  0  0  0  0  0  0  0  0
    2.7074    1.1105    1.0871 N   0  0  0  0  0  0  0  0  0  0  0  0
   -1.3406    1.1083   -2.6563 H   0  0  0  0  0  0  0  0  0  0  0  0
   -2.6834    0.0141   -2.8232 H   0  0  0  0  0  0  0  0  0  0  0  0
   -1.9451    1.4581   -0.4917 H   0  0  0  0  0  0  0  0  0  0  0  0
   -4.2375    0.8290   -0.4643 H   0  0  0  0  0  0  0  0  0  0  0  0
   -3.8402   -0.7218   -1.3765 H   0  0  0  0  0  0  0  0  0  0  0  0
   -2.0916    0.0854    1.9112 H   0  0  0  0  0  0  0  0  0  0  0  0
   -1.9874   -1.6912    1.6301 H   0  0  0  0  0  0  0  0  0  0  0  0
   -1.2537   -1.5084   -0.5419 H   0  0  0  0  0  0  0  0  0  0  0  0
   -0.0021    0.9080    0.8320 H   0  0  0  0  0  0  0  0  0  0  0  0
    3.9257   -1.5361   -0.2784 H   0  0  0  0  0  0  0  0  0  0  0  0
    5.7161    0.1949    0.7540 H   0  0  0  0  0  0  0  0  0  0  0  0
    4.3946    2.1956    1.7647 H   0  0  0  0  0  0  0  0  0  0  0  0
  1  2  1  0
  2  3  1  0
  3  4  1  0
  4  5  1  0
  5  6  1  0
  6  7  1  0
  7  8  1  0
  8  9  2  0
  8 10  1  0
 10 11  1  0
 11 12  2  0
 12 13  1  0
 13 14  1  0
  6  2  1  0
 14 10  2  0
  1 15  1  0
  1 16  1  0
  2 17  1  1
  3 18  1  0
  3 19  1  0
  5 20  1  0
  5 21  1  0
  6 22  1  6
  7 23  1  0
 11 24  1  0
 12 25  1  0
 13 26  1  0
M  END
$$$$

     RDKit          3D

 26 27  0  0  0  0  0  0  0  0999 V2000
   -3.3874    0.2794    1.0071 N   0  0  0  0  0  0  0  0  0  0  0  0
   -2.2210   -0.4201    0.5042 C   0  0  1  0  0  0  0  0  0  0  0  0
   -2.6237   -1.0998   -0.7829 C   0  0  0  0  0  0  0  0  0  0  0  0
   -2.4857   -0.1997   -1.8036 O   0  0  0  0  0  0  0  0  0  0  0  0
   -1.8526    0.9247   -1.3439 C   0  0  0  0  0  0  0  0  0  0  0  0
   -1.2602    0.6321   -0.0118 C   0  0  2  0  0  0  0  0  0  0  0  0
    0.1002    0.1745   -0.0478 N   0  0  0  0  0  0  0  0  0  0  0  0
    1.1648    0.7785    0.6631 C   0  0  0  0  0  0  0  0  0  0  0  0
    0.9220    1.7681    1.3669 O   0  0  0  0  0  0  0  0  0  0  0  0
    2.5210    0.2434    0.5665 C   0  0  0  0  0  0  0  0  0  0  0  0
    2.9566   -0.8354   -0.1612 C   0  0  0  0  0  0  0  0  0  0  0  0
    4.3100   -0.9568    0.0594 C   0  0  0  0  0  0  0  0  0  0  0  0
    4.6810    0.0265    0.9008 N   0  0  0  0  0  0  0  0  0  0  0  0
    3.6039    0.7368    1.1967 N   0  0  0  0  0  0  0  0  0  0  0  0
   -3.1676    1.0605    1.6382 H   0  0  0  0  0  0  0  0  0  0  0  0
   -4.0071    0.6058    0.2553 H   0  0  0  0  0  0  0  0  0  0  0  0
   -1.7784   -1.0993    1.2343 H   0  0  0  0  0  0  0  0  0  0  0  0
   -1.9282   -1.9797   -0.9010 H   0  0  0  0  0  0  0  0  0  0  0  0
   -3.6373   -1.5387   -0.7053 H   0  0  0  0  0  0  0  0  0  0  0  0
   -1.1453    1.3762   -2.0651 H   0  0  0  0  0  0  0  0  0  0  0  0
   -2.6503    1.7070   -1.1868 H   0  0  0  0  0  0  0  0  0  0  0  0
   -1.3505    1.5146    0.6452 H   0  0  0  0  0  0  0  0  0  0  0  0
    0.3082   -0.6579   -0.6389 H   0  0  0  0  0  0  0  0  0  0  0  0
    2.3168   -1.4560   -0.7864 H   0  0  0  0  0  0  0  0  0  0  0  0
    4.9440   -1.7310   -0.3883 H   0  0  0  0  0  0  0  0  0  0  0  0
    5.6670    0.1463    1.2216 H   0  0  0  0  0  0  0  0  0  0  0  0
  1  2  1  0
  2  3  1  0
  3  4  1  0
  4  5  1  0
  5  6  1  0
  6  7  1  0
  7  8  1  0
  8  9  2  0
  8 10  1  0
 10 11  1  0
 11 12  2  0
 12 13  1  0
 13 14  1  0
  6  2  1  0
 14 10  2  0
  1 15  1  0
  1 16  1  0
  2 17  1  1
  3 18  1  0
  3 19  1  0
  5 20  1  0
  5 21  1  0
  6 22  1  1
  7 23  1  0
 11 24  1  0
 12 25  1  0
 13 26  1  0
M  END
$$$$

     RDKit          3D

 26 27  0  0  0  0  0  0  0  0999 V2000
   -3.0440   -1.2168   -0.8345 N   0  0  0  0  0  0  0  0  0  0  0  0
   -2.1831   -0.0371   -0.7760 C   0  0  1  0  0  0  0  0  0  0  0  0
   -3.0598    1.1666   -0.5466 C   0  0  0  0  0  0  0  0  0  0  0  0
   -2.4638    1.8933    0.4667 O   0  0  0  0  0  0  0  0  0  0  0  0
   -1.8421    0.9829    1.3101 C   0  0  0  0  0  0  0  0  0  0  0  0
   -1.2558   -0.0984    0.4254 C   0  0  2  0  0  0  0  0  0  0  0  0
    0.1032    0.1964    0.0617 N   0  0  0  0  0  0  0  0  0  0  0  0
    1.1504   -0.7098    0.3696 C   0  0  0  0  0  0  0  0  0  0  0  0
    0.8654   -1.7822    0.9701 O   0  0  0  0  0  0  0  0  0  0  0  0
    2.5264   -0.4344    0.0133 C   0  0  0  0  0  0  0  0  0  0  0  0
    3.6163   -1.2277    0.2558 C   0  0  0  0  0  0  0  0  0  0  0  0
    4.7183   -0.5611   -0.2608 C   0  0  0  0  0  0  0  0  0  0  0  0
    4.2972    0.5806   -0.7877 N   0  0  0  0  0  0  0  0  0  0  0  0
    2.9803    0.6496   -0.6194 N   0  0  0  0  0  0  0  0  0  0  0  0
   -3.9229   -0.9221   -1.3086 H   0  0  0  0  0  0  0  0  0  0  0  0
   -3.2638   -1.5035    0.1314 H   0  0  0  0  0  0  0  0  0  0  0  0
   -1.6240    0.0266   -1.7272 H   0  0  0  0  0  0  0  0  0  0  0  0
   -3.0735    1.8182   -1.4483 H   0  0  0  0  0  0  0  0  0  0  0  0
   -4.1025    0.8568   -0.2800 H   0  0  0  0  0  0  0  0  0  0  0  0
   -1.0515    1.5354    1.8578 H   0  0  0  0  0  0  0  0  0  0  0  0
   -2.5990    0.5811    2.0136 H   0  0  0  0  0  0  0  0  0  0  0  0
   -1.3262   -1.0693    0.9399 H   0  0  0  0  0  0  0  0  0  0  0  0
    0.3440    1.0765   -0.4322 H   0  0  0  0  0  0  0  0  0  0  0  0
    3.5819   -2.1764    0.7533 H   0  0  0  0  0  0  0  0  0  0  0  0
    5.7432   -0.9307   -0.2280 H   0  0  0  0  0  0  0  0  0  0  0  0
    4.8853    1.3056   -1.2550 H   0  0  0  0  0  0  0  0  0  0  0  0
  1  2  1  0
  2  3  1  0
  3  4  1  0
  4  5  1  0
  5  6  1  0
  6  7  1  0
  7  8  1  0
  8  9  2  0
  8 10  1  0
 10 11  1  0
 11 12  2  0
 12 13  1  0
 13 14  1  0
  6  2  1  0
 14 10  2  0
  1 15  1  0
  1 16  1  0
  2 17  1  6
  3 18  1  0
  3 19  1  0
  5 20  1  0
  5 21  1  0
  6 22  1  1
  7 23  1  0
 11 24  1  0
 12 25  1  0
 13 26  1  0
M  END
$$$$

     RDKit          3D

 26 27  0  0  0  0  0  0  0  0999 V2000
   -2.6850   -1.6161    0.6773 N   0  0  0  0  0  0  0  0  0  0  0  0
   -2.2374   -0.6036   -0.2392 C   0  0  1  0  0  0  0  0  0  0  0  0
   -3.3352    0.3121   -0.7082 C   0  0  0  0  0  0  0  0  0  0  0  0
   -3.2285    1.4287    0.1062 O   0  0  0  0  0  0  0  0  0  0  0  0
   -1.8419    1.6933    0.0281 C   0  0  0  0  0  0  0  0  0  0  0  0
   -1.2808    0.3488    0.4435 C   0  0  2  0  0  0  0  0  0  0  0  0
    0.0716    0.2160   -0.0082 N   0  0  0  0  0  0  0  0  0  0  0  0
    1.1186    0.0081    0.9305 C   0  0  0  0  0  0  0  0  0  0  0  0
    0.8468   -0.0581    2.1586 O   0  0  0  0  0  0  0  0  0  0  0  0
    2.4888   -0.1250    0.4556 C   0  0  0  0  0  0  0  0  0  0  0  0
    2.9141   -0.0717   -0.8503 C   0  0  0  0  0  0  0  0  0  0  0  0
    4.2869   -0.2456   -0.8292 C   0  0  0  0  0  0  0  0  0  0  0  0
    4.6308   -0.3942    0.4623 N   0  0  0  0  0  0  0  0  0  0  0  0
    3.5589   -0.3229    1.2359 N   0  0  0  0  0  0  0  0  0  0  0  0
   -2.7311   -2.5365    0.1634 H   0  0  0  0  0  0  0  0  0  0  0  0
   -2.0916   -1.7044    1.5223 H   0  0  0  0  0  0  0  0  0  0  0  0
   -1.7206   -1.0761   -1.1038 H   0  0  0  0  0  0  0  0  0  0  0  0
   -4.3360   -0.1473   -0.6645 H   0  0  0  0  0  0  0  0  0  0  0  0
   -3.0982    0.6193   -1.7496 H   0  0  0  0  0  0  0  0  0  0  0  0
   -1.5784    1.9625   -0.9989 H   0  0  0  0  0  0  0  0  0  0  0  0
   -1.5742    2.5014    0.7084 H   0  0  0  0  0  0  0  0  0  0  0  0
   -1.3307    0.2649    1.5473 H   0  0  0  0  0  0  0  0  0  0  0  0
    0.3117    0.2684   -1.0179 H   0  0  0  0  0  0  0  0  0  0  0  0
    2.2975    0.0771   -1.7260 H   0  0  0  0  0  0  0  0  0  0  0  0
    4.9277   -0.2543   -1.7065 H   0  0  0  0  0  0  0  0  0  0  0  0
    5.6166   -0.5449    0.7937 H   0  0  0  0  0  0  0  0  0  0  0  0
  1  2  1  0
  2  3  1  0
  3  4  1  0
  4  5  1  0
  5  6  1  0
  6  7  1  0
  7  8  1  0
  8  9  2  0
  8 10  1  0
 10 11  1  0
 11 12  2  0
 12 13  1  0
 13 14  1  0
  6  2  1  0
 14 10  2  0
  1 15  1  0
  1 16  1  0
  2 17  1  6
  3 18  1  0
  3 19  1  0
  5 20  1  0
  5 21  1  0
  6 22  1  1
  7 23  1  0
 11 24  1  0
 12 25  1  0
 13 26  1  0
M  END
$$$$

     RDKit          3D

 26 27  0  0  0  0  0  0  0  0999 V2000
   -2.9306    0.8465    1.0447 N   0  0  0  0  0  0  0  0  0  0  0  0
   -2.2768   -0.2923    0.4132 C   0  0  1  0  0  0  0  0  0  0  0  0
   -3.3190   -0.9303   -0.4939 C   0  0  0  0  0  0  0  0  0  0  0  0
   -3.1309   -0.2733   -1.7006 O   0  0  0  0  0  0  0  0  0  0  0  0
   -1.7359   -0.3039   -1.8698 C   0  0  0  0  0  0  0  0  0  0  0  0
   -1.2399    0.1982   -0.5365 C   0  0  2  0  0  0  0  0  0  0  0  0
    0.0948   -0.1956   -0.2369 N   0  0  0  0  0  0  0  0  0  0  0  0
    1.1811    0.7214   -0.0598 C   0  0  0  0  0  0  0  0  0  0  0  0
    0.9121    1.9322   -0.1811 O   0  0  0  0  0  0  0  0  0  0  0  0
    2.5316    0.2611    0.2467 C   0  0  0  0  0  0  0  0  0  0  0  0
    3.6145    1.0941    0.4276 C   0  0  0  0  0  0  0  0  0  0  0  0
    4.7198    0.2907    0.7014 C   0  0  0  0  0  0  0  0  0  0  0  0
    4.2802   -0.9923    0.6788 N   0  0  0  0  0  0  0  0  0  0  0  0
    2.9709   -0.9780    0.4050 N   0  0  0  0  0  0  0  0  0  0  0  0
   -3.9091    0.6338    1.3245 H   0  0  0  0  0  0  0  0  0  0  0  0
   -2.8543    1.6689    0.3979 H   0  0  0  0  0  0  0  0  0  0  0  0
   -1.9007   -1.0002    1.1791 H   0  0  0  0  0  0  0  0  0  0  0  0
   -3.1694   -2.0123   -0.6077 H   0  0  0  0  0  0  0  0  0  0  0  0
   -4.3395   -0.7685   -0.0958 H   0  0  0  0  0  0  0  0  0  0  0  0
   -1.4612    0.3822   -2.6893 H   0  0  0  0  0  0  0  0  0  0  0  0
   -1.4017   -1.3376   -2.0526 H   0  0  0  0  0  0  0  0  0  0  0  0
   -1.2568    1.3216   -0.6004 H   0  0  0  0  0  0  0  0  0  0  0  0
    0.3607   -1.2152   -0.1265 H   0  0  0  0  0  0  0  0  0  0  0  0
    3.6285    2.1860    0.3717 H   0  0  0  0  0  0  0  0  0  0  0  0
    5.7415    0.5846    0.8986 H   0  0  0  0  0  0  0  0  0  0  0  0
    4.8901   -1.8219    0.8507 H   0  0  0  0  0  0  0  0  0  0  0  0
  1  2  1  0
  2  3  1  0
  3  4  1  0
  4  5  1  0
  5  6  1  0
  6  7  1  0
  7  8  1  0
  8  9  2  0
  8 10  1  0
 10 11  1  0
 11 12  2  0
 12 13  1  0
 13 14  1  0
  6  2  1  0
 14 10  2  0
  1 15  1  0
  1 16  1  0
  2 17  1  1
  3 18  1  0
  3 19  1  0
  5 20  1  0
  5 21  1  0
  6 22  1  6
  7 23  1  0
 11 24  1  0
 12 25  1  0
 13 26  1  0
M  END
$$$$

     RDKit          3D

 26 27  0  0  0  0  0  0  0  0999 V2000
   -2.4145    0.9903   -1.3994 N   0  0  0  0  0  0  0  0  0  0  0  0
   -2.2422    0.5743   -0.0398 C   0  0  1  0  0  0  0  0  0  0  0  0
   -3.5017   -0.1226    0.4614 C   0  0  0  0  0  0  0  0  0  0  0  0
   -3.1939   -1.4879    0.4933 O   0  0  0  0  0  0  0  0  0  0  0  0
   -1.9125   -1.4326    1.0998 C   0  0  0  0  0  0  0  0  0  0  0  0
   -1.2119   -0.5481    0.0966 C   0  0  2  0  0  0  0  0  0  0  0  0
    0.0631   -0.0926    0.5050 N   0  0  0  0  0  0  0  0  0  0  0  0
    1.2311   -0.3747   -0.2411 C   0  0  0  0  0  0  0  0  0  0  0  0
    1.0703   -1.0589   -1.2967 O   0  0  0  0  0  0  0  0  0  0  0  0
    2.5568    0.0668    0.1320 C   0  0  0  0  0  0  0  0  0  0  0  0
    3.7231   -0.1794   -0.5564 C   0  0  0  0  0  0  0  0  0  0  0  0
    4.7629    0.4254    0.1505 C   0  0  0  0  0  0  0  0  0  0  0  0
    4.2112    1.0010    1.2116 N   0  0  0  0  0  0  0  0  0  0  0  0
    2.9057    0.7883    1.1999 N   0  0  0  0  0  0  0  0  0  0  0  0
   -3.2475    0.5199   -1.8147 H   0  0  0  0  0  0  0  0  0  0  0  0
   -2.4761    2.0289   -1.4843 H   0  0  0  0  0  0  0  0  0  0  0  0
   -1.9529    1.4252    0.6120 H   0  0  0  0  0  0  0  0  0  0  0  0
   -3.6736    0.2118    1.5202 H   0  0  0  0  0  0  0  0  0  0  0  0
   -4.3694    0.0845   -0.1833 H   0  0  0  0  0  0  0  0  0  0  0  0
   -2.0940   -0.9069    2.0629 H   0  0  0  0  0  0  0  0  0  0  0  0
   -1.4674   -2.4175    1.2169 H   0  0  0  0  0  0  0  0  0  0  0  0
   -1.1646   -1.1355   -0.8567 H   0  0  0  0  0  0  0  0  0  0  0  0
    0.1423    0.4661    1.3800 H   0  0  0  0  0  0  0  0  0  0  0  0
    3.7586   -0.7438   -1.4695 H   0  0  0  0  0  0  0  0  0  0  0  0
    5.7871    0.3821   -0.1770 H   0  0  0  0  0  0  0  0  0  0  0  0
    4.7099    1.5358    1.9427 H   0  0  0  0  0  0  0  0  0  0  0  0
  1  2  1  0
  2  3  1  0
  3  4  1  0
  4  5  1  0
  5  6  1  0
  6  7  1  0
  7  8  1  0
  8  9  2  0
  8 10  1  0
 10 11  1  0
 11 12  2  0
 12 13  1  0
 13 14  1  0
  6  2  1  0
 14 10  2  0
  1 15  1  0
  1 16  1  0
  2 17  1  1
  3 18  1  0
  3 19  1  0
  5 20  1  0
  5 21  1  0
  6 22  1  6
  7 23  1  0
 11 24  1  0
 12 25  1  0
 13 26  1  0
M  END
$$$$

     RDKit          3D

 26 27  0  0  0  0  0  0  0  0999 V2000
   -2.4234   -1.5087    0.6303 N   0  0  0  0  0  0  0  0  0  0  0  0
   -2.1959   -0.4874   -0.3527 C   0  0  1  0  0  0  0  0  0  0  0  0
   -3.4426    0.3623   -0.4857 C   0  0  0  0  0  0  0  0  0  0  0  0
   -3.0618    1.6406   -0.7603 O   0  0  0  0  0  0  0  0  0  0  0  0
   -1.6987    1.7471   -0.7106 C   0  0  0  0  0  0  0  0  0  0  0  0
   -1.2072    0.5632    0.1137 C   0  0  2  0  0  0  0  0  0  0  0  0
    0.1519    0.2274   -0.1642 N   0  0  0  0  0  0  0  0  0  0  0  0
    1.1116    0.2030    0.8735 C   0  0  0  0  0  0  0  0  0  0  0  0
    0.7057    0.4895    2.0369 O   0  0  0  0  0  0  0  0  0  0  0  0
    2.5179   -0.1352    0.6402 C   0  0  0  0  0  0  0  0  0  0  0  0
    3.1251   -0.4688   -0.5492 C   0  0  0  0  0  0  0  0  0  0  0  0
    4.4584   -0.7101   -0.3108 C   0  0  0  0  0  0  0  0  0  0  0  0
    4.6484   -0.5228    1.0096 N   0  0  0  0  0  0  0  0  0  0  0  0
    3.4794   -0.1801    1.5609 N   0  0  0  0  0  0  0  0  0  0  0  0
   -2.8293   -2.3430    0.1461 H   0  0  0  0  0  0  0  0  0  0  0  0
   -3.0983   -1.2317    1.3684 H   0  0  0  0  0  0  0  0  0  0  0  0
   -1.9564   -0.8700   -1.3485 H   0  0  0  0  0  0  0  0  0  0  0  0
   -3.9172    0.3654    0.5379 H   0  0  0  0  0  0  0  0  0  0  0  0
   -4.1927   -0.0689   -1.1623 H   0  0  0  0  0  0  0  0  0  0  0  0
   -1.3458    2.7068   -0.2986 H   0  0  0  0  0  0  0  0  0  0  0  0
   -1.3117    1.6033   -1.7499 H   0  0  0  0  0  0  0  0  0  0  0  0
   -1.4207    0.7879    1.1566 H   0  0  0  0  0  0  0  0  0  0  0  0
    0.4416   -0.0021   -1.1396 H   0  0  0  0  0  0  0  0  0  0  0  0
    2.6629   -0.5385   -1.5220 H   0  0  0  0  0  0  0  0  0  0  0  0
    5.2256   -0.9937   -1.0128 H   0  0  0  0  0  0  0  0  0  0  0  0
    5.5729   -0.6353    1.4932 H   0  0  0  0  0  0  0  0  0  0  0  0
  1  2  1  0
  2  3  1  0
  3  4  1  0
  4  5  1  0
  5  6  1  0
  6  7  1  0
  7  8  1  0
  8  9  2  0
  8 10  1  0
 10 11  1  0
 11 12  2  0
 12 13  1  0
 13 14  1  0
  6  2  1  0
 14 10  2  0
  1 15  1  0
  1 16  1  0
  2 17  1  6
  3 18  1  0
  3 19  1  0
  5 20  1  0
  5 21  1  0
  6 22  1  1
  7 23  1  0
 11 24  1  0
 12 25  1  0
 13 26  1  0
M  END
$$$$

     RDKit          3D

 26 27  0  0  0  0  0  0  0  0999 V2000
   -3.6055    0.0759    0.6284 N   0  0  0  0  0  0  0  0  0  0  0  0
   -2.2958   -0.5060    0.4329 C   0  0  1  0  0  0  0  0  0  0  0  0
   -2.3543   -1.3231   -0.8391 C   0  0  0  0  0  0  0  0  0  0  0  0
   -2.4501   -0.3926   -1.8355 O   0  0  0  0  0  0  0  0  0  0  0  0
   -1.8684    0.7773   -1.4374 C   0  0  0  0  0  0  0  0  0  0  0  0
   -1.3535    0.5896   -0.0250 C   0  0  2  0  0  0  0  0  0  0  0  0
    0.0232    0.0769   -0.0659 N   0  0  0  0  0  0  0  0  0  0  0  0
    1.0504    0.7620    0.6403 C   0  0  0  0  0  0  0  0  0  0  0  0
    0.7564    1.8008    1.2902 O   0  0  0  0  0  0  0  0  0  0  0  0
    2.4364    0.2811    0.6235 C   0  0  0  0  0  0  0  0  0  0  0  0
    3.4999    0.8686    1.2706 C   0  0  0  0  0  0  0  0  0  0  0  0
    4.6481    0.1230    1.0171 C   0  0  0  0  0  0  0  0  0  0  0  0
    4.2441   -0.8874    0.2282 N   0  0  0  0  0  0  0  0  0  0  0  0
    2.9279   -0.7945   -0.0068 N   0  0  0  0  0  0  0  0  0  0  0  0
   -4.2510   -0.6954    0.9764 H   0  0  0  0  0  0  0  0  0  0  0  0
   -4.0027    0.3532   -0.2977 H   0  0  0  0  0  0  0  0  0  0  0  0
   -1.9273   -1.0622    1.2918 H   0  0  0  0  0  0  0  0  0  0  0  0
   -3.2364   -1.9979   -0.8240 H   0  0  0  0  0  0  0  0  0  0  0  0
   -1.4090   -1.9194   -0.8778 H   0  0  0  0  0  0  0  0  0  0  0  0
   -2.6227    1.6098   -1.3744 H   0  0  0  0  0  0  0  0  0  0  0  0
   -1.0838    1.1513   -2.1234 H   0  0  0  0  0  0  0  0  0  0  0  0
   -1.4263    1.4937    0.5814 H   0  0  0  0  0  0  0  0  0  0  0  0
    0.2614   -0.7827   -0.6050 H   0  0  0  0  0  0  0  0  0  0  0  0
    3.5193    1.7573    1.8881 H   0  0  0  0  0  0  0  0  0  0  0  0
    5.6584    0.2950    1.3654 H   0  0  0  0  0  0  0  0  0  0  0  0
    4.8614   -1.6543   -0.1606 H   0  0  0  0  0  0  0  0  0  0  0  0
  1  2  1  0
  2  3  1  0
  3  4  1  0
  4  5  1  0
  5  6  1  0
  6  7  1  0
  7  8  1  0
  8  9  2  0
  8 10  1  0
 10 11  1  0
 11 12  2  0
 12 13  1  0
 13 14  1  0
  6  2  1  0
 14 10  2  0
  1 15  1  0
  1 16  1  0
  2 17  1  1
  3 18  1  0
  3 19  1  0
  5 20  1  0
  5 21  1  0
  6 22  1  1
  7 23  1  0
 11 24  1  0
 12 25  1  0
 13 26  1  0
M  END
$$$$
