
     RDKit          3D

 25 25  0  0  0  0  0  0  0  0999 V2000
    4.1235   -0.4025    0.6514 C   0  0  0  0  0  0  0  0  0  0  0  0
    2.7820    0.1045    0.4272 N   0  0  0  0  0  0  0  0  0  0  0  0
    1.6570   -0.7432    0.3142 C   0  0  0  0  0  0  0  0  0  0  0  0
    1.8907   -1.9941    0.4218 O   0  0  0  0  0  0  0  0  0  0  0  0
    0.3410   -0.2936    0.0972 N   0  0  0  0  0  0  0  0  0  0  0  0
   -0.0570    1.0823   -0.0416 C   0  0  0  0  0  0  0  0  0  0  0  0
   -1.1386    0.9873   -1.0903 C   0  0  0  0  0  0  0  0  0  0  0  0
   -1.9082   -0.2298   -0.6359 C   0  0  2  0  0  0  0  0  0  0  0  0
   -2.5193   -0.8696   -1.7157 O   0  0  0  0  0  0  0  0  0  0  0  0
   -2.9249    0.1986    0.3556 C   0  0  0  0  0  0  0  0  0  0  0  0
   -4.1347   -0.0519    0.0989 O   0  0  0  0  0  0  0  0  0  0  0  0
   -2.5961    0.8526    1.5330 O   0  0  0  0  0  0  0  0  0  0  0  0
   -0.8376   -1.1083   -0.0254 C   0  0  0  0  0  0  0  0  0  0  0  0
    4.7417    0.4501    0.9997 H   0  0  0  0  0  0  0  0  0  0  0  0
    4.5597   -0.7294   -0.3212 H   0  0  0  0  0  0  0  0  0  0  0  0
    4.1054   -1.2364    1.3821 H   0  0  0  0  0  0  0  0  0  0  0  0
    2.5979    1.1384    0.3397 H   0  0  0  0  0  0  0  0  0  0  0  0
   -0.4629    1.5127    0.8953 H   0  0  0  0  0  0  0  0  0  0  0  0
    0.7809    1.7342   -0.3707 H   0  0  0  0  0  0  0  0  0  0  0  0
   -0.6155    0.8003   -2.0653 H   0  0  0  0  0  0  0  0  0  0  0  0
   -1.7684    1.8963   -1.1333 H   0  0  0  0  0  0  0  0  0  0  0  0
   -3.4823   -1.0253   -1.5597 H   0  0  0  0  0  0  0  0  0  0  0  0
   -3.2702    1.4202    2.0432 H   0  0  0  0  0  0  0  0  0  0  0  0
   -1.1583   -1.5193    0.9563 H   0  0  0  0  0  0  0  0  0  0  0  0
   -0.7057   -1.9740   -0.6952 H   0  0  0  0  0  0  0  0  0  0  0  0
  1  2  1  0
  2  3  1  0
  3  4  2  0
  3  5  1  0
  5  6  1  0
  6  7  1  0
  7  8  1  0
  8  9  1  6
  8 10  1  0
 10 11  2  0
 10 12  1  0
  8 13  1  0
 13  5  1  0
  1 14  1  0
  1 15  1  0
  1 16  1  0
  2 17  1  0
  6 18  1  0
  6 19  1  0
  7 20  1  0
  7 21  1  0
  9 22  1  0
 12 23  1  0
 13 24  1  0
 13 25  1  0
M  END
$$$$

     RDKit          3D

 25 25  0  0  0  0  0  0  0  0999 V2000
    4.1966   -0.0358   -0.2145 C   0  0  0  0  0  0  0  0  0  0  0  0
    2.8083   -0.3871    0.0595 N   0  0  0  0  0  0  0  0  0  0  0  0
    1.7165    0.2313   -0.6091 C   0  0  0  0  0  0  0  0  0  0  0  0
    2.0240    1.1159   -1.4671 O   0  0  0  0  0  0  0  0  0  0  0  0
    0.3751   -0.1168   -0.3357 N   0  0  0  0  0  0  0  0  0  0  0  0
   -0.0283   -1.1166    0.6312 C   0  0  0  0  0  0  0  0  0  0  0  0
   -1.5589   -1.1891    0.4873 C   0  0  0  0  0  0  0  0  0  0  0  0
   -1.8325    0.2641    0.1405 C   0  0  2  0  0  0  0  0  0  0  0  0
   -1.4331    1.0641    1.1942 O   0  0  0  0  0  0  0  0  0  0  0  0
   -3.1864    0.5057   -0.3183 C   0  0  0  0  0  0  0  0  0  0  0  0
   -3.6583   -0.1568   -1.2647 O   0  0  0  0  0  0  0  0  0  0  0  0
   -3.9688    1.4676    0.2828 O   0  0  0  0  0  0  0  0  0  0  0  0
   -0.7893    0.4611   -0.9684 C   0  0  0  0  0  0  0  0  0  0  0  0
    4.3205    0.2175   -1.2903 H   0  0  0  0  0  0  0  0  0  0  0  0
    4.5228    0.8248    0.4175 H   0  0  0  0  0  0  0  0  0  0  0  0
    4.8406   -0.8832    0.0385 H   0  0  0  0  0  0  0  0  0  0  0  0
    2.6036   -1.1286    0.7816 H   0  0  0  0  0  0  0  0  0  0  0  0
    0.1453   -0.7657    1.6709 H   0  0  0  0  0  0  0  0  0  0  0  0
    0.4257   -2.1042    0.4300 H   0  0  0  0  0  0  0  0  0  0  0  0
   -2.0376   -1.5045    1.4238 H   0  0  0  0  0  0  0  0  0  0  0  0
   -1.7614   -1.8342   -0.3698 H   0  0  0  0  0  0  0  0  0  0  0  0
   -1.1564    1.9465    0.7953 H   0  0  0  0  0  0  0  0  0  0  0  0
   -4.8572    1.7958   -0.0662 H   0  0  0  0  0  0  0  0  0  0  0  0
   -1.0428   -0.1879   -1.8492 H   0  0  0  0  0  0  0  0  0  0  0  0
   -0.6682    1.5160   -1.2284 H   0  0  0  0  0  0  0  0  0  0  0  0
  1  2  1  0
  2  3  1  0
  3  4  2  0
  3  5  1  0
  5  6  1  0
  6  7  1  0
  7  8  1  0
  8  9  1  1
  8 10  1  0
 10 11  2  0
 10 12  1  0
  8 13  1  0
 13  5  1  0
  1 14  1  0
  1 15  1  0
  1 16  1  0
  2 17  1  0
  6 18  1  0
  6 19  1  0
  7 20  1  0
  7 21  1  0
  9 22  1  0
 12 23  1  0
 13 24  1  0
 13 25  1  0
M  END
$$$$

     RDKit          3D

 25 25  0  0  0  0  0  0  0  0999 V2000
    3.9187    1.1334    0.5336 C   0  0  0  0  0  0  0  0  0  0  0  0
    2.4748    0.9311    0.4994 N   0  0  0  0  0  0  0  0  0  0  0  0
    1.8577    0.0053   -0.3775 C   0  0  0  0  0  0  0  0  0  0  0  0
    2.5504   -0.6824   -1.1674 O   0  0  0  0  0  0  0  0  0  0  0  0
    0.4429   -0.1209   -0.3370 N   0  0  0  0  0  0  0  0  0  0  0  0
   -0.3298   -1.0217   -1.1694 C   0  0  0  0  0  0  0  0  0  0  0  0
   -1.2763   -1.6152   -0.1367 C   0  0  0  0  0  0  0  0  0  0  0  0
   -1.7112   -0.3750    0.6167 C   0  0  2  0  0  0  0  0  0  0  0  0
   -1.9146   -0.7125    1.9496 O   0  0  0  0  0  0  0  0  0  0  0  0
   -2.9279    0.2394    0.0390 C   0  0  0  0  0  0  0  0  0  0  0  0
   -3.9688    0.3973    0.7391 O   0  0  0  0  0  0  0  0  0  0  0  0
   -2.9178    0.6446   -1.2887 O   0  0  0  0  0  0  0  0  0  0  0  0
   -0.5133    0.5748    0.4927 C   0  0  0  0  0  0  0  0  0  0  0  0
    4.1257    2.1898    0.7900 H   0  0  0  0  0  0  0  0  0  0  0  0
    4.2922    0.8900   -0.5014 H   0  0  0  0  0  0  0  0  0  0  0  0
    4.3812    0.4606    1.2726 H   0  0  0  0  0  0  0  0  0  0  0  0
    1.9110    1.5086    1.1607 H   0  0  0  0  0  0  0  0  0  0  0  0
   -0.8505   -0.4070   -1.9170 H   0  0  0  0  0  0  0  0  0  0  0  0
    0.2936   -1.7963   -1.6463 H   0  0  0  0  0  0  0  0  0  0  0  0
   -0.6730   -2.2350    0.5470 H   0  0  0  0  0  0  0  0  0  0  0  0
   -2.1218   -2.1437   -0.5974 H   0  0  0  0  0  0  0  0  0  0  0  0
   -2.4839   -1.4955    2.0332 H   0  0  0  0  0  0  0  0  0  0  0  0
   -3.6013    1.3185   -1.6295 H   0  0  0  0  0  0  0  0  0  0  0  0
   -0.1127    0.8300    1.4965 H   0  0  0  0  0  0  0  0  0  0  0  0
   -0.8452    1.4818   -0.0713 H   0  0  0  0  0  0  0  0  0  0  0  0
  1  2  1  0
  2  3  1  0
  3  4  2  0
  3  5  1  0
  5  6  1  0
  6  7  1  0
  7  8  1  0
  8  9  1  1
  8 10  1  0
 10 11  2  0
 10 12  1  0
  8 13  1  0
 13  5  1  0
  1 14  1  0
  1 15  1  0
  1 16  1  0
  2 17  1  0
  6 18  1  0
  6 19  1  0
  7 20  1  0
  7 21  1  0
  9 22  1  0
 12 23  1  0
 13 24  1  0
 13 25  1  0
M  END
$$$$

     RDKit          3D

 25 25  0  0  0  0  0  0  0  0999 V2000
    3.8239    1.0523    0.3466 C   0  0  0  0  0  0  0  0  0  0  0  0
    2.6178    0.2831    0.0326 N   0  0  0  0  0  0  0  0  0  0  0  0
    1.5212    0.2887    0.9126 C   0  0  0  0  0  0  0  0  0  0  0  0
    1.5947    0.9666    1.9749 O   0  0  0  0  0  0  0  0  0  0  0  0
    0.3420   -0.4411    0.6423 N   0  0  0  0  0  0  0  0  0  0  0  0
    0.0719   -1.2713   -0.5157 C   0  0  0  0  0  0  0  0  0  0  0  0
   -1.3201   -0.7732   -0.9064 C   0  0  0  0  0  0  0  0  0  0  0  0
   -1.9508   -0.5080    0.4214 C   0  0  2  0  0  0  0  0  0  0  0  0
   -2.8603   -1.4930    0.7977 O   0  0  0  0  0  0  0  0  0  0  0  0
   -2.5968    0.8354    0.3889 C   0  0  0  0  0  0  0  0  0  0  0  0
   -3.8017    1.0162    0.6692 O   0  0  0  0  0  0  0  0  0  0  0  0
   -1.8109    1.9183    0.0298 O   0  0  0  0  0  0  0  0  0  0  0  0
   -0.8493   -0.5187    1.4600 C   0  0  0  0  0  0  0  0  0  0  0  0
    4.5428    0.9216   -0.4625 H   0  0  0  0  0  0  0  0  0  0  0  0
    3.5543    2.1172    0.5152 H   0  0  0  0  0  0  0  0  0  0  0  0
    4.2714    0.6511    1.2675 H   0  0  0  0  0  0  0  0  0  0  0  0
    2.5584   -0.2736   -0.8405 H   0  0  0  0  0  0  0  0  0  0  0  0
    0.7764   -1.1355   -1.3330 H   0  0  0  0  0  0  0  0  0  0  0  0
    0.0086   -2.3433   -0.2665 H   0  0  0  0  0  0  0  0  0  0  0  0
   -1.1468    0.1865   -1.4464 H   0  0  0  0  0  0  0  0  0  0  0  0
   -1.8484   -1.4883   -1.5345 H   0  0  0  0  0  0  0  0  0  0  0  0
   -3.5542   -1.6600    0.1376 H   0  0  0  0  0  0  0  0  0  0  0  0
   -2.1787    2.8631   -0.0910 H   0  0  0  0  0  0  0  0  0  0  0  0
   -0.8051   -1.5044    1.9917 H   0  0  0  0  0  0  0  0  0  0  0  0
   -0.9605    0.3102    2.1566 H   0  0  0  0  0  0  0  0  0  0  0  0
  1  2  1  0
  2  3  1  0
  3  4  2  0
  3  5  1  0
  5  6  1  0
  6  7  1  0
  7  8  1  0
  8  9  1  1
  8 10  1  0
 10 11  2  0
 10 12  1  0
  8 13  1  0
 13  5  1  0
  1 14  1  0
  1 15  1  0
  1 16  1  0
  2 17  1  0
  6 18  1  0
  6 19  1  0
  7 20  1  0
  7 21  1  0
  9 22  1  0
 12 23  1  0
 13 24  1  0
 13 25  1  0
M  END
$$$$

     RDKit          3D

 25 25  0  0  0  0  0  0  0  0999 V2000
    3.9302    0.6597    0.1129 C   0  0  0  0  0  0  0  0  0  0  0  0
    2.5374    0.5675   -0.3411 N   0  0  0  0  0  0  0  0  0  0  0  0
    1.6294   -0.3602    0.2649 C   0  0  0  0  0  0  0  0  0  0  0  0
    2.0978   -1.0716    1.1894 O   0  0  0  0  0  0  0  0  0  0  0  0
    0.2764   -0.4614   -0.1641 N   0  0  0  0  0  0  0  0  0  0  0  0
   -0.3466    0.3153   -1.2178 C   0  0  0  0  0  0  0  0  0  0  0  0
   -1.7653   -0.1876   -1.2777 C   0  0  0  0  0  0  0  0  0  0  0  0
   -1.9928   -0.6516    0.1464 C   0  0  2  0  0  0  0  0  0  0  0  0
   -3.0290   -1.5638    0.2212 O   0  0  0  0  0  0  0  0  0  0  0  0
   -2.1892    0.4880    1.0778 C   0  0  0  0  0  0  0  0  0  0  0  0
   -3.2194    0.5011    1.7950 O   0  0  0  0  0  0  0  0  0  0  0  0
   -1.3004    1.5331    1.1976 O   0  0  0  0  0  0  0  0  0  0  0  0
   -0.6808   -1.3788    0.4121 C   0  0  0  0  0  0  0  0  0  0  0  0
    4.1544   -0.2944    0.6647 H   0  0  0  0  0  0  0  0  0  0  0  0
    4.6272    0.7341   -0.7256 H   0  0  0  0  0  0  0  0  0  0  0  0
    4.0517    1.4786    0.8591 H   0  0  0  0  0  0  0  0  0  0  0  0
    2.2146    1.1926   -1.1184 H   0  0  0  0  0  0  0  0  0  0  0  0
   -0.3212    1.3799   -0.9199 H   0  0  0  0  0  0  0  0  0  0  0  0
    0.1685    0.1558   -2.1986 H   0  0  0  0  0  0  0  0  0  0  0  0
   -1.8164   -1.0763   -1.9193 H   0  0  0  0  0  0  0  0  0  0  0  0
   -2.4940    0.5989   -1.5520 H   0  0  0  0  0  0  0  0  0  0  0  0
   -3.7294   -1.1753    0.8217 H   0  0  0  0  0  0  0  0  0  0  0  0
   -1.6017    2.4929    1.4301 H   0  0  0  0  0  0  0  0  0  0  0  0
   -0.6893   -2.2866   -0.2247 H   0  0  0  0  0  0  0  0  0  0  0  0
   -0.5122   -1.5900    1.4665 H   0  0  0  0  0  0  0  0  0  0  0  0
  1  2  1  0
  2  3  1  0
  3  4  2  0
  3  5  1  0
  5  6  1  0
  6  7  1  0
  7  8  1  0
  8  9  1  6
  8 10  1  0
 10 11  2  0
 10 12  1  0
  8 13  1  0
 13  5  1  0
  1 14  1  0
  1 15  1  0
  1 16  1  0
  2 17  1  0
  6 18  1  0
  6 19  1  0
  7 20  1  0
  7 21  1  0
  9 22  1  0
 12 23  1  0
 13 24  1  0
 13 25  1  0
M  END
$$$$

     RDKit          3D

 25 25  0  0  0  0  0  0  0  0999 V2000
    4.2131   -0.2150   -0.0292 C   0  0  0  0  0  0  0  0  0  0  0  0
    2.8137   -0.2294   -0.4612 N   0  0  0  0  0  0  0  0  0  0  0  0
    1.7437   -0.1501    0.4665 C   0  0  0  0  0  0  0  0  0  0  0  0
    2.0454   -0.0663    1.6817 O   0  0  0  0  0  0  0  0  0  0  0  0
    0.3906   -0.1650    0.0355 N   0  0  0  0  0  0  0  0  0  0  0  0
   -0.0927   -0.2582   -1.3409 C   0  0  0  0  0  0  0  0  0  0  0  0
   -1.4448    0.4501   -1.2210 C   0  0  0  0  0  0  0  0  0  0  0  0
   -1.9555   -0.2074    0.0480 C   0  0  2  0  0  0  0  0  0  0  0  0
   -2.2742   -1.5065   -0.2439 O   0  0  0  0  0  0  0  0  0  0  0  0
   -3.0511    0.5432    0.6715 C   0  0  0  0  0  0  0  0  0  0  0  0
   -4.1333   -0.0679    0.8656 O   0  0  0  0  0  0  0  0  0  0  0  0
   -2.9735    1.8581    1.0539 O   0  0  0  0  0  0  0  0  0  0  0  0
   -0.7363   -0.0864    0.9429 C   0  0  0  0  0  0  0  0  0  0  0  0
    4.4480    0.8237    0.2870 H   0  0  0  0  0  0  0  0  0  0  0  0
    4.2667   -0.8780    0.8704 H   0  0  0  0  0  0  0  0  0  0  0  0
    4.8647   -0.5459   -0.8369 H   0  0  0  0  0  0  0  0  0  0  0  0
    2.5894   -0.2987   -1.4624 H   0  0  0  0  0  0  0  0  0  0  0  0
    0.5650    0.2256   -2.0562 H   0  0  0  0  0  0  0  0  0  0  0  0
   -0.3312   -1.3218   -1.5748 H   0  0  0  0  0  0  0  0  0  0  0  0
   -2.0899    0.2470   -2.0845 H   0  0  0  0  0  0  0  0  0  0  0  0
   -1.2226    1.5234   -1.0845 H   0  0  0  0  0  0  0  0  0  0  0  0
   -2.5559   -1.9738    0.5864 H   0  0  0  0  0  0  0  0  0  0  0  0
   -3.5842    2.2240    1.7764 H   0  0  0  0  0  0  0  0  0  0  0  0
   -0.7046   -0.8686    1.7124 H   0  0  0  0  0  0  0  0  0  0  0  0
   -0.7904    0.9438    1.3973 H   0  0  0  0  0  0  0  0  0  0  0  0
  1  2  1  0
  2  3  1  0
  3  4  2  0
  3  5  1  0
  5  6  1  0
  6  7  1  0
  7  8  1  0
  8  9  1  6
  8 10  1  0
 10 11  2  0
 10 12  1  0
  8 13  1  0
 13  5  1  0
  1 14  1  0
  1 15  1  0
  1 16  1  0
  2 17  1  0
  6 18  1  0
  6 19  1  0
  7 20  1  0
  7 21  1  0
  9 22  1  0
 12 23  1  0
 13 24  1  0
 13 25  1  0
M  END
$$$$

     RDKit          3D

 25 25  0  0  0  0  0  0  0  0999 V2000
    4.1412   -0.3203   -0.0438 C   0  0  0  0  0  0  0  0  0  0  0  0
    2.7039   -0.4397    0.0792 N   0  0  0  0  0  0  0  0  0  0  0  0
    1.8462    0.7136    0.0884 C   0  0  0  0  0  0  0  0  0  0  0  0
    2.4197    1.8254   -0.0165 O   0  0  0  0  0  0  0  0  0  0  0  0
    0.4347    0.5835    0.2099 N   0  0  0  0  0  0  0  0  0  0  0  0
   -0.4558    1.7273    0.2223 C   0  0  0  0  0  0  0  0  0  0  0  0
   -1.8518    1.2052    0.1817 C   0  0  0  0  0  0  0  0  0  0  0  0
   -1.7244   -0.2647   -0.1356 C   0  0  2  0  0  0  0  0  0  0  0  0
   -1.8133   -0.4326   -1.4958 O   0  0  0  0  0  0  0  0  0  0  0  0
   -2.7870   -0.9813    0.5689 C   0  0  0  0  0  0  0  0  0  0  0  0
   -2.9096   -0.9753    1.8178 O   0  0  0  0  0  0  0  0  0  0  0  0
   -3.7109   -1.7069   -0.1663 O   0  0  0  0  0  0  0  0  0  0  0  0
   -0.3396   -0.6407    0.3369 C   0  0  0  0  0  0  0  0  0  0  0  0
    4.4480    0.5449   -0.6588 H   0  0  0  0  0  0  0  0  0  0  0  0
    4.4993   -1.2321   -0.6051 H   0  0  0  0  0  0  0  0  0  0  0  0
    4.6496   -0.2245    0.9367 H   0  0  0  0  0  0  0  0  0  0  0  0
    2.2236   -1.3631    0.1666 H   0  0  0  0  0  0  0  0  0  0  0  0
   -0.2659    2.3920    1.0882 H   0  0  0  0  0  0  0  0  0  0  0  0
   -0.2373    2.3014   -0.7130 H   0  0  0  0  0  0  0  0  0  0  0  0
   -2.3317    1.3070    1.1608 H   0  0  0  0  0  0  0  0  0  0  0  0
   -2.4139    1.7154   -0.6338 H   0  0  0  0  0  0  0  0  0  0  0  0
   -1.5856   -1.3866   -1.6984 H   0  0  0  0  0  0  0  0  0  0  0  0
   -4.6445   -1.8965    0.2078 H   0  0  0  0  0  0  0  0  0  0  0  0
    0.0859   -1.4286   -0.3394 H   0  0  0  0  0  0  0  0  0  0  0  0
   -0.3807   -1.0229    1.3611 H   0  0  0  0  0  0  0  0  0  0  0  0
  1  2  1  0
  2  3  1  0
  3  4  2  0
  3  5  1  0
  5  6  1  0
  6  7  1  0
  7  8  1  0
  8  9  1  6
  8 10  1  0
 10 11  2  0
 10 12  1  0
  8 13  1  0
 13  5  1  0
  1 14  1  0
  1 15  1  0
  1 16  1  0
  2 17  1  0
  6 18  1  0
  6 19  1  0
  7 20  1  0
  7 21  1  0
  9 22  1  0
 12 23  1  0
 13 24  1  0
 13 25  1  0
M  END
$$$$

     RDKit          3D

 25 25  0  0  0  0  0  0  0  0999 V2000
    4.1562   -0.2616   -0.1285 C   0  0  0  0  0  0  0  0  0  0  0  0
    2.7483   -0.3634   -0.5268 N   0  0  0  0  0  0  0  0  0  0  0  0
    1.6944   -0.1679    0.4149 C   0  0  0  0  0  0  0  0  0  0  0  0
    2.0498    0.0948    1.5972 O   0  0  0  0  0  0  0  0  0  0  0  0
    0.3357   -0.2666    0.0281 N   0  0  0  0  0  0  0  0  0  0  0  0
   -0.1262   -0.5641   -1.3075 C   0  0  0  0  0  0  0  0  0  0  0  0
   -1.6371   -0.5957   -1.2317 C   0  0  0  0  0  0  0  0  0  0  0  0
   -2.0161   -0.0004    0.1048 C   0  0  2  0  0  0  0  0  0  0  0  0
   -3.0723   -0.6478    0.7068 O   0  0  0  0  0  0  0  0  0  0  0  0
   -2.3436    1.4560   -0.0762 C   0  0  0  0  0  0  0  0  0  0  0  0
   -1.5224    2.2471   -0.6078 O   0  0  0  0  0  0  0  0  0  0  0  0
   -3.5520    1.9533    0.3375 O   0  0  0  0  0  0  0  0  0  0  0  0
   -0.7740   -0.0791    0.9363 C   0  0  0  0  0  0  0  0  0  0  0  0
    4.3765   -1.0494    0.5962 H   0  0  0  0  0  0  0  0  0  0  0  0
    4.7850   -0.2384   -1.0174 H   0  0  0  0  0  0  0  0  0  0  0  0
    4.2147    0.7128    0.4395 H   0  0  0  0  0  0  0  0  0  0  0  0
    2.4599   -0.5808   -1.5055 H   0  0  0  0  0  0  0  0  0  0  0  0
    0.2092    0.2380   -1.9999 H   0  0  0  0  0  0  0  0  0  0  0  0
    0.2696   -1.5554   -1.6120 H   0  0  0  0  0  0  0  0  0  0  0  0
   -2.0530   -1.6160   -1.3243 H   0  0  0  0  0  0  0  0  0  0  0  0
   -2.0535    0.0094   -2.0777 H   0  0  0  0  0  0  0  0  0  0  0  0
   -2.7659   -1.5270    1.0613 H   0  0  0  0  0  0  0  0  0  0  0  0
   -3.9781    2.8004   -0.0422 H   0  0  0  0  0  0  0  0  0  0  0  0
   -0.5970    0.8784    1.4685 H   0  0  0  0  0  0  0  0  0  0  0  0
   -0.8085   -0.8765    1.7047 H   0  0  0  0  0  0  0  0  0  0  0  0
  1  2  1  0
  2  3  1  0
  3  4  2  0
  3  5  1  0
  5  6  1  0
  6  7  1  0
  7  8  1  0
  8  9  1  1
  8 10  1  0
 10 11  2  0
 10 12  1  0
  8 13  1  0
 13  5  1  0
  1 14  1  0
  1 15  1  0
  1 16  1  0
  2 17  1  0
  6 18  1  0
  6 19  1  0
  7 20  1  0
  7 21  1  0
  9 22  1  0
 12 23  1  0
 13 24  1  0
 13 25  1  0
M  END
$$$$
