
     RDKit          3D

 26 26  0  0  0  0  0  0  0  0999 V2000
    2.9538   -0.7190   -0.8745 N   0  0  0  0  0  0  0  0  0  0  0  0
    2.2696    0.2533   -0.1081 C   0  0  0  0  0  0  0  0  0  0  0  0
    2.9437    1.1498    0.4703 O   0  0  0  0  0  0  0  0  0  0  0  0
    0.8219    0.2817    0.0547 C   0  0  1  0  0  0  0  0  0  0  0  0
    0.4016    1.3396    0.8567 O   0  0  0  0  0  0  0  0  0  0  0  0
    0.0588    0.3796   -1.2448 C   0  0  0  0  0  0  0  0  0  0  0  0
   -1.3752    0.7031   -0.8870 C   0  0  2  0  0  0  0  0  0  0  0  0
   -1.4915    2.0423   -0.5305 O   0  0  0  0  0  0  0  0  0  0  0  0
   -1.9746   -0.2233    0.1026 C   0  0  1  0  0  0  0  0  0  0  0  0
   -2.5170   -1.3728   -0.5143 O   0  0  0  0  0  0  0  0  0  0  0  0
   -1.0924   -0.6270    1.2264 C   0  0  2  0  0  0  0  0  0  0  0  0
   -1.0585    0.3822    2.1682 O   0  0  0  0  0  0  0  0  0  0  0  0
    0.3047   -0.9910    0.7390 C   0  0  0  0  0  0  0  0  0  0  0  0
    3.9829   -0.8714   -0.7531 H   0  0  0  0  0  0  0  0  0  0  0  0
    2.4867   -1.3234   -1.5846 H   0  0  0  0  0  0  0  0  0  0  0  0
    1.1311    1.9512    1.0691 H   0  0  0  0  0  0  0  0  0  0  0  0
    0.4440    1.2461   -1.8193 H   0  0  0  0  0  0  0  0  0  0  0  0
    0.0784   -0.5571   -1.8321 H   0  0  0  0  0  0  0  0  0  0  0  0
   -1.9569    0.5949   -1.8483 H   0  0  0  0  0  0  0  0  0  0  0  0
   -0.8083    2.5678   -1.0287 H   0  0  0  0  0  0  0  0  0  0  0  0
   -2.8721    0.2957    0.5520 H   0  0  0  0  0  0  0  0  0  0  0  0
   -1.8439   -2.0771   -0.4355 H   0  0  0  0  0  0  0  0  0  0  0  0
   -1.5200   -1.5472    1.6944 H   0  0  0  0  0  0  0  0  0  0  0  0
   -0.5231    0.1461    2.9738 H   0  0  0  0  0  0  0  0  0  0  0  0
    0.1885   -1.7928   -0.0112 H   0  0  0  0  0  0  0  0  0  0  0  0
    0.9678   -1.2313    1.5647 H   0  0  0  0  0  0  0  0  0  0  0  0
  1  2  1  0
  2  3  2  0
  2  4  1  0
  4  5  1  1
  4  6  1  0
  6  7  1  0
  7  8  1  0
  7  9  1  0
  9 10  1  0
  9 11  1  0
 11 12  1  0
 11 13  1  0
 13  4  1  0
  1 14  1  0
  1 15  1  0
  5 16  1  0
  6 17  1  0
  6 18  1  0
  7 19  1  6
  8 20  1  0
  9 21  1  1
 10 22  1  0
 11 23  1  1
 12 24  1  0
 13 25  1  0
 13 26  1  0
M  END
$$$$

     RDKit          3D

 26 26  0  0  0  0  0  0  0  0999 V2000
    3.2383   -0.0357   -1.1225 N   0  0  0  0  0  0  0  0  0  0  0  0
    1.8418   -0.2472   -0.9760 C   0  0  0  0  0  0  0  0  0  0  0  0
    1.2689   -0.9222   -1.8695 O   0  0  0  0  0  0  0  0  0  0  0  0
    1.0490    0.2849    0.1647 C   0  0  1  0  0  0  0  0  0  0  0  0
    1.9577    0.9776    0.9703 O   0  0  0  0  0  0  0  0  0  0  0  0
    0.0858    1.2917   -0.3823 C   0  0  0  0  0  0  0  0  0  0  0  0
   -1.1819    0.6570   -0.8910 C   0  0  2  0  0  0  0  0  0  0  0  0
   -2.0353    1.5796   -1.4274 O   0  0  0  0  0  0  0  0  0  0  0  0
   -1.8352    0.0646    0.3691 C   0  0  1  0  0  0  0  0  0  0  0  0
   -3.1042   -0.3761    0.0308 O   0  0  0  0  0  0  0  0  0  0  0  0
   -0.9795   -1.1178    0.7369 C   0  0  2  0  0  0  0  0  0  0  0  0
   -1.5611   -1.6726    1.9012 O   0  0  0  0  0  0  0  0  0  0  0  0
    0.4462   -0.8263    0.9376 C   0  0  0  0  0  0  0  0  0  0  0  0
    3.5477    0.9153   -1.4142 H   0  0  0  0  0  0  0  0  0  0  0  0
    3.9671   -0.7536   -0.9616 H   0  0  0  0  0  0  0  0  0  0  0  0
    2.4752    0.3350    1.5089 H   0  0  0  0  0  0  0  0  0  0  0  0
   -0.2145    1.9975    0.4281 H   0  0  0  0  0  0  0  0  0  0  0  0
    0.5725    1.8840   -1.1777 H   0  0  0  0  0  0  0  0  0  0  0  0
   -0.9219   -0.1719   -1.5570 H   0  0  0  0  0  0  0  0  0  0  0  0
   -2.6875    1.0965   -2.0018 H   0  0  0  0  0  0  0  0  0  0  0  0
   -1.8311    0.8063    1.1905 H   0  0  0  0  0  0  0  0  0  0  0  0
   -3.7695    0.3140    0.2650 H   0  0  0  0  0  0  0  0  0  0  0  0
   -1.1495   -1.8862   -0.0554 H   0  0  0  0  0  0  0  0  0  0  0  0
   -0.8411   -1.7664    2.5933 H   0  0  0  0  0  0  0  0  0  0  0  0
    1.0336   -1.7650    0.7076 H   0  0  0  0  0  0  0  0  0  0  0  0
    0.6284   -0.6630    2.0323 H   0  0  0  0  0  0  0  0  0  0  0  0
  1  2  1  0
  2  3  2  0
  2  4  1  0
  4  5  1  1
  4  6  1  0
  6  7  1  0
  7  8  1  0
  7  9  1  0
  9 10  1  0
  9 11  1  0
 11 12  1  0
 11 13  1  0
 13  4  1  0
  1 14  1  0
  1 15  1  0
  5 16  1  0
  6 17  1  0
  6 18  1  0
  7 19  1  6
  8 20  1  0
  9 21  1  1
 10 22  1  0
 11 23  1  6
 12 24  1  0
 13 25  1  0
 13 26  1  0
M  END
$$$$

     RDKit          3D

 26 26  0  0  0  0  0  0  0  0999 V2000
    3.5022   -0.1081    0.0337 N   0  0  0  0  0  0  0  0  0  0  0  0
    2.2271   -0.2787    0.6373 C   0  0  0  0  0  0  0  0  0  0  0  0
    2.2001   -0.6759    1.8444 O   0  0  0  0  0  0  0  0  0  0  0  0
    0.9934   -0.0037   -0.1134 C   0  0  1  0  0  0  0  0  0  0  0  0
    1.3191    0.4107   -1.3929 O   0  0  0  0  0  0  0  0  0  0  0  0
    0.1575   -1.2673   -0.1838 C   0  0  0  0  0  0  0  0  0  0  0  0
   -1.1826   -1.0983    0.4846 C   0  0  2  0  0  0  0  0  0  0  0  0
   -1.9554   -2.2180    0.1827 O   0  0  0  0  0  0  0  0  0  0  0  0
   -1.8755    0.0917   -0.1826 C   0  0  1  0  0  0  0  0  0  0  0  0
   -3.1632    0.2316    0.3371 O   0  0  0  0  0  0  0  0  0  0  0  0
   -1.1058    1.3587    0.0090 C   0  0  2  0  0  0  0  0  0  0  0  0
   -0.9632    2.0607   -1.1882 O   0  0  0  0  0  0  0  0  0  0  0  0
    0.2272    1.0662    0.6354 C   0  0  0  0  0  0  0  0  0  0  0  0
    3.9175    0.8399   -0.0946 H   0  0  0  0  0  0  0  0  0  0  0  0
    4.0354   -0.9421   -0.2882 H   0  0  0  0  0  0  0  0  0  0  0  0
    1.3371    1.3799   -1.4552 H   0  0  0  0  0  0  0  0  0  0  0  0
    0.6770   -2.0951    0.3371 H   0  0  0  0  0  0  0  0  0  0  0  0
   -0.0539   -1.5100   -1.2575 H   0  0  0  0  0  0  0  0  0  0  0  0
   -1.1040   -0.9576    1.5720 H   0  0  0  0  0  0  0  0  0  0  0  0
   -1.3693   -2.9623   -0.0735 H   0  0  0  0  0  0  0  0  0  0  0  0
   -1.9557   -0.1851   -1.2628 H   0  0  0  0  0  0  0  0  0  0  0  0
   -3.5433   -0.6990    0.3645 H   0  0  0  0  0  0  0  0  0  0  0  0
   -1.6605    2.0156    0.7266 H   0  0  0  0  0  0  0  0  0  0  0  0
   -1.5809    2.8432   -1.2263 H   0  0  0  0  0  0  0  0  0  0  0  0
    0.0889    0.7116    1.6687 H   0  0  0  0  0  0  0  0  0  0  0  0
    0.8307    1.9911    0.6853 H   0  0  0  0  0  0  0  0  0  0  0  0
  1  2  1  0
  2  3  2  0
  2  4  1  0
  4  5  1  6
  4  6  1  0
  6  7  1  0
  7  8  1  0
  7  9  1  0
  9 10  1  0
  9 11  1  0
 11 12  1  0
 11 13  1  0
 13  4  1  0
  1 14  1  0
  1 15  1  0
  5 16  1  0
  6 17  1  0
  6 18  1  0
  7 19  1  1
  8 20  1  0
  9 21  1  6
 10 22  1  0
 11 23  1  1
 12 24  1  0
 13 25  1  0
 13 26  1  0
M  END
$$$$

     RDKit          3D

 26 26  0  0  0  0  0  0  0  0999 V2000
    3.4308   -0.0074    0.0017 N   0  0  0  0  0  0  0  0  0  0  0  0
    2.2342   -0.7456    0.0670 C   0  0  0  0  0  0  0  0  0  0  0  0
    2.3337   -2.0016    0.1226 O   0  0  0  0  0  0  0  0  0  0  0  0
    0.9185   -0.0575    0.0693 C   0  0  1  0  0  0  0  0  0  0  0  0
    1.1202    1.2972    0.0013 O   0  0  0  0  0  0  0  0  0  0  0  0
    0.1569   -0.5277   -1.1476 C   0  0  0  0  0  0  0  0  0  0  0  0
   -1.1118    0.2680   -1.1675 C   0  0  2  0  0  0  0  0  0  0  0  0
   -0.8380    1.6393   -1.2779 O   0  0  0  0  0  0  0  0  0  0  0  0
   -1.9726   -0.0519    0.0030 C   0  0  1  0  0  0  0  0  0  0  0  0
   -2.6749   -1.2255   -0.2863 O   0  0  0  0  0  0  0  0  0  0  0  0
   -1.2723   -0.1496    1.3136 C   0  0  2  0  0  0  0  0  0  0  0  0
   -1.4793    1.0289    2.0375 O   0  0  0  0  0  0  0  0  0  0  0  0
    0.1632   -0.4939    1.2875 C   0  0  0  0  0  0  0  0  0  0  0  0
    3.4109    0.9442   -0.4114 H   0  0  0  0  0  0  0  0  0  0  0  0
    4.3482   -0.3780    0.3541 H   0  0  0  0  0  0  0  0  0  0  0  0
    1.4912    1.5216   -0.8817 H   0  0  0  0  0  0  0  0  0  0  0  0
   -0.0638   -1.5922   -1.0716 H   0  0  0  0  0  0  0  0  0  0  0  0
    0.7882   -0.2899   -2.0326 H   0  0  0  0  0  0  0  0  0  0  0  0
   -1.6655   -0.0067   -2.0963 H   0  0  0  0  0  0  0  0  0  0  0  0
   -1.6001    2.0706   -1.7484 H   0  0  0  0  0  0  0  0  0  0  0  0
   -2.7561    0.7518    0.0618 H   0  0  0  0  0  0  0  0  0  0  0  0
   -3.5447   -1.0375   -0.6982 H   0  0  0  0  0  0  0  0  0  0  0  0
   -1.8031   -0.9454    1.9102 H   0  0  0  0  0  0  0  0  0  0  0  0
   -0.6425    1.5612    1.9954 H   0  0  0  0  0  0  0  0  0  0  0  0
    0.3645   -1.5782    1.4288 H   0  0  0  0  0  0  0  0  0  0  0  0
    0.6643    0.0058    2.1656 H   0  0  0  0  0  0  0  0  0  0  0  0
  1  2  1  0
  2  3  2  0
  2  4  1  0
  4  5  1  6
  4  6  1  0
  6  7  1  0
  7  8  1  0
  7  9  1  0
  9 10  1  0
  9 11  1  0
 11 12  1  0
 11 13  1  0
 13  4  1  0
  1 14  1  0
  1 15  1  0
  5 16  1  0
  6 17  1  0
  6 18  1  0
  7 19  1  6
  8 20  1  0
  9 21  1  1
 10 22  1  0
 11 23  1  1
 12 24  1  0
 13 25  1  0
 13 26  1  0
M  END
$$$$

     RDKit          3D

 26 26  0  0  0  0  0  0  0  0999 V2000
    2.8469    0.7842    0.6296 N   0  0  0  0  0  0  0  0  0  0  0  0
    2.3705   -0.2809   -0.1789 C   0  0  0  0  0  0  0  0  0  0  0  0
    3.2241   -1.0198   -0.7216 O   0  0  0  0  0  0  0  0  0  0  0  0
    0.9450   -0.5566   -0.4081 C   0  0  1  0  0  0  0  0  0  0  0  0
    0.8323   -1.6641   -1.2428 O   0  0  0  0  0  0  0  0  0  0  0  0
    0.2042   -0.8917    0.8641 C   0  0  0  0  0  0  0  0  0  0  0  0
   -1.2552   -1.0371    0.5211 C   0  0  2  0  0  0  0  0  0  0  0  0
   -1.3728   -2.1411   -0.3245 O   0  0  0  0  0  0  0  0  0  0  0  0
   -1.8271    0.1917   -0.1279 C   0  0  1  0  0  0  0  0  0  0  0  0
   -2.9193    0.7135    0.5537 O   0  0  0  0  0  0  0  0  0  0  0  0
   -0.7097    1.2372   -0.1866 C   0  0  2  0  0  0  0  0  0  0  0  0
   -1.1986    2.4473   -0.6832 O   0  0  0  0  0  0  0  0  0  0  0  0
    0.3561    0.6652   -1.0910 C   0  0  0  0  0  0  0  0  0  0  0  0
    3.4235    1.5776    0.2732 H   0  0  0  0  0  0  0  0  0  0  0  0
    2.6107    0.7865    1.6564 H   0  0  0  0  0  0  0  0  0  0  0  0
    1.1763   -2.4402   -0.7138 H   0  0  0  0  0  0  0  0  0  0  0  0
    0.4171   -0.2389    1.7003 H   0  0  0  0  0  0  0  0  0  0  0  0
    0.5572   -1.9213    1.1608 H   0  0  0  0  0  0  0  0  0  0  0  0
   -1.8436   -1.2673    1.4448 H   0  0  0  0  0  0  0  0  0  0  0  0
   -1.7534   -1.9038   -1.1952 H   0  0  0  0  0  0  0  0  0  0  0  0
   -2.1288    0.0023   -1.1729 H   0  0  0  0  0  0  0  0  0  0  0  0
   -2.6234    1.0478    1.4529 H   0  0  0  0  0  0  0  0  0  0  0  0
   -0.3533    1.4400    0.8368 H   0  0  0  0  0  0  0  0  0  0  0  0
   -1.9591    2.7011   -0.1367 H   0  0  0  0  0  0  0  0  0  0  0  0
   -0.1474    0.3424   -2.0184 H   0  0  0  0  0  0  0  0  0  0  0  0
    1.1278    1.4262   -1.3327 H   0  0  0  0  0  0  0  0  0  0  0  0
  1  2  1  0
  2  3  2  0
  2  4  1  0
  4  5  1  6
  4  6  1  0
  6  7  1  0
  7  8  1  0
  7  9  1  0
  9 10  1  0
  9 11  1  0
 11 12  1  0
 11 13  1  0
 13  4  1  0
  1 14  1  0
  1 15  1  0
  5 16  1  0
  6 17  1  0
  6 18  1  0
  7 19  1  1
  8 20  1  0
  9 21  1  6
 10 22  1  0
 11 23  1  1
 12 24  1  0
 13 25  1  0
 13 26  1  0
M  END
$$$$

     RDKit          3D

 26 26  0  0  0  0  0  0  0  0999 V2000
    3.0949    0.0359    0.6870 N   0  0  0  0  0  0  0  0  0  0  0  0
    2.2066   -0.9409    0.1108 C   0  0  0  0  0  0  0  0  0  0  0  0
    2.6781   -2.0702   -0.1916 O   0  0  0  0  0  0  0  0  0  0  0  0
    0.7833   -0.6592   -0.1305 C   0  0  1  0  0  0  0  0  0  0  0  0
    0.1678   -1.7762   -0.6922 O   0  0  0  0  0  0  0  0  0  0  0  0
    0.0424   -0.3569    1.1584 C   0  0  0  0  0  0  0  0  0  0  0  0
   -1.4388   -0.4845    0.8334 C   0  0  2  0  0  0  0  0  0  0  0  0
   -1.6965   -1.7864    0.4519 O   0  0  0  0  0  0  0  0  0  0  0  0
   -1.8214    0.5104   -0.2245 C   0  0  1  0  0  0  0  0  0  0  0  0
   -2.7001    1.4354    0.3691 O   0  0  0  0  0  0  0  0  0  0  0  0
   -0.6859    1.2625   -0.8088 C   0  0  2  0  0  0  0  0  0  0  0  0
   -1.1268    1.8149   -2.0274 O   0  0  0  0  0  0  0  0  0  0  0  0
    0.5531    0.4990   -1.0620 C   0  0  0  0  0  0  0  0  0  0  0  0
    4.1066   -0.0172    0.4386 H   0  0  0  0  0  0  0  0  0  0  0  0
    2.7287    0.7817    1.3406 H   0  0  0  0  0  0  0  0  0  0  0  0
    0.4923   -2.6204   -0.2932 H   0  0  0  0  0  0  0  0  0  0  0  0
    0.2736    0.6382    1.5618 H   0  0  0  0  0  0  0  0  0  0  0  0
    0.2847   -1.1295    1.9171 H   0  0  0  0  0  0  0  0  0  0  0  0
   -1.9744   -0.3154    1.7942 H   0  0  0  0  0  0  0  0  0  0  0  0
   -2.5900   -2.1089    0.6515 H   0  0  0  0  0  0  0  0  0  0  0  0
   -2.4128   -0.0057   -1.0063 H   0  0  0  0  0  0  0  0  0  0  0  0
   -2.1644    1.9807    1.0129 H   0  0  0  0  0  0  0  0  0  0  0  0
   -0.4334    2.1600   -0.1715 H   0  0  0  0  0  0  0  0  0  0  0  0
   -0.3797    1.8819   -2.6480 H   0  0  0  0  0  0  0  0  0  0  0  0
    0.5785    0.1016   -2.0997 H   0  0  0  0  0  0  0  0  0  0  0  0
    1.4333    1.1693   -0.9718 H   0  0  0  0  0  0  0  0  0  0  0  0
  1  2  1  0
  2  3  2  0
  2  4  1  0
  4  5  1  6
  4  6  1  0
  6  7  1  0
  7  8  1  0
  7  9  1  0
  9 10  1  0
  9 11  1  0
 11 12  1  0
 11 13  1  0
 13  4  1  0
  1 14  1  0
  1 15  1  0
  5 16  1  0
  6 17  1  0
  6 18  1  0
  7 19  1  1
  8 20  1  0
  9 21  1  6
 10 22  1  0
 11 23  1  1
 12 24  1  0
 13 25  1  0
 13 26  1  0
M  END
$$$$

     RDKit          3D

 26 26  0  0  0  0  0  0  0  0999 V2000
    3.4549   -0.2118    0.2540 N   0  0  0  0  0  0  0  0  0  0  0  0
    2.2430   -0.2859   -0.4797 C   0  0  0  0  0  0  0  0  0  0  0  0
    2.3199   -0.6247   -1.6897 O   0  0  0  0  0  0  0  0  0  0  0  0
    0.9097    0.0188    0.1258 C   0  0  1  0  0  0  0  0  0  0  0  0
    1.1576    0.3615    1.4741 O   0  0  0  0  0  0  0  0  0  0  0  0
    0.3474    1.1986   -0.5629 C   0  0  0  0  0  0  0  0  0  0  0  0
   -1.1224    1.3184   -0.6006 C   0  0  2  0  0  0  0  0  0  0  0  0
   -1.6081    2.5646   -0.1923 O   0  0  0  0  0  0  0  0  0  0  0  0
   -1.8398    0.2168    0.1787 C   0  0  1  0  0  0  0  0  0  0  0  0
   -3.1959    0.3129   -0.0215 O   0  0  0  0  0  0  0  0  0  0  0  0
   -1.2812   -1.0770   -0.4311 C   0  0  2  0  0  0  0  0  0  0  0  0
   -2.0988   -2.1123    0.0034 O   0  0  0  0  0  0  0  0  0  0  0  0
    0.1016   -1.2213    0.1118 C   0  0  0  0  0  0  0  0  0  0  0  0
    3.5907    0.4925    1.0343 H   0  0  0  0  0  0  0  0  0  0  0  0
    4.2350   -0.8600    0.0281 H   0  0  0  0  0  0  0  0  0  0  0  0
    1.6379   -0.4249    1.8586 H   0  0  0  0  0  0  0  0  0  0  0  0
    0.7597    2.1206   -0.0561 H   0  0  0  0  0  0  0  0  0  0  0  0
    0.7631    1.2667   -1.6100 H   0  0  0  0  0  0  0  0  0  0  0  0
   -1.4899    1.1976   -1.6622 H   0  0  0  0  0  0  0  0  0  0  0  0
   -1.4666    2.6560    0.7739 H   0  0  0  0  0  0  0  0  0  0  0  0
   -1.5251    0.3048    1.2294 H   0  0  0  0  0  0  0  0  0  0  0  0
   -3.6993    0.3619    0.8355 H   0  0  0  0  0  0  0  0  0  0  0  0
   -1.2388   -0.9782   -1.5258 H   0  0  0  0  0  0  0  0  0  0  0  0
   -1.5487   -2.8804    0.2604 H   0  0  0  0  0  0  0  0  0  0  0  0
   -0.0053   -1.6709    1.1437 H   0  0  0  0  0  0  0  0  0  0  0  0
    0.5994   -2.0444   -0.4799 H   0  0  0  0  0  0  0  0  0  0  0  0
  1  2  1  0
  2  3  2  0
  2  4  1  0
  4  5  1  1
  4  6  1  0
  6  7  1  0
  7  8  1  0
  7  9  1  0
  9 10  1  0
  9 11  1  0
 11 12  1  0
 11 13  1  0
 13  4  1  0
  1 14  1  0
  1 15  1  0
  5 16  1  0
  6 17  1  0
  6 18  1  0
  7 19  1  6
  8 20  1  0
  9 21  1  1
 10 22  1  0
 11 23  1  6
 12 24  1  0
 13 25  1  0
 13 26  1  0
M  END
$$$$

     RDKit          3D

 26 26  0  0  0  0  0  0  0  0999 V2000
    2.2137    0.7210    1.0585 N   0  0  0  0  0  0  0  0  0  0  0  0
    2.1993    0.3343   -0.3065 C   0  0  0  0  0  0  0  0  0  0  0  0
    3.3204    0.3885   -0.9091 O   0  0  0  0  0  0  0  0  0  0  0  0
    0.9489   -0.1056   -0.9842 C   0  0  1  0  0  0  0  0  0  0  0  0
    1.3045   -0.4051   -2.3019 O   0  0  0  0  0  0  0  0  0  0  0  0
    0.4410   -1.3567   -0.3619 C   0  0  0  0  0  0  0  0  0  0  0  0
   -0.5272   -1.1561    0.7669 C   0  0  2  0  0  0  0  0  0  0  0  0
   -1.1066   -2.3373    1.1433 O   0  0  0  0  0  0  0  0  0  0  0  0
   -1.6202   -0.2157    0.2516 C   0  0  1  0  0  0  0  0  0  0  0  0
   -2.7091   -0.1928    1.0749 O   0  0  0  0  0  0  0  0  0  0  0  0
   -0.9002    1.1319    0.1866 C   0  0  2  0  0  0  0  0  0  0  0  0
   -1.7686    2.1813    0.0590 O   0  0  0  0  0  0  0  0  0  0  0  0
    0.0114    1.0488   -1.0133 C   0  0  0  0  0  0  0  0  0  0  0  0
    2.2403   -0.0213    1.7836 H   0  0  0  0  0  0  0  0  0  0  0  0
    2.1992    1.7096    1.3746 H   0  0  0  0  0  0  0  0  0  0  0  0
    1.6724   -1.3265   -2.3178 H   0  0  0  0  0  0  0  0  0  0  0  0
   -0.0282   -2.0614   -1.0805 H   0  0  0  0  0  0  0  0  0  0  0  0
    1.3153   -1.9153    0.0721 H   0  0  0  0  0  0  0  0  0  0  0  0
   -0.0619   -0.6849    1.6385 H   0  0  0  0  0  0  0  0  0  0  0  0
   -1.4320   -2.3259    2.0723 H   0  0  0  0  0  0  0  0  0  0  0  0
   -1.8467   -0.5437   -0.7784 H   0  0  0  0  0  0  0  0  0  0  0  0
   -3.1495    0.6865    1.1645 H   0  0  0  0  0  0  0  0  0  0  0  0
   -0.2750    1.2774    1.0756 H   0  0  0  0  0  0  0  0  0  0  0  0
   -2.3693    2.1183   -0.7064 H   0  0  0  0  0  0  0  0  0  0  0  0
   -0.6432    1.0403   -1.9104 H   0  0  0  0  0  0  0  0  0  0  0  0
    0.5712    2.0102   -1.0516 H   0  0  0  0  0  0  0  0  0  0  0  0
  1  2  1  0
  2  3  2  0
  2  4  1  0
  4  5  1  6
  4  6  1  0
  6  7  1  0
  7  8  1  0
  7  9  1  0
  9 10  1  0
  9 11  1  0
 11 12  1  0
 11 13  1  0
 13  4  1  0
  1 14  1  0
  1 15  1  0
  5 16  1  0
  6 17  1  0
  6 18  1  0
  7 19  1  1
  8 20  1  0
  9 21  1  6
 10 22  1  0
 11 23  1  1
 12 24  1  0
 13 25  1  0
 13 26  1  0
M  END
$$$$
