
     RDKit          3D

 25 25  0  0  0  0  0  0  0  0999 V2000
    2.8988   -0.7563   -0.5812 O   0  0  0  0  0  0  0  0  0  0  0  0
    2.1689    0.2465    0.0269 C   0  0  0  0  0  0  0  0  0  0  0  0
    0.7284   -0.2183    0.1900 C   0  0  2  0  0  0  0  0  0  0  0  0
    0.7799   -1.3717    0.9914 O   0  0  0  0  0  0  0  0  0  0  0  0
    0.1985   -0.6615   -1.1566 C   0  0  0  0  0  0  0  0  0  0  0  0
   -1.2271   -1.1092   -1.0354 C   0  0  0  0  0  0  0  0  0  0  0  0
   -2.0526   -0.2677   -0.1139 C   0  0  0  0  0  0  0  0  0  0  0  0
   -1.3910    1.0800    0.0546 C   0  0  2  0  0  0  0  0  0  0  0  0
   -1.1632    1.6527   -1.1728 O   0  0  0  0  0  0  0  0  0  0  0  0
   -0.1048    0.8376    0.8372 C   0  0  1  0  0  0  0  0  0  0  0  0
   -0.4886    0.4586    2.1251 O   0  0  0  0  0  0  0  0  0  0  0  0
    2.7487   -1.5854   -0.0971 H   0  0  0  0  0  0  0  0  0  0  0  0
    2.2573    1.1888   -0.5157 H   0  0  0  0  0  0  0  0  0  0  0  0
    2.5737    0.3410    1.0764 H   0  0  0  0  0  0  0  0  0  0  0  0
    1.2297   -1.1069    1.8259 H   0  0  0  0  0  0  0  0  0  0  0  0
    0.8026   -1.5740   -1.4323 H   0  0  0  0  0  0  0  0  0  0  0  0
    0.3706    0.0648   -1.9555 H   0  0  0  0  0  0  0  0  0  0  0  0
   -1.6892   -1.1058   -2.0466 H   0  0  0  0  0  0  0  0  0  0  0  0
   -1.3098   -2.1681   -0.6715 H   0  0  0  0  0  0  0  0  0  0  0  0
   -2.0737   -0.7281    0.9138 H   0  0  0  0  0  0  0  0  0  0  0  0
   -3.0866   -0.1671   -0.5053 H   0  0  0  0  0  0  0  0  0  0  0  0
   -2.0461    1.7528    0.6334 H   0  0  0  0  0  0  0  0  0  0  0  0
   -0.6630    2.5002   -1.0833 H   0  0  0  0  0  0  0  0  0  0  0  0
    0.4362    1.8136    0.8942 H   0  0  0  0  0  0  0  0  0  0  0  0
    0.1023    0.8834    2.7983 H   0  0  0  0  0  0  0  0  0  0  0  0
  1  2  1  0
  2  3  1  0
  3  4  1  1
  3  5  1  0
  5  6  1  0
  6  7  1  0
  7  8  1  0
  8  9  1  0
  8 10  1  0
 10 11  1  0
 10  3  1  0
  1 12  1  0
  2 13  1  0
  2 14  1  0
  4 15  1  0
  5 16  1  0
  5 17  1  0
  6 18  1  0
  6 19  1  0
  7 20  1  0
  7 21  1  0
  8 22  1  1
  9 23  1  0
 10 24  1  1
 11 25  1  0
M  END
$$$$

     RDKit          3D

 25 25  0  0  0  0  0  0  0  0999 V2000
   -2.3627    0.1481    1.2665 O   0  0  0  0  0  0  0  0  0  0  0  0
   -2.2373    0.0380   -0.1126 C   0  0  0  0  0  0  0  0  0  0  0  0
   -0.7639   -0.1639   -0.4936 C   0  0  2  0  0  0  0  0  0  0  0  0
   -0.6022   -0.2766   -1.8485 O   0  0  0  0  0  0  0  0  0  0  0  0
   -0.3042   -1.4111    0.1797 C   0  0  0  0  0  0  0  0  0  0  0  0
    1.1609   -1.6512    0.1066 C   0  0  0  0  0  0  0  0  0  0  0  0
    2.0382   -0.4796    0.2077 C   0  0  0  0  0  0  0  0  0  0  0  0
    1.4802    0.8609   -0.0159 C   0  0  2  0  0  0  0  0  0  0  0  0
    2.0093    1.8043    0.8968 O   0  0  0  0  0  0  0  0  0  0  0  0
   -0.0045    0.9996    0.0737 C   0  0  1  0  0  0  0  0  0  0  0  0
   -0.4307    2.1462   -0.6004 O   0  0  0  0  0  0  0  0  0  0  0  0
   -3.1891    0.6098    1.5188 H   0  0  0  0  0  0  0  0  0  0  0  0
   -2.7927   -0.8473   -0.4421 H   0  0  0  0  0  0  0  0  0  0  0  0
   -2.6461    0.9582   -0.5876 H   0  0  0  0  0  0  0  0  0  0  0  0
   -1.2446    0.2813   -2.3618 H   0  0  0  0  0  0  0  0  0  0  0  0
   -0.8598   -2.2657   -0.2799 H   0  0  0  0  0  0  0  0  0  0  0  0
   -0.6563   -1.3723    1.2449 H   0  0  0  0  0  0  0  0  0  0  0  0
    1.4070   -2.3981    0.9204 H   0  0  0  0  0  0  0  0  0  0  0  0
    1.3550   -2.2333   -0.8431 H   0  0  0  0  0  0  0  0  0  0  0  0
    2.5577   -0.4815    1.2130 H   0  0  0  0  0  0  0  0  0  0  0  0
    2.9023   -0.6251   -0.5091 H   0  0  0  0  0  0  0  0  0  0  0  0
    1.7807    1.2716   -1.0213 H   0  0  0  0  0  0  0  0  0  0  0  0
    1.6186    1.6710    1.7882 H   0  0  0  0  0  0  0  0  0  0  0  0
   -0.3280    1.1271    1.1302 H   0  0  0  0  0  0  0  0  0  0  0  0
    0.1124    2.2895   -1.4307 H   0  0  0  0  0  0  0  0  0  0  0  0
  1  2  1  0
  2  3  1  0
  3  4  1  6
  3  5  1  0
  5  6  1  0
  6  7  1  0
  7  8  1  0
  8  9  1  0
  8 10  1  0
 10 11  1  0
 10  3  1  0
  1 12  1  0
  2 13  1  0
  2 14  1  0
  4 15  1  0
  5 16  1  0
  5 17  1  0
  6 18  1  0
  6 19  1  0
  7 20  1  0
  7 21  1  0
  8 22  1  6
  9 23  1  0
 10 24  1  1
 11 25  1  0
M  END
$$$$

     RDKit          3D

 25 25  0  0  0  0  0  0  0  0999 V2000
    2.6404    1.0247   -0.9047 O   0  0  0  0  0  0  0  0  0  0  0  0
    2.1587   -0.2749   -0.6392 C   0  0  0  0  0  0  0  0  0  0  0  0
    0.8241   -0.1317    0.0070 C   0  0  2  0  0  0  0  0  0  0  0  0
    0.9728    0.5896    1.1836 O   0  0  0  0  0  0  0  0  0  0  0  0
    0.2335   -1.4678    0.3567 C   0  0  0  0  0  0  0  0  0  0  0  0
   -1.1799   -1.4323    0.7864 C   0  0  0  0  0  0  0  0  0  0  0  0
   -2.0427   -0.4205    0.1271 C   0  0  0  0  0  0  0  0  0  0  0  0
   -1.3547    0.9103   -0.0724 C   0  0  2  0  0  0  0  0  0  0  0  0
   -2.1828    1.8151   -0.6748 O   0  0  0  0  0  0  0  0  0  0  0  0
   -0.1095    0.5996   -0.9159 C   0  0  1  0  0  0  0  0  0  0  0  0
    0.4394    1.7212   -1.4717 O   0  0  0  0  0  0  0  0  0  0  0  0
    3.5990    1.0625   -0.7033 H   0  0  0  0  0  0  0  0  0  0  0  0
    2.8641   -0.7973    0.0204 H   0  0  0  0  0  0  0  0  0  0  0  0
    2.1085   -0.7810   -1.6309 H   0  0  0  0  0  0  0  0  0  0  0  0
    1.8451    0.3292    1.5829 H   0  0  0  0  0  0  0  0  0  0  0  0
    0.8444   -1.8647    1.2208 H   0  0  0  0  0  0  0  0  0  0  0  0
    0.4152   -2.1672   -0.4717 H   0  0  0  0  0  0  0  0  0  0  0  0
   -1.2535   -1.2963    1.8972 H   0  0  0  0  0  0  0  0  0  0  0  0
   -1.6290   -2.4466    0.5706 H   0  0  0  0  0  0  0  0  0  0  0  0
   -2.4570   -0.7801   -0.8474 H   0  0  0  0  0  0  0  0  0  0  0  0
   -2.9315   -0.2129    0.7819 H   0  0  0  0  0  0  0  0  0  0  0  0
   -0.9863    1.2275    0.9282 H   0  0  0  0  0  0  0  0  0  0  0  0
   -2.1101    2.6773   -0.1831 H   0  0  0  0  0  0  0  0  0  0  0  0
   -0.4429   -0.1227   -1.6979 H   0  0  0  0  0  0  0  0  0  0  0  0
   -0.2655    2.2389   -1.9085 H   0  0  0  0  0  0  0  0  0  0  0  0
  1  2  1  0
  2  3  1  0
  3  4  1  1
  3  5  1  0
  5  6  1  0
  6  7  1  0
  7  8  1  0
  8  9  1  0
  8 10  1  0
 10 11  1  0
 10  3  1  0
  1 12  1  0
  2 13  1  0
  2 14  1  0
  4 15  1  0
  5 16  1  0
  5 17  1  0
  6 18  1  0
  6 19  1  0
  7 20  1  0
  7 21  1  0
  8 22  1  1
  9 23  1  0
 10 24  1  6
 11 25  1  0
M  END
$$$$

     RDKit          3D

 25 25  0  0  0  0  0  0  0  0999 V2000
    2.7474   -0.8064    0.7343 O   0  0  0  0  0  0  0  0  0  0  0  0
    2.0663    0.3531    0.4325 C   0  0  0  0  0  0  0  0  0  0  0  0
    0.8647    0.0657   -0.4551 C   0  0  2  0  0  0  0  0  0  0  0  0
    1.3628   -0.5211   -1.6283 O   0  0  0  0  0  0  0  0  0  0  0  0
    0.1273    1.3352   -0.7722 C   0  0  0  0  0  0  0  0  0  0  0  0
   -0.8607    1.5953    0.3565 C   0  0  0  0  0  0  0  0  0  0  0  0
   -1.9668    0.5862    0.3163 C   0  0  0  0  0  0  0  0  0  0  0  0
   -1.4657   -0.6523   -0.3858 C   0  0  2  0  0  0  0  0  0  0  0  0
   -2.2688   -1.7291   -0.0922 O   0  0  0  0  0  0  0  0  0  0  0  0
   -0.0660   -0.9284    0.1739 C   0  0  1  0  0  0  0  0  0  0  0  0
    0.2552   -2.2395   -0.1428 O   0  0  0  0  0  0  0  0  0  0  0  0
    2.6130   -1.0730    1.6792 H   0  0  0  0  0  0  0  0  0  0  0  0
    1.7087    0.8947    1.3419 H   0  0  0  0  0  0  0  0  0  0  0  0
    2.7556    1.0164   -0.1299 H   0  0  0  0  0  0  0  0  0  0  0  0
    2.0464   -1.1779   -1.3225 H   0  0  0  0  0  0  0  0  0  0  0  0
    0.8497    2.1929   -0.8247 H   0  0  0  0  0  0  0  0  0  0  0  0
   -0.3606    1.2417   -1.7460 H   0  0  0  0  0  0  0  0  0  0  0  0
   -0.2767    1.4419    1.3062 H   0  0  0  0  0  0  0  0  0  0  0  0
   -1.2534    2.6324    0.3364 H   0  0  0  0  0  0  0  0  0  0  0  0
   -2.2092    0.2725    1.3669 H   0  0  0  0  0  0  0  0  0  0  0  0
   -2.8912    0.9784   -0.1084 H   0  0  0  0  0  0  0  0  0  0  0  0
   -1.3978   -0.5242   -1.4896 H   0  0  0  0  0  0  0  0  0  0  0  0
   -2.3273   -1.7942    0.8979 H   0  0  0  0  0  0  0  0  0  0  0  0
   -0.1012   -0.8017    1.2710 H   0  0  0  0  0  0  0  0  0  0  0  0
    0.0485   -2.3586   -1.1154 H   0  0  0  0  0  0  0  0  0  0  0  0
  1  2  1  0
  2  3  1  0
  3  4  1  6
  3  5  1  0
  5  6  1  0
  6  7  1  0
  7  8  1  0
  8  9  1  0
  8 10  1  0
 10 11  1  0
 10  3  1  0
  1 12  1  0
  2 13  1  0
  2 14  1  0
  4 15  1  0
  5 16  1  0
  5 17  1  0
  6 18  1  0
  6 19  1  0
  7 20  1  0
  7 21  1  0
  8 22  1  6
  9 23  1  0
 10 24  1  1
 11 25  1  0
M  END
$$$$

     RDKit          3D

 25 25  0  0  0  0  0  0  0  0999 V2000
    2.6239    0.8914   -0.3841 O   0  0  0  0  0  0  0  0  0  0  0  0
    1.7041   -0.0404   -0.8911 C   0  0  0  0  0  0  0  0  0  0  0  0
    0.8597   -0.4935    0.2794 C   0  0  2  0  0  0  0  0  0  0  0  0
    1.7508   -1.0689    1.2052 O   0  0  0  0  0  0  0  0  0  0  0  0
   -0.1115   -1.5728   -0.0980 C   0  0  0  0  0  0  0  0  0  0  0  0
   -1.1089   -1.0044   -1.0657 C   0  0  0  0  0  0  0  0  0  0  0  0
   -1.9132    0.0167   -0.3109 C   0  0  0  0  0  0  0  0  0  0  0  0
   -1.1079    1.0790    0.3397 C   0  0  2  0  0  0  0  0  0  0  0  0
   -0.8714    2.1049   -0.5865 O   0  0  0  0  0  0  0  0  0  0  0  0
    0.1725    0.6335    0.9570 C   0  0  1  0  0  0  0  0  0  0  0  0
   -0.0598    0.2736    2.2965 O   0  0  0  0  0  0  0  0  0  0  0  0
    3.3964    1.0024   -1.0149 H   0  0  0  0  0  0  0  0  0  0  0  0
    1.1344    0.4196   -1.6987 H   0  0  0  0  0  0  0  0  0  0  0  0
    2.3053   -0.8689   -1.3161 H   0  0  0  0  0  0  0  0  0  0  0  0
    1.5088   -0.8727    2.1241 H   0  0  0  0  0  0  0  0  0  0  0  0
    0.3747   -2.4936   -0.4617 H   0  0  0  0  0  0  0  0  0  0  0  0
   -0.6667   -1.8524    0.8206 H   0  0  0  0  0  0  0  0  0  0  0  0
   -1.8101   -1.7992   -1.3975 H   0  0  0  0  0  0  0  0  0  0  0  0
   -0.6645   -0.5123   -1.9379 H   0  0  0  0  0  0  0  0  0  0  0  0
   -2.6487    0.5073   -0.9918 H   0  0  0  0  0  0  0  0  0  0  0  0
   -2.5382   -0.5464    0.4315 H   0  0  0  0  0  0  0  0  0  0  0  0
   -1.7324    1.5405    1.1459 H   0  0  0  0  0  0  0  0  0  0  0  0
   -1.5294    2.1043   -1.3234 H   0  0  0  0  0  0  0  0  0  0  0  0
    0.8600    1.5062    0.9934 H   0  0  0  0  0  0  0  0  0  0  0  0
    0.0722    1.0462    2.8850 H   0  0  0  0  0  0  0  0  0  0  0  0
  1  2  1  0
  2  3  1  0
  3  4  1  1
  3  5  1  0
  5  6  1  0
  6  7  1  0
  7  8  1  0
  8  9  1  0
  8 10  1  0
 10 11  1  0
 10  3  1  0
  1 12  1  0
  2 13  1  0
  2 14  1  0
  4 15  1  0
  5 16  1  0
  5 17  1  0
  6 18  1  0
  6 19  1  0
  7 20  1  0
  7 21  1  0
  8 22  1  1
  9 23  1  0
 10 24  1  1
 11 25  1  0
M  END
$$$$

     RDKit          3D

 25 25  0  0  0  0  0  0  0  0999 V2000
    2.9466   -0.6224    0.8562 O   0  0  0  0  0  0  0  0  0  0  0  0
    2.1975    0.4998    0.5758 C   0  0  0  0  0  0  0  0  0  0  0  0
    0.8706    0.1532   -0.1058 C   0  0  2  0  0  0  0  0  0  0  0  0
    1.0860   -0.5034   -1.2958 O   0  0  0  0  0  0  0  0  0  0  0  0
    0.1226    1.4570   -0.3146 C   0  0  0  0  0  0  0  0  0  0  0  0
   -1.2960    1.3898    0.1797 C   0  0  0  0  0  0  0  0  0  0  0  0
   -1.9270    0.1543   -0.4621 C   0  0  0  0  0  0  0  0  0  0  0  0
   -1.2217   -1.0860    0.0134 C   0  0  2  0  0  0  0  0  0  0  0  0
   -2.0620   -1.8715    0.7660 O   0  0  0  0  0  0  0  0  0  0  0  0
    0.0344   -0.7157    0.7894 C   0  0  1  0  0  0  0  0  0  0  0  0
    0.6883   -1.8919    1.1493 O   0  0  0  0  0  0  0  0  0  0  0  0
    2.7311   -1.3206    0.1673 H   0  0  0  0  0  0  0  0  0  0  0  0
    2.7738    1.1296   -0.1614 H   0  0  0  0  0  0  0  0  0  0  0  0
    2.0134    1.1552    1.4415 H   0  0  0  0  0  0  0  0  0  0  0  0
    2.0145   -0.4633   -1.6254 H   0  0  0  0  0  0  0  0  0  0  0  0
    0.6704    2.3192    0.1007 H   0  0  0  0  0  0  0  0  0  0  0  0
    0.0589    1.6482   -1.4248 H   0  0  0  0  0  0  0  0  0  0  0  0
   -1.8354    2.2657   -0.2781 H   0  0  0  0  0  0  0  0  0  0  0  0
   -1.3986    1.4032    1.2633 H   0  0  0  0  0  0  0  0  0  0  0  0
   -3.0106    0.1209   -0.2969 H   0  0  0  0  0  0  0  0  0  0  0  0
   -1.7491    0.2872   -1.5679 H   0  0  0  0  0  0  0  0  0  0  0  0
   -0.8754   -1.6976   -0.8486 H   0  0  0  0  0  0  0  0  0  0  0  0
   -2.7607   -1.3076    1.1941 H   0  0  0  0  0  0  0  0  0  0  0  0
   -0.1973   -0.1815    1.7295 H   0  0  0  0  0  0  0  0  0  0  0  0
    0.1257   -2.3216    1.8589 H   0  0  0  0  0  0  0  0  0  0  0  0
  1  2  1  0
  2  3  1  0
  3  4  1  6
  3  5  1  0
  5  6  1  0
  6  7  1  0
  7  8  1  0
  8  9  1  0
  8 10  1  0
 10 11  1  0
 10  3  1  0
  1 12  1  0
  2 13  1  0
  2 14  1  0
  4 15  1  0
  5 16  1  0
  5 17  1  0
  6 18  1  0
  6 19  1  0
  7 20  1  0
  7 21  1  0
  8 22  1  6
  9 23  1  0
 10 24  1  1
 11 25  1  0
M  END
$$$$

     RDKit          3D

 25 25  0  0  0  0  0  0  0  0999 V2000
    2.7088    0.0202   -1.4019 O   0  0  0  0  0  0  0  0  0  0  0  0
    2.2046   -0.1351   -0.1314 C   0  0  0  0  0  0  0  0  0  0  0  0
    0.7179   -0.1708   -0.0539 C   0  0  2  0  0  0  0  0  0  0  0  0
    0.3745   -0.3328    1.3027 O   0  0  0  0  0  0  0  0  0  0  0  0
    0.1157   -1.3719   -0.7725 C   0  0  0  0  0  0  0  0  0  0  0  0
   -1.2853   -1.5226   -0.2025 C   0  0  0  0  0  0  0  0  0  0  0  0
   -2.0976   -0.2873   -0.3658 C   0  0  0  0  0  0  0  0  0  0  0  0
   -1.3975    0.9796   -0.0020 C   0  0  2  0  0  0  0  0  0  0  0  0
   -2.1394    2.0732   -0.3546 O   0  0  0  0  0  0  0  0  0  0  0  0
    0.0215    1.0335   -0.5679 C   0  0  1  0  0  0  0  0  0  0  0  0
    0.5773    2.2347   -0.2212 O   0  0  0  0  0  0  0  0  0  0  0  0
    3.6947    0.1490   -1.3102 H   0  0  0  0  0  0  0  0  0  0  0  0
    2.5664    0.6200    0.5962 H   0  0  0  0  0  0  0  0  0  0  0  0
    2.5815   -1.1176    0.2501 H   0  0  0  0  0  0  0  0  0  0  0  0
    0.8621   -1.1697    1.5801 H   0  0  0  0  0  0  0  0  0  0  0  0
    0.6996   -2.2695   -0.5821 H   0  0  0  0  0  0  0  0  0  0  0  0
   -0.0247   -1.1617   -1.8645 H   0  0  0  0  0  0  0  0  0  0  0  0
   -1.1383   -1.6804    0.9061 H   0  0  0  0  0  0  0  0  0  0  0  0
   -1.8230   -2.3721   -0.6226 H   0  0  0  0  0  0  0  0  0  0  0  0
   -2.9880   -0.3787    0.3129 H   0  0  0  0  0  0  0  0  0  0  0  0
   -2.4854   -0.1987   -1.3954 H   0  0  0  0  0  0  0  0  0  0  0  0
   -1.2651    0.9978    1.1135 H   0  0  0  0  0  0  0  0  0  0  0  0
   -1.9125    2.8655    0.2298 H   0  0  0  0  0  0  0  0  0  0  0  0
   -0.1115    0.9692   -1.6879 H   0  0  0  0  0  0  0  0  0  0  0  0
    1.5435    2.2259   -0.1363 H   0  0  0  0  0  0  0  0  0  0  0  0
  1  2  1  0
  2  3  1  0
  3  4  1  1
  3  5  1  0
  5  6  1  0
  6  7  1  0
  7  8  1  0
  8  9  1  0
  8 10  1  0
 10 11  1  0
 10  3  1  0
  1 12  1  0
  2 13  1  0
  2 14  1  0
  4 15  1  0
  5 16  1  0
  5 17  1  0
  6 18  1  0
  6 19  1  0
  7 20  1  0
  7 21  1  0
  8 22  1  1
  9 23  1  0
 10 24  1  6
 11 25  1  0
M  END
$$$$

     RDKit          3D

 25 25  0  0  0  0  0  0  0  0999 V2000
   -2.7868    1.2609   -0.1951 O   0  0  0  0  0  0  0  0  0  0  0  0
   -2.3216    0.0576    0.2855 C   0  0  0  0  0  0  0  0  0  0  0  0
   -0.9054   -0.1416   -0.1737 C   0  0  2  0  0  0  0  0  0  0  0  0
   -0.8930   -0.1423   -1.5635 O   0  0  0  0  0  0  0  0  0  0  0  0
   -0.3416   -1.4761    0.2805 C   0  0  0  0  0  0  0  0  0  0  0  0
    0.9094   -1.6541   -0.5490 C   0  0  0  0  0  0  0  0  0  0  0  0
    1.9226   -0.6069   -0.3005 C   0  0  0  0  0  0  0  0  0  0  0  0
    1.4275    0.7425    0.0428 C   0  0  2  0  0  0  0  0  0  0  0  0
    2.2012    1.2432    1.1181 O   0  0  0  0  0  0  0  0  0  0  0  0
    0.0073    0.8942    0.3966 C   0  0  1  0  0  0  0  0  0  0  0  0
   -0.5013    2.1660    0.0489 O   0  0  0  0  0  0  0  0  0  0  0  0
   -2.8876    1.9015    0.5390 H   0  0  0  0  0  0  0  0  0  0  0  0
   -2.9884   -0.7587   -0.0601 H   0  0  0  0  0  0  0  0  0  0  0  0
   -2.3593    0.0104    1.4086 H   0  0  0  0  0  0  0  0  0  0  0  0
   -0.5498    0.6904   -1.9404 H   0  0  0  0  0  0  0  0  0  0  0  0
   -1.0302   -2.3054    0.1724 H   0  0  0  0  0  0  0  0  0  0  0  0
   -0.0478   -1.3791    1.3598 H   0  0  0  0  0  0  0  0  0  0  0  0
    1.3400   -2.6682   -0.3546 H   0  0  0  0  0  0  0  0  0  0  0  0
    0.5844   -1.6693   -1.6196 H   0  0  0  0  0  0  0  0  0  0  0  0
    2.6189   -1.0006    0.4992 H   0  0  0  0  0  0  0  0  0  0  0  0
    2.5850   -0.5590   -1.2164 H   0  0  0  0  0  0  0  0  0  0  0  0
    1.6551    1.4539   -0.8056 H   0  0  0  0  0  0  0  0  0  0  0  0
    2.4057    0.5094    1.7532 H   0  0  0  0  0  0  0  0  0  0  0  0
   -0.1078    0.8427    1.5193 H   0  0  0  0  0  0  0  0  0  0  0  0
    0.0636    2.5887   -0.6453 H   0  0  0  0  0  0  0  0  0  0  0  0
  1  2  1  0
  2  3  1  0
  3  4  1  6
  3  5  1  0
  5  6  1  0
  6  7  1  0
  7  8  1  0
  8  9  1  0
  8 10  1  0
 10 11  1  0
 10  3  1  0
  1 12  1  0
  2 13  1  0
  2 14  1  0
  4 15  1  0
  5 16  1  0
  5 17  1  0
  6 18  1  0
  6 19  1  0
  7 20  1  0
  7 21  1  0
  8 22  1  6
  9 23  1  0
 10 24  1  1
 11 25  1  0
M  END
$$$$
