
     RDKit          3D

 25 25  0  0  0  0  0  0  0  0999 V2000
    3.0245    0.8046    0.5769 C   0  0  0  0  0  0  0  0  0  0  0  0
    2.3264   -0.1332   -0.3355 C   0  0  0  0  0  0  0  0  0  0  0  0
    2.8931   -1.0795   -0.8623 O   0  0  0  0  0  0  0  0  0  0  0  0
    0.8835    0.0587   -0.6402 C   0  0  2  0  0  0  0  0  0  0  0  0
    0.4165    1.1597    0.0324 O   0  0  0  0  0  0  0  0  0  0  0  0
   -0.8850    1.3925   -0.4401 C   0  0  2  0  0  0  0  0  0  0  0  0
   -1.2854    2.6988   -0.2013 O   0  0  0  0  0  0  0  0  0  0  0  0
   -1.7554    0.3806    0.2651 C   0  0  2  0  0  0  0  0  0  0  0  0
   -1.6426    0.5726    1.6278 O   0  0  0  0  0  0  0  0  0  0  0  0
   -1.3535   -1.0001   -0.1659 C   0  0  2  0  0  0  0  0  0  0  0  0
   -1.7970   -1.9265    0.7895 O   0  0  0  0  0  0  0  0  0  0  0  0
    0.0910   -1.1900   -0.4064 C   0  0  2  0  0  0  0  0  0  0  0  0
    0.7232   -1.9254    0.6074 O   0  0  0  0  0  0  0  0  0  0  0  0
    4.1359    0.6611    0.4835 H   0  0  0  0  0  0  0  0  0  0  0  0
    2.7977    1.8661    0.2698 H   0  0  0  0  0  0  0  0  0  0  0  0
    2.7115    0.5981    1.6092 H   0  0  0  0  0  0  0  0  0  0  0  0
    0.8404    0.3130   -1.7405 H   0  0  0  0  0  0  0  0  0  0  0  0
   -0.8968    1.2127   -1.5449 H   0  0  0  0  0  0  0  0  0  0  0  0
   -2.0107    2.9140   -0.8302 H   0  0  0  0  0  0  0  0  0  0  0  0
   -2.8158    0.6075   -0.0235 H   0  0  0  0  0  0  0  0  0  0  0  0
   -2.2592   -0.0857    2.0668 H   0  0  0  0  0  0  0  0  0  0  0  0
   -1.9585   -1.2279   -1.0916 H   0  0  0  0  0  0  0  0  0  0  0  0
   -2.7863   -1.9812    0.8099 H   0  0  0  0  0  0  0  0  0  0  0  0
    0.2063   -1.8206   -1.3373 H   0  0  0  0  0  0  0  0  0  0  0  0
    0.3960   -2.8696    0.4814 H   0  0  0  0  0  0  0  0  0  0  0  0
  1  2  1  0
  2  3  2  0
  2  4  1  0
  4  5  1  0
  5  6  1  0
  6  7  1  0
  6  8  1  0
  8  9  1  0
  8 10  1  0
 10 11  1  0
 10 12  1  0
 12 13  1  0
 12  4  1  0
  1 14  1  0
  1 15  1  0
  1 16  1  0
  4 17  1  6
  6 18  1  6
  7 19  1  0
  8 20  1  6
  9 21  1  0
 10 22  1  6
 11 23  1  0
 12 24  1  6
 13 25  1  0
M  END
$$$$

     RDKit          3D

 25 25  0  0  0  0  0  0  0  0999 V2000
    3.3013    0.2226    0.3740 C   0  0  0  0  0  0  0  0  0  0  0  0
    2.0720    0.8923    0.8105 C   0  0  0  0  0  0  0  0  0  0  0  0
    2.1073    1.6982    1.7197 O   0  0  0  0  0  0  0  0  0  0  0  0
    0.7905    0.6065    0.1663 C   0  0  2  0  0  0  0  0  0  0  0  0
   -0.2571    1.3423    0.7226 O   0  0  0  0  0  0  0  0  0  0  0  0
   -1.2620    1.3824   -0.2394 C   0  0  2  0  0  0  0  0  0  0  0  0
   -2.2626    2.2909    0.0769 O   0  0  0  0  0  0  0  0  0  0  0  0
   -1.8622    0.0179   -0.4096 C   0  0  2  0  0  0  0  0  0  0  0  0
   -2.6641   -0.2489    0.6893 O   0  0  0  0  0  0  0  0  0  0  0  0
   -0.8156   -1.0358   -0.6512 C   0  0  2  0  0  0  0  0  0  0  0  0
   -1.3197   -2.3139   -0.3725 O   0  0  0  0  0  0  0  0  0  0  0  0
    0.4173   -0.8527    0.1842 C   0  0  2  0  0  0  0  0  0  0  0  0
    0.1928   -1.3463    1.4562 O   0  0  0  0  0  0  0  0  0  0  0  0
    3.4645   -0.7195    0.9583 H   0  0  0  0  0  0  0  0  0  0  0  0
    3.1875   -0.0822   -0.7043 H   0  0  0  0  0  0  0  0  0  0  0  0
    4.2126    0.8544    0.4407 H   0  0  0  0  0  0  0  0  0  0  0  0
    0.8646    0.9072   -0.9013 H   0  0  0  0  0  0  0  0  0  0  0  0
   -0.7992    1.6871   -1.1914 H   0  0  0  0  0  0  0  0  0  0  0  0
   -2.1183    2.6186    1.0088 H   0  0  0  0  0  0  0  0  0  0  0  0
   -2.5479    0.0641   -1.2967 H   0  0  0  0  0  0  0  0  0  0  0  0
   -3.4364   -0.8209    0.4471 H   0  0  0  0  0  0  0  0  0  0  0  0
   -0.5314   -0.9714   -1.7379 H   0  0  0  0  0  0  0  0  0  0  0  0
   -2.2412   -2.4308   -0.6740 H   0  0  0  0  0  0  0  0  0  0  0  0
    1.2410   -1.4114   -0.3313 H   0  0  0  0  0  0  0  0  0  0  0  0
    0.2661   -2.3506    1.3838 H   0  0  0  0  0  0  0  0  0  0  0  0
  1  2  1  0
  2  3  2  0
  2  4  1  0
  4  5  1  0
  5  6  1  0
  6  7  1  0
  6  8  1  0
  8  9  1  0
  8 10  1  0
 10 11  1  0
 10 12  1  0
 12 13  1  0
 12  4  1  0
  1 14  1  0
  1 15  1  0
  1 16  1  0
  4 17  1  6
  6 18  1  6
  7 19  1  0
  8 20  1  6
  9 21  1  0
 10 22  1  6
 11 23  1  0
 12 24  1  6
 13 25  1  0
M  END
$$$$

     RDKit          3D

 25 25  0  0  0  0  0  0  0  0999 V2000
   -3.2355    0.4345    0.1694 C   0  0  0  0  0  0  0  0  0  0  0  0
   -2.0514    0.3546   -0.7241 C   0  0  0  0  0  0  0  0  0  0  0  0
   -2.2367    0.1216   -1.9023 O   0  0  0  0  0  0  0  0  0  0  0  0
   -0.6989    0.5518   -0.1966 C   0  0  2  0  0  0  0  0  0  0  0  0
    0.2906    0.4425   -1.1714 O   0  0  0  0  0  0  0  0  0  0  0  0
    1.4419    1.0112   -0.5806 C   0  0  2  0  0  0  0  0  0  0  0  0
    2.3920    1.3548   -1.5041 O   0  0  0  0  0  0  0  0  0  0  0  0
    1.9577    0.1408    0.5365 C   0  0  2  0  0  0  0  0  0  0  0  0
    3.2280   -0.3549    0.2515 O   0  0  0  0  0  0  0  0  0  0  0  0
    0.9801   -0.9983    0.7352 C   0  0  2  0  0  0  0  0  0  0  0  0
    0.9557   -1.7224   -0.4765 O   0  0  0  0  0  0  0  0  0  0  0  0
   -0.3864   -0.3586    0.9773 C   0  0  2  0  0  0  0  0  0  0  0  0
   -1.3613   -1.3134    1.1857 O   0  0  0  0  0  0  0  0  0  0  0  0
   -3.0427    1.1242    1.0378 H   0  0  0  0  0  0  0  0  0  0  0  0
   -4.1001    0.8614   -0.3807 H   0  0  0  0  0  0  0  0  0  0  0  0
   -3.4957   -0.5472    0.6165 H   0  0  0  0  0  0  0  0  0  0  0  0
   -0.6115    1.6097    0.1927 H   0  0  0  0  0  0  0  0  0  0  0  0
    1.0728    1.9611   -0.1107 H   0  0  0  0  0  0  0  0  0  0  0  0
    2.6389    0.6291   -2.1232 H   0  0  0  0  0  0  0  0  0  0  0  0
    2.0237    0.6813    1.5078 H   0  0  0  0  0  0  0  0  0  0  0  0
    3.6565    0.3110   -0.3531 H   0  0  0  0  0  0  0  0  0  0  0  0
    1.2529   -1.6483    1.5856 H   0  0  0  0  0  0  0  0  0  0  0  0
    0.6068   -2.6327   -0.3436 H   0  0  0  0  0  0  0  0  0  0  0  0
   -0.2846    0.2131    1.9323 H   0  0  0  0  0  0  0  0  0  0  0  0
   -0.9928   -2.2269    1.3150 H   0  0  0  0  0  0  0  0  0  0  0  0
  1  2  1  0
  2  3  2  0
  2  4  1  0
  4  5  1  0
  5  6  1  0
  6  7  1  0
  6  8  1  0
  8  9  1  0
  8 10  1  0
 10 11  1  0
 10 12  1  0
 12 13  1  0
 12  4  1  0
  1 14  1  0
  1 15  1  0
  1 16  1  0
  4 17  1  1
  6 18  1  1
  7 19  1  0
  8 20  1  1
  9 21  1  0
 10 22  1  1
 11 23  1  0
 12 24  1  1
 13 25  1  0
M  END
$$$$

     RDKit          3D

 25 25  0  0  0  0  0  0  0  0999 V2000
    3.2952   -0.2004   -0.2476 C   0  0  0  0  0  0  0  0  0  0  0  0
    1.9751   -0.8620   -0.4334 C   0  0  0  0  0  0  0  0  0  0  0  0
    1.9258   -1.7914   -1.2185 O   0  0  0  0  0  0  0  0  0  0  0  0
    0.7593   -0.4531    0.2712 C   0  0  2  0  0  0  0  0  0  0  0  0
   -0.2985   -1.2465   -0.1041 O   0  0  0  0  0  0  0  0  0  0  0  0
   -1.4922   -0.9416    0.5086 C   0  0  2  0  0  0  0  0  0  0  0  0
   -2.4674   -1.7898   -0.0654 O   0  0  0  0  0  0  0  0  0  0  0  0
   -1.9634    0.4712    0.2332 C   0  0  2  0  0  0  0  0  0  0  0  0
   -3.2252    0.5360   -0.2970 O   0  0  0  0  0  0  0  0  0  0  0  0
   -0.9079    1.0907   -0.6946 C   0  0  2  0  0  0  0  0  0  0  0  0
   -0.7813    0.2680   -1.8275 O   0  0  0  0  0  0  0  0  0  0  0  0
    0.3977    0.9931    0.0790 C   0  0  2  0  0  0  0  0  0  0  0  0
    1.3612    1.7178   -0.5975 O   0  0  0  0  0  0  0  0  0  0  0  0
    4.1396   -0.9162   -0.3921 H   0  0  0  0  0  0  0  0  0  0  0  0
    3.4173    0.2078    0.7808 H   0  0  0  0  0  0  0  0  0  0  0  0
    3.4611    0.5967   -1.0272 H   0  0  0  0  0  0  0  0  0  0  0  0
    0.9570   -0.6004    1.3729 H   0  0  0  0  0  0  0  0  0  0  0  0
   -1.4496   -1.1574    1.6017 H   0  0  0  0  0  0  0  0  0  0  0  0
   -2.7539   -2.4835    0.5638 H   0  0  0  0  0  0  0  0  0  0  0  0
   -1.9091    1.0922    1.1722 H   0  0  0  0  0  0  0  0  0  0  0  0
   -3.6326   -0.3162   -0.5204 H   0  0  0  0  0  0  0  0  0  0  0  0
   -1.1581    2.1202   -0.9667 H   0  0  0  0  0  0  0  0  0  0  0  0
   -1.5417   -0.3503   -1.9125 H   0  0  0  0  0  0  0  0  0  0  0  0
    0.2175    1.5023    1.0480 H   0  0  0  0  0  0  0  0  0  0  0  0
    1.6743    2.5127   -0.0747 H   0  0  0  0  0  0  0  0  0  0  0  0
  1  2  1  0
  2  3  2  0
  2  4  1  0
  4  5  1  0
  5  6  1  0
  6  7  1  0
  6  8  1  0
  8  9  1  0
  8 10  1  0
 10 11  1  0
 10 12  1  0
 12 13  1  0
 12  4  1  0
  1 14  1  0
  1 15  1  0
  1 16  1  0
  4 17  1  1
  6 18  1  1
  7 19  1  0
  8 20  1  1
  9 21  1  0
 10 22  1  6
 11 23  1  0
 12 24  1  1
 13 25  1  0
M  END
$$$$

     RDKit          3D

 25 25  0  0  0  0  0  0  0  0999 V2000
    2.9188   -0.0013    0.8410 C   0  0  0  0  0  0  0  0  0  0  0  0
    2.1950   -0.1383   -0.4679 C   0  0  0  0  0  0  0  0  0  0  0  0
    2.8404   -0.6213   -1.3966 O   0  0  0  0  0  0  0  0  0  0  0  0
    0.7800    0.2821   -0.6433 C   0  0  2  0  0  0  0  0  0  0  0  0
    0.3472    0.7803    0.5831 O   0  0  0  0  0  0  0  0  0  0  0  0
   -0.8231    1.4964    0.3161 C   0  0  2  0  0  0  0  0  0  0  0  0
   -1.0452    2.3205    1.4159 O   0  0  0  0  0  0  0  0  0  0  0  0
   -1.9175    0.5137    0.0801 C   0  0  2  0  0  0  0  0  0  0  0  0
   -2.5114    0.2437    1.3345 O   0  0  0  0  0  0  0  0  0  0  0  0
   -1.5056   -0.7583   -0.5582 C   0  0  2  0  0  0  0  0  0  0  0  0
   -1.7144   -1.8382    0.3305 O   0  0  0  0  0  0  0  0  0  0  0  0
   -0.1244   -0.8082   -1.0849 C   0  0  2  0  0  0  0  0  0  0  0  0
    0.4812   -2.0323   -0.7343 O   0  0  0  0  0  0  0  0  0  0  0  0
    3.8438    0.6024    0.7164 H   0  0  0  0  0  0  0  0  0  0  0  0
    3.0906   -0.9955    1.2721 H   0  0  0  0  0  0  0  0  0  0  0  0
    2.2521    0.6197    1.4951 H   0  0  0  0  0  0  0  0  0  0  0  0
    0.7007    1.1331   -1.3738 H   0  0  0  0  0  0  0  0  0  0  0  0
   -0.6479    2.1386   -0.5885 H   0  0  0  0  0  0  0  0  0  0  0  0
   -0.1409    2.6962    1.6575 H   0  0  0  0  0  0  0  0  0  0  0  0
   -2.7242    1.0497   -0.4961 H   0  0  0  0  0  0  0  0  0  0  0  0
   -3.1317   -0.5346    1.2508 H   0  0  0  0  0  0  0  0  0  0  0  0
   -2.2257   -0.9604   -1.4049 H   0  0  0  0  0  0  0  0  0  0  0  0
   -1.1698   -1.6806    1.1263 H   0  0  0  0  0  0  0  0  0  0  0  0
   -0.1269   -0.8059   -2.2140 H   0  0  0  0  0  0  0  0  0  0  0  0
    0.3590   -2.7014   -1.4567 H   0  0  0  0  0  0  0  0  0  0  0  0
  1  2  1  0
  2  3  2  0
  2  4  1  0
  4  5  1  0
  5  6  1  0
  6  7  1  0
  6  8  1  0
  8  9  1  0
  8 10  1  0
 10 11  1  0
 10 12  1  0
 12 13  1  0
 12  4  1  0
  1 14  1  0
  1 15  1  0
  1 16  1  0
  4 17  1  6
  6 18  1  6
  7 19  1  0
  8 20  1  6
  9 21  1  0
 10 22  1  6
 11 23  1  0
 12 24  1  6
 13 25  1  0
M  END
$$$$

     RDKit          3D

 25 25  0  0  0  0  0  0  0  0999 V2000
    3.0473    0.2988    0.7162 C   0  0  0  0  0  0  0  0  0  0  0  0
    2.2068   -0.7156    0.0356 C   0  0  0  0  0  0  0  0  0  0  0  0
    2.5982   -1.8735    0.0011 O   0  0  0  0  0  0  0  0  0  0  0  0
    0.9231   -0.2881   -0.5779 C   0  0  2  0  0  0  0  0  0  0  0  0
    0.7520    1.0475   -0.3841 O   0  0  0  0  0  0  0  0  0  0  0  0
   -0.4947    1.5444   -0.6146 C   0  0  2  0  0  0  0  0  0  0  0  0
   -0.9738    2.0853    0.5999 O   0  0  0  0  0  0  0  0  0  0  0  0
   -1.5009    0.5733   -1.1176 C   0  0  2  0  0  0  0  0  0  0  0  0
   -2.7723    1.1769   -0.9767 O   0  0  0  0  0  0  0  0  0  0  0  0
   -1.5431   -0.7006   -0.3305 C   0  0  2  0  0  0  0  0  0  0  0  0
   -2.2866   -0.4613    0.8294 O   0  0  0  0  0  0  0  0  0  0  0  0
   -0.1662   -1.1405    0.0305 C   0  0  2  0  0  0  0  0  0  0  0  0
   -0.0093   -1.1729    1.4101 O   0  0  0  0  0  0  0  0  0  0  0  0
    3.8039   -0.1598    1.3643 H   0  0  0  0  0  0  0  0  0  0  0  0
    3.5100    0.9255   -0.0877 H   0  0  0  0  0  0  0  0  0  0  0  0
    2.3726    0.8909    1.3704 H   0  0  0  0  0  0  0  0  0  0  0  0
    1.0223   -0.4686   -1.6769 H   0  0  0  0  0  0  0  0  0  0  0  0
   -0.4650    2.4047   -1.3337 H   0  0  0  0  0  0  0  0  0  0  0  0
   -0.5751    1.5433    1.3533 H   0  0  0  0  0  0  0  0  0  0  0  0
   -1.4033    0.3374   -2.1869 H   0  0  0  0  0  0  0  0  0  0  0  0
   -2.9702    1.1484    0.0082 H   0  0  0  0  0  0  0  0  0  0  0  0
   -2.0873   -1.4678   -0.9068 H   0  0  0  0  0  0  0  0  0  0  0  0
   -2.6093   -1.3277    1.1428 H   0  0  0  0  0  0  0  0  0  0  0  0
   -0.0070   -2.1755   -0.3383 H   0  0  0  0  0  0  0  0  0  0  0  0
   -0.3722   -2.0245    1.7669 H   0  0  0  0  0  0  0  0  0  0  0  0
  1  2  1  0
  2  3  2  0
  2  4  1  0
  4  5  1  0
  5  6  1  0
  6  7  1  0
  6  8  1  0
  8  9  1  0
  8 10  1  0
 10 11  1  0
 10 12  1  0
 12 13  1  0
 12  4  1  0
  1 14  1  0
  1 15  1  0
  1 16  1  0
  4 17  1  6
  6 18  1  6
  7 19  1  0
  8 20  1  6
  9 21  1  0
 10 22  1  6
 11 23  1  0
 12 24  1  6
 13 25  1  0
M  END
$$$$

     RDKit          3D

 25 25  0  0  0  0  0  0  0  0999 V2000
    3.0602   -0.4464   -0.3725 C   0  0  0  0  0  0  0  0  0  0  0  0
    2.2229    0.2708    0.6145 C   0  0  0  0  0  0  0  0  0  0  0  0
    2.7840    1.1499    1.2750 O   0  0  0  0  0  0  0  0  0  0  0  0
    0.7976    0.0172    0.8613 C   0  0  2  0  0  0  0  0  0  0  0  0
    0.3619   -1.0076    0.0155 O   0  0  0  0  0  0  0  0  0  0  0  0
   -0.9314   -1.4159    0.3376 C   0  0  2  0  0  0  0  0  0  0  0  0
   -1.3578   -2.3276   -0.6101 O   0  0  0  0  0  0  0  0  0  0  0  0
   -1.8593   -0.2507    0.3363 C   0  0  2  0  0  0  0  0  0  0  0  0
   -3.0807   -0.4990   -0.2559 O   0  0  0  0  0  0  0  0  0  0  0  0
   -1.1490    0.9449   -0.2862 C   0  0  2  0  0  0  0  0  0  0  0  0
   -0.5570    0.6152   -1.5012 O   0  0  0  0  0  0  0  0  0  0  0  0
   -0.0092    1.2859    0.6776 C   0  0  2  0  0  0  0  0  0  0  0  0
    0.7321    2.3240    0.1486 O   0  0  0  0  0  0  0  0  0  0  0  0
    3.6453   -1.2248    0.1948 H   0  0  0  0  0  0  0  0  0  0  0  0
    3.7934    0.2454   -0.8558 H   0  0  0  0  0  0  0  0  0  0  0  0
    2.4696   -0.9410   -1.1644 H   0  0  0  0  0  0  0  0  0  0  0  0
    0.6610   -0.3492    1.8932 H   0  0  0  0  0  0  0  0  0  0  0  0
   -0.9538   -1.9288    1.3224 H   0  0  0  0  0  0  0  0  0  0  0  0
   -2.0588   -2.9422   -0.2589 H   0  0  0  0  0  0  0  0  0  0  0  0
   -2.0511    0.0397    1.3992 H   0  0  0  0  0  0  0  0  0  0  0  0
   -3.4548    0.3812   -0.5384 H   0  0  0  0  0  0  0  0  0  0  0  0
   -1.8101    1.7978   -0.4510 H   0  0  0  0  0  0  0  0  0  0  0  0
   -0.8745   -0.2269   -1.8768 H   0  0  0  0  0  0  0  0  0  0  0  0
   -0.4770    1.5850    1.6486 H   0  0  0  0  0  0  0  0  0  0  0  0
    0.0966    2.9031   -0.3545 H   0  0  0  0  0  0  0  0  0  0  0  0
  1  2  1  0
  2  3  2  0
  2  4  1  0
  4  5  1  0
  5  6  1  0
  6  7  1  0
  6  8  1  0
  8  9  1  0
  8 10  1  0
 10 11  1  0
 10 12  1  0
 12 13  1  0
 12  4  1  0
  1 14  1  0
  1 15  1  0
  1 16  1  0
  4 17  1  1
  6 18  1  1
  7 19  1  0
  8 20  1  1
  9 21  1  0
 10 22  1  6
 11 23  1  0
 12 24  1  1
 13 25  1  0
M  END
$$$$

     RDKit          3D

 25 25  0  0  0  0  0  0  0  0999 V2000
   -2.7981    0.6122   -1.0394 C   0  0  0  0  0  0  0  0  0  0  0  0
   -2.1694   -0.4797   -0.2561 C   0  0  0  0  0  0  0  0  0  0  0  0
   -2.6642   -1.5920   -0.3305 O   0  0  0  0  0  0  0  0  0  0  0  0
   -0.9720   -0.2274    0.5948 C   0  0  2  0  0  0  0  0  0  0  0  0
   -0.6301    1.0896    0.4954 O   0  0  0  0  0  0  0  0  0  0  0  0
    0.5409    1.3526    1.2247 C   0  0  2  0  0  0  0  0  0  0  0  0
    0.7116    2.7103    1.4439 O   0  0  0  0  0  0  0  0  0  0  0  0
    1.6550    0.7606    0.3791 C   0  0  2  0  0  0  0  0  0  0  0  0
    1.4487    1.0554   -0.9636 O   0  0  0  0  0  0  0  0  0  0  0  0
    1.4892   -0.7512    0.5190 C   0  0  2  0  0  0  0  0  0  0  0  0
    2.4174   -1.4054   -0.2890 O   0  0  0  0  0  0  0  0  0  0  0  0
    0.0950   -1.1987    0.2130 C   0  0  2  0  0  0  0  0  0  0  0  0
    0.0247   -1.5148   -1.1443 O   0  0  0  0  0  0  0  0  0  0  0  0
   -2.2522    0.7207   -2.0113 H   0  0  0  0  0  0  0  0  0  0  0  0
   -3.8668    0.4108   -1.2623 H   0  0  0  0  0  0  0  0  0  0  0  0
   -2.7946    1.5737   -0.4630 H   0  0  0  0  0  0  0  0  0  0  0  0
   -1.3011   -0.4258    1.6491 H   0  0  0  0  0  0  0  0  0  0  0  0
    0.4398    0.7808    2.1705 H   0  0  0  0  0  0  0  0  0  0  0  0
    1.6468    3.0055    1.3295 H   0  0  0  0  0  0  0  0  0  0  0  0
    2.6581    1.0324    0.7413 H   0  0  0  0  0  0  0  0  0  0  0  0
    1.9361    0.4119   -1.5297 H   0  0  0  0  0  0  0  0  0  0  0  0
    1.7379   -0.9873    1.5712 H   0  0  0  0  0  0  0  0  0  0  0  0
    2.5086   -2.3272    0.0767 H   0  0  0  0  0  0  0  0  0  0  0  0
   -0.0856   -2.1428    0.7718 H   0  0  0  0  0  0  0  0  0  0  0  0
    0.2241   -2.4642   -1.3215 H   0  0  0  0  0  0  0  0  0  0  0  0
  1  2  1  0
  2  3  2  0
  2  4  1  0
  4  5  1  0
  5  6  1  0
  6  7  1  0
  6  8  1  0
  8  9  1  0
  8 10  1  0
 10 11  1  0
 10 12  1  0
 12 13  1  0
 12  4  1  0
  1 14  1  0
  1 15  1  0
  1 16  1  0
  4 17  1  1
  6 18  1  1
  7 19  1  0
  8 20  1  1
  9 21  1  0
 10 22  1  1
 11 23  1  0
 12 24  1  1
 13 25  1  0
M  END
$$$$
