
     RDKit          3D

 22 22  0  0  0  0  0  0  0  0999 V2000
    1.5134   -1.6827    0.9613 O   0  0  0  0  0  0  0  0  0  0  0  0
    1.6881   -0.6433    0.0820 C   0  0  2  0  0  0  0  0  0  0  0  0
    2.6268    0.4124    0.6290 C   0  0  0  0  0  0  0  0  0  0  0  0
    3.8431   -0.2206    0.8555 F   0  0  0  0  0  0  0  0  0  0  0  0
    0.3955    0.0194   -0.2868 C   0  0  1  0  0  0  0  0  0  0  0  0
   -0.6241   -0.9636   -0.8263 C   0  0  0  0  0  0  0  0  0  0  0  0
   -1.8577   -0.0820   -0.7896 C   0  0  1  0  0  0  0  0  0  0  0  0
   -2.9994   -0.8409   -0.5834 O   0  0  0  0  0  0  0  0  0  0  0  0
   -1.5437    0.8428    0.3494 C   0  0  2  0  0  0  0  0  0  0  0  0
   -1.5661    2.1680   -0.0693 O   0  0  0  0  0  0  0  0  0  0  0  0
   -0.2762    0.5525    0.7961 O   0  0  0  0  0  0  0  0  0  0  0  0
    0.8246   -1.5149    1.6518 H   0  0  0  0  0  0  0  0  0  0  0  0
    2.1416   -1.0401   -0.8493 H   0  0  0  0  0  0  0  0  0  0  0  0
    2.7963    1.2142   -0.0914 H   0  0  0  0  0  0  0  0  0  0  0  0
    2.2332    0.8124    1.5851 H   0  0  0  0  0  0  0  0  0  0  0  0
    0.5535    0.7764   -1.0696 H   0  0  0  0  0  0  0  0  0  0  0  0
   -0.8000   -1.8145   -0.1364 H   0  0  0  0  0  0  0  0  0  0  0  0
   -0.3791   -1.2946   -1.8546 H   0  0  0  0  0  0  0  0  0  0  0  0
   -1.8831    0.5034   -1.7263 H   0  0  0  0  0  0  0  0  0  0  0  0
   -3.4292   -0.6752    0.2895 H   0  0  0  0  0  0  0  0  0  0  0  0
   -2.2741    0.7298    1.1683 H   0  0  0  0  0  0  0  0  0  0  0  0
   -0.9834    2.7410    0.4807 H   0  0  0  0  0  0  0  0  0  0  0  0
  1  2  1  0
  2  3  1  0
  3  4  1  0
  2  5  1  0
  5  6  1  0
  6  7  1  0
  7  8  1  0
  7  9  1  0
  9 10  1  0
  9 11  1  0
 11  5  1  0
  1 12  1  0
  2 13  1  6
  3 14  1  0
  3 15  1  0
  5 16  1  6
  6 17  1  0
  6 18  1  0
  7 19  1  6
  8 20  1  0
  9 21  1  1
 10 22  1  0
M  END
$$$$

     RDKit          3D

 22 22  0  0  0  0  0  0  0  0999 V2000
    2.1300    1.6016   -0.4423 O   0  0  0  0  0  0  0  0  0  0  0  0
    1.5298    0.4914    0.1690 C   0  0  2  0  0  0  0  0  0  0  0  0
    2.5307   -0.6516    0.0843 C   0  0  0  0  0  0  0  0  0  0  0  0
    3.6758   -0.2365    0.7638 F   0  0  0  0  0  0  0  0  0  0  0  0
    0.3196    0.1409   -0.6489 C   0  0  1  0  0  0  0  0  0  0  0  0
   -0.4142   -1.0659   -0.1220 C   0  0  0  0  0  0  0  0  0  0  0  0
   -1.8615   -0.6161   -0.3584 C   0  0  1  0  0  0  0  0  0  0  0  0
   -2.7560   -1.2700    0.4366 O   0  0  0  0  0  0  0  0  0  0  0  0
   -1.7147    0.8556   -0.0477 C   0  0  2  0  0  0  0  0  0  0  0  0
   -2.7667    1.5947   -0.5804 O   0  0  0  0  0  0  0  0  0  0  0  0
   -0.5487    1.1964   -0.6784 O   0  0  0  0  0  0  0  0  0  0  0  0
    2.3353    1.3201   -1.3762 H   0  0  0  0  0  0  0  0  0  0  0  0
    1.2346    0.6943    1.2040 H   0  0  0  0  0  0  0  0  0  0  0  0
    2.0936   -1.5660    0.5256 H   0  0  0  0  0  0  0  0  0  0  0  0
    2.8200   -0.7818   -0.9782 H   0  0  0  0  0  0  0  0  0  0  0  0
    0.6587   -0.1124   -1.6775 H   0  0  0  0  0  0  0  0  0  0  0  0
   -0.1838   -1.9939   -0.6421 H   0  0  0  0  0  0  0  0  0  0  0  0
   -0.2869   -1.1454    0.9872 H   0  0  0  0  0  0  0  0  0  0  0  0
   -2.0954   -0.7781   -1.4215 H   0  0  0  0  0  0  0  0  0  0  0  0
   -2.6089   -1.1477    1.3896 H   0  0  0  0  0  0  0  0  0  0  0  0
   -1.6649    0.9597    1.0640 H   0  0  0  0  0  0  0  0  0  0  0  0
   -2.4267    2.5107   -0.7620 H   0  0  0  0  0  0  0  0  0  0  0  0
  1  2  1  0
  2  3  1  0
  3  4  1  0
  2  5  1  0
  5  6  1  0
  6  7  1  0
  7  8  1  0
  7  9  1  0
  9 10  1  0
  9 11  1  0
 11  5  1  0
  1 12  1  0
  2 13  1  1
  3 14  1  0
  3 15  1  0
  5 16  1  6
  6 17  1  0
  6 18  1  0
  7 19  1  6
  8 20  1  0
  9 21  1  1
 10 22  1  0
M  END
$$$$

     RDKit          3D

 22 22  0  0  0  0  0  0  0  0999 V2000
   -1.7587   -1.2229    1.1131 O   0  0  0  0  0  0  0  0  0  0  0  0
   -1.5643    0.0546    0.6592 C   0  0  2  0  0  0  0  0  0  0  0  0
   -2.6566    0.5008   -0.2786 C   0  0  0  0  0  0  0  0  0  0  0  0
   -2.7243   -0.3171   -1.3826 F   0  0  0  0  0  0  0  0  0  0  0  0
   -0.2328    0.2855    0.0097 C   0  0  1  0  0  0  0  0  0  0  0  0
    0.9255   -0.0280    0.9091 C   0  0  0  0  0  0  0  0  0  0  0  0
    2.0226   -0.3735   -0.0902 C   0  0  1  0  0  0  0  0  0  0  0  0
    2.4416   -1.6995    0.0776 O   0  0  0  0  0  0  0  0  0  0  0  0
    1.3205   -0.1815   -1.4070 C   0  0  2  0  0  0  0  0  0  0  0  0
    1.3889    1.1792   -1.7846 O   0  0  0  0  0  0  0  0  0  0  0  0
    0.0008   -0.5026   -1.0891 O   0  0  0  0  0  0  0  0  0  0  0  0
   -2.7472   -1.4134    1.0297 H   0  0  0  0  0  0  0  0  0  0  0  0
   -1.6113    0.7513    1.5429 H   0  0  0  0  0  0  0  0  0  0  0  0
   -3.6352    0.5303    0.2791 H   0  0  0  0  0  0  0  0  0  0  0  0
   -2.3995    1.5373   -0.6097 H   0  0  0  0  0  0  0  0  0  0  0  0
   -0.2016    1.3490   -0.3154 H   0  0  0  0  0  0  0  0  0  0  0  0
    1.1756    0.9057    1.4702 H   0  0  0  0  0  0  0  0  0  0  0  0
    0.7146   -0.8776    1.5957 H   0  0  0  0  0  0  0  0  0  0  0  0
    2.8829    0.3345    0.0155 H   0  0  0  0  0  0  0  0  0  0  0  0
    3.2499   -1.7242    0.6535 H   0  0  0  0  0  0  0  0  0  0  0  0
    1.7266   -0.8173   -2.2136 H   0  0  0  0  0  0  0  0  0  0  0  0
    1.6821    1.7295   -1.0141 H   0  0  0  0  0  0  0  0  0  0  0  0
  1  2  1  0
  2  3  1  0
  3  4  1  0
  2  5  1  0
  5  6  1  0
  6  7  1  0
  7  8  1  0
  7  9  1  0
  9 10  1  0
  9 11  1  0
 11  5  1  0
  1 12  1  0
  2 13  1  1
  3 14  1  0
  3 15  1  0
  5 16  1  6
  6 17  1  0
  6 18  1  0
  7 19  1  6
  8 20  1  0
  9 21  1  6
 10 22  1  0
M  END
$$$$

     RDKit          3D

 22 22  0  0  0  0  0  0  0  0999 V2000
    2.2423   -1.3483    0.7388 O   0  0  0  0  0  0  0  0  0  0  0  0
    1.6803   -0.6827   -0.3310 C   0  0  2  0  0  0  0  0  0  0  0  0
    2.3778    0.6211   -0.5481 C   0  0  0  0  0  0  0  0  0  0  0  0
    3.7179    0.3332   -0.8066 F   0  0  0  0  0  0  0  0  0  0  0  0
    0.2097   -0.5776   -0.1260 C   0  0  1  0  0  0  0  0  0  0  0  0
   -0.2251    0.1669    1.0783 C   0  0  0  0  0  0  0  0  0  0  0  0
   -1.6407    0.6049    0.6871 C   0  0  1  0  0  0  0  0  0  0  0  0
   -1.7613    1.9842    0.6657 O   0  0  0  0  0  0  0  0  0  0  0  0
   -1.7743    0.0312   -0.7045 C   0  0  2  0  0  0  0  0  0  0  0  0
   -2.1059   -1.3145   -0.5748 O   0  0  0  0  0  0  0  0  0  0  0  0
   -0.4417    0.0851   -1.1663 O   0  0  0  0  0  0  0  0  0  0  0  0
    1.6473   -1.3899    1.5297 H   0  0  0  0  0  0  0  0  0  0  0  0
    1.8518   -1.3096   -1.2326 H   0  0  0  0  0  0  0  0  0  0  0  0
    1.9522    1.1537   -1.4250 H   0  0  0  0  0  0  0  0  0  0  0  0
    2.3894    1.2557    0.3701 H   0  0  0  0  0  0  0  0  0  0  0  0
   -0.2092   -1.6012   -0.0962 H   0  0  0  0  0  0  0  0  0  0  0  0
    0.3867    1.0579    1.3208 H   0  0  0  0  0  0  0  0  0  0  0  0
   -0.3335   -0.4972    1.9541 H   0  0  0  0  0  0  0  0  0  0  0  0
   -2.4019    0.1652    1.3325 H   0  0  0  0  0  0  0  0  0  0  0  0
   -2.3775    2.3119   -0.0411 H   0  0  0  0  0  0  0  0  0  0  0  0
   -2.4660    0.5773   -1.3436 H   0  0  0  0  0  0  0  0  0  0  0  0
   -2.7181   -1.6272   -1.2812 H   0  0  0  0  0  0  0  0  0  0  0  0
  1  2  1  0
  2  3  1  0
  3  4  1  0
  2  5  1  0
  5  6  1  0
  6  7  1  0
  7  8  1  0
  7  9  1  0
  9 10  1  0
  9 11  1  0
 11  5  1  0
  1 12  1  0
  2 13  1  6
  3 14  1  0
  3 15  1  0
  5 16  1  1
  6 17  1  0
  6 18  1  0
  7 19  1  1
  8 20  1  0
  9 21  1  6
 10 22  1  0
M  END
$$$$

     RDKit          3D

 22 22  0  0  0  0  0  0  0  0999 V2000
   -1.1763   -0.5067   -1.9854 O   0  0  0  0  0  0  0  0  0  0  0  0
   -1.4480   -0.7868   -0.6514 C   0  0  2  0  0  0  0  0  0  0  0  0
   -2.7665   -0.1651   -0.2057 C   0  0  0  0  0  0  0  0  0  0  0  0
   -3.7475   -0.7082   -1.0110 F   0  0  0  0  0  0  0  0  0  0  0  0
   -0.3686   -0.2527    0.2611 C   0  0  1  0  0  0  0  0  0  0  0  0
    0.9738   -0.7537   -0.2693 C   0  0  0  0  0  0  0  0  0  0  0  0
    1.9273    0.2345    0.3361 C   0  0  1  0  0  0  0  0  0  0  0  0
    2.9083    0.6477   -0.5580 O   0  0  0  0  0  0  0  0  0  0  0  0
    1.0244    1.3695    0.7524 C   0  0  2  0  0  0  0  0  0  0  0  0
    0.9521    1.3682    2.1359 O   0  0  0  0  0  0  0  0  0  0  0  0
   -0.2191    1.1094    0.1699 O   0  0  0  0  0  0  0  0  0  0  0  0
   -1.5826   -1.2186   -2.5487 H   0  0  0  0  0  0  0  0  0  0  0  0
   -1.5681   -1.8747   -0.5532 H   0  0  0  0  0  0  0  0  0  0  0  0
   -2.7274    0.9434   -0.2725 H   0  0  0  0  0  0  0  0  0  0  0  0
   -2.8970   -0.4361    0.8649 H   0  0  0  0  0  0  0  0  0  0  0  0
   -0.5204   -0.5326    1.3094 H   0  0  0  0  0  0  0  0  0  0  0  0
    0.9526   -0.5951   -1.3732 H   0  0  0  0  0  0  0  0  0  0  0  0
    1.1752   -1.7896    0.0104 H   0  0  0  0  0  0  0  0  0  0  0  0
    2.4134   -0.2412    1.2043 H   0  0  0  0  0  0  0  0  0  0  0  0
    3.6153   -0.0512   -0.5456 H   0  0  0  0  0  0  0  0  0  0  0  0
    1.4473    2.3010    0.3720 H   0  0  0  0  0  0  0  0  0  0  0  0
    1.6316    1.9388    2.5577 H   0  0  0  0  0  0  0  0  0  0  0  0
  1  2  1  0
  2  3  1  0
  3  4  1  0
  2  5  1  0
  5  6  1  0
  6  7  1  0
  7  8  1  0
  7  9  1  0
  9 10  1  0
  9 11  1  0
 11  5  1  0
  1 12  1  0
  2 13  1  6
  3 14  1  0
  3 15  1  0
  5 16  1  1
  6 17  1  0
  6 18  1  0
  7 19  1  1
  8 20  1  0
  9 21  1  6
 10 22  1  0
M  END
$$$$

     RDKit          3D

 22 22  0  0  0  0  0  0  0  0999 V2000
    1.4892   -1.5048   -1.6981 O   0  0  0  0  0  0  0  0  0  0  0  0
    1.4214   -0.2808   -1.0445 C   0  0  2  0  0  0  0  0  0  0  0  0
    1.9565   -0.4476    0.3405 C   0  0  0  0  0  0  0  0  0  0  0  0
    1.2479   -1.3725    1.0834 F   0  0  0  0  0  0  0  0  0  0  0  0
    0.0412    0.3146   -1.0935 C   0  0  1  0  0  0  0  0  0  0  0  0
   -1.0268   -0.5885   -0.5959 C   0  0  0  0  0  0  0  0  0  0  0  0
   -1.6350    0.1467    0.5562 C   0  0  1  0  0  0  0  0  0  0  0  0
   -1.6420   -0.6409    1.7182 O   0  0  0  0  0  0  0  0  0  0  0  0
   -0.7645    1.3687    0.7037 C   0  0  2  0  0  0  0  0  0  0  0  0
   -1.6146    2.4615    0.8731 O   0  0  0  0  0  0  0  0  0  0  0  0
   -0.0608    1.5209   -0.4584 O   0  0  0  0  0  0  0  0  0  0  0  0
    2.2195   -2.0276   -1.3142 H   0  0  0  0  0  0  0  0  0  0  0  0
    2.1251    0.3970   -1.5877 H   0  0  0  0  0  0  0  0  0  0  0  0
    2.9926   -0.8392    0.2721 H   0  0  0  0  0  0  0  0  0  0  0  0
    2.0418    0.5284    0.8739 H   0  0  0  0  0  0  0  0  0  0  0  0
   -0.1742    0.5146   -2.1851 H   0  0  0  0  0  0  0  0  0  0  0  0
   -1.8449   -0.7139   -1.3635 H   0  0  0  0  0  0  0  0  0  0  0  0
   -0.6682   -1.6028   -0.3270 H   0  0  0  0  0  0  0  0  0  0  0  0
   -2.6995    0.4192    0.3796 H   0  0  0  0  0  0  0  0  0  0  0  0
   -1.4167   -1.5673    1.4734 H   0  0  0  0  0  0  0  0  0  0  0  0
   -0.1136    1.3147    1.5757 H   0  0  0  0  0  0  0  0  0  0  0  0
   -1.8743    2.5995    1.8181 H   0  0  0  0  0  0  0  0  0  0  0  0
  1  2  1  0
  2  3  1  0
  3  4  1  0
  2  5  1  0
  5  6  1  0
  6  7  1  0
  7  8  1  0
  7  9  1  0
  9 10  1  0
  9 11  1  0
 11  5  1  0
  1 12  1  0
  2 13  1  6
  3 14  1  0
  3 15  1  0
  5 16  1  6
  6 17  1  0
  6 18  1  0
  7 19  1  6
  8 20  1  0
  9 21  1  1
 10 22  1  0
M  END
$$$$

     RDKit          3D

 22 22  0  0  0  0  0  0  0  0999 V2000
    0.7126    0.6901   -1.4055 O   0  0  0  0  0  0  0  0  0  0  0  0
    1.2988    0.7450   -0.1448 C   0  0  2  0  0  0  0  0  0  0  0  0
    2.6246    0.0270   -0.1594 C   0  0  0  0  0  0  0  0  0  0  0  0
    3.1892    0.0952    1.1071 F   0  0  0  0  0  0  0  0  0  0  0  0
    0.3951    0.1495    0.9137 C   0  0  1  0  0  0  0  0  0  0  0  0
   -0.9405    0.8488    0.9343 C   0  0  0  0  0  0  0  0  0  0  0  0
   -1.7996   -0.0150    0.0688 C   0  0  1  0  0  0  0  0  0  0  0  0
   -2.1138    0.6624   -1.1108 O   0  0  0  0  0  0  0  0  0  0  0  0
   -0.9761   -1.2359   -0.1813 C   0  0  2  0  0  0  0  0  0  0  0  0
   -1.7451   -2.3472    0.2289 O   0  0  0  0  0  0  0  0  0  0  0  0
    0.1469   -1.1664    0.5981 O   0  0  0  0  0  0  0  0  0  0  0  0
    1.1525   -0.0104   -1.9374 H   0  0  0  0  0  0  0  0  0  0  0  0
    1.4922    1.8114    0.0923 H   0  0  0  0  0  0  0  0  0  0  0  0
    3.3120    0.4725   -0.8807 H   0  0  0  0  0  0  0  0  0  0  0  0
    2.5226   -1.0429   -0.4100 H   0  0  0  0  0  0  0  0  0  0  0  0
    0.8561    0.1947    1.9128 H   0  0  0  0  0  0  0  0  0  0  0  0
   -1.3016    0.8977    1.9819 H   0  0  0  0  0  0  0  0  0  0  0  0
   -0.8491    1.8849    0.5252 H   0  0  0  0  0  0  0  0  0  0  0  0
   -2.7426   -0.2374    0.6128 H   0  0  0  0  0  0  0  0  0  0  0  0
   -2.3305    1.6114   -0.9151 H   0  0  0  0  0  0  0  0  0  0  0  0
   -0.7246   -1.3431   -1.2565 H   0  0  0  0  0  0  0  0  0  0  0  0
   -2.1791   -2.6923   -0.5744 H   0  0  0  0  0  0  0  0  0  0  0  0
  1  2  1  0
  2  3  1  0
  3  4  1  0
  2  5  1  0
  5  6  1  0
  6  7  1  0
  7  8  1  0
  7  9  1  0
  9 10  1  0
  9 11  1  0
 11  5  1  0
  1 12  1  0
  2 13  1  1
  3 14  1  0
  3 15  1  0
  5 16  1  1
  6 17  1  0
  6 18  1  0
  7 19  1  1
  8 20  1  0
  9 21  1  6
 10 22  1  0
M  END
$$$$

     RDKit          3D

 22 22  0  0  0  0  0  0  0  0999 V2000
    2.1053    1.6498    0.6511 O   0  0  0  0  0  0  0  0  0  0  0  0
    1.5241    0.4204    0.4918 C   0  0  2  0  0  0  0  0  0  0  0  0
    2.5285   -0.6125    0.0202 C   0  0  0  0  0  0  0  0  0  0  0  0
    3.5377   -0.7045    0.9773 F   0  0  0  0  0  0  0  0  0  0  0  0
    0.4050    0.4633   -0.5300 C   0  0  1  0  0  0  0  0  0  0  0  0
   -0.1993   -0.9104   -0.6145 C   0  0  0  0  0  0  0  0  0  0  0  0
   -1.6907   -0.6068   -0.4490 C   0  0  1  0  0  0  0  0  0  0  0  0
   -2.3600   -1.6383    0.1657 O   0  0  0  0  0  0  0  0  0  0  0  0
   -1.6299    0.6520    0.3870 C   0  0  2  0  0  0  0  0  0  0  0  0
   -2.8051    1.3702    0.3634 O   0  0  0  0  0  0  0  0  0  0  0  0
   -0.5718    1.3438   -0.1378 O   0  0  0  0  0  0  0  0  0  0  0  0
    1.6268    2.2345    1.2908 H   0  0  0  0  0  0  0  0  0  0  0  0
    1.0692    0.0714    1.4401 H   0  0  0  0  0  0  0  0  0  0  0  0
    2.9835   -0.3175   -0.9455 H   0  0  0  0  0  0  0  0  0  0  0  0
    2.0679   -1.6179   -0.0657 H   0  0  0  0  0  0  0  0  0  0  0  0
    0.8713    0.7526   -1.5072 H   0  0  0  0  0  0  0  0  0  0  0  0
    0.0226   -1.4047   -1.5662 H   0  0  0  0  0  0  0  0  0  0  0  0
    0.0594   -1.5427    0.2803 H   0  0  0  0  0  0  0  0  0  0  0  0
   -2.1140   -0.3334   -1.4334 H   0  0  0  0  0  0  0  0  0  0  0  0
   -2.9023   -1.2610    0.9110 H   0  0  0  0  0  0  0  0  0  0  0  0
   -1.4262    0.3707    1.4331 H   0  0  0  0  0  0  0  0  0  0  0  0
   -3.1019    1.6210   -0.5438 H   0  0  0  0  0  0  0  0  0  0  0  0
  1  2  1  0
  2  3  1  0
  3  4  1  0
  2  5  1  0
  5  6  1  0
  6  7  1  0
  7  8  1  0
  7  9  1  0
  9 10  1  0
  9 11  1  0
 11  5  1  0
  1 12  1  0
  2 13  1  1
  3 14  1  0
  3 15  1  0
  5 16  1  6
  6 17  1  0
  6 18  1  0
  7 19  1  6
  8 20  1  0
  9 21  1  1
 10 22  1  0
M  END
$$$$
