
     RDKit          3D

 26 25  0  0  0  0  0  0  0  0999 V2000
    4.4331    0.8105    0.1606 C   0  0  0  0  0  0  0  0  0  0  0  0
    3.1279    0.5976   -0.5230 C   0  0  0  0  0  0  0  0  0  0  0  0
    2.1988   -0.1928    0.2577 N   0  0  0  0  0  0  0  0  0  0  0  0
    0.8981   -0.4673   -0.2999 C   0  0  0  0  0  0  0  0  0  0  0  0
    0.5936   -0.0250   -1.4355 O   0  0  0  0  0  0  0  0  0  0  0  0
   -0.0640   -1.2331    0.4040 N   0  0  0  0  0  0  0  0  0  0  0  0
   -1.3906   -1.5578   -0.0524 C   0  0  0  0  0  0  0  0  0  0  0  0
   -2.2965   -0.4100   -0.2992 C   0  0  2  0  0  0  0  0  0  0  0  0
   -1.9072    0.4982   -1.2425 O   0  0  0  0  0  0  0  0  0  0  0  0
   -2.6960    0.2719    1.0151 C   0  0  0  0  0  0  0  0  0  0  0  0
   -3.7995    1.1658    0.7229 N   0  0  0  0  0  0  0  0  0  0  0  0
    5.2474    0.7328   -0.5820 H   0  0  0  0  0  0  0  0  0  0  0  0
    4.6309    0.0434    0.9314 H   0  0  0  0  0  0  0  0  0  0  0  0
    4.4952    1.8428    0.5762 H   0  0  0  0  0  0  0  0  0  0  0  0
    2.6905    1.5757   -0.8254 H   0  0  0  0  0  0  0  0  0  0  0  0
    3.2947    0.0405   -1.4713 H   0  0  0  0  0  0  0  0  0  0  0  0
    2.4585   -0.5552    1.1967 H   0  0  0  0  0  0  0  0  0  0  0  0
    0.2771   -1.5776    1.3573 H   0  0  0  0  0  0  0  0  0  0  0  0
   -1.3537   -2.1842   -0.9917 H   0  0  0  0  0  0  0  0  0  0  0  0
   -1.8530   -2.2268    0.7261 H   0  0  0  0  0  0  0  0  0  0  0  0
   -3.2710   -0.8474   -0.6720 H   0  0  0  0  0  0  0  0  0  0  0  0
   -2.0551    1.4356   -0.9297 H   0  0  0  0  0  0  0  0  0  0  0  0
   -1.8301    0.7791    1.4642 H   0  0  0  0  0  0  0  0  0  0  0  0
   -3.0818   -0.5348    1.6870 H   0  0  0  0  0  0  0  0  0  0  0  0
   -4.3932    1.2127    1.5831 H   0  0  0  0  0  0  0  0  0  0  0  0
   -4.3539    0.8057   -0.0901 H   0  0  0  0  0  0  0  0  0  0  0  0
  1  2  1  0
  2  3  1  0
  3  4  1  0
  4  5  2  0
  4  6  1  0
  6  7  1  0
  7  8  1  0
  8  9  1  0
  8 10  1  0
 10 11  1  0
  1 12  1  0
  1 13  1  0
  1 14  1  0
  2 15  1  0
  2 16  1  0
  3 17  1  0
  6 18  1  0
  7 19  1  0
  7 20  1  0
  8 21  1  6
  9 22  1  0
 10 23  1  0
 10 24  1  0
 11 25  1  0
 11 26  1  0
M  END
$$$$

     RDKit          3D

 26 25  0  0  0  0  0  0  0  0999 V2000
    4.5710   -0.0379   -0.4159 C   0  0  0  0  0  0  0  0  0  0  0  0
    3.3468   -0.7669    0.0052 C   0  0  0  0  0  0  0  0  0  0  0  0
    2.1665    0.1092    0.0500 N   0  0  0  0  0  0  0  0  0  0  0  0
    0.9060   -0.4211    0.4333 C   0  0  0  0  0  0  0  0  0  0  0  0
    0.8554   -1.6508    0.7251 O   0  0  0  0  0  0  0  0  0  0  0  0
   -0.2825    0.3226    0.5101 N   0  0  0  0  0  0  0  0  0  0  0  0
   -1.5409   -0.3222    0.9191 C   0  0  0  0  0  0  0  0  0  0  0  0
   -2.6742    0.6739    0.9267 C   0  0  2  0  0  0  0  0  0  0  0  0
   -3.8195   -0.0134    1.3224 O   0  0  0  0  0  0  0  0  0  0  0  0
   -2.8992    1.0780   -0.5362 C   0  0  0  0  0  0  0  0  0  0  0  0
   -3.0966   -0.1082   -1.3413 N   0  0  0  0  0  0  0  0  0  0  0  0
    5.4526   -0.6606   -0.1558 H   0  0  0  0  0  0  0  0  0  0  0  0
    4.6598    0.8983    0.1696 H   0  0  0  0  0  0  0  0  0  0  0  0
    4.6077    0.1218   -1.5110 H   0  0  0  0  0  0  0  0  0  0  0  0
    3.4815   -1.1154    1.0646 H   0  0  0  0  0  0  0  0  0  0  0  0
    3.1060   -1.6176   -0.6507 H   0  0  0  0  0  0  0  0  0  0  0  0
    2.2184    1.1115   -0.1900 H   0  0  0  0  0  0  0  0  0  0  0  0
   -0.2515    1.3377    0.2714 H   0  0  0  0  0  0  0  0  0  0  0  0
   -1.7015   -1.1298    0.1766 H   0  0  0  0  0  0  0  0  0  0  0  0
   -1.3437   -0.7641    1.9162 H   0  0  0  0  0  0  0  0  0  0  0  0
   -2.4907    1.5355    1.5601 H   0  0  0  0  0  0  0  0  0  0  0  0
   -3.6681   -0.5680    2.1303 H   0  0  0  0  0  0  0  0  0  0  0  0
   -3.7855    1.7239   -0.6392 H   0  0  0  0  0  0  0  0  0  0  0  0
   -1.9700    1.5643   -0.8733 H   0  0  0  0  0  0  0  0  0  0  0  0
   -2.2142   -0.4625   -1.7523 H   0  0  0  0  0  0  0  0  0  0  0  0
   -3.6337   -0.8381   -0.8091 H   0  0  0  0  0  0  0  0  0  0  0  0
  1  2  1  0
  2  3  1  0
  3  4  1  0
  4  5  2  0
  4  6  1  0
  6  7  1  0
  7  8  1  0
  8  9  1  0
  8 10  1  0
 10 11  1  0
  1 12  1  0
  1 13  1  0
  1 14  1  0
  2 15  1  0
  2 16  1  0
  3 17  1  0
  6 18  1  0
  7 19  1  0
  7 20  1  0
  8 21  1  1
  9 22  1  0
 10 23  1  0
 10 24  1  0
 11 25  1  0
 11 26  1  0
M  END
$$$$

     RDKit          3D

 26 25  0  0  0  0  0  0  0  0999 V2000
    4.1258    0.8136    0.3838 C   0  0  0  0  0  0  0  0  0  0  0  0
    3.8114   -0.6479    0.1917 C   0  0  0  0  0  0  0  0  0  0  0  0
    2.4366   -0.9244    0.5730 N   0  0  0  0  0  0  0  0  0  0  0  0
    1.3512   -0.2897   -0.0690 C   0  0  0  0  0  0  0  0  0  0  0  0
    1.6000    0.5359   -0.9955 O   0  0  0  0  0  0  0  0  0  0  0  0
   -0.0124   -0.5554    0.2997 N   0  0  0  0  0  0  0  0  0  0  0  0
   -1.1115    0.0995   -0.3639 C   0  0  0  0  0  0  0  0  0  0  0  0
   -2.4078   -0.3743    0.2313 C   0  0  2  0  0  0  0  0  0  0  0  0
   -2.4931   -1.7651    0.0495 O   0  0  0  0  0  0  0  0  0  0  0  0
   -3.5992    0.2156   -0.5024 C   0  0  0  0  0  0  0  0  0  0  0  0
   -3.6366    1.6430   -0.3981 N   0  0  0  0  0  0  0  0  0  0  0  0
    5.2239    0.9469    0.5284 H   0  0  0  0  0  0  0  0  0  0  0  0
    3.8290    1.4212   -0.4956 H   0  0  0  0  0  0  0  0  0  0  0  0
    3.6259    1.2278    1.2716 H   0  0  0  0  0  0  0  0  0  0  0  0
    4.4958   -1.2527    0.8046 H   0  0  0  0  0  0  0  0  0  0  0  0
    3.9862   -0.8884   -0.8767 H   0  0  0  0  0  0  0  0  0  0  0  0
    2.2238   -1.5994    1.3309 H   0  0  0  0  0  0  0  0  0  0  0  0
   -0.1999   -1.2369    1.0635 H   0  0  0  0  0  0  0  0  0  0  0  0
   -1.0009    1.1954   -0.2713 H   0  0  0  0  0  0  0  0  0  0  0  0
   -1.0670   -0.1934   -1.4351 H   0  0  0  0  0  0  0  0  0  0  0  0
   -2.4299   -0.1565    1.3174 H   0  0  0  0  0  0  0  0  0  0  0  0
   -3.4464   -2.0381   -0.0196 H   0  0  0  0  0  0  0  0  0  0  0  0
   -4.5480   -0.1992   -0.1502 H   0  0  0  0  0  0  0  0  0  0  0  0
   -3.4548   -0.0373   -1.5768 H   0  0  0  0  0  0  0  0  0  0  0  0
   -4.4863    1.9808    0.1271 H   0  0  0  0  0  0  0  0  0  0  0  0
   -2.8157    2.0790    0.0314 H   0  0  0  0  0  0  0  0  0  0  0  0
  1  2  1  0
  2  3  1  0
  3  4  1  0
  4  5  2  0
  4  6  1  0
  6  7  1  0
  7  8  1  0
  8  9  1  0
  8 10  1  0
 10 11  1  0
  1 12  1  0
  1 13  1  0
  1 14  1  0
  2 15  1  0
  2 16  1  0
  3 17  1  0
  6 18  1  0
  7 19  1  0
  7 20  1  0
  8 21  1  1
  9 22  1  0
 10 23  1  0
 10 24  1  0
 11 25  1  0
 11 26  1  0
M  END
$$$$

     RDKit          3D

 26 25  0  0  0  0  0  0  0  0999 V2000
   -4.2796    1.1895   -0.5430 C   0  0  0  0  0  0  0  0  0  0  0  0
   -3.0324    0.4509   -0.9013 C   0  0  0  0  0  0  0  0  0  0  0  0
   -2.1385    0.2587    0.2025 N   0  0  0  0  0  0  0  0  0  0  0  0
   -0.9153   -0.4376   -0.0354 C   0  0  0  0  0  0  0  0  0  0  0  0
   -0.6680   -0.8560   -1.2037 O   0  0  0  0  0  0  0  0  0  0  0  0
    0.0428   -0.6906    0.9578 N   0  0  0  0  0  0  0  0  0  0  0  0
    1.2554   -1.3951    0.6631 C   0  0  0  0  0  0  0  0  0  0  0  0
    2.1182   -0.7311   -0.3708 C   0  0  2  0  0  0  0  0  0  0  0  0
    3.2495   -1.5323   -0.5436 O   0  0  0  0  0  0  0  0  0  0  0  0
    2.5817    0.6055    0.1686 C   0  0  0  0  0  0  0  0  0  0  0  0
    3.4981    1.2164   -0.7833 N   0  0  0  0  0  0  0  0  0  0  0  0
   -4.9283    1.2284   -1.4430 H   0  0  0  0  0  0  0  0  0  0  0  0
   -4.8105    0.5928    0.2351 H   0  0  0  0  0  0  0  0  0  0  0  0
   -4.1083    2.2300   -0.2261 H   0  0  0  0  0  0  0  0  0  0  0  0
   -3.3392   -0.5553   -1.2802 H   0  0  0  0  0  0  0  0  0  0  0  0
   -2.4698    0.9519   -1.7166 H   0  0  0  0  0  0  0  0  0  0  0  0
   -2.3301    0.5988    1.1721 H   0  0  0  0  0  0  0  0  0  0  0  0
   -0.1419   -0.3549    1.9251 H   0  0  0  0  0  0  0  0  0  0  0  0
    1.0168   -2.4223    0.2609 H   0  0  0  0  0  0  0  0  0  0  0  0
    1.8675   -1.5798    1.5665 H   0  0  0  0  0  0  0  0  0  0  0  0
    1.6507   -0.6174   -1.3475 H   0  0  0  0  0  0  0  0  0  0  0  0
    2.9809   -2.4970   -0.5671 H   0  0  0  0  0  0  0  0  0  0  0  0
    1.6908    1.2567    0.2498 H   0  0  0  0  0  0  0  0  0  0  0  0
    3.0913    0.4306    1.1201 H   0  0  0  0  0  0  0  0  0  0  0  0
    4.2659    0.5644   -1.0412 H   0  0  0  0  0  0  0  0  0  0  0  0
    3.8522    2.0947   -0.3487 H   0  0  0  0  0  0  0  0  0  0  0  0
  1  2  1  0
  2  3  1  0
  3  4  1  0
  4  5  2  0
  4  6  1  0
  6  7  1  0
  7  8  1  0
  8  9  1  0
  8 10  1  0
 10 11  1  0
  1 12  1  0
  1 13  1  0
  1 14  1  0
  2 15  1  0
  2 16  1  0
  3 17  1  0
  6 18  1  0
  7 19  1  0
  7 20  1  0
  8 21  1  6
  9 22  1  0
 10 23  1  0
 10 24  1  0
 11 25  1  0
 11 26  1  0
M  END
$$$$

     RDKit          3D

 26 25  0  0  0  0  0  0  0  0999 V2000
    4.2253    0.3642    0.6587 C   0  0  0  0  0  0  0  0  0  0  0  0
    3.7798   -0.1200   -0.7063 C   0  0  0  0  0  0  0  0  0  0  0  0
    2.3844   -0.5262   -0.6490 N   0  0  0  0  0  0  0  0  0  0  0  0
    1.4011    0.4100   -0.2807 C   0  0  0  0  0  0  0  0  0  0  0  0
    1.6536    1.6084    0.0106 O   0  0  0  0  0  0  0  0  0  0  0  0
    0.0219    0.0179   -0.2215 N   0  0  0  0  0  0  0  0  0  0  0  0
   -1.0201    0.9513    0.1530 C   0  0  0  0  0  0  0  0  0  0  0  0
   -2.3325    0.1999    0.1078 C   0  0  2  0  0  0  0  0  0  0  0  0
   -2.5418   -0.2787   -1.1795 O   0  0  0  0  0  0  0  0  0  0  0  0
   -3.5070    1.0871    0.4519 C   0  0  0  0  0  0  0  0  0  0  0  0
   -4.6994    0.2609    0.3718 N   0  0  0  0  0  0  0  0  0  0  0  0
    3.7925    1.3518    0.9191 H   0  0  0  0  0  0  0  0  0  0  0  0
    3.9019   -0.4218    1.3899 H   0  0  0  0  0  0  0  0  0  0  0  0
    5.3475    0.4025    0.6328 H   0  0  0  0  0  0  0  0  0  0  0  0
    4.4286   -0.9668   -0.9820 H   0  0  0  0  0  0  0  0  0  0  0  0
    3.9320    0.7094   -1.4544 H   0  0  0  0  0  0  0  0  0  0  0  0
    2.1536   -1.5342   -0.8918 H   0  0  0  0  0  0  0  0  0  0  0  0
   -0.1846   -0.9745   -0.4631 H   0  0  0  0  0  0  0  0  0  0  0  0
   -1.0529    1.8110   -0.5514 H   0  0  0  0  0  0  0  0  0  0  0  0
   -0.8402    1.3860    1.1610 H   0  0  0  0  0  0  0  0  0  0  0  0
   -2.2443   -0.6326    0.8452 H   0  0  0  0  0  0  0  0  0  0  0  0
   -2.2623   -1.2204   -1.2911 H   0  0  0  0  0  0  0  0  0  0  0  0
   -3.4298    1.5415    1.4549 H   0  0  0  0  0  0  0  0  0  0  0  0
   -3.5973    1.8621   -0.3398 H   0  0  0  0  0  0  0  0  0  0  0  0
   -4.7723   -0.3017    1.2556 H   0  0  0  0  0  0  0  0  0  0  0  0
   -4.5376   -0.4252   -0.4021 H   0  0  0  0  0  0  0  0  0  0  0  0
  1  2  1  0
  2  3  1  0
  3  4  1  0
  4  5  2  0
  4  6  1  0
  6  7  1  0
  7  8  1  0
  8  9  1  0
  8 10  1  0
 10 11  1  0
  1 12  1  0
  1 13  1  0
  1 14  1  0
  2 15  1  0
  2 16  1  0
  3 17  1  0
  6 18  1  0
  7 19  1  0
  7 20  1  0
  8 21  1  1
  9 22  1  0
 10 23  1  0
 10 24  1  0
 11 25  1  0
 11 26  1  0
M  END
$$$$

     RDKit          3D

 26 25  0  0  0  0  0  0  0  0999 V2000
    4.5534    0.4343    0.1954 C   0  0  0  0  0  0  0  0  0  0  0  0
    3.1353    0.8946    0.2390 C   0  0  0  0  0  0  0  0  0  0  0  0
    2.2141   -0.1603   -0.2105 N   0  0  0  0  0  0  0  0  0  0  0  0
    0.8120    0.0931   -0.2386 C   0  0  0  0  0  0  0  0  0  0  0  0
    0.4430    1.2360    0.1338 O   0  0  0  0  0  0  0  0  0  0  0  0
   -0.1108   -0.8998   -0.6664 N   0  0  0  0  0  0  0  0  0  0  0  0
   -1.5325   -0.6372   -0.6911 C   0  0  0  0  0  0  0  0  0  0  0  0
   -1.9896   -0.3083    0.6917 C   0  0  2  0  0  0  0  0  0  0  0  0
   -1.7157   -1.4032    1.5383 O   0  0  0  0  0  0  0  0  0  0  0  0
   -3.5048   -0.0884    0.7442 C   0  0  0  0  0  0  0  0  0  0  0  0
   -3.8015    1.0419   -0.1276 N   0  0  0  0  0  0  0  0  0  0  0  0
    4.5878   -0.6494   -0.0292 H   0  0  0  0  0  0  0  0  0  0  0  0
    5.0436    0.5877    1.1801 H   0  0  0  0  0  0  0  0  0  0  0  0
    5.1455    0.9420   -0.5979 H   0  0  0  0  0  0  0  0  0  0  0  0
    2.8015    1.2339    1.2211 H   0  0  0  0  0  0  0  0  0  0  0  0
    3.0271    1.7713   -0.4635 H   0  0  0  0  0  0  0  0  0  0  0  0
    2.5633   -1.0931   -0.5105 H   0  0  0  0  0  0  0  0  0  0  0  0
    0.2966   -1.8256   -0.9604 H   0  0  0  0  0  0  0  0  0  0  0  0
   -2.0651   -1.5218   -1.0539 H   0  0  0  0  0  0  0  0  0  0  0  0
   -1.7558    0.1948   -1.3894 H   0  0  0  0  0  0  0  0  0  0  0  0
   -1.5411    0.5701    1.1490 H   0  0  0  0  0  0  0  0  0  0  0  0
   -1.9435   -2.2349    1.0607 H   0  0  0  0  0  0  0  0  0  0  0  0
   -3.7565    0.2226    1.7650 H   0  0  0  0  0  0  0  0  0  0  0  0
   -4.0291   -0.9892    0.4311 H   0  0  0  0  0  0  0  0  0  0  0  0
   -3.1300    1.8114    0.0919 H   0  0  0  0  0  0  0  0  0  0  0  0
   -3.7472    0.7774   -1.1390 H   0  0  0  0  0  0  0  0  0  0  0  0
  1  2  1  0
  2  3  1  0
  3  4  1  0
  4  5  2  0
  4  6  1  0
  6  7  1  0
  7  8  1  0
  8  9  1  0
  8 10  1  0
 10 11  1  0
  1 12  1  0
  1 13  1  0
  1 14  1  0
  2 15  1  0
  2 16  1  0
  3 17  1  0
  6 18  1  0
  7 19  1  0
  7 20  1  0
  8 21  1  1
  9 22  1  0
 10 23  1  0
 10 24  1  0
 11 25  1  0
 11 26  1  0
M  END
$$$$

     RDKit          3D

 26 25  0  0  0  0  0  0  0  0999 V2000
    4.8910    0.3757    0.1423 C   0  0  0  0  0  0  0  0  0  0  0  0
    3.7019   -0.4957   -0.0882 C   0  0  0  0  0  0  0  0  0  0  0  0
    2.4481    0.2170    0.0463 N   0  0  0  0  0  0  0  0  0  0  0  0
    1.2030   -0.4284   -0.1332 C   0  0  0  0  0  0  0  0  0  0  0  0
    1.2384   -1.6703   -0.4198 O   0  0  0  0  0  0  0  0  0  0  0  0
   -0.0459    0.2254   -0.0121 N   0  0  0  0  0  0  0  0  0  0  0  0
   -1.2399   -0.5586   -0.2225 C   0  0  0  0  0  0  0  0  0  0  0  0
   -2.4961    0.2671   -0.0618 C   0  0  2  0  0  0  0  0  0  0  0  0
   -2.5530    0.7969    1.2199 O   0  0  0  0  0  0  0  0  0  0  0  0
   -3.7101   -0.5717   -0.3189 C   0  0  0  0  0  0  0  0  0  0  0  0
   -4.8942    0.2898   -0.1815 N   0  0  0  0  0  0  0  0  0  0  0  0
    5.3616    0.1448    1.1232 H   0  0  0  0  0  0  0  0  0  0  0  0
    5.6620    0.2596   -0.6436 H   0  0  0  0  0  0  0  0  0  0  0  0
    4.6248    1.4488    0.1716 H   0  0  0  0  0  0  0  0  0  0  0  0
    3.6740   -1.3772    0.5871 H   0  0  0  0  0  0  0  0  0  0  0  0
    3.7756   -0.9138   -1.1262 H   0  0  0  0  0  0  0  0  0  0  0  0
    2.4519    1.2277    0.2804 H   0  0  0  0  0  0  0  0  0  0  0  0
   -0.0543    1.2449    0.2237 H   0  0  0  0  0  0  0  0  0  0  0  0
   -1.2044   -1.0522   -1.1945 H   0  0  0  0  0  0  0  0  0  0  0  0
   -1.2443   -1.3557    0.5724 H   0  0  0  0  0  0  0  0  0  0  0  0
   -2.4558    1.0654   -0.8216 H   0  0  0  0  0  0  0  0  0  0  0  0
   -1.9766    0.2827    1.8312 H   0  0  0  0  0  0  0  0  0  0  0  0
   -3.7968   -1.3988    0.4387 H   0  0  0  0  0  0  0  0  0  0  0  0
   -3.7576   -0.9929   -1.3247 H   0  0  0  0  0  0  0  0  0  0  0  0
   -4.8250    0.6893    0.7827 H   0  0  0  0  0  0  0  0  0  0  0  0
   -4.7783    1.0730   -0.8708 H   0  0  0  0  0  0  0  0  0  0  0  0
  1  2  1  0
  2  3  1  0
  3  4  1  0
  4  5  2  0
  4  6  1  0
  6  7  1  0
  7  8  1  0
  8  9  1  0
  8 10  1  0
 10 11  1  0
  1 12  1  0
  1 13  1  0
  1 14  1  0
  2 15  1  0
  2 16  1  0
  3 17  1  0
  6 18  1  0
  7 19  1  0
  7 20  1  0
  8 21  1  6
  9 22  1  0
 10 23  1  0
 10 24  1  0
 11 25  1  0
 11 26  1  0
M  END
$$$$

     RDKit          3D

 26 25  0  0  0  0  0  0  0  0999 V2000
    3.8993   -0.2038    1.4028 C   0  0  0  0  0  0  0  0  0  0  0  0
    3.7966    0.4040    0.0141 C   0  0  0  0  0  0  0  0  0  0  0  0
    2.5819   -0.1014   -0.5727 N   0  0  0  0  0  0  0  0  0  0  0  0
    1.3412    0.1446    0.0307 C   0  0  0  0  0  0  0  0  0  0  0  0
    1.2923    0.8074    1.0837 O   0  0  0  0  0  0  0  0  0  0  0  0
    0.0951   -0.3233   -0.4902 N   0  0  0  0  0  0  0  0  0  0  0  0
   -1.1656   -0.0557    0.1508 C   0  0  0  0  0  0  0  0  0  0  0  0
   -2.2450   -0.7044   -0.6840 C   0  0  2  0  0  0  0  0  0  0  0  0
   -2.1885   -0.1345   -1.9545 O   0  0  0  0  0  0  0  0  0  0  0  0
   -3.6134   -0.5404   -0.0658 C   0  0  0  0  0  0  0  0  0  0  0  0
   -3.9480    0.8627    0.0595 N   0  0  0  0  0  0  0  0  0  0  0  0
    4.9586   -0.3506    1.7030 H   0  0  0  0  0  0  0  0  0  0  0  0
    3.3791   -1.1828    1.3801 H   0  0  0  0  0  0  0  0  0  0  0  0
    3.3702    0.4977    2.0923 H   0  0  0  0  0  0  0  0  0  0  0  0
    4.6694    0.0603   -0.5893 H   0  0  0  0  0  0  0  0  0  0  0  0
    3.7748    1.5181    0.0646 H   0  0  0  0  0  0  0  0  0  0  0  0
    2.6520   -0.6497   -1.4501 H   0  0  0  0  0  0  0  0  0  0  0  0
    0.1111   -0.8766   -1.3649 H   0  0  0  0  0  0  0  0  0  0  0  0
   -1.1220   -0.4848    1.1743 H   0  0  0  0  0  0  0  0  0  0  0  0
   -1.3352    1.0585    0.2222 H   0  0  0  0  0  0  0  0  0  0  0  0
   -2.0000   -1.7861   -0.7335 H   0  0  0  0  0  0  0  0  0  0  0  0
   -1.7206   -0.7571   -2.5562 H   0  0  0  0  0  0  0  0  0  0  0  0
   -4.3375   -1.0164   -0.7619 H   0  0  0  0  0  0  0  0  0  0  0  0
   -3.6171   -1.0345    0.9163 H   0  0  0  0  0  0  0  0  0  0  0  0
   -4.9777    0.9452   -0.0876 H   0  0  0  0  0  0  0  0  0  0  0  0
   -3.6509    1.1796    1.0163 H   0  0  0  0  0  0  0  0  0  0  0  0
  1  2  1  0
  2  3  1  0
  3  4  1  0
  4  5  2  0
  4  6  1  0
  6  7  1  0
  7  8  1  0
  8  9  1  0
  8 10  1  0
 10 11  1  0
  1 12  1  0
  1 13  1  0
  1 14  1  0
  2 15  1  0
  2 16  1  0
  3 17  1  0
  6 18  1  0
  7 19  1  0
  7 20  1  0
  8 21  1  6
  9 22  1  0
 10 23  1  0
 10 24  1  0
 11 25  1  0
 11 26  1  0
M  END
$$$$
