
     RDKit          3D

 21 21  0  0  0  0  0  0  0  0999 V2000
   -1.2588   -1.4249    0.4794 N   0  0  0  0  0  0  0  0  0  0  0  0
   -1.2637    0.0214    0.5141 C   0  0  2  0  0  0  0  0  0  0  0  0
   -2.1818    0.5722   -0.5152 C   0  0  0  0  0  0  0  0  0  0  0  0
   -2.3377    1.8148   -0.6582 O   0  0  0  0  0  0  0  0  0  0  0  0
   -2.8672   -0.3134   -1.3194 O   0  0  0  0  0  0  0  0  0  0  0  0
    0.1479    0.5452    0.2994 C   0  0  2  0  0  0  0  0  0  0  0  0
    0.8055    0.1885   -0.9587 C   0  0  2  0  0  0  0  0  0  0  0  0
    0.2856   -0.7084   -1.8611 O   0  0  0  0  0  0  0  0  0  0  0  0
    1.2828   -0.4241    0.3756 C   0  0  1  0  0  0  0  0  0  0  0  0
    2.6049    0.0229    0.8686 C   0  0  0  0  0  0  0  0  0  0  0  0
    3.3864   -0.7468    1.4814 O   0  0  0  0  0  0  0  0  0  0  0  0
    3.0314    1.3262    0.6673 O   0  0  0  0  0  0  0  0  0  0  0  0
   -1.1802   -1.7850    1.4511 H   0  0  0  0  0  0  0  0  0  0  0  0
   -2.1875   -1.7224    0.1205 H   0  0  0  0  0  0  0  0  0  0  0  0
   -1.6462    0.3753    1.5042 H   0  0  0  0  0  0  0  0  0  0  0  0
   -3.7780   -0.0488   -1.7018 H   0  0  0  0  0  0  0  0  0  0  0  0
    0.2883    1.5727    0.7088 H   0  0  0  0  0  0  0  0  0  0  0  0
    1.4798    0.9621   -1.4113 H   0  0  0  0  0  0  0  0  0  0  0  0
    0.4436   -0.4050   -2.8077 H   0  0  0  0  0  0  0  0  0  0  0  0
    0.9722   -1.4732    0.5532 H   0  0  0  0  0  0  0  0  0  0  0  0
    3.9727    1.6505    0.9349 H   0  0  0  0  0  0  0  0  0  0  0  0
  1  2  1  0
  2  3  1  0
  3  4  2  0
  3  5  1  0
  2  6  1  0
  6  7  1  0
  7  8  1  0
  7  9  1  0
  9 10  1  0
 10 11  2  0
 10 12  1  0
  9  6  1  0
  1 13  1  0
  1 14  1  0
  2 15  1  1
  5 16  1  0
  6 17  1  1
  7 18  1  6
  8 19  1  0
  9 20  1  6
 12 21  1  0
M  END
$$$$

     RDKit          3D

 21 21  0  0  0  0  0  0  0  0999 V2000
   -0.5956   -1.1376   -1.4914 N   0  0  0  0  0  0  0  0  0  0  0  0
   -1.1904   -0.5813   -0.2984 C   0  0  2  0  0  0  0  0  0  0  0  0
   -2.3611    0.2598   -0.5964 C   0  0  0  0  0  0  0  0  0  0  0  0
   -2.7059    0.4009   -1.7951 O   0  0  0  0  0  0  0  0  0  0  0  0
   -3.1097    0.9084    0.3689 O   0  0  0  0  0  0  0  0  0  0  0  0
   -0.1854    0.0778    0.5788 C   0  0  2  0  0  0  0  0  0  0  0  0
    0.6383    1.2174    0.1192 C   0  0  2  0  0  0  0  0  0  0  0  0
    0.3354    1.7997   -1.1079 O   0  0  0  0  0  0  0  0  0  0  0  0
    1.2585   -0.1301    0.1631 C   0  0  1  0  0  0  0  0  0  0  0  0
    2.1330   -0.5445    1.2570 C   0  0  0  0  0  0  0  0  0  0  0  0
    1.9992   -0.1012    2.4225 O   0  0  0  0  0  0  0  0  0  0  0  0
    3.1450   -1.4539    1.0150 O   0  0  0  0  0  0  0  0  0  0  0  0
   -0.1090   -0.4640   -2.0887 H   0  0  0  0  0  0  0  0  0  0  0  0
    0.0374   -1.9423   -1.3081 H   0  0  0  0  0  0  0  0  0  0  0  0
   -1.5861   -1.4706    0.2792 H   0  0  0  0  0  0  0  0  0  0  0  0
   -4.0862    1.1329    0.2672 H   0  0  0  0  0  0  0  0  0  0  0  0
   -0.4331    0.0628    1.6629 H   0  0  0  0  0  0  0  0  0  0  0  0
    1.0017    1.9353    0.8761 H   0  0  0  0  0  0  0  0  0  0  0  0
    0.7822    2.6596   -1.2304 H   0  0  0  0  0  0  0  0  0  0  0  0
    1.4702   -0.5863   -0.8208 H   0  0  0  0  0  0  0  0  0  0  0  0
    3.5618   -2.0428    1.7272 H   0  0  0  0  0  0  0  0  0  0  0  0
  1  2  1  0
  2  3  1  0
  3  4  2  0
  3  5  1  0
  2  6  1  0
  6  7  1  0
  7  8  1  0
  7  9  1  0
  9 10  1  0
 10 11  2  0
 10 12  1  0
  9  6  1  0
  1 13  1  0
  1 14  1  0
  2 15  1  1
  5 16  1  0
  6 17  1  1
  7 18  1  1
  8 19  1  0
  9 20  1  6
 12 21  1  0
M  END
$$$$

     RDKit          3D

 21 21  0  0  0  0  0  0  0  0999 V2000
   -1.4802   -0.5705    1.4129 N   0  0  0  0  0  0  0  0  0  0  0  0
   -1.2474    0.4581    0.4156 C   0  0  2  0  0  0  0  0  0  0  0  0
   -2.1450    0.1775   -0.7345 C   0  0  0  0  0  0  0  0  0  0  0  0
   -2.9426   -0.8162   -0.7472 O   0  0  0  0  0  0  0  0  0  0  0  0
   -2.1641    0.9850   -1.8621 O   0  0  0  0  0  0  0  0  0  0  0  0
    0.2013    0.5415    0.0095 C   0  0  2  0  0  0  0  0  0  0  0  0
    0.7387   -0.7407   -0.5880 C   0  0  2  0  0  0  0  0  0  0  0  0
   -0.0198   -1.9026   -0.4765 O   0  0  0  0  0  0  0  0  0  0  0  0
    1.2528   -0.2023    0.7348 C   0  0  1  0  0  0  0  0  0  0  0  0
    2.6403    0.3305    0.6969 C   0  0  0  0  0  0  0  0  0  0  0  0
    3.4601    0.1577    1.6354 O   0  0  0  0  0  0  0  0  0  0  0  0
    3.0919    1.0550   -0.4012 O   0  0  0  0  0  0  0  0  0  0  0  0
   -2.5151   -0.6228    1.5465 H   0  0  0  0  0  0  0  0  0  0  0  0
   -1.0982   -0.2562    2.3515 H   0  0  0  0  0  0  0  0  0  0  0  0
   -1.5951    1.4126    0.8671 H   0  0  0  0  0  0  0  0  0  0  0  0
   -2.9152    0.9469   -2.5604 H   0  0  0  0  0  0  0  0  0  0  0  0
    0.4926    1.4998   -0.4598 H   0  0  0  0  0  0  0  0  0  0  0  0
    1.3567   -0.6285   -1.4814 H   0  0  0  0  0  0  0  0  0  0  0  0
   -0.2067   -2.2266   -1.3946 H   0  0  0  0  0  0  0  0  0  0  0  0
    1.0240   -0.7592    1.6651 H   0  0  0  0  0  0  0  0  0  0  0  0
    4.0710    1.1610   -0.6298 H   0  0  0  0  0  0  0  0  0  0  0  0
  1  2  1  0
  2  3  1  0
  3  4  2  0
  3  5  1  0
  2  6  1  0
  6  7  1  0
  7  8  1  0
  7  9  1  0
  9 10  1  0
 10 11  2  0
 10 12  1  0
  9  6  1  0
  1 13  1  0
  1 14  1  0
  2 15  1  1
  5 16  1  0
  6 17  1  6
  7 18  1  6
  8 19  1  0
  9 20  1  1
 12 21  1  0
M  END
$$$$

     RDKit          3D

 21 21  0  0  0  0  0  0  0  0999 V2000
   -0.9659    2.1988    0.3429 N   0  0  0  0  0  0  0  0  0  0  0  0
   -1.0085    0.9208   -0.3473 C   0  0  2  0  0  0  0  0  0  0  0  0
   -2.3641    0.3261   -0.2115 C   0  0  0  0  0  0  0  0  0  0  0  0
   -3.2964    0.8969    0.4229 O   0  0  0  0  0  0  0  0  0  0  0  0
   -2.6628   -0.8975   -0.7848 O   0  0  0  0  0  0  0  0  0  0  0  0
    0.0400    0.0377    0.3223 C   0  0  2  0  0  0  0  0  0  0  0  0
    1.4550    0.5280    0.2835 C   0  0  2  0  0  0  0  0  0  0  0  0
    1.7542    1.6792   -0.4474 O   0  0  0  0  0  0  0  0  0  0  0  0
    1.0232   -0.7076   -0.4639 C   0  0  1  0  0  0  0  0  0  0  0  0
    1.5281   -2.0099    0.0484 C   0  0  0  0  0  0  0  0  0  0  0  0
    1.6619   -2.2192    1.2851 O   0  0  0  0  0  0  0  0  0  0  0  0
    1.8787   -3.0626   -0.8007 O   0  0  0  0  0  0  0  0  0  0  0  0
   -0.6490    2.1114    1.3265 H   0  0  0  0  0  0  0  0  0  0  0  0
   -1.8569    2.7185    0.2870 H   0  0  0  0  0  0  0  0  0  0  0  0
   -0.7430    1.1193   -1.4157 H   0  0  0  0  0  0  0  0  0  0  0  0
   -3.2644   -1.5889   -0.3102 H   0  0  0  0  0  0  0  0  0  0  0  0
   -0.3444   -0.4537    1.2430 H   0  0  0  0  0  0  0  0  0  0  0  0
    2.0185    0.3619    1.2236 H   0  0  0  0  0  0  0  0  0  0  0  0
    2.1474    2.3397    0.1585 H   0  0  0  0  0  0  0  0  0  0  0  0
    0.9504   -0.6468   -1.5651 H   0  0  0  0  0  0  0  0  0  0  0  0
    2.6980   -3.6519   -0.5971 H   0  0  0  0  0  0  0  0  0  0  0  0
  1  2  1  0
  2  3  1  0
  3  4  2  0
  3  5  1  0
  2  6  1  0
  6  7  1  0
  7  8  1  0
  7  9  1  0
  9 10  1  0
 10 11  2  0
 10 12  1  0
  9  6  1  0
  1 13  1  0
  1 14  1  0
  2 15  1  6
  5 16  1  0
  6 17  1  1
  7 18  1  1
  8 19  1  0
  9 20  1  6
 12 21  1  0
M  END
$$$$

     RDKit          3D

 21 21  0  0  0  0  0  0  0  0999 V2000
    1.4782    1.6785    1.4290 N   0  0  0  0  0  0  0  0  0  0  0  0
    1.2157    0.3361    0.8869 C   0  0  2  0  0  0  0  0  0  0  0  0
    1.8318    0.3396   -0.4612 C   0  0  0  0  0  0  0  0  0  0  0  0
    2.3664    1.4091   -0.8967 O   0  0  0  0  0  0  0  0  0  0  0  0
    1.8894   -0.7341   -1.3251 O   0  0  0  0  0  0  0  0  0  0  0  0
   -0.2580    0.0551    0.8878 C   0  0  2  0  0  0  0  0  0  0  0  0
   -0.6839   -1.2966    0.3862 C   0  0  2  0  0  0  0  0  0  0  0  0
    0.2029   -2.2116   -0.1195 O   0  0  0  0  0  0  0  0  0  0  0  0
   -0.9306   -0.0503   -0.4443 C   0  0  1  0  0  0  0  0  0  0  0  0
   -2.3788    0.3062   -0.5608 C   0  0  0  0  0  0  0  0  0  0  0  0
   -3.1721    0.1219    0.3980 O   0  0  0  0  0  0  0  0  0  0  0  0
   -2.9280    0.8529   -1.7131 O   0  0  0  0  0  0  0  0  0  0  0  0
    1.5713    1.6480    2.4677 H   0  0  0  0  0  0  0  0  0  0  0  0
    2.2549    2.1469    0.9523 H   0  0  0  0  0  0  0  0  0  0  0  0
    1.8025   -0.3591    1.5228 H   0  0  0  0  0  0  0  0  0  0  0  0
    2.5608   -0.8399   -2.0608 H   0  0  0  0  0  0  0  0  0  0  0  0
   -0.8184    0.5043    1.7505 H   0  0  0  0  0  0  0  0  0  0  0  0
   -1.5566   -1.7254    0.9421 H   0  0  0  0  0  0  0  0  0  0  0  0
   -0.3191   -2.8654   -0.6604 H   0  0  0  0  0  0  0  0  0  0  0  0
   -0.2782    0.1319   -1.3154 H   0  0  0  0  0  0  0  0  0  0  0  0
   -3.8502    0.5517   -2.0661 H   0  0  0  0  0  0  0  0  0  0  0  0
  1  2  1  0
  2  3  1  0
  3  4  2  0
  3  5  1  0
  2  6  1  0
  6  7  1  0
  7  8  1  0
  7  9  1  0
  9 10  1  0
 10 11  2  0
 10 12  1  0
  9  6  1  0
  1 13  1  0
  1 14  1  0
  2 15  1  1
  5 16  1  0
  6 17  1  1
  7 18  1  1
  8 19  1  0
  9 20  1  6
 12 21  1  0
M  END
$$$$

     RDKit          3D

 21 21  0  0  0  0  0  0  0  0999 V2000
   -1.2953   -0.6167    1.4434 N   0  0  0  0  0  0  0  0  0  0  0  0
   -1.0636    0.5380    0.6449 C   0  0  2  0  0  0  0  0  0  0  0  0
   -2.1512    0.8343   -0.3198 C   0  0  0  0  0  0  0  0  0  0  0  0
   -3.1874    0.1518   -0.4434 O   0  0  0  0  0  0  0  0  0  0  0  0
   -1.9814    1.9541   -1.1305 O   0  0  0  0  0  0  0  0  0  0  0  0
    0.2247    0.4631   -0.0998 C   0  0  2  0  0  0  0  0  0  0  0  0
    0.5202   -0.6056   -1.0750 C   0  0  2  0  0  0  0  0  0  0  0  0
   -0.4763   -1.4794   -1.5047 O   0  0  0  0  0  0  0  0  0  0  0  0
    1.1009   -0.7372    0.2910 C   0  0  1  0  0  0  0  0  0  0  0  0
    2.5030   -0.3981    0.5565 C   0  0  0  0  0  0  0  0  0  0  0  0
    3.1336   -0.9718    1.4539 O   0  0  0  0  0  0  0  0  0  0  0  0
    3.1587    0.5780   -0.1950 O   0  0  0  0  0  0  0  0  0  0  0  0
   -1.3492   -0.4506    2.4614 H   0  0  0  0  0  0  0  0  0  0  0  0
   -1.9278   -1.3187    1.0624 H   0  0  0  0  0  0  0  0  0  0  0  0
   -1.0138    1.4199    1.3371 H   0  0  0  0  0  0  0  0  0  0  0  0
   -2.7505    2.4243   -1.5858 H   0  0  0  0  0  0  0  0  0  0  0  0
    0.7435    1.4449   -0.2494 H   0  0  0  0  0  0  0  0  0  0  0  0
    1.2564   -0.3670   -1.8698 H   0  0  0  0  0  0  0  0  0  0  0  0
   -0.1198   -2.3515   -1.7858 H   0  0  0  0  0  0  0  0  0  0  0  0
    0.6502   -1.5142    0.9213 H   0  0  0  0  0  0  0  0  0  0  0  0
    4.0252    1.0025    0.0873 H   0  0  0  0  0  0  0  0  0  0  0  0
  1  2  1  0
  2  3  1  0
  3  4  2  0
  3  5  1  0
  2  6  1  0
  6  7  1  0
  7  8  1  0
  7  9  1  0
  9 10  1  0
 10 11  2  0
 10 12  1  0
  9  6  1  0
  1 13  1  0
  1 14  1  0
  2 15  1  1
  5 16  1  0
  6 17  1  6
  7 18  1  6
  8 19  1  0
  9 20  1  1
 12 21  1  0
M  END
$$$$

     RDKit          3D

 21 21  0  0  0  0  0  0  0  0999 V2000
   -2.0508   -1.1786    0.6315 N   0  0  0  0  0  0  0  0  0  0  0  0
   -1.3437   -0.0339    0.1607 C   0  0  2  0  0  0  0  0  0  0  0  0
   -2.1158    0.6110   -0.9176 C   0  0  0  0  0  0  0  0  0  0  0  0
   -3.2116    0.1020   -1.2514 O   0  0  0  0  0  0  0  0  0  0  0  0
   -1.7112    1.7485   -1.5921 O   0  0  0  0  0  0  0  0  0  0  0  0
    0.0616   -0.3802   -0.2457 C   0  0  2  0  0  0  0  0  0  0  0  0
    0.8782   -0.9637    0.9259 C   0  0  2  0  0  0  0  0  0  0  0  0
    0.3693   -0.8534    2.2012 O   0  0  0  0  0  0  0  0  0  0  0  0
    1.2330    0.3637    0.2570 C   0  0  1  0  0  0  0  0  0  0  0  0
    2.4881    0.2851   -0.5233 C   0  0  0  0  0  0  0  0  0  0  0  0
    2.7735   -0.6759   -1.2782 O   0  0  0  0  0  0  0  0  0  0  0  0
    3.4009    1.3172   -0.4239 O   0  0  0  0  0  0  0  0  0  0  0  0
   -2.9563   -1.3618    0.1508 H   0  0  0  0  0  0  0  0  0  0  0  0
   -1.4760   -2.0170    0.7984 H   0  0  0  0  0  0  0  0  0  0  0  0
   -1.3388    0.7095    1.0136 H   0  0  0  0  0  0  0  0  0  0  0  0
   -2.3894    2.4826   -1.8345 H   0  0  0  0  0  0  0  0  0  0  0  0
    0.1749   -0.8526   -1.2348 H   0  0  0  0  0  0  0  0  0  0  0  0
    1.4572   -1.8688    0.6686 H   0  0  0  0  0  0  0  0  0  0  0  0
    0.2254    0.1006    2.4587 H   0  0  0  0  0  0  0  0  0  0  0  0
    1.1228    1.2723    0.8778 H   0  0  0  0  0  0  0  0  0  0  0  0
    4.4087    1.1932   -0.6013 H   0  0  0  0  0  0  0  0  0  0  0  0
  1  2  1  0
  2  3  1  0
  3  4  2  0
  3  5  1  0
  2  6  1  0
  6  7  1  0
  7  8  1  0
  7  9  1  0
  9 10  1  0
 10 11  2  0
 10 12  1  0
  9  6  1  0
  1 13  1  0
  1 14  1  0
  2 15  1  1
  5 16  1  0
  6 17  1  6
  7 18  1  6
  8 19  1  0
  9 20  1  1
 12 21  1  0
M  END
$$$$

     RDKit          3D

 21 21  0  0  0  0  0  0  0  0999 V2000
   -1.6030   -0.1207   -1.1819 N   0  0  0  0  0  0  0  0  0  0  0  0
   -0.9551   -0.9208   -0.1715 C   0  0  2  0  0  0  0  0  0  0  0  0
   -1.8544   -1.0915    0.9898 C   0  0  0  0  0  0  0  0  0  0  0  0
   -1.5454   -1.7442    2.0142 O   0  0  0  0  0  0  0  0  0  0  0  0
   -3.1158   -0.5107    0.9774 O   0  0  0  0  0  0  0  0  0  0  0  0
    0.4083   -0.4113    0.2045 C   0  0  2  0  0  0  0  0  0  0  0  0
    0.6301    0.9261    0.7604 C   0  0  2  0  0  0  0  0  0  0  0  0
   -0.3586    1.8958    0.8057 O   0  0  0  0  0  0  0  0  0  0  0  0
    1.1073    0.5864   -0.6702 C   0  0  1  0  0  0  0  0  0  0  0  0
    2.5780    0.4694   -0.8509 C   0  0  0  0  0  0  0  0  0  0  0  0
    3.1882    0.8799   -1.8661 O   0  0  0  0  0  0  0  0  0  0  0  0
    3.3103   -0.1285    0.1648 O   0  0  0  0  0  0  0  0  0  0  0  0
   -2.2526    0.5790   -0.7573 H   0  0  0  0  0  0  0  0  0  0  0  0
   -2.1739   -0.6947   -1.8433 H   0  0  0  0  0  0  0  0  0  0  0  0
   -0.8270   -1.9480   -0.6185 H   0  0  0  0  0  0  0  0  0  0  0  0
   -3.9125   -0.9361    1.4574 H   0  0  0  0  0  0  0  0  0  0  0  0
    1.0821   -1.2128    0.5952 H   0  0  0  0  0  0  0  0  0  0  0  0
    1.4355    1.0858    1.5184 H   0  0  0  0  0  0  0  0  0  0  0  0
    0.0697    2.7945    0.7330 H   0  0  0  0  0  0  0  0  0  0  0  0
    0.5742    1.0690   -1.5068 H   0  0  0  0  0  0  0  0  0  0  0  0
    4.2148   -0.5665    0.0043 H   0  0  0  0  0  0  0  0  0  0  0  0
  1  2  1  0
  2  3  1  0
  3  4  2  0
  3  5  1  0
  2  6  1  0
  6  7  1  0
  7  8  1  0
  7  9  1  0
  9 10  1  0
 10 11  2  0
 10 12  1  0
  9  6  1  0
  1 13  1  0
  1 14  1  0
  2 15  1  6
  5 16  1  0
  6 17  1  1
  7 18  1  1
  8 19  1  0
  9 20  1  6
 12 21  1  0
M  END
$$$$
