
     RDKit          3D

 25 24  0  0  0  0  0  0  0  0999 V2000
    2.5036    0.0351    0.9006 C   0  0  0  0  0  0  0  0  0  0  0  0
    1.9213   -0.3567   -0.4258 C   0  0  2  0  0  0  0  0  0  0  0  0
    2.5804    0.3806   -1.4817 N   0  0  0  0  0  0  0  0  0  0  0  0
    0.4513   -0.0518   -0.5131 C   0  0  0  0  0  0  0  0  0  0  0  0
   -0.3524   -0.7858    0.5476 C   0  0  0  0  0  0  0  0  0  0  0  0
   -1.7969   -0.3814    0.3329 C   0  0  2  0  0  0  0  0  0  0  0  0
   -2.6743   -1.0238    1.2953 N   0  0  0  0  0  0  0  0  0  0  0  0
   -2.1477   -0.7746   -0.9528 O   0  0  0  0  0  0  0  0  0  0  0  0
   -1.8817    1.0957    0.4724 C   0  0  0  0  0  0  0  0  0  0  0  0
   -1.6047    1.6431    1.5557 O   0  0  0  0  0  0  0  0  0  0  0  0
   -2.2686    1.8898   -0.5939 O   0  0  0  0  0  0  0  0  0  0  0  0
    3.4878    0.5489    0.7927 H   0  0  0  0  0  0  0  0  0  0  0  0
    1.8185    0.7285    1.4382 H   0  0  0  0  0  0  0  0  0  0  0  0
    2.6772   -0.8261    1.5657 H   0  0  0  0  0  0  0  0  0  0  0  0
    2.0843   -1.4416   -0.5917 H   0  0  0  0  0  0  0  0  0  0  0  0
    2.8694    1.3256   -1.2241 H   0  0  0  0  0  0  0  0  0  0  0  0
    3.2318   -0.1706   -2.0451 H   0  0  0  0  0  0  0  0  0  0  0  0
    0.0875   -0.4264   -1.4906 H   0  0  0  0  0  0  0  0  0  0  0  0
    0.2587    1.0160   -0.4151 H   0  0  0  0  0  0  0  0  0  0  0  0
   -0.0287   -0.4886    1.5749 H   0  0  0  0  0  0  0  0  0  0  0  0
   -0.2341   -1.8870    0.4457 H   0  0  0  0  0  0  0  0  0  0  0  0
   -2.6181   -2.0600    1.0844 H   0  0  0  0  0  0  0  0  0  0  0  0
   -3.6560   -0.7430    1.0103 H   0  0  0  0  0  0  0  0  0  0  0  0
   -2.0423   -0.0560   -1.6193 H   0  0  0  0  0  0  0  0  0  0  0  0
   -2.6662    2.8101   -0.4415 H   0  0  0  0  0  0  0  0  0  0  0  0
  1  2  1  0
  2  3  1  0
  2  4  1  0
  4  5  1  0
  5  6  1  0
  6  7  1  0
  6  8  1  6
  6  9  1  0
  9 10  2  0
  9 11  1  0
  1 12  1  0
  1 13  1  0
  1 14  1  0
  2 15  1  6
  3 16  1  0
  3 17  1  0
  4 18  1  0
  4 19  1  0
  5 20  1  0
  5 21  1  0
  7 22  1  0
  7 23  1  0
  8 24  1  0
 11 25  1  0
M  END
$$$$

     RDKit          3D

 25 24  0  0  0  0  0  0  0  0999 V2000
    3.1753    0.2465   -0.7432 C   0  0  0  0  0  0  0  0  0  0  0  0
    2.0197    0.5228    0.1835 C   0  0  2  0  0  0  0  0  0  0  0  0
    2.2858   -0.1733    1.4260 N   0  0  0  0  0  0  0  0  0  0  0  0
    0.7391    0.0204   -0.4492 C   0  0  0  0  0  0  0  0  0  0  0  0
   -0.4278    0.3075    0.5033 C   0  0  0  0  0  0  0  0  0  0  0  0
   -1.6682   -0.2229   -0.1994 C   0  0  2  0  0  0  0  0  0  0  0  0
   -1.4680   -1.6312   -0.4111 N   0  0  0  0  0  0  0  0  0  0  0  0
   -1.6651    0.3770   -1.4797 O   0  0  0  0  0  0  0  0  0  0  0  0
   -2.9058    0.1130    0.5047 C   0  0  0  0  0  0  0  0  0  0  0  0
   -3.0794   -0.3386    1.6648 O   0  0  0  0  0  0  0  0  0  0  0  0
   -3.9103    0.9052   -0.0297 O   0  0  0  0  0  0  0  0  0  0  0  0
    4.1277    0.5957   -0.3470 H   0  0  0  0  0  0  0  0  0  0  0  0
    2.9716    0.7650   -1.7032 H   0  0  0  0  0  0  0  0  0  0  0  0
    3.1604   -0.8533   -0.9490 H   0  0  0  0  0  0  0  0  0  0  0  0
    1.9130    1.6082    0.4007 H   0  0  0  0  0  0  0  0  0  0  0  0
    1.6177    0.0792    2.1873 H   0  0  0  0  0  0  0  0  0  0  0  0
    2.3344   -1.2045    1.2623 H   0  0  0  0  0  0  0  0  0  0  0  0
    0.8245   -1.0603   -0.6453 H   0  0  0  0  0  0  0  0  0  0  0  0
    0.5946    0.5282   -1.4189 H   0  0  0  0  0  0  0  0  0  0  0  0
   -0.2572   -0.2344    1.4447 H   0  0  0  0  0  0  0  0  0  0  0  0
   -0.4887    1.3770    0.7216 H   0  0  0  0  0  0  0  0  0  0  0  0
   -1.7624   -1.9377   -1.3520 H   0  0  0  0  0  0  0  0  0  0  0  0
   -1.9138   -2.2103    0.3514 H   0  0  0  0  0  0  0  0  0  0  0  0
   -1.4514    1.3402   -1.4128 H   0  0  0  0  0  0  0  0  0  0  0  0
   -4.7656    1.0806    0.4900 H   0  0  0  0  0  0  0  0  0  0  0  0
  1  2  1  0
  2  3  1  0
  2  4  1  0
  4  5  1  0
  5  6  1  0
  6  7  1  0
  6  8  1  6
  6  9  1  0
  9 10  2  0
  9 11  1  0
  1 12  1  0
  1 13  1  0
  1 14  1  0
  2 15  1  1
  3 16  1  0
  3 17  1  0
  4 18  1  0
  4 19  1  0
  5 20  1  0
  5 21  1  0
  7 22  1  0
  7 23  1  0
  8 24  1  0
 11 25  1  0
M  END
$$$$

     RDKit          3D

 25 24  0  0  0  0  0  0  0  0999 V2000
   -2.6892    1.5776   -0.5059 C   0  0  0  0  0  0  0  0  0  0  0  0
   -1.9495    0.2769   -0.3539 C   0  0  2  0  0  0  0  0  0  0  0  0
   -2.5246   -0.4400    0.7619 N   0  0  0  0  0  0  0  0  0  0  0  0
   -0.4786    0.5353   -0.1051 C   0  0  0  0  0  0  0  0  0  0  0  0
    0.1965   -0.8049    0.0366 C   0  0  0  0  0  0  0  0  0  0  0  0
    1.6800   -0.6239    0.2891 C   0  0  2  0  0  0  0  0  0  0  0  0
    2.2987   -1.9322    0.4203 N   0  0  0  0  0  0  0  0  0  0  0  0
    1.9217    0.1154    1.4260 O   0  0  0  0  0  0  0  0  0  0  0  0
    2.3052    0.0659   -0.8624 C   0  0  0  0  0  0  0  0  0  0  0  0
    2.2086   -0.4394   -2.0189 O   0  0  0  0  0  0  0  0  0  0  0  0
    3.0020    1.2619   -0.7156 O   0  0  0  0  0  0  0  0  0  0  0  0
   -3.5794    1.4230   -1.1436 H   0  0  0  0  0  0  0  0  0  0  0  0
   -2.0368    2.2885   -1.0389 H   0  0  0  0  0  0  0  0  0  0  0  0
   -3.0188    1.9713    0.4902 H   0  0  0  0  0  0  0  0  0  0  0  0
   -2.0858   -0.2999   -1.2907 H   0  0  0  0  0  0  0  0  0  0  0  0
   -1.9898   -0.2689    1.6494 H   0  0  0  0  0  0  0  0  0  0  0  0
   -2.4650   -1.4703    0.5946 H   0  0  0  0  0  0  0  0  0  0  0  0
   -0.0456    1.1045   -0.9525 H   0  0  0  0  0  0  0  0  0  0  0  0
   -0.3859    1.0879    0.8640 H   0  0  0  0  0  0  0  0  0  0  0  0
   -0.2684   -1.3381    0.8855 H   0  0  0  0  0  0  0  0  0  0  0  0
    0.0342   -1.3972   -0.8657 H   0  0  0  0  0  0  0  0  0  0  0  0
    1.7050   -2.5652    0.9840 H   0  0  0  0  0  0  0  0  0  0  0  0
    3.2671   -1.8424    0.8147 H   0  0  0  0  0  0  0  0  0  0  0  0
    1.1166    0.2666    1.9813 H   0  0  0  0  0  0  0  0  0  0  0  0
    3.7817    1.4475   -1.3443 H   0  0  0  0  0  0  0  0  0  0  0  0
  1  2  1  0
  2  3  1  0
  2  4  1  0
  4  5  1  0
  5  6  1  0
  6  7  1  0
  6  8  1  1
  6  9  1  0
  9 10  2  0
  9 11  1  0
  1 12  1  0
  1 13  1  0
  1 14  1  0
  2 15  1  6
  3 16  1  0
  3 17  1  0
  4 18  1  0
  4 19  1  0
  5 20  1  0
  5 21  1  0
  7 22  1  0
  7 23  1  0
  8 24  1  0
 11 25  1  0
M  END
$$$$

     RDKit          3D

 25 24  0  0  0  0  0  0  0  0999 V2000
    2.4502    0.9293    0.1811 C   0  0  0  0  0  0  0  0  0  0  0  0
    2.0077   -0.4710    0.4936 C   0  0  2  0  0  0  0  0  0  0  0  0
    3.0272   -1.4537    0.1088 N   0  0  0  0  0  0  0  0  0  0  0  0
    0.6810   -0.8099   -0.1994 C   0  0  0  0  0  0  0  0  0  0  0  0
   -0.3295    0.1804    0.3177 C   0  0  0  0  0  0  0  0  0  0  0  0
   -1.6980   -0.0229   -0.2748 C   0  0  2  0  0  0  0  0  0  0  0  0
   -2.2312   -1.3363    0.0155 N   0  0  0  0  0  0  0  0  0  0  0  0
   -1.5991    0.0818   -1.6599 O   0  0  0  0  0  0  0  0  0  0  0  0
   -2.5722    1.0528    0.2267 C   0  0  0  0  0  0  0  0  0  0  0  0
   -2.8098    1.1603    1.4487 O   0  0  0  0  0  0  0  0  0  0  0  0
   -3.1397    1.9554   -0.6466 O   0  0  0  0  0  0  0  0  0  0  0  0
    2.1679    1.6563    0.9972 H   0  0  0  0  0  0  0  0  0  0  0  0
    3.5504    0.9793    0.1002 H   0  0  0  0  0  0  0  0  0  0  0  0
    1.9777    1.3180   -0.7410 H   0  0  0  0  0  0  0  0  0  0  0  0
    1.9026   -0.5577    1.5947 H   0  0  0  0  0  0  0  0  0  0  0  0
    2.5432   -2.3930    0.1270 H   0  0  0  0  0  0  0  0  0  0  0  0
    3.7596   -1.5234    0.8647 H   0  0  0  0  0  0  0  0  0  0  0  0
    0.8283   -0.6709   -1.2867 H   0  0  0  0  0  0  0  0  0  0  0  0
    0.4364   -1.8525    0.0013 H   0  0  0  0  0  0  0  0  0  0  0  0
   -0.3371    0.1150    1.4195 H   0  0  0  0  0  0  0  0  0  0  0  0
    0.0357    1.1921    0.0499 H   0  0  0  0  0  0  0  0  0  0  0  0
   -3.2688   -1.2715   -0.1026 H   0  0  0  0  0  0  0  0  0  0  0  0
   -1.9142   -2.0452   -0.6888 H   0  0  0  0  0  0  0  0  0  0  0  0
   -2.0573    0.8911   -1.9882 H   0  0  0  0  0  0  0  0  0  0  0  0
   -3.4113    2.8958   -0.3587 H   0  0  0  0  0  0  0  0  0  0  0  0
  1  2  1  0
  2  3  1  0
  2  4  1  0
  4  5  1  0
  5  6  1  0
  6  7  1  0
  6  8  1  6
  6  9  1  0
  9 10  2  0
  9 11  1  0
  1 12  1  0
  1 13  1  0
  1 14  1  0
  2 15  1  1
  3 16  1  0
  3 17  1  0
  4 18  1  0
  4 19  1  0
  5 20  1  0
  5 21  1  0
  7 22  1  0
  7 23  1  0
  8 24  1  0
 11 25  1  0
M  END
$$$$

     RDKit          3D

 25 24  0  0  0  0  0  0  0  0999 V2000
   -2.2463   -0.0850   -1.3526 C   0  0  0  0  0  0  0  0  0  0  0  0
   -2.0144   -0.1003    0.1336 C   0  0  2  0  0  0  0  0  0  0  0  0
   -2.9951    0.7220    0.8146 N   0  0  0  0  0  0  0  0  0  0  0  0
   -0.6179    0.2676    0.5135 C   0  0  0  0  0  0  0  0  0  0  0  0
    0.3347   -0.7211   -0.1172 C   0  0  0  0  0  0  0  0  0  0  0  0
    1.7841   -0.3858    0.2437 C   0  0  2  0  0  0  0  0  0  0  0  0
    2.6058   -1.3889   -0.4081 N   0  0  0  0  0  0  0  0  0  0  0  0
    1.8715   -0.4256    1.6164 O   0  0  0  0  0  0  0  0  0  0  0  0
    2.1443    0.9693   -0.2299 C   0  0  0  0  0  0  0  0  0  0  0  0
    2.1224    1.1985   -1.4617 O   0  0  0  0  0  0  0  0  0  0  0  0
    2.4971    1.9621    0.6598 O   0  0  0  0  0  0  0  0  0  0  0  0
   -3.3449   -0.2027   -1.5122 H   0  0  0  0  0  0  0  0  0  0  0  0
   -1.9642    0.9271   -1.7458 H   0  0  0  0  0  0  0  0  0  0  0  0
   -1.6909   -0.9008   -1.8302 H   0  0  0  0  0  0  0  0  0  0  0  0
   -2.1919   -1.1510    0.4836 H   0  0  0  0  0  0  0  0  0  0  0  0
   -3.0294    1.6535    0.3491 H   0  0  0  0  0  0  0  0  0  0  0  0
   -3.9287    0.2873    0.7000 H   0  0  0  0  0  0  0  0  0  0  0  0
   -0.5107    0.2513    1.5975 H   0  0  0  0  0  0  0  0  0  0  0  0
   -0.3763    1.2662    0.0825 H   0  0  0  0  0  0  0  0  0  0  0  0
    0.1342   -1.7350    0.2892 H   0  0  0  0  0  0  0  0  0  0  0  0
    0.2471   -0.7697   -1.2025 H   0  0  0  0  0  0  0  0  0  0  0  0
    3.4978   -1.0200   -0.7587 H   0  0  0  0  0  0  0  0  0  0  0  0
    2.6502   -2.2820    0.0891 H   0  0  0  0  0  0  0  0  0  0  0  0
    2.2557   -1.2495    1.9848 H   0  0  0  0  0  0  0  0  0  0  0  0
    2.7658    2.9128    0.3663 H   0  0  0  0  0  0  0  0  0  0  0  0
  1  2  1  0
  2  3  1  0
  2  4  1  0
  4  5  1  0
  5  6  1  0
  6  7  1  0
  6  8  1  1
  6  9  1  0
  9 10  2  0
  9 11  1  0
  1 12  1  0
  1 13  1  0
  1 14  1  0
  2 15  1  1
  3 16  1  0
  3 17  1  0
  4 18  1  0
  4 19  1  0
  5 20  1  0
  5 21  1  0
  7 22  1  0
  7 23  1  0
  8 24  1  0
 11 25  1  0
M  END
$$$$

     RDKit          3D

 25 24  0  0  0  0  0  0  0  0999 V2000
   -2.2370   -0.1398   -1.2536 C   0  0  0  0  0  0  0  0  0  0  0  0
   -2.0119   -0.5137    0.1882 C   0  0  2  0  0  0  0  0  0  0  0  0
   -2.3434    0.6471    1.0083 N   0  0  0  0  0  0  0  0  0  0  0  0
   -0.5138   -0.7506    0.3998 C   0  0  0  0  0  0  0  0  0  0  0  0
    0.1750    0.5341    0.0556 C   0  0  0  0  0  0  0  0  0  0  0  0
    1.6693    0.4940    0.2075 C   0  0  2  0  0  0  0  0  0  0  0  0
    2.0153    0.1845    1.5873 N   0  0  0  0  0  0  0  0  0  0  0  0
    2.1774    1.7867   -0.0194 O   0  0  0  0  0  0  0  0  0  0  0  0
    2.3351   -0.4168   -0.7440 C   0  0  0  0  0  0  0  0  0  0  0  0
    3.1740    0.0080   -1.5632 O   0  0  0  0  0  0  0  0  0  0  0  0
    2.0262   -1.7637   -0.7295 O   0  0  0  0  0  0  0  0  0  0  0  0
   -2.0351    0.9323   -1.4577 H   0  0  0  0  0  0  0  0  0  0  0  0
   -1.6360   -0.8204   -1.8992 H   0  0  0  0  0  0  0  0  0  0  0  0
   -3.3112   -0.3278   -1.4822 H   0  0  0  0  0  0  0  0  0  0  0  0
   -2.6014   -1.3925    0.4448 H   0  0  0  0  0  0  0  0  0  0  0  0
   -2.2758    1.5396    0.4845 H   0  0  0  0  0  0  0  0  0  0  0  0
   -1.7705    0.6223    1.8665 H   0  0  0  0  0  0  0  0  0  0  0  0
   -0.3545   -1.0764    1.4329 H   0  0  0  0  0  0  0  0  0  0  0  0
   -0.2472   -1.5831   -0.2667 H   0  0  0  0  0  0  0  0  0  0  0  0
   -0.0348    0.7725   -1.0100 H   0  0  0  0  0  0  0  0  0  0  0  0
   -0.2053    1.3852    0.6538 H   0  0  0  0  0  0  0  0  0  0  0  0
    1.8441    0.9703    2.2249 H   0  0  0  0  0  0  0  0  0  0  0  0
    1.5758   -0.6667    1.9469 H   0  0  0  0  0  0  0  0  0  0  0  0
    1.8884    2.0068   -0.9580 H   0  0  0  0  0  0  0  0  0  0  0  0
    2.6974   -2.4318   -1.1175 H   0  0  0  0  0  0  0  0  0  0  0  0
  1  2  1  0
  2  3  1  0
  2  4  1  0
  4  5  1  0
  5  6  1  0
  6  7  1  0
  6  8  1  6
  6  9  1  0
  9 10  2  0
  9 11  1  0
  1 12  1  0
  1 13  1  0
  1 14  1  0
  2 15  1  1
  3 16  1  0
  3 17  1  0
  4 18  1  0
  4 19  1  0
  5 20  1  0
  5 21  1  0
  7 22  1  0
  7 23  1  0
  8 24  1  0
 11 25  1  0
M  END
$$$$

     RDKit          3D

 25 24  0  0  0  0  0  0  0  0999 V2000
   -3.1076   -0.6958   -0.7181 C   0  0  0  0  0  0  0  0  0  0  0  0
   -1.9490   -0.6094    0.2546 C   0  0  2  0  0  0  0  0  0  0  0  0
   -2.3094    0.3471    1.2590 N   0  0  0  0  0  0  0  0  0  0  0  0
   -0.6981   -0.2392   -0.4983 C   0  0  0  0  0  0  0  0  0  0  0  0
    0.4688   -0.1500    0.4672 C   0  0  0  0  0  0  0  0  0  0  0  0
    1.7070    0.2228   -0.3194 C   0  0  2  0  0  0  0  0  0  0  0  0
    1.4659    1.5083   -0.9576 N   0  0  0  0  0  0  0  0  0  0  0  0
    2.0194   -0.7439   -1.2568 O   0  0  0  0  0  0  0  0  0  0  0  0
    2.8362    0.3641    0.6412 C   0  0  0  0  0  0  0  0  0  0  0  0
    2.7283    1.2072    1.5740 O   0  0  0  0  0  0  0  0  0  0  0  0
    3.9971   -0.3722    0.5743 O   0  0  0  0  0  0  0  0  0  0  0  0
   -4.0492   -0.4973   -0.1461 H   0  0  0  0  0  0  0  0  0  0  0  0
   -3.1865   -1.7040   -1.1405 H   0  0  0  0  0  0  0  0  0  0  0  0
   -3.0206    0.1014   -1.5059 H   0  0  0  0  0  0  0  0  0  0  0  0
   -1.8200   -1.5924    0.7146 H   0  0  0  0  0  0  0  0  0  0  0  0
   -1.7336    0.3318    2.1098 H   0  0  0  0  0  0  0  0  0  0  0  0
   -2.5474    1.2832    0.8945 H   0  0  0  0  0  0  0  0  0  0  0  0
   -0.8424    0.7658   -0.9244 H   0  0  0  0  0  0  0  0  0  0  0  0
   -0.5199   -1.0195   -1.2607 H   0  0  0  0  0  0  0  0  0  0  0  0
    0.2786    0.6401    1.1985 H   0  0  0  0  0  0  0  0  0  0  0  0
    0.6593   -1.1392    0.9368 H   0  0  0  0  0  0  0  0  0  0  0  0
    2.3337    1.9619   -1.2939 H   0  0  0  0  0  0  0  0  0  0  0  0
    0.9116    2.1034   -0.3009 H   0  0  0  0  0  0  0  0  0  0  0  0
    1.7504   -1.6405   -0.9530 H   0  0  0  0  0  0  0  0  0  0  0  0
    4.6272   -0.4336    1.3663 H   0  0  0  0  0  0  0  0  0  0  0  0
  1  2  1  0
  2  3  1  0
  2  4  1  0
  4  5  1  0
  5  6  1  0
  6  7  1  0
  6  8  1  6
  6  9  1  0
  9 10  2  0
  9 11  1  0
  1 12  1  0
  1 13  1  0
  1 14  1  0
  2 15  1  1
  3 16  1  0
  3 17  1  0
  4 18  1  0
  4 19  1  0
  5 20  1  0
  5 21  1  0
  7 22  1  0
  7 23  1  0
  8 24  1  0
 11 25  1  0
M  END
$$$$

     RDKit          3D

 25 24  0  0  0  0  0  0  0  0999 V2000
   -2.2245    0.7621   -0.4867 C   0  0  0  0  0  0  0  0  0  0  0  0
   -1.8891   -0.3126    0.4964 C   0  0  2  0  0  0  0  0  0  0  0  0
   -2.7119   -0.2927    1.6831 N   0  0  0  0  0  0  0  0  0  0  0  0
   -0.4294   -0.2660    0.9012 C   0  0  0  0  0  0  0  0  0  0  0  0
    0.3929   -0.4548   -0.3413 C   0  0  0  0  0  0  0  0  0  0  0  0
    1.8792   -0.4267   -0.0612 C   0  0  2  0  0  0  0  0  0  0  0  0
    2.5384   -0.6216   -1.3561 N   0  0  0  0  0  0  0  0  0  0  0  0
    2.2424   -1.4004    0.8370 O   0  0  0  0  0  0  0  0  0  0  0  0
    2.3182    0.8898    0.4379 C   0  0  0  0  0  0  0  0  0  0  0  0
    2.9219    0.9540    1.5351 O   0  0  0  0  0  0  0  0  0  0  0  0
    2.0974    2.0770   -0.2479 O   0  0  0  0  0  0  0  0  0  0  0  0
   -3.3475    0.8139   -0.5415 H   0  0  0  0  0  0  0  0  0  0  0  0
   -1.8059    0.5030   -1.4669 H   0  0  0  0  0  0  0  0  0  0  0  0
   -1.8229    1.7580   -0.1599 H   0  0  0  0  0  0  0  0  0  0  0  0
   -2.0721   -1.2969   -0.0147 H   0  0  0  0  0  0  0  0  0  0  0  0
   -3.1621    0.6061    1.8760 H   0  0  0  0  0  0  0  0  0  0  0  0
   -3.2864   -1.1316    1.8188 H   0  0  0  0  0  0  0  0  0  0  0  0
   -0.2214   -1.0644    1.6297 H   0  0  0  0  0  0  0  0  0  0  0  0
   -0.2306    0.7438    1.3371 H   0  0  0  0  0  0  0  0  0  0  0  0
    0.1364   -1.4064   -0.8024 H   0  0  0  0  0  0  0  0  0  0  0  0
    0.1866    0.3661   -1.0512 H   0  0  0  0  0  0  0  0  0  0  0  0
    2.5800   -1.6383   -1.6010 H   0  0  0  0  0  0  0  0  0  0  0  0
    1.9989   -0.0552   -2.0364 H   0  0  0  0  0  0  0  0  0  0  0  0
    1.5517   -2.0727    1.0173 H   0  0  0  0  0  0  0  0  0  0  0  0
    2.3598    2.9665    0.1572 H   0  0  0  0  0  0  0  0  0  0  0  0
  1  2  1  0
  2  3  1  0
  2  4  1  0
  4  5  1  0
  5  6  1  0
  6  7  1  0
  6  8  1  1
  6  9  1  0
  9 10  2  0
  9 11  1  0
  1 12  1  0
  1 13  1  0
  1 14  1  0
  2 15  1  6
  3 16  1  0
  3 17  1  0
  4 18  1  0
  4 19  1  0
  5 20  1  0
  5 21  1  0
  7 22  1  0
  7 23  1  0
  8 24  1  0
 11 25  1  0
M  END
$$$$
