
     RDKit          3D

 26 25  0  0  0  0  0  0  0  0999 V2000
   -2.9696   -0.1174   -1.3326 C   0  0  0  0  0  0  0  0  0  0  0  0
   -1.8540    0.8805   -1.2031 C   0  0  0  0  0  0  0  0  0  0  0  0
   -1.1926    0.7442    0.1621 C   0  0  2  0  0  0  0  0  0  0  0  0
   -0.1927    1.6993    0.2050 O   0  0  0  0  0  0  0  0  0  0  0  0
   -0.7505   -0.6403    0.3318 C   0  0  0  0  0  0  0  0  0  0  0  0
   -1.6147   -1.5466    0.2148 O   0  0  0  0  0  0  0  0  0  0  0  0
    0.5705   -0.9990    0.6120 N   0  0  0  0  0  0  0  0  0  0  0  0
    0.8827   -2.4347    0.6885 C   0  0  0  0  0  0  0  0  0  0  0  0
    1.5798   -0.0101    0.8575 C   0  0  0  0  0  0  0  0  0  0  0  0
    2.2358    0.4607   -0.3738 C   0  0  0  0  0  0  0  0  0  0  0  0
    3.2544    1.4331   -0.3344 N   0  0  0  0  0  0  0  0  0  0  0  0
    1.8845   -0.0093   -1.4769 O   0  0  0  0  0  0  0  0  0  0  0  0
   -3.4513   -0.2771   -0.3435 H   0  0  0  0  0  0  0  0  0  0  0  0
   -2.6143   -1.0520   -1.7975 H   0  0  0  0  0  0  0  0  0  0  0  0
   -3.7671    0.2934   -2.0276 H   0  0  0  0  0  0  0  0  0  0  0  0
   -1.0734    0.6411   -1.9614 H   0  0  0  0  0  0  0  0  0  0  0  0
   -2.2441    1.8910   -1.3752 H   0  0  0  0  0  0  0  0  0  0  0  0
   -1.9712    1.0409    0.9126 H   0  0  0  0  0  0  0  0  0  0  0  0
   -0.5621    2.5691    0.4909 H   0  0  0  0  0  0  0  0  0  0  0  0
    0.3443   -2.8333    1.5733 H   0  0  0  0  0  0  0  0  0  0  0  0
    1.9838   -2.5838    0.7487 H   0  0  0  0  0  0  0  0  0  0  0  0
    0.4637   -2.9392   -0.1994 H   0  0  0  0  0  0  0  0  0  0  0  0
    1.2907    0.7998    1.5277 H   0  0  0  0  0  0  0  0  0  0  0  0
    2.4131   -0.5770    1.4142 H   0  0  0  0  0  0  0  0  0  0  0  0
    3.1451    2.3940    0.0353 H   0  0  0  0  0  0  0  0  0  0  0  0
    4.2095    1.1727   -0.7089 H   0  0  0  0  0  0  0  0  0  0  0  0
  1  2  1  0
  2  3  1  0
  3  4  1  0
  3  5  1  0
  5  6  2  0
  5  7  1  0
  7  8  1  0
  7  9  1  0
  9 10  1  0
 10 11  1  0
 10 12  2  0
  1 13  1  0
  1 14  1  0
  1 15  1  0
  2 16  1  0
  2 17  1  0
  3 18  1  1
  4 19  1  0
  8 20  1  0
  8 21  1  0
  8 22  1  0
  9 23  1  0
  9 24  1  0
 11 25  1  0
 11 26  1  0
M  END
$$$$

     RDKit          3D

 26 25  0  0  0  0  0  0  0  0999 V2000
    3.8914    0.0735    0.0733 C   0  0  0  0  0  0  0  0  0  0  0  0
    2.5632    0.5431   -0.4534 C   0  0  0  0  0  0  0  0  0  0  0  0
    1.4708   -0.0038    0.4425 C   0  0  2  0  0  0  0  0  0  0  0  0
    1.5203   -1.3690    0.4356 O   0  0  0  0  0  0  0  0  0  0  0  0
    0.1433    0.5247    0.0619 C   0  0  0  0  0  0  0  0  0  0  0  0
   -0.0274    1.7983    0.0336 O   0  0  0  0  0  0  0  0  0  0  0  0
   -0.9762   -0.2608   -0.2801 N   0  0  0  0  0  0  0  0  0  0  0  0
   -0.8754   -1.6951   -0.2760 C   0  0  0  0  0  0  0  0  0  0  0  0
   -2.2250    0.3678   -0.6345 C   0  0  0  0  0  0  0  0  0  0  0  0
   -3.0775    0.5777    0.5591 C   0  0  0  0  0  0  0  0  0  0  0  0
   -4.3499    1.1858    0.4102 N   0  0  0  0  0  0  0  0  0  0  0  0
   -2.7165    0.2357    1.7101 O   0  0  0  0  0  0  0  0  0  0  0  0
    4.6666    0.8703   -0.0363 H   0  0  0  0  0  0  0  0  0  0  0  0
    3.8651   -0.1452    1.1744 H   0  0  0  0  0  0  0  0  0  0  0  0
    4.1972   -0.8649   -0.4213 H   0  0  0  0  0  0  0  0  0  0  0  0
    2.3974    0.2243   -1.5021 H   0  0  0  0  0  0  0  0  0  0  0  0
    2.5146    1.6645   -0.3624 H   0  0  0  0  0  0  0  0  0  0  0  0
    1.6863    0.3717    1.4632 H   0  0  0  0  0  0  0  0  0  0  0  0
    2.4556   -1.6566    0.2873 H   0  0  0  0  0  0  0  0  0  0  0  0
   -1.8612   -2.1021   -0.6441 H   0  0  0  0  0  0  0  0  0  0  0  0
   -0.1297   -2.0993   -0.9993 H   0  0  0  0  0  0  0  0  0  0  0  0
   -0.6432   -2.1159    0.7313 H   0  0  0  0  0  0  0  0  0  0  0  0
   -2.8113   -0.2619   -1.3468 H   0  0  0  0  0  0  0  0  0  0  0  0
   -2.0909    1.3532   -1.1213 H   0  0  0  0  0  0  0  0  0  0  0  0
   -4.7050    1.7964    1.1578 H   0  0  0  0  0  0  0  0  0  0  0  0
   -4.8828    0.9875   -0.4627 H   0  0  0  0  0  0  0  0  0  0  0  0
  1  2  1  0
  2  3  1  0
  3  4  1  0
  3  5  1  0
  5  6  2  0
  5  7  1  0
  7  8  1  0
  7  9  1  0
  9 10  1  0
 10 11  1  0
 10 12  2  0
  1 13  1  0
  1 14  1  0
  1 15  1  0
  2 16  1  0
  2 17  1  0
  3 18  1  1
  4 19  1  0
  8 20  1  0
  8 21  1  0
  8 22  1  0
  9 23  1  0
  9 24  1  0
 11 25  1  0
 11 26  1  0
M  END
$$$$

     RDKit          3D

 26 25  0  0  0  0  0  0  0  0999 V2000
   -3.5836   -1.0044   -0.3791 C   0  0  0  0  0  0  0  0  0  0  0  0
   -2.1922   -1.0936    0.1905 C   0  0  0  0  0  0  0  0  0  0  0  0
   -1.6370    0.3056    0.3000 C   0  0  2  0  0  0  0  0  0  0  0  0
   -1.6148    0.8498   -0.9541 O   0  0  0  0  0  0  0  0  0  0  0  0
   -0.2874    0.3352    0.8897 C   0  0  0  0  0  0  0  0  0  0  0  0
   -0.2045   -0.1530    2.0702 O   0  0  0  0  0  0  0  0  0  0  0  0
    0.8377    0.8458    0.2467 N   0  0  0  0  0  0  0  0  0  0  0  0
    0.8336    1.4106   -1.0764 C   0  0  0  0  0  0  0  0  0  0  0  0
    2.1245    0.8117    0.9582 C   0  0  0  0  0  0  0  0  0  0  0  0
    2.8208   -0.4834    0.6478 C   0  0  0  0  0  0  0  0  0  0  0  0
    4.0884   -0.7745    1.2085 N   0  0  0  0  0  0  0  0  0  0  0  0
    2.2608   -1.3108   -0.1207 O   0  0  0  0  0  0  0  0  0  0  0  0
   -3.7569   -0.0933   -0.9728 H   0  0  0  0  0  0  0  0  0  0  0  0
   -3.7282   -1.9065   -1.0277 H   0  0  0  0  0  0  0  0  0  0  0  0
   -4.3057   -1.0045    0.4555 H   0  0  0  0  0  0  0  0  0  0  0  0
   -2.2425   -1.5057    1.2143 H   0  0  0  0  0  0  0  0  0  0  0  0
   -1.5489   -1.6630   -0.4889 H   0  0  0  0  0  0  0  0  0  0  0  0
   -2.3168    0.8763    0.9683 H   0  0  0  0  0  0  0  0  0  0  0  0
   -1.8539    0.2064   -1.6598 H   0  0  0  0  0  0  0  0  0  0  0  0
    0.5169    0.5972   -1.7885 H   0  0  0  0  0  0  0  0  0  0  0  0
    1.8748    1.6845   -1.3560 H   0  0  0  0  0  0  0  0  0  0  0  0
    0.1649    2.2985   -1.1484 H   0  0  0  0  0  0  0  0  0  0  0  0
    1.8999    0.8702    2.0377 H   0  0  0  0  0  0  0  0  0  0  0  0
    2.7614    1.6797    0.6732 H   0  0  0  0  0  0  0  0  0  0  0  0
    4.8025   -0.0358    1.3214 H   0  0  0  0  0  0  0  0  0  0  0  0
    4.2862   -1.7430    1.5036 H   0  0  0  0  0  0  0  0  0  0  0  0
  1  2  1  0
  2  3  1  0
  3  4  1  0
  3  5  1  0
  5  6  2  0
  5  7  1  0
  7  8  1  0
  7  9  1  0
  9 10  1  0
 10 11  1  0
 10 12  2  0
  1 13  1  0
  1 14  1  0
  1 15  1  0
  2 16  1  0
  2 17  1  0
  3 18  1  1
  4 19  1  0
  8 20  1  0
  8 21  1  0
  8 22  1  0
  9 23  1  0
  9 24  1  0
 11 25  1  0
 11 26  1  0
M  END
$$$$

     RDKit          3D

 26 25  0  0  0  0  0  0  0  0999 V2000
    3.2159    1.0843   -0.4754 C   0  0  0  0  0  0  0  0  0  0  0  0
    2.7700   -0.3261   -0.2794 C   0  0  0  0  0  0  0  0  0  0  0  0
    1.5756   -0.4698    0.6177 C   0  0  2  0  0  0  0  0  0  0  0  0
    1.2875   -1.8183    0.6996 O   0  0  0  0  0  0  0  0  0  0  0  0
    0.4057    0.2819    0.2110 C   0  0  0  0  0  0  0  0  0  0  0  0
    0.4002    1.5432    0.0594 O   0  0  0  0  0  0  0  0  0  0  0  0
   -0.8294   -0.3674   -0.0467 N   0  0  0  0  0  0  0  0  0  0  0  0
   -1.0525   -1.7957    0.0627 C   0  0  0  0  0  0  0  0  0  0  0  0
   -2.0129    0.4210   -0.4579 C   0  0  0  0  0  0  0  0  0  0  0  0
   -2.7865    0.8451    0.7357 C   0  0  0  0  0  0  0  0  0  0  0  0
   -3.9539    1.6096    0.5426 N   0  0  0  0  0  0  0  0  0  0  0  0
   -2.4011    0.5253    1.8823 O   0  0  0  0  0  0  0  0  0  0  0  0
    2.8351    1.4781   -1.4514 H   0  0  0  0  0  0  0  0  0  0  0  0
    2.9648    1.7552    0.3720 H   0  0  0  0  0  0  0  0  0  0  0  0
    4.3252    1.0920   -0.5666 H   0  0  0  0  0  0  0  0  0  0  0  0
    2.5640   -0.7917   -1.2699 H   0  0  0  0  0  0  0  0  0  0  0  0
    3.5987   -0.9107    0.1739 H   0  0  0  0  0  0  0  0  0  0  0  0
    1.8924   -0.0957    1.6273 H   0  0  0  0  0  0  0  0  0  0  0  0
    1.8306   -2.3783    0.0739 H   0  0  0  0  0  0  0  0  0  0  0  0
   -2.1205   -2.0469   -0.1919 H   0  0  0  0  0  0  0  0  0  0  0  0
   -0.9272   -2.1848    1.0931 H   0  0  0  0  0  0  0  0  0  0  0  0
   -0.4452   -2.2959   -0.7058 H   0  0  0  0  0  0  0  0  0  0  0  0
   -1.6663    1.2886   -1.0646 H   0  0  0  0  0  0  0  0  0  0  0  0
   -2.6629   -0.2385   -1.0583 H   0  0  0  0  0  0  0  0  0  0  0  0
   -4.5992    1.7766    1.3544 H   0  0  0  0  0  0  0  0  0  0  0  0
   -4.2082    2.0187   -0.3715 H   0  0  0  0  0  0  0  0  0  0  0  0
  1  2  1  0
  2  3  1  0
  3  4  1  0
  3  5  1  0
  5  6  2  0
  5  7  1  0
  7  8  1  0
  7  9  1  0
  9 10  1  0
 10 11  1  0
 10 12  2  0
  1 13  1  0
  1 14  1  0
  1 15  1  0
  2 16  1  0
  2 17  1  0
  3 18  1  1
  4 19  1  0
  8 20  1  0
  8 21  1  0
  8 22  1  0
  9 23  1  0
  9 24  1  0
 11 25  1  0
 11 26  1  0
M  END
$$$$

     RDKit          3D

 26 25  0  0  0  0  0  0  0  0999 V2000
    3.8303   -0.0200    0.0782 C   0  0  0  0  0  0  0  0  0  0  0  0
    2.4822   -0.5928   -0.2813 C   0  0  0  0  0  0  0  0  0  0  0  0
    1.4617    0.5335   -0.0561 C   0  0  2  0  0  0  0  0  0  0  0  0
    1.5463    0.8757    1.2657 O   0  0  0  0  0  0  0  0  0  0  0  0
    0.1627    0.0044   -0.4864 C   0  0  0  0  0  0  0  0  0  0  0  0
    0.0413   -0.3254   -1.7043 O   0  0  0  0  0  0  0  0  0  0  0  0
   -0.9234   -0.1436    0.3894 N   0  0  0  0  0  0  0  0  0  0  0  0
   -0.8338    0.2179    1.7836 C   0  0  0  0  0  0  0  0  0  0  0  0
   -2.1696   -0.6774   -0.1332 C   0  0  0  0  0  0  0  0  0  0  0  0
   -3.0369    0.4000   -0.6245 C   0  0  0  0  0  0  0  0  0  0  0  0
   -4.3079    0.1645   -1.1847 N   0  0  0  0  0  0  0  0  0  0  0  0
   -2.6193    1.6035   -0.5396 O   0  0  0  0  0  0  0  0  0  0  0  0
    4.6403   -0.5216   -0.5099 H   0  0  0  0  0  0  0  0  0  0  0  0
    3.8220    1.0684   -0.1182 H   0  0  0  0  0  0  0  0  0  0  0  0
    4.0158   -0.2097    1.1563 H   0  0  0  0  0  0  0  0  0  0  0  0
    2.1980   -1.3801    0.4744 H   0  0  0  0  0  0  0  0  0  0  0  0
    2.4310   -0.9982   -1.2931 H   0  0  0  0  0  0  0  0  0  0  0  0
    1.7918    1.3451   -0.7418 H   0  0  0  0  0  0  0  0  0  0  0  0
    2.1595    0.3340    1.8044 H   0  0  0  0  0  0  0  0  0  0  0  0
   -0.0634   -0.4333    2.2845 H   0  0  0  0  0  0  0  0  0  0  0  0
   -1.8272    0.0431    2.2922 H   0  0  0  0  0  0  0  0  0  0  0  0
   -0.6304    1.2811    1.9224 H   0  0  0  0  0  0  0  0  0  0  0  0
   -2.6340   -1.2747    0.6777 H   0  0  0  0  0  0  0  0  0  0  0  0
   -1.9518   -1.3923   -0.9745 H   0  0  0  0  0  0  0  0  0  0  0  0
   -4.7743   -0.7470   -0.9864 H   0  0  0  0  0  0  0  0  0  0  0  0
   -4.8109    0.8452   -1.7852 H   0  0  0  0  0  0  0  0  0  0  0  0
  1  2  1  0
  2  3  1  0
  3  4  1  0
  3  5  1  0
  5  6  2  0
  5  7  1  0
  7  8  1  0
  7  9  1  0
  9 10  1  0
 10 11  1  0
 10 12  2  0
  1 13  1  0
  1 14  1  0
  1 15  1  0
  2 16  1  0
  2 17  1  0
  3 18  1  6
  4 19  1  0
  8 20  1  0
  8 21  1  0
  8 22  1  0
  9 23  1  0
  9 24  1  0
 11 25  1  0
 11 26  1  0
M  END
$$$$

     RDKit          3D

 26 25  0  0  0  0  0  0  0  0999 V2000
   -3.4666    0.8907   -0.1794 C   0  0  0  0  0  0  0  0  0  0  0  0
   -2.5190   -0.2765   -0.3960 C   0  0  0  0  0  0  0  0  0  0  0  0
   -1.1468    0.2203    0.0816 C   0  0  2  0  0  0  0  0  0  0  0  0
   -0.8300    1.3015   -0.6838 O   0  0  0  0  0  0  0  0  0  0  0  0
   -0.1711   -0.8558    0.1759 C   0  0  0  0  0  0  0  0  0  0  0  0
   -0.5362   -1.8320    0.9272 O   0  0  0  0  0  0  0  0  0  0  0  0
    1.0942   -0.9404   -0.4492 N   0  0  0  0  0  0  0  0  0  0  0  0
    1.9239   -2.1340   -0.1990 C   0  0  0  0  0  0  0  0  0  0  0  0
    1.6628    0.0397   -1.3239 C   0  0  0  0  0  0  0  0  0  0  0  0
    2.4616    1.0556   -0.5472 C   0  0  0  0  0  0  0  0  0  0  0  0
    2.6086    1.0179    0.8443 N   0  0  0  0  0  0  0  0  0  0  0  0
    3.0018    1.9609   -1.2337 O   0  0  0  0  0  0  0  0  0  0  0  0
   -3.3294    1.2832    0.8553 H   0  0  0  0  0  0  0  0  0  0  0  0
   -4.5234    0.5947   -0.3413 H   0  0  0  0  0  0  0  0  0  0  0  0
   -3.2517    1.7349   -0.8622 H   0  0  0  0  0  0  0  0  0  0  0  0
   -2.5129   -0.5057   -1.4749 H   0  0  0  0  0  0  0  0  0  0  0  0
   -2.8717   -1.1157    0.2225 H   0  0  0  0  0  0  0  0  0  0  0  0
   -1.3562    0.6123    1.1225 H   0  0  0  0  0  0  0  0  0  0  0  0
   -1.3088    2.0985   -0.3571 H   0  0  0  0  0  0  0  0  0  0  0  0
    1.2918   -3.0394   -0.1328 H   0  0  0  0  0  0  0  0  0  0  0  0
    2.3700   -1.9666    0.8091 H   0  0  0  0  0  0  0  0  0  0  0  0
    2.6671   -2.2871   -0.9812 H   0  0  0  0  0  0  0  0  0  0  0  0
    0.9669    0.6059   -1.9429 H   0  0  0  0  0  0  0  0  0  0  0  0
    2.4354   -0.4553   -1.9858 H   0  0  0  0  0  0  0  0  0  0  0  0
    3.2230    0.3064    1.2776 H   0  0  0  0  0  0  0  0  0  0  0  0
    2.1166    1.6860    1.4513 H   0  0  0  0  0  0  0  0  0  0  0  0
  1  2  1  0
  2  3  1  0
  3  4  1  0
  3  5  1  0
  5  6  2  0
  5  7  1  0
  7  8  1  0
  7  9  1  0
  9 10  1  0
 10 11  1  0
 10 12  2  0
  1 13  1  0
  1 14  1  0
  1 15  1  0
  2 16  1  0
  2 17  1  0
  3 18  1  1
  4 19  1  0
  8 20  1  0
  8 21  1  0
  8 22  1  0
  9 23  1  0
  9 24  1  0
 11 25  1  0
 11 26  1  0
M  END
$$$$

     RDKit          3D

 26 25  0  0  0  0  0  0  0  0999 V2000
   -2.8548    0.8813   -1.1026 C   0  0  0  0  0  0  0  0  0  0  0  0
   -2.5011   -0.4863   -0.6262 C   0  0  0  0  0  0  0  0  0  0  0  0
   -1.7011   -0.4705    0.6745 C   0  0  2  0  0  0  0  0  0  0  0  0
   -2.4795    0.1607    1.6811 O   0  0  0  0  0  0  0  0  0  0  0  0
   -0.4008    0.2018    0.5296 C   0  0  0  0  0  0  0  0  0  0  0  0
   -0.2319    1.2641    1.2261 O   0  0  0  0  0  0  0  0  0  0  0  0
    0.6654   -0.2097   -0.2943 N   0  0  0  0  0  0  0  0  0  0  0  0
    0.6601   -1.3861   -1.1330 C   0  0  0  0  0  0  0  0  0  0  0  0
    1.9002    0.5926   -0.3356 C   0  0  0  0  0  0  0  0  0  0  0  0
    2.8437    0.1103    0.7033 C   0  0  0  0  0  0  0  0  0  0  0  0
    4.1061    0.7448    0.8426 N   0  0  0  0  0  0  0  0  0  0  0  0
    2.5064   -0.8494    1.4384 O   0  0  0  0  0  0  0  0  0  0  0  0
   -2.5648    1.6715   -0.3954 H   0  0  0  0  0  0  0  0  0  0  0  0
   -2.3257    1.0752   -2.0787 H   0  0  0  0  0  0  0  0  0  0  0  0
   -3.9488    0.9527   -1.3477 H   0  0  0  0  0  0  0  0  0  0  0  0
   -3.4620   -1.0243   -0.3797 H   0  0  0  0  0  0  0  0  0  0  0  0
   -1.9443   -1.0962   -1.3535 H   0  0  0  0  0  0  0  0  0  0  0  0
   -1.6009   -1.5238    0.9934 H   0  0  0  0  0  0  0  0  0  0  0  0
   -1.9104    0.4886    2.4056 H   0  0  0  0  0  0  0  0  0  0  0  0
    0.2941   -1.1779   -2.1592 H   0  0  0  0  0  0  0  0  0  0  0  0
    0.0506   -2.2175   -0.7309 H   0  0  0  0  0  0  0  0  0  0  0  0
    1.7082   -1.7650   -1.2172 H   0  0  0  0  0  0  0  0  0  0  0  0
    2.3659    0.4778   -1.3342 H   0  0  0  0  0  0  0  0  0  0  0  0
    1.6782    1.6536   -0.1122 H   0  0  0  0  0  0  0  0  0  0  0  0
    4.8488    0.2453    1.3435 H   0  0  0  0  0  0  0  0  0  0  0  0
    4.2984    1.6865    0.4581 H   0  0  0  0  0  0  0  0  0  0  0  0
  1  2  1  0
  2  3  1  0
  3  4  1  0
  3  5  1  0
  5  6  2  0
  5  7  1  0
  7  8  1  0
  7  9  1  0
  9 10  1  0
 10 11  1  0
 10 12  2  0
  1 13  1  0
  1 14  1  0
  1 15  1  0
  2 16  1  0
  2 17  1  0
  3 18  1  1
  4 19  1  0
  8 20  1  0
  8 21  1  0
  8 22  1  0
  9 23  1  0
  9 24  1  0
 11 25  1  0
 11 26  1  0
M  END
$$$$

     RDKit          3D

 26 25  0  0  0  0  0  0  0  0999 V2000
    2.8140    1.5912    0.0706 C   0  0  0  0  0  0  0  0  0  0  0  0
    1.6467    0.7610   -0.4369 C   0  0  0  0  0  0  0  0  0  0  0  0
    1.5425   -0.5439    0.3513 C   0  0  2  0  0  0  0  0  0  0  0  0
    2.7811   -1.2140    0.1541 O   0  0  0  0  0  0  0  0  0  0  0  0
    0.4589   -1.3475   -0.2225 C   0  0  0  0  0  0  0  0  0  0  0  0
    0.8426   -2.3195   -0.9740 O   0  0  0  0  0  0  0  0  0  0  0  0
   -0.9300   -1.1956   -0.0518 N   0  0  0  0  0  0  0  0  0  0  0  0
   -1.7829   -2.1967   -0.7501 C   0  0  0  0  0  0  0  0  0  0  0  0
   -1.6077   -0.1888    0.7003 C   0  0  0  0  0  0  0  0  0  0  0  0
   -2.0260    0.9917   -0.0624 C   0  0  0  0  0  0  0  0  0  0  0  0
   -2.6993    2.0983    0.4911 N   0  0  0  0  0  0  0  0  0  0  0  0
   -1.7867    1.0690   -1.3159 O   0  0  0  0  0  0  0  0  0  0  0  0
    2.9182    1.5518    1.1664 H   0  0  0  0  0  0  0  0  0  0  0  0
    2.6093    2.6523   -0.1990 H   0  0  0  0  0  0  0  0  0  0  0  0
    3.7263    1.2959   -0.4741 H   0  0  0  0  0  0  0  0  0  0  0  0
    0.7258    1.3397   -0.3001 H   0  0  0  0  0  0  0  0  0  0  0  0
    1.8048    0.5750   -1.5081 H   0  0  0  0  0  0  0  0  0  0  0  0
    1.4672   -0.3459    1.4323 H   0  0  0  0  0  0  0  0  0  0  0  0
    2.7164   -1.8019   -0.6438 H   0  0  0  0  0  0  0  0  0  0  0  0
   -1.2872   -3.1919   -0.6599 H   0  0  0  0  0  0  0  0  0  0  0  0
   -1.8571   -1.9123   -1.8232 H   0  0  0  0  0  0  0  0  0  0  0  0
   -2.7709   -2.2421   -0.2909 H   0  0  0  0  0  0  0  0  0  0  0  0
   -2.4910   -0.5945    1.2614 H   0  0  0  0  0  0  0  0  0  0  0  0
   -0.9096    0.1638    1.5147 H   0  0  0  0  0  0  0  0  0  0  0  0
   -3.4002    1.9481    1.2391 H   0  0  0  0  0  0  0  0  0  0  0  0
   -2.5052    3.0567    0.1630 H   0  0  0  0  0  0  0  0  0  0  0  0
  1  2  1  0
  2  3  1  0
  3  4  1  0
  3  5  1  0
  5  6  2  0
  5  7  1  0
  7  8  1  0
  7  9  1  0
  9 10  1  0
 10 11  1  0
 10 12  2  0
  1 13  1  0
  1 14  1  0
  1 15  1  0
  2 16  1  0
  2 17  1  0
  3 18  1  1
  4 19  1  0
  8 20  1  0
  8 21  1  0
  8 22  1  0
  9 23  1  0
  9 24  1  0
 11 25  1  0
 11 26  1  0
M  END
$$$$
