
     RDKit          3D

 32 31  0  0  0  0  0  0  0  0999 V2000
    3.2086    1.3073    0.0183 C   0  0  0  0  0  0  0  0  0  0  0  0
    2.9732    0.0834    0.8733 C   0  0  0  0  0  0  0  0  0  0  0  0
    1.4820   -0.2530    0.8586 C   0  0  0  0  0  0  0  0  0  0  0  0
    1.0363   -0.5332   -0.5799 C   0  0  1  0  0  0  0  0  0  0  0  0
    1.9124   -1.6856   -0.9640 N   0  0  0  0  0  0  0  0  0  0  0  0
   -0.3411   -1.0698   -0.6891 C   0  0  2  0  0  0  0  0  0  0  0  0
   -0.4457   -1.5218   -2.0575 O   0  0  0  0  0  0  0  0  0  0  0  0
   -1.4797   -0.1065   -0.5783 C   0  0  1  0  0  0  0  0  0  0  0  0
   -2.6333   -0.9067   -0.8987 O   0  0  0  0  0  0  0  0  0  0  0  0
   -1.7864    0.4538    0.7593 C   0  0  2  0  0  0  0  0  0  0  0  0
   -1.9379   -0.5288    1.7374 O   0  0  0  0  0  0  0  0  0  0  0  0
   -3.2311    1.0244    0.6036 C   0  0  0  0  0  0  0  0  0  0  0  0
   -3.2057    2.0205   -0.3536 O   0  0  0  0  0  0  0  0  0  0  0  0
    3.2778    1.0485   -1.0447 H   0  0  0  0  0  0  0  0  0  0  0  0
    2.3085    1.9594    0.1349 H   0  0  0  0  0  0  0  0  0  0  0  0
    4.1070    1.8739    0.3314 H   0  0  0  0  0  0  0  0  0  0  0  0
    3.5478   -0.7691    0.4979 H   0  0  0  0  0  0  0  0  0  0  0  0
    3.2423    0.2615    1.9255 H   0  0  0  0  0  0  0  0  0  0  0  0
    0.9836    0.6085    1.2930 H   0  0  0  0  0  0  0  0  0  0  0  0
    1.3431   -1.1833    1.4201 H   0  0  0  0  0  0  0  0  0  0  0  0
    1.3012    0.2965   -1.2222 H   0  0  0  0  0  0  0  0  0  0  0  0
    1.5068   -2.5163   -0.4757 H   0  0  0  0  0  0  0  0  0  0  0  0
    1.7873   -1.8436   -1.9876 H   0  0  0  0  0  0  0  0  0  0  0  0
   -0.4742   -1.9393   -0.0504 H   0  0  0  0  0  0  0  0  0  0  0  0
   -0.4881   -0.6559   -2.5673 H   0  0  0  0  0  0  0  0  0  0  0  0
   -1.4139    0.6787   -1.3256 H   0  0  0  0  0  0  0  0  0  0  0  0
   -2.3903   -1.5527   -1.5857 H   0  0  0  0  0  0  0  0  0  0  0  0
   -1.1846    1.2653    1.1356 H   0  0  0  0  0  0  0  0  0  0  0  0
   -1.8814   -0.1601    2.6437 H   0  0  0  0  0  0  0  0  0  0  0  0
   -3.8230    0.1795    0.1934 H   0  0  0  0  0  0  0  0  0  0  0  0
   -3.5948    1.3599    1.5900 H   0  0  0  0  0  0  0  0  0  0  0  0
   -3.7068    2.8046   -0.0597 H   0  0  0  0  0  0  0  0  0  0  0  0
  1  2  1  0
  2  3  1  0
  3  4  1  0
  4  5  1  0
  4  6  1  0
  6  7  1  0
  6  8  1  0
  8  9  1  0
  8 10  1  0
 10 11  1  0
 10 12  1  0
 12 13  1  0
  1 14  1  0
  1 15  1  0
  1 16  1  0
  2 17  1  0
  2 18  1  0
  3 19  1  0
  3 20  1  0
  4 21  1  6
  5 22  1  0
  5 23  1  0
  6 24  1  1
  7 25  1  0
  8 26  1  6
  9 27  1  0
 10 28  1  1
 11 29  1  0
 12 30  1  0
 12 31  1  0
 13 32  1  0
M  END
$$$$

     RDKit          3D

 32 31  0  0  0  0  0  0  0  0999 V2000
   -3.9153    0.3996    0.2530 C   0  0  0  0  0  0  0  0  0  0  0  0
   -2.7857    1.2257    0.8203 C   0  0  0  0  0  0  0  0  0  0  0  0
   -1.5037    0.9551    0.0864 C   0  0  0  0  0  0  0  0  0  0  0  0
   -1.1111   -0.4827    0.1879 C   0  0  1  0  0  0  0  0  0  0  0  0
   -2.1037   -1.3686   -0.3653 N   0  0  0  0  0  0  0  0  0  0  0  0
    0.1914   -0.7656   -0.4834 C   0  0  2  0  0  0  0  0  0  0  0  0
    0.4955   -2.1188   -0.2141 O   0  0  0  0  0  0  0  0  0  0  0  0
    1.3112    0.1013    0.0545 C   0  0  1  0  0  0  0  0  0  0  0  0
    1.4353   -0.0803    1.4132 O   0  0  0  0  0  0  0  0  0  0  0  0
    2.6315   -0.3515   -0.5702 C   0  0  2  0  0  0  0  0  0  0  0  0
    2.8752   -1.6835   -0.2831 O   0  0  0  0  0  0  0  0  0  0  0  0
    3.7231    0.4892    0.1042 C   0  0  0  0  0  0  0  0  0  0  0  0
    3.5415    1.8343   -0.1413 O   0  0  0  0  0  0  0  0  0  0  0  0
   -4.0425   -0.5735    0.7590 H   0  0  0  0  0  0  0  0  0  0  0  0
   -3.7865    0.2443   -0.8367 H   0  0  0  0  0  0  0  0  0  0  0  0
   -4.8892    0.9508    0.3618 H   0  0  0  0  0  0  0  0  0  0  0  0
   -2.6625    0.8811    1.8877 H   0  0  0  0  0  0  0  0  0  0  0  0
   -3.0446    2.2926    0.8399 H   0  0  0  0  0  0  0  0  0  0  0  0
   -0.7029    1.6183    0.4056 H   0  0  0  0  0  0  0  0  0  0  0  0
   -1.6784    1.1688   -1.0072 H   0  0  0  0  0  0  0  0  0  0  0  0
   -0.9983   -0.7659    1.2654 H   0  0  0  0  0  0  0  0  0  0  0  0
   -1.9143   -1.6347   -1.3496 H   0  0  0  0  0  0  0  0  0  0  0  0
   -2.3283   -2.1749    0.2509 H   0  0  0  0  0  0  0  0  0  0  0  0
    0.0940   -0.6231   -1.5636 H   0  0  0  0  0  0  0  0  0  0  0  0
    0.6354   -2.1735    0.7550 H   0  0  0  0  0  0  0  0  0  0  0  0
    1.1589    1.1317   -0.2565 H   0  0  0  0  0  0  0  0  0  0  0  0
    0.8900    0.5352    1.9523 H   0  0  0  0  0  0  0  0  0  0  0  0
    2.6499   -0.1365   -1.6622 H   0  0  0  0  0  0  0  0  0  0  0  0
    3.5194   -1.7603    0.4815 H   0  0  0  0  0  0  0  0  0  0  0  0
    3.6945    0.3198    1.1939 H   0  0  0  0  0  0  0  0  0  0  0  0
    4.7275    0.1794   -0.2701 H   0  0  0  0  0  0  0  0  0  0  0  0
    3.8927    2.3662    0.6051 H   0  0  0  0  0  0  0  0  0  0  0  0
  1  2  1  0
  2  3  1  0
  3  4  1  0
  4  5  1  0
  4  6  1  0
  6  7  1  0
  6  8  1  0
  8  9  1  0
  8 10  1  0
 10 11  1  0
 10 12  1  0
 12 13  1  0
  1 14  1  0
  1 15  1  0
  1 16  1  0
  2 17  1  0
  2 18  1  0
  3 19  1  0
  3 20  1  0
  4 21  1  1
  5 22  1  0
  5 23  1  0
  6 24  1  6
  7 25  1  0
  8 26  1  1
  9 27  1  0
 10 28  1  6
 11 29  1  0
 12 30  1  0
 12 31  1  0
 13 32  1  0
M  END
$$$$

     RDKit          3D

 32 31  0  0  0  0  0  0  0  0999 V2000
   -4.2808   -0.0577   -0.7465 C   0  0  0  0  0  0  0  0  0  0  0  0
   -3.2114    0.0757    0.3132 C   0  0  0  0  0  0  0  0  0  0  0  0
   -1.8300    0.1953   -0.3555 C   0  0  0  0  0  0  0  0  0  0  0  0
   -0.7798    0.3265    0.6953 C   0  0  1  0  0  0  0  0  0  0  0  0
   -0.7802   -0.8493    1.5573 N   0  0  0  0  0  0  0  0  0  0  0  0
    0.5921    0.6926    0.1924 C   0  0  2  0  0  0  0  0  0  0  0  0
    0.4680    1.8199   -0.6298 O   0  0  0  0  0  0  0  0  0  0  0  0
    1.2024   -0.4404   -0.5247 C   0  0  1  0  0  0  0  0  0  0  0  0
    0.4229   -0.7751   -1.6311 O   0  0  0  0  0  0  0  0  0  0  0  0
    2.6024   -0.2681   -1.0203 C   0  0  2  0  0  0  0  0  0  0  0  0
    2.9476   -1.5279   -1.5819 O   0  0  0  0  0  0  0  0  0  0  0  0
    3.6322    0.0769   -0.0193 C   0  0  0  0  0  0  0  0  0  0  0  0
    3.3753    1.3048    0.5646 O   0  0  0  0  0  0  0  0  0  0  0  0
   -3.8352    0.1243   -1.7631 H   0  0  0  0  0  0  0  0  0  0  0  0
   -5.0841    0.6959   -0.6379 H   0  0  0  0  0  0  0  0  0  0  0  0
   -4.7106   -1.0731   -0.7675 H   0  0  0  0  0  0  0  0  0  0  0  0
   -3.1912   -0.8100    0.9534 H   0  0  0  0  0  0  0  0  0  0  0  0
   -3.3307    0.9910    0.9081 H   0  0  0  0  0  0  0  0  0  0  0  0
   -1.7304   -0.7657   -0.9334 H   0  0  0  0  0  0  0  0  0  0  0  0
   -1.8824    1.0433   -1.0497 H   0  0  0  0  0  0  0  0  0  0  0  0
   -1.1569    1.1492    1.3981 H   0  0  0  0  0  0  0  0  0  0  0  0
    0.0648   -0.9032    2.1524 H   0  0  0  0  0  0  0  0  0  0  0  0
   -0.9148   -1.7227    1.0031 H   0  0  0  0  0  0  0  0  0  0  0  0
    1.1595    1.0073    1.1070 H   0  0  0  0  0  0  0  0  0  0  0  0
   -0.0408    2.5020   -0.1465 H   0  0  0  0  0  0  0  0  0  0  0  0
    1.1923   -1.3340    0.1632 H   0  0  0  0  0  0  0  0  0  0  0  0
    0.8808   -1.4336   -2.1834 H   0  0  0  0  0  0  0  0  0  0  0  0
    2.6305    0.4508   -1.8581 H   0  0  0  0  0  0  0  0  0  0  0  0
    3.5128   -2.0458   -0.9726 H   0  0  0  0  0  0  0  0  0  0  0  0
    3.8377   -0.7173    0.7264 H   0  0  0  0  0  0  0  0  0  0  0  0
    4.6057    0.2018   -0.5743 H   0  0  0  0  0  0  0  0  0  0  0  0
    3.6321    2.0666    0.0073 H   0  0  0  0  0  0  0  0  0  0  0  0
  1  2  1  0
  2  3  1  0
  3  4  1  0
  4  5  1  0
  4  6  1  0
  6  7  1  0
  6  8  1  0
  8  9  1  0
  8 10  1  0
 10 11  1  0
 10 12  1  0
 12 13  1  0
  1 14  1  0
  1 15  1  0
  1 16  1  0
  2 17  1  0
  2 18  1  0
  3 19  1  0
  3 20  1  0
  4 21  1  1
  5 22  1  0
  5 23  1  0
  6 24  1  1
  7 25  1  0
  8 26  1  1
  9 27  1  0
 10 28  1  6
 11 29  1  0
 12 30  1  0
 12 31  1  0
 13 32  1  0
M  END
$$$$

     RDKit          3D

 32 31  0  0  0  0  0  0  0  0999 V2000
   -2.8017    1.7306   -1.2095 C   0  0  0  0  0  0  0  0  0  0  0  0
   -2.1588    0.8884   -0.1097 C   0  0  0  0  0  0  0  0  0  0  0  0
   -1.6951   -0.4383   -0.6583 C   0  0  0  0  0  0  0  0  0  0  0  0
   -1.0657   -1.3559    0.3237 C   0  0  1  0  0  0  0  0  0  0  0  0
   -0.7081   -2.5678   -0.4194 N   0  0  0  0  0  0  0  0  0  0  0  0
    0.0580   -0.8469    1.1428 C   0  0  2  0  0  0  0  0  0  0  0  0
   -0.1911    0.2965    1.8761 O   0  0  0  0  0  0  0  0  0  0  0  0
    1.4177   -0.9108    0.5141 C   0  0  1  0  0  0  0  0  0  0  0  0
    1.5899   -2.0795   -0.2406 O   0  0  0  0  0  0  0  0  0  0  0  0
    1.7894    0.2404   -0.3757 C   0  0  2  0  0  0  0  0  0  0  0  0
    3.1417   -0.0384   -0.7432 O   0  0  0  0  0  0  0  0  0  0  0  0
    1.9088    1.5465    0.3849 C   0  0  0  0  0  0  0  0  0  0  0  0
    2.4607    2.5143   -0.4834 O   0  0  0  0  0  0  0  0  0  0  0  0
   -2.0232    2.3008   -1.7675 H   0  0  0  0  0  0  0  0  0  0  0  0
   -3.4395    1.1138   -1.8613 H   0  0  0  0  0  0  0  0  0  0  0  0
   -3.4365    2.4718   -0.7064 H   0  0  0  0  0  0  0  0  0  0  0  0
   -2.9044    0.7824    0.6886 H   0  0  0  0  0  0  0  0  0  0  0  0
   -1.2822    1.4509    0.2341 H   0  0  0  0  0  0  0  0  0  0  0  0
   -1.0679   -0.2058   -1.5399 H   0  0  0  0  0  0  0  0  0  0  0  0
   -2.6245   -0.8947   -1.1202 H   0  0  0  0  0  0  0  0  0  0  0  0
   -1.9122   -1.7174    0.9895 H   0  0  0  0  0  0  0  0  0  0  0  0
   -1.2250   -2.6409   -1.3189 H   0  0  0  0  0  0  0  0  0  0  0  0
   -0.8113   -3.4223    0.1710 H   0  0  0  0  0  0  0  0  0  0  0  0
    0.1551   -1.6333    1.9903 H   0  0  0  0  0  0  0  0  0  0  0  0
    0.1782    0.3150    2.7674 H   0  0  0  0  0  0  0  0  0  0  0  0
    2.2304   -0.9678    1.2992 H   0  0  0  0  0  0  0  0  0  0  0  0
    2.5598   -2.2529   -0.3293 H   0  0  0  0  0  0  0  0  0  0  0  0
    1.2494    0.3195   -1.3118 H   0  0  0  0  0  0  0  0  0  0  0  0
    3.6187   -0.0516    0.1340 H   0  0  0  0  0  0  0  0  0  0  0  0
    0.9699    1.9639    0.7424 H   0  0  0  0  0  0  0  0  0  0  0  0
    2.5953    1.4547    1.2300 H   0  0  0  0  0  0  0  0  0  0  0  0
    3.4243    2.6350   -0.2928 H   0  0  0  0  0  0  0  0  0  0  0  0
  1  2  1  0
  2  3  1  0
  3  4  1  0
  4  5  1  0
  4  6  1  0
  6  7  1  0
  6  8  1  0
  8  9  1  0
  8 10  1  0
 10 11  1  0
 10 12  1  0
 12 13  1  0
  1 14  1  0
  1 15  1  0
  1 16  1  0
  2 17  1  0
  2 18  1  0
  3 19  1  0
  3 20  1  0
  4 21  1  1
  5 22  1  0
  5 23  1  0
  6 24  1  1
  7 25  1  0
  8 26  1  1
  9 27  1  0
 10 28  1  6
 11 29  1  0
 12 30  1  0
 12 31  1  0
 13 32  1  0
M  END
$$$$

     RDKit          3D

 32 31  0  0  0  0  0  0  0  0999 V2000
    3.5500    0.9666    0.8349 C   0  0  0  0  0  0  0  0  0  0  0  0
    2.4553   -0.0065    0.5018 C   0  0  0  0  0  0  0  0  0  0  0  0
    1.9322    0.2643   -0.8803 C   0  0  0  0  0  0  0  0  0  0  0  0
    0.8322   -0.6804   -1.2702 C   0  0  1  0  0  0  0  0  0  0  0  0
    1.3371   -2.0710   -1.2533 N   0  0  0  0  0  0  0  0  0  0  0  0
   -0.3524   -0.6190   -0.3035 C   0  0  2  0  0  0  0  0  0  0  0  0
   -1.2728   -1.5421   -0.8133 O   0  0  0  0  0  0  0  0  0  0  0  0
   -0.8869    0.7643   -0.2347 C   0  0  1  0  0  0  0  0  0  0  0  0
   -1.2728    1.3195   -1.4368 O   0  0  0  0  0  0  0  0  0  0  0  0
   -1.9371    0.9890    0.8297 C   0  0  2  0  0  0  0  0  0  0  0  0
   -1.5646    0.4207    2.0222 O   0  0  0  0  0  0  0  0  0  0  0  0
   -3.3219    0.5848    0.4345 C   0  0  0  0  0  0  0  0  0  0  0  0
   -3.4799   -0.7668    0.2928 O   0  0  0  0  0  0  0  0  0  0  0  0
    4.5396    0.6147    0.5002 H   0  0  0  0  0  0  0  0  0  0  0  0
    3.6047    1.1299    1.9264 H   0  0  0  0  0  0  0  0  0  0  0  0
    3.3362    1.9777    0.3890 H   0  0  0  0  0  0  0  0  0  0  0  0
    1.6435    0.0591    1.2334 H   0  0  0  0  0  0  0  0  0  0  0  0
    2.8831   -1.0351    0.5370 H   0  0  0  0  0  0  0  0  0  0  0  0
    1.6072    1.2993   -0.9806 H   0  0  0  0  0  0  0  0  0  0  0  0
    2.7554    0.1129   -1.6335 H   0  0  0  0  0  0  0  0  0  0  0  0
    0.4810   -0.4696   -2.2935 H   0  0  0  0  0  0  0  0  0  0  0  0
    0.6393   -2.6339   -1.7873 H   0  0  0  0  0  0  0  0  0  0  0  0
    1.3038   -2.4149   -0.2523 H   0  0  0  0  0  0  0  0  0  0  0  0
   -0.0420   -0.9572    0.6974 H   0  0  0  0  0  0  0  0  0  0  0  0
   -1.2277   -2.4045   -0.3258 H   0  0  0  0  0  0  0  0  0  0  0  0
   -0.0189    1.4109    0.1127 H   0  0  0  0  0  0  0  0  0  0  0  0
   -1.6051    0.6730   -2.0977 H   0  0  0  0  0  0  0  0  0  0  0  0
   -2.0003    2.1079    1.0488 H   0  0  0  0  0  0  0  0  0  0  0  0
   -2.2821   -0.1893    2.3708 H   0  0  0  0  0  0  0  0  0  0  0  0
   -3.5313    1.0974   -0.5486 H   0  0  0  0  0  0  0  0  0  0  0  0
   -4.0223    1.0356    1.1726 H   0  0  0  0  0  0  0  0  0  0  0  0
   -4.0823   -1.0371   -0.4425 H   0  0  0  0  0  0  0  0  0  0  0  0
  1  2  1  0
  2  3  1  0
  3  4  1  0
  4  5  1  0
  4  6  1  0
  6  7  1  0
  6  8  1  0
  8  9  1  0
  8 10  1  0
 10 11  1  0
 10 12  1  0
 12 13  1  0
  1 14  1  0
  1 15  1  0
  1 16  1  0
  2 17  1  0
  2 18  1  0
  3 19  1  0
  3 20  1  0
  4 21  1  6
  5 22  1  0
  5 23  1  0
  6 24  1  1
  7 25  1  0
  8 26  1  1
  9 27  1  0
 10 28  1  1
 11 29  1  0
 12 30  1  0
 12 31  1  0
 13 32  1  0
M  END
$$$$

     RDKit          3D

 32 31  0  0  0  0  0  0  0  0999 V2000
    3.4109   -0.0176    0.7651 C   0  0  0  0  0  0  0  0  0  0  0  0
    2.2819    0.9498    0.9275 C   0  0  0  0  0  0  0  0  0  0  0  0
    1.6033    1.3053   -0.3770 C   0  0  0  0  0  0  0  0  0  0  0  0
    1.0370    0.0796   -1.0177 C   0  0  1  0  0  0  0  0  0  0  0  0
    2.0910   -0.8790   -1.2914 N   0  0  0  0  0  0  0  0  0  0  0  0
   -0.0293   -0.6031   -0.2575 C   0  0  2  0  0  0  0  0  0  0  0  0
   -0.5189   -1.6579   -1.0279 O   0  0  0  0  0  0  0  0  0  0  0  0
   -1.1938    0.2542    0.1303 C   0  0  1  0  0  0  0  0  0  0  0  0
   -1.8759    0.7830   -0.9400 O   0  0  0  0  0  0  0  0  0  0  0  0
   -2.1227   -0.5770    0.9910 C   0  0  2  0  0  0  0  0  0  0  0  0
   -2.6920   -1.6307    0.3199 O   0  0  0  0  0  0  0  0  0  0  0  0
   -3.2111    0.2858    1.5720 C   0  0  0  0  0  0  0  0  0  0  0  0
   -3.9929    0.7470    0.5373 O   0  0  0  0  0  0  0  0  0  0  0  0
    4.1805    0.1067    1.5603 H   0  0  0  0  0  0  0  0  0  0  0  0
    3.9624    0.0864   -0.1925 H   0  0  0  0  0  0  0  0  0  0  0  0
    3.0699   -1.0803    0.8635 H   0  0  0  0  0  0  0  0  0  0  0  0
    1.5089    0.4656    1.5926 H   0  0  0  0  0  0  0  0  0  0  0  0
    2.6294    1.8718    1.4514 H   0  0  0  0  0  0  0  0  0  0  0  0
    2.3864    1.7524   -1.0232 H   0  0  0  0  0  0  0  0  0  0  0  0
    0.8782    2.0894   -0.1645 H   0  0  0  0  0  0  0  0  0  0  0  0
    0.6252    0.3896   -2.0161 H   0  0  0  0  0  0  0  0  0  0  0  0
    2.5033   -0.6841   -2.2111 H   0  0  0  0  0  0  0  0  0  0  0  0
    1.6663   -1.8263   -1.3243 H   0  0  0  0  0  0  0  0  0  0  0  0
    0.4040   -1.0189    0.6766 H   0  0  0  0  0  0  0  0  0  0  0  0
   -0.2400   -2.5393   -0.6886 H   0  0  0  0  0  0  0  0  0  0  0  0
   -0.8464    1.0991    0.7851 H   0  0  0  0  0  0  0  0  0  0  0  0
   -1.9084    0.1082   -1.6623 H   0  0  0  0  0  0  0  0  0  0  0  0
   -1.5337   -0.9935    1.8456 H   0  0  0  0  0  0  0  0  0  0  0  0
   -3.4549   -1.3750   -0.2556 H   0  0  0  0  0  0  0  0  0  0  0  0
   -2.7491    1.0964    2.1731 H   0  0  0  0  0  0  0  0  0  0  0  0
   -3.8135   -0.3266    2.2459 H   0  0  0  0  0  0  0  0  0  0  0  0
   -4.0559    1.7391    0.5629 H   0  0  0  0  0  0  0  0  0  0  0  0
  1  2  1  0
  2  3  1  0
  3  4  1  0
  4  5  1  0
  4  6  1  0
  6  7  1  0
  6  8  1  0
  8  9  1  0
  8 10  1  0
 10 11  1  0
 10 12  1  0
 12 13  1  0
  1 14  1  0
  1 15  1  0
  1 16  1  0
  2 17  1  0
  2 18  1  0
  3 19  1  0
  3 20  1  0
  4 21  1  6
  5 22  1  0
  5 23  1  0
  6 24  1  1
  7 25  1  0
  8 26  1  1
  9 27  1  0
 10 28  1  1
 11 29  1  0
 12 30  1  0
 12 31  1  0
 13 32  1  0
M  END
$$$$

     RDKit          3D

 32 31  0  0  0  0  0  0  0  0999 V2000
    3.7809    1.2828   -1.3358 C   0  0  0  0  0  0  0  0  0  0  0  0
    3.0751    0.0796   -0.8010 C   0  0  0  0  0  0  0  0  0  0  0  0
    1.7008    0.3809   -0.2777 C   0  0  0  0  0  0  0  0  0  0  0  0
    1.0780   -0.8962    0.2365 C   0  0  1  0  0  0  0  0  0  0  0  0
    1.9087   -1.4326    1.3047 N   0  0  0  0  0  0  0  0  0  0  0  0
   -0.2919   -0.6595    0.8253 C   0  0  2  0  0  0  0  0  0  0  0  0
   -0.7751   -1.8752    1.2826 O   0  0  0  0  0  0  0  0  0  0  0  0
   -1.2442   -0.0159   -0.1501 C   0  0  1  0  0  0  0  0  0  0  0  0
   -1.4612   -0.8102   -1.2599 O   0  0  0  0  0  0  0  0  0  0  0  0
   -2.5196    0.2948    0.6044 C   0  0  2  0  0  0  0  0  0  0  0  0
   -3.1675   -0.8236    1.0718 O   0  0  0  0  0  0  0  0  0  0  0  0
   -3.4385    1.1641   -0.2558 C   0  0  0  0  0  0  0  0  0  0  0  0
   -4.5386    1.5896    0.4791 O   0  0  0  0  0  0  0  0  0  0  0  0
    3.4773    1.4096   -2.4056 H   0  0  0  0  0  0  0  0  0  0  0  0
    4.8726    1.1199   -1.2814 H   0  0  0  0  0  0  0  0  0  0  0  0
    3.5518    2.1951   -0.7512 H   0  0  0  0  0  0  0  0  0  0  0  0
    3.6733   -0.3818    0.0257 H   0  0  0  0  0  0  0  0  0  0  0  0
    2.9927   -0.6619   -1.6339 H   0  0  0  0  0  0  0  0  0  0  0  0
    1.7152    1.1796    0.4663 H   0  0  0  0  0  0  0  0  0  0  0  0
    1.0871    0.7114   -1.1485 H   0  0  0  0  0  0  0  0  0  0  0  0
    1.0087   -1.6660   -0.5582 H   0  0  0  0  0  0  0  0  0  0  0  0
    1.7083   -0.9479    2.2029 H   0  0  0  0  0  0  0  0  0  0  0  0
    1.8763   -2.4558    1.3740 H   0  0  0  0  0  0  0  0  0  0  0  0
   -0.1706    0.0010    1.6991 H   0  0  0  0  0  0  0  0  0  0  0  0
   -0.4874   -2.5634    0.6423 H   0  0  0  0  0  0  0  0  0  0  0  0
   -0.8267    0.9478   -0.4833 H   0  0  0  0  0  0  0  0  0  0  0  0
   -1.9947   -1.6052   -0.9997 H   0  0  0  0  0  0  0  0  0  0  0  0
   -2.1956    0.8807    1.5130 H   0  0  0  0  0  0  0  0  0  0  0  0
   -3.4965   -1.4227    0.3695 H   0  0  0  0  0  0  0  0  0  0  0  0
   -3.7458    0.5358   -1.1204 H   0  0  0  0  0  0  0  0  0  0  0  0
   -2.8361    2.0232   -0.6159 H   0  0  0  0  0  0  0  0  0  0  0  0
   -4.3166    2.4218    0.9814 H   0  0  0  0  0  0  0  0  0  0  0  0
  1  2  1  0
  2  3  1  0
  3  4  1  0
  4  5  1  0
  4  6  1  0
  6  7  1  0
  6  8  1  0
  8  9  1  0
  8 10  1  0
 10 11  1  0
 10 12  1  0
 12 13  1  0
  1 14  1  0
  1 15  1  0
  1 16  1  0
  2 17  1  0
  2 18  1  0
  3 19  1  0
  3 20  1  0
  4 21  1  6
  5 22  1  0
  5 23  1  0
  6 24  1  1
  7 25  1  0
  8 26  1  6
  9 27  1  0
 10 28  1  1
 11 29  1  0
 12 30  1  0
 12 31  1  0
 13 32  1  0
M  END
$$$$

     RDKit          3D

 32 31  0  0  0  0  0  0  0  0999 V2000
    3.6632    1.3215   -0.0673 C   0  0  0  0  0  0  0  0  0  0  0  0
    3.2131    0.1674    0.7775 C   0  0  0  0  0  0  0  0  0  0  0  0
    1.6936    0.1687    0.9776 C   0  0  0  0  0  0  0  0  0  0  0  0
    1.0812    0.0691   -0.3830 C   0  0  1  0  0  0  0  0  0  0  0  0
    1.5373   -1.1666   -0.9888 N   0  0  0  0  0  0  0  0  0  0  0  0
   -0.4124    0.1886   -0.3983 C   0  0  2  0  0  0  0  0  0  0  0  0
   -0.8251    1.3730    0.1836 O   0  0  0  0  0  0  0  0  0  0  0  0
   -1.1451   -0.9677    0.1449 C   0  0  1  0  0  0  0  0  0  0  0  0
   -1.0475   -1.1505    1.5226 O   0  0  0  0  0  0  0  0  0  0  0  0
   -2.5697   -1.0242   -0.3111 C   0  0  2  0  0  0  0  0  0  0  0  0
   -2.6256   -0.8039   -1.7009 O   0  0  0  0  0  0  0  0  0  0  0  0
   -3.5343   -0.1163    0.3516 C   0  0  0  0  0  0  0  0  0  0  0  0
   -3.3594    1.2322    0.1410 O   0  0  0  0  0  0  0  0  0  0  0  0
    3.5022    1.1848   -1.1461 H   0  0  0  0  0  0  0  0  0  0  0  0
    4.7664    1.4243    0.0791 H   0  0  0  0  0  0  0  0  0  0  0  0
    3.2223    2.2886    0.2467 H   0  0  0  0  0  0  0  0  0  0  0  0
    3.4958   -0.7737    0.2632 H   0  0  0  0  0  0  0  0  0  0  0  0
    3.7439    0.2129    1.7345 H   0  0  0  0  0  0  0  0  0  0  0  0
    1.4929   -0.7497    1.5958 H   0  0  0  0  0  0  0  0  0  0  0  0
    1.3851    1.0322    1.5657 H   0  0  0  0  0  0  0  0  0  0  0  0
    1.4880    0.8973   -0.9984 H   0  0  0  0  0  0  0  0  0  0  0  0
    1.3600   -1.9330   -0.2867 H   0  0  0  0  0  0  0  0  0  0  0  0
    1.0473   -1.3630   -1.8772 H   0  0  0  0  0  0  0  0  0  0  0  0
   -0.6956    0.2774   -1.4899 H   0  0  0  0  0  0  0  0  0  0  0  0
   -0.0437    1.9059    0.4008 H   0  0  0  0  0  0  0  0  0  0  0  0
   -0.6914   -1.9268   -0.2796 H   0  0  0  0  0  0  0  0  0  0  0  0
   -0.8407   -0.3338    2.0099 H   0  0  0  0  0  0  0  0  0  0  0  0
   -2.9737   -2.0867   -0.1661 H   0  0  0  0  0  0  0  0  0  0  0  0
   -3.4728   -0.3534   -1.9539 H   0  0  0  0  0  0  0  0  0  0  0  0
   -3.6910   -0.3559    1.4372 H   0  0  0  0  0  0  0  0  0  0  0  0
   -4.5461   -0.3537   -0.1001 H   0  0  0  0  0  0  0  0  0  0  0  0
   -4.2178    1.7152    0.0845 H   0  0  0  0  0  0  0  0  0  0  0  0
  1  2  1  0
  2  3  1  0
  3  4  1  0
  4  5  1  0
  4  6  1  0
  6  7  1  0
  6  8  1  0
  8  9  1  0
  8 10  1  0
 10 11  1  0
 10 12  1  0
 12 13  1  0
  1 14  1  0
  1 15  1  0
  1 16  1  0
  2 17  1  0
  2 18  1  0
  3 19  1  0
  3 20  1  0
  4 21  1  6
  5 22  1  0
  5 23  1  0
  6 24  1  6
  7 25  1  0
  8 26  1  6
  9 27  1  0
 10 28  1  6
 11 29  1  0
 12 30  1  0
 12 31  1  0
 13 32  1  0
M  END
$$$$
