
     RDKit          3D

 29 29  0  0  0  0  0  0  0  0999 V2000
   -4.0348   -0.4200    0.1198 C   0  0  0  0  0  0  0  0  0  0  0  0
   -2.6003   -0.4358    0.3342 N   0  0  0  0  0  0  0  0  0  0  0  0
   -2.2434   -0.1393    1.6916 C   0  0  0  0  0  0  0  0  0  0  0  0
   -0.9856    0.7003    1.6577 C   0  0  0  0  0  0  0  0  0  0  0  0
   -0.6574    0.9246    0.2049 C   0  0  1  0  0  0  0  0  0  0  0  0
    0.3968    0.0839   -0.1601 O   0  0  0  0  0  0  0  0  0  0  0  0
    1.5792    0.5231   -0.7435 C   0  0  0  0  0  0  0  0  0  0  0  0
    1.6953    1.7529   -0.9504 O   0  0  0  0  0  0  0  0  0  0  0  0
    2.5990   -0.4856   -1.0719 C   0  0  1  0  0  0  0  0  0  0  0  0
    3.7379    0.1776   -1.6642 N   0  0  0  0  0  0  0  0  0  0  0  0
    3.0612   -1.2567    0.1441 C   0  0  0  0  0  0  0  0  0  0  0  0
    3.6276   -0.4279    1.0833 O   0  0  0  0  0  0  0  0  0  0  0  0
   -1.9002    0.4671   -0.5269 C   0  0  0  0  0  0  0  0  0  0  0  0
   -4.2115   -0.7226   -0.9285 H   0  0  0  0  0  0  0  0  0  0  0  0
   -4.4576   -1.2370    0.7503 H   0  0  0  0  0  0  0  0  0  0  0  0
   -4.5082    0.5230    0.4014 H   0  0  0  0  0  0  0  0  0  0  0  0
   -3.0217    0.4180    2.2457 H   0  0  0  0  0  0  0  0  0  0  0  0
   -2.0594   -1.0780    2.2596 H   0  0  0  0  0  0  0  0  0  0  0  0
   -0.1316    0.1641    2.1561 H   0  0  0  0  0  0  0  0  0  0  0  0
   -1.1575    1.6840    2.1352 H   0  0  0  0  0  0  0  0  0  0  0  0
   -0.4261    1.9764   -0.0310 H   0  0  0  0  0  0  0  0  0  0  0  0
    2.1866   -1.1667   -1.8330 H   0  0  0  0  0  0  0  0  0  0  0  0
    4.3969   -0.4928   -2.1151 H   0  0  0  0  0  0  0  0  0  0  0  0
    4.2112    0.7721   -0.9483 H   0  0  0  0  0  0  0  0  0  0  0  0
    2.2154   -1.7904    0.6214 H   0  0  0  0  0  0  0  0  0  0  0  0
    3.8207   -2.0084   -0.1510 H   0  0  0  0  0  0  0  0  0  0  0  0
    2.9509    0.1913    1.4960 H   0  0  0  0  0  0  0  0  0  0  0  0
   -2.4849    1.3720   -0.7897 H   0  0  0  0  0  0  0  0  0  0  0  0
   -1.5985   -0.0690   -1.4632 H   0  0  0  0  0  0  0  0  0  0  0  0
  1  2  1  0
  2  3  1  0
  3  4  1  0
  4  5  1  0
  5  6  1  0
  6  7  1  0
  7  8  2  0
  7  9  1  0
  9 10  1  0
  9 11  1  0
 11 12  1  0
  5 13  1  0
 13  2  1  0
  1 14  1  0
  1 15  1  0
  1 16  1  0
  3 17  1  0
  3 18  1  0
  4 19  1  0
  4 20  1  0
  5 21  1  1
  9 22  1  6
 10 23  1  0
 10 24  1  0
 11 25  1  0
 11 26  1  0
 12 27  1  0
 13 28  1  0
 13 29  1  0
M  END
$$$$

     RDKit          3D

 29 29  0  0  0  0  0  0  0  0999 V2000
   -3.6483    0.6039   -1.2748 C   0  0  0  0  0  0  0  0  0  0  0  0
   -2.9328    0.6082   -0.0377 N   0  0  0  0  0  0  0  0  0  0  0  0
   -3.0344   -0.6035    0.7178 C   0  0  0  0  0  0  0  0  0  0  0  0
   -1.6932   -1.2705    0.4995 C   0  0  0  0  0  0  0  0  0  0  0  0
   -0.7541   -0.0829    0.6000 C   0  0  1  0  0  0  0  0  0  0  0  0
    0.4824   -0.3076    0.0105 O   0  0  0  0  0  0  0  0  0  0  0  0
    1.6365   -0.2050    0.7707 C   0  0  0  0  0  0  0  0  0  0  0  0
    1.5409    0.0916    1.9877 O   0  0  0  0  0  0  0  0  0  0  0  0
    2.9795   -0.4469    0.1390 C   0  0  1  0  0  0  0  0  0  0  0  0
    2.8417   -0.7707   -1.2574 N   0  0  0  0  0  0  0  0  0  0  0  0
    3.8658    0.7729    0.2947 C   0  0  0  0  0  0  0  0  0  0  0  0
    4.0051    1.0922    1.6268 O   0  0  0  0  0  0  0  0  0  0  0  0
   -1.5590    0.9827   -0.1350 C   0  0  0  0  0  0  0  0  0  0  0  0
   -3.0315    0.8086   -2.1663 H   0  0  0  0  0  0  0  0  0  0  0  0
   -4.2053   -0.3607   -1.4011 H   0  0  0  0  0  0  0  0  0  0  0  0
   -4.4505    1.3919   -1.2042 H   0  0  0  0  0  0  0  0  0  0  0  0
   -3.8760   -1.2502    0.4069 H   0  0  0  0  0  0  0  0  0  0  0  0
   -3.1272   -0.3272    1.7998 H   0  0  0  0  0  0  0  0  0  0  0  0
   -1.6681   -1.7407   -0.4942 H   0  0  0  0  0  0  0  0  0  0  0  0
   -1.4643   -1.9949    1.2957 H   0  0  0  0  0  0  0  0  0  0  0  0
   -0.6437    0.1612    1.6561 H   0  0  0  0  0  0  0  0  0  0  0  0
    3.4484   -1.2960    0.6572 H   0  0  0  0  0  0  0  0  0  0  0  0
    2.5048   -1.7555   -1.3971 H   0  0  0  0  0  0  0  0  0  0  0  0
    2.2801   -0.0739   -1.7853 H   0  0  0  0  0  0  0  0  0  0  0  0
    4.8414    0.5249   -0.1286 H   0  0  0  0  0  0  0  0  0  0  0  0
    3.3734    1.6181   -0.2285 H   0  0  0  0  0  0  0  0  0  0  0  0
    4.8973    0.8130    1.9888 H   0  0  0  0  0  0  0  0  0  0  0  0
   -1.1938    1.0716   -1.1809 H   0  0  0  0  0  0  0  0  0  0  0  0
   -1.4151    1.9455    0.3776 H   0  0  0  0  0  0  0  0  0  0  0  0
  1  2  1  0
  2  3  1  0
  3  4  1  0
  4  5  1  0
  5  6  1  0
  6  7  1  0
  7  8  2  0
  7  9  1  0
  9 10  1  0
  9 11  1  0
 11 12  1  0
  5 13  1  0
 13  2  1  0
  1 14  1  0
  1 15  1  0
  1 16  1  0
  3 17  1  0
  3 18  1  0
  4 19  1  0
  4 20  1  0
  5 21  1  1
  9 22  1  1
 10 23  1  0
 10 24  1  0
 11 25  1  0
 11 26  1  0
 12 27  1  0
 13 28  1  0
 13 29  1  0
M  END
$$$$

     RDKit          3D

 29 29  0  0  0  0  0  0  0  0999 V2000
    3.9197    0.5398    0.6007 C   0  0  0  0  0  0  0  0  0  0  0  0
    2.5472    0.5750    1.0535 N   0  0  0  0  0  0  0  0  0  0  0  0
    2.0689   -0.7735    1.3130 C   0  0  0  0  0  0  0  0  0  0  0  0
    1.7346   -1.2266   -0.1153 C   0  0  0  0  0  0  0  0  0  0  0  0
    0.9270   -0.0276   -0.5783 C   0  0  1  0  0  0  0  0  0  0  0  0
   -0.3751   -0.2095   -0.0634 O   0  0  0  0  0  0  0  0  0  0  0  0
   -1.5094   -0.2420   -0.8428 C   0  0  0  0  0  0  0  0  0  0  0  0
   -1.3778   -0.1032   -2.0691 O   0  0  0  0  0  0  0  0  0  0  0  0
   -2.8135   -0.4408   -0.1647 C   0  0  1  0  0  0  0  0  0  0  0  0
   -2.6462   -0.5709    1.2685 N   0  0  0  0  0  0  0  0  0  0  0  0
   -3.6976    0.7595   -0.4272 C   0  0  0  0  0  0  0  0  0  0  0  0
   -3.8456    0.8667   -1.8075 O   0  0  0  0  0  0  0  0  0  0  0  0
    1.6479    1.1150    0.0787 C   0  0  0  0  0  0  0  0  0  0  0  0
    4.2974    1.6018    0.6535 H   0  0  0  0  0  0  0  0  0  0  0  0
    4.0406    0.1204   -0.4087 H   0  0  0  0  0  0  0  0  0  0  0  0
    4.5128   -0.0181    1.3597 H   0  0  0  0  0  0  0  0  0  0  0  0
    1.1489   -0.6833    1.9014 H   0  0  0  0  0  0  0  0  0  0  0  0
    2.8008   -1.4159    1.7943 H   0  0  0  0  0  0  0  0  0  0  0  0
    2.6563   -1.3755   -0.6816 H   0  0  0  0  0  0  0  0  0  0  0  0
    1.0904   -2.1287   -0.0947 H   0  0  0  0  0  0  0  0  0  0  0  0
    0.9374    0.0867   -1.6823 H   0  0  0  0  0  0  0  0  0  0  0  0
   -3.2872   -1.3591   -0.5412 H   0  0  0  0  0  0  0  0  0  0  0  0
   -2.6817    0.3400    1.7699 H   0  0  0  0  0  0  0  0  0  0  0  0
   -3.4199   -1.1737    1.6188 H   0  0  0  0  0  0  0  0  0  0  0  0
   -3.1820    1.6731   -0.0465 H   0  0  0  0  0  0  0  0  0  0  0  0
   -4.6425    0.6068    0.1006 H   0  0  0  0  0  0  0  0  0  0  0  0
   -3.8474   -0.0485   -2.1721 H   0  0  0  0  0  0  0  0  0  0  0  0
    2.1222    1.8090   -0.6428 H   0  0  0  0  0  0  0  0  0  0  0  0
    0.8735    1.7033    0.6383 H   0  0  0  0  0  0  0  0  0  0  0  0
  1  2  1  0
  2  3  1  0
  3  4  1  0
  4  5  1  0
  5  6  1  0
  6  7  1  0
  7  8  2  0
  7  9  1  0
  9 10  1  0
  9 11  1  0
 11 12  1  0
  5 13  1  0
 13  2  1  0
  1 14  1  0
  1 15  1  0
  1 16  1  0
  3 17  1  0
  3 18  1  0
  4 19  1  0
  4 20  1  0
  5 21  1  6
  9 22  1  6
 10 23  1  0
 10 24  1  0
 11 25  1  0
 11 26  1  0
 12 27  1  0
 13 28  1  0
 13 29  1  0
M  END
$$$$

     RDKit          3D

 29 29  0  0  0  0  0  0  0  0999 V2000
    3.5172    0.5201    1.5070 C   0  0  0  0  0  0  0  0  0  0  0  0
    2.2350    0.0101    1.0804 N   0  0  0  0  0  0  0  0  0  0  0  0
    2.3045   -1.2930    0.4887 C   0  0  0  0  0  0  0  0  0  0  0  0
    1.8389   -1.1683   -0.9394 C   0  0  0  0  0  0  0  0  0  0  0  0
    0.8900    0.0012   -0.8486 C   0  0  1  0  0  0  0  0  0  0  0  0
   -0.3194   -0.3221   -0.2107 O   0  0  0  0  0  0  0  0  0  0  0  0
   -1.5127   -0.0091   -0.8372 C   0  0  0  0  0  0  0  0  0  0  0  0
   -1.4436    0.5550   -1.9579 O   0  0  0  0  0  0  0  0  0  0  0  0
   -2.8475   -0.2879   -0.2881 C   0  0  1  0  0  0  0  0  0  0  0  0
   -2.7992   -0.9363    1.0004 N   0  0  0  0  0  0  0  0  0  0  0  0
   -3.7101    0.9371   -0.1567 C   0  0  0  0  0  0  0  0  0  0  0  0
   -3.8429    1.6553   -1.3197 O   0  0  0  0  0  0  0  0  0  0  0  0
    1.6745    0.9102    0.1064 C   0  0  0  0  0  0  0  0  0  0  0  0
    3.3535    1.5707    1.8401 H   0  0  0  0  0  0  0  0  0  0  0  0
    3.9518   -0.1042    2.3186 H   0  0  0  0  0  0  0  0  0  0  0  0
    4.1956    0.5240    0.6289 H   0  0  0  0  0  0  0  0  0  0  0  0
    3.3360   -1.7256    0.5579 H   0  0  0  0  0  0  0  0  0  0  0  0
    1.5797   -1.9702    1.0133 H   0  0  0  0  0  0  0  0  0  0  0  0
    1.3592   -2.0861   -1.3215 H   0  0  0  0  0  0  0  0  0  0  0  0
    2.7101   -0.8398   -1.5393 H   0  0  0  0  0  0  0  0  0  0  0  0
    0.7434    0.4936   -1.8279 H   0  0  0  0  0  0  0  0  0  0  0  0
   -3.3686   -0.9879   -0.9788 H   0  0  0  0  0  0  0  0  0  0  0  0
   -3.7889   -1.2616    1.1988 H   0  0  0  0  0  0  0  0  0  0  0  0
   -2.1772   -1.7662    0.9471 H   0  0  0  0  0  0  0  0  0  0  0  0
   -3.4140    1.5777    0.7125 H   0  0  0  0  0  0  0  0  0  0  0  0
   -4.7398    0.5638    0.1182 H   0  0  0  0  0  0  0  0  0  0  0  0
   -3.1839    2.4047   -1.3903 H   0  0  0  0  0  0  0  0  0  0  0  0
    0.9803    1.6319    0.5779 H   0  0  0  0  0  0  0  0  0  0  0  0
    2.4779    1.4032   -0.4802 H   0  0  0  0  0  0  0  0  0  0  0  0
  1  2  1  0
  2  3  1  0
  3  4  1  0
  4  5  1  0
  5  6  1  0
  6  7  1  0
  7  8  2  0
  7  9  1  0
  9 10  1  0
  9 11  1  0
 11 12  1  0
  5 13  1  0
 13  2  1  0
  1 14  1  0
  1 15  1  0
  1 16  1  0
  3 17  1  0
  3 18  1  0
  4 19  1  0
  4 20  1  0
  5 21  1  6
  9 22  1  6
 10 23  1  0
 10 24  1  0
 11 25  1  0
 11 26  1  0
 12 27  1  0
 13 28  1  0
 13 29  1  0
M  END
$$$$

     RDKit          3D

 29 29  0  0  0  0  0  0  0  0999 V2000
    3.9256    0.2144    0.5526 C   0  0  0  0  0  0  0  0  0  0  0  0
    2.6994   -0.4719    0.8172 N   0  0  0  0  0  0  0  0  0  0  0  0
    2.2780   -1.3035   -0.2802 C   0  0  0  0  0  0  0  0  0  0  0  0
    1.6895   -0.2662   -1.2355 C   0  0  0  0  0  0  0  0  0  0  0  0
    0.8393    0.5490   -0.2548 C   0  0  1  0  0  0  0  0  0  0  0  0
   -0.4121   -0.1232   -0.1966 O   0  0  0  0  0  0  0  0  0  0  0  0
   -1.6153    0.5010   -0.5081 C   0  0  0  0  0  0  0  0  0  0  0  0
   -1.5439    1.7086   -0.8497 O   0  0  0  0  0  0  0  0  0  0  0  0
   -2.9197   -0.2160   -0.4428 C   0  0  1  0  0  0  0  0  0  0  0  0
   -2.7461   -1.5903   -0.0263 N   0  0  0  0  0  0  0  0  0  0  0  0
   -3.8257    0.5320    0.5289 C   0  0  0  0  0  0  0  0  0  0  0  0
   -3.9918    1.8536    0.1271 O   0  0  0  0  0  0  0  0  0  0  0  0
    1.5740    0.3792    1.0491 C   0  0  0  0  0  0  0  0  0  0  0  0
    4.1969    0.0562   -0.5192 H   0  0  0  0  0  0  0  0  0  0  0  0
    3.9162    1.2860    0.7872 H   0  0  0  0  0  0  0  0  0  0  0  0
    4.7317   -0.3107    1.1427 H   0  0  0  0  0  0  0  0  0  0  0  0
    1.4135   -1.9260    0.0635 H   0  0  0  0  0  0  0  0  0  0  0  0
    3.0813   -1.8800   -0.7389 H   0  0  0  0  0  0  0  0  0  0  0  0
    2.4844    0.3762   -1.6599 H   0  0  0  0  0  0  0  0  0  0  0  0
    1.0857   -0.7206   -2.0218 H   0  0  0  0  0  0  0  0  0  0  0  0
    0.7497    1.5951   -0.5672 H   0  0  0  0  0  0  0  0  0  0  0  0
   -3.4472   -0.2286   -1.4160 H   0  0  0  0  0  0  0  0  0  0  0  0
   -1.8986   -2.0010   -0.4640 H   0  0  0  0  0  0  0  0  0  0  0  0
   -2.7675   -1.6886    1.0151 H   0  0  0  0  0  0  0  0  0  0  0  0
   -3.4225    0.5051    1.5399 H   0  0  0  0  0  0  0  0  0  0  0  0
   -4.8280    0.0166    0.5284 H   0  0  0  0  0  0  0  0  0  0  0  0
   -3.9847    1.9336   -0.8504 H   0  0  0  0  0  0  0  0  0  0  0  0
    0.9057   -0.1356    1.7802 H   0  0  0  0  0  0  0  0  0  0  0  0
    1.8326    1.3560    1.5074 H   0  0  0  0  0  0  0  0  0  0  0  0
  1  2  1  0
  2  3  1  0
  3  4  1  0
  4  5  1  0
  5  6  1  0
  6  7  1  0
  7  8  2  0
  7  9  1  0
  9 10  1  0
  9 11  1  0
 11 12  1  0
  5 13  1  0
 13  2  1  0
  1 14  1  0
  1 15  1  0
  1 16  1  0
  3 17  1  0
  3 18  1  0
  4 19  1  0
  4 20  1  0
  5 21  1  6
  9 22  1  6
 10 23  1  0
 10 24  1  0
 11 25  1  0
 11 26  1  0
 12 27  1  0
 13 28  1  0
 13 29  1  0
M  END
$$$$

     RDKit          3D

 29 29  0  0  0  0  0  0  0  0999 V2000
   -4.2089    0.7623   -0.1510 C   0  0  0  0  0  0  0  0  0  0  0  0
   -3.0220    0.2376    0.4610 N   0  0  0  0  0  0  0  0  0  0  0  0
   -2.8779   -1.1692    0.2317 C   0  0  0  0  0  0  0  0  0  0  0  0
   -1.4442   -1.3931   -0.2482 C   0  0  0  0  0  0  0  0  0  0  0  0
   -0.7724   -0.1896    0.3483 C   0  0  1  0  0  0  0  0  0  0  0  0
    0.4655    0.1122   -0.1899 O   0  0  0  0  0  0  0  0  0  0  0  0
    1.6013    0.2667    0.5908 C   0  0  0  0  0  0  0  0  0  0  0  0
    1.4387    0.1144    1.8363 O   0  0  0  0  0  0  0  0  0  0  0  0
    2.9352    0.5907    0.0230 C   0  0  1  0  0  0  0  0  0  0  0  0
    3.8819    0.6767    1.1196 N   0  0  0  0  0  0  0  0  0  0  0  0
    3.4309   -0.5013   -0.9007 C   0  0  0  0  0  0  0  0  0  0  0  0
    4.7129   -0.0945   -1.3289 O   0  0  0  0  0  0  0  0  0  0  0  0
   -1.8087    0.8872    0.0183 C   0  0  0  0  0  0  0  0  0  0  0  0
   -4.4163    1.7803    0.2511 H   0  0  0  0  0  0  0  0  0  0  0  0
   -4.0471    0.7712   -1.2455 H   0  0  0  0  0  0  0  0  0  0  0  0
   -5.0396    0.0562    0.0849 H   0  0  0  0  0  0  0  0  0  0  0  0
   -3.6189   -1.5904   -0.4548 H   0  0  0  0  0  0  0  0  0  0  0  0
   -2.9169   -1.6664    1.2457 H   0  0  0  0  0  0  0  0  0  0  0  0
   -1.4988   -1.3306   -1.3641 H   0  0  0  0  0  0  0  0  0  0  0  0
   -1.0408   -2.3528    0.1109 H   0  0  0  0  0  0  0  0  0  0  0  0
   -0.7939   -0.2992    1.4451 H   0  0  0  0  0  0  0  0  0  0  0  0
    2.9041    1.5670   -0.4939 H   0  0  0  0  0  0  0  0  0  0  0  0
    3.4708    0.3981    2.0172 H   0  0  0  0  0  0  0  0  0  0  0  0
    4.4209    1.5509    1.1270 H   0  0  0  0  0  0  0  0  0  0  0  0
    3.5883   -1.4245   -0.3159 H   0  0  0  0  0  0  0  0  0  0  0  0
    2.8156   -0.6317   -1.7921 H   0  0  0  0  0  0  0  0  0  0  0  0
    5.3050    0.0188   -0.5340 H   0  0  0  0  0  0  0  0  0  0  0  0
   -1.5734    1.7965    0.5942 H   0  0  0  0  0  0  0  0  0  0  0  0
   -1.8914    1.0568   -1.0670 H   0  0  0  0  0  0  0  0  0  0  0  0
  1  2  1  0
  2  3  1  0
  3  4  1  0
  4  5  1  0
  5  6  1  0
  6  7  1  0
  7  8  2  0
  7  9  1  0
  9 10  1  0
  9 11  1  0
 11 12  1  0
  5 13  1  0
 13  2  1  0
  1 14  1  0
  1 15  1  0
  1 16  1  0
  3 17  1  0
  3 18  1  0
  4 19  1  0
  4 20  1  0
  5 21  1  1
  9 22  1  6
 10 23  1  0
 10 24  1  0
 11 25  1  0
 11 26  1  0
 12 27  1  0
 13 28  1  0
 13 29  1  0
M  END
$$$$

     RDKit          3D

 29 29  0  0  0  0  0  0  0  0999 V2000
   -3.8048    0.0378   -1.3679 C   0  0  0  0  0  0  0  0  0  0  0  0
   -2.8564    0.5552   -0.4318 N   0  0  0  0  0  0  0  0  0  0  0  0
   -2.7606   -0.3484    0.6999 C   0  0  0  0  0  0  0  0  0  0  0  0
   -1.6382    0.3116    1.4960 C   0  0  0  0  0  0  0  0  0  0  0  0
   -0.7034    0.7260    0.3590 C   0  0  1  0  0  0  0  0  0  0  0  0
    0.4139   -0.1195    0.3579 O   0  0  0  0  0  0  0  0  0  0  0  0
    1.6680    0.3864    0.5665 C   0  0  0  0  0  0  0  0  0  0  0  0
    1.7812    1.6407    0.7596 O   0  0  0  0  0  0  0  0  0  0  0  0
    2.8945   -0.4581    0.5773 C   0  0  1  0  0  0  0  0  0  0  0  0
    2.5082   -1.8135    0.3402 N   0  0  0  0  0  0  0  0  0  0  0  0
    3.8592    0.0672   -0.4617 C   0  0  0  0  0  0  0  0  0  0  0  0
    3.3107    0.0293   -1.7362 O   0  0  0  0  0  0  0  0  0  0  0  0
   -1.5147    0.6189   -0.9077 C   0  0  0  0  0  0  0  0  0  0  0  0
   -4.7590    0.6218   -1.2199 H   0  0  0  0  0  0  0  0  0  0  0  0
   -3.5162    0.1386   -2.4173 H   0  0  0  0  0  0  0  0  0  0  0  0
   -4.0941   -1.0188   -1.1078 H   0  0  0  0  0  0  0  0  0  0  0  0
   -3.6940   -0.2938    1.2593 H   0  0  0  0  0  0  0  0  0  0  0  0
   -2.4504   -1.3622    0.4121 H   0  0  0  0  0  0  0  0  0  0  0  0
   -1.1439   -0.4340    2.1460 H   0  0  0  0  0  0  0  0  0  0  0  0
   -1.9994    1.1939    2.0252 H   0  0  0  0  0  0  0  0  0  0  0  0
   -0.3878    1.7824    0.5455 H   0  0  0  0  0  0  0  0  0  0  0  0
    3.3597   -0.3437    1.5770 H   0  0  0  0  0  0  0  0  0  0  0  0
    2.3594   -2.2778    1.2728 H   0  0  0  0  0  0  0  0  0  0  0  0
    3.1526   -2.3203   -0.2774 H   0  0  0  0  0  0  0  0  0  0  0  0
    4.8057   -0.5131   -0.4308 H   0  0  0  0  0  0  0  0  0  0  0  0
    4.0773    1.1317   -0.2396 H   0  0  0  0  0  0  0  0  0  0  0  0
    3.7427    0.7052   -2.3333 H   0  0  0  0  0  0  0  0  0  0  0  0
   -1.3938    1.5775   -1.4626 H   0  0  0  0  0  0  0  0  0  0  0  0
   -1.2165   -0.2211   -1.5525 H   0  0  0  0  0  0  0  0  0  0  0  0
  1  2  1  0
  2  3  1  0
  3  4  1  0
  4  5  1  0
  5  6  1  0
  6  7  1  0
  7  8  2  0
  7  9  1  0
  9 10  1  0
  9 11  1  0
 11 12  1  0
  5 13  1  0
 13  2  1  0
  1 14  1  0
  1 15  1  0
  1 16  1  0
  3 17  1  0
  3 18  1  0
  4 19  1  0
  4 20  1  0
  5 21  1  1
  9 22  1  1
 10 23  1  0
 10 24  1  0
 11 25  1  0
 11 26  1  0
 12 27  1  0
 13 28  1  0
 13 29  1  0
M  END
$$$$

     RDKit          3D

 29 29  0  0  0  0  0  0  0  0999 V2000
   -3.6218   -0.0107   -1.8027 C   0  0  0  0  0  0  0  0  0  0  0  0
   -3.1435    0.5550   -0.5556 N   0  0  0  0  0  0  0  0  0  0  0  0
   -3.0667   -0.5179    0.4038 C   0  0  0  0  0  0  0  0  0  0  0  0
   -1.6506   -1.0599    0.1580 C   0  0  0  0  0  0  0  0  0  0  0  0
   -0.9007    0.2635    0.1754 C   0  0  1  0  0  0  0  0  0  0  0  0
    0.4037    0.1643   -0.2917 O   0  0  0  0  0  0  0  0  0  0  0  0
    1.4957    0.5438    0.4316 C   0  0  0  0  0  0  0  0  0  0  0  0
    1.2681    1.0120    1.5994 O   0  0  0  0  0  0  0  0  0  0  0  0
    2.8926    0.4634   -0.0066 C   0  0  1  0  0  0  0  0  0  0  0  0
    3.8028    0.9516    1.0104 N   0  0  0  0  0  0  0  0  0  0  0  0
    3.3272   -0.9392   -0.3718 C   0  0  0  0  0  0  0  0  0  0  0  0
    4.6466   -0.8254   -0.8543 O   0  0  0  0  0  0  0  0  0  0  0  0
   -1.8048    1.0834   -0.7159 C   0  0  0  0  0  0  0  0  0  0  0  0
   -4.1182    0.7210   -2.4484 H   0  0  0  0  0  0  0  0  0  0  0  0
   -4.3320   -0.8417   -1.5425 H   0  0  0  0  0  0  0  0  0  0  0  0
   -2.7817   -0.4791   -2.3521 H   0  0  0  0  0  0  0  0  0  0  0  0
   -3.8216   -1.2937    0.2686 H   0  0  0  0  0  0  0  0  0  0  0  0
   -3.0706   -0.0703    1.4213 H   0  0  0  0  0  0  0  0  0  0  0  0
   -1.3374   -1.7419    0.9461 H   0  0  0  0  0  0  0  0  0  0  0  0
   -1.6563   -1.4678   -0.8551 H   0  0  0  0  0  0  0  0  0  0  0  0
   -0.9876    0.6794    1.1929 H   0  0  0  0  0  0  0  0  0  0  0  0
    3.0935    1.0907   -0.9228 H   0  0  0  0  0  0  0  0  0  0  0  0
    3.2192    1.4623    1.7157 H   0  0  0  0  0  0  0  0  0  0  0  0
    4.2321    0.1455    1.5025 H   0  0  0  0  0  0  0  0  0  0  0  0
    3.3242   -1.6323    0.4803 H   0  0  0  0  0  0  0  0  0  0  0  0
    2.7272   -1.3111   -1.2430 H   0  0  0  0  0  0  0  0  0  0  0  0
    5.0601    0.0192   -0.5933 H   0  0  0  0  0  0  0  0  0  0  0  0
   -1.4649    0.8716   -1.7716 H   0  0  0  0  0  0  0  0  0  0  0  0
   -1.7346    2.1642   -0.4774 H   0  0  0  0  0  0  0  0  0  0  0  0
  1  2  1  0
  2  3  1  0
  3  4  1  0
  4  5  1  0
  5  6  1  0
  6  7  1  0
  7  8  2  0
  7  9  1  0
  9 10  1  0
  9 11  1  0
 11 12  1  0
  5 13  1  0
 13  2  1  0
  1 14  1  0
  1 15  1  0
  1 16  1  0
  3 17  1  0
  3 18  1  0
  4 19  1  0
  4 20  1  0
  5 21  1  1
  9 22  1  6
 10 23  1  0
 10 24  1  0
 11 25  1  0
 11 26  1  0
 12 27  1  0
 13 28  1  0
 13 29  1  0
M  END
$$$$
