
     RDKit          3D

 27 27  0  0  0  0  0  0  0  0999 V2000
    3.5556    1.7866   -1.3343 C   0  0  0  0  0  0  0  0  0  0  0  0
    2.6415    0.7717   -1.0481 O   0  0  0  0  0  0  0  0  0  0  0  0
    3.0421   -0.0212    0.0002 C   0  0  0  0  0  0  0  0  0  0  0  0
    1.9782   -1.0776    0.2150 C   0  0  0  0  0  0  0  0  0  0  0  0
    0.7868   -0.4160    0.5079 O   0  0  0  0  0  0  0  0  0  0  0  0
   -0.2600   -1.3133    0.7232 C   0  0  0  0  0  0  0  0  0  0  0  0
   -1.4981   -0.5006    1.0311 C   0  0  2  0  0  0  0  0  0  0  0  0
   -2.7312   -1.3701    1.1237 C   0  0  0  0  0  0  0  0  0  0  0  0
   -3.7696   -0.4711    0.6573 N   0  0  0  0  0  0  0  0  0  0  0  0
   -3.2602    0.5139   -0.0067 C   0  0  0  0  0  0  0  0  0  0  0  0
   -4.0209    1.5680   -0.5959 N   0  0  0  0  0  0  0  0  0  0  0  0
   -1.8427    0.3865   -0.0586 N   0  0  0  0  0  0  0  0  0  0  0  0
    4.5477    1.4233   -1.6081 H   0  0  0  0  0  0  0  0  0  0  0  0
    3.1339    2.4988   -2.0673 H   0  0  0  0  0  0  0  0  0  0  0  0
    3.6589    2.3719   -0.3808 H   0  0  0  0  0  0  0  0  0  0  0  0
    4.0441   -0.4745   -0.1561 H   0  0  0  0  0  0  0  0  0  0  0  0
    3.1378    0.6196    0.9095 H   0  0  0  0  0  0  0  0  0  0  0  0
    1.8163   -1.5630   -0.7860 H   0  0  0  0  0  0  0  0  0  0  0  0
    2.2485   -1.8217    0.9690 H   0  0  0  0  0  0  0  0  0  0  0  0
    0.0178   -1.9124    1.6114 H   0  0  0  0  0  0  0  0  0  0  0  0
   -0.4049   -1.9336   -0.1713 H   0  0  0  0  0  0  0  0  0  0  0  0
   -1.4044    0.0549    1.9805 H   0  0  0  0  0  0  0  0  0  0  0  0
   -2.9192   -1.6785    2.1749 H   0  0  0  0  0  0  0  0  0  0  0  0
   -2.6463   -2.2322    0.4383 H   0  0  0  0  0  0  0  0  0  0  0  0
   -4.1269    1.6546   -1.6203 H   0  0  0  0  0  0  0  0  0  0  0  0
   -4.4840    2.2723    0.0184 H   0  0  0  0  0  0  0  0  0  0  0  0
   -1.2410    0.8637   -0.7646 H   0  0  0  0  0  0  0  0  0  0  0  0
  1  2  1  0
  2  3  1  0
  3  4  1  0
  4  5  1  0
  5  6  1  0
  6  7  1  0
  7  8  1  0
  8  9  1  0
  9 10  2  0
 10 11  1  0
 10 12  1  0
 12  7  1  0
  1 13  1  0
  1 14  1  0
  1 15  1  0
  3 16  1  0
  3 17  1  0
  4 18  1  0
  4 19  1  0
  6 20  1  0
  6 21  1  0
  7 22  1  1
  8 23  1  0
  8 24  1  0
 11 25  1  0
 11 26  1  0
 12 27  1  0
M  END
$$$$

     RDKit          3D

 27 27  0  0  0  0  0  0  0  0999 V2000
    4.3893    0.1108    0.8902 C   0  0  0  0  0  0  0  0  0  0  0  0
    3.0211    0.0497    0.6627 O   0  0  0  0  0  0  0  0  0  0  0  0
    2.8093    0.3891   -0.6679 C   0  0  0  0  0  0  0  0  0  0  0  0
    1.3275    0.3512   -1.0193 C   0  0  0  0  0  0  0  0  0  0  0  0
    0.7878   -0.8914   -0.8269 O   0  0  0  0  0  0  0  0  0  0  0  0
   -0.5401   -1.0393   -1.1288 C   0  0  0  0  0  0  0  0  0  0  0  0
   -1.3766   -0.1363   -0.3028 C   0  0  2  0  0  0  0  0  0  0  0  0
   -1.3493   -0.4339    1.1626 C   0  0  0  0  0  0  0  0  0  0  0  0
   -2.6226    0.0991    1.5988 N   0  0  0  0  0  0  0  0  0  0  0  0
   -3.4470    0.1839    0.5891 C   0  0  0  0  0  0  0  0  0  0  0  0
   -4.7785    0.6688    0.6868 N   0  0  0  0  0  0  0  0  0  0  0  0
   -2.8052   -0.2755   -0.5913 N   0  0  0  0  0  0  0  0  0  0  0  0
    4.6069   -0.1545    1.9475 H   0  0  0  0  0  0  0  0  0  0  0  0
    4.8287    1.0920    0.6537 H   0  0  0  0  0  0  0  0  0  0  0  0
    4.8526   -0.6324    0.1896 H   0  0  0  0  0  0  0  0  0  0  0  0
    3.2059    1.4124   -0.8222 H   0  0  0  0  0  0  0  0  0  0  0  0
    3.4081   -0.2858   -1.3083 H   0  0  0  0  0  0  0  0  0  0  0  0
    0.8437    1.1094   -0.3523 H   0  0  0  0  0  0  0  0  0  0  0  0
    1.2383    0.7336   -2.0472 H   0  0  0  0  0  0  0  0  0  0  0  0
   -0.8134   -2.1004   -0.9641 H   0  0  0  0  0  0  0  0  0  0  0  0
   -0.7190   -0.7550   -2.2067 H   0  0  0  0  0  0  0  0  0  0  0  0
   -1.1444    0.9306   -0.4989 H   0  0  0  0  0  0  0  0  0  0  0  0
   -0.4908    0.0304    1.6881 H   0  0  0  0  0  0  0  0  0  0  0  0
   -1.3804   -1.5379    1.2929 H   0  0  0  0  0  0  0  0  0  0  0  0
   -5.0612    1.5475    0.2096 H   0  0  0  0  0  0  0  0  0  0  0  0
   -5.4889    0.1523    1.2365 H   0  0  0  0  0  0  0  0  0  0  0  0
   -3.3021   -0.6183   -1.4308 H   0  0  0  0  0  0  0  0  0  0  0  0
  1  2  1  0
  2  3  1  0
  3  4  1  0
  4  5  1  0
  5  6  1  0
  6  7  1  0
  7  8  1  0
  8  9  1  0
  9 10  2  0
 10 11  1  0
 10 12  1  0
 12  7  1  0
  1 13  1  0
  1 14  1  0
  1 15  1  0
  3 16  1  0
  3 17  1  0
  4 18  1  0
  4 19  1  0
  6 20  1  0
  6 21  1  0
  7 22  1  1
  8 23  1  0
  8 24  1  0
 11 25  1  0
 11 26  1  0
 12 27  1  0
M  END
$$$$

     RDKit          3D

 27 27  0  0  0  0  0  0  0  0999 V2000
    4.6989    0.2719   -0.7260 C   0  0  0  0  0  0  0  0  0  0  0  0
    3.3176    0.2912   -0.6598 O   0  0  0  0  0  0  0  0  0  0  0  0
    2.9648   -0.1462    0.6341 C   0  0  0  0  0  0  0  0  0  0  0  0
    1.4258   -0.1443    0.7646 C   0  0  0  0  0  0  0  0  0  0  0  0
    0.8324   -0.9490   -0.1205 O   0  0  0  0  0  0  0  0  0  0  0  0
   -0.4656   -1.1612   -0.2138 C   0  0  0  0  0  0  0  0  0  0  0  0
   -1.4340   -0.0690   -0.4911 C   0  0  2  0  0  0  0  0  0  0  0  0
   -1.6505    0.8982    0.6510 C   0  0  0  0  0  0  0  0  0  0  0  0
   -3.0428    1.3183    0.4111 N   0  0  0  0  0  0  0  0  0  0  0  0
   -3.6629    0.4232   -0.2718 C   0  0  0  0  0  0  0  0  0  0  0  0
   -5.0405    0.5738   -0.6507 N   0  0  0  0  0  0  0  0  0  0  0  0
   -2.7931   -0.6602   -0.5547 N   0  0  0  0  0  0  0  0  0  0  0  0
    5.0370    0.6079   -1.7256 H   0  0  0  0  0  0  0  0  0  0  0  0
    5.0542   -0.7835   -0.5617 H   0  0  0  0  0  0  0  0  0  0  0  0
    5.1865    0.8711    0.0578 H   0  0  0  0  0  0  0  0  0  0  0  0
    3.3818   -1.1328    0.8703 H   0  0  0  0  0  0  0  0  0  0  0  0
    3.3984    0.6057    1.3261 H   0  0  0  0  0  0  0  0  0  0  0  0
    1.2100   -0.2617    1.8195 H   0  0  0  0  0  0  0  0  0  0  0  0
    1.1703    0.9263    0.4951 H   0  0  0  0  0  0  0  0  0  0  0  0
   -0.6341   -1.9239   -1.0413 H   0  0  0  0  0  0  0  0  0  0  0  0
   -0.8421   -1.7364    0.6924 H   0  0  0  0  0  0  0  0  0  0  0  0
   -1.3071    0.4304   -1.4551 H   0  0  0  0  0  0  0  0  0  0  0  0
   -0.9875    1.7864    0.6224 H   0  0  0  0  0  0  0  0  0  0  0  0
   -1.6163    0.3479    1.5961 H   0  0  0  0  0  0  0  0  0  0  0  0
   -5.3464    1.0882   -1.5021 H   0  0  0  0  0  0  0  0  0  0  0  0
   -5.7855    0.1538   -0.0558 H   0  0  0  0  0  0  0  0  0  0  0  0
   -3.0691   -1.6264   -0.7552 H   0  0  0  0  0  0  0  0  0  0  0  0
  1  2  1  0
  2  3  1  0
  3  4  1  0
  4  5  1  0
  5  6  1  0
  6  7  1  0
  7  8  1  0
  8  9  1  0
  9 10  2  0
 10 11  1  0
 10 12  1  0
 12  7  1  0
  1 13  1  0
  1 14  1  0
  1 15  1  0
  3 16  1  0
  3 17  1  0
  4 18  1  0
  4 19  1  0
  6 20  1  0
  6 21  1  0
  7 22  1  6
  8 23  1  0
  8 24  1  0
 11 25  1  0
 11 26  1  0
 12 27  1  0
M  END
$$$$

     RDKit          3D

 27 27  0  0  0  0  0  0  0  0999 V2000
    3.3721    0.3194    1.5331 C   0  0  0  0  0  0  0  0  0  0  0  0
    3.5915   -0.4687    0.4375 O   0  0  0  0  0  0  0  0  0  0  0  0
    2.4730   -0.8821   -0.2528 C   0  0  0  0  0  0  0  0  0  0  0  0
    1.6493    0.2306   -0.8071 C   0  0  0  0  0  0  0  0  0  0  0  0
    0.5297   -0.2121   -1.5006 O   0  0  0  0  0  0  0  0  0  0  0  0
   -0.3380   -0.9524   -0.7504 C   0  0  0  0  0  0  0  0  0  0  0  0
   -0.8894   -0.1903    0.4441 C   0  0  2  0  0  0  0  0  0  0  0  0
   -1.9877   -0.9727    1.1281 C   0  0  0  0  0  0  0  0  0  0  0  0
   -3.2043   -0.3398    0.6768 N   0  0  0  0  0  0  0  0  0  0  0  0
   -2.9963    0.7534    0.0653 C   0  0  0  0  0  0  0  0  0  0  0  0
   -3.9790    1.6350   -0.5115 N   0  0  0  0  0  0  0  0  0  0  0  0
   -1.6096    0.9976    0.0263 N   0  0  0  0  0  0  0  0  0  0  0  0
    2.8576    1.2618    1.2698 H   0  0  0  0  0  0  0  0  0  0  0  0
    2.8442   -0.2062    2.3583 H   0  0  0  0  0  0  0  0  0  0  0  0
    4.3727    0.6223    1.9224 H   0  0  0  0  0  0  0  0  0  0  0  0
    2.8195   -1.5971   -1.0273 H   0  0  0  0  0  0  0  0  0  0  0  0
    1.8092   -1.4426    0.4695 H   0  0  0  0  0  0  0  0  0  0  0  0
    2.2799    0.7802   -1.5481 H   0  0  0  0  0  0  0  0  0  0  0  0
    1.3667    0.9765   -0.0392 H   0  0  0  0  0  0  0  0  0  0  0  0
   -1.2273   -1.1709   -1.3976 H   0  0  0  0  0  0  0  0  0  0  0  0
    0.0333   -1.9253   -0.4087 H   0  0  0  0  0  0  0  0  0  0  0  0
   -0.1023    0.0057    1.1762 H   0  0  0  0  0  0  0  0  0  0  0  0
   -1.8818   -0.9669    2.2344 H   0  0  0  0  0  0  0  0  0  0  0  0
   -2.0279   -2.0296    0.7601 H   0  0  0  0  0  0  0  0  0  0  0  0
   -4.0897    2.5722   -0.0756 H   0  0  0  0  0  0  0  0  0  0  0  0
   -4.5334    1.3190   -1.3232 H   0  0  0  0  0  0  0  0  0  0  0  0
   -1.1320    1.8830   -0.2542 H   0  0  0  0  0  0  0  0  0  0  0  0
  1  2  1  0
  2  3  1  0
  3  4  1  0
  4  5  1  0
  5  6  1  0
  6  7  1  0
  7  8  1  0
  8  9  1  0
  9 10  2  0
 10 11  1  0
 10 12  1  0
 12  7  1  0
  1 13  1  0
  1 14  1  0
  1 15  1  0
  3 16  1  0
  3 17  1  0
  4 18  1  0
  4 19  1  0
  6 20  1  0
  6 21  1  0
  7 22  1  1
  8 23  1  0
  8 24  1  0
 11 25  1  0
 11 26  1  0
 12 27  1  0
M  END
$$$$

     RDKit          3D

 27 27  0  0  0  0  0  0  0  0999 V2000
    3.3243    1.6272    0.1182 C   0  0  0  0  0  0  0  0  0  0  0  0
    3.7037    0.3365   -0.1835 O   0  0  0  0  0  0  0  0  0  0  0  0
    2.8937   -0.6527    0.2841 C   0  0  0  0  0  0  0  0  0  0  0  0
    1.4411   -0.5516   -0.2622 C   0  0  0  0  0  0  0  0  0  0  0  0
    0.7851   -1.5845    0.2819 O   0  0  0  0  0  0  0  0  0  0  0  0
   -0.4761   -1.9218    0.0100 C   0  0  0  0  0  0  0  0  0  0  0  0
   -1.4576   -0.8516    0.2425 C   0  0  2  0  0  0  0  0  0  0  0  0
   -2.9092   -1.2206    0.0100 C   0  0  0  0  0  0  0  0  0  0  0  0
   -3.4990    0.1313   -0.0152 N   0  0  0  0  0  0  0  0  0  0  0  0
   -2.6057    1.0025   -0.3643 C   0  0  0  0  0  0  0  0  0  0  0  0
   -2.7855    2.4056   -0.5035 N   0  0  0  0  0  0  0  0  0  0  0  0
   -1.3495    0.3091   -0.6055 N   0  0  0  0  0  0  0  0  0  0  0  0
    3.2542    1.8283    1.2126 H   0  0  0  0  0  0  0  0  0  0  0  0
    2.3956    1.8582   -0.4362 H   0  0  0  0  0  0  0  0  0  0  0  0
    4.1506    2.2793   -0.3097 H   0  0  0  0  0  0  0  0  0  0  0  0
    3.2503   -1.6257   -0.0493 H   0  0  0  0  0  0  0  0  0  0  0  0
    2.8266   -0.6794    1.3917 H   0  0  0  0  0  0  0  0  0  0  0  0
    1.4433   -0.4954   -1.3455 H   0  0  0  0  0  0  0  0  0  0  0  0
    1.0747    0.4608    0.1305 H   0  0  0  0  0  0  0  0  0  0  0  0
   -0.6120   -2.4210   -0.9966 H   0  0  0  0  0  0  0  0  0  0  0  0
   -0.7586   -2.7694    0.7292 H   0  0  0  0  0  0  0  0  0  0  0  0
   -1.3246   -0.5016    1.3015 H   0  0  0  0  0  0  0  0  0  0  0  0
   -3.0401   -1.7510   -0.9295 H   0  0  0  0  0  0  0  0  0  0  0  0
   -3.2921   -1.7799    0.8875 H   0  0  0  0  0  0  0  0  0  0  0  0
   -2.0581    3.1189   -0.3505 H   0  0  0  0  0  0  0  0  0  0  0  0
   -3.7272    2.7802   -0.7849 H   0  0  0  0  0  0  0  0  0  0  0  0
   -0.6479    0.6683   -1.2680 H   0  0  0  0  0  0  0  0  0  0  0  0
  1  2  1  0
  2  3  1  0
  3  4  1  0
  4  5  1  0
  5  6  1  0
  6  7  1  0
  7  8  1  0
  8  9  1  0
  9 10  2  0
 10 11  1  0
 10 12  1  0
 12  7  1  0
  1 13  1  0
  1 14  1  0
  1 15  1  0
  3 16  1  0
  3 17  1  0
  4 18  1  0
  4 19  1  0
  6 20  1  0
  6 21  1  0
  7 22  1  1
  8 23  1  0
  8 24  1  0
 11 25  1  0
 11 26  1  0
 12 27  1  0
M  END
$$$$

     RDKit          3D

 27 27  0  0  0  0  0  0  0  0999 V2000
    4.0916    1.1979    0.7793 C   0  0  0  0  0  0  0  0  0  0  0  0
    2.8999    0.7063    0.2363 O   0  0  0  0  0  0  0  0  0  0  0  0
    2.9119   -0.6773    0.2246 C   0  0  0  0  0  0  0  0  0  0  0  0
    1.6019   -1.1541   -0.3715 C   0  0  0  0  0  0  0  0  0  0  0  0
    0.5211   -0.7074    0.3799 O   0  0  0  0  0  0  0  0  0  0  0  0
   -0.6386   -1.1736   -0.2131 C   0  0  0  0  0  0  0  0  0  0  0  0
   -1.8797   -0.7415    0.5301 C   0  0  2  0  0  0  0  0  0  0  0  0
   -3.0680   -1.0525   -0.3252 C   0  0  0  0  0  0  0  0  0  0  0  0
   -3.6578    0.1983   -0.6929 N   0  0  0  0  0  0  0  0  0  0  0  0
   -3.0049    1.1961   -0.2231 C   0  0  0  0  0  0  0  0  0  0  0  0
   -3.2771    2.5867   -0.3713 N   0  0  0  0  0  0  0  0  0  0  0  0
   -1.8842    0.7160    0.5256 N   0  0  0  0  0  0  0  0  0  0  0  0
    4.2339    0.8415    1.8297 H   0  0  0  0  0  0  0  0  0  0  0  0
    4.9771    0.9273    0.1769 H   0  0  0  0  0  0  0  0  0  0  0  0
    4.0445    2.3006    0.8388 H   0  0  0  0  0  0  0  0  0  0  0  0
    3.7156   -1.0391   -0.4704 H   0  0  0  0  0  0  0  0  0  0  0  0
    3.0274   -1.0905    1.2341 H   0  0  0  0  0  0  0  0  0  0  0  0
    1.5689   -0.7710   -1.4093 H   0  0  0  0  0  0  0  0  0  0  0  0
    1.6112   -2.2597   -0.3827 H   0  0  0  0  0  0  0  0  0  0  0  0
   -0.6824   -0.7759   -1.2411 H   0  0  0  0  0  0  0  0  0  0  0  0
   -0.6298   -2.2878   -0.2621 H   0  0  0  0  0  0  0  0  0  0  0  0
   -1.9334   -1.1528    1.5428 H   0  0  0  0  0  0  0  0  0  0  0  0
   -3.8238   -1.6810    0.1833 H   0  0  0  0  0  0  0  0  0  0  0  0
   -2.8031   -1.5956   -1.2686 H   0  0  0  0  0  0  0  0  0  0  0  0
   -3.9662    3.0379    0.2485 H   0  0  0  0  0  0  0  0  0  0  0  0
   -2.7996    3.1700   -1.0912 H   0  0  0  0  0  0  0  0  0  0  0  0
   -1.1562    1.2812    1.0110 H   0  0  0  0  0  0  0  0  0  0  0  0
  1  2  1  0
  2  3  1  0
  3  4  1  0
  4  5  1  0
  5  6  1  0
  6  7  1  0
  7  8  1  0
  8  9  1  0
  9 10  2  0
 10 11  1  0
 10 12  1  0
 12  7  1  0
  1 13  1  0
  1 14  1  0
  1 15  1  0
  3 16  1  0
  3 17  1  0
  4 18  1  0
  4 19  1  0
  6 20  1  0
  6 21  1  0
  7 22  1  1
  8 23  1  0
  8 24  1  0
 11 25  1  0
 11 26  1  0
 12 27  1  0
M  END
$$$$

     RDKit          3D

 27 27  0  0  0  0  0  0  0  0999 V2000
    4.6287   -0.1561    0.4016 C   0  0  0  0  0  0  0  0  0  0  0  0
    3.4196    0.3450   -0.0803 O   0  0  0  0  0  0  0  0  0  0  0  0
    2.5086   -0.6583   -0.3055 C   0  0  0  0  0  0  0  0  0  0  0  0
    1.2276   -0.0114   -0.8278 C   0  0  0  0  0  0  0  0  0  0  0  0
    0.7259    0.8773    0.0935 O   0  0  0  0  0  0  0  0  0  0  0  0
   -0.4274    1.5111   -0.2973 C   0  0  0  0  0  0  0  0  0  0  0  0
   -1.5047    0.5212   -0.5490 C   0  0  2  0  0  0  0  0  0  0  0  0
   -2.8573    1.1567   -0.7855 C   0  0  0  0  0  0  0  0  0  0  0  0
   -3.7649    0.1336   -0.2864 N   0  0  0  0  0  0  0  0  0  0  0  0
   -3.1345   -0.6534    0.5374 C   0  0  0  0  0  0  0  0  0  0  0  0
   -3.6915   -1.7857    1.2380 N   0  0  0  0  0  0  0  0  0  0  0  0
   -1.7784   -0.2446    0.6670 N   0  0  0  0  0  0  0  0  0  0  0  0
    5.3192    0.7033    0.5624 H   0  0  0  0  0  0  0  0  0  0  0  0
    4.4106   -0.5755    1.4202 H   0  0  0  0  0  0  0  0  0  0  0  0
    5.0586   -0.9425   -0.2467 H   0  0  0  0  0  0  0  0  0  0  0  0
    2.8761   -1.3011   -1.1312 H   0  0  0  0  0  0  0  0  0  0  0  0
    2.2936   -1.2821    0.5918 H   0  0  0  0  0  0  0  0  0  0  0  0
    0.5351   -0.8801   -1.0224 H   0  0  0  0  0  0  0  0  0  0  0  0
    1.5160    0.4933   -1.7788 H   0  0  0  0  0  0  0  0  0  0  0  0
   -0.7539    2.1615    0.5470 H   0  0  0  0  0  0  0  0  0  0  0  0
   -0.2917    2.1833   -1.1626 H   0  0  0  0  0  0  0  0  0  0  0  0
   -1.3385   -0.1827   -1.3640 H   0  0  0  0  0  0  0  0  0  0  0  0
   -3.0357    1.3781   -1.8482 H   0  0  0  0  0  0  0  0  0  0  0  0
   -3.0097    2.0522   -0.1239 H   0  0  0  0  0  0  0  0  0  0  0  0
   -4.2986   -2.4863    0.7695 H   0  0  0  0  0  0  0  0  0  0  0  0
   -3.4715   -1.8909    2.2373 H   0  0  0  0  0  0  0  0  0  0  0  0
   -1.1615   -0.4661    1.4668 H   0  0  0  0  0  0  0  0  0  0  0  0
  1  2  1  0
  2  3  1  0
  3  4  1  0
  4  5  1  0
  5  6  1  0
  6  7  1  0
  7  8  1  0
  8  9  1  0
  9 10  2  0
 10 11  1  0
 10 12  1  0
 12  7  1  0
  1 13  1  0
  1 14  1  0
  1 15  1  0
  3 16  1  0
  3 17  1  0
  4 18  1  0
  4 19  1  0
  6 20  1  0
  6 21  1  0
  7 22  1  6
  8 23  1  0
  8 24  1  0
 11 25  1  0
 11 26  1  0
 12 27  1  0
M  END
$$$$

     RDKit          3D

 27 27  0  0  0  0  0  0  0  0999 V2000
    3.2834    1.7028   -1.5423 C   0  0  0  0  0  0  0  0  0  0  0  0
    2.3075    0.9792   -0.8586 O   0  0  0  0  0  0  0  0  0  0  0  0
    2.6802   -0.3369   -0.6472 C   0  0  0  0  0  0  0  0  0  0  0  0
    1.5194   -0.9956    0.1062 C   0  0  0  0  0  0  0  0  0  0  0  0
    0.4129   -0.8843   -0.7158 O   0  0  0  0  0  0  0  0  0  0  0  0
   -0.7405   -1.4284   -0.2013 C   0  0  0  0  0  0  0  0  0  0  0  0
   -1.1207   -0.7604    1.0987 C   0  0  2  0  0  0  0  0  0  0  0  0
   -2.5027   -1.1964    1.5628 C   0  0  0  0  0  0  0  0  0  0  0  0
   -3.3586   -0.2738    0.8533 N   0  0  0  0  0  0  0  0  0  0  0  0
   -2.6936    0.7818    0.4780 C   0  0  0  0  0  0  0  0  0  0  0  0
   -3.2072    1.9026   -0.2441 N   0  0  0  0  0  0  0  0  0  0  0  0
   -1.3415    0.6649    0.8977 N   0  0  0  0  0  0  0  0  0  0  0  0
    4.2350    1.7374   -1.0089 H   0  0  0  0  0  0  0  0  0  0  0  0
    2.8574    2.6990   -1.7850 H   0  0  0  0  0  0  0  0  0  0  0  0
    3.4697    1.2047   -2.5265 H   0  0  0  0  0  0  0  0  0  0  0  0
    3.5817   -0.4612   -0.0443 H   0  0  0  0  0  0  0  0  0  0  0  0
    2.8213   -0.8813   -1.6111 H   0  0  0  0  0  0  0  0  0  0  0  0
    1.3979   -0.4462    1.0675 H   0  0  0  0  0  0  0  0  0  0  0  0
    1.7160   -2.0570    0.3134 H   0  0  0  0  0  0  0  0  0  0  0  0
   -0.6317   -2.5146    0.0053 H   0  0  0  0  0  0  0  0  0  0  0  0
   -1.5544   -1.2273   -0.9262 H   0  0  0  0  0  0  0  0  0  0  0  0
   -0.3903   -0.9396    1.9062 H   0  0  0  0  0  0  0  0  0  0  0  0
   -2.6130   -1.1276    2.6598 H   0  0  0  0  0  0  0  0  0  0  0  0
   -2.6472   -2.2387    1.1805 H   0  0  0  0  0  0  0  0  0  0  0  0
   -2.8230    2.8638   -0.1302 H   0  0  0  0  0  0  0  0  0  0  0  0
   -3.9949    1.7881   -0.9172 H   0  0  0  0  0  0  0  0  0  0  0  0
   -0.6632    1.4448    1.0293 H   0  0  0  0  0  0  0  0  0  0  0  0
  1  2  1  0
  2  3  1  0
  3  4  1  0
  4  5  1  0
  5  6  1  0
  6  7  1  0
  7  8  1  0
  8  9  1  0
  9 10  2  0
 10 11  1  0
 10 12  1  0
 12  7  1  0
  1 13  1  0
  1 14  1  0
  1 15  1  0
  3 16  1  0
  3 17  1  0
  4 18  1  0
  4 19  1  0
  6 20  1  0
  6 21  1  0
  7 22  1  1
  8 23  1  0
  8 24  1  0
 11 25  1  0
 11 26  1  0
 12 27  1  0
M  END
$$$$
