
     RDKit          3D

 30 29  0  0  0  0  0  0  0  0999 V2000
   -3.8484    1.3963   -0.2549 C   0  0  0  0  0  0  0  0  0  0  0  0
   -2.3774    1.1830   -0.0952 C   0  0  2  0  0  0  0  0  0  0  0  0
   -1.7420    1.5800   -1.2705 O   0  0  0  0  0  0  0  0  0  0  0  0
   -2.0271   -0.2606    0.1899 C   0  0  2  0  0  0  0  0  0  0  0  0
   -2.7673   -0.8142    1.3620 C   0  0  0  0  0  0  0  0  0  0  0  0
   -0.5851   -0.3277    0.3330 N   0  0  0  0  0  0  0  0  0  0  0  0
    0.2372   -1.0456   -0.5619 C   0  0  0  0  0  0  0  0  0  0  0  0
   -0.3113   -1.6486   -1.5196 O   0  0  0  0  0  0  0  0  0  0  0  0
    1.7316   -1.0964   -0.3866 C   0  0  0  0  0  0  0  0  0  0  0  0
    2.0952   -0.3751    0.7102 O   0  0  0  0  0  0  0  0  0  0  0  0
    3.4056   -0.3261    1.0515 C   0  0  0  0  0  0  0  0  0  0  0  0
    4.3574    0.2442    0.0570 C   0  0  0  0  0  0  0  0  0  0  0  0
    4.4132   -0.4202   -1.1528 O   0  0  0  0  0  0  0  0  0  0  0  0
   -4.2846    1.8899    0.6541 H   0  0  0  0  0  0  0  0  0  0  0  0
   -4.3866    0.4416   -0.4704 H   0  0  0  0  0  0  0  0  0  0  0  0
   -4.0434    2.0915   -1.0898 H   0  0  0  0  0  0  0  0  0  0  0  0
   -2.0101    1.8481    0.7071 H   0  0  0  0  0  0  0  0  0  0  0  0
   -2.2090    1.1776   -2.0513 H   0  0  0  0  0  0  0  0  0  0  0  0
   -2.3105   -0.8575   -0.7150 H   0  0  0  0  0  0  0  0  0  0  0  0
   -2.0271   -0.9888    2.1870 H   0  0  0  0  0  0  0  0  0  0  0  0
   -3.2373   -1.7939    1.1307 H   0  0  0  0  0  0  0  0  0  0  0  0
   -3.5453   -0.1604    1.7604 H   0  0  0  0  0  0  0  0  0  0  0  0
   -0.1419    0.1738    1.1274 H   0  0  0  0  0  0  0  0  0  0  0  0
    2.1506   -0.5704   -1.3000 H   0  0  0  0  0  0  0  0  0  0  0  0
    2.0846   -2.1265   -0.4330 H   0  0  0  0  0  0  0  0  0  0  0  0
    3.4817    0.3125    1.9815 H   0  0  0  0  0  0  0  0  0  0  0  0
    3.8119   -1.3224    1.3964 H   0  0  0  0  0  0  0  0  0  0  0  0
    5.4036    0.2071    0.4730 H   0  0  0  0  0  0  0  0  0  0  0  0
    4.1810    1.3451   -0.1195 H   0  0  0  0  0  0  0  0  0  0  0  0
    4.5009    0.2437   -1.8799 H   0  0  0  0  0  0  0  0  0  0  0  0
  1  2  1  0
  2  3  1  0
  2  4  1  0
  4  5  1  0
  4  6  1  0
  6  7  1  0
  7  8  2  0
  7  9  1  0
  9 10  1  0
 10 11  1  0
 11 12  1  0
 12 13  1  0
  1 14  1  0
  1 15  1  0
  1 16  1  0
  2 17  1  1
  3 18  1  0
  4 19  1  6
  5 20  1  0
  5 21  1  0
  5 22  1  0
  6 23  1  0
  9 24  1  0
  9 25  1  0
 11 26  1  0
 11 27  1  0
 12 28  1  0
 12 29  1  0
 13 30  1  0
M  END
$$$$

     RDKit          3D

 30 29  0  0  0  0  0  0  0  0999 V2000
   -4.2422    0.8963    0.5457 C   0  0  0  0  0  0  0  0  0  0  0  0
   -2.8924    0.3484    0.8794 C   0  0  2  0  0  0  0  0  0  0  0  0
   -2.1435    1.3841    1.4485 O   0  0  0  0  0  0  0  0  0  0  0  0
   -2.1880   -0.1244   -0.3698 C   0  0  2  0  0  0  0  0  0  0  0  0
   -2.9894   -1.1353   -1.1244 C   0  0  0  0  0  0  0  0  0  0  0  0
   -0.8747   -0.5962   -0.0044 N   0  0  0  0  0  0  0  0  0  0  0  0
    0.3362   -0.0027   -0.4185 C   0  0  0  0  0  0  0  0  0  0  0  0
    0.2976    1.0017   -1.1527 O   0  0  0  0  0  0  0  0  0  0  0  0
    1.6291   -0.5474   -0.0001 C   0  0  0  0  0  0  0  0  0  0  0  0
    2.7093    0.1708   -0.5075 O   0  0  0  0  0  0  0  0  0  0  0  0
    3.8672   -0.4460   -0.0385 C   0  0  0  0  0  0  0  0  0  0  0  0
    5.1152    0.2402   -0.5199 C   0  0  0  0  0  0  0  0  0  0  0  0
    5.1169    1.5598   -0.0741 O   0  0  0  0  0  0  0  0  0  0  0  0
   -4.9511    0.8254    1.3958 H   0  0  0  0  0  0  0  0  0  0  0  0
   -4.7298    0.4293   -0.3187 H   0  0  0  0  0  0  0  0  0  0  0  0
   -4.1371    1.9892    0.2948 H   0  0  0  0  0  0  0  0  0  0  0  0
   -2.9363   -0.4595    1.6311 H   0  0  0  0  0  0  0  0  0  0  0  0
   -1.5439    1.8046    0.7767 H   0  0  0  0  0  0  0  0  0  0  0  0
   -2.0612    0.7700   -1.0209 H   0  0  0  0  0  0  0  0  0  0  0  0
   -3.5811   -1.8163   -0.4838 H   0  0  0  0  0  0  0  0  0  0  0  0
   -3.7127   -0.5917   -1.7667 H   0  0  0  0  0  0  0  0  0  0  0  0
   -2.3051   -1.6735   -1.8089 H   0  0  0  0  0  0  0  0  0  0  0  0
   -0.8231   -1.4336    0.6081 H   0  0  0  0  0  0  0  0  0  0  0  0
    1.7511   -1.6149   -0.3238 H   0  0  0  0  0  0  0  0  0  0  0  0
    1.7354   -0.5680    1.1184 H   0  0  0  0  0  0  0  0  0  0  0  0
    3.8362   -0.3942    1.0632 H   0  0  0  0  0  0  0  0  0  0  0  0
    3.8708   -1.5167   -0.3353 H   0  0  0  0  0  0  0  0  0  0  0  0
    5.2593    0.1740   -1.6027 H   0  0  0  0  0  0  0  0  0  0  0  0
    5.9753   -0.2751   -0.0370 H   0  0  0  0  0  0  0  0  0  0  0  0
    4.6121    1.6015    0.7624 H   0  0  0  0  0  0  0  0  0  0  0  0
  1  2  1  0
  2  3  1  0
  2  4  1  0
  4  5  1  0
  4  6  1  0
  6  7  1  0
  7  8  2  0
  7  9  1  0
  9 10  1  0
 10 11  1  0
 11 12  1  0
 12 13  1  0
  1 14  1  0
  1 15  1  0
  1 16  1  0
  2 17  1  1
  3 18  1  0
  4 19  1  6
  5 20  1  0
  5 21  1  0
  5 22  1  0
  6 23  1  0
  9 24  1  0
  9 25  1  0
 11 26  1  0
 11 27  1  0
 12 28  1  0
 12 29  1  0
 13 30  1  0
M  END
$$$$

     RDKit          3D

 30 29  0  0  0  0  0  0  0  0999 V2000
   -2.4874    0.9617    2.1764 C   0  0  0  0  0  0  0  0  0  0  0  0
   -3.0705    0.3430    0.9148 C   0  0  2  0  0  0  0  0  0  0  0  0
   -3.6726   -0.8911    1.1767 O   0  0  0  0  0  0  0  0  0  0  0  0
   -2.0335    0.2512   -0.1802 C   0  0  2  0  0  0  0  0  0  0  0  0
   -2.7515   -0.2934   -1.4119 C   0  0  0  0  0  0  0  0  0  0  0  0
   -0.9685   -0.6502    0.1252 N   0  0  0  0  0  0  0  0  0  0  0  0
    0.3895   -0.1668    0.0864 C   0  0  0  0  0  0  0  0  0  0  0  0
    0.5189    1.0424   -0.2224 O   0  0  0  0  0  0  0  0  0  0  0  0
    1.5255   -1.0675    0.3962 C   0  0  0  0  0  0  0  0  0  0  0  0
    2.7287   -0.4580    0.2516 O   0  0  0  0  0  0  0  0  0  0  0  0
    3.0842   -0.0234   -0.9954 C   0  0  0  0  0  0  0  0  0  0  0  0
    4.4805    0.6102   -0.8565 C   0  0  0  0  0  0  0  0  0  0  0  0
    4.9061    1.0782   -2.1041 O   0  0  0  0  0  0  0  0  0  0  0  0
   -1.4401    0.5780    2.3492 H   0  0  0  0  0  0  0  0  0  0  0  0
   -3.0541    0.6555    3.0794 H   0  0  0  0  0  0  0  0  0  0  0  0
   -2.5060    2.0685    2.1492 H   0  0  0  0  0  0  0  0  0  0  0  0
   -3.8845    1.0150    0.5726 H   0  0  0  0  0  0  0  0  0  0  0  0
   -3.7924   -1.0533    2.1498 H   0  0  0  0  0  0  0  0  0  0  0  0
   -1.7159    1.2648   -0.4257 H   0  0  0  0  0  0  0  0  0  0  0  0
   -3.3313   -1.1977   -1.0844 H   0  0  0  0  0  0  0  0  0  0  0  0
   -1.9701   -0.6490   -2.0991 H   0  0  0  0  0  0  0  0  0  0  0  0
   -3.4125    0.4810   -1.8287 H   0  0  0  0  0  0  0  0  0  0  0  0
   -1.1042   -1.6515    0.3790 H   0  0  0  0  0  0  0  0  0  0  0  0
    1.4514   -1.9043   -0.3526 H   0  0  0  0  0  0  0  0  0  0  0  0
    1.3903   -1.5770    1.3769 H   0  0  0  0  0  0  0  0  0  0  0  0
    2.3936    0.7223   -1.4160 H   0  0  0  0  0  0  0  0  0  0  0  0
    3.1244   -0.8469   -1.7449 H   0  0  0  0  0  0  0  0  0  0  0  0
    5.1609   -0.1422   -0.4300 H   0  0  0  0  0  0  0  0  0  0  0  0
    4.4043    1.4373   -0.1255 H   0  0  0  0  0  0  0  0  0  0  0  0
    5.6367    1.7315   -1.9061 H   0  0  0  0  0  0  0  0  0  0  0  0
  1  2  1  0
  2  3  1  0
  2  4  1  0
  4  5  1  0
  4  6  1  0
  6  7  1  0
  7  8  2  0
  7  9  1  0
  9 10  1  0
 10 11  1  0
 11 12  1  0
 12 13  1  0
  1 14  1  0
  1 15  1  0
  1 16  1  0
  2 17  1  6
  3 18  1  0
  4 19  1  6
  5 20  1  0
  5 21  1  0
  5 22  1  0
  6 23  1  0
  9 24  1  0
  9 25  1  0
 11 26  1  0
 11 27  1  0
 12 28  1  0
 12 29  1  0
 13 30  1  0
M  END
$$$$

     RDKit          3D

 30 29  0  0  0  0  0  0  0  0999 V2000
   -2.9658    0.9980   -1.4943 C   0  0  0  0  0  0  0  0  0  0  0  0
   -2.9639   -0.4556   -1.0367 C   0  0  2  0  0  0  0  0  0  0  0  0
   -4.2282   -0.9983   -1.0549 O   0  0  0  0  0  0  0  0  0  0  0  0
   -2.3301   -0.5132    0.3539 C   0  0  2  0  0  0  0  0  0  0  0  0
   -3.2007    0.1353    1.3805 C   0  0  0  0  0  0  0  0  0  0  0  0
   -1.0228    0.0807    0.2357 N   0  0  0  0  0  0  0  0  0  0  0  0
    0.1887   -0.6364    0.4383 C   0  0  0  0  0  0  0  0  0  0  0  0
    0.1158   -1.8505    0.7358 O   0  0  0  0  0  0  0  0  0  0  0  0
    1.4548    0.1087    0.2820 C   0  0  0  0  0  0  0  0  0  0  0  0
    2.5774   -0.6561    0.4944 O   0  0  0  0  0  0  0  0  0  0  0  0
    3.6898    0.1662    0.3156 C   0  0  0  0  0  0  0  0  0  0  0  0
    4.9931   -0.5924    0.5302 C   0  0  0  0  0  0  0  0  0  0  0  0
    6.0182    0.3535    0.3188 O   0  0  0  0  0  0  0  0  0  0  0  0
   -2.8681    1.6837   -0.6211 H   0  0  0  0  0  0  0  0  0  0  0  0
   -2.1277    1.2218   -2.1711 H   0  0  0  0  0  0  0  0  0  0  0  0
   -3.9042    1.1797   -2.0692 H   0  0  0  0  0  0  0  0  0  0  0  0
   -2.2548   -0.9844   -1.7078 H   0  0  0  0  0  0  0  0  0  0  0  0
   -4.9095   -0.2923   -0.9314 H   0  0  0  0  0  0  0  0  0  0  0  0
   -2.1879   -1.5793    0.6197 H   0  0  0  0  0  0  0  0  0  0  0  0
   -3.4306   -0.5629    2.2116 H   0  0  0  0  0  0  0  0  0  0  0  0
   -2.8144    1.1088    1.7399 H   0  0  0  0  0  0  0  0  0  0  0  0
   -4.1844    0.3558    0.8950 H   0  0  0  0  0  0  0  0  0  0  0  0
   -0.9984    1.0948   -0.0135 H   0  0  0  0  0  0  0  0  0  0  0  0
    1.4633    0.5921   -0.6986 H   0  0  0  0  0  0  0  0  0  0  0  0
    1.4554    0.9184    1.0673 H   0  0  0  0  0  0  0  0  0  0  0  0
    3.7079    0.9936    1.0849 H   0  0  0  0  0  0  0  0  0  0  0  0
    3.6891    0.6913   -0.6605 H   0  0  0  0  0  0  0  0  0  0  0  0
    5.0671   -1.4510   -0.1344 H   0  0  0  0  0  0  0  0  0  0  0  0
    5.1064   -0.9133    1.5819 H   0  0  0  0  0  0  0  0  0  0  0  0
    6.8646   -0.1968    0.3200 H   0  0  0  0  0  0  0  0  0  0  0  0
  1  2  1  0
  2  3  1  0
  2  4  1  0
  4  5  1  0
  4  6  1  0
  6  7  1  0
  7  8  2  0
  7  9  1  0
  9 10  1  0
 10 11  1  0
 11 12  1  0
 12 13  1  0
  1 14  1  0
  1 15  1  0
  1 16  1  0
  2 17  1  6
  3 18  1  0
  4 19  1  1
  5 20  1  0
  5 21  1  0
  5 22  1  0
  6 23  1  0
  9 24  1  0
  9 25  1  0
 11 26  1  0
 11 27  1  0
 12 28  1  0
 12 29  1  0
 13 30  1  0
M  END
$$$$

     RDKit          3D

 30 29  0  0  0  0  0  0  0  0999 V2000
   -3.0869   -1.6380    0.3890 C   0  0  0  0  0  0  0  0  0  0  0  0
   -3.1141   -0.1608    0.0885 C   0  0  2  0  0  0  0  0  0  0  0  0
   -3.5532    0.0619   -1.2117 O   0  0  0  0  0  0  0  0  0  0  0  0
   -1.8021    0.5143    0.3641 C   0  0  2  0  0  0  0  0  0  0  0  0
   -2.0108    2.0074    0.1150 C   0  0  0  0  0  0  0  0  0  0  0  0
   -0.7338    0.0867   -0.4783 N   0  0  0  0  0  0  0  0  0  0  0  0
    0.5140   -0.4298    0.0342 C   0  0  0  0  0  0  0  0  0  0  0  0
    0.5606   -0.4633    1.2911 O   0  0  0  0  0  0  0  0  0  0  0  0
    1.6014   -0.8647   -0.8397 C   0  0  0  0  0  0  0  0  0  0  0  0
    2.7410   -1.3053   -0.2521 O   0  0  0  0  0  0  0  0  0  0  0  0
    3.4110   -0.3838    0.5349 C   0  0  0  0  0  0  0  0  0  0  0  0
    3.8348    0.8542   -0.2359 C   0  0  0  0  0  0  0  0  0  0  0  0
    4.6793    0.4679   -1.2649 O   0  0  0  0  0  0  0  0  0  0  0  0
   -2.9518   -1.8120    1.4748 H   0  0  0  0  0  0  0  0  0  0  0  0
   -4.0999   -2.0347    0.1436 H   0  0  0  0  0  0  0  0  0  0  0  0
   -2.3487   -2.1861   -0.2251 H   0  0  0  0  0  0  0  0  0  0  0  0
   -3.8737    0.2899    0.7612 H   0  0  0  0  0  0  0  0  0  0  0  0
   -4.1969   -0.6042   -1.5226 H   0  0  0  0  0  0  0  0  0  0  0  0
   -1.5918    0.4157    1.4435 H   0  0  0  0  0  0  0  0  0  0  0  0
   -2.7053    2.1904   -0.7282 H   0  0  0  0  0  0  0  0  0  0  0  0
   -2.3377    2.5070    1.0390 H   0  0  0  0  0  0  0  0  0  0  0  0
   -1.0127    2.4404   -0.1695 H   0  0  0  0  0  0  0  0  0  0  0  0
   -0.8113    0.1303   -1.5157 H   0  0  0  0  0  0  0  0  0  0  0  0
    1.8782    0.0358   -1.4668 H   0  0  0  0  0  0  0  0  0  0  0  0
    1.2854   -1.6148   -1.5995 H   0  0  0  0  0  0  0  0  0  0  0  0
    4.3521   -0.8773    0.8793 H   0  0  0  0  0  0  0  0  0  0  0  0
    2.8158   -0.1395    1.4232 H   0  0  0  0  0  0  0  0  0  0  0  0
    2.9875    1.4773   -0.5607 H   0  0  0  0  0  0  0  0  0  0  0  0
    4.4837    1.4324    0.4828 H   0  0  0  0  0  0  0  0  0  0  0  0
    5.0858   -0.3976   -1.0260 H   0  0  0  0  0  0  0  0  0  0  0  0
  1  2  1  0
  2  3  1  0
  2  4  1  0
  4  5  1  0
  4  6  1  0
  6  7  1  0
  7  8  2  0
  7  9  1  0
  9 10  1  0
 10 11  1  0
 11 12  1  0
 12 13  1  0
  1 14  1  0
  1 15  1  0
  1 16  1  0
  2 17  1  1
  3 18  1  0
  4 19  1  1
  5 20  1  0
  5 21  1  0
  5 22  1  0
  6 23  1  0
  9 24  1  0
  9 25  1  0
 11 26  1  0
 11 27  1  0
 12 28  1  0
 12 29  1  0
 13 30  1  0
M  END
$$$$

     RDKit          3D

 30 29  0  0  0  0  0  0  0  0999 V2000
   -4.3882    0.1902   -0.1550 C   0  0  0  0  0  0  0  0  0  0  0  0
   -2.9824    0.7404    0.0894 C   0  0  2  0  0  0  0  0  0  0  0  0
   -2.6356    1.6539   -0.8989 O   0  0  0  0  0  0  0  0  0  0  0  0
   -2.0568   -0.4349    0.1471 C   0  0  2  0  0  0  0  0  0  0  0  0
   -2.5943   -1.3799    1.2171 C   0  0  0  0  0  0  0  0  0  0  0  0
   -0.6893   -0.0614    0.4190 N   0  0  0  0  0  0  0  0  0  0  0  0
    0.3941   -0.3902   -0.4399 C   0  0  0  0  0  0  0  0  0  0  0  0
    0.1399   -1.0364   -1.4826 O   0  0  0  0  0  0  0  0  0  0  0  0
    1.8000   -0.0135   -0.1728 C   0  0  0  0  0  0  0  0  0  0  0  0
    2.5891   -0.4761   -1.1820 O   0  0  0  0  0  0  0  0  0  0  0  0
    3.9262   -0.2018   -1.0723 C   0  0  0  0  0  0  0  0  0  0  0  0
    4.5679   -0.7745    0.1667 C   0  0  0  0  0  0  0  0  0  0  0  0
    5.9283   -0.3984    0.1148 O   0  0  0  0  0  0  0  0  0  0  0  0
   -4.9070   -0.0087    0.8038 H   0  0  0  0  0  0  0  0  0  0  0  0
   -4.3446   -0.7495   -0.7206 H   0  0  0  0  0  0  0  0  0  0  0  0
   -4.9640    0.9099   -0.7697 H   0  0  0  0  0  0  0  0  0  0  0  0
   -2.9474    1.2462    1.0800 H   0  0  0  0  0  0  0  0  0  0  0  0
   -3.1901    2.4785   -0.7234 H   0  0  0  0  0  0  0  0  0  0  0  0
   -2.1094   -1.0002   -0.8104 H   0  0  0  0  0  0  0  0  0  0  0  0
   -3.5643   -1.7828    0.8567 H   0  0  0  0  0  0  0  0  0  0  0  0
   -1.9079   -2.2426    1.3633 H   0  0  0  0  0  0  0  0  0  0  0  0
   -2.7934   -0.8491    2.1725 H   0  0  0  0  0  0  0  0  0  0  0  0
   -0.4659    0.4761    1.2833 H   0  0  0  0  0  0  0  0  0  0  0  0
    2.0499   -0.4379    0.8289 H   0  0  0  0  0  0  0  0  0  0  0  0
    1.8623    1.1084   -0.0479 H   0  0  0  0  0  0  0  0  0  0  0  0
    4.4388   -0.6810   -1.9429 H   0  0  0  0  0  0  0  0  0  0  0  0
    4.1866    0.8712   -1.1264 H   0  0  0  0  0  0  0  0  0  0  0  0
    4.1716   -0.3330    1.0975 H   0  0  0  0  0  0  0  0  0  0  0  0
    4.5452   -1.8846    0.1756 H   0  0  0  0  0  0  0  0  0  0  0  0
    5.9407    0.5169   -0.2715 H   0  0  0  0  0  0  0  0  0  0  0  0
  1  2  1  0
  2  3  1  0
  2  4  1  0
  4  5  1  0
  4  6  1  0
  6  7  1  0
  7  8  2  0
  7  9  1  0
  9 10  1  0
 10 11  1  0
 11 12  1  0
 12 13  1  0
  1 14  1  0
  1 15  1  0
  1 16  1  0
  2 17  1  1
  3 18  1  0
  4 19  1  6
  5 20  1  0
  5 21  1  0
  5 22  1  0
  6 23  1  0
  9 24  1  0
  9 25  1  0
 11 26  1  0
 11 27  1  0
 12 28  1  0
 12 29  1  0
 13 30  1  0
M  END
$$$$

     RDKit          3D

 30 29  0  0  0  0  0  0  0  0999 V2000
   -2.5027    1.6785   -0.9563 C   0  0  0  0  0  0  0  0  0  0  0  0
   -2.8482    0.2905   -0.4527 C   0  0  2  0  0  0  0  0  0  0  0  0
   -4.2208    0.3014   -0.2001 O   0  0  0  0  0  0  0  0  0  0  0  0
   -2.0798   -0.0551    0.8024 C   0  0  2  0  0  0  0  0  0  0  0  0
   -2.5025    0.7866    1.9777 C   0  0  0  0  0  0  0  0  0  0  0  0
   -0.6577   -0.0788    0.5941 N   0  0  0  0  0  0  0  0  0  0  0  0
    0.1344   -1.2574    0.7106 C   0  0  0  0  0  0  0  0  0  0  0  0
   -0.4308   -2.3281    1.0089 O   0  0  0  0  0  0  0  0  0  0  0  0
    1.6129   -1.2505    0.4877 C   0  0  0  0  0  0  0  0  0  0  0  0
    1.9865    0.0358    0.1750 O   0  0  0  0  0  0  0  0  0  0  0  0
    3.3312    0.1902   -0.0573 C   0  0  0  0  0  0  0  0  0  0  0  0
    3.8449   -0.6494   -1.2033 C   0  0  0  0  0  0  0  0  0  0  0  0
    5.2217   -0.3853   -1.3165 O   0  0  0  0  0  0  0  0  0  0  0  0
   -1.4113    1.8430   -1.0221 H   0  0  0  0  0  0  0  0  0  0  0  0
   -2.8879    1.7262   -2.0101 H   0  0  0  0  0  0  0  0  0  0  0  0
   -2.9831    2.4249   -0.3226 H   0  0  0  0  0  0  0  0  0  0  0  0
   -2.6870   -0.4799   -1.2341 H   0  0  0  0  0  0  0  0  0  0  0  0
   -4.5550   -0.6295   -0.2380 H   0  0  0  0  0  0  0  0  0  0  0  0
   -2.3776   -1.1103    1.0571 H   0  0  0  0  0  0  0  0  0  0  0  0
   -1.7042    0.6634    2.7630 H   0  0  0  0  0  0  0  0  0  0  0  0
   -2.6012    1.8602    1.7208 H   0  0  0  0  0  0  0  0  0  0  0  0
   -3.4675    0.3835    2.3461 H   0  0  0  0  0  0  0  0  0  0  0  0
   -0.1343    0.7909    0.3421 H   0  0  0  0  0  0  0  0  0  0  0  0
    1.8076   -1.9670   -0.3414 H   0  0  0  0  0  0  0  0  0  0  0  0
    2.1249   -1.6327    1.4025 H   0  0  0  0  0  0  0  0  0  0  0  0
    3.4916    1.2596   -0.3548 H   0  0  0  0  0  0  0  0  0  0  0  0
    3.9391   -0.0564    0.8366 H   0  0  0  0  0  0  0  0  0  0  0  0
    3.7334   -1.7265   -1.0009 H   0  0  0  0  0  0  0  0  0  0  0  0
    3.3334   -0.3638   -2.1595 H   0  0  0  0  0  0  0  0  0  0  0  0
    5.4900   -0.2639   -2.2606 H   0  0  0  0  0  0  0  0  0  0  0  0
  1  2  1  0
  2  3  1  0
  2  4  1  0
  4  5  1  0
  4  6  1  0
  6  7  1  0
  7  8  2  0
  7  9  1  0
  9 10  1  0
 10 11  1  0
 11 12  1  0
 12 13  1  0
  1 14  1  0
  1 15  1  0
  1 16  1  0
  2 17  1  6
  3 18  1  0
  4 19  1  1
  5 20  1  0
  5 21  1  0
  5 22  1  0
  6 23  1  0
  9 24  1  0
  9 25  1  0
 11 26  1  0
 11 27  1  0
 12 28  1  0
 12 29  1  0
 13 30  1  0
M  END
$$$$

     RDKit          3D

 30 29  0  0  0  0  0  0  0  0999 V2000
   -2.6507    1.5886    0.6116 C   0  0  0  0  0  0  0  0  0  0  0  0
   -3.1932    0.2700    0.1069 C   0  0  2  0  0  0  0  0  0  0  0  0
   -3.3766   -0.6476    1.1540 O   0  0  0  0  0  0  0  0  0  0  0  0
   -2.2526   -0.3135   -0.9306 C   0  0  2  0  0  0  0  0  0  0  0  0
   -2.7978   -1.6002   -1.4907 C   0  0  0  0  0  0  0  0  0  0  0  0
   -0.9471   -0.6167   -0.3505 N   0  0  0  0  0  0  0  0  0  0  0  0
    0.2404   -0.0071   -0.8095 C   0  0  0  0  0  0  0  0  0  0  0  0
    0.1385    0.8177   -1.7475 O   0  0  0  0  0  0  0  0  0  0  0  0
    1.5825   -0.3194   -0.2124 C   0  0  0  0  0  0  0  0  0  0  0  0
    2.5432    0.4286   -0.8682 O   0  0  0  0  0  0  0  0  0  0  0  0
    3.7889    0.1634   -0.3934 C   0  0  0  0  0  0  0  0  0  0  0  0
    3.9390    0.4775    1.0515 C   0  0  0  0  0  0  0  0  0  0  0  0
    5.2508    0.1976    1.5087 O   0  0  0  0  0  0  0  0  0  0  0  0
   -2.2116    2.1227   -0.2552 H   0  0  0  0  0  0  0  0  0  0  0  0
   -3.5011    2.1788    1.0033 H   0  0  0  0  0  0  0  0  0  0  0  0
   -1.8855    1.3905    1.3822 H   0  0  0  0  0  0  0  0  0  0  0  0
   -4.1604    0.4235   -0.3916 H   0  0  0  0  0  0  0  0  0  0  0  0
   -3.4026   -0.1560    2.0136 H   0  0  0  0  0  0  0  0  0  0  0  0
   -2.1682    0.4305   -1.7437 H   0  0  0  0  0  0  0  0  0  0  0  0
   -2.3923   -2.4940   -0.9488 H   0  0  0  0  0  0  0  0  0  0  0  0
   -3.8947   -1.6695   -1.4138 H   0  0  0  0  0  0  0  0  0  0  0  0
   -2.4858   -1.7496   -2.5555 H   0  0  0  0  0  0  0  0  0  0  0  0
   -0.9059   -1.3029    0.4217 H   0  0  0  0  0  0  0  0  0  0  0  0
    1.4789   -0.0794    0.8700 H   0  0  0  0  0  0  0  0  0  0  0  0
    1.8356   -1.3731   -0.3087 H   0  0  0  0  0  0  0  0  0  0  0  0
    3.9881   -0.9404   -0.5579 H   0  0  0  0  0  0  0  0  0  0  0  0
    4.5982    0.6509   -0.9987 H   0  0  0  0  0  0  0  0  0  0  0  0
    3.2667   -0.1754    1.6661 H   0  0  0  0  0  0  0  0  0  0  0  0
    3.7404    1.5191    1.2908 H   0  0  0  0  0  0  0  0  0  0  0  0
    5.8349    0.7856    0.9547 H   0  0  0  0  0  0  0  0  0  0  0  0
  1  2  1  0
  2  3  1  0
  2  4  1  0
  4  5  1  0
  4  6  1  0
  6  7  1  0
  7  8  2  0
  7  9  1  0
  9 10  1  0
 10 11  1  0
 11 12  1  0
 12 13  1  0
  1 14  1  0
  1 15  1  0
  1 16  1  0
  2 17  1  6
  3 18  1  0
  4 19  1  6
  5 20  1  0
  5 21  1  0
  5 22  1  0
  6 23  1  0
  9 24  1  0
  9 25  1  0
 11 26  1  0
 11 27  1  0
 12 28  1  0
 12 29  1  0
 13 30  1  0
M  END
$$$$
