
     RDKit          3D

 28 27  0  0  0  0  0  0  0  0999 V2000
   -2.7733    0.2735    0.7064 C   0  0  0  0  0  0  0  0  0  0  0  0
   -1.9736   -0.8945    0.2195 C   0  0  1  0  0  0  0  0  0  0  0  0
   -2.2863   -1.1881   -1.2474 C   0  0  0  0  0  0  0  0  0  0  0  0
   -1.9921   -0.0150   -1.9742 O   0  0  0  0  0  0  0  0  0  0  0  0
   -0.5753   -0.5524    0.3129 N   0  0  0  0  0  0  0  0  0  0  0  0
    0.3338   -1.3531    1.0474 C   0  0  0  0  0  0  0  0  0  0  0  0
   -0.0602   -2.3900    1.6406 O   0  0  0  0  0  0  0  0  0  0  0  0
    1.7821   -0.9712    1.1260 C   0  0  0  0  0  0  0  0  0  0  0  0
    1.9953    0.2463    0.3727 N   0  0  0  0  0  0  0  0  0  0  0  0
    1.8609    1.5135    1.0509 C   0  0  0  0  0  0  0  0  0  0  0  0
    2.3304    0.2269   -1.0032 C   0  0  0  0  0  0  0  0  0  0  0  0
    2.5384    1.4203   -1.7374 N   0  0  0  0  0  0  0  0  0  0  0  0
    2.4407   -0.8909   -1.5674 O   0  0  0  0  0  0  0  0  0  0  0  0
   -3.6743    0.4542    0.0781 H   0  0  0  0  0  0  0  0  0  0  0  0
   -2.1758    1.1949    0.7445 H   0  0  0  0  0  0  0  0  0  0  0  0
   -3.0906    0.0365    1.7550 H   0  0  0  0  0  0  0  0  0  0  0  0
   -2.1647   -1.8198    0.7854 H   0  0  0  0  0  0  0  0  0  0  0  0
   -3.3383   -1.4631   -1.4030 H   0  0  0  0  0  0  0  0  0  0  0  0
   -1.6549   -2.0151   -1.6191 H   0  0  0  0  0  0  0  0  0  0  0  0
   -2.5336    0.7400   -1.6352 H   0  0  0  0  0  0  0  0  0  0  0  0
   -0.2105    0.3054   -0.1690 H   0  0  0  0  0  0  0  0  0  0  0  0
    2.0222   -0.7736    2.1830 H   0  0  0  0  0  0  0  0  0  0  0  0
    2.4002   -1.7909    0.6943 H   0  0  0  0  0  0  0  0  0  0  0  0
    1.6330    2.2867    0.3036 H   0  0  0  0  0  0  0  0  0  0  0  0
    1.1066    1.4885    1.8656 H   0  0  0  0  0  0  0  0  0  0  0  0
    2.8372    1.7676    1.5311 H   0  0  0  0  0  0  0  0  0  0  0  0
    3.2390    2.1465   -1.4605 H   0  0  0  0  0  0  0  0  0  0  0  0
    1.9836    1.6163   -2.6007 H   0  0  0  0  0  0  0  0  0  0  0  0
  1  2  1  0
  2  3  1  0
  3  4  1  0
  2  5  1  0
  5  6  1  0
  6  7  2  0
  6  8  1  0
  8  9  1  0
  9 10  1  0
  9 11  1  0
 11 12  1  0
 11 13  2  0
  1 14  1  0
  1 15  1  0
  1 16  1  0
  2 17  1  1
  3 18  1  0
  3 19  1  0
  4 20  1  0
  5 21  1  0
  8 22  1  0
  8 23  1  0
 10 24  1  0
 10 25  1  0
 10 26  1  0
 12 27  1  0
 12 28  1  0
M  END
$$$$

     RDKit          3D

 28 27  0  0  0  0  0  0  0  0999 V2000
   -2.8857   -0.0722   -0.8810 C   0  0  0  0  0  0  0  0  0  0  0  0
   -2.0505    0.7135    0.0701 C   0  0  1  0  0  0  0  0  0  0  0  0
   -2.4584    0.5117    1.5136 C   0  0  0  0  0  0  0  0  0  0  0  0
   -1.7793    1.3887    2.3566 O   0  0  0  0  0  0  0  0  0  0  0  0
   -0.6272    0.4763   -0.0646 N   0  0  0  0  0  0  0  0  0  0  0  0
    0.2868    1.4998   -0.4206 C   0  0  0  0  0  0  0  0  0  0  0  0
   -0.1012    2.6740   -0.6382 O   0  0  0  0  0  0  0  0  0  0  0  0
    1.7279    1.2035   -0.5442 C   0  0  0  0  0  0  0  0  0  0  0  0
    2.0384   -0.1737   -0.2695 N   0  0  0  0  0  0  0  0  0  0  0  0
    2.3518   -0.5671    1.0798 C   0  0  0  0  0  0  0  0  0  0  0  0
    2.0367   -1.1258   -1.3043 C   0  0  0  0  0  0  0  0  0  0  0  0
    2.3413   -2.4760   -1.0335 N   0  0  0  0  0  0  0  0  0  0  0  0
    1.7615   -0.7678   -2.4758 O   0  0  0  0  0  0  0  0  0  0  0  0
   -3.4581    0.5378   -1.5952 H   0  0  0  0  0  0  0  0  0  0  0  0
   -2.2397   -0.7952   -1.4610 H   0  0  0  0  0  0  0  0  0  0  0  0
   -3.6408   -0.7228   -0.3537 H   0  0  0  0  0  0  0  0  0  0  0  0
   -2.2250    1.8025   -0.1560 H   0  0  0  0  0  0  0  0  0  0  0  0
   -3.5558    0.5728    1.6376 H   0  0  0  0  0  0  0  0  0  0  0  0
   -2.1825   -0.5433    1.7849 H   0  0  0  0  0  0  0  0  0  0  0  0
   -1.6752    0.9158    3.2227 H   0  0  0  0  0  0  0  0  0  0  0  0
   -0.2904   -0.4948    0.1131 H   0  0  0  0  0  0  0  0  0  0  0  0
    2.3369    1.8227    0.1391 H   0  0  0  0  0  0  0  0  0  0  0  0
    2.0488    1.4527   -1.5740 H   0  0  0  0  0  0  0  0  0  0  0  0
    3.1693    0.1075    1.4291 H   0  0  0  0  0  0  0  0  0  0  0  0
    1.4841   -0.3732    1.7240 H   0  0  0  0  0  0  0  0  0  0  0  0
    2.6898   -1.6220    1.1453 H   0  0  0  0  0  0  0  0  0  0  0  0
    1.9153   -2.9397   -0.2059 H   0  0  0  0  0  0  0  0  0  0  0  0
    2.9810   -3.0053   -1.6478 H   0  0  0  0  0  0  0  0  0  0  0  0
  1  2  1  0
  2  3  1  0
  3  4  1  0
  2  5  1  0
  5  6  1  0
  6  7  2  0
  6  8  1  0
  8  9  1  0
  9 10  1  0
  9 11  1  0
 11 12  1  0
 11 13  2  0
  1 14  1  0
  1 15  1  0
  1 16  1  0
  2 17  1  6
  3 18  1  0
  3 19  1  0
  4 20  1  0
  5 21  1  0
  8 22  1  0
  8 23  1  0
 10 24  1  0
 10 25  1  0
 10 26  1  0
 12 27  1  0
 12 28  1  0
M  END
$$$$

     RDKit          3D

 28 27  0  0  0  0  0  0  0  0999 V2000
   -3.4149   -0.7038   -1.0806 C   0  0  0  0  0  0  0  0  0  0  0  0
   -2.4433    0.1173   -0.3279 C   0  0  1  0  0  0  0  0  0  0  0  0
   -3.1897    0.8529    0.7844 C   0  0  0  0  0  0  0  0  0  0  0  0
   -2.3902    1.8106    1.3889 O   0  0  0  0  0  0  0  0  0  0  0  0
   -1.3213   -0.5144    0.2279 N   0  0  0  0  0  0  0  0  0  0  0  0
    0.0416   -0.2157   -0.0234 C   0  0  0  0  0  0  0  0  0  0  0  0
    0.2874    0.7007   -0.8182 O   0  0  0  0  0  0  0  0  0  0  0  0
    1.1438   -0.9464    0.6183 C   0  0  0  0  0  0  0  0  0  0  0  0
    2.4077   -0.4242    0.1722 N   0  0  0  0  0  0  0  0  0  0  0  0
    3.0323   -1.0140   -1.0189 C   0  0  0  0  0  0  0  0  0  0  0  0
    3.0510    0.6331    0.8515 C   0  0  0  0  0  0  0  0  0  0  0  0
    4.2873    1.1265    0.3953 N   0  0  0  0  0  0  0  0  0  0  0  0
    2.5378    1.1458    1.8624 O   0  0  0  0  0  0  0  0  0  0  0  0
   -3.6949   -1.6581   -0.6429 H   0  0  0  0  0  0  0  0  0  0  0  0
   -4.3568   -0.1134   -1.1749 H   0  0  0  0  0  0  0  0  0  0  0  0
   -3.0376   -0.8013   -2.1380 H   0  0  0  0  0  0  0  0  0  0  0  0
   -2.0771    0.9240   -1.0265 H   0  0  0  0  0  0  0  0  0  0  0  0
   -4.1059    1.3357    0.3691 H   0  0  0  0  0  0  0  0  0  0  0  0
   -3.5345    0.1565    1.5693 H   0  0  0  0  0  0  0  0  0  0  0  0
   -2.9098    2.6569    1.4821 H   0  0  0  0  0  0  0  0  0  0  0  0
   -1.5021   -1.3023    0.9114 H   0  0  0  0  0  0  0  0  0  0  0  0
    1.1243   -0.8670    1.7216 H   0  0  0  0  0  0  0  0  0  0  0  0
    1.0571   -2.0399    0.3938 H   0  0  0  0  0  0  0  0  0  0  0  0
    2.4509   -0.7572   -1.9208 H   0  0  0  0  0  0  0  0  0  0  0  0
    3.0344   -2.1103   -0.8434 H   0  0  0  0  0  0  0  0  0  0  0  0
    4.0692   -0.6488   -1.0889 H   0  0  0  0  0  0  0  0  0  0  0  0
    5.1831    0.7467    0.7200 H   0  0  0  0  0  0  0  0  0  0  0  0
    4.2702    1.9100   -0.3008 H   0  0  0  0  0  0  0  0  0  0  0  0
  1  2  1  0
  2  3  1  0
  3  4  1  0
  2  5  1  0
  5  6  1  0
  6  7  2  0
  6  8  1  0
  8  9  1  0
  9 10  1  0
  9 11  1  0
 11 12  1  0
 11 13  2  0
  1 14  1  0
  1 15  1  0
  1 16  1  0
  2 17  1  6
  3 18  1  0
  3 19  1  0
  4 20  1  0
  5 21  1  0
  8 22  1  0
  8 23  1  0
 10 24  1  0
 10 25  1  0
 10 26  1  0
 12 27  1  0
 12 28  1  0
M  END
$$$$

     RDKit          3D

 28 27  0  0  0  0  0  0  0  0999 V2000
   -3.0905    1.1661   -0.1180 C   0  0  0  0  0  0  0  0  0  0  0  0
   -2.3107   -0.1149    0.0505 C   0  0  1  0  0  0  0  0  0  0  0  0
   -3.1001   -1.3340   -0.3180 C   0  0  0  0  0  0  0  0  0  0  0  0
   -3.3906   -1.4351   -1.6565 O   0  0  0  0  0  0  0  0  0  0  0  0
   -1.0273   -0.0544   -0.6223 N   0  0  0  0  0  0  0  0  0  0  0  0
    0.2152   -0.1030    0.0680 C   0  0  0  0  0  0  0  0  0  0  0  0
    0.2299   -0.2015    1.3039 O   0  0  0  0  0  0  0  0  0  0  0  0
    1.5206   -0.0393   -0.6439 C   0  0  0  0  0  0  0  0  0  0  0  0
    2.6230   -0.1084    0.2940 N   0  0  0  0  0  0  0  0  0  0  0  0
    3.2186   -1.3365    0.7001 C   0  0  0  0  0  0  0  0  0  0  0  0
    3.1173    1.1061    0.8196 C   0  0  0  0  0  0  0  0  0  0  0  0
    2.5808    2.3735    0.4674 N   0  0  0  0  0  0  0  0  0  0  0  0
    4.0697    1.0762    1.6322 O   0  0  0  0  0  0  0  0  0  0  0  0
   -2.4831    1.9848    0.3429 H   0  0  0  0  0  0  0  0  0  0  0  0
   -3.2652    1.4472   -1.1604 H   0  0  0  0  0  0  0  0  0  0  0  0
   -4.0293    1.0932    0.4276 H   0  0  0  0  0  0  0  0  0  0  0  0
   -2.0815   -0.2009    1.1459 H   0  0  0  0  0  0  0  0  0  0  0  0
   -2.5399   -2.2192    0.0539 H   0  0  0  0  0  0  0  0  0  0  0  0
   -4.0575   -1.2908    0.2352 H   0  0  0  0  0  0  0  0  0  0  0  0
   -3.3909   -2.4048   -1.9186 H   0  0  0  0  0  0  0  0  0  0  0  0
   -0.9582    0.0300   -1.6758 H   0  0  0  0  0  0  0  0  0  0  0  0
    1.5545    0.8475   -1.2821 H   0  0  0  0  0  0  0  0  0  0  0  0
    1.6163   -0.9385   -1.3096 H   0  0  0  0  0  0  0  0  0  0  0  0
    4.2108   -1.4549    0.1750 H   0  0  0  0  0  0  0  0  0  0  0  0
    3.3576   -1.3213    1.8057 H   0  0  0  0  0  0  0  0  0  0  0  0
    2.6470   -2.2403    0.4667 H   0  0  0  0  0  0  0  0  0  0  0  0
    2.5750    2.7197   -0.5222 H   0  0  0  0  0  0  0  0  0  0  0  0
    2.1883    2.9535    1.2389 H   0  0  0  0  0  0  0  0  0  0  0  0
  1  2  1  0
  2  3  1  0
  3  4  1  0
  2  5  1  0
  5  6  1  0
  6  7  2  0
  6  8  1  0
  8  9  1  0
  9 10  1  0
  9 11  1  0
 11 12  1  0
 11 13  2  0
  1 14  1  0
  1 15  1  0
  1 16  1  0
  2 17  1  1
  3 18  1  0
  3 19  1  0
  4 20  1  0
  5 21  1  0
  8 22  1  0
  8 23  1  0
 10 24  1  0
 10 25  1  0
 10 26  1  0
 12 27  1  0
 12 28  1  0
M  END
$$$$

     RDKit          3D

 28 27  0  0  0  0  0  0  0  0999 V2000
   -3.3944    0.9242    0.7785 C   0  0  0  0  0  0  0  0  0  0  0  0
   -2.4864   -0.2117    0.3316 C   0  0  1  0  0  0  0  0  0  0  0  0
   -3.2503   -0.9828   -0.7252 C   0  0  0  0  0  0  0  0  0  0  0  0
   -3.5227   -0.0668   -1.7633 O   0  0  0  0  0  0  0  0  0  0  0  0
   -1.2749    0.2846   -0.2821 N   0  0  0  0  0  0  0  0  0  0  0  0
    0.0236    0.0063    0.1563 C   0  0  0  0  0  0  0  0  0  0  0  0
    0.1853   -0.7308    1.1614 O   0  0  0  0  0  0  0  0  0  0  0  0
    1.1928    0.5575   -0.5338 C   0  0  0  0  0  0  0  0  0  0  0  0
    2.4470    0.1841    0.0312 N   0  0  0  0  0  0  0  0  0  0  0  0
    3.0053    1.0367    1.0629 C   0  0  0  0  0  0  0  0  0  0  0  0
    3.1714   -0.9802   -0.3678 C   0  0  0  0  0  0  0  0  0  0  0  0
    4.4022   -1.3035    0.2197 N   0  0  0  0  0  0  0  0  0  0  0  0
    2.7304   -1.7585   -1.2618 O   0  0  0  0  0  0  0  0  0  0  0  0
   -3.3597    1.6951    0.0017 H   0  0  0  0  0  0  0  0  0  0  0  0
   -4.4332    0.5081    0.7783 H   0  0  0  0  0  0  0  0  0  0  0  0
   -3.1302    1.2879    1.7871 H   0  0  0  0  0  0  0  0  0  0  0  0
   -2.3153   -0.8468    1.1993 H   0  0  0  0  0  0  0  0  0  0  0  0
   -4.2538   -1.3112   -0.3530 H   0  0  0  0  0  0  0  0  0  0  0  0
   -2.6644   -1.8115   -1.1527 H   0  0  0  0  0  0  0  0  0  0  0  0
   -3.0802   -0.3423   -2.6104 H   0  0  0  0  0  0  0  0  0  0  0  0
   -1.3981    0.9005   -1.1214 H   0  0  0  0  0  0  0  0  0  0  0  0
    1.2068    0.2783   -1.6121 H   0  0  0  0  0  0  0  0  0  0  0  0
    1.1055    1.6666   -0.5053 H   0  0  0  0  0  0  0  0  0  0  0  0
    2.3142    1.0719    1.9198 H   0  0  0  0  0  0  0  0  0  0  0  0
    3.0205    2.0744    0.6175 H   0  0  0  0  0  0  0  0  0  0  0  0
    4.0256    0.7187    1.3726 H   0  0  0  0  0  0  0  0  0  0  0  0
    5.2584   -1.3425   -0.3600 H   0  0  0  0  0  0  0  0  0  0  0  0
    4.4747   -1.5062    1.2308 H   0  0  0  0  0  0  0  0  0  0  0  0
  1  2  1  0
  2  3  1  0
  3  4  1  0
  2  5  1  0
  5  6  1  0
  6  7  2  0
  6  8  1  0
  8  9  1  0
  9 10  1  0
  9 11  1  0
 11 12  1  0
 11 13  2  0
  1 14  1  0
  1 15  1  0
  1 16  1  0
  2 17  1  1
  3 18  1  0
  3 19  1  0
  4 20  1  0
  5 21  1  0
  8 22  1  0
  8 23  1  0
 10 24  1  0
 10 25  1  0
 10 26  1  0
 12 27  1  0
 12 28  1  0
M  END
$$$$

     RDKit          3D

 28 27  0  0  0  0  0  0  0  0999 V2000
   -2.6172    0.0814   -1.9589 C   0  0  0  0  0  0  0  0  0  0  0  0
   -2.1773    0.4491   -0.5559 C   0  0  1  0  0  0  0  0  0  0  0  0
   -3.3809    0.3349    0.3427 C   0  0  0  0  0  0  0  0  0  0  0  0
   -3.9205   -0.9267    0.3850 O   0  0  0  0  0  0  0  0  0  0  0  0
   -1.0947   -0.4195   -0.1537 N   0  0  0  0  0  0  0  0  0  0  0  0
    0.2086    0.0415    0.1752 C   0  0  0  0  0  0  0  0  0  0  0  0
    0.3997    1.2827    0.1025 O   0  0  0  0  0  0  0  0  0  0  0  0
    1.2880   -0.8881    0.5827 C   0  0  0  0  0  0  0  0  0  0  0  0
    2.5328   -0.2339    0.8748 N   0  0  0  0  0  0  0  0  0  0  0  0
    2.9176    0.2567    2.1733 C   0  0  0  0  0  0  0  0  0  0  0  0
    3.4315   -0.0683   -0.1994 C   0  0  0  0  0  0  0  0  0  0  0  0
    3.1367   -0.5191   -1.5080 N   0  0  0  0  0  0  0  0  0  0  0  0
    4.5294    0.4940   -0.0036 O   0  0  0  0  0  0  0  0  0  0  0  0
   -2.8270    0.9861   -2.5646 H   0  0  0  0  0  0  0  0  0  0  0  0
   -1.7604   -0.4377   -2.4515 H   0  0  0  0  0  0  0  0  0  0  0  0
   -3.4901   -0.5862   -1.9189 H   0  0  0  0  0  0  0  0  0  0  0  0
   -1.8852    1.5137   -0.5811 H   0  0  0  0  0  0  0  0  0  0  0  0
   -3.1359    0.6940    1.3845 H   0  0  0  0  0  0  0  0  0  0  0  0
   -4.1376    1.0514   -0.0395 H   0  0  0  0  0  0  0  0  0  0  0  0
   -4.3520   -1.1268    1.2580 H   0  0  0  0  0  0  0  0  0  0  0  0
   -1.2561   -1.4485   -0.0943 H   0  0  0  0  0  0  0  0  0  0  0  0
    0.9629   -1.4018    1.5190 H   0  0  0  0  0  0  0  0  0  0  0  0
    1.4239   -1.6294   -0.2263 H   0  0  0  0  0  0  0  0  0  0  0  0
    3.4204   -0.5786    2.7144 H   0  0  0  0  0  0  0  0  0  0  0  0
    2.0803    0.6817    2.7532 H   0  0  0  0  0  0  0  0  0  0  0  0
    3.6668    1.0674    2.0574 H   0  0  0  0  0  0  0  0  0  0  0  0
    3.2259    0.1043   -2.3468 H   0  0  0  0  0  0  0  0  0  0  0  0
    2.8105   -1.5054   -1.7204 H   0  0  0  0  0  0  0  0  0  0  0  0
  1  2  1  0
  2  3  1  0
  3  4  1  0
  2  5  1  0
  5  6  1  0
  6  7  2  0
  6  8  1  0
  8  9  1  0
  9 10  1  0
  9 11  1  0
 11 12  1  0
 11 13  2  0
  1 14  1  0
  1 15  1  0
  1 16  1  0
  2 17  1  6
  3 18  1  0
  3 19  1  0
  4 20  1  0
  5 21  1  0
  8 22  1  0
  8 23  1  0
 10 24  1  0
 10 25  1  0
 10 26  1  0
 12 27  1  0
 12 28  1  0
M  END
$$$$

     RDKit          3D

 28 27  0  0  0  0  0  0  0  0999 V2000
    3.1690   -1.1299   -1.0417 C   0  0  0  0  0  0  0  0  0  0  0  0
    2.4313   -0.5349    0.1541 C   0  0  1  0  0  0  0  0  0  0  0  0
    3.4236    0.3895    0.8408 C   0  0  0  0  0  0  0  0  0  0  0  0
    2.8168    1.0175    1.9158 O   0  0  0  0  0  0  0  0  0  0  0  0
    1.2934    0.2177   -0.3264 N   0  0  0  0  0  0  0  0  0  0  0  0
   -0.0281   -0.0859    0.0678 C   0  0  0  0  0  0  0  0  0  0  0  0
   -0.2556   -1.0355    0.8612 O   0  0  0  0  0  0  0  0  0  0  0  0
   -1.1592    0.7113   -0.4495 C   0  0  0  0  0  0  0  0  0  0  0  0
   -2.4204    0.2576    0.0592 N   0  0  0  0  0  0  0  0  0  0  0  0
   -3.1257   -0.7682   -0.7072 C   0  0  0  0  0  0  0  0  0  0  0  0
   -2.9909    0.7646    1.2589 C   0  0  0  0  0  0  0  0  0  0  0  0
   -4.2359    0.2884    1.7225 N   0  0  0  0  0  0  0  0  0  0  0  0
   -2.3529    1.6464    1.8893 O   0  0  0  0  0  0  0  0  0  0  0  0
    4.1287   -1.5329   -0.6587 H   0  0  0  0  0  0  0  0  0  0  0  0
    3.3111   -0.3146   -1.7869 H   0  0  0  0  0  0  0  0  0  0  0  0
    2.6040   -1.9258   -1.5342 H   0  0  0  0  0  0  0  0  0  0  0  0
    2.0677   -1.3128    0.8239 H   0  0  0  0  0  0  0  0  0  0  0  0
    3.8552    1.0808    0.1022 H   0  0  0  0  0  0  0  0  0  0  0  0
    4.2501   -0.2663    1.2001 H   0  0  0  0  0  0  0  0  0  0  0  0
    3.2248    1.9373    2.0038 H   0  0  0  0  0  0  0  0  0  0  0  0
    1.4324    1.0082   -0.9813 H   0  0  0  0  0  0  0  0  0  0  0  0
   -1.0954    0.6804   -1.5603 H   0  0  0  0  0  0  0  0  0  0  0  0
   -1.0116    1.7532   -0.0801 H   0  0  0  0  0  0  0  0  0  0  0  0
   -3.8827   -1.2412   -0.0668 H   0  0  0  0  0  0  0  0  0  0  0  0
   -2.4068   -1.5465   -1.0335 H   0  0  0  0  0  0  0  0  0  0  0  0
   -3.6545   -0.2922   -1.5550 H   0  0  0  0  0  0  0  0  0  0  0  0
   -4.2790   -0.4567    2.4322 H   0  0  0  0  0  0  0  0  0  0  0  0
   -5.1094    0.6905    1.3469 H   0  0  0  0  0  0  0  0  0  0  0  0
  1  2  1  0
  2  3  1  0
  3  4  1  0
  2  5  1  0
  5  6  1  0
  6  7  2  0
  6  8  1  0
  8  9  1  0
  9 10  1  0
  9 11  1  0
 11 12  1  0
 11 13  2  0
  1 14  1  0
  1 15  1  0
  1 16  1  0
  2 17  1  1
  3 18  1  0
  3 19  1  0
  4 20  1  0
  5 21  1  0
  8 22  1  0
  8 23  1  0
 10 24  1  0
 10 25  1  0
 10 26  1  0
 12 27  1  0
 12 28  1  0
M  END
$$$$

     RDKit          3D

 28 27  0  0  0  0  0  0  0  0999 V2000
    2.7376    1.1859    1.5579 C   0  0  0  0  0  0  0  0  0  0  0  0
    2.2040    0.5872    0.2743 C   0  0  1  0  0  0  0  0  0  0  0  0
    3.3088   -0.3025   -0.2878 C   0  0  0  0  0  0  0  0  0  0  0  0
    2.9176   -0.9165   -1.4764 O   0  0  0  0  0  0  0  0  0  0  0  0
    1.0490   -0.2618    0.5222 N   0  0  0  0  0  0  0  0  0  0  0  0
   -0.1855    0.0058   -0.1261 C   0  0  0  0  0  0  0  0  0  0  0  0
   -0.2419    0.9912   -0.9121 O   0  0  0  0  0  0  0  0  0  0  0  0
   -1.3533   -0.8771    0.1435 C   0  0  0  0  0  0  0  0  0  0  0  0
   -2.4766   -0.3948   -0.6320 N   0  0  0  0  0  0  0  0  0  0  0  0
   -2.6663   -0.9146   -1.9638 C   0  0  0  0  0  0  0  0  0  0  0  0
   -3.3647    0.5685   -0.0830 C   0  0  0  0  0  0  0  0  0  0  0  0
   -3.1496    1.0610    1.2335 N   0  0  0  0  0  0  0  0  0  0  0  0
   -4.3387    0.9876   -0.7538 O   0  0  0  0  0  0  0  0  0  0  0  0
    2.2999    2.2028    1.6955 H   0  0  0  0  0  0  0  0  0  0  0  0
    2.3508    0.5489    2.4031 H   0  0  0  0  0  0  0  0  0  0  0  0
    3.8263    1.2025    1.5376 H   0  0  0  0  0  0  0  0  0  0  0  0
    1.9380    1.3864   -0.4419 H   0  0  0  0  0  0  0  0  0  0  0  0
    3.6249   -1.0384    0.4540 H   0  0  0  0  0  0  0  0  0  0  0  0
    4.1782    0.3652   -0.4828 H   0  0  0  0  0  0  0  0  0  0  0  0
    3.2001   -1.8655   -1.5284 H   0  0  0  0  0  0  0  0  0  0  0  0
    1.1359   -1.0670    1.1790 H   0  0  0  0  0  0  0  0  0  0  0  0
   -1.5651   -0.8246    1.2431 H   0  0  0  0  0  0  0  0  0  0  0  0
   -1.1401   -1.9367   -0.0808 H   0  0  0  0  0  0  0  0  0  0  0  0
   -3.5546   -0.4054   -2.4193 H   0  0  0  0  0  0  0  0  0  0  0  0
   -1.7511   -0.7828   -2.6018 H   0  0  0  0  0  0  0  0  0  0  0  0
   -2.8400   -2.0173   -1.8820 H   0  0  0  0  0  0  0  0  0  0  0  0
   -3.1718    2.0933    1.3870 H   0  0  0  0  0  0  0  0  0  0  0  0
   -2.9717    0.4189    2.0414 H   0  0  0  0  0  0  0  0  0  0  0  0
  1  2  1  0
  2  3  1  0
  3  4  1  0
  2  5  1  0
  5  6  1  0
  6  7  2  0
  6  8  1  0
  8  9  1  0
  9 10  1  0
  9 11  1  0
 11 12  1  0
 11 13  2  0
  1 14  1  0
  1 15  1  0
  1 16  1  0
  2 17  1  6
  3 18  1  0
  3 19  1  0
  4 20  1  0
  5 21  1  0
  8 22  1  0
  8 23  1  0
 10 24  1  0
 10 25  1  0
 10 26  1  0
 12 27  1  0
 12 28  1  0
M  END
$$$$
