
     RDKit          3D

 31 31  0  0  0  0  0  0  0  0999 V2000
    4.6990    0.4684   -0.5495 C   0  0  0  0  0  0  0  0  0  0  0  0
    3.5279    0.5221    0.3663 C   0  0  0  0  0  0  0  0  0  0  0  0
    3.7139    0.7266    1.5955 O   0  0  0  0  0  0  0  0  0  0  0  0
    2.2264    0.3434   -0.1548 N   0  0  0  0  0  0  0  0  0  0  0  0
    1.6732    0.1001   -1.4541 C   0  0  0  0  0  0  0  0  0  0  0  0
    0.3180    0.5595   -0.8965 C   0  0  0  0  0  0  0  0  0  0  0  0
   -0.7141   -0.4884   -1.3050 C   0  0  0  0  0  0  0  0  0  0  0  0
   -2.0046   -0.1346   -0.8520 N   0  0  0  0  0  0  0  0  0  0  0  0
   -2.1795   -0.1889    0.5461 C   0  0  2  0  0  0  0  0  0  0  0  0
   -2.0353   -1.5618    1.1433 C   0  0  0  0  0  0  0  0  0  0  0  0
   -3.5074    0.4054    0.9527 C   0  0  0  0  0  0  0  0  0  0  0  0
   -3.8628    0.4448    2.2972 N   0  0  0  0  0  0  0  0  0  0  0  0
   -4.2446    0.8436    0.0597 O   0  0  0  0  0  0  0  0  0  0  0  0
    0.9086    0.3443    0.4787 C   0  0  0  0  0  0  0  0  0  0  0  0
    4.6409   -0.4970   -1.1170 H   0  0  0  0  0  0  0  0  0  0  0  0
    5.6081    0.4310    0.0637 H   0  0  0  0  0  0  0  0  0  0  0  0
    4.6971    1.3387   -1.2235 H   0  0  0  0  0  0  0  0  0  0  0  0
    1.7233   -0.9591   -1.7362 H   0  0  0  0  0  0  0  0  0  0  0  0
    2.0801    0.7926   -2.2225 H   0  0  0  0  0  0  0  0  0  0  0  0
    0.0708    1.5929   -1.1658 H   0  0  0  0  0  0  0  0  0  0  0  0
   -0.3018   -1.4490   -0.9425 H   0  0  0  0  0  0  0  0  0  0  0  0
   -0.7215   -0.5862   -2.4279 H   0  0  0  0  0  0  0  0  0  0  0  0
   -2.3042    0.7642   -1.2439 H   0  0  0  0  0  0  0  0  0  0  0  0
   -1.4325    0.4967    1.0351 H   0  0  0  0  0  0  0  0  0  0  0  0
   -1.7106   -1.5134    2.2121 H   0  0  0  0  0  0  0  0  0  0  0  0
   -1.3630   -2.1800    0.5361 H   0  0  0  0  0  0  0  0  0  0  0  0
   -3.0307   -2.0870    1.1004 H   0  0  0  0  0  0  0  0  0  0  0  0
   -3.1614    0.6500    3.0610 H   0  0  0  0  0  0  0  0  0  0  0  0
   -4.8369    0.2770    2.6503 H   0  0  0  0  0  0  0  0  0  0  0  0
    0.6886   -0.6553    0.9009 H   0  0  0  0  0  0  0  0  0  0  0  0
    0.8352    1.1996    1.1835 H   0  0  0  0  0  0  0  0  0  0  0  0
  1  2  1  0
  2  3  2  0
  2  4  1  0
  4  5  1  0
  5  6  1  0
  6  7  1  0
  7  8  1  0
  8  9  1  0
  9 10  1  0
  9 11  1  0
 11 12  1  0
 11 13  2  0
  6 14  1  0
 14  4  1  0
  1 15  1  0
  1 16  1  0
  1 17  1  0
  5 18  1  0
  5 19  1  0
  6 20  1  0
  7 21  1  0
  7 22  1  0
  8 23  1  0
  9 24  1  1
 10 25  1  0
 10 26  1  0
 10 27  1  0
 12 28  1  0
 12 29  1  0
 14 30  1  0
 14 31  1  0
M  END
$$$$

     RDKit          3D

 31 31  0  0  0  0  0  0  0  0999 V2000
    4.6581    0.2748    1.3576 C   0  0  0  0  0  0  0  0  0  0  0  0
    4.0189    1.0438    0.2846 C   0  0  0  0  0  0  0  0  0  0  0  0
    4.5390    2.0417   -0.2195 O   0  0  0  0  0  0  0  0  0  0  0  0
    2.7302    0.6078   -0.1942 N   0  0  0  0  0  0  0  0  0  0  0  0
    1.8336    1.0984   -1.2030 C   0  0  0  0  0  0  0  0  0  0  0  0
    0.8489    0.0408   -0.9287 C   0  0  0  0  0  0  0  0  0  0  0  0
   -0.4435    0.4706   -0.2544 C   0  0  0  0  0  0  0  0  0  0  0  0
   -1.2377   -0.7326   -0.0891 N   0  0  0  0  0  0  0  0  0  0  0  0
   -2.5088   -0.4944    0.5379 C   0  0  2  0  0  0  0  0  0  0  0  0
   -3.1232   -1.8167    0.9034 C   0  0  0  0  0  0  0  0  0  0  0  0
   -3.4361    0.2776   -0.3228 C   0  0  0  0  0  0  0  0  0  0  0  0
   -4.7292    0.6030    0.1484 N   0  0  0  0  0  0  0  0  0  0  0  0
   -3.1135    0.6615   -1.4744 O   0  0  0  0  0  0  0  0  0  0  0  0
    1.8147   -0.4544    0.1081 C   0  0  0  0  0  0  0  0  0  0  0  0
    5.3223   -0.5146    0.9474 H   0  0  0  0  0  0  0  0  0  0  0  0
    5.3023    0.9309    1.9849 H   0  0  0  0  0  0  0  0  0  0  0  0
    3.8794   -0.2402    1.9563 H   0  0  0  0  0  0  0  0  0  0  0  0
    1.5239    2.1511   -1.0539 H   0  0  0  0  0  0  0  0  0  0  0  0
    2.3091    0.9707   -2.2082 H   0  0  0  0  0  0  0  0  0  0  0  0
    0.6297   -0.6796   -1.7454 H   0  0  0  0  0  0  0  0  0  0  0  0
   -0.9670    1.2573   -0.7951 H   0  0  0  0  0  0  0  0  0  0  0  0
   -0.1868    0.8573    0.7682 H   0  0  0  0  0  0  0  0  0  0  0  0
   -0.7138   -1.4981    0.3597 H   0  0  0  0  0  0  0  0  0  0  0  0
   -2.3557    0.0848    1.4688 H   0  0  0  0  0  0  0  0  0  0  0  0
   -4.2111   -1.8613    0.6429 H   0  0  0  0  0  0  0  0  0  0  0  0
   -2.9895   -2.0089    1.9940 H   0  0  0  0  0  0  0  0  0  0  0  0
   -2.6031   -2.6282    0.3671 H   0  0  0  0  0  0  0  0  0  0  0  0
   -5.6062    0.1712   -0.2585 H   0  0  0  0  0  0  0  0  0  0  0  0
   -4.8197    1.2996    0.9321 H   0  0  0  0  0  0  0  0  0  0  0  0
    1.4234   -0.4584    1.1657 H   0  0  0  0  0  0  0  0  0  0  0  0
    2.2114   -1.4555   -0.1999 H   0  0  0  0  0  0  0  0  0  0  0  0
  1  2  1  0
  2  3  2  0
  2  4  1  0
  4  5  1  0
  5  6  1  0
  6  7  1  0
  7  8  1  0
  8  9  1  0
  9 10  1  0
  9 11  1  0
 11 12  1  0
 11 13  2  0
  6 14  1  0
 14  4  1  0
  1 15  1  0
  1 16  1  0
  1 17  1  0
  5 18  1  0
  5 19  1  0
  6 20  1  0
  7 21  1  0
  7 22  1  0
  8 23  1  0
  9 24  1  1
 10 25  1  0
 10 26  1  0
 10 27  1  0
 12 28  1  0
 12 29  1  0
 14 30  1  0
 14 31  1  0
M  END
$$$$

     RDKit          3D

 31 31  0  0  0  0  0  0  0  0999 V2000
    5.1251    0.0747    0.5004 C   0  0  0  0  0  0  0  0  0  0  0  0
    3.9351   -0.5406    1.1818 C   0  0  0  0  0  0  0  0  0  0  0  0
    3.9903   -1.0085    2.3509 O   0  0  0  0  0  0  0  0  0  0  0  0
    2.7490   -0.5696    0.4565 N   0  0  0  0  0  0  0  0  0  0  0  0
    1.3641   -1.0279    0.7043 C   0  0  0  0  0  0  0  0  0  0  0  0
    0.9821    0.2383   -0.0954 C   0  0  0  0  0  0  0  0  0  0  0  0
   -0.3039    0.1528   -0.8518 C   0  0  0  0  0  0  0  0  0  0  0  0
   -1.3662   -0.1010    0.0432 N   0  0  0  0  0  0  0  0  0  0  0  0
   -2.6963    0.0391   -0.4207 C   0  0  2  0  0  0  0  0  0  0  0  0
   -3.1085    1.4292   -0.8181 C   0  0  0  0  0  0  0  0  0  0  0  0
   -3.6160   -0.5932    0.5461 C   0  0  0  0  0  0  0  0  0  0  0  0
   -5.0186   -0.3908    0.4740 N   0  0  0  0  0  0  0  0  0  0  0  0
   -3.1351   -1.3241    1.4550 O   0  0  0  0  0  0  0  0  0  0  0  0
    2.2244   -0.1852   -0.8719 C   0  0  0  0  0  0  0  0  0  0  0  0
    6.0040   -0.2276    1.0970 H   0  0  0  0  0  0  0  0  0  0  0  0
    4.9171    1.1810    0.5409 H   0  0  0  0  0  0  0  0  0  0  0  0
    5.2440   -0.2409   -0.5371 H   0  0  0  0  0  0  0  0  0  0  0  0
    1.1534   -1.9454    0.1335 H   0  0  0  0  0  0  0  0  0  0  0  0
    1.0562   -0.9951    1.7530 H   0  0  0  0  0  0  0  0  0  0  0  0
    1.1844    1.1189    0.5158 H   0  0  0  0  0  0  0  0  0  0  0  0
   -0.5191    1.0414   -1.4770 H   0  0  0  0  0  0  0  0  0  0  0  0
   -0.2243   -0.7315   -1.5633 H   0  0  0  0  0  0  0  0  0  0  0  0
   -1.1936   -0.6734    0.8696 H   0  0  0  0  0  0  0  0  0  0  0  0
   -2.7697   -0.6072   -1.3563 H   0  0  0  0  0  0  0  0  0  0  0  0
   -3.9131    1.8124   -0.1360 H   0  0  0  0  0  0  0  0  0  0  0  0
   -2.2427    2.1224   -0.8042 H   0  0  0  0  0  0  0  0  0  0  0  0
   -3.5742    1.4295   -1.8258 H   0  0  0  0  0  0  0  0  0  0  0  0
   -5.6348   -0.8605    1.2051 H   0  0  0  0  0  0  0  0  0  0  0  0
   -5.4366    0.1951   -0.2563 H   0  0  0  0  0  0  0  0  0  0  0  0
    2.8076    0.5808   -1.3567 H   0  0  0  0  0  0  0  0  0  0  0  0
    2.0159   -1.1163   -1.4565 H   0  0  0  0  0  0  0  0  0  0  0  0
  1  2  1  0
  2  3  2  0
  2  4  1  0
  4  5  1  0
  5  6  1  0
  6  7  1  0
  7  8  1  0
  8  9  1  0
  9 10  1  0
  9 11  1  0
 11 12  1  0
 11 13  2  0
  6 14  1  0
 14  4  1  0
  1 15  1  0
  1 16  1  0
  1 17  1  0
  5 18  1  0
  5 19  1  0
  6 20  1  0
  7 21  1  0
  7 22  1  0
  8 23  1  0
  9 24  1  6
 10 25  1  0
 10 26  1  0
 10 27  1  0
 12 28  1  0
 12 29  1  0
 14 30  1  0
 14 31  1  0
M  END
$$$$

     RDKit          3D

 31 31  0  0  0  0  0  0  0  0999 V2000
    3.9210    1.2351   -0.2819 C   0  0  0  0  0  0  0  0  0  0  0  0
    3.3691    0.0699   -1.0248 C   0  0  0  0  0  0  0  0  0  0  0  0
    3.7417   -0.0499   -2.2182 O   0  0  0  0  0  0  0  0  0  0  0  0
    2.4831   -0.8565   -0.4509 N   0  0  0  0  0  0  0  0  0  0  0  0
    1.8165   -2.0448   -0.9358 C   0  0  0  0  0  0  0  0  0  0  0  0
    0.7069   -1.7403    0.0754 C   0  0  0  0  0  0  0  0  0  0  0  0
   -0.3182   -0.8394   -0.5361 C   0  0  0  0  0  0  0  0  0  0  0  0
   -1.3905   -0.5039    0.3405 N   0  0  0  0  0  0  0  0  0  0  0  0
   -2.3833    0.3531   -0.2162 C   0  0  2  0  0  0  0  0  0  0  0  0
   -1.8725    1.7101   -0.6140 C   0  0  0  0  0  0  0  0  0  0  0  0
   -3.4990    0.5806    0.7480 C   0  0  0  0  0  0  0  0  0  0  0  0
   -4.6219    1.3943    0.4456 N   0  0  0  0  0  0  0  0  0  0  0  0
   -3.4401    0.0311    1.8678 O   0  0  0  0  0  0  0  0  0  0  0  0
    1.8304   -1.0810    0.8228 C   0  0  0  0  0  0  0  0  0  0  0  0
    3.6732    2.1676   -0.8118 H   0  0  0  0  0  0  0  0  0  0  0  0
    5.0175    1.1176   -0.1786 H   0  0  0  0  0  0  0  0  0  0  0  0
    3.5151    1.2549    0.7612 H   0  0  0  0  0  0  0  0  0  0  0  0
    1.4235   -1.9825   -1.9561 H   0  0  0  0  0  0  0  0  0  0  0  0
    2.3984   -2.9574   -0.6952 H   0  0  0  0  0  0  0  0  0  0  0  0
    0.3246   -2.6747    0.5323 H   0  0  0  0  0  0  0  0  0  0  0  0
   -0.7286   -1.3528   -1.4383 H   0  0  0  0  0  0  0  0  0  0  0  0
    0.2101    0.0590   -0.9242 H   0  0  0  0  0  0  0  0  0  0  0  0
   -1.8076   -1.3596    0.7425 H   0  0  0  0  0  0  0  0  0  0  0  0
   -2.8185   -0.1205   -1.1223 H   0  0  0  0  0  0  0  0  0  0  0  0
   -1.2962    2.1460    0.2005 H   0  0  0  0  0  0  0  0  0  0  0  0
   -2.7765    2.3608   -0.7607 H   0  0  0  0  0  0  0  0  0  0  0  0
   -1.3564    1.7047   -1.5918 H   0  0  0  0  0  0  0  0  0  0  0  0
   -4.9827    2.1005    1.1217 H   0  0  0  0  0  0  0  0  0  0  0  0
   -5.1231    1.3167   -0.4544 H   0  0  0  0  0  0  0  0  0  0  0  0
    1.5823   -0.1839    1.4065 H   0  0  0  0  0  0  0  0  0  0  0  0
    2.4017   -1.8549    1.3895 H   0  0  0  0  0  0  0  0  0  0  0  0
  1  2  1  0
  2  3  2  0
  2  4  1  0
  4  5  1  0
  5  6  1  0
  6  7  1  0
  7  8  1  0
  8  9  1  0
  9 10  1  0
  9 11  1  0
 11 12  1  0
 11 13  2  0
  6 14  1  0
 14  4  1  0
  1 15  1  0
  1 16  1  0
  1 17  1  0
  5 18  1  0
  5 19  1  0
  6 20  1  0
  7 21  1  0
  7 22  1  0
  8 23  1  0
  9 24  1  6
 10 25  1  0
 10 26  1  0
 10 27  1  0
 12 28  1  0
 12 29  1  0
 14 30  1  0
 14 31  1  0
M  END
$$$$

     RDKit          3D

 31 31  0  0  0  0  0  0  0  0999 V2000
    5.1611    0.3944    0.0878 C   0  0  0  0  0  0  0  0  0  0  0  0
    4.2019   -0.7587    0.0302 C   0  0  0  0  0  0  0  0  0  0  0  0
    4.6474   -1.9338    0.0547 O   0  0  0  0  0  0  0  0  0  0  0  0
    2.8139   -0.5001   -0.0485 N   0  0  0  0  0  0  0  0  0  0  0  0
    2.0474    0.7550   -0.0892 C   0  0  0  0  0  0  0  0  0  0  0  0
    0.9269   -0.0418   -0.7269 C   0  0  0  0  0  0  0  0  0  0  0  0
   -0.3945    0.3573   -0.0689 C   0  0  0  0  0  0  0  0  0  0  0  0
   -1.4479   -0.3738   -0.6543 N   0  0  0  0  0  0  0  0  0  0  0  0
   -2.7383   -0.2334   -0.1093 C   0  0  2  0  0  0  0  0  0  0  0  0
   -3.7418   -1.0315   -0.9349 C   0  0  0  0  0  0  0  0  0  0  0  0
   -3.1986    1.1082    0.1853 C   0  0  0  0  0  0  0  0  0  0  0  0
   -4.6077    1.4268    0.2185 N   0  0  0  0  0  0  0  0  0  0  0  0
   -2.4271    2.0610    0.4238 O   0  0  0  0  0  0  0  0  0  0  0  0
    1.5784   -1.2771   -0.1288 C   0  0  0  0  0  0  0  0  0  0  0  0
    5.3058    0.7357    1.1239 H   0  0  0  0  0  0  0  0  0  0  0  0
    4.6653    1.2403   -0.4683 H   0  0  0  0  0  0  0  0  0  0  0  0
    6.0943    0.1212   -0.3935 H   0  0  0  0  0  0  0  0  0  0  0  0
    2.4694    1.5251   -0.7629 H   0  0  0  0  0  0  0  0  0  0  0  0
    1.8109    1.1314    0.9230 H   0  0  0  0  0  0  0  0  0  0  0  0
    0.8749    0.0009   -1.8016 H   0  0  0  0  0  0  0  0  0  0  0  0
   -0.4805    1.4514   -0.3378 H   0  0  0  0  0  0  0  0  0  0  0  0
   -0.3238    0.3026    1.0123 H   0  0  0  0  0  0  0  0  0  0  0  0
   -1.1993   -1.3901   -0.7655 H   0  0  0  0  0  0  0  0  0  0  0  0
   -2.7268   -0.8030    0.8811 H   0  0  0  0  0  0  0  0  0  0  0  0
   -3.5652   -2.1234   -0.7801 H   0  0  0  0  0  0  0  0  0  0  0  0
   -4.7707   -0.7384   -0.7144 H   0  0  0  0  0  0  0  0  0  0  0  0
   -3.5630   -0.8426   -2.0338 H   0  0  0  0  0  0  0  0  0  0  0  0
   -5.0951    1.7563   -0.6299 H   0  0  0  0  0  0  0  0  0  0  0  0
   -5.1180    1.3069    1.1042 H   0  0  0  0  0  0  0  0  0  0  0  0
    1.6197   -2.0843   -0.8674 H   0  0  0  0  0  0  0  0  0  0  0  0
    1.1808   -1.5425    0.8494 H   0  0  0  0  0  0  0  0  0  0  0  0
  1  2  1  0
  2  3  2  0
  2  4  1  0
  4  5  1  0
  5  6  1  0
  6  7  1  0
  7  8  1  0
  8  9  1  0
  9 10  1  0
  9 11  1  0
 11 12  1  0
 11 13  2  0
  6 14  1  0
 14  4  1  0
  1 15  1  0
  1 16  1  0
  1 17  1  0
  5 18  1  0
  5 19  1  0
  6 20  1  0
  7 21  1  0
  7 22  1  0
  8 23  1  0
  9 24  1  1
 10 25  1  0
 10 26  1  0
 10 27  1  0
 12 28  1  0
 12 29  1  0
 14 30  1  0
 14 31  1  0
M  END
$$$$

     RDKit          3D

 31 31  0  0  0  0  0  0  0  0999 V2000
    4.8132    0.9363   -0.2927 C   0  0  0  0  0  0  0  0  0  0  0  0
    4.0423   -0.3069   -0.4936 C   0  0  0  0  0  0  0  0  0  0  0  0
    4.6292   -1.3111   -0.9414 O   0  0  0  0  0  0  0  0  0  0  0  0
    2.6697   -0.3825   -0.1927 N   0  0  0  0  0  0  0  0  0  0  0  0
    1.5694   -1.3246   -0.2225 C   0  0  0  0  0  0  0  0  0  0  0  0
    0.9817   -0.5900    0.9435 C   0  0  0  0  0  0  0  0  0  0  0  0
   -0.5115   -0.4922    1.0084 C   0  0  0  0  0  0  0  0  0  0  0  0
   -1.1037    0.1704   -0.1047 N   0  0  0  0  0  0  0  0  0  0  0  0
   -2.5448    0.1828    0.0716 C   0  0  2  0  0  0  0  0  0  0  0  0
   -3.1341   -1.1965    0.0917 C   0  0  0  0  0  0  0  0  0  0  0  0
   -3.2117    1.0150   -0.9744 C   0  0  0  0  0  0  0  0  0  0  0  0
   -4.6198    1.1302   -0.9560 N   0  0  0  0  0  0  0  0  0  0  0  0
   -2.5683    1.6178   -1.8709 O   0  0  0  0  0  0  0  0  0  0  0  0
    1.7015    0.5935    0.3358 C   0  0  0  0  0  0  0  0  0  0  0  0
    4.1774    1.8517   -0.4464 H   0  0  0  0  0  0  0  0  0  0  0  0
    5.6681    1.0463   -0.9796 H   0  0  0  0  0  0  0  0  0  0  0  0
    5.1828    1.0290    0.7686 H   0  0  0  0  0  0  0  0  0  0  0  0
    1.0067   -1.2210   -1.1877 H   0  0  0  0  0  0  0  0  0  0  0  0
    1.8459   -2.3854   -0.0414 H   0  0  0  0  0  0  0  0  0  0  0  0
    1.4676   -0.9351    1.8812 H   0  0  0  0  0  0  0  0  0  0  0  0
   -0.7645    0.0886    1.9358 H   0  0  0  0  0  0  0  0  0  0  0  0
   -0.9142   -1.5134    1.1370 H   0  0  0  0  0  0  0  0  0  0  0  0
   -0.8226    1.1971   -0.0612 H   0  0  0  0  0  0  0  0  0  0  0  0
   -2.8223    0.6814    1.0456 H   0  0  0  0  0  0  0  0  0  0  0  0
   -2.3445   -1.9250   -0.2409 H   0  0  0  0  0  0  0  0  0  0  0  0
   -3.4145   -1.4826    1.1267 H   0  0  0  0  0  0  0  0  0  0  0  0
   -4.0242   -1.2638   -0.5727 H   0  0  0  0  0  0  0  0  0  0  0  0
   -5.2028    0.3478   -1.2582 H   0  0  0  0  0  0  0  0  0  0  0  0
   -5.0497    2.0126   -0.6335 H   0  0  0  0  0  0  0  0  0  0  0  0
    2.1374    1.3051    1.0644 H   0  0  0  0  0  0  0  0  0  0  0  0
    1.1605    1.1245   -0.4431 H   0  0  0  0  0  0  0  0  0  0  0  0
  1  2  1  0
  2  3  2  0
  2  4  1  0
  4  5  1  0
  5  6  1  0
  6  7  1  0
  7  8  1  0
  8  9  1  0
  9 10  1  0
  9 11  1  0
 11 12  1  0
 11 13  2  0
  6 14  1  0
 14  4  1  0
  1 15  1  0
  1 16  1  0
  1 17  1  0
  5 18  1  0
  5 19  1  0
  6 20  1  0
  7 21  1  0
  7 22  1  0
  8 23  1  0
  9 24  1  1
 10 25  1  0
 10 26  1  0
 10 27  1  0
 12 28  1  0
 12 29  1  0
 14 30  1  0
 14 31  1  0
M  END
$$$$

     RDKit          3D

 31 31  0  0  0  0  0  0  0  0999 V2000
    4.9106    0.0196   -0.0532 C   0  0  0  0  0  0  0  0  0  0  0  0
    3.8695   -1.0275   -0.3712 C   0  0  0  0  0  0  0  0  0  0  0  0
    4.1851   -2.2032   -0.6326 O   0  0  0  0  0  0  0  0  0  0  0  0
    2.5300   -0.6012   -0.3600 N   0  0  0  0  0  0  0  0  0  0  0  0
    1.3371   -1.3929   -0.7591 C   0  0  0  0  0  0  0  0  0  0  0  0
    0.4980   -0.1653   -0.5614 C   0  0  0  0  0  0  0  0  0  0  0  0
   -0.5537   -0.4854    0.4887 C   0  0  0  0  0  0  0  0  0  0  0  0
   -1.4403    0.5359    0.7626 N   0  0  0  0  0  0  0  0  0  0  0  0
   -2.4746    0.9248   -0.1016 C   0  0  2  0  0  0  0  0  0  0  0  0
   -3.0562    2.2605    0.2376 C   0  0  0  0  0  0  0  0  0  0  0  0
   -3.4448   -0.1341   -0.4604 C   0  0  0  0  0  0  0  0  0  0  0  0
   -3.7497   -1.2566    0.3065 N   0  0  0  0  0  0  0  0  0  0  0  0
   -4.0300   -0.0242   -1.5683 O   0  0  0  0  0  0  0  0  0  0  0  0
    1.7127    0.5515   -0.0345 C   0  0  0  0  0  0  0  0  0  0  0  0
    4.9434    0.7259   -0.9070 H   0  0  0  0  0  0  0  0  0  0  0  0
    4.5428    0.5671    0.8651 H   0  0  0  0  0  0  0  0  0  0  0  0
    5.8650   -0.4804    0.1193 H   0  0  0  0  0  0  0  0  0  0  0  0
    1.4092   -1.6389   -1.8541 H   0  0  0  0  0  0  0  0  0  0  0  0
    1.2147   -2.2364   -0.0980 H   0  0  0  0  0  0  0  0  0  0  0  0
    0.0430    0.2546   -1.4514 H   0  0  0  0  0  0  0  0  0  0  0  0
   -0.1003   -0.9696    1.3949 H   0  0  0  0  0  0  0  0  0  0  0  0
   -1.1446   -1.3587    0.0289 H   0  0  0  0  0  0  0  0  0  0  0  0
   -1.7329    0.5940    1.7870 H   0  0  0  0  0  0  0  0  0  0  0  0
   -1.9329    1.0986   -1.1583 H   0  0  0  0  0  0  0  0  0  0  0  0
   -3.5106    2.1787    1.2426 H   0  0  0  0  0  0  0  0  0  0  0  0
   -3.7690    2.5228   -0.5769 H   0  0  0  0  0  0  0  0  0  0  0  0
   -2.1938    3.0028    0.2343 H   0  0  0  0  0  0  0  0  0  0  0  0
   -3.3897   -2.2177   -0.0930 H   0  0  0  0  0  0  0  0  0  0  0  0
   -4.2125   -1.3276    1.1661 H   0  0  0  0  0  0  0  0  0  0  0  0
    2.0083    1.3826   -0.7538 H   0  0  0  0  0  0  0  0  0  0  0  0
    1.6663    0.9006    0.9833 H   0  0  0  0  0  0  0  0  0  0  0  0
  1  2  1  0
  2  3  2  0
  2  4  1  0
  4  5  1  0
  5  6  1  0
  6  7  1  0
  7  8  1  0
  8  9  1  0
  9 10  1  0
  9 11  1  0
 11 12  1  0
 11 13  2  0
  6 14  1  0
 14  4  1  0
  1 15  1  0
  1 16  1  0
  1 17  1  0
  5 18  1  0
  5 19  1  0
  6 20  1  0
  7 21  1  0
  7 22  1  0
  8 23  1  0
  9 24  1  6
 10 25  1  0
 10 26  1  0
 10 27  1  0
 12 28  1  0
 12 29  1  0
 14 30  1  0
 14 31  1  0
M  END
$$$$

     RDKit          3D

 31 31  0  0  0  0  0  0  0  0999 V2000
   -5.0417   -0.4660    1.2502 C   0  0  0  0  0  0  0  0  0  0  0  0
   -4.2324    0.5070    0.4760 C   0  0  0  0  0  0  0  0  0  0  0  0
   -4.7763    1.4399   -0.1701 O   0  0  0  0  0  0  0  0  0  0  0  0
   -2.8276    0.3744    0.4708 N   0  0  0  0  0  0  0  0  0  0  0  0
   -1.8935   -0.5359    1.0709 C   0  0  0  0  0  0  0  0  0  0  0  0
   -0.7241    0.3874    0.7837 C   0  0  0  0  0  0  0  0  0  0  0  0
    0.3884   -0.3020    0.0261 C   0  0  0  0  0  0  0  0  0  0  0  0
    1.4811    0.5697   -0.2405 N   0  0  0  0  0  0  0  0  0  0  0  0
    2.5313   -0.0718   -0.9527 C   0  0  2  0  0  0  0  0  0  0  0  0
    3.1675   -1.2142   -0.1975 C   0  0  0  0  0  0  0  0  0  0  0  0
    3.6329    0.8933   -1.2841 C   0  0  0  0  0  0  0  0  0  0  0  0
    4.7912    0.5219   -1.9854 N   0  0  0  0  0  0  0  0  0  0  0  0
    3.5262    2.1009   -0.9209 O   0  0  0  0  0  0  0  0  0  0  0  0
   -1.7118    1.0892   -0.1345 C   0  0  0  0  0  0  0  0  0  0  0  0
   -5.7475    0.0824    1.9018 H   0  0  0  0  0  0  0  0  0  0  0  0
   -4.4050   -1.0776    1.9267 H   0  0  0  0  0  0  0  0  0  0  0  0
   -5.6591   -1.1024    0.5823 H   0  0  0  0  0  0  0  0  0  0  0  0
   -1.7999   -1.5050    0.5307 H   0  0  0  0  0  0  0  0  0  0  0  0
   -2.0511   -0.7370    2.1535 H   0  0  0  0  0  0  0  0  0  0  0  0
   -0.4057    0.9815    1.6640 H   0  0  0  0  0  0  0  0  0  0  0  0
    0.6397   -1.2177    0.5891 H   0  0  0  0  0  0  0  0  0  0  0  0
   -0.0437   -0.6319   -0.9450 H   0  0  0  0  0  0  0  0  0  0  0  0
    1.7897    1.1446    0.5675 H   0  0  0  0  0  0  0  0  0  0  0  0
    2.1540   -0.4595   -1.9061 H   0  0  0  0  0  0  0  0  0  0  0  0
    3.9790   -1.6569   -0.8093 H   0  0  0  0  0  0  0  0  0  0  0  0
    2.4536   -2.0052    0.0894 H   0  0  0  0  0  0  0  0  0  0  0  0
    3.6444   -0.8593    0.7404 H   0  0  0  0  0  0  0  0  0  0  0  0
    5.4037    1.2382   -2.3984 H   0  0  0  0  0  0  0  0  0  0  0  0
    5.0341   -0.4758   -2.0910 H   0  0  0  0  0  0  0  0  0  0  0  0
   -1.7389    2.1856    0.0146 H   0  0  0  0  0  0  0  0  0  0  0  0
   -1.5583    0.8022   -1.2047 H   0  0  0  0  0  0  0  0  0  0  0  0
  1  2  1  0
  2  3  2  0
  2  4  1  0
  4  5  1  0
  5  6  1  0
  6  7  1  0
  7  8  1  0
  8  9  1  0
  9 10  1  0
  9 11  1  0
 11 12  1  0
 11 13  2  0
  6 14  1  0
 14  4  1  0
  1 15  1  0
  1 16  1  0
  1 17  1  0
  5 18  1  0
  5 19  1  0
  6 20  1  0
  7 21  1  0
  7 22  1  0
  8 23  1  0
  9 24  1  6
 10 25  1  0
 10 26  1  0
 10 27  1  0
 12 28  1  0
 12 29  1  0
 14 30  1  0
 14 31  1  0
M  END
$$$$
