
     RDKit          3D

 30 30  0  0  0  0  0  0  0  0999 V2000
    4.9939    0.9549   -0.2951 C   0  0  0  0  0  0  0  0  0  0  0  0
    4.4839    0.2191    0.7469 O   0  0  0  0  0  0  0  0  0  0  0  0
    3.5290   -0.6983    0.4627 C   0  0  0  0  0  0  0  0  0  0  0  0
    2.2383   -0.1158   -0.1193 C   0  0  0  0  0  0  0  0  0  0  0  0
    1.3592   -1.1815   -0.3668 N   0  0  0  0  0  0  0  0  0  0  0  0
    0.0055   -0.9208   -0.7083 C   0  0  0  0  0  0  0  0  0  0  0  0
   -0.8057   -0.3928    0.3749 C   0  0  0  0  0  0  0  0  0  0  0  0
   -0.1956   -0.2193    1.4954 O   0  0  0  0  0  0  0  0  0  0  0  0
   -2.1538   -0.0651    0.3269 N   0  0  0  0  0  0  0  0  0  0  0  0
   -3.0458   -0.1581   -0.8134 C   0  0  0  0  0  0  0  0  0  0  0  0
   -4.2119    0.6965   -0.3976 C   0  0  0  0  0  0  0  0  0  0  0  0
   -4.2642    0.4232    1.1016 C   0  0  0  0  0  0  0  0  0  0  0  0
   -2.8904    0.4275    1.4485 N   0  0  0  0  0  0  0  0  0  0  0  0
    5.4875    0.3556   -1.1005 H   0  0  0  0  0  0  0  0  0  0  0  0
    4.2846    1.7116   -0.6726 H   0  0  0  0  0  0  0  0  0  0  0  0
    5.8686    1.5479    0.1320 H   0  0  0  0  0  0  0  0  0  0  0  0
    3.8649   -1.4802   -0.2741 H   0  0  0  0  0  0  0  0  0  0  0  0
    3.2148   -1.1734    1.4411 H   0  0  0  0  0  0  0  0  0  0  0  0
    1.8718    0.7350    0.4466 H   0  0  0  0  0  0  0  0  0  0  0  0
    2.5317    0.3167   -1.1249 H   0  0  0  0  0  0  0  0  0  0  0  0
    1.5837   -2.0296    0.1408 H   0  0  0  0  0  0  0  0  0  0  0  0
   -0.4398   -1.8798   -1.0438 H   0  0  0  0  0  0  0  0  0  0  0  0
   -0.0366   -0.2509   -1.6005 H   0  0  0  0  0  0  0  0  0  0  0  0
   -3.3972   -1.2001   -0.9467 H   0  0  0  0  0  0  0  0  0  0  0  0
   -2.5796    0.1912   -1.7611 H   0  0  0  0  0  0  0  0  0  0  0  0
   -3.9933    1.7600   -0.5233 H   0  0  0  0  0  0  0  0  0  0  0  0
   -5.1781    0.3720   -0.8491 H   0  0  0  0  0  0  0  0  0  0  0  0
   -4.7109   -0.5731    1.2860 H   0  0  0  0  0  0  0  0  0  0  0  0
   -4.8536    1.2313    1.6029 H   0  0  0  0  0  0  0  0  0  0  0  0
   -2.5610    1.3963    1.5906 H   0  0  0  0  0  0  0  0  0  0  0  0
  1  2  1  0
  2  3  1  0
  3  4  1  0
  4  5  1  0
  5  6  1  0
  6  7  1  0
  7  8  2  0
  7  9  1  0
  9 10  1  0
 10 11  1  0
 11 12  1  0
 12 13  1  0
 13  9  1  0
  1 14  1  0
  1 15  1  0
  1 16  1  0
  3 17  1  0
  3 18  1  0
  4 19  1  0
  4 20  1  0
  5 21  1  0
  6 22  1  0
  6 23  1  0
 10 24  1  0
 10 25  1  0
 11 26  1  0
 11 27  1  0
 12 28  1  0
 12 29  1  0
 13 30  1  0
M  END
$$$$

     RDKit          3D

 30 30  0  0  0  0  0  0  0  0999 V2000
    4.4560    0.0410   -1.3301 C   0  0  0  0  0  0  0  0  0  0  0  0
    3.7389   -0.6014   -0.3408 O   0  0  0  0  0  0  0  0  0  0  0  0
    2.9068    0.3273    0.2803 C   0  0  0  0  0  0  0  0  0  0  0  0
    2.1049   -0.3730    1.3782 C   0  0  0  0  0  0  0  0  0  0  0  0
    1.3320   -1.3999    0.7830 N   0  0  0  0  0  0  0  0  0  0  0  0
    0.2553   -0.8965   -0.0290 C   0  0  0  0  0  0  0  0  0  0  0  0
   -0.7652   -0.3170    0.8823 C   0  0  0  0  0  0  0  0  0  0  0  0
   -0.6433   -0.3297    2.1311 O   0  0  0  0  0  0  0  0  0  0  0  0
   -1.9310    0.2811    0.3561 N   0  0  0  0  0  0  0  0  0  0  0  0
   -2.3204    0.4504   -1.0156 C   0  0  0  0  0  0  0  0  0  0  0  0
   -3.7885    0.0777   -1.0064 C   0  0  0  0  0  0  0  0  0  0  0  0
   -4.1297    0.1731    0.4674 C   0  0  0  0  0  0  0  0  0  0  0  0
   -2.9981    0.8439    1.0838 N   0  0  0  0  0  0  0  0  0  0  0  0
    3.7440    0.4639   -2.0668 H   0  0  0  0  0  0  0  0  0  0  0  0
    5.2226   -0.6305   -1.8027 H   0  0  0  0  0  0  0  0  0  0  0  0
    4.9338    0.9539   -0.8699 H   0  0  0  0  0  0  0  0  0  0  0  0
    2.2985    0.8113   -0.4775 H   0  0  0  0  0  0  0  0  0  0  0  0
    3.5092    1.1013    0.8099 H   0  0  0  0  0  0  0  0  0  0  0  0
    1.5124    0.3286    1.9595 H   0  0  0  0  0  0  0  0  0  0  0  0
    2.8221   -0.8298    2.1234 H   0  0  0  0  0  0  0  0  0  0  0  0
    1.8389   -2.2025    0.4117 H   0  0  0  0  0  0  0  0  0  0  0  0
   -0.1845   -1.7886   -0.5795 H   0  0  0  0  0  0  0  0  0  0  0  0
    0.5827   -0.1511   -0.7980 H   0  0  0  0  0  0  0  0  0  0  0  0
   -2.2881    1.5496   -1.2141 H   0  0  0  0  0  0  0  0  0  0  0  0
   -1.6968   -0.1323   -1.6774 H   0  0  0  0  0  0  0  0  0  0  0  0
   -3.8588   -0.9423   -1.4103 H   0  0  0  0  0  0  0  0  0  0  0  0
   -4.3978    0.7445   -1.6348 H   0  0  0  0  0  0  0  0  0  0  0  0
   -4.2868   -0.8478    0.8708 H   0  0  0  0  0  0  0  0  0  0  0  0
   -5.0080    0.8338    0.6220 H   0  0  0  0  0  0  0  0  0  0  0  0
   -2.9611    0.6470    2.0932 H   0  0  0  0  0  0  0  0  0  0  0  0
  1  2  1  0
  2  3  1  0
  3  4  1  0
  4  5  1  0
  5  6  1  0
  6  7  1  0
  7  8  2  0
  7  9  1  0
  9 10  1  0
 10 11  1  0
 11 12  1  0
 12 13  1  0
 13  9  1  0
  1 14  1  0
  1 15  1  0
  1 16  1  0
  3 17  1  0
  3 18  1  0
  4 19  1  0
  4 20  1  0
  5 21  1  0
  6 22  1  0
  6 23  1  0
 10 24  1  0
 10 25  1  0
 11 26  1  0
 11 27  1  0
 12 28  1  0
 12 29  1  0
 13 30  1  0
M  END
$$$$

     RDKit          3D

 30 30  0  0  0  0  0  0  0  0999 V2000
    4.0309    0.8945    0.1791 C   0  0  0  0  0  0  0  0  0  0  0  0
    4.1472   -0.4727    0.2573 O   0  0  0  0  0  0  0  0  0  0  0  0
    3.6567   -1.1389   -0.8342 C   0  0  0  0  0  0  0  0  0  0  0  0
    2.1625   -0.9019   -1.0754 C   0  0  0  0  0  0  0  0  0  0  0  0
    1.4378   -1.3435    0.0660 N   0  0  0  0  0  0  0  0  0  0  0  0
    0.0317   -1.2561    0.0246 C   0  0  0  0  0  0  0  0  0  0  0  0
   -0.5317    0.1205    0.0271 C   0  0  0  0  0  0  0  0  0  0  0  0
    0.2640    1.0967    0.0648 O   0  0  0  0  0  0  0  0  0  0  0  0
   -1.9233    0.3619   -0.0114 N   0  0  0  0  0  0  0  0  0  0  0  0
   -3.0052   -0.5917   -0.0456 C   0  0  0  0  0  0  0  0  0  0  0  0
   -3.9469    0.0327    0.9760 C   0  0  0  0  0  0  0  0  0  0  0  0
   -3.5514    1.4907    0.9607 C   0  0  0  0  0  0  0  0  0  0  0  0
   -2.5115    1.6096   -0.0324 N   0  0  0  0  0  0  0  0  0  0  0  0
    2.9964    1.2180    0.0928 H   0  0  0  0  0  0  0  0  0  0  0  0
    4.6203    1.3555   -0.6395 H   0  0  0  0  0  0  0  0  0  0  0  0
    4.4287    1.3299    1.1245 H   0  0  0  0  0  0  0  0  0  0  0  0
    3.8247   -2.2278   -0.6562 H   0  0  0  0  0  0  0  0  0  0  0  0
    4.2485   -0.8234   -1.7252 H   0  0  0  0  0  0  0  0  0  0  0  0
    1.8906   -1.4618   -2.0073 H   0  0  0  0  0  0  0  0  0  0  0  0
    2.0525    0.1626   -1.3354 H   0  0  0  0  0  0  0  0  0  0  0  0
    1.9138   -1.3066    0.9654 H   0  0  0  0  0  0  0  0  0  0  0  0
   -0.3450   -1.7323   -0.9128 H   0  0  0  0  0  0  0  0  0  0  0  0
   -0.3914   -1.7583    0.9268 H   0  0  0  0  0  0  0  0  0  0  0  0
   -2.7049   -1.6091    0.2278 H   0  0  0  0  0  0  0  0  0  0  0  0
   -3.5489   -0.5367   -1.0196 H   0  0  0  0  0  0  0  0  0  0  0  0
   -3.7274   -0.4450    1.9503 H   0  0  0  0  0  0  0  0  0  0  0  0
   -5.0064   -0.1494    0.7269 H   0  0  0  0  0  0  0  0  0  0  0  0
   -4.4167    2.1532    0.7416 H   0  0  0  0  0  0  0  0  0  0  0  0
   -3.0866    1.7111    1.9528 H   0  0  0  0  0  0  0  0  0  0  0  0
   -3.0088    1.7000   -0.9695 H   0  0  0  0  0  0  0  0  0  0  0  0
  1  2  1  0
  2  3  1  0
  3  4  1  0
  4  5  1  0
  5  6  1  0
  6  7  1  0
  7  8  2  0
  7  9  1  0
  9 10  1  0
 10 11  1  0
 11 12  1  0
 12 13  1  0
 13  9  1  0
  1 14  1  0
  1 15  1  0
  1 16  1  0
  3 17  1  0
  3 18  1  0
  4 19  1  0
  4 20  1  0
  5 21  1  0
  6 22  1  0
  6 23  1  0
 10 24  1  0
 10 25  1  0
 11 26  1  0
 11 27  1  0
 12 28  1  0
 12 29  1  0
 13 30  1  0
M  END
$$$$

     RDKit          3D

 30 30  0  0  0  0  0  0  0  0999 V2000
    5.2899   -0.3406    0.7854 C   0  0  0  0  0  0  0  0  0  0  0  0
    4.8593   -0.3107   -0.5289 O   0  0  0  0  0  0  0  0  0  0  0  0
    3.6284    0.2872   -0.7069 C   0  0  0  0  0  0  0  0  0  0  0  0
    2.4852   -0.4007    0.0069 C   0  0  0  0  0  0  0  0  0  0  0  0
    1.2952    0.3860   -0.3026 N   0  0  0  0  0  0  0  0  0  0  0  0
    0.0759   -0.2031    0.1722 C   0  0  0  0  0  0  0  0  0  0  0  0
   -1.0414    0.7453   -0.0898 C   0  0  0  0  0  0  0  0  0  0  0  0
   -0.7624    1.8680   -0.6344 O   0  0  0  0  0  0  0  0  0  0  0  0
   -2.3684    0.4300    0.2466 N   0  0  0  0  0  0  0  0  0  0  0  0
   -3.5233    1.2856    0.0773 C   0  0  0  0  0  0  0  0  0  0  0  0
   -4.4632    0.2986   -0.6223 C   0  0  0  0  0  0  0  0  0  0  0  0
   -4.1322   -0.9861    0.1180 C   0  0  0  0  0  0  0  0  0  0  0  0
   -2.8474   -0.7663    0.7771 N   0  0  0  0  0  0  0  0  0  0  0  0
    5.3648    0.6969    1.2476 H   0  0  0  0  0  0  0  0  0  0  0  0
    6.3112   -0.8125    0.8301 H   0  0  0  0  0  0  0  0  0  0  0  0
    4.5694   -0.8965    1.3978 H   0  0  0  0  0  0  0  0  0  0  0  0
    3.4350    0.2814   -1.8288 H   0  0  0  0  0  0  0  0  0  0  0  0
    3.6737    1.3759   -0.4413 H   0  0  0  0  0  0  0  0  0  0  0  0
    2.7103   -0.3485    1.0985 H   0  0  0  0  0  0  0  0  0  0  0  0
    2.4203   -1.4272   -0.3437 H   0  0  0  0  0  0  0  0  0  0  0  0
    1.2785    0.4921   -1.3529 H   0  0  0  0  0  0  0  0  0  0  0  0
    0.1772   -0.4241    1.2657 H   0  0  0  0  0  0  0  0  0  0  0  0
   -0.1656   -1.1581   -0.3801 H   0  0  0  0  0  0  0  0  0  0  0  0
   -3.3282    2.1888   -0.5203 H   0  0  0  0  0  0  0  0  0  0  0  0
   -4.0309    1.4896    1.0552 H   0  0  0  0  0  0  0  0  0  0  0  0
   -4.1224    0.2520   -1.6864 H   0  0  0  0  0  0  0  0  0  0  0  0
   -5.5062    0.5877   -0.5233 H   0  0  0  0  0  0  0  0  0  0  0  0
   -4.1192   -1.8671   -0.5585 H   0  0  0  0  0  0  0  0  0  0  0  0
   -4.9278   -1.1531    0.8683 H   0  0  0  0  0  0  0  0  0  0  0  0
   -2.2358   -1.5782    0.5735 H   0  0  0  0  0  0  0  0  0  0  0  0
  1  2  1  0
  2  3  1  0
  3  4  1  0
  4  5  1  0
  5  6  1  0
  6  7  1  0
  7  8  2  0
  7  9  1  0
  9 10  1  0
 10 11  1  0
 11 12  1  0
 12 13  1  0
 13  9  1  0
  1 14  1  0
  1 15  1  0
  1 16  1  0
  3 17  1  0
  3 18  1  0
  4 19  1  0
  4 20  1  0
  5 21  1  0
  6 22  1  0
  6 23  1  0
 10 24  1  0
 10 25  1  0
 11 26  1  0
 11 27  1  0
 12 28  1  0
 12 29  1  0
 13 30  1  0
M  END
$$$$

     RDKit          3D

 30 30  0  0  0  0  0  0  0  0999 V2000
    3.7607    1.2303    0.5792 C   0  0  0  0  0  0  0  0  0  0  0  0
    2.9175    0.2351    0.0963 O   0  0  0  0  0  0  0  0  0  0  0  0
    3.3151   -1.0188    0.5242 C   0  0  0  0  0  0  0  0  0  0  0  0
    2.3899   -2.0634   -0.0295 C   0  0  0  0  0  0  0  0  0  0  0  0
    1.0542   -1.8730    0.4042 N   0  0  0  0  0  0  0  0  0  0  0  0
    0.3353   -0.7519   -0.0565 C   0  0  0  0  0  0  0  0  0  0  0  0
   -1.0989   -0.8928    0.4128 C   0  0  0  0  0  0  0  0  0  0  0  0
   -1.3856   -1.9155    1.0767 O   0  0  0  0  0  0  0  0  0  0  0  0
   -2.0163    0.1131    0.0846 N   0  0  0  0  0  0  0  0  0  0  0  0
   -3.4222    0.0570    0.4568 C   0  0  0  0  0  0  0  0  0  0  0  0
   -4.0674    1.0835   -0.4580 C   0  0  0  0  0  0  0  0  0  0  0  0
   -2.9309    2.0592   -0.7006 C   0  0  0  0  0  0  0  0  0  0  0  0
   -1.7138    1.2770   -0.6218 N   0  0  0  0  0  0  0  0  0  0  0  0
    4.8015    1.0121    0.2054 H   0  0  0  0  0  0  0  0  0  0  0  0
    3.7335    1.2802    1.6709 H   0  0  0  0  0  0  0  0  0  0  0  0
    3.4347    2.2040    0.1361 H   0  0  0  0  0  0  0  0  0  0  0  0
    4.3828   -1.2357    0.2976 H   0  0  0  0  0  0  0  0  0  0  0  0
    3.1653   -1.0560    1.6475 H   0  0  0  0  0  0  0  0  0  0  0  0
    2.3987   -2.0162   -1.1613 H   0  0  0  0  0  0  0  0  0  0  0  0
    2.7632   -3.0998    0.1785 H   0  0  0  0  0  0  0  0  0  0  0  0
    0.8251   -2.2028    1.3534 H   0  0  0  0  0  0  0  0  0  0  0  0
    0.3390   -0.6532   -1.1534 H   0  0  0  0  0  0  0  0  0  0  0  0
    0.7200    0.2081    0.4155 H   0  0  0  0  0  0  0  0  0  0  0  0
   -3.4892    0.3443    1.5273 H   0  0  0  0  0  0  0  0  0  0  0  0
   -3.7904   -0.9722    0.2490 H   0  0  0  0  0  0  0  0  0  0  0  0
   -4.3052    0.5613   -1.3883 H   0  0  0  0  0  0  0  0  0  0  0  0
   -4.8897    1.5955    0.0397 H   0  0  0  0  0  0  0  0  0  0  0  0
   -3.0065    2.5295   -1.7060 H   0  0  0  0  0  0  0  0  0  0  0  0
   -2.8623    2.8580    0.0520 H   0  0  0  0  0  0  0  0  0  0  0  0
   -1.3579    1.1030   -1.5697 H   0  0  0  0  0  0  0  0  0  0  0  0
  1  2  1  0
  2  3  1  0
  3  4  1  0
  4  5  1  0
  5  6  1  0
  6  7  1  0
  7  8  2  0
  7  9  1  0
  9 10  1  0
 10 11  1  0
 11 12  1  0
 12 13  1  0
 13  9  1  0
  1 14  1  0
  1 15  1  0
  1 16  1  0
  3 17  1  0
  3 18  1  0
  4 19  1  0
  4 20  1  0
  5 21  1  0
  6 22  1  0
  6 23  1  0
 10 24  1  0
 10 25  1  0
 11 26  1  0
 11 27  1  0
 12 28  1  0
 12 29  1  0
 13 30  1  0
M  END
$$$$

     RDKit          3D

 30 30  0  0  0  0  0  0  0  0999 V2000
    3.5351    1.1345    1.6892 C   0  0  0  0  0  0  0  0  0  0  0  0
    2.7361    0.0961    1.1960 O   0  0  0  0  0  0  0  0  0  0  0  0
    3.0849   -0.2545   -0.0835 C   0  0  0  0  0  0  0  0  0  0  0  0
    2.1830   -1.3687   -0.5518 C   0  0  0  0  0  0  0  0  0  0  0  0
    0.8185   -0.8429   -0.4994 N   0  0  0  0  0  0  0  0  0  0  0  0
   -0.1221   -1.7840   -1.0546 C   0  0  0  0  0  0  0  0  0  0  0  0
   -1.5298   -1.4896   -0.8425 C   0  0  0  0  0  0  0  0  0  0  0  0
   -2.3447   -2.3106   -1.4311 O   0  0  0  0  0  0  0  0  0  0  0  0
   -2.1189   -0.4772   -0.1125 N   0  0  0  0  0  0  0  0  0  0  0  0
   -1.5581    0.5767    0.7486 C   0  0  0  0  0  0  0  0  0  0  0  0
   -2.3304    1.7514    0.2002 C   0  0  0  0  0  0  0  0  0  0  0  0
   -3.6753    1.1864   -0.0817 C   0  0  0  0  0  0  0  0  0  0  0  0
   -3.5321   -0.2314   -0.0830 N   0  0  0  0  0  0  0  0  0  0  0  0
    4.5974    0.8419    1.7039 H   0  0  0  0  0  0  0  0  0  0  0  0
    3.3679    2.0317    1.0395 H   0  0  0  0  0  0  0  0  0  0  0  0
    3.2174    1.3294    2.7265 H   0  0  0  0  0  0  0  0  0  0  0  0
    2.8366    0.6263   -0.7420 H   0  0  0  0  0  0  0  0  0  0  0  0
    4.1573   -0.4996   -0.2045 H   0  0  0  0  0  0  0  0  0  0  0  0
    2.2230   -2.1376    0.2746 H   0  0  0  0  0  0  0  0  0  0  0  0
    2.4598   -1.8143   -1.4972 H   0  0  0  0  0  0  0  0  0  0  0  0
    0.7993    0.0669   -1.0681 H   0  0  0  0  0  0  0  0  0  0  0  0
    0.1212   -2.7849   -0.6358 H   0  0  0  0  0  0  0  0  0  0  0  0
    0.0813   -1.8751   -2.1514 H   0  0  0  0  0  0  0  0  0  0  0  0
   -0.4961    0.6934    0.7075 H   0  0  0  0  0  0  0  0  0  0  0  0
   -1.9483    0.4300    1.7964 H   0  0  0  0  0  0  0  0  0  0  0  0
   -1.8139    2.0683   -0.7584 H   0  0  0  0  0  0  0  0  0  0  0  0
   -2.3497    2.6069    0.9127 H   0  0  0  0  0  0  0  0  0  0  0  0
   -4.3381    1.4720    0.7860 H   0  0  0  0  0  0  0  0  0  0  0  0
   -4.1196    1.5717   -1.0331 H   0  0  0  0  0  0  0  0  0  0  0  0
   -3.9415   -0.6133   -0.9505 H   0  0  0  0  0  0  0  0  0  0  0  0
  1  2  1  0
  2  3  1  0
  3  4  1  0
  4  5  1  0
  5  6  1  0
  6  7  1  0
  7  8  2  0
  7  9  1  0
  9 10  1  0
 10 11  1  0
 11 12  1  0
 12 13  1  0
 13  9  1  0
  1 14  1  0
  1 15  1  0
  1 16  1  0
  3 17  1  0
  3 18  1  0
  4 19  1  0
  4 20  1  0
  5 21  1  0
  6 22  1  0
  6 23  1  0
 10 24  1  0
 10 25  1  0
 11 26  1  0
 11 27  1  0
 12 28  1  0
 12 29  1  0
 13 30  1  0
M  END
$$$$

     RDKit          3D

 30 30  0  0  0  0  0  0  0  0999 V2000
   -5.1728   -0.1423    1.1663 C   0  0  0  0  0  0  0  0  0  0  0  0
   -3.7755   -0.2515    1.0145 O   0  0  0  0  0  0  0  0  0  0  0  0
   -3.4298    0.6792    0.0411 C   0  0  0  0  0  0  0  0  0  0  0  0
   -1.9437    0.6887   -0.2446 C   0  0  0  0  0  0  0  0  0  0  0  0
   -1.4635   -0.5724   -0.7101 N   0  0  0  0  0  0  0  0  0  0  0  0
   -0.0608   -0.5532   -0.9703 C   0  0  0  0  0  0  0  0  0  0  0  0
    0.7430   -0.4399    0.2703 C   0  0  0  0  0  0  0  0  0  0  0  0
    0.1517   -0.3867    1.3636 O   0  0  0  0  0  0  0  0  0  0  0  0
    2.1731   -0.3911    0.2363 N   0  0  0  0  0  0  0  0  0  0  0  0
    3.0284   -0.4361   -0.9332 C   0  0  0  0  0  0  0  0  0  0  0  0
    4.4193   -0.1203   -0.4252 C   0  0  0  0  0  0  0  0  0  0  0  0
    4.0521    0.5982    0.8841 C   0  0  0  0  0  0  0  0  0  0  0  0
    3.0041   -0.2922    1.3488 N   0  0  0  0  0  0  0  0  0  0  0  0
   -5.4787    0.8627    1.4794 H   0  0  0  0  0  0  0  0  0  0  0  0
   -5.6129   -0.2872    0.1387 H   0  0  0  0  0  0  0  0  0  0  0  0
   -5.5678   -0.9125    1.8516 H   0  0  0  0  0  0  0  0  0  0  0  0
   -4.0308    0.4603   -0.8614 H   0  0  0  0  0  0  0  0  0  0  0  0
   -3.7170    1.6821    0.3975 H   0  0  0  0  0  0  0  0  0  0  0  0
   -1.3937    1.1199    0.5810 H   0  0  0  0  0  0  0  0  0  0  0  0
   -1.8283    1.4186   -1.1007 H   0  0  0  0  0  0  0  0  0  0  0  0
   -2.0225   -0.9169   -1.5059 H   0  0  0  0  0  0  0  0  0  0  0  0
    0.2429   -1.4798   -1.5194 H   0  0  0  0  0  0  0  0  0  0  0  0
    0.1921    0.2808   -1.6887 H   0  0  0  0  0  0  0  0  0  0  0  0
    2.6995    0.3430   -1.6638 H   0  0  0  0  0  0  0  0  0  0  0  0
    2.9465   -1.4533   -1.3650 H   0  0  0  0  0  0  0  0  0  0  0  0
    4.9745    0.5508   -1.0773 H   0  0  0  0  0  0  0  0  0  0  0  0
    4.9269   -1.0579   -0.1698 H   0  0  0  0  0  0  0  0  0  0  0  0
    4.9061    0.6569    1.5650 H   0  0  0  0  0  0  0  0  0  0  0  0
    3.5830    1.5862    0.6555 H   0  0  0  0  0  0  0  0  0  0  0  0
    3.4546   -1.2340    1.4742 H   0  0  0  0  0  0  0  0  0  0  0  0
  1  2  1  0
  2  3  1  0
  3  4  1  0
  4  5  1  0
  5  6  1  0
  6  7  1  0
  7  8  2  0
  7  9  1  0
  9 10  1  0
 10 11  1  0
 11 12  1  0
 12 13  1  0
 13  9  1  0
  1 14  1  0
  1 15  1  0
  1 16  1  0
  3 17  1  0
  3 18  1  0
  4 19  1  0
  4 20  1  0
  5 21  1  0
  6 22  1  0
  6 23  1  0
 10 24  1  0
 10 25  1  0
 11 26  1  0
 11 27  1  0
 12 28  1  0
 12 29  1  0
 13 30  1  0
M  END
$$$$

     RDKit          3D

 30 30  0  0  0  0  0  0  0  0999 V2000
    5.4938    0.4477   -0.0251 C   0  0  0  0  0  0  0  0  0  0  0  0
    4.3014   -0.1593   -0.4819 O   0  0  0  0  0  0  0  0  0  0  0  0
    3.3667    0.0226    0.5140 C   0  0  0  0  0  0  0  0  0  0  0  0
    1.9969   -0.5364    0.1940 C   0  0  0  0  0  0  0  0  0  0  0  0
    1.4103    0.0275   -0.9548 N   0  0  0  0  0  0  0  0  0  0  0  0
    0.0455   -0.3371   -1.1307 C   0  0  0  0  0  0  0  0  0  0  0  0
   -0.7891    0.3467   -0.0916 C   0  0  0  0  0  0  0  0  0  0  0  0
   -0.2047    1.0939    0.7285 O   0  0  0  0  0  0  0  0  0  0  0  0
   -2.2244    0.1586   -0.0249 N   0  0  0  0  0  0  0  0  0  0  0  0
   -3.0254    0.8004    0.9738 C   0  0  0  0  0  0  0  0  0  0  0  0
   -4.2455   -0.0656    1.1154 C   0  0  0  0  0  0  0  0  0  0  0  0
   -4.2877   -0.8074   -0.1868 C   0  0  0  0  0  0  0  0  0  0  0  0
   -3.0350   -0.5915   -0.8425 N   0  0  0  0  0  0  0  0  0  0  0  0
    5.2127    1.5286    0.1441 H   0  0  0  0  0  0  0  0  0  0  0  0
    5.7601    0.0319    0.9631 H   0  0  0  0  0  0  0  0  0  0  0  0
    6.2926    0.3548   -0.7808 H   0  0  0  0  0  0  0  0  0  0  0  0
    3.2398    1.0713    0.8336 H   0  0  0  0  0  0  0  0  0  0  0  0
    3.7314   -0.5352    1.4246 H   0  0  0  0  0  0  0  0  0  0  0  0
    1.3609   -0.4416    1.0832 H   0  0  0  0  0  0  0  0  0  0  0  0
    2.1325   -1.6500    0.0232 H   0  0  0  0  0  0  0  0  0  0  0  0
    1.6974    0.9495   -1.2648 H   0  0  0  0  0  0  0  0  0  0  0  0
   -0.3509   -0.1475   -2.1520 H   0  0  0  0  0  0  0  0  0  0  0  0
   -0.1239   -1.4351   -0.9770 H   0  0  0  0  0  0  0  0  0  0  0  0
   -2.5185    0.8302    1.9691 H   0  0  0  0  0  0  0  0  0  0  0  0
   -3.2642    1.8490    0.7088 H   0  0  0  0  0  0  0  0  0  0  0  0
   -4.0538   -0.7881    1.9439 H   0  0  0  0  0  0  0  0  0  0  0  0
   -5.1708    0.5343    1.3071 H   0  0  0  0  0  0  0  0  0  0  0  0
   -4.3983   -1.9126   -0.0254 H   0  0  0  0  0  0  0  0  0  0  0  0
   -5.1596   -0.4816   -0.8034 H   0  0  0  0  0  0  0  0  0  0  0  0
   -3.1903   -0.1580   -1.7847 H   0  0  0  0  0  0  0  0  0  0  0  0
  1  2  1  0
  2  3  1  0
  3  4  1  0
  4  5  1  0
  5  6  1  0
  6  7  1  0
  7  8  2  0
  7  9  1  0
  9 10  1  0
 10 11  1  0
 11 12  1  0
 12 13  1  0
 13  9  1  0
  1 14  1  0
  1 15  1  0
  1 16  1  0
  3 17  1  0
  3 18  1  0
  4 19  1  0
  4 20  1  0
  5 21  1  0
  6 22  1  0
  6 23  1  0
 10 24  1  0
 10 25  1  0
 11 26  1  0
 11 27  1  0
 12 28  1  0
 12 29  1  0
 13 30  1  0
M  END
$$$$
