
     RDKit          3D

 31 31  0  0  0  0  0  0  0  0999 V2000
    4.9712    1.0411   -1.5628 N   0  0  0  0  0  0  0  0  0  0  0  0
    3.7724    1.0248   -0.8191 C   0  0  0  0  0  0  0  0  0  0  0  0
    3.2651    2.0984   -0.4411 O   0  0  0  0  0  0  0  0  0  0  0  0
    3.1104   -0.2516   -0.4825 C   0  0  0  0  0  0  0  0  0  0  0  0
    1.8565    0.0111    0.3119 C   0  0  0  0  0  0  0  0  0  0  0  0
    1.5559    1.1851    0.5671 O   0  0  0  0  0  0  0  0  0  0  0  0
    1.0285   -1.0332    0.7654 N   0  0  0  0  0  0  0  0  0  0  0  0
   -0.1731   -0.9554    1.5063 C   0  0  0  0  0  0  0  0  0  0  0  0
   -1.3434   -0.2736    0.9125 C   0  0  2  0  0  0  0  0  0  0  0  0
   -1.7913   -0.9108   -0.4004 C   0  0  0  0  0  0  0  0  0  0  0  0
   -2.7744    0.0431   -1.0414 C   0  0  0  0  0  0  0  0  0  0  0  0
   -3.5774    0.6756    0.1045 C   0  0  0  0  0  0  0  0  0  0  0  0
   -2.7467    1.6331    0.8197 N   0  0  0  0  0  0  0  0  0  0  0  0
   -1.3273    1.1924    0.7552 C   0  0  0  0  0  0  0  0  0  0  0  0
    4.9439    0.9152   -2.5980 H   0  0  0  0  0  0  0  0  0  0  0  0
    5.9071    1.1751   -1.1266 H   0  0  0  0  0  0  0  0  0  0  0  0
    2.8770   -0.8683   -1.3710 H   0  0  0  0  0  0  0  0  0  0  0  0
    3.7744   -0.8342    0.2034 H   0  0  0  0  0  0  0  0  0  0  0  0
    1.3870   -2.0104    0.4944 H   0  0  0  0  0  0  0  0  0  0  0  0
   -0.5144   -2.0109    1.7457 H   0  0  0  0  0  0  0  0  0  0  0  0
    0.0032   -0.5441    2.5591 H   0  0  0  0  0  0  0  0  0  0  0  0
   -2.2222   -0.5034    1.6214 H   0  0  0  0  0  0  0  0  0  0  0  0
   -2.2866   -1.8543   -0.1819 H   0  0  0  0  0  0  0  0  0  0  0  0
   -0.9268   -1.0098   -1.0879 H   0  0  0  0  0  0  0  0  0  0  0  0
   -3.4511   -0.5095   -1.7255 H   0  0  0  0  0  0  0  0  0  0  0  0
   -2.2759    0.8548   -1.6137 H   0  0  0  0  0  0  0  0  0  0  0  0
   -4.0165   -0.0900    0.7475 H   0  0  0  0  0  0  0  0  0  0  0  0
   -4.3966    1.2329   -0.3654 H   0  0  0  0  0  0  0  0  0  0  0  0
   -2.8030    2.5376    0.3082 H   0  0  0  0  0  0  0  0  0  0  0  0
   -0.8655    1.7007    1.6234 H   0  0  0  0  0  0  0  0  0  0  0  0
   -0.9604    1.5593   -0.2283 H   0  0  0  0  0  0  0  0  0  0  0  0
  1  2  1  0
  2  3  2  0
  2  4  1  0
  4  5  1  0
  5  6  2  0
  5  7  1  0
  7  8  1  0
  8  9  1  0
  9 10  1  0
 10 11  1  0
 11 12  1  0
 12 13  1  0
 13 14  1  0
 14  9  1  0
  1 15  1  0
  1 16  1  0
  4 17  1  0
  4 18  1  0
  7 19  1  0
  8 20  1  0
  8 21  1  0
  9 22  1  1
 10 23  1  0
 10 24  1  0
 11 25  1  0
 11 26  1  0
 12 27  1  0
 12 28  1  0
 13 29  1  0
 14 30  1  0
 14 31  1  0
M  END
$$$$

     RDKit          3D

 31 31  0  0  0  0  0  0  0  0999 V2000
    5.0062    0.4703    0.7894 N   0  0  0  0  0  0  0  0  0  0  0  0
    4.8279   -0.0443   -0.5183 C   0  0  0  0  0  0  0  0  0  0  0  0
    5.8430   -0.3477   -1.1909 O   0  0  0  0  0  0  0  0  0  0  0  0
    3.4614   -0.2170   -1.0720 C   0  0  0  0  0  0  0  0  0  0  0  0
    2.4210    0.2062   -0.1005 C   0  0  0  0  0  0  0  0  0  0  0  0
    2.7916    0.6419    1.0267 O   0  0  0  0  0  0  0  0  0  0  0  0
    1.0613    0.1050   -0.4743 N   0  0  0  0  0  0  0  0  0  0  0  0
    0.0589    0.5118    0.4595 C   0  0  0  0  0  0  0  0  0  0  0  0
   -1.3387    0.3455   -0.0813 C   0  0  2  0  0  0  0  0  0  0  0  0
   -2.3319    0.7991    0.9707 C   0  0  0  0  0  0  0  0  0  0  0  0
   -3.7238    0.5353    0.3895 C   0  0  0  0  0  0  0  0  0  0  0  0
   -3.8034   -0.9869    0.2210 C   0  0  0  0  0  0  0  0  0  0  0  0
   -2.9312   -1.3089   -0.8923 N   0  0  0  0  0  0  0  0  0  0  0  0
   -1.5773   -1.0863   -0.4969 C   0  0  0  0  0  0  0  0  0  0  0  0
    5.0052    1.5036    0.9264 H   0  0  0  0  0  0  0  0  0  0  0  0
    5.1377   -0.1838    1.6104 H   0  0  0  0  0  0  0  0  0  0  0  0
    3.3899    0.4669   -1.9607 H   0  0  0  0  0  0  0  0  0  0  0  0
    3.2910   -1.2569   -1.4166 H   0  0  0  0  0  0  0  0  0  0  0  0
    0.8298   -0.2569   -1.4038 H   0  0  0  0  0  0  0  0  0  0  0  0
    0.1416   -0.0330    1.4220 H   0  0  0  0  0  0  0  0  0  0  0  0
    0.2165    1.5846    0.6893 H   0  0  0  0  0  0  0  0  0  0  0  0
   -1.4961    0.9846   -0.9737 H   0  0  0  0  0  0  0  0  0  0  0  0
   -2.1952    0.2824    1.9266 H   0  0  0  0  0  0  0  0  0  0  0  0
   -2.2262    1.9046    1.0501 H   0  0  0  0  0  0  0  0  0  0  0  0
   -3.7086    0.9693   -0.6347 H   0  0  0  0  0  0  0  0  0  0  0  0
   -4.5226    0.9266    1.0179 H   0  0  0  0  0  0  0  0  0  0  0  0
   -3.3569   -1.4902    1.1182 H   0  0  0  0  0  0  0  0  0  0  0  0
   -4.8317   -1.3338    0.0774 H   0  0  0  0  0  0  0  0  0  0  0  0
   -3.1569   -0.6731   -1.6723 H   0  0  0  0  0  0  0  0  0  0  0  0
   -1.3568   -1.7242    0.3806 H   0  0  0  0  0  0  0  0  0  0  0  0
   -0.9258   -1.2947   -1.3652 H   0  0  0  0  0  0  0  0  0  0  0  0
  1  2  1  0
  2  3  2  0
  2  4  1  0
  4  5  1  0
  5  6  2  0
  5  7  1  0
  7  8  1  0
  8  9  1  0
  9 10  1  0
 10 11  1  0
 11 12  1  0
 12 13  1  0
 13 14  1  0
 14  9  1  0
  1 15  1  0
  1 16  1  0
  4 17  1  0
  4 18  1  0
  7 19  1  0
  8 20  1  0
  8 21  1  0
  9 22  1  6
 10 23  1  0
 10 24  1  0
 11 25  1  0
 11 26  1  0
 12 27  1  0
 12 28  1  0
 13 29  1  0
 14 30  1  0
 14 31  1  0
M  END
$$$$

     RDKit          3D

 31 31  0  0  0  0  0  0  0  0999 V2000
    5.5878    1.1991   -0.4951 N   0  0  0  0  0  0  0  0  0  0  0  0
    4.2793    1.2206    0.0638 C   0  0  0  0  0  0  0  0  0  0  0  0
    3.9465    2.0936    0.8874 O   0  0  0  0  0  0  0  0  0  0  0  0
    3.3240    0.1921   -0.3485 C   0  0  0  0  0  0  0  0  0  0  0  0
    2.0297    0.3961    0.3478 C   0  0  0  0  0  0  0  0  0  0  0  0
    1.8942    1.3599    1.1611 O   0  0  0  0  0  0  0  0  0  0  0  0
    0.8996   -0.4349    0.1631 N   0  0  0  0  0  0  0  0  0  0  0  0
   -0.3493   -0.1850    0.8766 C   0  0  0  0  0  0  0  0  0  0  0  0
   -1.4084   -1.1775    0.5355 C   0  0  2  0  0  0  0  0  0  0  0  0
   -1.7493   -1.1749   -0.9174 C   0  0  0  0  0  0  0  0  0  0  0  0
   -2.5578    0.0108   -1.3532 C   0  0  0  0  0  0  0  0  0  0  0  0
   -3.5104    0.5252   -0.3476 C   0  0  0  0  0  0  0  0  0  0  0  0
   -3.1177    0.4128    1.0101 N   0  0  0  0  0  0  0  0  0  0  0  0
   -2.6251   -0.8787    1.3757 C   0  0  0  0  0  0  0  0  0  0  0  0
    6.3417    1.6765    0.0247 H   0  0  0  0  0  0  0  0  0  0  0  0
    5.7707    0.7145   -1.4013 H   0  0  0  0  0  0  0  0  0  0  0  0
    3.1689    0.1599   -1.4449 H   0  0  0  0  0  0  0  0  0  0  0  0
    3.6981   -0.8114   -0.0219 H   0  0  0  0  0  0  0  0  0  0  0  0
    0.9711   -1.2371   -0.4967 H   0  0  0  0  0  0  0  0  0  0  0  0
   -0.7156    0.8273    0.6184 H   0  0  0  0  0  0  0  0  0  0  0  0
   -0.1353   -0.2238    1.9594 H   0  0  0  0  0  0  0  0  0  0  0  0
   -1.0564   -2.1881    0.8146 H   0  0  0  0  0  0  0  0  0  0  0  0
   -2.2602   -2.1452   -1.1588 H   0  0  0  0  0  0  0  0  0  0  0  0
   -0.8045   -1.1833   -1.4991 H   0  0  0  0  0  0  0  0  0  0  0  0
   -1.8936    0.8525   -1.6894 H   0  0  0  0  0  0  0  0  0  0  0  0
   -3.1307   -0.2930   -2.2605 H   0  0  0  0  0  0  0  0  0  0  0  0
   -3.7022    1.6108   -0.5693 H   0  0  0  0  0  0  0  0  0  0  0  0
   -4.5000    0.0021   -0.4775 H   0  0  0  0  0  0  0  0  0  0  0  0
   -2.5895    1.2108    1.3937 H   0  0  0  0  0  0  0  0  0  0  0  0
   -2.3758   -0.9080    2.4421 H   0  0  0  0  0  0  0  0  0  0  0  0
   -3.4300   -1.6235    1.1074 H   0  0  0  0  0  0  0  0  0  0  0  0
  1  2  1  0
  2  3  2  0
  2  4  1  0
  4  5  1  0
  5  6  2  0
  5  7  1  0
  7  8  1  0
  8  9  1  0
  9 10  1  0
 10 11  1  0
 11 12  1  0
 12 13  1  0
 13 14  1  0
 14  9  1  0
  1 15  1  0
  1 16  1  0
  4 17  1  0
  4 18  1  0
  7 19  1  0
  8 20  1  0
  8 21  1  0
  9 22  1  1
 10 23  1  0
 10 24  1  0
 11 25  1  0
 11 26  1  0
 12 27  1  0
 12 28  1  0
 13 29  1  0
 14 30  1  0
 14 31  1  0
M  END
$$$$

     RDKit          3D

 31 31  0  0  0  0  0  0  0  0999 V2000
    5.5017    0.2696    0.6198 N   0  0  0  0  0  0  0  0  0  0  0  0
    4.1863    0.5975    0.1966 C   0  0  0  0  0  0  0  0  0  0  0  0
    3.8663    1.8056    0.0698 O   0  0  0  0  0  0  0  0  0  0  0  0
    3.1936   -0.4568   -0.0950 C   0  0  0  0  0  0  0  0  0  0  0  0
    1.9106    0.1493   -0.5141 C   0  0  0  0  0  0  0  0  0  0  0  0
    1.8162    1.3882   -0.5708 O   0  0  0  0  0  0  0  0  0  0  0  0
    0.7849   -0.6558   -0.8528 N   0  0  0  0  0  0  0  0  0  0  0  0
   -0.4788   -0.1225   -1.2636 C   0  0  0  0  0  0  0  0  0  0  0  0
   -1.1304    0.7644   -0.2385 C   0  0  2  0  0  0  0  0  0  0  0  0
   -1.4007    0.0430    1.0627 C   0  0  0  0  0  0  0  0  0  0  0  0
   -2.2500   -1.1826    0.7817 C   0  0  0  0  0  0  0  0  0  0  0  0
   -3.5100   -0.7265    0.1110 C   0  0  0  0  0  0  0  0  0  0  0  0
   -3.2990    0.1369   -1.0078 N   0  0  0  0  0  0  0  0  0  0  0  0
   -2.4592    1.2619   -0.7543 C   0  0  0  0  0  0  0  0  0  0  0  0
    6.3309    0.6457    0.1216 H   0  0  0  0  0  0  0  0  0  0  0  0
    5.6522   -0.3494    1.4315 H   0  0  0  0  0  0  0  0  0  0  0  0
    3.5238   -1.1256   -0.9046 H   0  0  0  0  0  0  0  0  0  0  0  0
    2.9950   -1.0735    0.8162 H   0  0  0  0  0  0  0  0  0  0  0  0
    0.9319   -1.6974   -0.7841 H   0  0  0  0  0  0  0  0  0  0  0  0
   -1.1248   -0.9361   -1.6172 H   0  0  0  0  0  0  0  0  0  0  0  0
   -0.2825    0.5254   -2.1578 H   0  0  0  0  0  0  0  0  0  0  0  0
   -0.4374    1.5979   -0.0150 H   0  0  0  0  0  0  0  0  0  0  0  0
   -0.5018   -0.1729    1.6433 H   0  0  0  0  0  0  0  0  0  0  0  0
   -2.0424    0.7255    1.6703 H   0  0  0  0  0  0  0  0  0  0  0  0
   -2.5069   -1.6492    1.7490 H   0  0  0  0  0  0  0  0  0  0  0  0
   -1.6943   -1.9432    0.1955 H   0  0  0  0  0  0  0  0  0  0  0  0
   -4.2134   -0.3234    0.8683 H   0  0  0  0  0  0  0  0  0  0  0  0
   -4.0142   -1.6548   -0.2856 H   0  0  0  0  0  0  0  0  0  0  0  0
   -4.2091    0.4163   -1.3945 H   0  0  0  0  0  0  0  0  0  0  0  0
   -2.8627    1.9604    0.0060 H   0  0  0  0  0  0  0  0  0  0  0  0
   -2.2756    1.7820   -1.7088 H   0  0  0  0  0  0  0  0  0  0  0  0
  1  2  1  0
  2  3  2  0
  2  4  1  0
  4  5  1  0
  5  6  2  0
  5  7  1  0
  7  8  1  0
  8  9  1  0
  9 10  1  0
 10 11  1  0
 11 12  1  0
 12 13  1  0
 13 14  1  0
 14  9  1  0
  1 15  1  0
  1 16  1  0
  4 17  1  0
  4 18  1  0
  7 19  1  0
  8 20  1  0
  8 21  1  0
  9 22  1  1
 10 23  1  0
 10 24  1  0
 11 25  1  0
 11 26  1  0
 12 27  1  0
 12 28  1  0
 13 29  1  0
 14 30  1  0
 14 31  1  0
M  END
$$$$

     RDKit          3D

 31 31  0  0  0  0  0  0  0  0999 V2000
    4.9725   -2.1695   -1.0153 N   0  0  0  0  0  0  0  0  0  0  0  0
    3.6094   -1.8141   -0.7298 C   0  0  0  0  0  0  0  0  0  0  0  0
    2.6987   -2.3989   -1.3684 O   0  0  0  0  0  0  0  0  0  0  0  0
    3.2806   -0.8029    0.2726 C   0  0  0  0  0  0  0  0  0  0  0  0
    1.7999   -0.6343    0.3635 C   0  0  0  0  0  0  0  0  0  0  0  0
    1.0972   -1.3458   -0.3918 O   0  0  0  0  0  0  0  0  0  0  0  0
    1.2547    0.2956    1.2726 N   0  0  0  0  0  0  0  0  0  0  0  0
   -0.1077    0.5717    1.4629 C   0  0  0  0  0  0  0  0  0  0  0  0
   -0.9232    1.1443    0.3744 C   0  0  2  0  0  0  0  0  0  0  0  0
   -2.3418    1.3335    0.9689 C   0  0  0  0  0  0  0  0  0  0  0  0
   -3.1762    0.1699    0.5039 C   0  0  0  0  0  0  0  0  0  0  0  0
   -3.4925    0.3979   -0.9679 C   0  0  0  0  0  0  0  0  0  0  0  0
   -2.3063    0.9928   -1.5599 N   0  0  0  0  0  0  0  0  0  0  0  0
   -1.1162    0.3882   -0.8822 C   0  0  0  0  0  0  0  0  0  0  0  0
    5.6602   -1.4097   -1.1959 H   0  0  0  0  0  0  0  0  0  0  0  0
    5.3028   -3.1448   -1.0500 H   0  0  0  0  0  0  0  0  0  0  0  0
    3.6053   -1.1813    1.2649 H   0  0  0  0  0  0  0  0  0  0  0  0
    3.7277    0.1849    0.0345 H   0  0  0  0  0  0  0  0  0  0  0  0
    1.9782    0.8238    1.8570 H   0  0  0  0  0  0  0  0  0  0  0  0
   -0.2382    1.2909    2.3389 H   0  0  0  0  0  0  0  0  0  0  0  0
   -0.6310   -0.3488    1.8639 H   0  0  0  0  0  0  0  0  0  0  0  0
   -0.5955    2.1808    0.1116 H   0  0  0  0  0  0  0  0  0  0  0  0
   -2.8035    2.2481    0.5291 H   0  0  0  0  0  0  0  0  0  0  0  0
   -2.3165    1.3507    2.0599 H   0  0  0  0  0  0  0  0  0  0  0  0
   -4.1369    0.1879    1.1081 H   0  0  0  0  0  0  0  0  0  0  0  0
   -2.7505   -0.8166    0.7011 H   0  0  0  0  0  0  0  0  0  0  0  0
   -3.7279   -0.5387   -1.4990 H   0  0  0  0  0  0  0  0  0  0  0  0
   -4.3282    1.1135   -1.0102 H   0  0  0  0  0  0  0  0  0  0  0  0
   -2.2799    2.0196   -1.4732 H   0  0  0  0  0  0  0  0  0  0  0  0
   -1.4088   -0.6625   -0.7911 H   0  0  0  0  0  0  0  0  0  0  0  0
   -0.3064    0.5738   -1.6243 H   0  0  0  0  0  0  0  0  0  0  0  0
  1  2  1  0
  2  3  2  0
  2  4  1  0
  4  5  1  0
  5  6  2  0
  5  7  1  0
  7  8  1  0
  8  9  1  0
  9 10  1  0
 10 11  1  0
 11 12  1  0
 12 13  1  0
 13 14  1  0
 14  9  1  0
  1 15  1  0
  1 16  1  0
  4 17  1  0
  4 18  1  0
  7 19  1  0
  8 20  1  0
  8 21  1  0
  9 22  1  6
 10 23  1  0
 10 24  1  0
 11 25  1  0
 11 26  1  0
 12 27  1  0
 12 28  1  0
 13 29  1  0
 14 30  1  0
 14 31  1  0
M  END
$$$$

     RDKit          3D

 31 31  0  0  0  0  0  0  0  0999 V2000
    5.3273    0.4473    0.1628 N   0  0  0  0  0  0  0  0  0  0  0  0
    4.5027   -0.3089    1.0192 C   0  0  0  0  0  0  0  0  0  0  0  0
    4.7674   -0.3242    2.2668 O   0  0  0  0  0  0  0  0  0  0  0  0
    3.3384   -1.0876    0.5450 C   0  0  0  0  0  0  0  0  0  0  0  0
    2.2640   -0.1000    0.1943 C   0  0  0  0  0  0  0  0  0  0  0  0
    2.4512    1.1430    0.2604 O   0  0  0  0  0  0  0  0  0  0  0  0
    0.9833   -0.5172   -0.2292 N   0  0  0  0  0  0  0  0  0  0  0  0
   -0.0643    0.4337   -0.5819 C   0  0  0  0  0  0  0  0  0  0  0  0
   -1.3378   -0.2797   -0.9708 C   0  0  2  0  0  0  0  0  0  0  0  0
   -2.3900    0.7235   -1.3368 C   0  0  0  0  0  0  0  0  0  0  0  0
   -2.9383    1.3420   -0.0666 C   0  0  0  0  0  0  0  0  0  0  0  0
   -3.6702    0.2956    0.7296 C   0  0  0  0  0  0  0  0  0  0  0  0
   -3.2445   -1.0193    0.3145 N   0  0  0  0  0  0  0  0  0  0  0  0
   -1.8106   -1.0245    0.2719 C   0  0  0  0  0  0  0  0  0  0  0  0
    5.4044    1.4949    0.3330 H   0  0  0  0  0  0  0  0  0  0  0  0
    5.8481   -0.0046   -0.6127 H   0  0  0  0  0  0  0  0  0  0  0  0
    2.9328   -1.7281    1.3587 H   0  0  0  0  0  0  0  0  0  0  0  0
    3.6188   -1.7299   -0.3084 H   0  0  0  0  0  0  0  0  0  0  0  0
    0.7544   -1.5275   -0.3055 H   0  0  0  0  0  0  0  0  0  0  0  0
   -0.2122    1.1082    0.2631 H   0  0  0  0  0  0  0  0  0  0  0  0
    0.3054    0.9933   -1.4905 H   0  0  0  0  0  0  0  0  0  0  0  0
   -1.1515   -1.0180   -1.7909 H   0  0  0  0  0  0  0  0  0  0  0  0
   -1.9646    1.5434   -1.9586 H   0  0  0  0  0  0  0  0  0  0  0  0
   -3.2329    0.2566   -1.9075 H   0  0  0  0  0  0  0  0  0  0  0  0
   -2.1096    1.7189    0.5349 H   0  0  0  0  0  0  0  0  0  0  0  0
   -3.6664    2.1511   -0.3045 H   0  0  0  0  0  0  0  0  0  0  0  0
   -3.3871    0.3705    1.8193 H   0  0  0  0  0  0  0  0  0  0  0  0
   -4.7704    0.4493    0.6837 H   0  0  0  0  0  0  0  0  0  0  0  0
   -3.7171   -1.3423   -0.5538 H   0  0  0  0  0  0  0  0  0  0  0  0
   -1.4597   -0.4330    1.1478 H   0  0  0  0  0  0  0  0  0  0  0  0
   -1.3706   -2.0269    0.3558 H   0  0  0  0  0  0  0  0  0  0  0  0
  1  2  1  0
  2  3  2  0
  2  4  1  0
  4  5  1  0
  5  6  2  0
  5  7  1  0
  7  8  1  0
  8  9  1  0
  9 10  1  0
 10 11  1  0
 11 12  1  0
 12 13  1  0
 13 14  1  0
 14  9  1  0
  1 15  1  0
  1 16  1  0
  4 17  1  0
  4 18  1  0
  7 19  1  0
  8 20  1  0
  8 21  1  0
  9 22  1  6
 10 23  1  0
 10 24  1  0
 11 25  1  0
 11 26  1  0
 12 27  1  0
 12 28  1  0
 13 29  1  0
 14 30  1  0
 14 31  1  0
M  END
$$$$

     RDKit          3D

 31 31  0  0  0  0  0  0  0  0999 V2000
    5.2216    1.6837    0.1003 N   0  0  0  0  0  0  0  0  0  0  0  0
    3.8101    1.4408   -0.0729 C   0  0  0  0  0  0  0  0  0  0  0  0
    3.0106    2.4105   -0.0315 O   0  0  0  0  0  0  0  0  0  0  0  0
    3.3409    0.0736   -0.2924 C   0  0  0  0  0  0  0  0  0  0  0  0
    1.8398    0.0981   -0.4408 C   0  0  0  0  0  0  0  0  0  0  0  0
    1.2764    1.1966   -0.3595 O   0  0  0  0  0  0  0  0  0  0  0  0
    1.1162   -1.0727   -0.6611 N   0  0  0  0  0  0  0  0  0  0  0  0
   -0.2526   -1.2923   -0.7982 C   0  0  0  0  0  0  0  0  0  0  0  0
   -1.1716   -1.1423    0.3467 C   0  0  2  0  0  0  0  0  0  0  0  0
   -2.5746   -1.5065   -0.1763 C   0  0  0  0  0  0  0  0  0  0  0  0
   -3.5672   -0.4310    0.0868 C   0  0  0  0  0  0  0  0  0  0  0  0
   -3.0892    0.9553   -0.2457 C   0  0  0  0  0  0  0  0  0  0  0  0
   -1.6756    1.1325   -0.0684 N   0  0  0  0  0  0  0  0  0  0  0  0
   -1.2432    0.2123    0.9649 C   0  0  0  0  0  0  0  0  0  0  0  0
    5.5404    2.5129    0.6407 H   0  0  0  0  0  0  0  0  0  0  0  0
    5.8916    1.0025   -0.3333 H   0  0  0  0  0  0  0  0  0  0  0  0
    3.5414   -0.5474    0.6068 H   0  0  0  0  0  0  0  0  0  0  0  0
    3.7774   -0.4284   -1.1719 H   0  0  0  0  0  0  0  0  0  0  0  0
    1.7511   -1.9538   -0.7334 H   0  0  0  0  0  0  0  0  0  0  0  0
   -0.4406   -2.3128   -1.3174 H   0  0  0  0  0  0  0  0  0  0  0  0
   -0.6229   -0.6147   -1.6780 H   0  0  0  0  0  0  0  0  0  0  0  0
   -0.8832   -1.8552    1.1630 H   0  0  0  0  0  0  0  0  0  0  0  0
   -2.8748   -2.4155    0.3793 H   0  0  0  0  0  0  0  0  0  0  0  0
   -2.5289   -1.7925   -1.2427 H   0  0  0  0  0  0  0  0  0  0  0  0
   -4.4577   -0.6276   -0.5473 H   0  0  0  0  0  0  0  0  0  0  0  0
   -3.9506   -0.4738    1.1441 H   0  0  0  0  0  0  0  0  0  0  0  0
   -3.5933    1.6674    0.4643 H   0  0  0  0  0  0  0  0  0  0  0  0
   -3.3500    1.2771   -1.2748 H   0  0  0  0  0  0  0  0  0  0  0  0
   -1.4826    2.1106    0.1955 H   0  0  0  0  0  0  0  0  0  0  0  0
   -0.3006    0.4886    1.4283 H   0  0  0  0  0  0  0  0  0  0  0  0
   -2.0583    0.2038    1.7825 H   0  0  0  0  0  0  0  0  0  0  0  0
  1  2  1  0
  2  3  2  0
  2  4  1  0
  4  5  1  0
  5  6  2  0
  5  7  1  0
  7  8  1  0
  8  9  1  0
  9 10  1  0
 10 11  1  0
 11 12  1  0
 12 13  1  0
 13 14  1  0
 14  9  1  0
  1 15  1  0
  1 16  1  0
  4 17  1  0
  4 18  1  0
  7 19  1  0
  8 20  1  0
  8 21  1  0
  9 22  1  1
 10 23  1  0
 10 24  1  0
 11 25  1  0
 11 26  1  0
 12 27  1  0
 12 28  1  0
 13 29  1  0
 14 30  1  0
 14 31  1  0
M  END
$$$$

     RDKit          3D

 31 31  0  0  0  0  0  0  0  0999 V2000
    5.0834    0.6934   -0.3463 N   0  0  0  0  0  0  0  0  0  0  0  0
    3.7944    0.9951   -0.9104 C   0  0  0  0  0  0  0  0  0  0  0  0
    3.4385    2.1855   -1.0208 O   0  0  0  0  0  0  0  0  0  0  0  0
    2.9409   -0.1338   -1.3385 C   0  0  0  0  0  0  0  0  0  0  0  0
    1.8690   -0.3307   -0.3329 C   0  0  0  0  0  0  0  0  0  0  0  0
    1.8212    0.4121    0.6568 O   0  0  0  0  0  0  0  0  0  0  0  0
    0.9301   -1.3570   -0.5247 N   0  0  0  0  0  0  0  0  0  0  0  0
   -0.1709   -1.6907    0.3116 C   0  0  0  0  0  0  0  0  0  0  0  0
   -1.2718   -0.7229    0.4632 C   0  0  2  0  0  0  0  0  0  0  0  0
   -1.9405   -0.3831   -0.8759 C   0  0  0  0  0  0  0  0  0  0  0  0
   -3.2792    0.2202   -0.5240 C   0  0  0  0  0  0  0  0  0  0  0  0
   -3.2463    1.2809    0.5120 C   0  0  0  0  0  0  0  0  0  0  0  0
   -2.3504    1.0533    1.6200 N   0  0  0  0  0  0  0  0  0  0  0  0
   -1.0384    0.5735    1.1436 C   0  0  0  0  0  0  0  0  0  0  0  0
    5.3118   -0.2101    0.0979 H   0  0  0  0  0  0  0  0  0  0  0  0
    5.8258    1.4268   -0.3883 H   0  0  0  0  0  0  0  0  0  0  0  0
    3.5341   -1.0606   -1.4505 H   0  0  0  0  0  0  0  0  0  0  0  0
    2.4238    0.0895   -2.3115 H   0  0  0  0  0  0  0  0  0  0  0  0
    1.0529   -1.9672   -1.4087 H   0  0  0  0  0  0  0  0  0  0  0  0
    0.2530   -1.9722    1.3351 H   0  0  0  0  0  0  0  0  0  0  0  0
   -0.6453   -2.6616   -0.0287 H   0  0  0  0  0  0  0  0  0  0  0  0
   -2.1084   -1.2291    1.0812 H   0  0  0  0  0  0  0  0  0  0  0  0
   -2.0939   -1.3159   -1.4216 H   0  0  0  0  0  0  0  0  0  0  0  0
   -1.3230    0.3605   -1.4036 H   0  0  0  0  0  0  0  0  0  0  0  0
   -3.9269   -0.6330   -0.1819 H   0  0  0  0  0  0  0  0  0  0  0  0
   -3.7326    0.6364   -1.4461 H   0  0  0  0  0  0  0  0  0  0  0  0
   -4.2802    1.3303    0.9658 H   0  0  0  0  0  0  0  0  0  0  0  0
   -3.1074    2.2925    0.0516 H   0  0  0  0  0  0  0  0  0  0  0  0
   -2.7182    0.3234    2.2418 H   0  0  0  0  0  0  0  0  0  0  0  0
   -0.5967    1.3485    0.4807 H   0  0  0  0  0  0  0  0  0  0  0  0
   -0.4491    0.4459    2.0585 H   0  0  0  0  0  0  0  0  0  0  0  0
  1  2  1  0
  2  3  2  0
  2  4  1  0
  4  5  1  0
  5  6  2  0
  5  7  1  0
  7  8  1  0
  8  9  1  0
  9 10  1  0
 10 11  1  0
 11 12  1  0
 12 13  1  0
 13 14  1  0
 14  9  1  0
  1 15  1  0
  1 16  1  0
  4 17  1  0
  4 18  1  0
  7 19  1  0
  8 20  1  0
  8 21  1  0
  9 22  1  1
 10 23  1  0
 10 24  1  0
 11 25  1  0
 11 26  1  0
 12 27  1  0
 12 28  1  0
 13 29  1  0
 14 30  1  0
 14 31  1  0
M  END
$$$$
