
     RDKit          3D

 19 18  0  0  0  0  0  0  0  0999 V2000
    2.4425   -1.2462    0.9816 O   0  0  0  0  0  0  0  0  0  0  0  0
    2.2403    0.1217    0.8095 C   0  0  0  0  0  0  0  0  0  0  0  0
    3.3220    0.6278    0.0897 O   0  0  0  0  0  0  0  0  0  0  0  0
    1.0009    0.3713   -0.0242 C   0  0  0  0  0  0  0  0  0  0  0  0
   -0.1474   -0.1500    0.5627 O   0  0  0  0  0  0  0  0  0  0  0  0
   -1.1978    0.1539   -0.3111 C   0  0  0  0  0  0  0  0  0  0  0  0
   -2.5128   -0.3542    0.2003 C   0  0  0  0  0  0  0  0  0  0  0  0
   -2.5298   -1.7223    0.3702 O   0  0  0  0  0  0  0  0  0  0  0  0
   -2.7907    0.3263    1.3820 O   0  0  0  0  0  0  0  0  0  0  0  0
    3.0099   -1.5671    0.2404 H   0  0  0  0  0  0  0  0  0  0  0  0
    2.1690    0.5728    1.8138 H   0  0  0  0  0  0  0  0  0  0  0  0
    2.9979    1.3964   -0.4436 H   0  0  0  0  0  0  0  0  0  0  0  0
    1.1417   -0.1636   -0.9864 H   0  0  0  0  0  0  0  0  0  0  0  0
    0.8195    1.4547   -0.1725 H   0  0  0  0  0  0  0  0  0  0  0  0
   -0.9568   -0.2192   -1.3331 H   0  0  0  0  0  0  0  0  0  0  0  0
   -1.3090    1.2698   -0.4194 H   0  0  0  0  0  0  0  0  0  0  0  0
   -3.2875   -0.0814   -0.5365 H   0  0  0  0  0  0  0  0  0  0  0  0
   -1.6190   -2.0915    0.2434 H   0  0  0  0  0  0  0  0  0  0  0  0
   -2.7929    1.3006    1.1681 H   0  0  0  0  0  0  0  0  0  0  0  0
  1  2  1  0
  2  3  1  0
  2  4  1  0
  4  5  1  0
  5  6  1  0
  6  7  1  0
  7  8  1  0
  7  9  1  0
  1 10  1  0
  2 11  1  0
  3 12  1  0
  4 13  1  0
  4 14  1  0
  6 15  1  0
  6 16  1  0
  7 17  1  0
  8 18  1  0
  9 19  1  0
M  END
$$$$

     RDKit          3D

 19 18  0  0  0  0  0  0  0  0999 V2000
    3.4571   -0.1948   -0.4645 O   0  0  0  0  0  0  0  0  0  0  0  0
    2.3950    0.2379    0.3416 C   0  0  0  0  0  0  0  0  0  0  0  0
    2.4600    1.6065    0.4192 O   0  0  0  0  0  0  0  0  0  0  0  0
    1.1287   -0.2723   -0.2869 C   0  0  0  0  0  0  0  0  0  0  0  0
   -0.0107    0.0881    0.4171 O   0  0  0  0  0  0  0  0  0  0  0  0
   -1.1009   -0.4460   -0.2713 C   0  0  0  0  0  0  0  0  0  0  0  0
   -2.3619   -0.0541    0.4968 C   0  0  0  0  0  0  0  0  0  0  0  0
   -3.4963   -0.5591   -0.1410 O   0  0  0  0  0  0  0  0  0  0  0  0
   -2.4526    1.3158    0.6454 O   0  0  0  0  0  0  0  0  0  0  0  0
    3.2014   -0.2467   -1.4127 H   0  0  0  0  0  0  0  0  0  0  0  0
    2.5777   -0.2427    1.3436 H   0  0  0  0  0  0  0  0  0  0  0  0
    2.3045    1.9788    1.3226 H   0  0  0  0  0  0  0  0  0  0  0  0
    1.2125   -1.3952   -0.3041 H   0  0  0  0  0  0  0  0  0  0  0  0
    1.1216    0.0851   -1.3403 H   0  0  0  0  0  0  0  0  0  0  0  0
   -1.1453   -0.1339   -1.3250 H   0  0  0  0  0  0  0  0  0  0  0  0
   -1.0579   -1.5613   -0.2498 H   0  0  0  0  0  0  0  0  0  0  0  0
   -2.3048   -0.5280    1.4902 H   0  0  0  0  0  0  0  0  0  0  0  0
   -3.3805   -1.4653   -0.4726 H   0  0  0  0  0  0  0  0  0  0  0  0
   -2.5476    1.7872   -0.2082 H   0  0  0  0  0  0  0  0  0  0  0  0
  1  2  1  0
  2  3  1  0
  2  4  1  0
  4  5  1  0
  5  6  1  0
  6  7  1  0
  7  8  1  0
  7  9  1  0
  1 10  1  0
  2 11  1  0
  3 12  1  0
  4 13  1  0
  4 14  1  0
  6 15  1  0
  6 16  1  0
  7 17  1  0
  8 18  1  0
  9 19  1  0
M  END
$$$$

     RDKit          3D

 19 18  0  0  0  0  0  0  0  0999 V2000
    3.1467   -0.5575    0.5499 O   0  0  0  0  0  0  0  0  0  0  0  0
    1.9175   -0.0975    0.0274 C   0  0  0  0  0  0  0  0  0  0  0  0
    2.0641    1.2397   -0.2369 O   0  0  0  0  0  0  0  0  0  0  0  0
    0.8664   -0.4231    1.0365 C   0  0  0  0  0  0  0  0  0  0  0  0
   -0.4029   -0.0435    0.6900 O   0  0  0  0  0  0  0  0  0  0  0  0
   -0.8874   -0.6022   -0.4595 C   0  0  0  0  0  0  0  0  0  0  0  0
   -2.3063   -0.0507   -0.6629 C   0  0  0  0  0  0  0  0  0  0  0  0
   -2.2591    1.3380   -0.7749 O   0  0  0  0  0  0  0  0  0  0  0  0
   -3.1245   -0.3572    0.4155 O   0  0  0  0  0  0  0  0  0  0  0  0
    3.8440    0.1364    0.5142 H   0  0  0  0  0  0  0  0  0  0  0  0
    1.7586   -0.7073   -0.9042 H   0  0  0  0  0  0  0  0  0  0  0  0
    2.2964    1.3443   -1.1982 H   0  0  0  0  0  0  0  0  0  0  0  0
    1.1305    0.1212    1.9794 H   0  0  0  0  0  0  0  0  0  0  0  0
    0.9555   -1.5106    1.2789 H   0  0  0  0  0  0  0  0  0  0  0  0
   -0.9398   -1.7054   -0.4481 H   0  0  0  0  0  0  0  0  0  0  0  0
   -0.3288   -0.2972   -1.3751 H   0  0  0  0  0  0  0  0  0  0  0  0
   -2.7445   -0.4682   -1.6060 H   0  0  0  0  0  0  0  0  0  0  0  0
   -2.3976    1.7251    0.1363 H   0  0  0  0  0  0  0  0  0  0  0  0
   -2.5890   -0.9059    1.0375 H   0  0  0  0  0  0  0  0  0  0  0  0
  1  2  1  0
  2  3  1  0
  2  4  1  0
  4  5  1  0
  5  6  1  0
  6  7  1  0
  7  8  1  0
  7  9  1  0
  1 10  1  0
  2 11  1  0
  3 12  1  0
  4 13  1  0
  4 14  1  0
  6 15  1  0
  6 16  1  0
  7 17  1  0
  8 18  1  0
  9 19  1  0
M  END
$$$$

     RDKit          3D

 19 18  0  0  0  0  0  0  0  0999 V2000
    3.5213   -0.0790    0.6967 O   0  0  0  0  0  0  0  0  0  0  0  0
    2.4475    0.0734   -0.1790 C   0  0  0  0  0  0  0  0  0  0  0  0
    2.4726   -0.8612   -1.1954 O   0  0  0  0  0  0  0  0  0  0  0  0
    1.1863   -0.0586    0.6688 C   0  0  0  0  0  0  0  0  0  0  0  0
    0.0354    0.0826   -0.1397 O   0  0  0  0  0  0  0  0  0  0  0  0
   -1.0495   -0.0507    0.7093 C   0  0  0  0  0  0  0  0  0  0  0  0
   -2.3700    0.0744    0.0051 C   0  0  0  0  0  0  0  0  0  0  0  0
   -2.5481    1.2896   -0.6243 O   0  0  0  0  0  0  0  0  0  0  0  0
   -3.3761   -0.2067    0.9373 O   0  0  0  0  0  0  0  0  0  0  0  0
    4.0420    0.7626    0.6572 H   0  0  0  0  0  0  0  0  0  0  0  0
    2.4257    1.0822   -0.6342 H   0  0  0  0  0  0  0  0  0  0  0  0
    2.6148   -1.7835   -0.8750 H   0  0  0  0  0  0  0  0  0  0  0  0
    1.2296   -1.0580    1.1440 H   0  0  0  0  0  0  0  0  0  0  0  0
    1.1315    0.7427    1.4306 H   0  0  0  0  0  0  0  0  0  0  0  0
   -1.0035   -1.0708    1.1448 H   0  0  0  0  0  0  0  0  0  0  0  0
   -0.9568    0.6768    1.5339 H   0  0  0  0  0  0  0  0  0  0  0  0
   -2.4292   -0.7423   -0.7631 H   0  0  0  0  0  0  0  0  0  0  0  0
   -3.1083    1.2582   -1.4201 H   0  0  0  0  0  0  0  0  0  0  0  0
   -4.2650   -0.1317    0.5165 H   0  0  0  0  0  0  0  0  0  0  0  0
  1  2  1  0
  2  3  1  0
  2  4  1  0
  4  5  1  0
  5  6  1  0
  6  7  1  0
  7  8  1  0
  7  9  1  0
  1 10  1  0
  2 11  1  0
  3 12  1  0
  4 13  1  0
  4 14  1  0
  6 15  1  0
  6 16  1  0
  7 17  1  0
  8 18  1  0
  9 19  1  0
M  END
$$$$

     RDKit          3D

 19 18  0  0  0  0  0  0  0  0999 V2000
   -2.5733   -1.0315    0.9220 O   0  0  0  0  0  0  0  0  0  0  0  0
   -1.6989    0.0068    0.5155 C   0  0  0  0  0  0  0  0  0  0  0  0
   -2.3740    1.1557    0.1667 O   0  0  0  0  0  0  0  0  0  0  0  0
   -0.9267   -0.5953   -0.6692 C   0  0  0  0  0  0  0  0  0  0  0  0
   -0.0547    0.3281   -1.1508 O   0  0  0  0  0  0  0  0  0  0  0  0
    0.8855    0.7974   -0.2676 C   0  0  0  0  0  0  0  0  0  0  0  0
    1.7400   -0.3141    0.2345 C   0  0  0  0  0  0  0  0  0  0  0  0
    2.7116    0.1694    1.1258 O   0  0  0  0  0  0  0  0  0  0  0  0
    2.4129   -0.8955   -0.8369 O   0  0  0  0  0  0  0  0  0  0  0  0
   -2.9523   -1.4714    0.1177 H   0  0  0  0  0  0  0  0  0  0  0  0
   -0.9216    0.1717    1.3022 H   0  0  0  0  0  0  0  0  0  0  0  0
   -2.0758    1.8818    0.7698 H   0  0  0  0  0  0  0  0  0  0  0  0
   -0.4901   -1.5291   -0.2660 H   0  0  0  0  0  0  0  0  0  0  0  0
   -1.6647   -0.9406   -1.4350 H   0  0  0  0  0  0  0  0  0  0  0  0
    0.4673    1.4271    0.5512 H   0  0  0  0  0  0  0  0  0  0  0  0
    1.5676    1.4789   -0.8435 H   0  0  0  0  0  0  0  0  0  0  0  0
    1.1759   -1.1364    0.7433 H   0  0  0  0  0  0  0  0  0  0  0  0
    2.2870    0.7869    1.7627 H   0  0  0  0  0  0  0  0  0  0  0  0
    2.4842   -0.2899   -1.6158 H   0  0  0  0  0  0  0  0  0  0  0  0
  1  2  1  0
  2  3  1  0
  2  4  1  0
  4  5  1  0
  5  6  1  0
  6  7  1  0
  7  8  1  0
  7  9  1  0
  1 10  1  0
  2 11  1  0
  3 12  1  0
  4 13  1  0
  4 14  1  0
  6 15  1  0
  6 16  1  0
  7 17  1  0
  8 18  1  0
  9 19  1  0
M  END
$$$$

     RDKit          3D

 19 18  0  0  0  0  0  0  0  0999 V2000
    2.0087   -1.5167   -0.1990 O   0  0  0  0  0  0  0  0  0  0  0  0
    1.9993   -0.1222   -0.2827 C   0  0  0  0  0  0  0  0  0  0  0  0
    3.2891    0.3075    0.0141 O   0  0  0  0  0  0  0  0  0  0  0  0
    1.0805    0.4648    0.7782 C   0  0  0  0  0  0  0  0  0  0  0  0
   -0.2199    0.0440    0.6584 O   0  0  0  0  0  0  0  0  0  0  0  0
   -0.8267    0.3574   -0.5295 C   0  0  0  0  0  0  0  0  0  0  0  0
   -2.2514   -0.1861   -0.4771 C   0  0  0  0  0  0  0  0  0  0  0  0
   -2.9735    0.3626    0.5595 O   0  0  0  0  0  0  0  0  0  0  0  0
   -2.2122   -1.5693   -0.2804 O   0  0  0  0  0  0  0  0  0  0  0  0
    2.5032   -1.8529    0.5701 H   0  0  0  0  0  0  0  0  0  0  0  0
    1.6789    0.1469   -1.2894 H   0  0  0  0  0  0  0  0  0  0  0  0
    3.3590    1.2826   -0.1457 H   0  0  0  0  0  0  0  0  0  0  0  0
    1.4628    0.0505    1.7554 H   0  0  0  0  0  0  0  0  0  0  0  0
    1.2212    1.5484    0.8375 H   0  0  0  0  0  0  0  0  0  0  0  0
   -0.3277   -0.2084   -1.3673 H   0  0  0  0  0  0  0  0  0  0  0  0
   -0.8678    1.4220   -0.7735 H   0  0  0  0  0  0  0  0  0  0  0  0
   -2.7955   -0.0106   -1.4282 H   0  0  0  0  0  0  0  0  0  0  0  0
   -3.1616    1.3234    0.4638 H   0  0  0  0  0  0  0  0  0  0  0  0
   -2.9665   -1.8437    0.2872 H   0  0  0  0  0  0  0  0  0  0  0  0
  1  2  1  0
  2  3  1  0
  2  4  1  0
  4  5  1  0
  5  6  1  0
  6  7  1  0
  7  8  1  0
  7  9  1  0
  1 10  1  0
  2 11  1  0
  3 12  1  0
  4 13  1  0
  4 14  1  0
  6 15  1  0
  6 16  1  0
  7 17  1  0
  8 18  1  0
  9 19  1  0
M  END
$$$$

     RDKit          3D

 19 18  0  0  0  0  0  0  0  0999 V2000
   -2.7183    1.2896    0.1737 O   0  0  0  0  0  0  0  0  0  0  0  0
   -2.4410   -0.0587    0.3604 C   0  0  0  0  0  0  0  0  0  0  0  0
   -2.5075   -0.4250    1.6989 O   0  0  0  0  0  0  0  0  0  0  0  0
   -1.1295   -0.4596   -0.2757 C   0  0  0  0  0  0  0  0  0  0  0  0
   -0.0514    0.2407    0.2426 O   0  0  0  0  0  0  0  0  0  0  0  0
    1.0926   -0.2085   -0.4129 C   0  0  0  0  0  0  0  0  0  0  0  0
    2.3395    0.4902    0.0739 C   0  0  0  0  0  0  0  0  0  0  0  0
    3.4110   -0.0474   -0.6583 O   0  0  0  0  0  0  0  0  0  0  0  0
    2.5906    0.2518    1.4150 O   0  0  0  0  0  0  0  0  0  0  0  0
   -3.0823    1.4571   -0.7436 H   0  0  0  0  0  0  0  0  0  0  0  0
   -3.2357   -0.6222   -0.1739 H   0  0  0  0  0  0  0  0  0  0  0  0
   -2.8883   -1.3339    1.7684 H   0  0  0  0  0  0  0  0  0  0  0  0
   -1.2358   -0.3092   -1.3686 H   0  0  0  0  0  0  0  0  0  0  0  0
   -0.9691   -1.5306   -0.0175 H   0  0  0  0  0  0  0  0  0  0  0  0
    0.9657    0.0857   -1.4857 H   0  0  0  0  0  0  0  0  0  0  0  0
    1.1696   -1.3088   -0.3650 H   0  0  0  0  0  0  0  0  0  0  0  0
    2.2307    1.5598   -0.1359 H   0  0  0  0  0  0  0  0  0  0  0  0
    3.2579    0.0239   -1.6400 H   0  0  0  0  0  0  0  0  0  0  0  0
    3.2013   -0.5304    1.5442 H   0  0  0  0  0  0  0  0  0  0  0  0
  1  2  1  0
  2  3  1  0
  2  4  1  0
  4  5  1  0
  5  6  1  0
  6  7  1  0
  7  8  1  0
  7  9  1  0
  1 10  1  0
  2 11  1  0
  3 12  1  0
  4 13  1  0
  4 14  1  0
  6 15  1  0
  6 16  1  0
  7 17  1  0
  8 18  1  0
  9 19  1  0
M  END
$$$$

     RDKit          3D

 19 18  0  0  0  0  0  0  0  0999 V2000
    2.7817   -0.5885   -0.9550 O   0  0  0  0  0  0  0  0  0  0  0  0
    2.3030    0.5320   -0.2954 C   0  0  0  0  0  0  0  0  0  0  0  0
    3.2260    1.0640    0.5987 O   0  0  0  0  0  0  0  0  0  0  0  0
    1.0113    0.2570    0.4431 C   0  0  0  0  0  0  0  0  0  0  0  0
    0.0013   -0.1630   -0.4218 O   0  0  0  0  0  0  0  0  0  0  0  0
   -1.1255   -0.3832    0.3602 C   0  0  0  0  0  0  0  0  0  0  0  0
   -2.3103   -0.8472   -0.4539 C   0  0  0  0  0  0  0  0  0  0  0  0
   -3.3665   -1.0275    0.4617 O   0  0  0  0  0  0  0  0  0  0  0  0
   -2.6538    0.0785   -1.4371 O   0  0  0  0  0  0  0  0  0  0  0  0
    3.3169   -1.1893   -0.3729 H   0  0  0  0  0  0  0  0  0  0  0  0
    2.0461    1.2942   -1.0818 H   0  0  0  0  0  0  0  0  0  0  0  0
    3.5622    1.9340    0.2520 H   0  0  0  0  0  0  0  0  0  0  0  0
    1.1349   -0.4507    1.2768 H   0  0  0  0  0  0  0  0  0  0  0  0
    0.6687    1.2561    0.8363 H   0  0  0  0  0  0  0  0  0  0  0  0
   -1.3288    0.5298    0.9204 H   0  0  0  0  0  0  0  0  0  0  0  0
   -0.8700   -1.2282    1.0509 H   0  0  0  0  0  0  0  0  0  0  0  0
   -2.1002   -1.8104   -0.9198 H   0  0  0  0  0  0  0  0  0  0  0  0
   -3.3824   -0.2047    1.0170 H   0  0  0  0  0  0  0  0  0  0  0  0
   -2.9148    0.9471   -1.0527 H   0  0  0  0  0  0  0  0  0  0  0  0
  1  2  1  0
  2  3  1  0
  2  4  1  0
  4  5  1  0
  5  6  1  0
  6  7  1  0
  7  8  1  0
  7  9  1  0
  1 10  1  0
  2 11  1  0
  3 12  1  0
  4 13  1  0
  4 14  1  0
  6 15  1  0
  6 16  1  0
  7 17  1  0
  8 18  1  0
  9 19  1  0
M  END
$$$$
