
     RDKit          3D

 26 26  0  0  0  0  0  0  0  0999 V2000
    3.0032    1.1882   -0.3589 O   0  0  0  0  0  0  0  0  0  0  0  0
    2.8599   -0.1915   -0.3064 C   0  0  0  0  0  0  0  0  0  0  0  0
    1.7127   -0.6137    0.5844 C   0  0  0  0  0  0  0  0  0  0  0  0
    0.4787   -0.0759    0.1052 N   0  0  0  0  0  0  0  0  0  0  0  0
    0.0360   -0.5951   -1.0768 C   0  0  0  0  0  0  0  0  0  0  0  0
   -1.3486   -1.0890   -1.2525 C   0  0  0  0  0  0  0  0  0  0  0  0
   -2.3650   -0.2141   -1.0443 O   0  0  0  0  0  0  0  0  0  0  0  0
   -2.0234    1.0304   -0.5836 C   0  0  0  0  0  0  0  0  0  0  0  0
   -1.6607    0.9006    0.8658 C   0  0  1  0  0  0  0  0  0  0  0  0
   -2.6531    0.0789    1.4470 O   0  0  0  0  0  0  0  0  0  0  0  0
   -0.3082    0.3959    1.1337 C   0  0  0  0  0  0  0  0  0  0  0  0
    2.6883    1.5679    0.5039 H   0  0  0  0  0  0  0  0  0  0  0  0
    3.7994   -0.7023    0.0282 H   0  0  0  0  0  0  0  0  0  0  0  0
    2.6411   -0.6101   -1.3212 H   0  0  0  0  0  0  0  0  0  0  0  0
    1.6175   -1.7128    0.6220 H   0  0  0  0  0  0  0  0  0  0  0  0
    1.9014   -0.2022    1.5891 H   0  0  0  0  0  0  0  0  0  0  0  0
    0.2354    0.1441   -1.9143 H   0  0  0  0  0  0  0  0  0  0  0  0
    0.7059   -1.4644   -1.3696 H   0  0  0  0  0  0  0  0  0  0  0  0
   -1.4266   -1.4109   -2.3363 H   0  0  0  0  0  0  0  0  0  0  0  0
   -1.4706   -2.0597   -0.6908 H   0  0  0  0  0  0  0  0  0  0  0  0
   -1.2740    1.5780   -1.1811 H   0  0  0  0  0  0  0  0  0  0  0  0
   -2.9507    1.6631   -0.6306 H   0  0  0  0  0  0  0  0  0  0  0  0
   -1.8514    1.9148    1.3281 H   0  0  0  0  0  0  0  0  0  0  0  0
   -2.2113   -0.3214    2.2539 H   0  0  0  0  0  0  0  0  0  0  0  0
    0.2613    1.2094    1.6710 H   0  0  0  0  0  0  0  0  0  0  0  0
   -0.3972   -0.4081    1.9341 H   0  0  0  0  0  0  0  0  0  0  0  0
  1  2  1  0
  2  3  1  0
  3  4  1  0
  4  5  1  0
  5  6  1  0
  6  7  1  0
  7  8  1  0
  8  9  1  0
  9 10  1  0
  9 11  1  0
 11  4  1  0
  1 12  1  0
  2 13  1  0
  2 14  1  0
  3 15  1  0
  3 16  1  0
  5 17  1  0
  5 18  1  0
  6 19  1  0
  6 20  1  0
  8 21  1  0
  8 22  1  0
  9 23  1  1
 10 24  1  0
 11 25  1  0
 11 26  1  0
M  END
$$$$

     RDKit          3D

 26 26  0  0  0  0  0  0  0  0999 V2000
    3.6970   -0.9295    0.8936 O   0  0  0  0  0  0  0  0  0  0  0  0
    2.4811   -0.2279    0.7967 C   0  0  0  0  0  0  0  0  0  0  0  0
    1.5922   -0.7821   -0.2962 C   0  0  0  0  0  0  0  0  0  0  0  0
    0.3941   -0.0446   -0.3423 N   0  0  0  0  0  0  0  0  0  0  0  0
    0.4433    1.3038   -0.7764 C   0  0  0  0  0  0  0  0  0  0  0  0
   -0.8307    1.9795   -0.2425 C   0  0  0  0  0  0  0  0  0  0  0  0
   -1.1279    1.3678    0.9769 O   0  0  0  0  0  0  0  0  0  0  0  0
   -2.1269    0.4348    0.8980 C   0  0  0  0  0  0  0  0  0  0  0  0
   -1.6177   -0.9474    0.5196 C   0  0  1  0  0  0  0  0  0  0  0  0
   -2.6946   -1.7679    0.2334 O   0  0  0  0  0  0  0  0  0  0  0  0
   -0.7791   -0.7521   -0.7451 C   0  0  0  0  0  0  0  0  0  0  0  0
    3.8572   -1.4052    0.0505 H   0  0  0  0  0  0  0  0  0  0  0  0
    2.7490    0.8449    0.6181 H   0  0  0  0  0  0  0  0  0  0  0  0
    1.9571   -0.2523    1.7799 H   0  0  0  0  0  0  0  0  0  0  0  0
    2.1625   -0.7531   -1.2572 H   0  0  0  0  0  0  0  0  0  0  0  0
    1.3602   -1.8286   -0.0208 H   0  0  0  0  0  0  0  0  0  0  0  0
    0.4773    1.3483   -1.8842 H   0  0  0  0  0  0  0  0  0  0  0  0
    1.2739    1.8460   -0.3299 H   0  0  0  0  0  0  0  0  0  0  0  0
   -0.6203    3.0568   -0.1313 H   0  0  0  0  0  0  0  0  0  0  0  0
   -1.6721    1.8778   -0.9285 H   0  0  0  0  0  0  0  0  0  0  0  0
   -2.8923    0.7683    0.1590 H   0  0  0  0  0  0  0  0  0  0  0  0
   -2.5859    0.3184    1.9143 H   0  0  0  0  0  0  0  0  0  0  0  0
   -0.9844   -1.3116    1.3452 H   0  0  0  0  0  0  0  0  0  0  0  0
   -2.5247   -2.3253   -0.5554 H   0  0  0  0  0  0  0  0  0  0  0  0
   -1.3982   -0.1103   -1.4077 H   0  0  0  0  0  0  0  0  0  0  0  0
   -0.5901   -1.7085   -1.2678 H   0  0  0  0  0  0  0  0  0  0  0  0
  1  2  1  0
  2  3  1  0
  3  4  1  0
  4  5  1  0
  5  6  1  0
  6  7  1  0
  7  8  1  0
  8  9  1  0
  9 10  1  0
  9 11  1  0
 11  4  1  0
  1 12  1  0
  2 13  1  0
  2 14  1  0
  3 15  1  0
  3 16  1  0
  5 17  1  0
  5 18  1  0
  6 19  1  0
  6 20  1  0
  8 21  1  0
  8 22  1  0
  9 23  1  1
 10 24  1  0
 11 25  1  0
 11 26  1  0
M  END
$$$$

     RDKit          3D

 26 26  0  0  0  0  0  0  0  0999 V2000
    3.0255    1.2914    0.1179 O   0  0  0  0  0  0  0  0  0  0  0  0
    2.9218   -0.0911    0.2753 C   0  0  0  0  0  0  0  0  0  0  0  0
    1.6540   -0.5816   -0.4308 C   0  0  0  0  0  0  0  0  0  0  0  0
    0.5177    0.0317    0.1268 N   0  0  0  0  0  0  0  0  0  0  0  0
    0.1148   -0.2771    1.4255 C   0  0  0  0  0  0  0  0  0  0  0  0
   -1.2807   -0.8500    1.5574 C   0  0  0  0  0  0  0  0  0  0  0  0
   -2.2627    0.0409    1.2255 O   0  0  0  0  0  0  0  0  0  0  0  0
   -2.5930    0.1848   -0.0842 C   0  0  0  0  0  0  0  0  0  0  0  0
   -1.5191   -0.0629   -1.0873 C   0  0  1  0  0  0  0  0  0  0  0  0
   -2.0059    0.3796   -2.3367 O   0  0  0  0  0  0  0  0  0  0  0  0
   -0.3248    0.8097   -0.6826 C   0  0  0  0  0  0  0  0  0  0  0  0
    3.1096    1.4579   -0.8682 H   0  0  0  0  0  0  0  0  0  0  0  0
    3.7836   -0.5819   -0.1952 H   0  0  0  0  0  0  0  0  0  0  0  0
    2.8539   -0.3132    1.3490 H   0  0  0  0  0  0  0  0  0  0  0  0
    1.7449   -0.2589   -1.5010 H   0  0  0  0  0  0  0  0  0  0  0  0
    1.6687   -1.6936   -0.3718 H   0  0  0  0  0  0  0  0  0  0  0  0
    0.8033   -1.0128    1.8889 H   0  0  0  0  0  0  0  0  0  0  0  0
    0.1319    0.6281    2.0813 H   0  0  0  0  0  0  0  0  0  0  0  0
   -1.4029   -1.0931    2.6353 H   0  0  0  0  0  0  0  0  0  0  0  0
   -1.3575   -1.8451    1.0361 H   0  0  0  0  0  0  0  0  0  0  0  0
   -3.4908   -0.3916   -0.3954 H   0  0  0  0  0  0  0  0  0  0  0  0
   -2.9067    1.2661   -0.2186 H   0  0  0  0  0  0  0  0  0  0  0  0
   -1.2226   -1.1035   -1.2252 H   0  0  0  0  0  0  0  0  0  0  0  0
   -1.5189    1.2137   -2.5926 H   0  0  0  0  0  0  0  0  0  0  0  0
   -0.6721    1.7136   -0.1430 H   0  0  0  0  0  0  0  0  0  0  0  0
    0.2281    1.1389   -1.5864 H   0  0  0  0  0  0  0  0  0  0  0  0
  1  2  1  0
  2  3  1  0
  3  4  1  0
  4  5  1  0
  5  6  1  0
  6  7  1  0
  7  8  1  0
  8  9  1  0
  9 10  1  0
  9 11  1  0
 11  4  1  0
  1 12  1  0
  2 13  1  0
  2 14  1  0
  3 15  1  0
  3 16  1  0
  5 17  1  0
  5 18  1  0
  6 19  1  0
  6 20  1  0
  8 21  1  0
  8 22  1  0
  9 23  1  6
 10 24  1  0
 11 25  1  0
 11 26  1  0
M  END
$$$$

     RDKit          3D

 26 26  0  0  0  0  0  0  0  0999 V2000
   -2.7644   -0.6814    1.3918 O   0  0  0  0  0  0  0  0  0  0  0  0
   -2.8919   -0.3551    0.0391 C   0  0  0  0  0  0  0  0  0  0  0  0
   -1.7732    0.5119   -0.4165 C   0  0  0  0  0  0  0  0  0  0  0  0
   -0.4638   -0.0069   -0.3072 N   0  0  0  0  0  0  0  0  0  0  0  0
   -0.1239   -1.0980   -1.1582 C   0  0  0  0  0  0  0  0  0  0  0  0
    1.1530   -1.7177   -0.5995 C   0  0  0  0  0  0  0  0  0  0  0  0
    2.2135   -0.9177   -1.0128 O   0  0  0  0  0  0  0  0  0  0  0  0
    2.6193   -0.0929    0.0235 C   0  0  0  0  0  0  0  0  0  0  0  0
    1.6775    1.0300    0.3080 C   0  0  1  0  0  0  0  0  0  0  0  0
    2.3751    2.2407    0.1117 O   0  0  0  0  0  0  0  0  0  0  0  0
    0.4795    1.0769   -0.5920 C   0  0  0  0  0  0  0  0  0  0  0  0
   -3.6701   -0.7669    1.8241 H   0  0  0  0  0  0  0  0  0  0  0  0
   -3.8312    0.2652   -0.0241 H   0  0  0  0  0  0  0  0  0  0  0  0
   -3.0886   -1.2362   -0.5901 H   0  0  0  0  0  0  0  0  0  0  0  0
   -1.8134    1.4555    0.1949 H   0  0  0  0  0  0  0  0  0  0  0  0
   -1.9696    0.8352   -1.4651 H   0  0  0  0  0  0  0  0  0  0  0  0
    0.1614   -0.7196   -2.1783 H   0  0  0  0  0  0  0  0  0  0  0  0
   -0.8501   -1.9054   -1.2192 H   0  0  0  0  0  0  0  0  0  0  0  0
    1.0895   -1.7694    0.5181 H   0  0  0  0  0  0  0  0  0  0  0  0
    1.2724   -2.7511   -0.9821 H   0  0  0  0  0  0  0  0  0  0  0  0
    3.6382    0.2730   -0.2461 H   0  0  0  0  0  0  0  0  0  0  0  0
    2.7516   -0.7296    0.9480 H   0  0  0  0  0  0  0  0  0  0  0  0
    1.3330    0.9938    1.3683 H   0  0  0  0  0  0  0  0  0  0  0  0
    1.7090    2.9328   -0.0996 H   0  0  0  0  0  0  0  0  0  0  0  0
   -0.0292    2.0594   -0.4002 H   0  0  0  0  0  0  0  0  0  0  0  0
    0.7961    1.0736   -1.6558 H   0  0  0  0  0  0  0  0  0  0  0  0
  1  2  1  0
  2  3  1  0
  3  4  1  0
  4  5  1  0
  5  6  1  0
  6  7  1  0
  7  8  1  0
  8  9  1  0
  9 10  1  0
  9 11  1  0
 11  4  1  0
  1 12  1  0
  2 13  1  0
  2 14  1  0
  3 15  1  0
  3 16  1  0
  5 17  1  0
  5 18  1  0
  6 19  1  0
  6 20  1  0
  8 21  1  0
  8 22  1  0
  9 23  1  1
 10 24  1  0
 11 25  1  0
 11 26  1  0
M  END
$$$$

     RDKit          3D

 26 26  0  0  0  0  0  0  0  0999 V2000
    2.3448    0.3443    1.4737 O   0  0  0  0  0  0  0  0  0  0  0  0
    2.6377   -0.3073    0.2655 C   0  0  0  0  0  0  0  0  0  0  0  0
    1.7012    0.2082   -0.8021 C   0  0  0  0  0  0  0  0  0  0  0  0
    0.3488   -0.0408   -0.4507 N   0  0  0  0  0  0  0  0  0  0  0  0
   -0.0415   -1.3912   -0.4858 C   0  0  0  0  0  0  0  0  0  0  0  0
   -1.2342   -1.8325    0.2412 C   0  0  0  0  0  0  0  0  0  0  0  0
   -1.8129   -1.0420    1.1529 O   0  0  0  0  0  0  0  0  0  0  0  0
   -1.4403    0.2333    1.3277 C   0  0  0  0  0  0  0  0  0  0  0  0
   -1.7293    1.0274    0.0746 C   0  0  1  0  0  0  0  0  0  0  0  0
   -1.9221    2.3766    0.4458 O   0  0  0  0  0  0  0  0  0  0  0  0
   -0.6129    0.9089   -0.9087 C   0  0  0  0  0  0  0  0  0  0  0  0
    2.6142    1.3055    1.3885 H   0  0  0  0  0  0  0  0  0  0  0  0
    3.6876    0.0013    0.0025 H   0  0  0  0  0  0  0  0  0  0  0  0
    2.6232   -1.3878    0.4096 H   0  0  0  0  0  0  0  0  0  0  0  0
    1.8245    1.3083   -0.9072 H   0  0  0  0  0  0  0  0  0  0  0  0
    1.9286   -0.2593   -1.7919 H   0  0  0  0  0  0  0  0  0  0  0  0
   -0.1013   -1.6754   -1.5861 H   0  0  0  0  0  0  0  0  0  0  0  0
    0.8412   -2.0016   -0.1372 H   0  0  0  0  0  0  0  0  0  0  0  0
   -1.0419   -2.8347    0.7407 H   0  0  0  0  0  0  0  0  0  0  0  0
   -2.0329   -2.0931   -0.5230 H   0  0  0  0  0  0  0  0  0  0  0  0
   -0.4011    0.4110    1.6397 H   0  0  0  0  0  0  0  0  0  0  0  0
   -2.0978    0.6634    2.1377 H   0  0  0  0  0  0  0  0  0  0  0  0
   -2.6824    0.6692   -0.4050 H   0  0  0  0  0  0  0  0  0  0  0  0
   -2.3042    2.8290   -0.3658 H   0  0  0  0  0  0  0  0  0  0  0  0
   -0.9784    0.6583   -1.9357 H   0  0  0  0  0  0  0  0  0  0  0  0
   -0.1184    1.9212   -1.0006 H   0  0  0  0  0  0  0  0  0  0  0  0
  1  2  1  0
  2  3  1  0
  3  4  1  0
  4  5  1  0
  5  6  1  0
  6  7  1  0
  7  8  1  0
  8  9  1  0
  9 10  1  0
  9 11  1  0
 11  4  1  0
  1 12  1  0
  2 13  1  0
  2 14  1  0
  3 15  1  0
  3 16  1  0
  5 17  1  0
  5 18  1  0
  6 19  1  0
  6 20  1  0
  8 21  1  0
  8 22  1  0
  9 23  1  6
 10 24  1  0
 11 25  1  0
 11 26  1  0
M  END
$$$$

     RDKit          3D

 26 26  0  0  0  0  0  0  0  0999 V2000
    3.2005   -0.4017    0.7505 O   0  0  0  0  0  0  0  0  0  0  0  0
    2.8274    0.5542   -0.1740 C   0  0  0  0  0  0  0  0  0  0  0  0
    1.5246    0.2893   -0.8778 C   0  0  0  0  0  0  0  0  0  0  0  0
    0.4141    0.2090   -0.0286 N   0  0  0  0  0  0  0  0  0  0  0  0
    0.2427   -0.8742    0.8395 C   0  0  0  0  0  0  0  0  0  0  0  0
   -0.6611   -1.9613    0.2960 C   0  0  0  0  0  0  0  0  0  0  0  0
   -1.9497   -1.6434    0.0931 O   0  0  0  0  0  0  0  0  0  0  0  0
   -2.4183   -0.4167    0.4325 C   0  0  0  0  0  0  0  0  0  0  0  0
   -1.9564    0.7262   -0.4315 C   0  0  1  0  0  0  0  0  0  0  0  0
   -2.8244    1.7913   -0.1939 O   0  0  0  0  0  0  0  0  0  0  0  0
   -0.5753    1.2008   -0.0676 C   0  0  0  0  0  0  0  0  0  0  0  0
    3.5602   -1.1977    0.3169 H   0  0  0  0  0  0  0  0  0  0  0  0
    3.6527    0.6658   -0.9411 H   0  0  0  0  0  0  0  0  0  0  0  0
    2.7908    1.5458    0.3697 H   0  0  0  0  0  0  0  0  0  0  0  0
    1.6645   -0.7008   -1.4214 H   0  0  0  0  0  0  0  0  0  0  0  0
    1.4287    1.0220   -1.7114 H   0  0  0  0  0  0  0  0  0  0  0  0
   -0.0922   -0.5059    1.8417 H   0  0  0  0  0  0  0  0  0  0  0  0
    1.2074   -1.3827    1.0265 H   0  0  0  0  0  0  0  0  0  0  0  0
   -0.2083   -2.2797   -0.6678 H   0  0  0  0  0  0  0  0  0  0  0  0
   -0.5796   -2.8560    0.9592 H   0  0  0  0  0  0  0  0  0  0  0  0
   -2.2992   -0.1550    1.5030 H   0  0  0  0  0  0  0  0  0  0  0  0
   -3.5417   -0.4457    0.2751 H   0  0  0  0  0  0  0  0  0  0  0  0
   -2.0639    0.4556   -1.4973 H   0  0  0  0  0  0  0  0  0  0  0  0
   -2.4026    2.6777   -0.2446 H   0  0  0  0  0  0  0  0  0  0  0  0
   -0.2985    1.9947   -0.7919 H   0  0  0  0  0  0  0  0  0  0  0  0
   -0.6425    1.6884    0.9322 H   0  0  0  0  0  0  0  0  0  0  0  0
  1  2  1  0
  2  3  1  0
  3  4  1  0
  4  5  1  0
  5  6  1  0
  6  7  1  0
  7  8  1  0
  8  9  1  0
  9 10  1  0
  9 11  1  0
 11  4  1  0
  1 12  1  0
  2 13  1  0
  2 14  1  0
  3 15  1  0
  3 16  1  0
  5 17  1  0
  5 18  1  0
  6 19  1  0
  6 20  1  0
  8 21  1  0
  8 22  1  0
  9 23  1  6
 10 24  1  0
 11 25  1  0
 11 26  1  0
M  END
$$$$

     RDKit          3D

 26 26  0  0  0  0  0  0  0  0999 V2000
    4.1050   -0.2052   -0.5574 O   0  0  0  0  0  0  0  0  0  0  0  0
    2.7977   -0.5272   -0.8779 C   0  0  0  0  0  0  0  0  0  0  0  0
    1.8281    0.2565   -0.0186 C   0  0  0  0  0  0  0  0  0  0  0  0
    0.4504   -0.0559   -0.3313 N   0  0  0  0  0  0  0  0  0  0  0  0
    0.0965   -1.4098    0.0511 C   0  0  0  0  0  0  0  0  0  0  0  0
   -1.3922   -1.6159    0.0990 C   0  0  0  0  0  0  0  0  0  0  0  0
   -2.0749   -0.8977   -0.8744 O   0  0  0  0  0  0  0  0  0  0  0  0
   -2.6086    0.2976   -0.4052 C   0  0  0  0  0  0  0  0  0  0  0  0
   -1.5136    1.3545   -0.5671 C   0  0  1  0  0  0  0  0  0  0  0  0
   -1.9718    2.6236   -0.2531 O   0  0  0  0  0  0  0  0  0  0  0  0
   -0.3750    0.9249    0.3396 C   0  0  0  0  0  0  0  0  0  0  0  0
    4.2450    0.7382   -0.3178 H   0  0  0  0  0  0  0  0  0  0  0  0
    2.5943   -0.3790   -1.9539 H   0  0  0  0  0  0  0  0  0  0  0  0
    2.6742   -1.6228   -0.6678 H   0  0  0  0  0  0  0  0  0  0  0  0
    2.0016    0.0632    1.0416 H   0  0  0  0  0  0  0  0  0  0  0  0
    1.9833    1.3289   -0.2480 H   0  0  0  0  0  0  0  0  0  0  0  0
    0.5672   -2.1239   -0.6410 H   0  0  0  0  0  0  0  0  0  0  0  0
    0.4862   -1.6213    1.0776 H   0  0  0  0  0  0  0  0  0  0  0  0
   -1.7575   -1.4418    1.1168 H   0  0  0  0  0  0  0  0  0  0  0  0
   -1.5630   -2.7033   -0.1392 H   0  0  0  0  0  0  0  0  0  0  0  0
   -2.9023    0.2228    0.6694 H   0  0  0  0  0  0  0  0  0  0  0  0
   -3.5002    0.5450   -1.0213 H   0  0  0  0  0  0  0  0  0  0  0  0
   -1.1682    1.3179   -1.6061 H   0  0  0  0  0  0  0  0  0  0  0  0
   -2.4436    2.6705    0.6098 H   0  0  0  0  0  0  0  0  0  0  0  0
   -0.7856    0.4609    1.2836 H   0  0  0  0  0  0  0  0  0  0  0  0
    0.2269    1.7993    0.6753 H   0  0  0  0  0  0  0  0  0  0  0  0
  1  2  1  0
  2  3  1  0
  3  4  1  0
  4  5  1  0
  5  6  1  0
  6  7  1  0
  7  8  1  0
  8  9  1  0
  9 10  1  0
  9 11  1  0
 11  4  1  0
  1 12  1  0
  2 13  1  0
  2 14  1  0
  3 15  1  0
  3 16  1  0
  5 17  1  0
  5 18  1  0
  6 19  1  0
  6 20  1  0
  8 21  1  0
  8 22  1  0
  9 23  1  6
 10 24  1  0
 11 25  1  0
 11 26  1  0
M  END
$$$$

     RDKit          3D

 26 26  0  0  0  0  0  0  0  0999 V2000
    3.1967    1.1731    0.5321 O   0  0  0  0  0  0  0  0  0  0  0  0
    2.7746    0.4274   -0.5690 C   0  0  0  0  0  0  0  0  0  0  0  0
    1.7448   -0.5950   -0.1910 C   0  0  0  0  0  0  0  0  0  0  0  0
    0.5356   -0.0203    0.3932 N   0  0  0  0  0  0  0  0  0  0  0  0
   -0.2367   -1.1285    0.8181 C   0  0  0  0  0  0  0  0  0  0  0  0
   -1.5900   -0.8791    1.3401 C   0  0  0  0  0  0  0  0  0  0  0  0
   -2.5583   -0.9485    0.3416 O   0  0  0  0  0  0  0  0  0  0  0  0
   -2.0991   -0.4692   -0.8683 C   0  0  0  0  0  0  0  0  0  0  0  0
   -1.5294    0.9085   -0.6499 C   0  0  1  0  0  0  0  0  0  0  0  0
   -2.2608    1.6091    0.3401 O   0  0  0  0  0  0  0  0  0  0  0  0
   -0.0698    0.9449   -0.4324 C   0  0  0  0  0  0  0  0  0  0  0  0
    3.0141    0.5766    1.3225 H   0  0  0  0  0  0  0  0  0  0  0  0
    3.6599   -0.1695   -0.9548 H   0  0  0  0  0  0  0  0  0  0  0  0
    2.4294    1.0342   -1.4107 H   0  0  0  0  0  0  0  0  0  0  0  0
    2.1698   -1.3194    0.5313 H   0  0  0  0  0  0  0  0  0  0  0  0
    1.4279   -1.1820   -1.0858 H   0  0  0  0  0  0  0  0  0  0  0  0
    0.3578   -1.5805    1.6788 H   0  0  0  0  0  0  0  0  0  0  0  0
   -0.2261   -1.9227    0.0490 H   0  0  0  0  0  0  0  0  0  0  0  0
   -1.8496   -1.7162    2.0521 H   0  0  0  0  0  0  0  0  0  0  0  0
   -1.6451    0.0347    1.9588 H   0  0  0  0  0  0  0  0  0  0  0  0
   -3.0040   -0.3978   -1.5336 H   0  0  0  0  0  0  0  0  0  0  0  0
   -1.3639   -1.0694   -1.3877 H   0  0  0  0  0  0  0  0  0  0  0  0
   -1.7551    1.4836   -1.5883 H   0  0  0  0  0  0  0  0  0  0  0  0
   -1.7421    2.3130    0.7605 H   0  0  0  0  0  0  0  0  0  0  0  0
    0.4287    0.9333   -1.4307 H   0  0  0  0  0  0  0  0  0  0  0  0
    0.1908    1.9596   -0.0162 H   0  0  0  0  0  0  0  0  0  0  0  0
  1  2  1  0
  2  3  1  0
  3  4  1  0
  4  5  1  0
  5  6  1  0
  6  7  1  0
  7  8  1  0
  8  9  1  0
  9 10  1  0
  9 11  1  0
 11  4  1  0
  1 12  1  0
  2 13  1  0
  2 14  1  0
  3 15  1  0
  3 16  1  0
  5 17  1  0
  5 18  1  0
  6 19  1  0
  6 20  1  0
  8 21  1  0
  8 22  1  0
  9 23  1  6
 10 24  1  0
 11 25  1  0
 11 26  1  0
M  END
$$$$
