
     RDKit          3D

 28 28  0  0  0  0  0  0  0  0999 V2000
   -1.9679   -0.2382   -1.9554 C   0  0  0  0  0  0  0  0  0  0  0  0
   -1.6408   -0.0160   -0.4697 C   0  0  2  0  0  0  0  0  0  0  0  0
   -1.2510   -1.2908    0.0531 N   0  0  0  0  0  0  0  0  0  0  0  0
   -0.6304   -1.2964    1.3225 C   0  0  0  0  0  0  0  0  0  0  0  0
    0.7173   -0.7484    1.4258 C   0  0  0  0  0  0  0  0  0  0  0  0
    1.2147   -0.7510    2.6090 O   0  0  0  0  0  0  0  0  0  0  0  0
    1.5159   -0.2319    0.4020 N   0  0  0  0  0  0  0  0  0  0  0  0
    2.8393    0.2708    0.7303 C   0  0  0  0  0  0  0  0  0  0  0  0
    3.9648   -0.1487   -0.2486 C   0  0  0  0  0  0  0  0  0  0  0  0
    3.4848    1.2867   -0.1307 C   0  0  0  0  0  0  0  0  0  0  0  0
   -2.9545    0.4328    0.1234 C   0  0  0  0  0  0  0  0  0  0  0  0
   -3.4937    1.6652   -0.2577 N   0  0  0  0  0  0  0  0  0  0  0  0
   -3.5682   -0.2811    0.9507 O   0  0  0  0  0  0  0  0  0  0  0  0
   -1.0999   -0.8296   -2.3794 H   0  0  0  0  0  0  0  0  0  0  0  0
   -2.1332    0.7016   -2.4778 H   0  0  0  0  0  0  0  0  0  0  0  0
   -2.8210   -0.9466   -1.9798 H   0  0  0  0  0  0  0  0  0  0  0  0
   -0.9432    0.8053   -0.3442 H   0  0  0  0  0  0  0  0  0  0  0  0
   -2.1081   -1.8875    0.1084 H   0  0  0  0  0  0  0  0  0  0  0  0
   -1.2838   -0.8661    2.1428 H   0  0  0  0  0  0  0  0  0  0  0  0
   -0.5477   -2.3837    1.6351 H   0  0  0  0  0  0  0  0  0  0  0  0
    1.1396   -0.2315   -0.5653 H   0  0  0  0  0  0  0  0  0  0  0  0
    3.1543    0.2225    1.7848 H   0  0  0  0  0  0  0  0  0  0  0  0
    3.6631   -0.7303   -1.1416 H   0  0  0  0  0  0  0  0  0  0  0  0
    4.9328   -0.4418    0.1748 H   0  0  0  0  0  0  0  0  0  0  0  0
    4.2203    1.9517    0.3631 H   0  0  0  0  0  0  0  0  0  0  0  0
    3.0116    1.6892   -1.0453 H   0  0  0  0  0  0  0  0  0  0  0  0
   -3.5721    2.4754    0.3997 H   0  0  0  0  0  0  0  0  0  0  0  0
   -3.8430    1.8184   -1.2300 H   0  0  0  0  0  0  0  0  0  0  0  0
  1  2  1  0
  2  3  1  0
  3  4  1  0
  4  5  1  0
  5  6  2  0
  5  7  1  0
  7  8  1  0
  8  9  1  0
  9 10  1  0
  2 11  1  0
 11 12  1  0
 11 13  2  0
 10  8  1  0
  1 14  1  0
  1 15  1  0
  1 16  1  0
  2 17  1  6
  3 18  1  0
  4 19  1  0
  4 20  1  0
  7 21  1  0
  8 22  1  0
  9 23  1  0
  9 24  1  0
 10 25  1  0
 10 26  1  0
 12 27  1  0
 12 28  1  0
M  END
$$$$

     RDKit          3D

 28 28  0  0  0  0  0  0  0  0999 V2000
   -2.8960   -0.7592   -0.6902 C   0  0  0  0  0  0  0  0  0  0  0  0
   -2.1584    0.5419   -0.5618 C   0  0  2  0  0  0  0  0  0  0  0  0
   -0.7506    0.3169   -0.2967 N   0  0  0  0  0  0  0  0  0  0  0  0
   -0.1902   -0.3786   -1.4183 C   0  0  0  0  0  0  0  0  0  0  0  0
    1.2385   -0.6767   -1.2601 C   0  0  0  0  0  0  0  0  0  0  0  0
    1.8822   -1.2788   -2.1530 O   0  0  0  0  0  0  0  0  0  0  0  0
    1.9047   -0.2749   -0.0711 N   0  0  0  0  0  0  0  0  0  0  0  0
    3.3069   -0.5279    0.1645 C   0  0  0  0  0  0  0  0  0  0  0  0
    3.6559   -0.8816    1.5629 C   0  0  0  0  0  0  0  0  0  0  0  0
    4.1265    0.4039    0.9766 C   0  0  0  0  0  0  0  0  0  0  0  0
   -2.7658    1.3905    0.4928 C   0  0  0  0  0  0  0  0  0  0  0  0
   -4.1164    1.7640    0.4971 N   0  0  0  0  0  0  0  0  0  0  0  0
   -2.0330    1.7983    1.4349 O   0  0  0  0  0  0  0  0  0  0  0  0
   -2.7650   -1.2526   -1.6741 H   0  0  0  0  0  0  0  0  0  0  0  0
   -2.4786   -1.4729    0.0674 H   0  0  0  0  0  0  0  0  0  0  0  0
   -3.9737   -0.6412   -0.4564 H   0  0  0  0  0  0  0  0  0  0  0  0
   -2.2598    1.0787   -1.5283 H   0  0  0  0  0  0  0  0  0  0  0  0
   -0.6408   -0.2075    0.6124 H   0  0  0  0  0  0  0  0  0  0  0  0
   -0.7304   -1.3421   -1.5231 H   0  0  0  0  0  0  0  0  0  0  0  0
   -0.4231    0.2086   -2.3242 H   0  0  0  0  0  0  0  0  0  0  0  0
    1.3513    0.2223    0.6546 H   0  0  0  0  0  0  0  0  0  0  0  0
    3.8179   -1.0437   -0.6793 H   0  0  0  0  0  0  0  0  0  0  0  0
    4.4034   -1.7120    1.6751 H   0  0  0  0  0  0  0  0  0  0  0  0
    2.8589   -0.9287    2.3226 H   0  0  0  0  0  0  0  0  0  0  0  0
    5.2109    0.4962    0.7812 H   0  0  0  0  0  0  0  0  0  0  0  0
    3.6636    1.3657    1.2890 H   0  0  0  0  0  0  0  0  0  0  0  0
   -4.8430    1.0790    0.2184 H   0  0  0  0  0  0  0  0  0  0  0  0
   -4.3959    2.7122    0.7742 H   0  0  0  0  0  0  0  0  0  0  0  0
  1  2  1  0
  2  3  1  0
  3  4  1  0
  4  5  1  0
  5  6  2  0
  5  7  1  0
  7  8  1  0
  8  9  1  0
  9 10  1  0
  2 11  1  0
 11 12  1  0
 11 13  2  0
 10  8  1  0
  1 14  1  0
  1 15  1  0
  1 16  1  0
  2 17  1  6
  3 18  1  0
  4 19  1  0
  4 20  1  0
  7 21  1  0
  8 22  1  0
  9 23  1  0
  9 24  1  0
 10 25  1  0
 10 26  1  0
 12 27  1  0
 12 28  1  0
M  END
$$$$

     RDKit          3D

 28 28  0  0  0  0  0  0  0  0999 V2000
   -3.1211    0.1223    0.5009 C   0  0  0  0  0  0  0  0  0  0  0  0
   -2.2269   -0.2253   -0.6720 C   0  0  2  0  0  0  0  0  0  0  0  0
   -0.8345   -0.2444   -0.3022 N   0  0  0  0  0  0  0  0  0  0  0  0
   -0.5484   -1.2448    0.6841 C   0  0  0  0  0  0  0  0  0  0  0  0
    0.9064   -1.2270    1.0284 C   0  0  0  0  0  0  0  0  0  0  0  0
    1.4000   -2.0112    1.8710 O   0  0  0  0  0  0  0  0  0  0  0  0
    1.8150   -0.3161    0.4167 N   0  0  0  0  0  0  0  0  0  0  0  0
    3.2164   -0.2973    0.7470 C   0  0  0  0  0  0  0  0  0  0  0  0
    4.2549    0.0530   -0.2257 C   0  0  0  0  0  0  0  0  0  0  0  0
    3.9381    1.0147    0.9207 C   0  0  0  0  0  0  0  0  0  0  0  0
   -2.4204    0.7680   -1.7614 C   0  0  0  0  0  0  0  0  0  0  0  0
   -3.7385    0.9378   -2.2722 N   0  0  0  0  0  0  0  0  0  0  0  0
   -1.4511    1.4114   -2.1901 O   0  0  0  0  0  0  0  0  0  0  0  0
   -3.7889    0.9582    0.2088 H   0  0  0  0  0  0  0  0  0  0  0  0
   -3.7918   -0.7472    0.7356 H   0  0  0  0  0  0  0  0  0  0  0  0
   -2.5732    0.4185    1.3969 H   0  0  0  0  0  0  0  0  0  0  0  0
   -2.4844   -1.2359   -1.0417 H   0  0  0  0  0  0  0  0  0  0  0  0
   -0.5271    0.6976    0.0877 H   0  0  0  0  0  0  0  0  0  0  0  0
   -0.9205   -2.2373    0.4345 H   0  0  0  0  0  0  0  0  0  0  0  0
   -1.0737   -0.9430    1.6371 H   0  0  0  0  0  0  0  0  0  0  0  0
    1.4422    0.3518   -0.2909 H   0  0  0  0  0  0  0  0  0  0  0  0
    3.5037   -1.0490    1.5131 H   0  0  0  0  0  0  0  0  0  0  0  0
    4.0488    0.4933   -1.2182 H   0  0  0  0  0  0  0  0  0  0  0  0
    5.2260   -0.4855   -0.2005 H   0  0  0  0  0  0  0  0  0  0  0  0
    3.4356    1.9577    0.7289 H   0  0  0  0  0  0  0  0  0  0  0  0
    4.7644    1.0931    1.6680 H   0  0  0  0  0  0  0  0  0  0  0  0
   -4.3111    0.1022   -2.4518 H   0  0  0  0  0  0  0  0  0  0  0  0
   -4.1397    1.8843   -2.4688 H   0  0  0  0  0  0  0  0  0  0  0  0
  1  2  1  0
  2  3  1  0
  3  4  1  0
  4  5  1  0
  5  6  2  0
  5  7  1  0
  7  8  1  0
  8  9  1  0
  9 10  1  0
  2 11  1  0
 11 12  1  0
 11 13  2  0
 10  8  1  0
  1 14  1  0
  1 15  1  0
  1 16  1  0
  2 17  1  6
  3 18  1  0
  4 19  1  0
  4 20  1  0
  7 21  1  0
  8 22  1  0
  9 23  1  0
  9 24  1  0
 10 25  1  0
 10 26  1  0
 12 27  1  0
 12 28  1  0
M  END
$$$$

     RDKit          3D

 28 28  0  0  0  0  0  0  0  0999 V2000
   -2.6650   -1.2314   -0.3224 C   0  0  0  0  0  0  0  0  0  0  0  0
   -2.2642    0.2480   -0.4649 C   0  0  2  0  0  0  0  0  0  0  0  0
   -0.8761    0.4262   -0.2047 N   0  0  0  0  0  0  0  0  0  0  0  0
   -0.3923    0.1920    1.0967 C   0  0  0  0  0  0  0  0  0  0  0  0
    1.0904    0.1005    1.2221 C   0  0  0  0  0  0  0  0  0  0  0  0
    1.5690   -0.0862    2.3632 O   0  0  0  0  0  0  0  0  0  0  0  0
    1.9870    0.2038    0.1266 N   0  0  0  0  0  0  0  0  0  0  0  0
    3.4336    0.0923    0.3509 C   0  0  0  0  0  0  0  0  0  0  0  0
    4.3515    0.4713   -0.7758 C   0  0  0  0  0  0  0  0  0  0  0  0
    4.1018   -1.0176   -0.4824 C   0  0  0  0  0  0  0  0  0  0  0  0
   -3.1836    1.0348    0.4028 C   0  0  0  0  0  0  0  0  0  0  0  0
   -4.5792    0.8958    0.1821 N   0  0  0  0  0  0  0  0  0  0  0  0
   -2.8382    1.8119    1.3071 O   0  0  0  0  0  0  0  0  0  0  0  0
   -2.2096   -1.5955    0.6093 H   0  0  0  0  0  0  0  0  0  0  0  0
   -3.7464   -1.3159   -0.2552 H   0  0  0  0  0  0  0  0  0  0  0  0
   -2.2724   -1.7598   -1.2209 H   0  0  0  0  0  0  0  0  0  0  0  0
   -2.4590    0.5141   -1.5254 H   0  0  0  0  0  0  0  0  0  0  0  0
   -0.3578   -0.0730   -0.9722 H   0  0  0  0  0  0  0  0  0  0  0  0
   -0.6803    1.1046    1.7204 H   0  0  0  0  0  0  0  0  0  0  0  0
   -0.8105   -0.6957    1.5841 H   0  0  0  0  0  0  0  0  0  0  0  0
    1.6332    0.3587   -0.8239 H   0  0  0  0  0  0  0  0  0  0  0  0
    3.7778    0.1169    1.3978 H   0  0  0  0  0  0  0  0  0  0  0  0
    3.8852    0.8213   -1.7384 H   0  0  0  0  0  0  0  0  0  0  0  0
    5.3732    0.8198   -0.5491 H   0  0  0  0  0  0  0  0  0  0  0  0
    3.4334   -1.5796   -1.1909 H   0  0  0  0  0  0  0  0  0  0  0  0
    4.9108   -1.5832   -0.0018 H   0  0  0  0  0  0  0  0  0  0  0  0
   -5.2226    0.4018    0.8311 H   0  0  0  0  0  0  0  0  0  0  0  0
   -4.9900    1.3241   -0.6853 H   0  0  0  0  0  0  0  0  0  0  0  0
  1  2  1  0
  2  3  1  0
  3  4  1  0
  4  5  1  0
  5  6  2  0
  5  7  1  0
  7  8  1  0
  8  9  1  0
  9 10  1  0
  2 11  1  0
 11 12  1  0
 11 13  2  0
 10  8  1  0
  1 14  1  0
  1 15  1  0
  1 16  1  0
  2 17  1  6
  3 18  1  0
  4 19  1  0
  4 20  1  0
  7 21  1  0
  8 22  1  0
  9 23  1  0
  9 24  1  0
 10 25  1  0
 10 26  1  0
 12 27  1  0
 12 28  1  0
M  END
$$$$

     RDKit          3D

 28 28  0  0  0  0  0  0  0  0999 V2000
   -2.8718   -1.4767    0.2028 C   0  0  0  0  0  0  0  0  0  0  0  0
   -2.7345   -0.1576   -0.4823 C   0  0  2  0  0  0  0  0  0  0  0  0
   -1.4457    0.2469   -0.9169 N   0  0  0  0  0  0  0  0  0  0  0  0
   -0.4870    0.3329    0.1364 C   0  0  0  0  0  0  0  0  0  0  0  0
    0.8384    0.3301   -0.4321 C   0  0  0  0  0  0  0  0  0  0  0  0
    0.9120    0.2228   -1.7391 O   0  0  0  0  0  0  0  0  0  0  0  0
    2.0636    0.4408    0.2877 N   0  0  0  0  0  0  0  0  0  0  0  0
    3.3030    0.4313   -0.4803 C   0  0  0  0  0  0  0  0  0  0  0  0
    4.6009    0.1842    0.1510 C   0  0  0  0  0  0  0  0  0  0  0  0
    3.9307   -0.9891   -0.3199 C   0  0  0  0  0  0  0  0  0  0  0  0
   -3.4376    0.9621    0.1032 C   0  0  0  0  0  0  0  0  0  0  0  0
   -3.0286    1.3677    1.4237 N   0  0  0  0  0  0  0  0  0  0  0  0
   -4.3508    1.5948   -0.4557 O   0  0  0  0  0  0  0  0  0  0  0  0
   -2.1609   -2.2146   -0.2521 H   0  0  0  0  0  0  0  0  0  0  0  0
   -2.8235   -1.4531    1.3145 H   0  0  0  0  0  0  0  0  0  0  0  0
   -3.9400   -1.8470   -0.0553 H   0  0  0  0  0  0  0  0  0  0  0  0
   -3.3215   -0.3410   -1.4958 H   0  0  0  0  0  0  0  0  0  0  0  0
   -1.0952   -0.2940   -1.7069 H   0  0  0  0  0  0  0  0  0  0  0  0
   -0.5534   -0.6406    0.7870 H   0  0  0  0  0  0  0  0  0  0  0  0
   -0.6634    1.1861    0.8509 H   0  0  0  0  0  0  0  0  0  0  0  0
    2.0412    0.5549    1.2987 H   0  0  0  0  0  0  0  0  0  0  0  0
    3.1763    0.7121   -1.5721 H   0  0  0  0  0  0  0  0  0  0  0  0
    4.7309    0.3655    1.2544 H   0  0  0  0  0  0  0  0  0  0  0  0
    5.4945    0.5515   -0.4367 H   0  0  0  0  0  0  0  0  0  0  0  0
    3.4503   -1.6901    0.4119 H   0  0  0  0  0  0  0  0  0  0  0  0
    4.1091   -1.5142   -1.2866 H   0  0  0  0  0  0  0  0  0  0  0  0
   -3.0894    0.7546    2.2379 H   0  0  0  0  0  0  0  0  0  0  0  0
   -2.6476    2.3797    1.4175 H   0  0  0  0  0  0  0  0  0  0  0  0
  1  2  1  0
  2  3  1  0
  3  4  1  0
  4  5  1  0
  5  6  2  0
  5  7  1  0
  7  8  1  0
  8  9  1  0
  9 10  1  0
  2 11  1  0
 11 12  1  0
 11 13  2  0
 10  8  1  0
  1 14  1  0
  1 15  1  0
  1 16  1  0
  2 17  1  6
  3 18  1  0
  4 19  1  0
  4 20  1  0
  7 21  1  0
  8 22  1  0
  9 23  1  0
  9 24  1  0
 10 25  1  0
 10 26  1  0
 12 27  1  0
 12 28  1  0
M  END
$$$$

     RDKit          3D

 28 28  0  0  0  0  0  0  0  0999 V2000
   -2.6942   -1.4627   -0.7685 C   0  0  0  0  0  0  0  0  0  0  0  0
   -2.1222   -0.1622   -0.3767 C   0  0  2  0  0  0  0  0  0  0  0  0
   -1.3092   -0.2347    0.8499 N   0  0  0  0  0  0  0  0  0  0  0  0
   -0.2285   -1.1381    0.5111 C   0  0  0  0  0  0  0  0  0  0  0  0
    0.9931   -0.5804   -0.0568 C   0  0  0  0  0  0  0  0  0  0  0  0
    1.4394   -1.1721   -1.1552 O   0  0  0  0  0  0  0  0  0  0  0  0
    1.7920    0.4931    0.4503 N   0  0  0  0  0  0  0  0  0  0  0  0
    2.9555    0.9103   -0.2495 C   0  0  0  0  0  0  0  0  0  0  0  0
    4.0828    1.6567    0.2371 C   0  0  0  0  0  0  0  0  0  0  0  0
    4.2013    0.1720    0.1480 C   0  0  0  0  0  0  0  0  0  0  0  0
   -3.0725    0.9500   -0.2685 C   0  0  0  0  0  0  0  0  0  0  0  0
   -4.1037    0.9452    0.7089 N   0  0  0  0  0  0  0  0  0  0  0  0
   -2.9618    1.9719   -1.0972 O   0  0  0  0  0  0  0  0  0  0  0  0
   -3.2553   -1.9685   -0.0019 H   0  0  0  0  0  0  0  0  0  0  0  0
   -3.3122   -1.3809   -1.6908 H   0  0  0  0  0  0  0  0  0  0  0  0
   -1.8457   -2.2093   -1.0377 H   0  0  0  0  0  0  0  0  0  0  0  0
   -1.3991    0.1709   -1.2459 H   0  0  0  0  0  0  0  0  0  0  0  0
   -1.9453   -0.6953    1.5783 H   0  0  0  0  0  0  0  0  0  0  0  0
    0.1354   -1.3725    1.6868 H   0  0  0  0  0  0  0  0  0  0  0  0
   -0.5285   -2.1398    0.2683 H   0  0  0  0  0  0  0  0  0  0  0  0
    1.5084    0.8536    1.3663 H   0  0  0  0  0  0  0  0  0  0  0  0
    2.7845    0.8052   -1.3851 H   0  0  0  0  0  0  0  0  0  0  0  0
    4.0521    2.1500    1.2541 H   0  0  0  0  0  0  0  0  0  0  0  0
    4.7198    2.2486   -0.4971 H   0  0  0  0  0  0  0  0  0  0  0  0
    4.7636   -0.3029   -0.7007 H   0  0  0  0  0  0  0  0  0  0  0  0
    4.3135   -0.3238    1.1048 H   0  0  0  0  0  0  0  0  0  0  0  0
   -3.8979    0.4455    1.6382 H   0  0  0  0  0  0  0  0  0  0  0  0
   -5.0654    1.3701    0.5825 H   0  0  0  0  0  0  0  0  0  0  0  0
  1  2  1  0
  2  3  1  0
  3  4  1  0
  4  5  1  0
  5  6  2  0
  5  7  1  0
  7  8  1  0
  8  9  1  0
  9 10  1  0
  2 11  1  0
 11 12  1  0
 11 13  2  0
 10  8  1  0
  1 14  1  0
  1 15  1  0
  1 16  1  0
  2 17  1  6
  3 18  1  0
  4 19  1  0
  4 20  1  0
  7 21  1  0
  8 22  1  0
  9 23  1  0
  9 24  1  0
 10 25  1  0
 10 26  1  0
 12 27  1  0
 12 28  1  0
M  END
$$$$

     RDKit          3D

 28 28  0  0  0  0  0  0  0  0999 V2000
   -2.8531   -1.3655    0.4409 C   0  0  0  0  0  0  0  0  0  0  0  0
   -2.5022   -0.2676   -0.4461 C   0  0  2  0  0  0  0  0  0  0  0  0
   -1.0555    0.0265   -0.5975 N   0  0  0  0  0  0  0  0  0  0  0  0
   -0.6037    0.3330    0.7826 C   0  0  0  0  0  0  0  0  0  0  0  0
    0.8303    0.1357    0.9099 C   0  0  0  0  0  0  0  0  0  0  0  0
    1.3037    0.1340    2.1886 O   0  0  0  0  0  0  0  0  0  0  0  0
    1.8427   -0.0547   -0.0296 N   0  0  0  0  0  0  0  0  0  0  0  0
    3.2304   -0.3461    0.3624 C   0  0  0  0  0  0  0  0  0  0  0  0
    4.3344    0.5546   -0.1749 C   0  0  0  0  0  0  0  0  0  0  0  0
    4.2059   -0.8335   -0.6205 C   0  0  0  0  0  0  0  0  0  0  0  0
   -3.3961    0.8829   -0.4779 C   0  0  0  0  0  0  0  0  0  0  0  0
   -3.3223    1.8380    0.6689 N   0  0  0  0  0  0  0  0  0  0  0  0
   -4.1800    1.1172   -1.3864 O   0  0  0  0  0  0  0  0  0  0  0  0
   -4.0023   -1.4736    0.4470 H   0  0  0  0  0  0  0  0  0  0  0  0
   -2.5846   -1.3690    1.4926 H   0  0  0  0  0  0  0  0  0  0  0  0
   -2.4519   -2.3336   -0.0031 H   0  0  0  0  0  0  0  0  0  0  0  0
   -2.6693   -0.7306   -1.5291 H   0  0  0  0  0  0  0  0  0  0  0  0
   -0.6198   -0.8260   -0.9671 H   0  0  0  0  0  0  0  0  0  0  0  0
   -0.8218    1.4881    0.8905 H   0  0  0  0  0  0  0  0  0  0  0  0
   -1.1841   -0.0983    1.5806 H   0  0  0  0  0  0  0  0  0  0  0  0
    1.5911    0.0666   -1.0600 H   0  0  0  0  0  0  0  0  0  0  0  0
    3.3425   -0.6915    1.4273 H   0  0  0  0  0  0  0  0  0  0  0  0
    4.0778    1.3741   -0.8782 H   0  0  0  0  0  0  0  0  0  0  0  0
    5.0858    0.8289    0.5967 H   0  0  0  0  0  0  0  0  0  0  0  0
    3.9504   -1.1016   -1.6567 H   0  0  0  0  0  0  0  0  0  0  0  0
    5.0034   -1.5592   -0.2347 H   0  0  0  0  0  0  0  0  0  0  0  0
   -3.7105    1.5462    1.5476 H   0  0  0  0  0  0  0  0  0  0  0  0
   -2.8412    2.7251    0.4252 H   0  0  0  0  0  0  0  0  0  0  0  0
  1  2  1  0
  2  3  1  0
  3  4  1  0
  4  5  1  0
  5  6  2  0
  5  7  1  0
  7  8  1  0
  8  9  1  0
  9 10  1  0
  2 11  1  0
 11 12  1  0
 11 13  2  0
 10  8  1  0
  1 14  1  0
  1 15  1  0
  1 16  1  0
  2 17  1  6
  3 18  1  0
  4 19  1  0
  4 20  1  0
  7 21  1  0
  8 22  1  0
  9 23  1  0
  9 24  1  0
 10 25  1  0
 10 26  1  0
 12 27  1  0
 12 28  1  0
M  END
$$$$

     RDKit          3D

 28 28  0  0  0  0  0  0  0  0999 V2000
   -3.1848    0.0096    0.4472 C   0  0  0  0  0  0  0  0  0  0  0  0
   -2.4564   -0.3557   -0.8335 C   0  0  2  0  0  0  0  0  0  0  0  0
   -1.1250    0.0530   -0.7902 N   0  0  0  0  0  0  0  0  0  0  0  0
   -0.2293   -0.4621    0.1441 C   0  0  0  0  0  0  0  0  0  0  0  0
    1.1167    0.1540   -0.0780 C   0  0  0  0  0  0  0  0  0  0  0  0
    1.3178    0.9925   -0.9894 O   0  0  0  0  0  0  0  0  0  0  0  0
    2.1772   -0.2243    0.7628 N   0  0  0  0  0  0  0  0  0  0  0  0
    3.5361    0.3111    0.6381 C   0  0  0  0  0  0  0  0  0  0  0  0
    4.6345   -0.5674    1.0431 C   0  0  0  0  0  0  0  0  0  0  0  0
    4.2968    0.6321    1.8720 C   0  0  0  0  0  0  0  0  0  0  0  0
   -3.1643    0.3250   -1.9446 C   0  0  0  0  0  0  0  0  0  0  0  0
   -4.5270    0.1075   -2.2265 N   0  0  0  0  0  0  0  0  0  0  0  0
   -2.5201    1.1255   -2.6603 O   0  0  0  0  0  0  0  0  0  0  0  0
   -4.0719   -0.6553    0.5721 H   0  0  0  0  0  0  0  0  0  0  0  0
   -2.5254   -0.1047    1.3170 H   0  0  0  0  0  0  0  0  0  0  0  0
   -3.5382    1.0665    0.4347 H   0  0  0  0  0  0  0  0  0  0  0  0
   -2.5448   -1.4574   -0.9997 H   0  0  0  0  0  0  0  0  0  0  0  0
   -0.8407    0.8618   -1.3560 H   0  0  0  0  0  0  0  0  0  0  0  0
   -0.5238   -0.1885    1.1768 H   0  0  0  0  0  0  0  0  0  0  0  0
   -0.1668   -1.5658    0.0581 H   0  0  0  0  0  0  0  0  0  0  0  0
    2.0172   -0.9318    1.5374 H   0  0  0  0  0  0  0  0  0  0  0  0
    3.6327    1.0126   -0.1912 H   0  0  0  0  0  0  0  0  0  0  0  0
    4.3864   -1.5807    1.4565 H   0  0  0  0  0  0  0  0  0  0  0  0
    5.5910   -0.5346    0.4908 H   0  0  0  0  0  0  0  0  0  0  0  0
    4.9506    1.5174    1.8501 H   0  0  0  0  0  0  0  0  0  0  0  0
    3.8695    0.4287    2.8749 H   0  0  0  0  0  0  0  0  0  0  0  0
   -5.1525   -0.2154   -1.4556 H   0  0  0  0  0  0  0  0  0  0  0  0
   -4.9552    0.2463   -3.1508 H   0  0  0  0  0  0  0  0  0  0  0  0
  1  2  1  0
  2  3  1  0
  3  4  1  0
  4  5  1  0
  5  6  2  0
  5  7  1  0
  7  8  1  0
  8  9  1  0
  9 10  1  0
  2 11  1  0
 11 12  1  0
 11 13  2  0
 10  8  1  0
  1 14  1  0
  1 15  1  0
  1 16  1  0
  2 17  1  6
  3 18  1  0
  4 19  1  0
  4 20  1  0
  7 21  1  0
  8 22  1  0
  9 23  1  0
  9 24  1  0
 10 25  1  0
 10 26  1  0
 12 27  1  0
 12 28  1  0
M  END
$$$$
