
     RDKit          3D

 28 27  0  0  0  0  0  0  0  0999 V2000
    3.8467    0.3830   -0.0696 C   0  0  0  0  0  0  0  0  0  0  0  0
    2.9296    0.7397   -0.9695 O   0  0  0  0  0  0  0  0  0  0  0  0
    1.6136    0.6843   -0.8243 C   0  0  0  0  0  0  0  0  0  0  0  0
    1.0054   -0.6450   -0.5830 C   0  0  1  0  0  0  0  0  0  0  0  0
    1.4834   -1.2764    0.7123 C   0  0  0  0  0  0  0  0  0  0  0  0
   -0.4666   -0.5556   -0.5349 N   0  0  0  0  0  0  0  0  0  0  0  0
   -0.9611    0.2505    0.5264 C   0  0  0  0  0  0  0  0  0  0  0  0
   -2.4724    0.2327    0.5423 C   0  0  2  0  0  0  0  0  0  0  0  0
   -2.9011   -1.0873    0.7228 O   0  0  0  0  0  0  0  0  0  0  0  0
   -3.0696    0.7846   -0.7537 C   0  0  0  0  0  0  0  0  0  0  0  0
   -4.4635    0.7583   -0.6786 O   0  0  0  0  0  0  0  0  0  0  0  0
    3.9087   -0.6491    0.2593 H   0  0  0  0  0  0  0  0  0  0  0  0
    3.7384    0.9911    0.8807 H   0  0  0  0  0  0  0  0  0  0  0  0
    4.8993    0.6280   -0.4223 H   0  0  0  0  0  0  0  0  0  0  0  0
    1.2718    1.3693    0.0226 H   0  0  0  0  0  0  0  0  0  0  0  0
    1.1473    1.1328   -1.7573 H   0  0  0  0  0  0  0  0  0  0  0  0
    1.2359   -1.3521   -1.3984 H   0  0  0  0  0  0  0  0  0  0  0  0
    0.5771   -1.7682    1.1778 H   0  0  0  0  0  0  0  0  0  0  0  0
    1.9179   -0.5906    1.4271 H   0  0  0  0  0  0  0  0  0  0  0  0
    2.1647   -2.0937    0.4762 H   0  0  0  0  0  0  0  0  0  0  0  0
   -0.7574   -0.1270   -1.4434 H   0  0  0  0  0  0  0  0  0  0  0  0
   -0.6961    1.3444    0.4234 H   0  0  0  0  0  0  0  0  0  0  0  0
   -0.6338   -0.0659    1.5336 H   0  0  0  0  0  0  0  0  0  0  0  0
   -2.8555    0.8341    1.4099 H   0  0  0  0  0  0  0  0  0  0  0  0
   -2.1814   -1.6982    0.4024 H   0  0  0  0  0  0  0  0  0  0  0  0
   -2.7480    1.8156   -0.8974 H   0  0  0  0  0  0  0  0  0  0  0  0
   -2.7529    0.1201   -1.5965 H   0  0  0  0  0  0  0  0  0  0  0  0
   -4.7803   -0.1593   -0.4053 H   0  0  0  0  0  0  0  0  0  0  0  0
  1  2  1  0
  2  3  1  0
  3  4  1  0
  4  5  1  0
  4  6  1  0
  6  7  1  0
  7  8  1  0
  8  9  1  0
  8 10  1  0
 10 11  1  0
  1 12  1  0
  1 13  1  0
  1 14  1  0
  3 15  1  0
  3 16  1  0
  4 17  1  6
  5 18  1  0
  5 19  1  0
  5 20  1  0
  6 21  1  0
  7 22  1  0
  7 23  1  0
  8 24  1  1
  9 25  1  0
 10 26  1  0
 10 27  1  0
 11 28  1  0
M  END
$$$$

     RDKit          3D

 28 27  0  0  0  0  0  0  0  0999 V2000
   -3.5404    0.8868   -0.4343 C   0  0  0  0  0  0  0  0  0  0  0  0
   -2.9892   -0.1160   -1.1811 O   0  0  0  0  0  0  0  0  0  0  0  0
   -1.6161   -0.1775   -1.0291 C   0  0  0  0  0  0  0  0  0  0  0  0
   -1.1455   -0.4444    0.3588 C   0  0  1  0  0  0  0  0  0  0  0  0
   -1.7593   -1.7424    0.8332 C   0  0  0  0  0  0  0  0  0  0  0  0
    0.2899   -0.5217    0.4885 N   0  0  0  0  0  0  0  0  0  0  0  0
    0.9453    0.7064    0.1553 C   0  0  0  0  0  0  0  0  0  0  0  0
    2.4455    0.6264    0.3310 C   0  0  2  0  0  0  0  0  0  0  0  0
    3.0041    1.8519   -0.0169 O   0  0  0  0  0  0  0  0  0  0  0  0
    3.0624   -0.4401   -0.5217 C   0  0  0  0  0  0  0  0  0  0  0  0
    4.4495   -0.4282   -0.2751 O   0  0  0  0  0  0  0  0  0  0  0  0
   -3.3775    0.7676    0.6432 H   0  0  0  0  0  0  0  0  0  0  0  0
   -4.6472    0.8614   -0.5844 H   0  0  0  0  0  0  0  0  0  0  0  0
   -3.1101    1.8554   -0.7811 H   0  0  0  0  0  0  0  0  0  0  0  0
   -1.2461    0.8310   -1.3921 H   0  0  0  0  0  0  0  0  0  0  0  0
   -1.1636   -0.8991   -1.7516 H   0  0  0  0  0  0  0  0  0  0  0  0
   -1.4783    0.3929    1.0242 H   0  0  0  0  0  0  0  0  0  0  0  0
   -1.1899   -2.6294    0.4994 H   0  0  0  0  0  0  0  0  0  0  0  0
   -2.8036   -1.8880    0.4251 H   0  0  0  0  0  0  0  0  0  0  0  0
   -1.8817   -1.7425    1.9367 H   0  0  0  0  0  0  0  0  0  0  0  0
    0.6937   -1.3601    0.0460 H   0  0  0  0  0  0  0  0  0  0  0  0
    0.5519    1.4997    0.8494 H   0  0  0  0  0  0  0  0  0  0  0  0
    0.6751    1.0360   -0.8634 H   0  0  0  0  0  0  0  0  0  0  0  0
    2.7257    0.4286    1.3828 H   0  0  0  0  0  0  0  0  0  0  0  0
    2.7880    2.0141   -0.9813 H   0  0  0  0  0  0  0  0  0  0  0  0
    2.7160   -1.4616   -0.1949 H   0  0  0  0  0  0  0  0  0  0  0  0
    2.8904   -0.3162   -1.6043 H   0  0  0  0  0  0  0  0  0  0  0  0
    4.7108    0.4090    0.1933 H   0  0  0  0  0  0  0  0  0  0  0  0
  1  2  1  0
  2  3  1  0
  3  4  1  0
  4  5  1  0
  4  6  1  0
  6  7  1  0
  7  8  1  0
  8  9  1  0
  8 10  1  0
 10 11  1  0
  1 12  1  0
  1 13  1  0
  1 14  1  0
  3 15  1  0
  3 16  1  0
  4 17  1  1
  5 18  1  0
  5 19  1  0
  5 20  1  0
  6 21  1  0
  7 22  1  0
  7 23  1  0
  8 24  1  1
  9 25  1  0
 10 26  1  0
 10 27  1  0
 11 28  1  0
M  END
$$$$

     RDKit          3D

 28 27  0  0  0  0  0  0  0  0999 V2000
   -3.4269   -0.3436    1.1609 C   0  0  0  0  0  0  0  0  0  0  0  0
   -3.4275    0.3028   -0.0640 O   0  0  0  0  0  0  0  0  0  0  0  0
   -2.2527    0.9341   -0.3001 C   0  0  0  0  0  0  0  0  0  0  0  0
   -1.0144    0.0673   -0.3388 C   0  0  1  0  0  0  0  0  0  0  0  0
   -1.2090   -1.0211   -1.3493 C   0  0  0  0  0  0  0  0  0  0  0  0
    0.0688    0.9794   -0.6407 N   0  0  0  0  0  0  0  0  0  0  0  0
    1.3590    0.4105   -0.7456 C   0  0  0  0  0  0  0  0  0  0  0  0
    1.8780   -0.0830    0.5880 C   0  0  2  0  0  0  0  0  0  0  0  0
    1.9491    1.0021    1.4834 O   0  0  0  0  0  0  0  0  0  0  0  0
    3.2249   -0.7486    0.4335 C   0  0  0  0  0  0  0  0  0  0  0  0
    4.1825    0.1467   -0.0372 O   0  0  0  0  0  0  0  0  0  0  0  0
   -4.4391   -0.8398    1.3129 H   0  0  0  0  0  0  0  0  0  0  0  0
   -3.2475    0.3524    2.0066 H   0  0  0  0  0  0  0  0  0  0  0  0
   -2.6538   -1.1364    1.1577 H   0  0  0  0  0  0  0  0  0  0  0  0
   -2.0303    1.7026    0.5055 H   0  0  0  0  0  0  0  0  0  0  0  0
   -2.2561    1.5371   -1.2487 H   0  0  0  0  0  0  0  0  0  0  0  0
   -0.8956   -0.3868    0.6597 H   0  0  0  0  0  0  0  0  0  0  0  0
   -2.2809   -1.0408   -1.6990 H   0  0  0  0  0  0  0  0  0  0  0  0
   -1.0426   -2.0463   -0.9368 H   0  0  0  0  0  0  0  0  0  0  0  0
   -0.5872   -0.9236   -2.2420 H   0  0  0  0  0  0  0  0  0  0  0  0
   -0.0130    1.7626    0.0288 H   0  0  0  0  0  0  0  0  0  0  0  0
    1.4633   -0.3562   -1.5327 H   0  0  0  0  0  0  0  0  0  0  0  0
    2.0405    1.2580   -1.0571 H   0  0  0  0  0  0  0  0  0  0  0  0
    1.1851   -0.8098    1.0719 H   0  0  0  0  0  0  0  0  0  0  0  0
    2.8582    1.4034    1.4520 H   0  0  0  0  0  0  0  0  0  0  0  0
    3.5421   -1.0892    1.4643 H   0  0  0  0  0  0  0  0  0  0  0  0
    3.0811   -1.6117   -0.2486 H   0  0  0  0  0  0  0  0  0  0  0  0
    3.9439    0.5781   -0.8848 H   0  0  0  0  0  0  0  0  0  0  0  0
  1  2  1  0
  2  3  1  0
  3  4  1  0
  4  5  1  0
  4  6  1  0
  6  7  1  0
  7  8  1  0
  8  9  1  0
  8 10  1  0
 10 11  1  0
  1 12  1  0
  1 13  1  0
  1 14  1  0
  3 15  1  0
  3 16  1  0
  4 17  1  1
  5 18  1  0
  5 19  1  0
  5 20  1  0
  6 21  1  0
  7 22  1  0
  7 23  1  0
  8 24  1  1
  9 25  1  0
 10 26  1  0
 10 27  1  0
 11 28  1  0
M  END
$$$$

     RDKit          3D

 28 27  0  0  0  0  0  0  0  0999 V2000
    3.1488    1.3337   -0.0847 C   0  0  0  0  0  0  0  0  0  0  0  0
    3.1944    0.1274    0.5602 O   0  0  0  0  0  0  0  0  0  0  0  0
    2.0349   -0.3302    1.1105 C   0  0  0  0  0  0  0  0  0  0  0  0
    0.9152   -0.5107    0.0683 C   0  0  1  0  0  0  0  0  0  0  0  0
    1.4781   -1.4551   -0.9600 C   0  0  0  0  0  0  0  0  0  0  0  0
   -0.2147   -1.0039    0.7685 N   0  0  0  0  0  0  0  0  0  0  0  0
   -1.4118   -1.2216    0.0487 C   0  0  0  0  0  0  0  0  0  0  0  0
   -2.1446   -0.0163   -0.4394 C   0  0  2  0  0  0  0  0  0  0  0  0
   -1.3836    0.7465   -1.2800 O   0  0  0  0  0  0  0  0  0  0  0  0
   -2.7532    0.8091    0.6744 C   0  0  0  0  0  0  0  0  0  0  0  0
   -3.5660    1.7836    0.0475 O   0  0  0  0  0  0  0  0  0  0  0  0
    4.1935    1.5476   -0.4655 H   0  0  0  0  0  0  0  0  0  0  0  0
    2.7963    2.1803    0.5063 H   0  0  0  0  0  0  0  0  0  0  0  0
    2.5436    1.2428   -1.0306 H   0  0  0  0  0  0  0  0  0  0  0  0
    2.2324   -1.3577    1.5063 H   0  0  0  0  0  0  0  0  0  0  0  0
    1.6680    0.2655    1.9691 H   0  0  0  0  0  0  0  0  0  0  0  0
    0.7041    0.4974   -0.3236 H   0  0  0  0  0  0  0  0  0  0  0  0
    2.5447   -1.7208   -0.7785 H   0  0  0  0  0  0  0  0  0  0  0  0
    0.9385   -2.4239   -1.0035 H   0  0  0  0  0  0  0  0  0  0  0  0
    1.4829   -0.9335   -1.9518 H   0  0  0  0  0  0  0  0  0  0  0  0
   -0.3621   -0.5482    1.6852 H   0  0  0  0  0  0  0  0  0  0  0  0
   -1.2863   -1.8750   -0.8552 H   0  0  0  0  0  0  0  0  0  0  0  0
   -2.1071   -1.7904    0.7366 H   0  0  0  0  0  0  0  0  0  0  0  0
   -3.0349   -0.4190   -1.0162 H   0  0  0  0  0  0  0  0  0  0  0  0
   -1.8000    1.6347   -1.4351 H   0  0  0  0  0  0  0  0  0  0  0  0
   -3.4582    0.1720    1.2695 H   0  0  0  0  0  0  0  0  0  0  0  0
   -1.9927    1.2847    1.2920 H   0  0  0  0  0  0  0  0  0  0  0  0
   -4.3602    1.9810    0.6043 H   0  0  0  0  0  0  0  0  0  0  0  0
  1  2  1  0
  2  3  1  0
  3  4  1  0
  4  5  1  0
  4  6  1  0
  6  7  1  0
  7  8  1  0
  8  9  1  0
  8 10  1  0
 10 11  1  0
  1 12  1  0
  1 13  1  0
  1 14  1  0
  3 15  1  0
  3 16  1  0
  4 17  1  6
  5 18  1  0
  5 19  1  0
  5 20  1  0
  6 21  1  0
  7 22  1  0
  7 23  1  0
  8 24  1  6
  9 25  1  0
 10 26  1  0
 10 27  1  0
 11 28  1  0
M  END
$$$$

     RDKit          3D

 28 27  0  0  0  0  0  0  0  0999 V2000
    3.2136    1.3677   -0.4779 C   0  0  0  0  0  0  0  0  0  0  0  0
    2.4369    0.5072    0.2695 O   0  0  0  0  0  0  0  0  0  0  0  0
    1.5873   -0.1923   -0.6126 C   0  0  0  0  0  0  0  0  0  0  0  0
    0.7771   -1.1187    0.2612 C   0  0  1  0  0  0  0  0  0  0  0  0
    1.7978   -1.9935    1.0173 C   0  0  0  0  0  0  0  0  0  0  0  0
    0.0498   -0.3530    1.1953 N   0  0  0  0  0  0  0  0  0  0  0  0
   -0.9206    0.5598    0.7619 C   0  0  0  0  0  0  0  0  0  0  0  0
   -2.1561   -0.0293    0.1300 C   0  0  2  0  0  0  0  0  0  0  0  0
   -1.8095   -0.7501   -0.9856 O   0  0  0  0  0  0  0  0  0  0  0  0
   -3.1223    1.0972   -0.1299 C   0  0  0  0  0  0  0  0  0  0  0  0
   -4.3274    0.6169   -0.6647 O   0  0  0  0  0  0  0  0  0  0  0  0
    3.9023    1.9409    0.1871 H   0  0  0  0  0  0  0  0  0  0  0  0
    2.6018    2.1356   -1.0087 H   0  0  0  0  0  0  0  0  0  0  0  0
    3.7515    0.7999   -1.2671 H   0  0  0  0  0  0  0  0  0  0  0  0
    0.9336    0.5329   -1.1149 H   0  0  0  0  0  0  0  0  0  0  0  0
    2.1863   -0.8010   -1.3252 H   0  0  0  0  0  0  0  0  0  0  0  0
    0.1454   -1.8165   -0.3644 H   0  0  0  0  0  0  0  0  0  0  0  0
    2.3908   -2.5216    0.2458 H   0  0  0  0  0  0  0  0  0  0  0  0
    2.4069   -1.2788    1.5993 H   0  0  0  0  0  0  0  0  0  0  0  0
    1.2181   -2.6924    1.6520 H   0  0  0  0  0  0  0  0  0  0  0  0
    0.4567   -0.2336    2.1370 H   0  0  0  0  0  0  0  0  0  0  0  0
   -0.4802    1.2985    0.0617 H   0  0  0  0  0  0  0  0  0  0  0  0
   -1.2280    1.1883    1.6628 H   0  0  0  0  0  0  0  0  0  0  0  0
   -2.6276   -0.7066    0.8848 H   0  0  0  0  0  0  0  0  0  0  0  0
   -2.5272   -0.8804   -1.6445 H   0  0  0  0  0  0  0  0  0  0  0  0
   -3.2917    1.6368    0.8180 H   0  0  0  0  0  0  0  0  0  0  0  0
   -2.6922    1.8296   -0.8548 H   0  0  0  0  0  0  0  0  0  0  0  0
   -4.6732   -0.1434   -0.1037 H   0  0  0  0  0  0  0  0  0  0  0  0
  1  2  1  0
  2  3  1  0
  3  4  1  0
  4  5  1  0
  4  6  1  0
  6  7  1  0
  7  8  1  0
  8  9  1  0
  8 10  1  0
 10 11  1  0
  1 12  1  0
  1 13  1  0
  1 14  1  0
  3 15  1  0
  3 16  1  0
  4 17  1  6
  5 18  1  0
  5 19  1  0
  5 20  1  0
  6 21  1  0
  7 22  1  0
  7 23  1  0
  8 24  1  1
  9 25  1  0
 10 26  1  0
 10 27  1  0
 11 28  1  0
M  END
$$$$

     RDKit          3D

 28 27  0  0  0  0  0  0  0  0999 V2000
    3.1072   -0.6075   -1.3198 C   0  0  0  0  0  0  0  0  0  0  0  0
    2.1027   -0.7049   -0.3553 O   0  0  0  0  0  0  0  0  0  0  0  0
    1.9789    0.4799    0.3317 C   0  0  0  0  0  0  0  0  0  0  0  0
    0.9327    0.5010    1.3920 C   0  0  1  0  0  0  0  0  0  0  0  0
    1.0314    1.8755    2.0706 C   0  0  0  0  0  0  0  0  0  0  0  0
   -0.3924    0.2706    1.0340 N   0  0  0  0  0  0  0  0  0  0  0  0
   -0.7735   -0.9529    0.4898 C   0  0  0  0  0  0  0  0  0  0  0  0
   -2.2026   -1.1271    0.1319 C   0  0  2  0  0  0  0  0  0  0  0  0
   -2.3926   -2.4296   -0.3936 O   0  0  0  0  0  0  0  0  0  0  0  0
   -2.7212   -0.2004   -0.9120 C   0  0  0  0  0  0  0  0  0  0  0  0
   -2.6529    1.1347   -0.6423 O   0  0  0  0  0  0  0  0  0  0  0  0
    3.2420   -1.5241   -1.8932 H   0  0  0  0  0  0  0  0  0  0  0  0
    2.8559    0.2094   -2.0481 H   0  0  0  0  0  0  0  0  0  0  0  0
    4.0272   -0.3085   -0.7918 H   0  0  0  0  0  0  0  0  0  0  0  0
    2.9693    0.6365    0.8567 H   0  0  0  0  0  0  0  0  0  0  0  0
    1.8984    1.3672   -0.3540 H   0  0  0  0  0  0  0  0  0  0  0  0
    1.2332   -0.2575    2.1578 H   0  0  0  0  0  0  0  0  0  0  0  0
    0.0740    2.0509    2.6015 H   0  0  0  0  0  0  0  0  0  0  0  0
    1.1695    2.6692    1.3313 H   0  0  0  0  0  0  0  0  0  0  0  0
    1.8169    1.8458    2.8519 H   0  0  0  0  0  0  0  0  0  0  0  0
   -1.0545    1.0554    1.0454 H   0  0  0  0  0  0  0  0  0  0  0  0
   -0.1649   -1.1972   -0.4312 H   0  0  0  0  0  0  0  0  0  0  0  0
   -0.5074   -1.7769    1.2061 H   0  0  0  0  0  0  0  0  0  0  0  0
   -2.8608   -1.0711    1.0214 H   0  0  0  0  0  0  0  0  0  0  0  0
   -3.3133   -2.7575   -0.1892 H   0  0  0  0  0  0  0  0  0  0  0  0
   -3.8087   -0.4654   -1.0665 H   0  0  0  0  0  0  0  0  0  0  0  0
   -2.2532   -0.3900   -1.9174 H   0  0  0  0  0  0  0  0  0  0  0  0
   -3.3411    1.6743   -1.0860 H   0  0  0  0  0  0  0  0  0  0  0  0
  1  2  1  0
  2  3  1  0
  3  4  1  0
  4  5  1  0
  4  6  1  0
  6  7  1  0
  7  8  1  0
  8  9  1  0
  8 10  1  0
 10 11  1  0
  1 12  1  0
  1 13  1  0
  1 14  1  0
  3 15  1  0
  3 16  1  0
  4 17  1  1
  5 18  1  0
  5 19  1  0
  5 20  1  0
  6 21  1  0
  7 22  1  0
  7 23  1  0
  8 24  1  1
  9 25  1  0
 10 26  1  0
 10 27  1  0
 11 28  1  0
M  END
$$$$

     RDKit          3D

 28 27  0  0  0  0  0  0  0  0999 V2000
   -4.0245    0.2939    0.0582 C   0  0  0  0  0  0  0  0  0  0  0  0
   -2.9976   -0.1320    0.8005 O   0  0  0  0  0  0  0  0  0  0  0  0
   -1.7198    0.2322    0.6093 C   0  0  0  0  0  0  0  0  0  0  0  0
   -1.0801   -0.0826   -0.6938 C   0  0  1  0  0  0  0  0  0  0  0  0
   -1.7119    0.7411   -1.7938 C   0  0  0  0  0  0  0  0  0  0  0  0
    0.3258    0.2988   -0.7189 N   0  0  0  0  0  0  0  0  0  0  0  0
    1.1627   -0.3860    0.2009 C   0  0  0  0  0  0  0  0  0  0  0  0
    2.5689    0.1846   -0.0168 C   0  0  2  0  0  0  0  0  0  0  0  0
    2.9349   -0.0514   -1.3176 O   0  0  0  0  0  0  0  0  0  0  0  0
    3.5424   -0.3554    0.9867 C   0  0  0  0  0  0  0  0  0  0  0  0
    3.6436   -1.7280    0.8100 O   0  0  0  0  0  0  0  0  0  0  0  0
   -5.0143   -0.1384    0.4712 H   0  0  0  0  0  0  0  0  0  0  0  0
   -4.2146    1.3819    0.0607 H   0  0  0  0  0  0  0  0  0  0  0  0
   -3.9552   -0.0911   -0.9972 H   0  0  0  0  0  0  0  0  0  0  0  0
   -1.6281    1.3314    0.8638 H   0  0  0  0  0  0  0  0  0  0  0  0
   -1.1210   -0.3151    1.4218 H   0  0  0  0  0  0  0  0  0  0  0  0
   -1.1933   -1.1414   -0.9397 H   0  0  0  0  0  0  0  0  0  0  0  0
   -2.2718    0.1284   -2.5354 H   0  0  0  0  0  0  0  0  0  0  0  0
   -2.3059    1.5397   -1.3178 H   0  0  0  0  0  0  0  0  0  0  0  0
   -0.8775    1.2897   -2.3329 H   0  0  0  0  0  0  0  0  0  0  0  0
    0.6786    0.3812   -1.6717 H   0  0  0  0  0  0  0  0  0  0  0  0
    1.2305   -1.4479   -0.1035 H   0  0  0  0  0  0  0  0  0  0  0  0
    0.8812   -0.3474    1.2482 H   0  0  0  0  0  0  0  0  0  0  0  0
    2.4416    1.2969    0.0889 H   0  0  0  0  0  0  0  0  0  0  0  0
    2.7856   -0.9908   -1.5383 H   0  0  0  0  0  0  0  0  0  0  0  0
    3.1865   -0.0978    2.0095 H   0  0  0  0  0  0  0  0  0  0  0  0
    4.5369    0.0837    0.7699 H   0  0  0  0  0  0  0  0  0  0  0  0
    4.1963   -1.8785    0.0176 H   0  0  0  0  0  0  0  0  0  0  0  0
  1  2  1  0
  2  3  1  0
  3  4  1  0
  4  5  1  0
  4  6  1  0
  6  7  1  0
  7  8  1  0
  8  9  1  0
  8 10  1  0
 10 11  1  0
  1 12  1  0
  1 13  1  0
  1 14  1  0
  3 15  1  0
  3 16  1  0
  4 17  1  6
  5 18  1  0
  5 19  1  0
  5 20  1  0
  6 21  1  0
  7 22  1  0
  7 23  1  0
  8 24  1  6
  9 25  1  0
 10 26  1  0
 10 27  1  0
 11 28  1  0
M  END
$$$$

     RDKit          3D

 28 27  0  0  0  0  0  0  0  0999 V2000
   -2.3726    2.0346   -0.1353 C   0  0  0  0  0  0  0  0  0  0  0  0
   -1.4183    1.1424    0.3630 O   0  0  0  0  0  0  0  0  0  0  0  0
   -1.8773   -0.1245    0.1998 C   0  0  0  0  0  0  0  0  0  0  0  0
   -0.9958   -1.2321    0.6567 C   0  0  1  0  0  0  0  0  0  0  0  0
   -1.7882   -2.5422    0.4319 C   0  0  0  0  0  0  0  0  0  0  0  0
    0.2460   -1.3062    0.0573 N   0  0  0  0  0  0  0  0  0  0  0  0
    1.3364   -0.4893    0.2265 C   0  0  0  0  0  0  0  0  0  0  0  0
    1.3962    0.9147   -0.1874 C   0  0  2  0  0  0  0  0  0  0  0  0
    1.1566    1.1150   -1.5316 O   0  0  0  0  0  0  0  0  0  0  0  0
    2.9429    1.2610   -0.0681 C   0  0  0  0  0  0  0  0  0  0  0  0
    3.6338    0.3771   -0.8911 O   0  0  0  0  0  0  0  0  0  0  0  0
   -3.3547    1.9329    0.4099 H   0  0  0  0  0  0  0  0  0  0  0  0
   -2.5300    1.8355   -1.2050 H   0  0  0  0  0  0  0  0  0  0  0  0
   -2.0619    3.0833    0.0244 H   0  0  0  0  0  0  0  0  0  0  0  0
   -2.1484   -0.2274   -0.8926 H   0  0  0  0  0  0  0  0  0  0  0  0
   -2.9087   -0.2099    0.6879 H   0  0  0  0  0  0  0  0  0  0  0  0
   -0.9345   -1.1940    1.8041 H   0  0  0  0  0  0  0  0  0  0  0  0
   -2.6333   -2.3840   -0.2661 H   0  0  0  0  0  0  0  0  0  0  0  0
   -1.1329   -3.3248    0.0179 H   0  0  0  0  0  0  0  0  0  0  0  0
   -2.2391   -2.9097    1.3861 H   0  0  0  0  0  0  0  0  0  0  0  0
    0.3029   -1.9512   -0.7860 H   0  0  0  0  0  0  0  0  0  0  0  0
    2.1993   -1.0053   -0.3612 H   0  0  0  0  0  0  0  0  0  0  0  0
    1.7885   -0.5592    1.2789 H   0  0  0  0  0  0  0  0  0  0  0  0
    0.9540    1.6798    0.4835 H   0  0  0  0  0  0  0  0  0  0  0  0
    1.9743    0.9161   -2.0351 H   0  0  0  0  0  0  0  0  0  0  0  0
    3.2296    1.1927    0.9903 H   0  0  0  0  0  0  0  0  0  0  0  0
    3.0992    2.2746   -0.4313 H   0  0  0  0  0  0  0  0  0  0  0  0
    4.1360   -0.3000   -0.3532 H   0  0  0  0  0  0  0  0  0  0  0  0
  1  2  1  0
  2  3  1  0
  3  4  1  0
  4  5  1  0
  4  6  1  0
  6  7  1  0
  7  8  1  0
  8  9  1  0
  8 10  1  0
 10 11  1  0
  1 12  1  0
  1 13  1  0
  1 14  1  0
  3 15  1  0
  3 16  1  0
  4 17  1  1
  5 18  1  0
  5 19  1  0
  5 20  1  0
  6 21  1  0
  7 22  1  0
  7 23  1  0
  8 24  1  1
  9 25  1  0
 10 26  1  0
 10 27  1  0
 11 28  1  0
M  END
$$$$
