
     RDKit          3D

 23 22  0  0  0  0  0  0  0  0999 V2000
    1.5897   -1.5028   -0.9621 O   0  0  0  0  0  0  0  0  0  0  0  0
    1.5532   -0.4098   -0.4195 C   0  0  0  0  0  0  0  0  0  0  0  0
    2.4664   -0.0751    0.7021 C   0  0  0  0  0  0  0  0  0  0  0  0
    3.2825   -1.1737    0.9629 O   0  0  0  0  0  0  0  0  0  0  0  0
    0.5639    0.5677   -0.9231 C   0  0  2  0  0  0  0  0  0  0  0  0
    0.6216    1.7697   -0.2243 O   0  0  0  0  0  0  0  0  0  0  0  0
   -0.8330    0.0472   -0.9208 C   0  0  2  0  0  0  0  0  0  0  0  0
   -1.6403    1.0218   -1.5475 O   0  0  0  0  0  0  0  0  0  0  0  0
   -1.3906   -0.1253    0.4774 C   0  0  2  0  0  0  0  0  0  0  0  0
   -0.6231   -1.0823    1.1391 O   0  0  0  0  0  0  0  0  0  0  0  0
   -2.8068   -0.6006    0.4506 C   0  0  0  0  0  0  0  0  0  0  0  0
   -3.5782    0.3453   -0.2317 F   0  0  0  0  0  0  0  0  0  0  0  0
    3.1470    0.7403    0.3607 H   0  0  0  0  0  0  0  0  0  0  0  0
    1.9569    0.2196    1.6213 H   0  0  0  0  0  0  0  0  0  0  0  0
    3.4868   -1.6821    0.1476 H   0  0  0  0  0  0  0  0  0  0  0  0
    0.8315    0.8031   -1.9807 H   0  0  0  0  0  0  0  0  0  0  0  0
    1.5060    2.1620   -0.3414 H   0  0  0  0  0  0  0  0  0  0  0  0
   -0.9306   -0.8755   -1.5218 H   0  0  0  0  0  0  0  0  0  0  0  0
   -1.3149    1.9050   -1.2639 H   0  0  0  0  0  0  0  0  0  0  0  0
   -1.3693    0.8607    0.9769 H   0  0  0  0  0  0  0  0  0  0  0  0
   -0.3924   -0.7455    2.0425 H   0  0  0  0  0  0  0  0  0  0  0  0
   -2.9394   -1.5755   -0.0467 H   0  0  0  0  0  0  0  0  0  0  0  0
   -3.1869   -0.5942    1.5025 H   0  0  0  0  0  0  0  0  0  0  0  0
  1  2  2  0
  2  3  1  0
  3  4  1  0
  2  5  1  0
  5  6  1  0
  5  7  1  0
  7  8  1  0
  7  9  1  0
  9 10  1  0
  9 11  1  0
 11 12  1  0
  3 13  1  0
  3 14  1  0
  4 15  1  0
  5 16  1  6
  6 17  1  0
  7 18  1  6
  8 19  1  0
  9 20  1  1
 10 21  1  0
 11 22  1  0
 11 23  1  0
M  END
$$$$

     RDKit          3D

 23 22  0  0  0  0  0  0  0  0999 V2000
   -2.0177   -0.2311   -1.3720 O   0  0  0  0  0  0  0  0  0  0  0  0
   -1.7759   -0.2824   -0.1939 C   0  0  0  0  0  0  0  0  0  0  0  0
   -2.8303   -0.0184    0.8127 C   0  0  0  0  0  0  0  0  0  0  0  0
   -4.0248    0.2690    0.1578 O   0  0  0  0  0  0  0  0  0  0  0  0
   -0.3739   -0.6219    0.2240 C   0  0  2  0  0  0  0  0  0  0  0  0
   -0.3132   -0.6273    1.6226 O   0  0  0  0  0  0  0  0  0  0  0  0
    0.5082    0.4971   -0.2881 C   0  0  2  0  0  0  0  0  0  0  0  0
    0.4976    0.5624   -1.6519 O   0  0  0  0  0  0  0  0  0  0  0  0
    1.8811    0.4486    0.3237 C   0  0  2  0  0  0  0  0  0  0  0  0
    2.6177    1.5641   -0.0019 O   0  0  0  0  0  0  0  0  0  0  0  0
    2.6345   -0.8070   -0.0186 C   0  0  0  0  0  0  0  0  0  0  0  0
    2.8182   -0.9565   -1.3792 F   0  0  0  0  0  0  0  0  0  0  0  0
   -2.9313   -0.9653    1.4187 H   0  0  0  0  0  0  0  0  0  0  0  0
   -2.5760    0.8417    1.4611 H   0  0  0  0  0  0  0  0  0  0  0  0
   -3.9773    0.0285   -0.8075 H   0  0  0  0  0  0  0  0  0  0  0  0
   -0.0563   -1.5750   -0.2046 H   0  0  0  0  0  0  0  0  0  0  0  0
   -0.3578    0.2826    1.9728 H   0  0  0  0  0  0  0  0  0  0  0  0
    0.0356    1.4484    0.0926 H   0  0  0  0  0  0  0  0  0  0  0  0
    0.6082   -0.2804   -2.1256 H   0  0  0  0  0  0  0  0  0  0  0  0
    1.7424    0.4500    1.4287 H   0  0  0  0  0  0  0  0  0  0  0  0
    2.0619    2.3595    0.2055 H   0  0  0  0  0  0  0  0  0  0  0  0
    2.1736   -1.6889    0.4495 H   0  0  0  0  0  0  0  0  0  0  0  0
    3.6555   -0.6977    0.4185 H   0  0  0  0  0  0  0  0  0  0  0  0
  1  2  2  0
  2  3  1  0
  3  4  1  0
  2  5  1  0
  5  6  1  0
  5  7  1  0
  7  8  1  0
  7  9  1  0
  9 10  1  0
  9 11  1  0
 11 12  1  0
  3 13  1  0
  3 14  1  0
  4 15  1  0
  5 16  1  6
  6 17  1  0
  7 18  1  1
  8 19  1  0
  9 20  1  1
 10 21  1  0
 11 22  1  0
 11 23  1  0
M  END
$$$$

     RDKit          3D

 23 22  0  0  0  0  0  0  0  0999 V2000
    1.5478    0.4646    2.0114 O   0  0  0  0  0  0  0  0  0  0  0  0
    1.4290    0.4254    0.8198 C   0  0  0  0  0  0  0  0  0  0  0  0
    2.3849   -0.3933    0.0128 C   0  0  0  0  0  0  0  0  0  0  0  0
    3.3158   -1.0173    0.8168 O   0  0  0  0  0  0  0  0  0  0  0  0
    0.3215    1.1977    0.1395 C   0  0  2  0  0  0  0  0  0  0  0  0
   -0.4308    1.8750    1.0733 O   0  0  0  0  0  0  0  0  0  0  0  0
   -0.4269    0.3355   -0.8064 C   0  0  2  0  0  0  0  0  0  0  0  0
   -1.3654    1.0680   -1.5356 O   0  0  0  0  0  0  0  0  0  0  0  0
   -1.0658   -0.8893   -0.2685 C   0  0  2  0  0  0  0  0  0  0  0  0
   -1.4975   -1.6483   -1.3946 O   0  0  0  0  0  0  0  0  0  0  0  0
   -2.3216   -0.6134    0.5029 C   0  0  0  0  0  0  0  0  0  0  0  0
   -2.1988    0.1738    1.5931 F   0  0  0  0  0  0  0  0  0  0  0  0
    1.8416   -1.1102   -0.6412 H   0  0  0  0  0  0  0  0  0  0  0  0
    2.9302    0.3000   -0.6632 H   0  0  0  0  0  0  0  0  0  0  0  0
    4.0543   -0.3707    0.9764 H   0  0  0  0  0  0  0  0  0  0  0  0
    0.8726    1.9836   -0.4443 H   0  0  0  0  0  0  0  0  0  0  0  0
   -0.0780    1.7975    1.9989 H   0  0  0  0  0  0  0  0  0  0  0  0
    0.3345    0.0132   -1.6108 H   0  0  0  0  0  0  0  0  0  0  0  0
   -1.2790    2.0294   -1.2647 H   0  0  0  0  0  0  0  0  0  0  0  0
   -0.3645   -1.5126    0.3215 H   0  0  0  0  0  0  0  0  0  0  0  0
   -2.1681   -2.3184   -1.1229 H   0  0  0  0  0  0  0  0  0  0  0  0
   -2.7786   -1.5888    0.8476 H   0  0  0  0  0  0  0  0  0  0  0  0
   -3.0571   -0.2014   -0.2252 H   0  0  0  0  0  0  0  0  0  0  0  0
  1  2  2  0
  2  3  1  0
  3  4  1  0
  2  5  1  0
  5  6  1  0
  5  7  1  0
  7  8  1  0
  7  9  1  0
  9 10  1  0
  9 11  1  0
 11 12  1  0
  3 13  1  0
  3 14  1  0
  4 15  1  0
  5 16  1  6
  6 17  1  0
  7 18  1  6
  8 19  1  0
  9 20  1  1
 10 21  1  0
 11 22  1  0
 11 23  1  0
M  END
$$$$

     RDKit          3D

 23 22  0  0  0  0  0  0  0  0999 V2000
   -0.9703    0.9733    1.4754 O   0  0  0  0  0  0  0  0  0  0  0  0
   -1.3131    0.6669    0.3530 C   0  0  0  0  0  0  0  0  0  0  0  0
   -2.7520    0.5671    0.0376 C   0  0  0  0  0  0  0  0  0  0  0  0
   -3.0195    0.2104   -1.2723 O   0  0  0  0  0  0  0  0  0  0  0  0
   -0.3076    0.4006   -0.6711 C   0  0  2  0  0  0  0  0  0  0  0  0
   -0.9697    0.0920   -1.8735 O   0  0  0  0  0  0  0  0  0  0  0  0
    0.6205   -0.7339   -0.4004 C   0  0  2  0  0  0  0  0  0  0  0  0
   -0.0843   -1.9240   -0.2739 O   0  0  0  0  0  0  0  0  0  0  0  0
    1.6011   -0.5628    0.6919 C   0  0  2  0  0  0  0  0  0  0  0  0
    1.1102   -0.5361    1.9667 O   0  0  0  0  0  0  0  0  0  0  0  0
    2.4662    0.6701    0.5067 C   0  0  0  0  0  0  0  0  0  0  0  0
    3.3325    0.7002    1.5969 F   0  0  0  0  0  0  0  0  0  0  0  0
   -3.2992    1.5172    0.2171 H   0  0  0  0  0  0  0  0  0  0  0  0
   -3.2692   -0.1708    0.7213 H   0  0  0  0  0  0  0  0  0  0  0  0
   -3.7685   -0.4153   -1.3004 H   0  0  0  0  0  0  0  0  0  0  0  0
    0.3080    1.3299   -0.8389 H   0  0  0  0  0  0  0  0  0  0  0  0
   -0.3578    0.1137   -2.6448 H   0  0  0  0  0  0  0  0  0  0  0  0
    1.2218   -0.8649   -1.3529 H   0  0  0  0  0  0  0  0  0  0  0  0
    0.5302   -2.6931   -0.1912 H   0  0  0  0  0  0  0  0  0  0  0  0
    2.3228   -1.4307    0.6267 H   0  0  0  0  0  0  0  0  0  0  0  0
    1.7801   -0.0680    2.5559 H   0  0  0  0  0  0  0  0  0  0  0  0
    3.0147    0.5844   -0.4421 H   0  0  0  0  0  0  0  0  0  0  0  0
    1.8031    1.5740    0.5123 H   0  0  0  0  0  0  0  0  0  0  0  0
  1  2  2  0
  2  3  1  0
  3  4  1  0
  2  5  1  0
  5  6  1  0
  5  7  1  0
  7  8  1  0
  7  9  1  0
  9 10  1  0
  9 11  1  0
 11 12  1  0
  3 13  1  0
  3 14  1  0
  4 15  1  0
  5 16  1  6
  6 17  1  0
  7 18  1  6
  8 19  1  0
  9 20  1  1
 10 21  1  0
 11 22  1  0
 11 23  1  0
M  END
$$$$

     RDKit          3D

 23 22  0  0  0  0  0  0  0  0999 V2000
    0.8391   -0.4956   -1.8928 O   0  0  0  0  0  0  0  0  0  0  0  0
    1.2386    0.0959   -0.8960 C   0  0  0  0  0  0  0  0  0  0  0  0
    2.7005    0.0921   -0.6641 C   0  0  0  0  0  0  0  0  0  0  0  0
    3.1022    0.7694    0.4576 O   0  0  0  0  0  0  0  0  0  0  0  0
    0.3381    0.7854    0.0432 C   0  0  2  0  0  0  0  0  0  0  0  0
    1.1139    1.3590    1.0485 O   0  0  0  0  0  0  0  0  0  0  0  0
   -0.6532   -0.1119    0.7309 C   0  0  2  0  0  0  0  0  0  0  0  0
   -0.0020   -1.0854    1.4401 O   0  0  0  0  0  0  0  0  0  0  0  0
   -1.7654   -0.6106   -0.1236 C   0  0  2  0  0  0  0  0  0  0  0  0
   -1.4159   -1.5295   -1.0826 O   0  0  0  0  0  0  0  0  0  0  0  0
   -2.4866    0.5273   -0.8426 C   0  0  0  0  0  0  0  0  0  0  0  0
   -3.5020   -0.0601   -1.6078 F   0  0  0  0  0  0  0  0  0  0  0  0
    3.1789    0.5421   -1.5807 H   0  0  0  0  0  0  0  0  0  0  0  0
    3.0710   -0.9727   -0.6591 H   0  0  0  0  0  0  0  0  0  0  0  0
    3.9104    0.3591    0.8771 H   0  0  0  0  0  0  0  0  0  0  0  0
   -0.1842    1.6466   -0.4534 H   0  0  0  0  0  0  0  0  0  0  0  0
    1.1838    0.6942    1.7771 H   0  0  0  0  0  0  0  0  0  0  0  0
   -1.1465    0.5514    1.5122 H   0  0  0  0  0  0  0  0  0  0  0  0
    0.0258   -1.9713    0.9959 H   0  0  0  0  0  0  0  0  0  0  0  0
   -2.5489   -1.0381    0.5694 H   0  0  0  0  0  0  0  0  0  0  0  0
   -2.2337   -1.7734   -1.5756 H   0  0  0  0  0  0  0  0  0  0  0  0
   -2.9694    1.2194   -0.1243 H   0  0  0  0  0  0  0  0  0  0  0  0
   -1.7944    1.0066   -1.5348 H   0  0  0  0  0  0  0  0  0  0  0  0
  1  2  2  0
  2  3  1  0
  3  4  1  0
  2  5  1  0
  5  6  1  0
  5  7  1  0
  7  8  1  0
  7  9  1  0
  9 10  1  0
  9 11  1  0
 11 12  1  0
  3 13  1  0
  3 14  1  0
  4 15  1  0
  5 16  1  6
  6 17  1  0
  7 18  1  1
  8 19  1  0
  9 20  1  1
 10 21  1  0
 11 22  1  0
 11 23  1  0
M  END
$$$$

     RDKit          3D

 23 22  0  0  0  0  0  0  0  0999 V2000
    1.6146    1.9581    0.8055 O   0  0  0  0  0  0  0  0  0  0  0  0
    1.7577    0.8083    0.4001 C   0  0  0  0  0  0  0  0  0  0  0  0
    3.0424    0.4831   -0.2517 C   0  0  0  0  0  0  0  0  0  0  0  0
    3.1275   -0.8175   -0.6770 O   0  0  0  0  0  0  0  0  0  0  0  0
    0.6438   -0.1291    0.6007 C   0  0  2  0  0  0  0  0  0  0  0  0
    0.9651   -1.3731    0.0909 O   0  0  0  0  0  0  0  0  0  0  0  0
   -0.6188    0.3963   -0.0794 C   0  0  2  0  0  0  0  0  0  0  0  0
   -0.9475    1.6447    0.4272 O   0  0  0  0  0  0  0  0  0  0  0  0
   -1.7760   -0.5317    0.1468 C   0  0  2  0  0  0  0  0  0  0  0  0
   -1.4668   -1.7930   -0.3551 O   0  0  0  0  0  0  0  0  0  0  0  0
   -2.9757    0.0584   -0.5771 C   0  0  0  0  0  0  0  0  0  0  0  0
   -3.2001    1.3144   -0.0175 F   0  0  0  0  0  0  0  0  0  0  0  0
    3.8714    0.7071    0.4566 H   0  0  0  0  0  0  0  0  0  0  0  0
    3.1676    1.1900   -1.1091 H   0  0  0  0  0  0  0  0  0  0  0  0
    3.4684   -1.4527   -0.0021 H   0  0  0  0  0  0  0  0  0  0  0  0
    0.3975   -0.2511    1.6800 H   0  0  0  0  0  0  0  0  0  0  0  0
    0.7931   -1.4318   -0.8894 H   0  0  0  0  0  0  0  0  0  0  0  0
   -0.4456    0.4644   -1.1763 H   0  0  0  0  0  0  0  0  0  0  0  0
   -0.9552    2.3080   -0.2926 H   0  0  0  0  0  0  0  0  0  0  0  0
   -1.9875   -0.6170    1.2310 H   0  0  0  0  0  0  0  0  0  0  0  0
   -1.8851   -2.4739    0.2507 H   0  0  0  0  0  0  0  0  0  0  0  0
   -3.8617   -0.5848   -0.3957 H   0  0  0  0  0  0  0  0  0  0  0  0
   -2.7293    0.1229   -1.6539 H   0  0  0  0  0  0  0  0  0  0  0  0
  1  2  2  0
  2  3  1  0
  3  4  1  0
  2  5  1  0
  5  6  1  0
  5  7  1  0
  7  8  1  0
  7  9  1  0
  9 10  1  0
  9 11  1  0
 11 12  1  0
  3 13  1  0
  3 14  1  0
  4 15  1  0
  5 16  1  1
  6 17  1  0
  7 18  1  6
  8 19  1  0
  9 20  1  1
 10 21  1  0
 11 22  1  0
 11 23  1  0
M  END
$$$$

     RDKit          3D

 23 22  0  0  0  0  0  0  0  0999 V2000
   -1.2922    0.7515   -1.8319 O   0  0  0  0  0  0  0  0  0  0  0  0
   -1.5198    0.1398   -0.8098 C   0  0  0  0  0  0  0  0  0  0  0  0
   -2.6368    0.6224    0.0366 C   0  0  0  0  0  0  0  0  0  0  0  0
   -3.2775    1.7222   -0.4631 O   0  0  0  0  0  0  0  0  0  0  0  0
   -0.6868   -1.0247   -0.4779 C   0  0  2  0  0  0  0  0  0  0  0  0
   -1.1156   -1.5772    0.7295 O   0  0  0  0  0  0  0  0  0  0  0  0
    0.7843   -0.7411   -0.4235 C   0  0  2  0  0  0  0  0  0  0  0  0
    1.4456   -1.9467   -0.1920 O   0  0  0  0  0  0  0  0  0  0  0  0
    1.1723    0.2458    0.6423 C   0  0  2  0  0  0  0  0  0  0  0  0
    0.5477    1.4680    0.4696 O   0  0  0  0  0  0  0  0  0  0  0  0
    2.6670    0.4929    0.5717 C   0  0  0  0  0  0  0  0  0  0  0  0
    3.0415    1.0029   -0.6568 F   0  0  0  0  0  0  0  0  0  0  0  0
   -2.2271    0.8962    1.0420 H   0  0  0  0  0  0  0  0  0  0  0  0
   -3.3968   -0.1684    0.2252 H   0  0  0  0  0  0  0  0  0  0  0  0
   -2.7232    2.2966   -1.0422 H   0  0  0  0  0  0  0  0  0  0  0  0
   -0.8130   -1.8514   -1.2379 H   0  0  0  0  0  0  0  0  0  0  0  0
   -1.1547   -2.5677    0.7059 H   0  0  0  0  0  0  0  0  0  0  0  0
    1.1533   -0.3547   -1.3945 H   0  0  0  0  0  0  0  0  0  0  0  0
    1.8654   -1.9837    0.6995 H   0  0  0  0  0  0  0  0  0  0  0  0
    0.9463   -0.1548    1.6521 H   0  0  0  0  0  0  0  0  0  0  0  0
    0.9774    1.9892   -0.2549 H   0  0  0  0  0  0  0  0  0  0  0  0
    3.0040    1.2183    1.3308 H   0  0  0  0  0  0  0  0  0  0  0  0
    3.2387   -0.4754    0.6792 H   0  0  0  0  0  0  0  0  0  0  0  0
  1  2  2  0
  2  3  1  0
  3  4  1  0
  2  5  1  0
  5  6  1  0
  5  7  1  0
  7  8  1  0
  7  9  1  0
  9 10  1  0
  9 11  1  0
 11 12  1  0
  3 13  1  0
  3 14  1  0
  4 15  1  0
  5 16  1  6
  6 17  1  0
  7 18  1  6
  8 19  1  0
  9 20  1  1
 10 21  1  0
 11 22  1  0
 11 23  1  0
M  END
$$$$

     RDKit          3D

 23 22  0  0  0  0  0  0  0  0999 V2000
   -0.9578    1.3712   -0.9858 O   0  0  0  0  0  0  0  0  0  0  0  0
   -1.4215    0.3231   -0.5833 C   0  0  0  0  0  0  0  0  0  0  0  0
   -2.8352    0.2390   -0.1517 C   0  0  0  0  0  0  0  0  0  0  0  0
   -3.4780    1.4783   -0.2820 O   0  0  0  0  0  0  0  0  0  0  0  0
   -0.5682   -0.8727   -0.5251 C   0  0  2  0  0  0  0  0  0  0  0  0
   -1.3195   -1.9349   -0.0353 O   0  0  0  0  0  0  0  0  0  0  0  0
    0.6634   -0.6829    0.3195 C   0  0  2  0  0  0  0  0  0  0  0  0
    0.3004   -0.4139    1.6256 O   0  0  0  0  0  0  0  0  0  0  0  0
    1.6042    0.3441   -0.2193 C   0  0  2  0  0  0  0  0  0  0  0  0
    1.9718    0.0814   -1.5259 O   0  0  0  0  0  0  0  0  0  0  0  0
    2.8832    0.2649    0.6209 C   0  0  0  0  0  0  0  0  0  0  0  0
    2.6142    0.5187    1.9372 F   0  0  0  0  0  0  0  0  0  0  0  0
   -2.9303   -0.0241    0.9387 H   0  0  0  0  0  0  0  0  0  0  0  0
   -3.4320   -0.4885   -0.7340 H   0  0  0  0  0  0  0  0  0  0  0  0
   -2.7913    2.1655   -0.4949 H   0  0  0  0  0  0  0  0  0  0  0  0
   -0.2530   -1.1771   -1.5667 H   0  0  0  0  0  0  0  0  0  0  0  0
   -1.2564   -1.9479    0.9492 H   0  0  0  0  0  0  0  0  0  0  0  0
    1.2019   -1.6610    0.3233 H   0  0  0  0  0  0  0  0  0  0  0  0
   -0.6385   -0.1016    1.6474 H   0  0  0  0  0  0  0  0  0  0  0  0
    1.2401    1.3736   -0.1603 H   0  0  0  0  0  0  0  0  0  0  0  0
    2.4419    0.8679   -1.8905 H   0  0  0  0  0  0  0  0  0  0  0  0
    3.6301    1.0021    0.2657 H   0  0  0  0  0  0  0  0  0  0  0  0
    3.3307   -0.7249    0.5274 H   0  0  0  0  0  0  0  0  0  0  0  0
  1  2  2  0
  2  3  1  0
  3  4  1  0
  2  5  1  0
  5  6  1  0
  5  7  1  0
  7  8  1  0
  7  9  1  0
  9 10  1  0
  9 11  1  0
 11 12  1  0
  3 13  1  0
  3 14  1  0
  4 15  1  0
  5 16  1  6
  6 17  1  0
  7 18  1  1
  8 19  1  0
  9 20  1  6
 10 21  1  0
 11 22  1  0
 11 23  1  0
M  END
$$$$
