
     RDKit          3D

 22 21  0  0  0  0  0  0  0  0999 V2000
    3.7353   -1.2230    0.4089 C   0  0  0  0  0  0  0  0  0  0  0  0
    2.7817   -0.8343   -0.1700 C   0  0  0  0  0  0  0  0  0  0  0  0
    1.5811   -0.3358   -0.9172 C   0  0  0  0  0  0  0  0  0  0  0  0
    0.7408    0.3642    0.2360 C   0  0  2  0  0  0  0  0  0  0  0  0
   -0.1842   -0.5837    0.7151 N   0  0  0  0  0  0  0  0  0  0  0  0
   -1.3929   -1.0449   -0.3249 S   0  0  0  0  0  6  0  0  0  0  0  0
   -2.9857   -0.8093    0.3803 C   0  0  0  0  0  0  0  0  0  0  0  0
   -1.3609   -0.3087   -1.6440 O   0  0  0  0  0  0  0  0  0  0  0  0
   -1.2975   -2.5251   -0.6657 O   0  0  0  0  0  0  0  0  0  0  0  0
    0.3398    1.6597   -0.1254 C   0  0  0  0  0  0  0  0  0  0  0  0
   -0.4474    2.6735    0.3745 N   0  0  0  0  0  0  0  0  0  0  0  0
    0.7996    2.0482   -1.3598 O   0  0  0  0  0  0  0  0  0  0  0  0
    4.5952   -1.5754    0.9409 H   0  0  0  0  0  0  0  0  0  0  0  0
    0.8747   -1.0870   -1.2299 H   0  0  0  0  0  0  0  0  0  0  0  0
    1.8317    0.4576   -1.6089 H   0  0  0  0  0  0  0  0  0  0  0  0
    1.4701    0.5616    1.1014 H   0  0  0  0  0  0  0  0  0  0  0  0
    0.2552   -1.2766    1.2494 H   0  0  0  0  0  0  0  0  0  0  0  0
   -2.9578   -1.2973    1.3804 H   0  0  0  0  0  0  0  0  0  0  0  0
   -3.1068    0.2720    0.5224 H   0  0  0  0  0  0  0  0  0  0  0  0
   -3.7922   -1.2914   -0.2004 H   0  0  0  0  0  0  0  0  0  0  0  0
   -0.1491    3.2818    1.0857 H   0  0  0  0  0  0  0  0  0  0  0  0
   -1.3305    2.8738   -0.1347 H   0  0  0  0  0  0  0  0  0  0  0  0
  1  2  3  0
  2  3  1  0
  3  4  1  0
  4  5  1  0
  5  6  1  0
  6  7  1  0
  6  8  2  0
  6  9  2  0
  4 10  1  0
 10 11  1  0
 10 12  2  0
  1 13  1  0
  3 14  1  0
  3 15  1  0
  4 16  1  1
  5 17  1  0
  7 18  1  0
  7 19  1  0
  7 20  1  0
 11 21  1  0
 11 22  1  0
M  END
$$$$

     RDKit          3D

 22 21  0  0  0  0  0  0  0  0999 V2000
   -3.5069   -1.5892    0.0243 C   0  0  0  0  0  0  0  0  0  0  0  0
   -2.5391   -1.2134    0.4492 C   0  0  0  0  0  0  0  0  0  0  0  0
   -1.2523   -0.7136    1.0422 C   0  0  0  0  0  0  0  0  0  0  0  0
   -0.6704    0.2270   -0.0403 C   0  0  2  0  0  0  0  0  0  0  0  0
    0.7052    0.4541    0.1988 N   0  0  0  0  0  0  0  0  0  0  0  0
    1.7190   -0.5067   -0.8745 S   0  0  0  0  0  6  0  0  0  0  0  0
    3.0759   -1.1258    0.0868 C   0  0  0  0  0  0  0  0  0  0  0  0
    1.9885   -0.0201   -2.1549 O   0  0  0  0  0  0  0  0  0  0  0  0
    0.9047   -1.8911   -1.1149 O   0  0  0  0  0  0  0  0  0  0  0  0
   -1.2092    1.6492    0.3468 C   0  0  0  0  0  0  0  0  0  0  0  0
   -0.5325    2.6297   -0.4193 N   0  0  0  0  0  0  0  0  0  0  0  0
   -2.0413    1.8401    1.2121 O   0  0  0  0  0  0  0  0  0  0  0  0
   -4.5046   -1.9892   -0.4223 H   0  0  0  0  0  0  0  0  0  0  0  0
   -1.3973   -0.2858    1.9978 H   0  0  0  0  0  0  0  0  0  0  0  0
   -0.6209   -1.6230    1.0483 H   0  0  0  0  0  0  0  0  0  0  0  0
   -1.0093   -0.0864   -0.9811 H   0  0  0  0  0  0  0  0  0  0  0  0
    1.1186    1.3466    0.1912 H   0  0  0  0  0  0  0  0  0  0  0  0
    2.8927   -1.7854    0.8135 H   0  0  0  0  0  0  0  0  0  0  0  0
    3.4903   -0.1303    0.5606 H   0  0  0  0  0  0  0  0  0  0  0  0
    3.9596   -1.2949   -0.6359 H   0  0  0  0  0  0  0  0  0  0  0  0
    0.0985    3.3413    0.0882 H   0  0  0  0  0  0  0  0  0  0  0  0
   -0.6693    2.7670   -1.4166 H   0  0  0  0  0  0  0  0  0  0  0  0
  1  2  3  0
  2  3  1  0
  3  4  1  0
  4  5  1  0
  5  6  1  0
  6  7  1  0
  6  8  2  0
  6  9  2  0
  4 10  1  0
 10 11  1  0
 10 12  2  0
  1 13  1  0
  3 14  1  0
  3 15  1  0
  4 16  1  6
  5 17  1  0
  7 18  1  0
  7 19  1  0
  7 20  1  0
 11 21  1  0
 11 22  1  0
M  END
$$$$

     RDKit          3D

 22 21  0  0  0  0  0  0  0  0999 V2000
   -1.6685    3.5336    0.2991 C   0  0  0  0  0  0  0  0  0  0  0  0
   -1.5448    2.2243    0.0276 C   0  0  0  0  0  0  0  0  0  0  0  0
   -1.4272    1.0463   -0.2024 C   0  0  0  0  0  0  0  0  0  0  0  0
   -0.5544    0.0923    0.3518 C   0  0  2  0  0  0  0  0  0  0  0  0
    0.5407   -0.1789   -0.5479 N   0  0  0  0  0  0  0  0  0  0  0  0
    1.8494   -0.8935    0.3145 S   0  0  0  0  0  6  0  0  0  0  0  0
    3.3333   -0.0508   -0.1332 C   0  0  0  0  0  0  0  0  0  0  0  0
    1.6613   -0.7615    1.7967 O   0  0  0  0  0  0  0  0  0  0  0  0
    1.9634   -2.3556   -0.0060 O   0  0  0  0  0  0  0  0  0  0  0  0
   -1.2432   -1.2086    0.6347 C   0  0  0  0  0  0  0  0  0  0  0  0
   -2.0266   -1.7628   -0.4201 N   0  0  0  0  0  0  0  0  0  0  0  0
   -1.1786   -1.8127    1.7255 O   0  0  0  0  0  0  0  0  0  0  0  0
   -1.7655    4.5113    0.4986 H   0  0  0  0  0  0  0  0  0  0  0  0
   -2.6201    0.6006   -0.0068 H   0  0  0  0  0  0  0  0  0  0  0  0
   -1.5080    0.8925   -1.4056 H   0  0  0  0  0  0  0  0  0  0  0  0
   -0.1472    0.5387    1.2822 H   0  0  0  0  0  0  0  0  0  0  0  0
    0.2054   -0.8362   -1.2915 H   0  0  0  0  0  0  0  0  0  0  0  0
    3.1056    1.0018   -0.3657 H   0  0  0  0  0  0  0  0  0  0  0  0
    4.0698   -0.0558    0.6898 H   0  0  0  0  0  0  0  0  0  0  0  0
    3.7643   -0.5091   -1.0556 H   0  0  0  0  0  0  0  0  0  0  0  0
   -2.8989   -1.2730   -0.7542 H   0  0  0  0  0  0  0  0  0  0  0  0
   -1.9103   -2.7429   -0.7482 H   0  0  0  0  0  0  0  0  0  0  0  0
  1  2  3  0
  2  3  1  0
  3  4  1  0
  4  5  1  0
  5  6  1  0
  6  7  1  0
  6  8  2  0
  6  9  2  0
  4 10  1  0
 10 11  1  0
 10 12  2  0
  1 13  1  0
  3 14  1  0
  3 15  1  0
  4 16  1  1
  5 17  1  0
  7 18  1  0
  7 19  1  0
  7 20  1  0
 11 21  1  0
 11 22  1  0
M  END
$$$$

     RDKit          3D

 22 21  0  0  0  0  0  0  0  0999 V2000
    2.7395    1.8804    1.2870 C   0  0  0  0  0  0  0  0  0  0  0  0
    1.7981    1.1323    1.5130 C   0  0  0  0  0  0  0  0  0  0  0  0
    0.6866    0.2569    1.7694 C   0  0  0  0  0  0  0  0  0  0  0  0
    0.0780   -0.2116    0.4773 C   0  0  2  0  0  0  0  0  0  0  0  0
   -1.0981   -1.0273    0.6039 N   0  0  0  0  0  0  0  0  0  0  0  0
   -2.5218   -0.2326    0.0351 S   0  0  0  0  0  6  0  0  0  0  0  0
   -2.2636    0.1703   -1.7159 C   0  0  0  0  0  0  0  0  0  0  0  0
   -3.6017   -1.2618    0.0135 O   0  0  0  0  0  0  0  0  0  0  0  0
   -2.7855    1.0213    0.7326 O   0  0  0  0  0  0  0  0  0  0  0  0
    1.1016   -1.0520   -0.2782 C   0  0  0  0  0  0  0  0  0  0  0  0
    2.3379   -0.3783   -0.4517 N   0  0  0  0  0  0  0  0  0  0  0  0
    0.7718   -2.1891   -0.6394 O   0  0  0  0  0  0  0  0  0  0  0  0
    3.6388    2.5783    1.0681 H   0  0  0  0  0  0  0  0  0  0  0  0
   -0.0015    0.7581    2.4762 H   0  0  0  0  0  0  0  0  0  0  0  0
    1.1348   -0.5716    2.4195 H   0  0  0  0  0  0  0  0  0  0  0  0
   -0.1566    0.6544   -0.1303 H   0  0  0  0  0  0  0  0  0  0  0  0
   -1.0295   -1.9990    0.2460 H   0  0  0  0  0  0  0  0  0  0  0  0
   -1.1521    0.3517   -1.7663 H   0  0  0  0  0  0  0  0  0  0  0  0
   -2.5588   -0.6722   -2.3374 H   0  0  0  0  0  0  0  0  0  0  0  0
   -2.7823    1.1226   -1.8920 H   0  0  0  0  0  0  0  0  0  0  0  0
    3.1673   -0.6945    0.1583 H   0  0  0  0  0  0  0  0  0  0  0  0
    2.4969    0.3638   -1.1322 H   0  0  0  0  0  0  0  0  0  0  0  0
  1  2  3  0
  2  3  1  0
  3  4  1  0
  4  5  1  0
  5  6  1  0
  6  7  1  0
  6  8  2  0
  6  9  2  0
  4 10  1  0
 10 11  1  0
 10 12  2  0
  1 13  1  0
  3 14  1  0
  3 15  1  0
  4 16  1  6
  5 17  1  0
  7 18  1  0
  7 19  1  0
  7 20  1  0
 11 21  1  0
 11 22  1  0
M  END
$$$$

     RDKit          3D

 22 21  0  0  0  0  0  0  0  0999 V2000
   -2.6205   -2.3127   -1.0981 C   0  0  0  0  0  0  0  0  0  0  0  0
   -1.9498   -2.0058   -0.3279 C   0  0  0  0  0  0  0  0  0  0  0  0
   -1.0162   -1.6034    0.7165 C   0  0  0  0  0  0  0  0  0  0  0  0
   -0.3055   -0.3382    0.2316 C   0  0  2  0  0  0  0  0  0  0  0  0
    0.7579    0.1980    0.9747 N   0  0  0  0  0  0  0  0  0  0  0  0
    2.3278    0.2239    0.5222 S   0  0  0  0  0  6  0  0  0  0  0  0
    2.7763    1.1125   -0.9428 C   0  0  0  0  0  0  0  0  0  0  0  0
    3.1171    0.9597    1.6451 O   0  0  0  0  0  0  0  0  0  0  0  0
    3.0199   -1.1295    0.5029 O   0  0  0  0  0  0  0  0  0  0  0  0
   -1.2885    0.7642    0.0707 C   0  0  0  0  0  0  0  0  0  0  0  0
   -2.4904    1.1996    0.2033 N   0  0  0  0  0  0  0  0  0  0  0  0
   -0.4713    1.8421   -0.5046 O   0  0  0  0  0  0  0  0  0  0  0  0
   -3.4514   -2.6773   -2.0301 H   0  0  0  0  0  0  0  0  0  0  0  0
   -0.1988   -2.4188    0.6963 H   0  0  0  0  0  0  0  0  0  0  0  0
   -1.4456   -1.6236    1.6747 H   0  0  0  0  0  0  0  0  0  0  0  0
    0.0187   -0.5551   -0.8457 H   0  0  0  0  0  0  0  0  0  0  0  0
    0.4266    1.0366    1.5281 H   0  0  0  0  0  0  0  0  0  0  0  0
    3.0178    2.1812   -0.7314 H   0  0  0  0  0  0  0  0  0  0  0  0
    1.9600    1.0572   -1.7268 H   0  0  0  0  0  0  0  0  0  0  0  0
    3.7174    0.6665   -1.4024 H   0  0  0  0  0  0  0  0  0  0  0  0
   -3.4602    1.1326    0.0772 H   0  0  0  0  0  0  0  0  0  0  0  0
   -2.4413    2.2902    0.7664 H   0  0  0  0  0  0  0  0  0  0  0  0
  1  2  3  0
  2  3  1  0
  3  4  1  0
  4  5  1  0
  5  6  1  0
  6  7  1  0
  6  8  2  0
  6  9  2  0
  4 10  1  0
 10 11  1  0
 10 12  2  0
  1 13  1  0
  3 14  1  0
  3 15  1  0
  4 16  1  6
  5 17  1  0
  7 18  1  0
  7 19  1  0
  7 20  1  0
 11 21  1  0
 11 22  1  0
M  END
$$$$

     RDKit          3D

 22 21  0  0  0  0  0  0  0  0999 V2000
    1.5166    2.2227   -1.7942 C   0  0  0  0  0  0  0  0  0  0  0  0
    1.6751    1.5288   -0.8865 C   0  0  0  0  0  0  0  0  0  0  0  0
    1.8612    0.5916    0.3329 C   0  0  0  0  0  0  0  0  0  0  0  0
    0.5220   -0.0929    0.4723 C   0  0  2  0  0  0  0  0  0  0  0  0
    0.1844   -0.8284   -0.6447 N   0  0  0  0  0  0  0  0  0  0  0  0
   -0.6165   -2.3047   -0.5563 S   0  0  0  0  0  6  0  0  0  0  0  0
   -2.2490   -1.9536    0.1414 C   0  0  0  0  0  0  0  0  0  0  0  0
    0.0587   -3.4119    0.1488 O   0  0  0  0  0  0  0  0  0  0  0  0
   -0.8938   -2.8420   -1.9598 O   0  0  0  0  0  0  0  0  0  0  0  0
   -0.4404    1.1166    0.7536 C   0  0  0  0  0  0  0  0  0  0  0  0
    0.0519    2.2972    1.3205 N   0  0  0  0  0  0  0  0  0  0  0  0
   -1.5965    0.9608    0.4571 O   0  0  0  0  0  0  0  0  0  0  0  0
    1.3595    2.8669   -2.6344 H   0  0  0  0  0  0  0  0  0  0  0  0
    2.0247    1.3110    1.1535 H   0  0  0  0  0  0  0  0  0  0  0  0
    2.7281    0.0180    0.1412 H   0  0  0  0  0  0  0  0  0  0  0  0
    0.4672   -0.6960    1.3905 H   0  0  0  0  0  0  0  0  0  0  0  0
    0.6341   -0.5928   -1.5209 H   0  0  0  0  0  0  0  0  0  0  0  0
   -2.2386   -1.7898    1.1861 H   0  0  0  0  0  0  0  0  0  0  0  0
   -2.6212   -1.0572   -0.4703 H   0  0  0  0  0  0  0  0  0  0  0  0
   -2.9050   -2.8322   -0.1126 H   0  0  0  0  0  0  0  0  0  0  0  0
    0.5147    2.2917    2.2511 H   0  0  0  0  0  0  0  0  0  0  0  0
   -0.0373    3.1964    0.8305 H   0  0  0  0  0  0  0  0  0  0  0  0
  1  2  3  0
  2  3  1  0
  3  4  1  0
  4  5  1  0
  5  6  1  0
  6  7  1  0
  6  8  2  0
  6  9  2  0
  4 10  1  0
 10 11  1  0
 10 12  2  0
  1 13  1  0
  3 14  1  0
  3 15  1  0
  4 16  1  1
  5 17  1  0
  7 18  1  0
  7 19  1  0
  7 20  1  0
 11 21  1  0
 11 22  1  0
M  END
$$$$

     RDKit          3D

 22 21  0  0  0  0  0  0  0  0999 V2000
   -2.5540   -1.0521    1.9896 C   0  0  0  0  0  0  0  0  0  0  0  0
   -1.9756   -0.8708    0.9486 C   0  0  0  0  0  0  0  0  0  0  0  0
   -1.2486   -0.6296   -0.3222 C   0  0  0  0  0  0  0  0  0  0  0  0
   -0.1957    0.4138   -0.0315 C   0  0  2  0  0  0  0  0  0  0  0  0
    0.7035   -0.0469    0.9698 N   0  0  0  0  0  0  0  0  0  0  0  0
    2.3156   -0.1806    0.3997 S   0  0  0  0  0  6  0  0  0  0  0  0
    2.3439   -1.3693   -0.9208 C   0  0  0  0  0  0  0  0  0  0  0  0
    2.7354    1.1563   -0.1690 O   0  0  0  0  0  0  0  0  0  0  0  0
    3.2681   -0.6082    1.4559 O   0  0  0  0  0  0  0  0  0  0  0  0
   -0.8370    1.7053    0.2969 C   0  0  0  0  0  0  0  0  0  0  0  0
   -1.7609    2.2948   -0.6055 N   0  0  0  0  0  0  0  0  0  0  0  0
   -0.5442    2.2583    1.3837 O   0  0  0  0  0  0  0  0  0  0  0  0
   -3.0819   -1.2076    2.9029 H   0  0  0  0  0  0  0  0  0  0  0  0
   -1.9727   -0.2413   -1.0672 H   0  0  0  0  0  0  0  0  0  0  0  0
   -0.8379   -1.5681   -0.6906 H   0  0  0  0  0  0  0  0  0  0  0  0
    0.3859    0.5786   -0.9684 H   0  0  0  0  0  0  0  0  0  0  0  0
    0.3871   -0.8676    1.5110 H   0  0  0  0  0  0  0  0  0  0  0  0
    2.0512   -2.3734   -0.5547 H   0  0  0  0  0  0  0  0  0  0  0  0
    1.6736   -1.0477   -1.7370 H   0  0  0  0  0  0  0  0  0  0  0  0
    3.3845   -1.3899   -1.3471 H   0  0  0  0  0  0  0  0  0  0  0  0
   -2.5007    2.9748   -0.2957 H   0  0  0  0  0  0  0  0  0  0  0  0
   -1.7397    2.0710   -1.6268 H   0  0  0  0  0  0  0  0  0  0  0  0
  1  2  3  0
  2  3  1  0
  3  4  1  0
  4  5  1  0
  5  6  1  0
  6  7  1  0
  6  8  2  0
  6  9  2  0
  4 10  1  0
 10 11  1  0
 10 12  2  0
  1 13  1  0
  3 14  1  0
  3 15  1  0
  4 16  1  6
  5 17  1  0
  7 18  1  0
  7 19  1  0
  7 20  1  0
 11 21  1  0
 11 22  1  0
M  END
$$$$

     RDKit          3D

 22 21  0  0  0  0  0  0  0  0999 V2000
    1.5429   -2.9268    0.9250 C   0  0  0  0  0  0  0  0  0  0  0  0
    1.6958   -1.7876    0.5110 C   0  0  0  0  0  0  0  0  0  0  0  0
    1.8544   -0.4231    0.0239 C   0  0  0  0  0  0  0  0  0  0  0  0
    0.5119    0.2118   -0.2266 C   0  0  2  0  0  0  0  0  0  0  0  0
   -0.2782   -0.4761   -1.1932 N   0  0  0  0  0  0  0  0  0  0  0  0
   -1.7709   -0.9826   -0.5144 S   0  0  0  0  0  6  0  0  0  0  0  0
   -2.7491    0.3900    0.0392 C   0  0  0  0  0  0  0  0  0  0  0  0
   -2.4930   -1.7907   -1.5636 O   0  0  0  0  0  0  0  0  0  0  0  0
   -1.5215   -1.8969    0.6451 O   0  0  0  0  0  0  0  0  0  0  0  0
    0.7652    1.6200   -0.6107 C   0  0  0  0  0  0  0  0  0  0  0  0
    1.5300    2.4389    0.2355 N   0  0  0  0  0  0  0  0  0  0  0  0
    0.2975    2.0550   -1.6749 O   0  0  0  0  0  0  0  0  0  0  0  0
    1.4137   -3.9222    1.2675 H   0  0  0  0  0  0  0  0  0  0  0  0
    2.4363    0.1269    0.7770 H   0  0  0  0  0  0  0  0  0  0  0  0
    2.4766   -0.4517   -0.9020 H   0  0  0  0  0  0  0  0  0  0  0  0
   -0.0187    0.2595    0.7565 H   0  0  0  0  0  0  0  0  0  0  0  0
   -0.3877    0.0442   -2.0772 H   0  0  0  0  0  0  0  0  0  0  0  0
   -3.7708    0.2529   -0.3999 H   0  0  0  0  0  0  0  0  0  0  0  0
   -2.3297    1.3599   -0.2253 H   0  0  0  0  0  0  0  0  0  0  0  0
   -2.8762    0.3661    1.1381 H   0  0  0  0  0  0  0  0  0  0  0  0
    1.4694    2.3622    1.2815 H   0  0  0  0  0  0  0  0  0  0  0  0
    2.2022    3.1702   -0.1132 H   0  0  0  0  0  0  0  0  0  0  0  0
  1  2  3  0
  2  3  1  0
  3  4  1  0
  4  5  1  0
  5  6  1  0
  6  7  1  0
  6  8  2  0
  6  9  2  0
  4 10  1  0
 10 11  1  0
 10 12  2  0
  1 13  1  0
  3 14  1  0
  3 15  1  0
  4 16  1  1
  5 17  1  0
  7 18  1  0
  7 19  1  0
  7 20  1  0
 11 21  1  0
 11 22  1  0
M  END
$$$$
