
     RDKit          3D

 27 27  0  0  0  0  0  0  0  0999 V2000
    5.5206   -0.3791    1.1202 C   0  0  0  0  0  0  0  0  0  0  0  0
    4.1703   -0.8382    1.2152 O   0  0  0  0  0  0  0  0  0  0  0  0
    3.1324   -0.1295    0.6370 C   0  0  0  0  0  0  0  0  0  0  0  0
    3.4114    0.9289    0.0271 O   0  0  0  0  0  0  0  0  0  0  0  0
    1.7170   -0.5569    0.7035 C   0  0  0  0  0  0  0  0  0  0  0  0
    0.8714    0.3825    0.0184 N   0  0  0  0  0  0  0  0  0  0  0  0
   -0.5434    0.2054   -0.0691 C   0  0  0  0  0  0  0  0  0  0  0  0
   -1.0141   -0.8091    0.4789 O   0  0  0  0  0  0  0  0  0  0  0  0
   -1.4041    1.1823   -0.7784 C   0  0  0  0  0  0  0  0  0  0  0  0
   -2.7534    0.7908   -0.7165 N   0  0  0  0  0  0  0  0  0  0  0  0
   -3.2227   -0.3693   -1.3737 C   0  0  0  0  0  0  0  0  0  0  0  0
   -3.9976   -0.7285   -0.0915 C   0  0  0  0  0  0  0  0  0  0  0  0
   -3.4188    0.5580    0.5026 C   0  0  0  0  0  0  0  0  0  0  0  0
    5.6020    0.3593    0.3006 H   0  0  0  0  0  0  0  0  0  0  0  0
    5.7561    0.0462    2.1174 H   0  0  0  0  0  0  0  0  0  0  0  0
    6.2245   -1.2191    0.9423 H   0  0  0  0  0  0  0  0  0  0  0  0
    1.6364   -1.5626    0.2022 H   0  0  0  0  0  0  0  0  0  0  0  0
    1.3671   -0.6240    1.7590 H   0  0  0  0  0  0  0  0  0  0  0  0
    1.2548    1.2374   -0.4458 H   0  0  0  0  0  0  0  0  0  0  0  0
   -1.2145    2.1676   -0.2526 H   0  0  0  0  0  0  0  0  0  0  0  0
   -1.0233    1.3372   -1.8192 H   0  0  0  0  0  0  0  0  0  0  0  0
   -3.9378   -0.1967   -2.2238 H   0  0  0  0  0  0  0  0  0  0  0  0
   -2.4082   -1.1126   -1.6085 H   0  0  0  0  0  0  0  0  0  0  0  0
   -3.6293   -1.6418    0.3968 H   0  0  0  0  0  0  0  0  0  0  0  0
   -5.0871   -0.6963   -0.2302 H   0  0  0  0  0  0  0  0  0  0  0  0
   -4.2701    1.2629    0.7249 H   0  0  0  0  0  0  0  0  0  0  0  0
   -2.7394    0.4052    1.3572 H   0  0  0  0  0  0  0  0  0  0  0  0
  1  2  1  0
  2  3  1  0
  3  4  2  0
  3  5  1  0
  5  6  1  0
  6  7  1  0
  7  8  2  0
  7  9  1  0
  9 10  1  0
 10 11  1  0
 11 12  1  0
 12 13  1  0
 13 10  1  0
  1 14  1  0
  1 15  1  0
  1 16  1  0
  5 17  1  0
  5 18  1  0
  6 19  1  0
  9 20  1  0
  9 21  1  0
 11 22  1  0
 11 23  1  0
 12 24  1  0
 12 25  1  0
 13 26  1  0
 13 27  1  0
M  END
$$$$

     RDKit          3D

 27 27  0  0  0  0  0  0  0  0999 V2000
    4.5181    1.5894    1.4705 C   0  0  0  0  0  0  0  0  0  0  0  0
    3.9302    0.3383    1.2368 O   0  0  0  0  0  0  0  0  0  0  0  0
    2.6053    0.1648    0.8920 C   0  0  0  0  0  0  0  0  0  0  0  0
    1.9000    1.2116    0.7856 O   0  0  0  0  0  0  0  0  0  0  0  0
    1.9469   -1.1201    0.6397 C   0  0  0  0  0  0  0  0  0  0  0  0
    0.5693   -1.0226    0.2929 N   0  0  0  0  0  0  0  0  0  0  0  0
   -0.4359   -0.4448    1.1172 C   0  0  0  0  0  0  0  0  0  0  0  0
   -0.0338    0.0044    2.2306 O   0  0  0  0  0  0  0  0  0  0  0  0
   -1.8672   -0.3477    0.7520 C   0  0  0  0  0  0  0  0  0  0  0  0
   -2.1825   -0.8889   -0.5243 N   0  0  0  0  0  0  0  0  0  0  0  0
   -1.6663   -0.1721   -1.6482 C   0  0  0  0  0  0  0  0  0  0  0  0
   -3.0337    0.3462   -1.9715 C   0  0  0  0  0  0  0  0  0  0  0  0
   -3.5203   -0.5756   -0.9237 C   0  0  0  0  0  0  0  0  0  0  0  0
    5.2271    1.7948    0.6209 H   0  0  0  0  0  0  0  0  0  0  0  0
    3.7598    2.3763    1.4854 H   0  0  0  0  0  0  0  0  0  0  0  0
    5.1014    1.6215    2.4134 H   0  0  0  0  0  0  0  0  0  0  0  0
    2.4951   -1.6067   -0.2038 H   0  0  0  0  0  0  0  0  0  0  0  0
    2.1460   -1.7750    1.5176 H   0  0  0  0  0  0  0  0  0  0  0  0
    0.2101   -1.3924   -0.6348 H   0  0  0  0  0  0  0  0  0  0  0  0
   -2.5314   -0.8213    1.5010 H   0  0  0  0  0  0  0  0  0  0  0  0
   -2.1322    0.7406    0.7827 H   0  0  0  0  0  0  0  0  0  0  0  0
   -1.0093    0.6505   -1.2893 H   0  0  0  0  0  0  0  0  0  0  0  0
   -1.2152   -0.7926   -2.4568 H   0  0  0  0  0  0  0  0  0  0  0  0
   -3.4019    0.0958   -2.9999 H   0  0  0  0  0  0  0  0  0  0  0  0
   -3.1607    1.4413   -1.7454 H   0  0  0  0  0  0  0  0  0  0  0  0
   -4.0867    0.0198   -0.1441 H   0  0  0  0  0  0  0  0  0  0  0  0
   -4.1322   -1.4357   -1.2782 H   0  0  0  0  0  0  0  0  0  0  0  0
  1  2  1  0
  2  3  1  0
  3  4  2  0
  3  5  1  0
  5  6  1  0
  6  7  1  0
  7  8  2  0
  7  9  1  0
  9 10  1  0
 10 11  1  0
 11 12  1  0
 12 13  1  0
 13 10  1  0
  1 14  1  0
  1 15  1  0
  1 16  1  0
  5 17  1  0
  5 18  1  0
  6 19  1  0
  9 20  1  0
  9 21  1  0
 11 22  1  0
 11 23  1  0
 12 24  1  0
 12 25  1  0
 13 26  1  0
 13 27  1  0
M  END
$$$$

     RDKit          3D

 27 27  0  0  0  0  0  0  0  0999 V2000
    4.5989    0.2970   -1.2492 C   0  0  0  0  0  0  0  0  0  0  0  0
    3.9149    0.4284   -0.0457 O   0  0  0  0  0  0  0  0  0  0  0  0
    2.6719   -0.1063    0.2452 C   0  0  0  0  0  0  0  0  0  0  0  0
    2.1379   -0.7683   -0.6926 O   0  0  0  0  0  0  0  0  0  0  0  0
    2.0596    0.1031    1.5536 C   0  0  0  0  0  0  0  0  0  0  0  0
    0.8006   -0.5292    1.7414 N   0  0  0  0  0  0  0  0  0  0  0  0
   -0.3154   -0.2249    0.9062 C   0  0  0  0  0  0  0  0  0  0  0  0
   -0.1161    0.6288    0.0086 O   0  0  0  0  0  0  0  0  0  0  0  0
   -1.6347   -0.9117    1.1226 C   0  0  0  0  0  0  0  0  0  0  0  0
   -2.6653   -0.5574    0.2504 N   0  0  0  0  0  0  0  0  0  0  0  0
   -3.2664    0.7193    0.2467 C   0  0  0  0  0  0  0  0  0  0  0  0
   -3.2911    0.7655   -1.2891 C   0  0  0  0  0  0  0  0  0  0  0  0
   -2.4970   -0.5133   -1.1545 C   0  0  0  0  0  0  0  0  0  0  0  0
    5.0095   -0.7353   -1.2903 H   0  0  0  0  0  0  0  0  0  0  0  0
    3.9141    0.5154   -2.0829 H   0  0  0  0  0  0  0  0  0  0  0  0
    5.4151    1.0566   -1.2799 H   0  0  0  0  0  0  0  0  0  0  0  0
    2.0221    1.2184    1.7188 H   0  0  0  0  0  0  0  0  0  0  0  0
    2.7446   -0.2464    2.3843 H   0  0  0  0  0  0  0  0  0  0  0  0
    0.6458   -1.2496    2.5092 H   0  0  0  0  0  0  0  0  0  0  0  0
   -1.5046   -2.0271    1.1076 H   0  0  0  0  0  0  0  0  0  0  0  0
   -1.9700   -0.7086    2.1804 H   0  0  0  0  0  0  0  0  0  0  0  0
   -2.7243    1.5870    0.6091 H   0  0  0  0  0  0  0  0  0  0  0  0
   -4.2862    0.7040    0.6850 H   0  0  0  0  0  0  0  0  0  0  0  0
   -2.7786    1.6167   -1.7339 H   0  0  0  0  0  0  0  0  0  0  0  0
   -4.3260    0.6632   -1.6312 H   0  0  0  0  0  0  0  0  0  0  0  0
   -1.4739   -0.3926   -1.5492 H   0  0  0  0  0  0  0  0  0  0  0  0
   -3.0857   -1.3326   -1.6408 H   0  0  0  0  0  0  0  0  0  0  0  0
  1  2  1  0
  2  3  1  0
  3  4  2  0
  3  5  1  0
  5  6  1  0
  6  7  1  0
  7  8  2  0
  7  9  1  0
  9 10  1  0
 10 11  1  0
 11 12  1  0
 12 13  1  0
 13 10  1  0
  1 14  1  0
  1 15  1  0
  1 16  1  0
  5 17  1  0
  5 18  1  0
  6 19  1  0
  9 20  1  0
  9 21  1  0
 11 22  1  0
 11 23  1  0
 12 24  1  0
 12 25  1  0
 13 26  1  0
 13 27  1  0
M  END
$$$$

     RDKit          3D

 27 27  0  0  0  0  0  0  0  0999 V2000
   -5.7066    0.4232    0.7446 C   0  0  0  0  0  0  0  0  0  0  0  0
   -4.5774    0.1658   -0.0715 O   0  0  0  0  0  0  0  0  0  0  0  0
   -3.3046    0.0794    0.4592 C   0  0  0  0  0  0  0  0  0  0  0  0
   -3.1857    0.2404    1.7090 O   0  0  0  0  0  0  0  0  0  0  0  0
   -2.1780   -0.1888   -0.4334 C   0  0  0  0  0  0  0  0  0  0  0  0
   -0.9114   -0.2557    0.2765 N   0  0  0  0  0  0  0  0  0  0  0  0
    0.3376   -0.5027   -0.3402 C   0  0  0  0  0  0  0  0  0  0  0  0
    0.3671   -0.6766   -1.5809 O   0  0  0  0  0  0  0  0  0  0  0  0
    1.6154   -0.5679    0.4029 C   0  0  0  0  0  0  0  0  0  0  0  0
    2.7443   -0.8293   -0.4229 N   0  0  0  0  0  0  0  0  0  0  0  0
    3.1307    0.2160   -1.3458 C   0  0  0  0  0  0  0  0  0  0  0  0
    4.1203    0.7703   -0.3466 C   0  0  0  0  0  0  0  0  0  0  0  0
    3.9743   -0.5849    0.3095 C   0  0  0  0  0  0  0  0  0  0  0  0
   -5.8596   -0.3580    1.5197 H   0  0  0  0  0  0  0  0  0  0  0  0
   -6.5791    0.5344    0.0688 H   0  0  0  0  0  0  0  0  0  0  0  0
   -5.5394    1.4338    1.2022 H   0  0  0  0  0  0  0  0  0  0  0  0
   -2.3417   -1.1081   -1.0077 H   0  0  0  0  0  0  0  0  0  0  0  0
   -2.1193    0.6727   -1.1564 H   0  0  0  0  0  0  0  0  0  0  0  0
   -0.8985   -0.1147    1.3132 H   0  0  0  0  0  0  0  0  0  0  0  0
    1.7563    0.4430    0.8738 H   0  0  0  0  0  0  0  0  0  0  0  0
    1.5792   -1.3039    1.2352 H   0  0  0  0  0  0  0  0  0  0  0  0
    2.3314    0.9198   -1.6486 H   0  0  0  0  0  0  0  0  0  0  0  0
    3.6965   -0.1807   -2.2194 H   0  0  0  0  0  0  0  0  0  0  0  0
    3.7509    1.5879    0.2948 H   0  0  0  0  0  0  0  0  0  0  0  0
    5.1508    0.9596   -0.7585 H   0  0  0  0  0  0  0  0  0  0  0  0
    3.8197   -0.5173    1.4263 H   0  0  0  0  0  0  0  0  0  0  0  0
    4.8267   -1.2576    0.0662 H   0  0  0  0  0  0  0  0  0  0  0  0
  1  2  1  0
  2  3  1  0
  3  4  2  0
  3  5  1  0
  5  6  1  0
  6  7  1  0
  7  8  2  0
  7  9  1  0
  9 10  1  0
 10 11  1  0
 11 12  1  0
 12 13  1  0
 13 10  1  0
  1 14  1  0
  1 15  1  0
  1 16  1  0
  5 17  1  0
  5 18  1  0
  6 19  1  0
  9 20  1  0
  9 21  1  0
 11 22  1  0
 11 23  1  0
 12 24  1  0
 12 25  1  0
 13 26  1  0
 13 27  1  0
M  END
$$$$

     RDKit          3D

 27 27  0  0  0  0  0  0  0  0999 V2000
    4.9881   -0.8753    0.9348 C   0  0  0  0  0  0  0  0  0  0  0  0
    4.2850   -0.2173   -0.0704 O   0  0  0  0  0  0  0  0  0  0  0  0
    2.9457   -0.2674   -0.3137 C   0  0  0  0  0  0  0  0  0  0  0  0
    2.2239   -0.9751    0.4313 O   0  0  0  0  0  0  0  0  0  0  0  0
    2.2723    0.4679   -1.4119 C   0  0  0  0  0  0  0  0  0  0  0  0
    0.8639    0.2538   -1.5060 N   0  0  0  0  0  0  0  0  0  0  0  0
   -0.0835    0.5610   -0.5109 C   0  0  0  0  0  0  0  0  0  0  0  0
    0.3043    1.0591    0.5645 O   0  0  0  0  0  0  0  0  0  0  0  0
   -1.5573    0.3203   -0.6894 C   0  0  0  0  0  0  0  0  0  0  0  0
   -2.3066    0.7318    0.4693 N   0  0  0  0  0  0  0  0  0  0  0  0
   -3.7502    0.7147    0.1869 C   0  0  0  0  0  0  0  0  0  0  0  0
   -3.9450    0.2040    1.6106 C   0  0  0  0  0  0  0  0  0  0  0  0
   -2.5909   -0.4524    1.3210 C   0  0  0  0  0  0  0  0  0  0  0  0
    4.9703   -0.3563    1.9147 H   0  0  0  0  0  0  0  0  0  0  0  0
    4.6846   -1.9514    1.0845 H   0  0  0  0  0  0  0  0  0  0  0  0
    6.0464   -0.9266    0.6034 H   0  0  0  0  0  0  0  0  0  0  0  0
    2.5214    1.5755   -1.3526 H   0  0  0  0  0  0  0  0  0  0  0  0
    2.7800    0.1533   -2.3530 H   0  0  0  0  0  0  0  0  0  0  0  0
    0.4650   -0.1799   -2.3925 H   0  0  0  0  0  0  0  0  0  0  0  0
   -1.9083    0.7776   -1.6256 H   0  0  0  0  0  0  0  0  0  0  0  0
   -1.7256   -0.7958   -0.8512 H   0  0  0  0  0  0  0  0  0  0  0  0
   -4.2071    1.7128    0.0199 H   0  0  0  0  0  0  0  0  0  0  0  0
   -3.9951   -0.0775   -0.5352 H   0  0  0  0  0  0  0  0  0  0  0  0
   -3.8423    0.9638    2.4026 H   0  0  0  0  0  0  0  0  0  0  0  0
   -4.7940   -0.5015    1.6965 H   0  0  0  0  0  0  0  0  0  0  0  0
   -1.9277   -0.5870    2.1710 H   0  0  0  0  0  0  0  0  0  0  0  0
   -2.7174   -1.3320    0.6457 H   0  0  0  0  0  0  0  0  0  0  0  0
  1  2  1  0
  2  3  1  0
  3  4  2  0
  3  5  1  0
  5  6  1  0
  6  7  1  0
  7  8  2  0
  7  9  1  0
  9 10  1  0
 10 11  1  0
 11 12  1  0
 12 13  1  0
 13 10  1  0
  1 14  1  0
  1 15  1  0
  1 16  1  0
  5 17  1  0
  5 18  1  0
  6 19  1  0
  9 20  1  0
  9 21  1  0
 11 22  1  0
 11 23  1  0
 12 24  1  0
 12 25  1  0
 13 26  1  0
 13 27  1  0
M  END
$$$$

     RDKit          3D

 27 27  0  0  0  0  0  0  0  0999 V2000
    5.7345    0.4754    0.6163 C   0  0  0  0  0  0  0  0  0  0  0  0
    4.4655    0.3950    1.2529 O   0  0  0  0  0  0  0  0  0  0  0  0
    3.3359    0.1427    0.4469 C   0  0  0  0  0  0  0  0  0  0  0  0
    3.5309    0.0053   -0.7863 O   0  0  0  0  0  0  0  0  0  0  0  0
    2.0142    0.0595    1.1056 C   0  0  0  0  0  0  0  0  0  0  0  0
    1.0158   -0.2026    0.0657 N   0  0  0  0  0  0  0  0  0  0  0  0
   -0.3759   -0.3368    0.4115 C   0  0  0  0  0  0  0  0  0  0  0  0
   -0.6537   -0.2169    1.6327 O   0  0  0  0  0  0  0  0  0  0  0  0
   -1.4120   -0.6001   -0.6210 C   0  0  0  0  0  0  0  0  0  0  0  0
   -2.6896   -0.6830    0.0347 N   0  0  0  0  0  0  0  0  0  0  0  0
   -3.1725    0.5858    0.6012 C   0  0  0  0  0  0  0  0  0  0  0  0
   -4.5797    0.0301    0.3283 C   0  0  0  0  0  0  0  0  0  0  0  0
   -3.8418   -0.5897   -0.8552 C   0  0  0  0  0  0  0  0  0  0  0  0
    5.6952    0.2108   -0.4452 H   0  0  0  0  0  0  0  0  0  0  0  0
    6.0654    1.5392    0.7144 H   0  0  0  0  0  0  0  0  0  0  0  0
    6.4958   -0.1342    1.1541 H   0  0  0  0  0  0  0  0  0  0  0  0
    2.0559   -0.7664    1.8389 H   0  0  0  0  0  0  0  0  0  0  0  0
    1.7791    0.9768    1.6660 H   0  0  0  0  0  0  0  0  0  0  0  0
    1.2626   -0.3035   -0.9421 H   0  0  0  0  0  0  0  0  0  0  0  0
   -1.2365   -1.5889   -1.1073 H   0  0  0  0  0  0  0  0  0  0  0  0
   -1.3732    0.1576   -1.4241 H   0  0  0  0  0  0  0  0  0  0  0  0
   -3.0219    1.4535   -0.0731 H   0  0  0  0  0  0  0  0  0  0  0  0
   -2.9371    0.7391    1.6644 H   0  0  0  0  0  0  0  0  0  0  0  0
   -4.8941   -0.7602    1.0118 H   0  0  0  0  0  0  0  0  0  0  0  0
   -5.3092    0.8046    0.0564 H   0  0  0  0  0  0  0  0  0  0  0  0
   -4.2113   -1.5717   -1.1601 H   0  0  0  0  0  0  0  0  0  0  0  0
   -3.7424    0.1787   -1.6467 H   0  0  0  0  0  0  0  0  0  0  0  0
  1  2  1  0
  2  3  1  0
  3  4  2  0
  3  5  1  0
  5  6  1  0
  6  7  1  0
  7  8  2  0
  7  9  1  0
  9 10  1  0
 10 11  1  0
 11 12  1  0
 12 13  1  0
 13 10  1  0
  1 14  1  0
  1 15  1  0
  1 16  1  0
  5 17  1  0
  5 18  1  0
  6 19  1  0
  9 20  1  0
  9 21  1  0
 11 22  1  0
 11 23  1  0
 12 24  1  0
 12 25  1  0
 13 26  1  0
 13 27  1  0
M  END
$$$$

     RDKit          3D

 27 27  0  0  0  0  0  0  0  0999 V2000
    5.7533   -0.2031    0.9329 C   0  0  0  0  0  0  0  0  0  0  0  0
    4.5613    0.5378    0.6992 O   0  0  0  0  0  0  0  0  0  0  0  0
    3.3881   -0.1406    0.4365 C   0  0  0  0  0  0  0  0  0  0  0  0
    3.3592   -1.3958    0.4013 O   0  0  0  0  0  0  0  0  0  0  0  0
    2.1469    0.6310    0.1933 C   0  0  0  0  0  0  0  0  0  0  0  0
    1.0226   -0.2381   -0.0635 N   0  0  0  0  0  0  0  0  0  0  0  0
   -0.2575    0.3221   -0.3199 C   0  0  0  0  0  0  0  0  0  0  0  0
   -0.3496    1.5787   -0.3101 O   0  0  0  0  0  0  0  0  0  0  0  0
   -1.4429   -0.5319   -0.5892 C   0  0  0  0  0  0  0  0  0  0  0  0
   -2.6244    0.2733   -0.8192 N   0  0  0  0  0  0  0  0  0  0  0  0
   -3.8098   -0.5210   -1.0872 C   0  0  0  0  0  0  0  0  0  0  0  0
   -4.6056    0.5593   -0.3641 C   0  0  0  0  0  0  0  0  0  0  0  0
   -3.2921    0.7358    0.3889 C   0  0  0  0  0  0  0  0  0  0  0  0
    6.6029    0.2936    0.4596 H   0  0  0  0  0  0  0  0  0  0  0  0
    5.9091   -0.3140    2.0208 H   0  0  0  0  0  0  0  0  0  0  0  0
    5.6675   -1.2197    0.4800 H   0  0  0  0  0  0  0  0  0  0  0  0
    2.3195    1.2584   -0.7240 H   0  0  0  0  0  0  0  0  0  0  0  0
    1.9413    1.3576    1.0070 H   0  0  0  0  0  0  0  0  0  0  0  0
    1.1279   -1.2808   -0.0656 H   0  0  0  0  0  0  0  0  0  0  0  0
   -1.2696   -1.2625   -1.3977 H   0  0  0  0  0  0  0  0  0  0  0  0
   -1.6365   -1.1147    0.3450 H   0  0  0  0  0  0  0  0  0  0  0  0
   -3.8363   -1.5054   -0.6042 H   0  0  0  0  0  0  0  0  0  0  0  0
   -4.0296   -0.5003   -2.1702 H   0  0  0  0  0  0  0  0  0  0  0  0
   -5.3963    0.1411    0.3038 H   0  0  0  0  0  0  0  0  0  0  0  0
   -4.9056    1.3991   -0.9949 H   0  0  0  0  0  0  0  0  0  0  0  0
   -3.1990    0.0916    1.2649 H   0  0  0  0  0  0  0  0  0  0  0  0
   -3.1450    1.8301    0.5766 H   0  0  0  0  0  0  0  0  0  0  0  0
  1  2  1  0
  2  3  1  0
  3  4  2  0
  3  5  1  0
  5  6  1  0
  6  7  1  0
  7  8  2  0
  7  9  1  0
  9 10  1  0
 10 11  1  0
 11 12  1  0
 12 13  1  0
 13 10  1  0
  1 14  1  0
  1 15  1  0
  1 16  1  0
  5 17  1  0
  5 18  1  0
  6 19  1  0
  9 20  1  0
  9 21  1  0
 11 22  1  0
 11 23  1  0
 12 24  1  0
 12 25  1  0
 13 26  1  0
 13 27  1  0
M  END
$$$$

     RDKit          3D

 27 27  0  0  0  0  0  0  0  0999 V2000
    4.6937    1.3334   -0.7019 C   0  0  0  0  0  0  0  0  0  0  0  0
    3.7508    0.5681   -0.0080 O   0  0  0  0  0  0  0  0  0  0  0  0
    3.4227   -0.7516   -0.3899 C   0  0  0  0  0  0  0  0  0  0  0  0
    3.9666   -1.3275   -1.3319 O   0  0  0  0  0  0  0  0  0  0  0  0
    2.3105   -1.3524    0.4724 C   0  0  0  0  0  0  0  0  0  0  0  0
    1.2165   -0.4728    0.1762 N   0  0  0  0  0  0  0  0  0  0  0  0
   -0.1472   -0.6758    0.5555 C   0  0  0  0  0  0  0  0  0  0  0  0
   -0.4403   -1.7180    1.1814 O   0  0  0  0  0  0  0  0  0  0  0  0
   -1.1442    0.3966    0.1691 C   0  0  0  0  0  0  0  0  0  0  0  0
   -2.4547    0.0530    0.4954 N   0  0  0  0  0  0  0  0  0  0  0  0
   -3.1986   -0.8723   -0.2794 C   0  0  0  0  0  0  0  0  0  0  0  0
   -4.4534   -0.1103    0.0098 C   0  0  0  0  0  0  0  0  0  0  0  0
   -3.4734    1.0209    0.2979 C   0  0  0  0  0  0  0  0  0  0  0  0
    5.6823    0.9549   -0.5200 H   0  0  0  0  0  0  0  0  0  0  0  0
    4.6737    2.3766   -0.2475 H   0  0  0  0  0  0  0  0  0  0  0  0
    4.4220    1.4263   -1.7681 H   0  0  0  0  0  0  0  0  0  0  0  0
    2.7115   -1.2512    1.4739 H   0  0  0  0  0  0  0  0  0  0  0  0
    2.1954   -2.3863    0.2337 H   0  0  0  0  0  0  0  0  0  0  0  0
    1.3722    0.4267   -0.3989 H   0  0  0  0  0  0  0  0  0  0  0  0
   -0.9385    0.7713   -0.8440 H   0  0  0  0  0  0  0  0  0  0  0  0
   -0.8960    1.3194    0.8306 H   0  0  0  0  0  0  0  0  0  0  0  0
   -2.9376   -0.8743   -1.3814 H   0  0  0  0  0  0  0  0  0  0  0  0
   -3.2126   -1.9040    0.0701 H   0  0  0  0  0  0  0  0  0  0  0  0
   -4.9424   -0.4341    0.9631 H   0  0  0  0  0  0  0  0  0  0  0  0
   -5.0929    0.1924   -0.8198 H   0  0  0  0  0  0  0  0  0  0  0  0
   -3.3111    1.7013   -0.5803 H   0  0  0  0  0  0  0  0  0  0  0  0
   -3.7754    1.5898    1.2122 H   0  0  0  0  0  0  0  0  0  0  0  0
  1  2  1  0
  2  3  1  0
  3  4  2  0
  3  5  1  0
  5  6  1  0
  6  7  1  0
  7  8  2  0
  7  9  1  0
  9 10  1  0
 10 11  1  0
 11 12  1  0
 12 13  1  0
 13 10  1  0
  1 14  1  0
  1 15  1  0
  1 16  1  0
  5 17  1  0
  5 18  1  0
  6 19  1  0
  9 20  1  0
  9 21  1  0
 11 22  1  0
 11 23  1  0
 12 24  1  0
 12 25  1  0
 13 26  1  0
 13 27  1  0
M  END
$$$$
