
     RDKit          3D

 28 28  0  0  0  0  0  0  0  0999 V2000
   -2.9036   -0.6572    1.1625 C   0  0  0  0  0  0  0  0  0  0  0  0
   -2.2829   -0.6787   -0.2029 C   0  0  1  0  0  0  0  0  0  0  0  0
   -3.2558   -0.4652   -1.2627 N   0  0  0  0  0  0  0  0  0  0  0  0
   -1.1956    0.3291   -0.3595 C   0  0  1  0  0  0  0  0  0  0  0  0
   -1.7065    1.7402   -0.1372 C   0  0  0  0  0  0  0  0  0  0  0  0
   -0.0547    0.1441    0.4673 N   0  0  0  0  0  0  0  0  0  0  0  0
    1.2589   -0.0654   -0.0470 C   0  0  0  0  0  0  0  0  0  0  0  0
    1.3501   -0.0770   -1.2860 O   0  0  0  0  0  0  0  0  0  0  0  0
    2.4149   -0.2530    0.8608 C   0  0  0  0  0  0  0  0  0  0  0  0
    3.5952   -0.4405    0.0397 N   0  0  0  0  0  0  0  0  0  0  0  0
    4.4437    0.4924   -0.4319 C   0  0  0  0  0  0  0  0  0  0  0  0
    5.3991   -0.1140   -1.1469 N   0  0  0  0  0  0  0  0  0  0  0  0
    5.1403   -1.4057   -1.1149 N   0  0  0  0  0  0  0  0  0  0  0  0
    4.0545   -1.6120   -0.4017 N   0  0  0  0  0  0  0  0  0  0  0  0
   -2.3867    0.0142    1.8732 H   0  0  0  0  0  0  0  0  0  0  0  0
   -3.0099   -1.6934    1.5813 H   0  0  0  0  0  0  0  0  0  0  0  0
   -3.9598   -0.2993    1.0385 H   0  0  0  0  0  0  0  0  0  0  0  0
   -1.8451   -1.6814   -0.4529 H   0  0  0  0  0  0  0  0  0  0  0  0
   -4.0261    0.1709   -0.9820 H   0  0  0  0  0  0  0  0  0  0  0  0
   -3.7049   -1.3729   -1.5353 H   0  0  0  0  0  0  0  0  0  0  0  0
   -0.8467    0.2758   -1.4288 H   0  0  0  0  0  0  0  0  0  0  0  0
   -1.7290    2.3246   -1.0994 H   0  0  0  0  0  0  0  0  0  0  0  0
   -2.6850    1.7561    0.3765 H   0  0  0  0  0  0  0  0  0  0  0  0
   -1.0166    2.3312    0.5230 H   0  0  0  0  0  0  0  0  0  0  0  0
   -0.1842    0.1624    1.5053 H   0  0  0  0  0  0  0  0  0  0  0  0
    2.2381   -1.1238    1.5214 H   0  0  0  0  0  0  0  0  0  0  0  0
    2.5652    0.6371    1.4954 H   0  0  0  0  0  0  0  0  0  0  0  0
    4.3331    1.5615   -0.2382 H   0  0  0  0  0  0  0  0  0  0  0  0
  1  2  1  0
  2  3  1  0
  2  4  1  0
  4  5  1  0
  4  6  1  0
  6  7  1  0
  7  8  2  0
  7  9  1  0
  9 10  1  0
 10 11  1  0
 11 12  2  0
 12 13  1  0
 13 14  2  0
 14 10  1  0
  1 15  1  0
  1 16  1  0
  1 17  1  0
  2 18  1  6
  3 19  1  0
  3 20  1  0
  4 21  1  6
  5 22  1  0
  5 23  1  0
  5 24  1  0
  6 25  1  0
  9 26  1  0
  9 27  1  0
 11 28  1  0
M  END
$$$$

     RDKit          3D

 28 28  0  0  0  0  0  0  0  0999 V2000
   -3.1901    1.6153    0.0551 C   0  0  0  0  0  0  0  0  0  0  0  0
   -2.3364    0.3714    0.1943 C   0  0  1  0  0  0  0  0  0  0  0  0
   -2.0577   -0.1618   -1.1133 N   0  0  0  0  0  0  0  0  0  0  0  0
   -1.0363    0.6809    0.9382 C   0  0  1  0  0  0  0  0  0  0  0  0
   -1.2915    1.2008    2.3033 C   0  0  0  0  0  0  0  0  0  0  0  0
   -0.1340   -0.4105    0.8394 N   0  0  0  0  0  0  0  0  0  0  0  0
    1.1042   -0.4097    0.1400 C   0  0  0  0  0  0  0  0  0  0  0  0
    1.4450    0.6452   -0.4493 O   0  0  0  0  0  0  0  0  0  0  0  0
    1.9548   -1.6082    0.1106 C   0  0  0  0  0  0  0  0  0  0  0  0
    3.1418   -1.3202   -0.6680 N   0  0  0  0  0  0  0  0  0  0  0  0
    4.3003   -0.8275   -0.2166 C   0  0  0  0  0  0  0  0  0  0  0  0
    5.1264   -0.7155   -1.2652 N   0  0  0  0  0  0  0  0  0  0  0  0
    4.4752   -1.1347   -2.3342 N   0  0  0  0  0  0  0  0  0  0  0  0
    3.2783   -1.4983   -1.9679 N   0  0  0  0  0  0  0  0  0  0  0  0
   -4.1748    1.2754   -0.3352 H   0  0  0  0  0  0  0  0  0  0  0  0
   -2.7350    2.2904   -0.6797 H   0  0  0  0  0  0  0  0  0  0  0  0
   -3.3633    2.0986    1.0198 H   0  0  0  0  0  0  0  0  0  0  0  0
   -2.9319   -0.3776    0.7620 H   0  0  0  0  0  0  0  0  0  0  0  0
   -1.9061   -1.1718   -1.1500 H   0  0  0  0  0  0  0  0  0  0  0  0
   -2.6150    0.2512   -1.8674 H   0  0  0  0  0  0  0  0  0  0  0  0
   -0.5821    1.5406    0.3584 H   0  0  0  0  0  0  0  0  0  0  0  0
   -2.2657    0.7460    2.6504 H   0  0  0  0  0  0  0  0  0  0  0  0
   -1.4731    2.2914    2.2887 H   0  0  0  0  0  0  0  0  0  0  0  0
   -0.5492    0.8975    3.0646 H   0  0  0  0  0  0  0  0  0  0  0  0
   -0.3804   -1.3056    1.3153 H   0  0  0  0  0  0  0  0  0  0  0  0
    1.4383   -2.4795   -0.3361 H   0  0  0  0  0  0  0  0  0  0  0  0
    2.2440   -1.9126    1.1502 H   0  0  0  0  0  0  0  0  0  0  0  0
    4.5141   -0.5710    0.8153 H   0  0  0  0  0  0  0  0  0  0  0  0
  1  2  1  0
  2  3  1  0
  2  4  1  0
  4  5  1  0
  4  6  1  0
  6  7  1  0
  7  8  2  0
  7  9  1  0
  9 10  1  0
 10 11  1  0
 11 12  2  0
 12 13  1  0
 13 14  2  0
 14 10  1  0
  1 15  1  0
  1 16  1  0
  1 17  1  0
  2 18  1  1
  3 19  1  0
  3 20  1  0
  4 21  1  6
  5 22  1  0
  5 23  1  0
  5 24  1  0
  6 25  1  0
  9 26  1  0
  9 27  1  0
 11 28  1  0
M  END
$$$$

     RDKit          3D

 28 28  0  0  0  0  0  0  0  0999 V2000
    2.1043    1.1904   -0.9943 C   0  0  0  0  0  0  0  0  0  0  0  0
    2.4822   -0.0639   -0.2611 C   0  0  1  0  0  0  0  0  0  0  0  0
    3.1460    0.2607    0.9803 N   0  0  0  0  0  0  0  0  0  0  0  0
    1.2632   -0.9590   -0.0322 C   0  0  1  0  0  0  0  0  0  0  0  0
    1.6692   -2.2140    0.7068 C   0  0  0  0  0  0  0  0  0  0  0  0
    0.2507   -0.2496    0.7166 N   0  0  0  0  0  0  0  0  0  0  0  0
   -1.0075   -0.0148    0.1096 C   0  0  0  0  0  0  0  0  0  0  0  0
   -1.1940   -0.4320   -1.0547 O   0  0  0  0  0  0  0  0  0  0  0  0
   -2.1073    0.7050    0.8024 C   0  0  0  0  0  0  0  0  0  0  0  0
   -3.2639    0.7904   -0.0656 N   0  0  0  0  0  0  0  0  0  0  0  0
   -4.2329   -0.1378   -0.0999 C   0  0  0  0  0  0  0  0  0  0  0  0
   -5.1435    0.2416   -0.9996 N   0  0  0  0  0  0  0  0  0  0  0  0
   -4.7530    1.4050   -1.5328 N   0  0  0  0  0  0  0  0  0  0  0  0
   -3.6023    1.7138   -0.9421 N   0  0  0  0  0  0  0  0  0  0  0  0
    3.0103    1.5871   -1.5362 H   0  0  0  0  0  0  0  0  0  0  0  0
    1.7190    1.9773   -0.2991 H   0  0  0  0  0  0  0  0  0  0  0  0
    1.3302    1.0394   -1.7615 H   0  0  0  0  0  0  0  0  0  0  0  0
    3.1941   -0.6202   -0.9053 H   0  0  0  0  0  0  0  0  0  0  0  0
    2.7866    1.1861    1.3287 H   0  0  0  0  0  0  0  0  0  0  0  0
    4.1625    0.4364    0.7263 H   0  0  0  0  0  0  0  0  0  0  0  0
    0.8946   -1.2390   -1.0393 H   0  0  0  0  0  0  0  0  0  0  0  0
    1.5993   -2.0563    1.8036 H   0  0  0  0  0  0  0  0  0  0  0  0
    1.0281   -3.0522    0.3616 H   0  0  0  0  0  0  0  0  0  0  0  0
    2.7442   -2.4323    0.4797 H   0  0  0  0  0  0  0  0  0  0  0  0
    0.3924    0.0991    1.6769 H   0  0  0  0  0  0  0  0  0  0  0  0
   -2.3943    0.1466    1.7343 H   0  0  0  0  0  0  0  0  0  0  0  0
   -1.8080    1.7338    1.0728 H   0  0  0  0  0  0  0  0  0  0  0  0
   -4.2700   -1.0413    0.5004 H   0  0  0  0  0  0  0  0  0  0  0  0
  1  2  1  0
  2  3  1  0
  2  4  1  0
  4  5  1  0
  4  6  1  0
  6  7  1  0
  7  8  2  0
  7  9  1  0
  9 10  1  0
 10 11  1  0
 11 12  2  0
 12 13  1  0
 13 14  2  0
 14 10  1  0
  1 15  1  0
  1 16  1  0
  1 17  1  0
  2 18  1  6
  3 19  1  0
  3 20  1  0
  4 21  1  6
  5 22  1  0
  5 23  1  0
  5 24  1  0
  6 25  1  0
  9 26  1  0
  9 27  1  0
 11 28  1  0
M  END
$$$$

     RDKit          3D

 28 28  0  0  0  0  0  0  0  0999 V2000
   -1.8404   -0.2537    1.7839 C   0  0  0  0  0  0  0  0  0  0  0  0
   -1.9308   -0.8356    0.3964 C   0  0  1  0  0  0  0  0  0  0  0  0
   -3.3396   -0.8905    0.0489 N   0  0  0  0  0  0  0  0  0  0  0  0
   -1.2035   -0.0150   -0.6315 C   0  0  1  0  0  0  0  0  0  0  0  0
   -1.7481    1.3940   -0.7280 C   0  0  0  0  0  0  0  0  0  0  0  0
    0.2028    0.0737   -0.4108 N   0  0  0  0  0  0  0  0  0  0  0  0
    1.0825   -0.4139   -1.3938 C   0  0  0  0  0  0  0  0  0  0  0  0
    0.6083   -0.9222   -2.4558 O   0  0  0  0  0  0  0  0  0  0  0  0
    2.5580   -0.3817   -1.2877 C   0  0  0  0  0  0  0  0  0  0  0  0
    3.0455    0.1929   -0.0884 N   0  0  0  0  0  0  0  0  0  0  0  0
    3.3101   -0.4424    1.0593 C   0  0  0  0  0  0  0  0  0  0  0  0
    3.7591    0.4328    1.9822 N   0  0  0  0  0  0  0  0  0  0  0  0
    3.7655    1.6130    1.3828 N   0  0  0  0  0  0  0  0  0  0  0  0
    3.3303    1.4616    0.1229 N   0  0  0  0  0  0  0  0  0  0  0  0
   -2.4950   -0.8723    2.4381 H   0  0  0  0  0  0  0  0  0  0  0  0
   -2.2350    0.7797    1.8407 H   0  0  0  0  0  0  0  0  0  0  0  0
   -0.8202   -0.3186    2.2136 H   0  0  0  0  0  0  0  0  0  0  0  0
   -1.5574   -1.8568    0.4135 H   0  0  0  0  0  0  0  0  0  0  0  0
   -3.7746    0.0524    0.0962 H   0  0  0  0  0  0  0  0  0  0  0  0
   -3.4617   -1.2909   -0.8952 H   0  0  0  0  0  0  0  0  0  0  0  0
   -1.3889   -0.4883   -1.6137 H   0  0  0  0  0  0  0  0  0  0  0  0
   -1.1578    1.9179   -1.5123 H   0  0  0  0  0  0  0  0  0  0  0  0
   -2.7990    1.4219   -1.0590 H   0  0  0  0  0  0  0  0  0  0  0  0
   -1.5895    1.9742    0.2111 H   0  0  0  0  0  0  0  0  0  0  0  0
    0.6503    0.4812    0.4427 H   0  0  0  0  0  0  0  0  0  0  0  0
    2.9009   -1.4479   -1.4382 H   0  0  0  0  0  0  0  0  0  0  0  0
    2.9205    0.1425   -2.2203 H   0  0  0  0  0  0  0  0  0  0  0  0
    3.2076   -1.5081    1.3024 H   0  0  0  0  0  0  0  0  0  0  0  0
  1  2  1  0
  2  3  1  0
  2  4  1  0
  4  5  1  0
  4  6  1  0
  6  7  1  0
  7  8  2  0
  7  9  1  0
  9 10  1  0
 10 11  1  0
 11 12  2  0
 12 13  1  0
 13 14  2  0
 14 10  1  0
  1 15  1  0
  1 16  1  0
  1 17  1  0
  2 18  1  1
  3 19  1  0
  3 20  1  0
  4 21  1  6
  5 22  1  0
  5 23  1  0
  5 24  1  0
  6 25  1  0
  9 26  1  0
  9 27  1  0
 11 28  1  0
M  END
$$$$

     RDKit          3D

 28 28  0  0  0  0  0  0  0  0999 V2000
   -1.9647    0.5387    1.4282 C   0  0  0  0  0  0  0  0  0  0  0  0
   -2.1443    0.4626   -0.0666 C   0  0  1  0  0  0  0  0  0  0  0  0
   -1.9416    1.7493   -0.6393 N   0  0  0  0  0  0  0  0  0  0  0  0
   -1.2714   -0.6184   -0.6533 C   0  0  1  0  0  0  0  0  0  0  0  0
   -1.4403   -0.7058   -2.1450 C   0  0  0  0  0  0  0  0  0  0  0  0
    0.0993   -0.5107   -0.2492 N   0  0  0  0  0  0  0  0  0  0  0  0
    0.7535   -1.4808    0.5226 C   0  0  0  0  0  0  0  0  0  0  0  0
    0.1251   -2.5035    0.8888 O   0  0  0  0  0  0  0  0  0  0  0  0
    2.1932   -1.3560    0.9404 C   0  0  0  0  0  0  0  0  0  0  0  0
    2.7701   -0.1306    0.4419 N   0  0  0  0  0  0  0  0  0  0  0  0
    2.7694    1.0454    1.0890 C   0  0  0  0  0  0  0  0  0  0  0  0
    3.3969    1.9391    0.3057 N   0  0  0  0  0  0  0  0  0  0  0  0
    3.7783    1.3342   -0.8007 N   0  0  0  0  0  0  0  0  0  0  0  0
    3.3859    0.0684   -0.6990 N   0  0  0  0  0  0  0  0  0  0  0  0
   -2.7244   -0.0664    1.9810 H   0  0  0  0  0  0  0  0  0  0  0  0
   -2.0290    1.5846    1.7996 H   0  0  0  0  0  0  0  0  0  0  0  0
   -0.9681    0.1427    1.7225 H   0  0  0  0  0  0  0  0  0  0  0  0
   -3.2101    0.1635   -0.2596 H   0  0  0  0  0  0  0  0  0  0  0  0
   -1.0907    2.2416   -0.3579 H   0  0  0  0  0  0  0  0  0  0  0  0
   -2.2286    1.8486   -1.6204 H   0  0  0  0  0  0  0  0  0  0  0  0
   -1.6646   -1.5891   -0.2366 H   0  0  0  0  0  0  0  0  0  0  0  0
   -0.6450   -0.1656   -2.6986 H   0  0  0  0  0  0  0  0  0  0  0  0
   -2.4235   -0.2111   -2.3802 H   0  0  0  0  0  0  0  0  0  0  0  0
   -1.5445   -1.7565   -2.4816 H   0  0  0  0  0  0  0  0  0  0  0  0
    0.6555    0.3326   -0.5381 H   0  0  0  0  0  0  0  0  0  0  0  0
    2.2803   -1.3754    2.0544 H   0  0  0  0  0  0  0  0  0  0  0  0
    2.7314   -2.2621    0.5862 H   0  0  0  0  0  0  0  0  0  0  0  0
    2.3518    1.2805    2.0658 H   0  0  0  0  0  0  0  0  0  0  0  0
  1  2  1  0
  2  3  1  0
  2  4  1  0
  4  5  1  0
  4  6  1  0
  6  7  1  0
  7  8  2  0
  7  9  1  0
  9 10  1  0
 10 11  1  0
 11 12  2  0
 12 13  1  0
 13 14  2  0
 14 10  1  0
  1 15  1  0
  1 16  1  0
  1 17  1  0
  2 18  1  1
  3 19  1  0
  3 20  1  0
  4 21  1  1
  5 22  1  0
  5 23  1  0
  5 24  1  0
  6 25  1  0
  9 26  1  0
  9 27  1  0
 11 28  1  0
M  END
$$$$

     RDKit          3D

 28 28  0  0  0  0  0  0  0  0999 V2000
   -2.9463    0.4062   -0.9146 C   0  0  0  0  0  0  0  0  0  0  0  0
   -2.4506   -0.3087    0.3048 C   0  0  1  0  0  0  0  0  0  0  0  0
   -2.3516   -1.7337    0.0135 N   0  0  0  0  0  0  0  0  0  0  0  0
   -1.1691    0.2227    0.8592 C   0  0  1  0  0  0  0  0  0  0  0  0
   -0.8450   -0.6429    2.0873 C   0  0  0  0  0  0  0  0  0  0  0  0
   -0.0874    0.1612   -0.0805 N   0  0  0  0  0  0  0  0  0  0  0  0
    0.7638    1.2781   -0.3029 C   0  0  0  0  0  0  0  0  0  0  0  0
    0.5982    2.3591    0.3250 O   0  0  0  0  0  0  0  0  0  0  0  0
    1.8534    1.0911   -1.3140 C   0  0  0  0  0  0  0  0  0  0  0  0
    2.8936    0.2176   -0.7988 N   0  0  0  0  0  0  0  0  0  0  0  0
    3.9887    0.5624   -0.1079 C   0  0  0  0  0  0  0  0  0  0  0  0
    4.6798   -0.5724    0.1551 N   0  0  0  0  0  0  0  0  0  0  0  0
    4.0270   -1.5828   -0.3587 N   0  0  0  0  0  0  0  0  0  0  0  0
    2.9429   -1.1230   -0.9399 N   0  0  0  0  0  0  0  0  0  0  0  0
   -2.3223    0.0800   -1.7847 H   0  0  0  0  0  0  0  0  0  0  0  0
   -2.9037    1.4981   -0.8197 H   0  0  0  0  0  0  0  0  0  0  0  0
   -3.9893    0.0248   -1.1094 H   0  0  0  0  0  0  0  0  0  0  0  0
   -3.2380   -0.2120    1.1073 H   0  0  0  0  0  0  0  0  0  0  0  0
   -1.4325   -2.1044    0.3430 H   0  0  0  0  0  0  0  0  0  0  0  0
   -2.5014   -1.9039   -0.9963 H   0  0  0  0  0  0  0  0  0  0  0  0
   -1.3035    1.2506    1.2228 H   0  0  0  0  0  0  0  0  0  0  0  0
    0.1434   -1.0868    1.9919 H   0  0  0  0  0  0  0  0  0  0  0  0
   -1.6014   -1.4161    2.2576 H   0  0  0  0  0  0  0  0  0  0  0  0
   -0.8553   -0.0108    3.0176 H   0  0  0  0  0  0  0  0  0  0  0  0
    0.0526   -0.7317   -0.5970 H   0  0  0  0  0  0  0  0  0  0  0  0
    1.4695    0.6456   -2.2367 H   0  0  0  0  0  0  0  0  0  0  0  0
    2.3056    2.0871   -1.5130 H   0  0  0  0  0  0  0  0  0  0  0  0
    4.2789    1.5448    0.1889 H   0  0  0  0  0  0  0  0  0  0  0  0
  1  2  1  0
  2  3  1  0
  2  4  1  0
  4  5  1  0
  4  6  1  0
  6  7  1  0
  7  8  2  0
  7  9  1  0
  9 10  1  0
 10 11  1  0
 11 12  2  0
 12 13  1  0
 13 14  2  0
 14 10  1  0
  1 15  1  0
  1 16  1  0
  1 17  1  0
  2 18  1  1
  3 19  1  0
  3 20  1  0
  4 21  1  1
  5 22  1  0
  5 23  1  0
  5 24  1  0
  6 25  1  0
  9 26  1  0
  9 27  1  0
 11 28  1  0
M  END
$$$$

     RDKit          3D

 28 28  0  0  0  0  0  0  0  0999 V2000
   -2.7481   -1.1211    0.5096 C   0  0  0  0  0  0  0  0  0  0  0  0
   -2.1165   -0.5139   -0.7221 C   0  0  1  0  0  0  0  0  0  0  0  0
   -3.0640   -0.1450   -1.7280 N   0  0  0  0  0  0  0  0  0  0  0  0
   -1.2376    0.6706   -0.3702 C   0  0  1  0  0  0  0  0  0  0  0  0
   -2.0547    1.7314    0.3083 C   0  0  0  0  0  0  0  0  0  0  0  0
   -0.1434    0.1885    0.4545 N   0  0  0  0  0  0  0  0  0  0  0  0
    1.2206    0.2585    0.0516 C   0  0  0  0  0  0  0  0  0  0  0  0
    1.4402    0.7719   -1.0844 O   0  0  0  0  0  0  0  0  0  0  0  0
    2.3285   -0.2421    0.9132 C   0  0  0  0  0  0  0  0  0  0  0  0
    3.5770   -0.0302    0.2289 N   0  0  0  0  0  0  0  0  0  0  0  0
    4.2114   -0.8698   -0.6156 C   0  0  0  0  0  0  0  0  0  0  0  0
    5.3529   -0.2984   -1.0433 N   0  0  0  0  0  0  0  0  0  0  0  0
    5.4070    0.8844   -0.4576 N   0  0  0  0  0  0  0  0  0  0  0  0
    4.3366    1.0659    0.3196 N   0  0  0  0  0  0  0  0  0  0  0  0
   -2.5315   -2.2129    0.6046 H   0  0  0  0  0  0  0  0  0  0  0  0
   -3.8488   -1.0436    0.4092 H   0  0  0  0  0  0  0  0  0  0  0  0
   -2.3927   -0.6422    1.4436 H   0  0  0  0  0  0  0  0  0  0  0  0
   -1.4295   -1.2860   -1.1774 H   0  0  0  0  0  0  0  0  0  0  0  0
   -2.6278   -0.2685   -2.6749 H   0  0  0  0  0  0  0  0  0  0  0  0
   -3.9011   -0.7870   -1.7260 H   0  0  0  0  0  0  0  0  0  0  0  0
   -0.8736    1.0890   -1.3305 H   0  0  0  0  0  0  0  0  0  0  0  0
   -2.9011    1.2901    0.9120 H   0  0  0  0  0  0  0  0  0  0  0  0
   -2.5558    2.3811   -0.4412 H   0  0  0  0  0  0  0  0  0  0  0  0
   -1.4915    2.3763    0.9807 H   0  0  0  0  0  0  0  0  0  0  0  0
   -0.3303   -0.2335    1.3893 H   0  0  0  0  0  0  0  0  0  0  0  0
    2.2977    0.1902    1.9276 H   0  0  0  0  0  0  0  0  0  0  0  0
    2.2244   -1.3554    1.0548 H   0  0  0  0  0  0  0  0  0  0  0  0
    3.8516   -1.8483   -0.8994 H   0  0  0  0  0  0  0  0  0  0  0  0
  1  2  1  0
  2  3  1  0
  2  4  1  0
  4  5  1  0
  4  6  1  0
  6  7  1  0
  7  8  2  0
  7  9  1  0
  9 10  1  0
 10 11  1  0
 11 12  2  0
 12 13  1  0
 13 14  2  0
 14 10  1  0
  1 15  1  0
  1 16  1  0
  1 17  1  0
  2 18  1  6
  3 19  1  0
  3 20  1  0
  4 21  1  6
  5 22  1  0
  5 23  1  0
  5 24  1  0
  6 25  1  0
  9 26  1  0
  9 27  1  0
 11 28  1  0
M  END
$$$$

     RDKit          3D

 28 28  0  0  0  0  0  0  0  0999 V2000
   -1.9385   -1.3998   -0.8171 C   0  0  0  0  0  0  0  0  0  0  0  0
   -2.2216   -0.2420    0.0862 C   0  0  1  0  0  0  0  0  0  0  0  0
   -2.2560   -0.6826    1.4475 N   0  0  0  0  0  0  0  0  0  0  0  0
   -1.2380    0.8882   -0.1528 C   0  0  1  0  0  0  0  0  0  0  0  0
   -1.5043    2.0514    0.7384 C   0  0  0  0  0  0  0  0  0  0  0  0
    0.1204    0.4352   -0.1981 N   0  0  0  0  0  0  0  0  0  0  0  0
    0.9607    0.4379   -1.3180 C   0  0  0  0  0  0  0  0  0  0  0  0
    0.5141    0.8697   -2.3949 O   0  0  0  0  0  0  0  0  0  0  0  0
    2.3532   -0.0692   -1.1996 C   0  0  0  0  0  0  0  0  0  0  0  0
    2.6561   -0.5181    0.1332 N   0  0  0  0  0  0  0  0  0  0  0  0
    3.1604    0.1608    1.1720 C   0  0  0  0  0  0  0  0  0  0  0  0
    3.2729   -0.6746    2.2214 N   0  0  0  0  0  0  0  0  0  0  0  0
    2.8396   -1.8402    1.8116 N   0  0  0  0  0  0  0  0  0  0  0  0
    2.4708   -1.7519    0.5674 N   0  0  0  0  0  0  0  0  0  0  0  0
   -2.7515   -2.1447   -0.6778 H   0  0  0  0  0  0  0  0  0  0  0  0
   -1.0081   -1.8924   -0.4540 H   0  0  0  0  0  0  0  0  0  0  0  0
   -1.9028   -1.1294   -1.8844 H   0  0  0  0  0  0  0  0  0  0  0  0
   -3.2419    0.1379   -0.1704 H   0  0  0  0  0  0  0  0  0  0  0  0
   -2.1379   -1.7176    1.5153 H   0  0  0  0  0  0  0  0  0  0  0  0
   -1.5230   -0.2624    2.0516 H   0  0  0  0  0  0  0  0  0  0  0  0
   -1.4704    1.2364   -1.1894 H   0  0  0  0  0  0  0  0  0  0  0  0
   -0.7869    1.9749    1.6060 H   0  0  0  0  0  0  0  0  0  0  0  0
   -1.3805    3.0326    0.2995 H   0  0  0  0  0  0  0  0  0  0  0  0
   -2.5125    2.0249    1.2060 H   0  0  0  0  0  0  0  0  0  0  0  0
    0.5222    0.0661    0.6961 H   0  0  0  0  0  0  0  0  0  0  0  0
    3.0728    0.7251   -1.4929 H   0  0  0  0  0  0  0  0  0  0  0  0
    2.5079   -0.9203   -1.8894 H   0  0  0  0  0  0  0  0  0  0  0  0
    3.4230    1.2041    1.1410 H   0  0  0  0  0  0  0  0  0  0  0  0
  1  2  1  0
  2  3  1  0
  2  4  1  0
  4  5  1  0
  4  6  1  0
  6  7  1  0
  7  8  2  0
  7  9  1  0
  9 10  1  0
 10 11  1  0
 11 12  2  0
 12 13  1  0
 13 14  2  0
 14 10  1  0
  1 15  1  0
  1 16  1  0
  1 17  1  0
  2 18  1  6
  3 19  1  0
  3 20  1  0
  4 21  1  6
  5 22  1  0
  5 23  1  0
  5 24  1  0
  6 25  1  0
  9 26  1  0
  9 27  1  0
 11 28  1  0
M  END
$$$$
