
     RDKit          3D

 29 29  0  0  0  0  0  0  0  0999 V2000
   -3.4476    1.0811    1.4015 C   0  0  0  0  0  0  0  0  0  0  0  0
   -2.9000    0.4688    0.2710 O   0  0  0  0  0  0  0  0  0  0  0  0
   -1.5673    0.1466    0.5573 C   0  0  0  0  0  0  0  0  0  0  0  0
   -0.9851   -0.5069   -0.6512 C   0  0  1  0  0  0  0  0  0  0  0  0
   -1.9534   -1.6478   -1.0196 C   0  0  0  0  0  0  0  0  0  0  0  0
   -1.0205    0.3413   -1.7765 O   0  0  0  0  0  0  0  0  0  0  0  0
    0.3477   -1.1342   -0.4756 C   0  0  0  0  0  0  0  0  0  0  0  0
    1.4433   -0.2339   -0.2908 N   0  0  0  0  0  0  0  0  0  0  0  0
    2.0056    0.3189    0.9270 C   0  0  0  0  0  0  0  0  0  0  0  0
    3.0926    0.8825    0.0721 C   0  0  1  0  0  0  0  0  0  0  0  0
    4.3994    0.2855    0.2853 N   0  0  0  0  0  0  0  0  0  0  0  0
    2.3739    0.4468   -1.1248 C   0  0  0  0  0  0  0  0  0  0  0  0
    2.5350    0.6179   -2.3596 O   0  0  0  0  0  0  0  0  0  0  0  0
   -2.8228    1.9965    1.5828 H   0  0  0  0  0  0  0  0  0  0  0  0
   -3.4191    0.4479    2.2890 H   0  0  0  0  0  0  0  0  0  0  0  0
   -4.4951    1.3670    1.1317 H   0  0  0  0  0  0  0  0  0  0  0  0
   -1.0045    1.0187    0.9310 H   0  0  0  0  0  0  0  0  0  0  0  0
   -1.5911   -0.6046    1.3728 H   0  0  0  0  0  0  0  0  0  0  0  0
   -2.8563   -1.2107   -1.4662 H   0  0  0  0  0  0  0  0  0  0  0  0
   -1.4526   -2.3611   -1.6991 H   0  0  0  0  0  0  0  0  0  0  0  0
   -2.2121   -2.1419   -0.0548 H   0  0  0  0  0  0  0  0  0  0  0  0
   -1.7508    0.9951   -1.7161 H   0  0  0  0  0  0  0  0  0  0  0  0
    0.2723   -1.8658    0.3630 H   0  0  0  0  0  0  0  0  0  0  0  0
    0.5543   -1.7522   -1.3813 H   0  0  0  0  0  0  0  0  0  0  0  0
    2.3435   -0.4379    1.6634 H   0  0  0  0  0  0  0  0  0  0  0  0
    1.3514    1.1077    1.3222 H   0  0  0  0  0  0  0  0  0  0  0  0
    3.1396    2.0053    0.0965 H   0  0  0  0  0  0  0  0  0  0  0  0
    5.1084    0.9937   -0.0355 H   0  0  0  0  0  0  0  0  0  0  0  0
    4.5114   -0.6242   -0.2157 H   0  0  0  0  0  0  0  0  0  0  0  0
  1  2  1  0
  2  3  1  0
  3  4  1  0
  4  5  1  0
  4  6  1  6
  4  7  1  0
  7  8  1  0
  8  9  1  0
  9 10  1  0
 10 11  1  0
 10 12  1  0
 12 13  2  0
 12  8  1  0
  1 14  1  0
  1 15  1  0
  1 16  1  0
  3 17  1  0
  3 18  1  0
  5 19  1  0
  5 20  1  0
  5 21  1  0
  6 22  1  0
  7 23  1  0
  7 24  1  0
  9 25  1  0
  9 26  1  0
 10 27  1  6
 11 28  1  0
 11 29  1  0
M  END
$$$$

     RDKit          3D

 29 29  0  0  0  0  0  0  0  0999 V2000
   -2.8836    0.3988    1.8019 C   0  0  0  0  0  0  0  0  0  0  0  0
   -1.9664   -0.5551    1.5172 O   0  0  0  0  0  0  0  0  0  0  0  0
   -1.7103   -0.8806    0.2268 C   0  0  0  0  0  0  0  0  0  0  0  0
   -1.1997    0.1849   -0.6727 C   0  0  1  0  0  0  0  0  0  0  0  0
   -0.9810   -0.3403   -2.0809 C   0  0  0  0  0  0  0  0  0  0  0  0
   -2.1584    1.1940   -0.7537 O   0  0  0  0  0  0  0  0  0  0  0  0
    0.0744    0.8293   -0.2254 C   0  0  0  0  0  0  0  0  0  0  0  0
    1.1673   -0.0794   -0.0889 N   0  0  0  0  0  0  0  0  0  0  0  0
    2.2135   -0.6016   -0.9363 C   0  0  0  0  0  0  0  0  0  0  0  0
    3.0297   -0.5907    0.3380 C   0  0  1  0  0  0  0  0  0  0  0  0
    3.5633    0.7145    0.6559 N   0  0  0  0  0  0  0  0  0  0  0  0
    1.6991   -0.8738    0.9509 C   0  0  0  0  0  0  0  0  0  0  0  0
    1.2175   -1.5000    1.9145 O   0  0  0  0  0  0  0  0  0  0  0  0
   -2.7279    1.4074    1.4378 H   0  0  0  0  0  0  0  0  0  0  0  0
   -3.9352    0.1156    1.5342 H   0  0  0  0  0  0  0  0  0  0  0  0
   -2.9313    0.4956    2.9292 H   0  0  0  0  0  0  0  0  0  0  0  0
   -2.5872   -1.3943   -0.2775 H   0  0  0  0  0  0  0  0  0  0  0  0
   -0.9337   -1.7034    0.2496 H   0  0  0  0  0  0  0  0  0  0  0  0
   -0.2405   -1.1536   -2.0250 H   0  0  0  0  0  0  0  0  0  0  0  0
   -0.5482    0.4794   -2.6881 H   0  0  0  0  0  0  0  0  0  0  0  0
   -1.9007   -0.7149   -2.5458 H   0  0  0  0  0  0  0  0  0  0  0  0
   -1.6904    2.0058   -1.0726 H   0  0  0  0  0  0  0  0  0  0  0  0
   -0.1363    1.4013    0.7259 H   0  0  0  0  0  0  0  0  0  0  0  0
    0.2914    1.6488   -0.9736 H   0  0  0  0  0  0  0  0  0  0  0  0
    2.0698   -1.6512   -1.2627 H   0  0  0  0  0  0  0  0  0  0  0  0
    2.5898    0.0840   -1.7184 H   0  0  0  0  0  0  0  0  0  0  0  0
    3.7494   -1.4136    0.4562 H   0  0  0  0  0  0  0  0  0  0  0  0
    3.0049    1.2311    1.3642 H   0  0  0  0  0  0  0  0  0  0  0  0
    3.8608    1.2618   -0.1571 H   0  0  0  0  0  0  0  0  0  0  0  0
  1  2  1  0
  2  3  1  0
  3  4  1  0
  4  5  1  0
  4  6  1  6
  4  7  1  0
  7  8  1  0
  8  9  1  0
  9 10  1  0
 10 11  1  0
 10 12  1  0
 12 13  2  0
 12  8  1  0
  1 14  1  0
  1 15  1  0
  1 16  1  0
  3 17  1  0
  3 18  1  0
  5 19  1  0
  5 20  1  0
  5 21  1  0
  6 22  1  0
  7 23  1  0
  7 24  1  0
  9 25  1  0
  9 26  1  0
 10 27  1  6
 11 28  1  0
 11 29  1  0
M  END
$$$$

     RDKit          3D

 29 29  0  0  0  0  0  0  0  0999 V2000
   -3.9450    0.8054    0.4266 C   0  0  0  0  0  0  0  0  0  0  0  0
   -2.6268    0.4217    0.4119 O   0  0  0  0  0  0  0  0  0  0  0  0
   -2.3359   -0.3838   -0.6895 C   0  0  0  0  0  0  0  0  0  0  0  0
   -0.8432   -0.7267   -0.5667 C   0  0  1  0  0  0  0  0  0  0  0  0
   -0.7274   -1.5023    0.7528 C   0  0  0  0  0  0  0  0  0  0  0  0
   -0.4160   -1.5254   -1.5989 O   0  0  0  0  0  0  0  0  0  0  0  0
   -0.1248    0.5829   -0.4563 C   0  0  0  0  0  0  0  0  0  0  0  0
    1.2901    0.3946   -0.2453 N   0  0  0  0  0  0  0  0  0  0  0  0
    2.3977    0.2708   -1.1707 C   0  0  0  0  0  0  0  0  0  0  0  0
    3.2759    0.2428    0.0593 C   0  0  1  0  0  0  0  0  0  0  0  0
    4.1100    1.4205    0.2229 N   0  0  0  0  0  0  0  0  0  0  0  0
    2.0709    0.2676    0.9346 C   0  0  0  0  0  0  0  0  0  0  0  0
    1.9086    0.1994    2.1788 O   0  0  0  0  0  0  0  0  0  0  0  0
   -4.0862    1.4461    1.3416 H   0  0  0  0  0  0  0  0  0  0  0  0
   -4.2420    1.4240   -0.4291 H   0  0  0  0  0  0  0  0  0  0  0  0
   -4.5620   -0.1238    0.5238 H   0  0  0  0  0  0  0  0  0  0  0  0
   -2.4821    0.1428   -1.6442 H   0  0  0  0  0  0  0  0  0  0  0  0
   -2.9594   -1.2990   -0.6083 H   0  0  0  0  0  0  0  0  0  0  0  0
   -0.7901   -0.8105    1.5929 H   0  0  0  0  0  0  0  0  0  0  0  0
    0.1613   -2.1515    0.7533 H   0  0  0  0  0  0  0  0  0  0  0  0
   -1.6111   -2.1831    0.8077 H   0  0  0  0  0  0  0  0  0  0  0  0
   -0.3837   -2.4708   -1.3054 H   0  0  0  0  0  0  0  0  0  0  0  0
   -0.3024    1.1427   -1.4027 H   0  0  0  0  0  0  0  0  0  0  0  0
   -0.6066    1.1626    0.3555 H   0  0  0  0  0  0  0  0  0  0  0  0
    2.6196    1.1703   -1.7711 H   0  0  0  0  0  0  0  0  0  0  0  0
    2.4569   -0.6950   -1.7154 H   0  0  0  0  0  0  0  0  0  0  0  0
    3.8553   -0.6911    0.2108 H   0  0  0  0  0  0  0  0  0  0  0  0
    3.7900    2.2220   -0.3696 H   0  0  0  0  0  0  0  0  0  0  0  0
    5.1085    1.2468   -0.0250 H   0  0  0  0  0  0  0  0  0  0  0  0
  1  2  1  0
  2  3  1  0
  3  4  1  0
  4  5  1  0
  4  6  1  6
  4  7  1  0
  7  8  1  0
  8  9  1  0
  9 10  1  0
 10 11  1  0
 10 12  1  0
 12 13  2  0
 12  8  1  0
  1 14  1  0
  1 15  1  0
  1 16  1  0
  3 17  1  0
  3 18  1  0
  5 19  1  0
  5 20  1  0
  5 21  1  0
  6 22  1  0
  7 23  1  0
  7 24  1  0
  9 25  1  0
  9 26  1  0
 10 27  1  6
 11 28  1  0
 11 29  1  0
M  END
$$$$

     RDKit          3D

 29 29  0  0  0  0  0  0  0  0999 V2000
   -3.9699    0.1338   -0.3046 C   0  0  0  0  0  0  0  0  0  0  0  0
   -3.2028    1.1893    0.0167 O   0  0  0  0  0  0  0  0  0  0  0  0
   -2.0467    1.0819    0.6799 C   0  0  0  0  0  0  0  0  0  0  0  0
   -0.9803    0.2229    0.0247 C   0  0  1  0  0  0  0  0  0  0  0  0
   -1.2670   -1.2151    0.0046 C   0  0  0  0  0  0  0  0  0  0  0  0
   -0.8136    0.7628   -1.2647 O   0  0  0  0  0  0  0  0  0  0  0  0
    0.3551    0.5045    0.7171 C   0  0  0  0  0  0  0  0  0  0  0  0
    1.4361   -0.0686   -0.0201 N   0  0  0  0  0  0  0  0  0  0  0  0
    2.3015    0.3522   -1.1361 C   0  0  0  0  0  0  0  0  0  0  0  0
    3.3529   -0.4816   -0.4714 C   0  0  1  0  0  0  0  0  0  0  0  0
    4.0356    0.1962    0.6091 N   0  0  0  0  0  0  0  0  0  0  0  0
    2.1518   -1.2785   -0.0247 C   0  0  0  0  0  0  0  0  0  0  0  0
    2.0139   -2.5057    0.2033 O   0  0  0  0  0  0  0  0  0  0  0  0
   -4.8972    0.5586   -0.8294 H   0  0  0  0  0  0  0  0  0  0  0  0
   -4.3639   -0.4932    0.5039 H   0  0  0  0  0  0  0  0  0  0  0  0
   -3.4536   -0.4860   -1.0944 H   0  0  0  0  0  0  0  0  0  0  0  0
   -1.5819    2.1132    0.7360 H   0  0  0  0  0  0  0  0  0  0  0  0
   -2.1620    0.7969    1.7537 H   0  0  0  0  0  0  0  0  0  0  0  0
   -2.2121   -1.4733    0.5847 H   0  0  0  0  0  0  0  0  0  0  0  0
   -1.3960   -1.6821   -0.9894 H   0  0  0  0  0  0  0  0  0  0  0  0
   -0.4775   -1.8077    0.5717 H   0  0  0  0  0  0  0  0  0  0  0  0
   -0.4445    1.6716   -1.2341 H   0  0  0  0  0  0  0  0  0  0  0  0
    0.5199    1.5938    0.7869 H   0  0  0  0  0  0  0  0  0  0  0  0
    0.3268    0.0403    1.7222 H   0  0  0  0  0  0  0  0  0  0  0  0
    1.9426   -0.0361   -2.0958 H   0  0  0  0  0  0  0  0  0  0  0  0
    2.5481    1.4330   -1.1066 H   0  0  0  0  0  0  0  0  0  0  0  0
    3.9982   -1.0742   -1.1478 H   0  0  0  0  0  0  0  0  0  0  0  0
    3.4069    0.3295    1.4164 H   0  0  0  0  0  0  0  0  0  0  0  0
    4.8795   -0.3786    0.8781 H   0  0  0  0  0  0  0  0  0  0  0  0
  1  2  1  0
  2  3  1  0
  3  4  1  0
  4  5  1  0
  4  6  1  6
  4  7  1  0
  7  8  1  0
  8  9  1  0
  9 10  1  0
 10 11  1  0
 10 12  1  0
 12 13  2  0
 12  8  1  0
  1 14  1  0
  1 15  1  0
  1 16  1  0
  3 17  1  0
  3 18  1  0
  5 19  1  0
  5 20  1  0
  5 21  1  0
  6 22  1  0
  7 23  1  0
  7 24  1  0
  9 25  1  0
  9 26  1  0
 10 27  1  6
 11 28  1  0
 11 29  1  0
M  END
$$$$

     RDKit          3D

 29 29  0  0  0  0  0  0  0  0999 V2000
    3.8957    0.0432   -0.1656 C   0  0  0  0  0  0  0  0  0  0  0  0
    3.2133    0.5859   -1.2020 O   0  0  0  0  0  0  0  0  0  0  0  0
    2.0109    0.0602   -1.4849 C   0  0  0  0  0  0  0  0  0  0  0  0
    0.9185    0.0748   -0.4535 C   0  0  1  0  0  0  0  0  0  0  0  0
    1.1357   -0.8831    0.6339 C   0  0  0  0  0  0  0  0  0  0  0  0
    0.7768    1.3908   -0.0180 O   0  0  0  0  0  0  0  0  0  0  0  0
   -0.3581   -0.2849   -1.2664 C   0  0  0  0  0  0  0  0  0  0  0  0
   -1.4984   -0.1222   -0.4198 N   0  0  0  0  0  0  0  0  0  0  0  0
   -2.2508   -0.9709    0.4802 C   0  0  0  0  0  0  0  0  0  0  0  0
   -3.3151    0.1114    0.3682 C   0  0  1  0  0  0  0  0  0  0  0  0
   -3.8334    0.5967    1.6131 N   0  0  0  0  0  0  0  0  0  0  0  0
   -2.3231    1.0389   -0.1974 C   0  0  0  0  0  0  0  0  0  0  0  0
   -2.2909    2.2709   -0.3698 O   0  0  0  0  0  0  0  0  0  0  0  0
    4.9200    0.5180   -0.0404 H   0  0  0  0  0  0  0  0  0  0  0  0
    3.3145    0.2477    0.7711 H   0  0  0  0  0  0  0  0  0  0  0  0
    4.0819   -1.0253   -0.3413 H   0  0  0  0  0  0  0  0  0  0  0  0
    1.6457    0.5997   -2.4298 H   0  0  0  0  0  0  0  0  0  0  0  0
    2.1777   -1.0058   -1.8575 H   0  0  0  0  0  0  0  0  0  0  0  0
    1.9713   -1.6032    0.5015 H   0  0  0  0  0  0  0  0  0  0  0  0
    0.2428   -1.5650    0.7954 H   0  0  0  0  0  0  0  0  0  0  0  0
    1.2828   -0.4144    1.6432 H   0  0  0  0  0  0  0  0  0  0  0  0
    0.7970    2.0413   -0.7368 H   0  0  0  0  0  0  0  0  0  0  0  0
   -0.3403    0.4103   -2.1319 H   0  0  0  0  0  0  0  0  0  0  0  0
   -0.2412   -1.3070   -1.6818 H   0  0  0  0  0  0  0  0  0  0  0  0
   -1.9216   -1.0011    1.5376 H   0  0  0  0  0  0  0  0  0  0  0  0
   -2.5315   -1.9571    0.1094 H   0  0  0  0  0  0  0  0  0  0  0  0
   -4.1026   -0.2377   -0.3291 H   0  0  0  0  0  0  0  0  0  0  0  0
   -3.0112    0.9170    2.2075 H   0  0  0  0  0  0  0  0  0  0  0  0
   -4.3666    1.4708    1.4129 H   0  0  0  0  0  0  0  0  0  0  0  0
  1  2  1  0
  2  3  1  0
  3  4  1  0
  4  5  1  0
  4  6  1  1
  4  7  1  0
  7  8  1  0
  8  9  1  0
  9 10  1  0
 10 11  1  0
 10 12  1  0
 12 13  2  0
 12  8  1  0
  1 14  1  0
  1 15  1  0
  1 16  1  0
  3 17  1  0
  3 18  1  0
  5 19  1  0
  5 20  1  0
  5 21  1  0
  6 22  1  0
  7 23  1  0
  7 24  1  0
  9 25  1  0
  9 26  1  0
 10 27  1  6
 11 28  1  0
 11 29  1  0
M  END
$$$$

     RDKit          3D

 29 29  0  0  0  0  0  0  0  0999 V2000
   -3.9755   -1.4089   -0.1295 C   0  0  0  0  0  0  0  0  0  0  0  0
   -2.6625   -1.1761    0.3051 O   0  0  0  0  0  0  0  0  0  0  0  0
   -2.3418    0.1357    0.0059 C   0  0  0  0  0  0  0  0  0  0  0  0
   -0.9278    0.4410    0.4563 C   0  0  1  0  0  0  0  0  0  0  0  0
   -0.6973    1.9202    0.1786 C   0  0  0  0  0  0  0  0  0  0  0  0
   -0.8010    0.2572    1.8160 O   0  0  0  0  0  0  0  0  0  0  0  0
    0.0208   -0.3987   -0.3547 C   0  0  0  0  0  0  0  0  0  0  0  0
    1.3673   -0.0609    0.0071 N   0  0  0  0  0  0  0  0  0  0  0  0
    2.3089   -0.5298    0.9807 C   0  0  0  0  0  0  0  0  0  0  0  0
    3.3596    0.2221    0.1915 C   0  0  1  0  0  0  0  0  0  0  0  0
    4.1810   -0.5987   -0.6724 N   0  0  0  0  0  0  0  0  0  0  0  0
    2.2755    0.9198   -0.5182 C   0  0  0  0  0  0  0  0  0  0  0  0
    2.1522    1.9248   -1.2612 O   0  0  0  0  0  0  0  0  0  0  0  0
   -4.0164   -1.2316   -1.2327 H   0  0  0  0  0  0  0  0  0  0  0  0
   -4.2055   -2.4651    0.0457 H   0  0  0  0  0  0  0  0  0  0  0  0
   -4.6626   -0.7194    0.4001 H   0  0  0  0  0  0  0  0  0  0  0  0
   -2.4167    0.3451   -1.0920 H   0  0  0  0  0  0  0  0  0  0  0  0
   -3.0730    0.8530    0.4747 H   0  0  0  0  0  0  0  0  0  0  0  0
   -0.6968    2.0900   -0.9062 H   0  0  0  0  0  0  0  0  0  0  0  0
   -1.5406    2.4794    0.6268 H   0  0  0  0  0  0  0  0  0  0  0  0
    0.2188    2.2691    0.6762 H   0  0  0  0  0  0  0  0  0  0  0  0
   -0.9648   -0.6615    2.1218 H   0  0  0  0  0  0  0  0  0  0  0  0
   -0.2145   -1.4588   -0.1407 H   0  0  0  0  0  0  0  0  0  0  0  0
   -0.2119   -0.2294   -1.4227 H   0  0  0  0  0  0  0  0  0  0  0  0
    2.4607   -1.6185    1.0499 H   0  0  0  0  0  0  0  0  0  0  0  0
    2.2242   -0.0539    1.9927 H   0  0  0  0  0  0  0  0  0  0  0  0
    3.9642    0.9449    0.7774 H   0  0  0  0  0  0  0  0  0  0  0  0
    5.1334   -0.6745   -0.2747 H   0  0  0  0  0  0  0  0  0  0  0  0
    3.7419   -1.5163   -0.8393 H   0  0  0  0  0  0  0  0  0  0  0  0
  1  2  1  0
  2  3  1  0
  3  4  1  0
  4  5  1  0
  4  6  1  1
  4  7  1  0
  7  8  1  0
  8  9  1  0
  9 10  1  0
 10 11  1  0
 10 12  1  0
 12 13  2  0
 12  8  1  0
  1 14  1  0
  1 15  1  0
  1 16  1  0
  3 17  1  0
  3 18  1  0
  5 19  1  0
  5 20  1  0
  5 21  1  0
  6 22  1  0
  7 23  1  0
  7 24  1  0
  9 25  1  0
  9 26  1  0
 10 27  1  1
 11 28  1  0
 11 29  1  0
M  END
$$$$

     RDKit          3D

 29 29  0  0  0  0  0  0  0  0999 V2000
   -3.8963    1.2727    0.1126 C   0  0  0  0  0  0  0  0  0  0  0  0
   -2.6225    0.8156    0.4408 O   0  0  0  0  0  0  0  0  0  0  0  0
   -2.2838   -0.1617   -0.4957 C   0  0  0  0  0  0  0  0  0  0  0  0
   -0.8864   -0.7047   -0.1853 C   0  0  1  0  0  0  0  0  0  0  0  0
   -0.9311   -1.3104    1.1826 C   0  0  0  0  0  0  0  0  0  0  0  0
   -0.5942   -1.6715   -1.1412 O   0  0  0  0  0  0  0  0  0  0  0  0
    0.0608    0.4619   -0.2843 C   0  0  0  0  0  0  0  0  0  0  0  0
    1.3894   -0.0347   -0.0726 N   0  0  0  0  0  0  0  0  0  0  0  0
    2.5058   -0.5719   -0.8490 C   0  0  0  0  0  0  0  0  0  0  0  0
    3.3805    0.0569    0.2172 C   0  0  1  0  0  0  0  0  0  0  0  0
    3.6412    1.4621   -0.0089 N   0  0  0  0  0  0  0  0  0  0  0  0
    2.1982   -0.2077    1.0841 C   0  0  0  0  0  0  0  0  0  0  0  0
    1.9314   -0.4697    2.2799 O   0  0  0  0  0  0  0  0  0  0  0  0
   -4.2379    2.0604    0.8201 H   0  0  0  0  0  0  0  0  0  0  0  0
   -4.5810    0.4056    0.2258 H   0  0  0  0  0  0  0  0  0  0  0  0
   -3.9484    1.6904   -0.9142 H   0  0  0  0  0  0  0  0  0  0  0  0
   -2.3096    0.2429   -1.5185 H   0  0  0  0  0  0  0  0  0  0  0  0
   -3.0488   -0.9648   -0.4527 H   0  0  0  0  0  0  0  0  0  0  0  0
   -1.9412   -1.7842    1.3049 H   0  0  0  0  0  0  0  0  0  0  0  0
   -0.1843   -2.1287    1.3197 H   0  0  0  0  0  0  0  0  0  0  0  0
   -0.8016   -0.5099    1.9535 H   0  0  0  0  0  0  0  0  0  0  0  0
   -0.3599   -1.2573   -2.0131 H   0  0  0  0  0  0  0  0  0  0  0  0
   -0.0016    0.8417   -1.3332 H   0  0  0  0  0  0  0  0  0  0  0  0
   -0.2286    1.2472    0.4166 H   0  0  0  0  0  0  0  0  0  0  0  0
    2.5667   -1.6819   -0.8396 H   0  0  0  0  0  0  0  0  0  0  0  0
    2.6125   -0.1285   -1.8624 H   0  0  0  0  0  0  0  0  0  0  0  0
    4.2962   -0.4749    0.4712 H   0  0  0  0  0  0  0  0  0  0  0  0
    3.7765    1.9785    0.8731 H   0  0  0  0  0  0  0  0  0  0  0  0
    4.4979    1.5265   -0.5978 H   0  0  0  0  0  0  0  0  0  0  0  0
  1  2  1  0
  2  3  1  0
  3  4  1  0
  4  5  1  0
  4  6  1  6
  4  7  1  0
  7  8  1  0
  8  9  1  0
  9 10  1  0
 10 11  1  0
 10 12  1  0
 12 13  2  0
 12  8  1  0
  1 14  1  0
  1 15  1  0
  1 16  1  0
  3 17  1  0
  3 18  1  0
  5 19  1  0
  5 20  1  0
  5 21  1  0
  6 22  1  0
  7 23  1  0
  7 24  1  0
  9 25  1  0
  9 26  1  0
 10 27  1  1
 11 28  1  0
 11 29  1  0
M  END
$$$$

     RDKit          3D

 29 29  0  0  0  0  0  0  0  0999 V2000
    3.9706    1.2710   -0.8399 C   0  0  0  0  0  0  0  0  0  0  0  0
    2.6559    1.0516   -0.4737 O   0  0  0  0  0  0  0  0  0  0  0  0
    2.4053   -0.2369   -0.0647 C   0  0  0  0  0  0  0  0  0  0  0  0
    0.9207   -0.3075    0.3007 C   0  0  1  0  0  0  0  0  0  0  0  0
    0.6675   -1.7349    0.7440 C   0  0  0  0  0  0  0  0  0  0  0  0
    0.7042    0.5958    1.3094 O   0  0  0  0  0  0  0  0  0  0  0  0
    0.1519   -0.0137   -0.9583 C   0  0  0  0  0  0  0  0  0  0  0  0
   -1.2732   -0.0057   -0.7633 N   0  0  0  0  0  0  0  0  0  0  0  0
   -2.1957    1.0524   -0.4094 C   0  0  0  0  0  0  0  0  0  0  0  0
   -3.1197   -0.0166    0.1279 C   0  0  1  0  0  0  0  0  0  0  0  0
   -4.4779    0.2910   -0.1966 N   0  0  0  0  0  0  0  0  0  0  0  0
   -2.3905   -0.8853   -0.8025 C   0  0  0  0  0  0  0  0  0  0  0  0
   -2.6181   -1.9665   -1.4082 O   0  0  0  0  0  0  0  0  0  0  0  0
    4.2666    0.6199   -1.6724 H   0  0  0  0  0  0  0  0  0  0  0  0
    4.6013    1.1465    0.0699 H   0  0  0  0  0  0  0  0  0  0  0  0
    4.0495    2.3174   -1.2086 H   0  0  0  0  0  0  0  0  0  0  0  0
    3.0311   -0.5711    0.7794 H   0  0  0  0  0  0  0  0  0  0  0  0
    2.5226   -0.9045   -0.9472 H   0  0  0  0  0  0  0  0  0  0  0  0
    1.3092   -2.3973    0.1215 H   0  0  0  0  0  0  0  0  0  0  0  0
    0.8679   -1.8619    1.8252 H   0  0  0  0  0  0  0  0  0  0  0  0
   -0.3859   -1.9743    0.5175 H   0  0  0  0  0  0  0  0  0  0  0  0
    0.4483    0.1576    2.1708 H   0  0  0  0  0  0  0  0  0  0  0  0
    0.4845    0.9388   -1.4079 H   0  0  0  0  0  0  0  0  0  0  0  0
    0.4100   -0.8121   -1.6901 H   0  0  0  0  0  0  0  0  0  0  0  0
   -2.5651    1.5391   -1.3328 H   0  0  0  0  0  0  0  0  0  0  0  0
   -1.7736    1.7405    0.3484 H   0  0  0  0  0  0  0  0  0  0  0  0
   -2.9080   -0.1945    1.2022 H   0  0  0  0  0  0  0  0  0  0  0  0
   -5.1747   -0.1597    0.4345 H   0  0  0  0  0  0  0  0  0  0  0  0
   -4.5845    1.3208   -0.2583 H   0  0  0  0  0  0  0  0  0  0  0  0
  1  2  1  0
  2  3  1  0
  3  4  1  0
  4  5  1  0
  4  6  1  1
  4  7  1  0
  7  8  1  0
  8  9  1  0
  9 10  1  0
 10 11  1  0
 10 12  1  0
 12 13  2  0
 12  8  1  0
  1 14  1  0
  1 15  1  0
  1 16  1  0
  3 17  1  0
  3 18  1  0
  5 19  1  0
  5 20  1  0
  5 21  1  0
  6 22  1  0
  7 23  1  0
  7 24  1  0
  9 25  1  0
  9 26  1  0
 10 27  1  1
 11 28  1  0
 11 29  1  0
M  END
$$$$
