
     RDKit          3D

 29 29  0  0  0  0  0  0  0  0999 V2000
    5.4563   -0.5753    0.1980 N   0  0  0  0  0  0  0  0  0  0  0  0
    4.2347   -0.1406   -0.0160 C   0  0  0  0  0  0  0  0  0  0  0  0
    4.0479    1.1480   -0.3534 N   0  0  0  0  0  0  0  0  0  0  0  0
    2.8044    1.5944   -0.5725 C   0  0  0  0  0  0  0  0  0  0  0  0
    1.7288    0.7261   -0.4493 C   0  0  0  0  0  0  0  0  0  0  0  0
    1.8998   -0.6022   -0.1033 C   0  0  0  0  0  0  0  0  0  0  0  0
    0.9991   -1.4372    0.0270 N   0  0  0  0  0  0  0  0  0  0  0  0
   -0.3258   -1.7183   -0.0176 C   0  0  0  0  0  0  0  0  0  0  0  0
   -1.2180   -0.5507   -0.3535 C   0  0  0  0  0  0  0  0  0  0  0  0
   -2.6021   -0.9988   -0.3614 N   0  0  0  0  0  0  0  0  0  0  0  0
   -3.5442    0.0130   -0.6668 C   0  0  0  0  0  0  0  0  0  0  0  0
   -3.6802    1.0801    0.3875 C   0  0  0  0  0  0  0  0  0  0  0  0
   -4.6355    2.0206   -0.0243 O   0  0  0  0  0  0  0  0  0  0  0  0
    3.2115   -0.9797    0.1046 N   0  0  0  0  0  0  0  0  0  0  0  0
    5.6054   -1.5621    0.4570 H   0  0  0  0  0  0  0  0  0  0  0  0
    4.8787    1.7699   -0.4364 H   0  0  0  0  0  0  0  0  0  0  0  0
    2.6284    2.6368   -0.8476 H   0  0  0  0  0  0  0  0  0  0  0  0
    0.7620    1.1356   -0.6348 H   0  0  0  0  0  0  0  0  0  0  0  0
   -0.6033   -2.5390   -0.7523 H   0  0  0  0  0  0  0  0  0  0  0  0
   -0.6522   -2.1561    0.9930 H   0  0  0  0  0  0  0  0  0  0  0  0
   -1.0343   -0.1556   -1.3689 H   0  0  0  0  0  0  0  0  0  0  0  0
   -1.1585    0.2587    0.3639 H   0  0  0  0  0  0  0  0  0  0  0  0
   -2.7178   -1.8881   -0.8524 H   0  0  0  0  0  0  0  0  0  0  0  0
   -4.5360   -0.4666   -0.7933 H   0  0  0  0  0  0  0  0  0  0  0  0
   -3.2664    0.5074   -1.6334 H   0  0  0  0  0  0  0  0  0  0  0  0
   -4.0697    0.6299    1.3186 H   0  0  0  0  0  0  0  0  0  0  0  0
   -2.7402    1.6519    0.5364 H   0  0  0  0  0  0  0  0  0  0  0  0
   -4.8123    2.5819    0.7915 H   0  0  0  0  0  0  0  0  0  0  0  0
    3.3393   -1.9837    0.3659 H   0  0  0  0  0  0  0  0  0  0  0  0
  1  2  2  3
  2  3  1  0
  3  4  1  0
  4  5  2  0
  5  6  1  0
  6  7  2  3
  7  8  1  0
  8  9  1  0
  9 10  1  0
 10 11  1  0
 11 12  1  0
 12 13  1  0
  6 14  1  0
 14  2  1  0
  1 15  1  0
  3 16  1  0
  4 17  1  0
  5 18  1  0
  8 19  1  0
  8 20  1  0
  9 21  1  0
  9 22  1  0
 10 23  1  0
 11 24  1  0
 11 25  1  0
 12 26  1  0
 12 27  1  0
 13 28  1  0
 14 29  1  0
M  END
$$$$

     RDKit          3D

 29 29  0  0  0  0  0  0  0  0999 V2000
   -4.2460   -2.5357    0.9793 N   0  0  0  0  0  0  0  0  0  0  0  0
   -3.8123   -1.4091    0.5367 C   0  0  0  0  0  0  0  0  0  0  0  0
   -4.6217   -0.4052    0.1638 N   0  0  0  0  0  0  0  0  0  0  0  0
   -4.1865    0.7728   -0.2987 C   0  0  0  0  0  0  0  0  0  0  0  0
   -2.8295    0.9729   -0.4003 C   0  0  0  0  0  0  0  0  0  0  0  0
   -1.9609   -0.0521   -0.0203 C   0  0  0  0  0  0  0  0  0  0  0  0
   -0.7039    0.0903   -0.0979 N   0  0  0  0  0  0  0  0  0  0  0  0
   -0.0094    1.2500   -0.5580 C   0  0  0  0  0  0  0  0  0  0  0  0
    1.3894    1.2358    0.0197 C   0  0  0  0  0  0  0  0  0  0  0  0
    2.1346    0.0577   -0.3850 N   0  0  0  0  0  0  0  0  0  0  0  0
    3.4280    0.1512    0.2139 C   0  0  0  0  0  0  0  0  0  0  0  0
    4.3363   -0.9997   -0.1062 C   0  0  0  0  0  0  0  0  0  0  0  0
    5.5652   -0.8136    0.5220 O   0  0  0  0  0  0  0  0  0  0  0  0
   -2.4719   -1.2095    0.4356 N   0  0  0  0  0  0  0  0  0  0  0  0
   -3.5992   -3.2797    1.2548 H   0  0  0  0  0  0  0  0  0  0  0  0
   -5.6629   -0.6004    0.2578 H   0  0  0  0  0  0  0  0  0  0  0  0
   -4.8516    1.5710   -0.5949 H   0  0  0  0  0  0  0  0  0  0  0  0
   -2.4316    1.9178   -0.7722 H   0  0  0  0  0  0  0  0  0  0  0  0
   -0.5165    2.1402   -0.0972 H   0  0  0  0  0  0  0  0  0  0  0  0
   -0.0125    1.4077   -1.6375 H   0  0  0  0  0  0  0  0  0  0  0  0
    1.3790    1.2872    1.1265 H   0  0  0  0  0  0  0  0  0  0  0  0
    1.9861    2.1233   -0.3405 H   0  0  0  0  0  0  0  0  0  0  0  0
    2.1283   -0.0969   -1.3955 H   0  0  0  0  0  0  0  0  0  0  0  0
    3.9570    1.0942   -0.1023 H   0  0  0  0  0  0  0  0  0  0  0  0
    3.3256    0.1964    1.3170 H   0  0  0  0  0  0  0  0  0  0  0  0
    4.5231   -1.1286   -1.1799 H   0  0  0  0  0  0  0  0  0  0  0  0
    3.9058   -1.9395    0.3001 H   0  0  0  0  0  0  0  0  0  0  0  0
    5.6627    0.1571    0.6866 H   0  0  0  0  0  0  0  0  0  0  0  0
   -1.8044   -1.9555    0.7115 H   0  0  0  0  0  0  0  0  0  0  0  0
  1  2  2  3
  2  3  1  0
  3  4  1  0
  4  5  2  0
  5  6  1  0
  6  7  2  3
  7  8  1  0
  8  9  1  0
  9 10  1  0
 10 11  1  0
 11 12  1  0
 12 13  1  0
  6 14  1  0
 14  2  1  0
  1 15  1  0
  3 16  1  0
  4 17  1  0
  5 18  1  0
  8 19  1  0
  8 20  1  0
  9 21  1  0
  9 22  1  0
 10 23  1  0
 11 24  1  0
 11 25  1  0
 12 26  1  0
 12 27  1  0
 13 28  1  0
 14 29  1  0
M  END
$$$$

     RDKit          3D

 29 29  0  0  0  0  0  0  0  0999 V2000
    4.7474    2.4101   -0.1583 N   0  0  0  0  0  0  0  0  0  0  0  0
    4.0663    1.3092   -0.1261 C   0  0  0  0  0  0  0  0  0  0  0  0
    4.7607    0.1674   -0.2752 N   0  0  0  0  0  0  0  0  0  0  0  0
    4.1418   -1.0387   -0.2554 C   0  0  0  0  0  0  0  0  0  0  0  0
    2.7622   -1.0526   -0.0746 C   0  0  0  0  0  0  0  0  0  0  0  0
    2.0438    0.1017    0.0786 C   0  0  0  0  0  0  0  0  0  0  0  0
    0.7994    0.1547    0.2674 N   0  0  0  0  0  0  0  0  0  0  0  0
   -0.1993   -0.8376    0.3821 C   0  0  0  0  0  0  0  0  0  0  0  0
   -1.5513   -0.1331    0.4244 C   0  0  0  0  0  0  0  0  0  0  0  0
   -2.6108   -1.0229    0.5741 N   0  0  0  0  0  0  0  0  0  0  0  0
   -3.9180   -0.5706    0.7176 C   0  0  0  0  0  0  0  0  0  0  0  0
   -4.4519    0.0301   -0.5541 C   0  0  0  0  0  0  0  0  0  0  0  0
   -3.7459    1.1110   -1.0259 O   0  0  0  0  0  0  0  0  0  0  0  0
    2.7499    1.2655    0.0439 N   0  0  0  0  0  0  0  0  0  0  0  0
    4.2310    3.3265   -0.0441 H   0  0  0  0  0  0  0  0  0  0  0  0
    5.7951    0.1967   -0.4072 H   0  0  0  0  0  0  0  0  0  0  0  0
    4.6931   -1.9584   -0.3726 H   0  0  0  0  0  0  0  0  0  0  0  0
    2.2866   -2.0186   -0.0622 H   0  0  0  0  0  0  0  0  0  0  0  0
   -0.0976   -1.3146    1.3924 H   0  0  0  0  0  0  0  0  0  0  0  0
   -0.1768   -1.6373   -0.3810 H   0  0  0  0  0  0  0  0  0  0  0  0
   -1.4980    0.6261    1.2277 H   0  0  0  0  0  0  0  0  0  0  0  0
   -1.6357    0.4720   -0.5365 H   0  0  0  0  0  0  0  0  0  0  0  0
   -2.4370   -2.0233    0.4859 H   0  0  0  0  0  0  0  0  0  0  0  0
   -4.6458   -1.3160    1.1518 H   0  0  0  0  0  0  0  0  0  0  0  0
   -3.9106    0.2440    1.5236 H   0  0  0  0  0  0  0  0  0  0  0  0
   -4.4961   -0.7175   -1.3755 H   0  0  0  0  0  0  0  0  0  0  0  0
   -5.5220    0.3043   -0.3622 H   0  0  0  0  0  0  0  0  0  0  0  0
   -4.4043    1.7790   -1.3369 H   0  0  0  0  0  0  0  0  0  0  0  0
    2.2237    2.1428    0.1576 H   0  0  0  0  0  0  0  0  0  0  0  0
  1  2  2  3
  2  3  1  0
  3  4  1  0
  4  5  2  0
  5  6  1  0
  6  7  2  3
  7  8  1  0
  8  9  1  0
  9 10  1  0
 10 11  1  0
 11 12  1  0
 12 13  1  0
  6 14  1  0
 14  2  1  0
  1 15  1  0
  3 16  1  0
  4 17  1  0
  5 18  1  0
  8 19  1  0
  8 20  1  0
  9 21  1  0
  9 22  1  0
 10 23  1  0
 11 24  1  0
 11 25  1  0
 12 26  1  0
 12 27  1  0
 13 28  1  0
 14 29  1  0
M  END
$$$$

     RDKit          3D

 29 29  0  0  0  0  0  0  0  0999 V2000
   -5.3046   -1.2970   -0.6483 N   0  0  0  0  0  0  0  0  0  0  0  0
   -4.3078   -0.5959   -0.2324 C   0  0  0  0  0  0  0  0  0  0  0  0
   -4.5227    0.5108    0.4884 N   0  0  0  0  0  0  0  0  0  0  0  0
   -3.4777    1.2452    0.9265 C   0  0  0  0  0  0  0  0  0  0  0  0
   -2.1940    0.8216    0.6100 C   0  0  0  0  0  0  0  0  0  0  0  0
   -1.9840   -0.3124   -0.1278 C   0  0  0  0  0  0  0  0  0  0  0  0
   -0.8198   -0.7299   -0.4333 N   0  0  0  0  0  0  0  0  0  0  0  0
    0.4335   -0.1130   -0.0737 C   0  0  0  0  0  0  0  0  0  0  0  0
    1.4381   -0.5035   -1.1366 C   0  0  0  0  0  0  0  0  0  0  0  0
    2.7470    0.0517   -0.9128 N   0  0  0  0  0  0  0  0  0  0  0  0
    3.3761   -0.5325    0.2362 C   0  0  0  0  0  0  0  0  0  0  0  0
    4.7405    0.1339    0.3723 C   0  0  0  0  0  0  0  0  0  0  0  0
    4.5175    1.5058    0.5410 O   0  0  0  0  0  0  0  0  0  0  0  0
   -3.0473   -1.0194   -0.5477 N   0  0  0  0  0  0  0  0  0  0  0  0
   -6.2715   -0.9973   -0.4201 H   0  0  0  0  0  0  0  0  0  0  0  0
   -5.5083    0.7865    0.6994 H   0  0  0  0  0  0  0  0  0  0  0  0
   -3.6190    2.1445    1.5134 H   0  0  0  0  0  0  0  0  0  0  0  0
   -1.3336    1.3743    0.9376 H   0  0  0  0  0  0  0  0  0  0  0  0
    0.7882   -0.4841    0.9100 H   0  0  0  0  0  0  0  0  0  0  0  0
    0.4179    0.9738   -0.0155 H   0  0  0  0  0  0  0  0  0  0  0  0
    1.5323   -1.6132   -1.2200 H   0  0  0  0  0  0  0  0  0  0  0  0
    1.0668   -0.1912   -2.1528 H   0  0  0  0  0  0  0  0  0  0  0  0
    2.7506    1.0838   -0.7997 H   0  0  0  0  0  0  0  0  0  0  0  0
    2.7754   -0.4172    1.1320 H   0  0  0  0  0  0  0  0  0  0  0  0
    3.5344   -1.6263    0.0552 H   0  0  0  0  0  0  0  0  0  0  0  0
    5.2710   -0.0538   -0.5882 H   0  0  0  0  0  0  0  0  0  0  0  0
    5.2835   -0.2193    1.2636 H   0  0  0  0  0  0  0  0  0  0  0  0
    4.6350    1.9797   -0.3099 H   0  0  0  0  0  0  0  0  0  0  0  0
   -2.9175   -1.9054   -1.1245 H   0  0  0  0  0  0  0  0  0  0  0  0
  1  2  2  3
  2  3  1  0
  3  4  1  0
  4  5  2  0
  5  6  1  0
  6  7  2  3
  7  8  1  0
  8  9  1  0
  9 10  1  0
 10 11  1  0
 11 12  1  0
 12 13  1  0
  6 14  1  0
 14  2  1  0
  1 15  1  0
  3 16  1  0
  4 17  1  0
  5 18  1  0
  8 19  1  0
  8 20  1  0
  9 21  1  0
  9 22  1  0
 10 23  1  0
 11 24  1  0
 11 25  1  0
 12 26  1  0
 12 27  1  0
 13 28  1  0
 14 29  1  0
M  END
$$$$

     RDKit          3D

 29 29  0  0  0  0  0  0  0  0999 V2000
   -4.2068    1.6916   -0.3823 N   0  0  0  0  0  0  0  0  0  0  0  0
   -3.7317    0.5086   -0.1935 C   0  0  0  0  0  0  0  0  0  0  0  0
   -4.6269   -0.5059   -0.1560 N   0  0  0  0  0  0  0  0  0  0  0  0
   -4.1811   -1.7831    0.0442 C   0  0  0  0  0  0  0  0  0  0  0  0
   -2.8332   -2.0249    0.2049 C   0  0  0  0  0  0  0  0  0  0  0  0
   -1.9254   -0.9693    0.1635 C   0  0  0  0  0  0  0  0  0  0  0  0
   -0.6927   -1.2829    0.3286 N   0  0  0  0  0  0  0  0  0  0  0  0
    0.3359   -0.2771    0.3031 C   0  0  0  0  0  0  0  0  0  0  0  0
    1.6820   -0.8137    0.6847 C   0  0  0  0  0  0  0  0  0  0  0  0
    2.6716    0.2355    0.6334 N   0  0  0  0  0  0  0  0  0  0  0  0
    2.9521    0.7097   -0.6861 C   0  0  0  0  0  0  0  0  0  0  0  0
    4.0738    1.7585   -0.6845 C   0  0  0  0  0  0  0  0  0  0  0  0
    5.2458    1.1762   -0.1601 O   0  0  0  0  0  0  0  0  0  0  0  0
   -2.4319    0.2346   -0.0337 N   0  0  0  0  0  0  0  0  0  0  0  0
   -3.6609    2.5576   -0.4351 H   0  0  0  0  0  0  0  0  0  0  0  0
   -5.6247   -0.2969   -0.2795 H   0  0  0  0  0  0  0  0  0  0  0  0
   -4.8777   -2.6171    0.0781 H   0  0  0  0  0  0  0  0  0  0  0  0
   -2.5355   -3.0533    0.3588 H   0  0  0  0  0  0  0  0  0  0  0  0
    0.0964    0.5376    1.0401 H   0  0  0  0  0  0  0  0  0  0  0  0
    0.3756    0.1839   -0.6938 H   0  0  0  0  0  0  0  0  0  0  0  0
    1.6914   -1.1952    1.7398 H   0  0  0  0  0  0  0  0  0  0  0  0
    1.9539   -1.6586    0.0201 H   0  0  0  0  0  0  0  0  0  0  0  0
    3.5488   -0.1090    1.0746 H   0  0  0  0  0  0  0  0  0  0  0  0
    2.0628    1.1898   -1.1501 H   0  0  0  0  0  0  0  0  0  0  0  0
    3.2355   -0.1507   -1.3182 H   0  0  0  0  0  0  0  0  0  0  0  0
    4.2236    2.1366   -1.7064 H   0  0  0  0  0  0  0  0  0  0  0  0
    3.7947    2.5989   -0.0093 H   0  0  0  0  0  0  0  0  0  0  0  0
    5.1553    0.1886   -0.1215 H   0  0  0  0  0  0  0  0  0  0  0  0
   -1.7709    1.0303   -0.0653 H   0  0  0  0  0  0  0  0  0  0  0  0
  1  2  2  3
  2  3  1  0
  3  4  1  0
  4  5  2  0
  5  6  1  0
  6  7  2  3
  7  8  1  0
  8  9  1  0
  9 10  1  0
 10 11  1  0
 11 12  1  0
 12 13  1  0
  6 14  1  0
 14  2  1  0
  1 15  1  0
  3 16  1  0
  4 17  1  0
  5 18  1  0
  8 19  1  0
  8 20  1  0
  9 21  1  0
  9 22  1  0
 10 23  1  0
 11 24  1  0
 11 25  1  0
 12 26  1  0
 12 27  1  0
 13 28  1  0
 14 29  1  0
M  END
$$$$

     RDKit          3D

 29 29  0  0  0  0  0  0  0  0999 V2000
    3.3587    2.5362    0.8258 N   0  0  0  0  0  0  0  0  0  0  0  0
    3.2639    1.3579    0.2862 C   0  0  0  0  0  0  0  0  0  0  0  0
    4.2867    0.9755   -0.5102 N   0  0  0  0  0  0  0  0  0  0  0  0
    4.2098   -0.2422   -1.0760 C   0  0  0  0  0  0  0  0  0  0  0  0
    3.1326   -1.0518   -0.8471 C   0  0  0  0  0  0  0  0  0  0  0  0
    2.0578   -0.6618   -0.0187 C   0  0  0  0  0  0  0  0  0  0  0  0
    1.0966   -1.4557    0.1460 N   0  0  0  0  0  0  0  0  0  0  0  0
   -0.1029   -1.4747    0.8437 C   0  0  0  0  0  0  0  0  0  0  0  0
   -1.2322   -0.9329   -0.0392 C   0  0  0  0  0  0  0  0  0  0  0  0
   -2.4809   -1.0231    0.6727 N   0  0  0  0  0  0  0  0  0  0  0  0
   -3.6177   -0.4657    0.0002 C   0  0  0  0  0  0  0  0  0  0  0  0
   -3.6109    1.0317   -0.1088 C   0  0  0  0  0  0  0  0  0  0  0  0
   -4.7754    1.4224   -0.7788 O   0  0  0  0  0  0  0  0  0  0  0  0
    2.1889    0.5617    0.5201 N   0  0  0  0  0  0  0  0  0  0  0  0
    2.6357    2.9149    1.4435 H   0  0  0  0  0  0  0  0  0  0  0  0
    5.0779    1.6350   -0.6569 H   0  0  0  0  0  0  0  0  0  0  0  0
    5.0401   -0.5356   -1.7213 H   0  0  0  0  0  0  0  0  0  0  0  0
    3.0634   -2.0391   -1.3030 H   0  0  0  0  0  0  0  0  0  0  0  0
   -0.3910   -2.5320    1.1072 H   0  0  0  0  0  0  0  0  0  0  0  0
   -0.0684   -0.9513    1.8296 H   0  0  0  0  0  0  0  0  0  0  0  0
   -1.0290    0.0384   -0.4730 H   0  0  0  0  0  0  0  0  0  0  0  0
   -1.3145   -1.6735   -0.8880 H   0  0  0  0  0  0  0  0  0  0  0  0
   -2.6395   -2.0105    0.9772 H   0  0  0  0  0  0  0  0  0  0  0  0
   -4.5140   -0.7500    0.5892 H   0  0  0  0  0  0  0  0  0  0  0  0
   -3.7399   -0.9450   -0.9890 H   0  0  0  0  0  0  0  0  0  0  0  0
   -3.6843    1.4875    0.9183 H   0  0  0  0  0  0  0  0  0  0  0  0
   -2.7582    1.4803   -0.5983 H   0  0  0  0  0  0  0  0  0  0  0  0
   -4.8642    2.4184   -0.6851 H   0  0  0  0  0  0  0  0  0  0  0  0
    1.4107    0.8851    1.1537 H   0  0  0  0  0  0  0  0  0  0  0  0
  1  2  2  3
  2  3  1  0
  3  4  1  0
  4  5  2  0
  5  6  1  0
  6  7  2  3
  7  8  1  0
  8  9  1  0
  9 10  1  0
 10 11  1  0
 11 12  1  0
 12 13  1  0
  6 14  1  0
 14  2  1  0
  1 15  1  0
  3 16  1  0
  4 17  1  0
  5 18  1  0
  8 19  1  0
  8 20  1  0
  9 21  1  0
  9 22  1  0
 10 23  1  0
 11 24  1  0
 11 25  1  0
 12 26  1  0
 12 27  1  0
 13 28  1  0
 14 29  1  0
M  END
$$$$

     RDKit          3D

 29 29  0  0  0  0  0  0  0  0999 V2000
    4.6521   -0.3619    1.9320 N   0  0  0  0  0  0  0  0  0  0  0  0
    3.7744    0.1085    1.0832 C   0  0  0  0  0  0  0  0  0  0  0  0
    3.9416    1.3036    0.4845 N   0  0  0  0  0  0  0  0  0  0  0  0
    3.0371    1.8134   -0.3906 C   0  0  0  0  0  0  0  0  0  0  0  0
    1.9240    1.0461   -0.6442 C   0  0  0  0  0  0  0  0  0  0  0  0
    1.7730   -0.1627   -0.0277 C   0  0  0  0  0  0  0  0  0  0  0  0
    0.7518   -0.8743   -0.2564 N   0  0  0  0  0  0  0  0  0  0  0  0
   -0.2763   -0.4570   -1.1536 C   0  0  0  0  0  0  0  0  0  0  0  0
   -1.4864   -1.3946   -0.9915 C   0  0  0  0  0  0  0  0  0  0  0  0
   -2.0121   -1.3488    0.3568 N   0  0  0  0  0  0  0  0  0  0  0  0
   -2.6579   -0.0831    0.6631 C   0  0  0  0  0  0  0  0  0  0  0  0
   -3.9404    0.0817   -0.1260 C   0  0  0  0  0  0  0  0  0  0  0  0
   -4.5628    1.2934    0.1623 O   0  0  0  0  0  0  0  0  0  0  0  0
    2.6832   -0.6384    0.8309 N   0  0  0  0  0  0  0  0  0  0  0  0
    4.4790   -1.3021    2.3712 H   0  0  0  0  0  0  0  0  0  0  0  0
    4.7813    1.8432    0.7022 H   0  0  0  0  0  0  0  0  0  0  0  0
    3.1836    2.7771   -0.8641 H   0  0  0  0  0  0  0  0  0  0  0  0
    1.1789    1.4432   -1.3546 H   0  0  0  0  0  0  0  0  0  0  0  0
   -0.6569    0.5443   -0.9277 H   0  0  0  0  0  0  0  0  0  0  0  0
    0.0186   -0.5194   -2.2125 H   0  0  0  0  0  0  0  0  0  0  0  0
   -2.2015   -1.1893   -1.7822 H   0  0  0  0  0  0  0  0  0  0  0  0
   -1.0639   -2.4178   -1.1148 H   0  0  0  0  0  0  0  0  0  0  0  0
   -1.1489   -1.3485    0.9843 H   0  0  0  0  0  0  0  0  0  0  0  0
   -1.9974    0.7888    0.5690 H   0  0  0  0  0  0  0  0  0  0  0  0
   -2.9451   -0.1379    1.7364 H   0  0  0  0  0  0  0  0  0  0  0  0
   -4.6783   -0.7104    0.1338 H   0  0  0  0  0  0  0  0  0  0  0  0
   -3.6960    0.0778   -1.2043 H   0  0  0  0  0  0  0  0  0  0  0  0
   -5.3995    1.4077   -0.3593 H   0  0  0  0  0  0  0  0  0  0  0  0
    2.5449   -1.5827    1.2971 H   0  0  0  0  0  0  0  0  0  0  0  0
  1  2  2  3
  2  3  1  0
  3  4  1  0
  4  5  2  0
  5  6  1  0
  6  7  2  3
  7  8  1  0
  8  9  1  0
  9 10  1  0
 10 11  1  0
 11 12  1  0
 12 13  1  0
  6 14  1  0
 14  2  1  0
  1 15  1  0
  3 16  1  0
  4 17  1  0
  5 18  1  0
  8 19  1  0
  8 20  1  0
  9 21  1  0
  9 22  1  0
 10 23  1  0
 11 24  1  0
 11 25  1  0
 12 26  1  0
 12 27  1  0
 13 28  1  0
 14 29  1  0
M  END
$$$$

     RDKit          3D

 29 29  0  0  0  0  0  0  0  0999 V2000
   -5.1608    1.0625   -1.7194 N   0  0  0  0  0  0  0  0  0  0  0  0
   -4.2520    0.6169   -0.9342 C   0  0  0  0  0  0  0  0  0  0  0  0
   -4.5753    0.2134    0.2883 N   0  0  0  0  0  0  0  0  0  0  0  0
   -3.7257   -0.2657    1.1903 C   0  0  0  0  0  0  0  0  0  0  0  0
   -2.3867   -0.3474    0.8124 C   0  0  0  0  0  0  0  0  0  0  0  0
   -1.9966    0.0598   -0.4489 C   0  0  0  0  0  0  0  0  0  0  0  0
   -0.7570   -0.0146   -0.7990 N   0  0  0  0  0  0  0  0  0  0  0  0
    0.2133   -0.5207    0.1253 C   0  0  0  0  0  0  0  0  0  0  0  0
    1.6336   -0.2949   -0.4125 C   0  0  0  0  0  0  0  0  0  0  0  0
    2.5419   -0.8315    0.5752 N   0  0  0  0  0  0  0  0  0  0  0  0
    3.9280   -0.6685    0.1859 C   0  0  0  0  0  0  0  0  0  0  0  0
    4.3469    0.7878    0.1926 C   0  0  0  0  0  0  0  0  0  0  0  0
    4.1957    1.3314    1.4695 O   0  0  0  0  0  0  0  0  0  0  0  0
   -2.9486    0.5323   -1.2878 N   0  0  0  0  0  0  0  0  0  0  0  0
   -6.1415    1.0988   -1.3795 H   0  0  0  0  0  0  0  0  0  0  0  0
   -5.5912    0.2705    0.5898 H   0  0  0  0  0  0  0  0  0  0  0  0
   -4.0422   -0.5857    2.1875 H   0  0  0  0  0  0  0  0  0  0  0  0
   -1.6539   -0.7332    1.5110 H   0  0  0  0  0  0  0  0  0  0  0  0
    0.1879    0.0203    1.1134 H   0  0  0  0  0  0  0  0  0  0  0  0
    0.0392   -1.5879    0.3658 H   0  0  0  0  0  0  0  0  0  0  0  0
    1.7695    0.7659   -0.6231 H   0  0  0  0  0  0  0  0  0  0  0  0
    1.7110   -0.8689   -1.3610 H   0  0  0  0  0  0  0  0  0  0  0  0
    2.3680   -1.8633    0.6228 H   0  0  0  0  0  0  0  0  0  0  0  0
    4.1675   -1.0865   -0.7965 H   0  0  0  0  0  0  0  0  0  0  0  0
    4.5407   -1.1818    0.9558 H   0  0  0  0  0  0  0  0  0  0  0  0
    3.8305    1.3867   -0.5712 H   0  0  0  0  0  0  0  0  0  0  0  0
    5.4324    0.8110   -0.0482 H   0  0  0  0  0  0  0  0  0  0  0  0
    4.9961    1.0545    1.9960 H   0  0  0  0  0  0  0  0  0  0  0  0
   -2.6710    0.8387   -2.2311 H   0  0  0  0  0  0  0  0  0  0  0  0
  1  2  2  3
  2  3  1  0
  3  4  1  0
  4  5  2  0
  5  6  1  0
  6  7  2  3
  7  8  1  0
  8  9  1  0
  9 10  1  0
 10 11  1  0
 11 12  1  0
 12 13  1  0
  6 14  1  0
 14  2  1  0
  1 15  1  0
  3 16  1  0
  4 17  1  0
  5 18  1  0
  8 19  1  0
  8 20  1  0
  9 21  1  0
  9 22  1  0
 10 23  1  0
 11 24  1  0
 11 25  1  0
 12 26  1  0
 12 27  1  0
 13 28  1  0
 14 29  1  0
M  END
$$$$
