
     RDKit          3D

 28 28  0  0  0  0  0  0  0  0999 V2000
   -3.4756   -0.9232   -0.5006 C   0  0  0  0  0  0  0  0  0  0  0  0
   -2.7922   -0.2881    0.6914 C   0  0  0  0  0  0  0  0  0  0  0  0
   -1.6793    0.5999    0.1733 C   0  0  0  0  0  0  0  0  0  0  0  0
   -2.1445    1.6131   -0.6631 O   0  0  0  0  0  0  0  0  0  0  0  0
   -0.4992   -0.1705   -0.3723 C   0  0  0  0  0  0  0  0  0  0  0  0
    0.2335    0.1389    0.8024 N   0  0  0  0  0  0  0  0  0  0  0  0
    1.5847    0.5497    0.6709 C   0  0  0  0  0  0  0  0  0  0  0  0
    2.3894   -0.6567    0.1910 C   0  0  1  0  0  0  0  0  0  0  0  0
    1.9317   -1.1198   -1.0349 O   0  0  0  0  0  0  0  0  0  0  0  0
    3.8277   -0.3792    0.1779 C   0  0  0  0  0  0  0  0  0  0  0  0
    4.4553   -0.6713   -0.8939 O   0  0  0  0  0  0  0  0  0  0  0  0
    4.5428    0.1666    1.2146 O   0  0  0  0  0  0  0  0  0  0  0  0
   -0.7478    1.0602    1.2625 C   0  0  0  0  0  0  0  0  0  0  0  0
   -3.2342   -2.0224   -0.5922 H   0  0  0  0  0  0  0  0  0  0  0  0
   -3.1746   -0.4093   -1.4376 H   0  0  0  0  0  0  0  0  0  0  0  0
   -4.5718   -0.7550   -0.4108 H   0  0  0  0  0  0  0  0  0  0  0  0
   -2.4062   -1.0594    1.3590 H   0  0  0  0  0  0  0  0  0  0  0  0
   -3.4768    0.3584    1.2824 H   0  0  0  0  0  0  0  0  0  0  0  0
   -2.0191    1.3557   -1.5979 H   0  0  0  0  0  0  0  0  0  0  0  0
   -0.7036   -1.2763   -0.4287 H   0  0  0  0  0  0  0  0  0  0  0  0
   -0.1785    0.2633   -1.3347 H   0  0  0  0  0  0  0  0  0  0  0  0
    1.9751    0.8009    1.6884 H   0  0  0  0  0  0  0  0  0  0  0  0
    1.7584    1.4019    0.0084 H   0  0  0  0  0  0  0  0  0  0  0  0
    2.2405   -1.5138    0.9061 H   0  0  0  0  0  0  0  0  0  0  0  0
    2.5338   -0.8553   -1.7835 H   0  0  0  0  0  0  0  0  0  0  0  0
    5.2490    0.8888    1.0617 H   0  0  0  0  0  0  0  0  0  0  0  0
   -1.0900    0.7561    2.2937 H   0  0  0  0  0  0  0  0  0  0  0  0
   -0.5285    2.1467    1.1783 H   0  0  0  0  0  0  0  0  0  0  0  0
  1  2  1  0
  2  3  1  0
  3  4  1  0
  3  5  1  0
  5  6  1  0
  6  7  1  0
  7  8  1  0
  8  9  1  0
  8 10  1  0
 10 11  2  0
 10 12  1  0
  6 13  1  0
 13  3  1  0
  1 14  1  0
  1 15  1  0
  1 16  1  0
  2 17  1  0
  2 18  1  0
  4 19  1  0
  5 20  1  0
  5 21  1  0
  7 22  1  0
  7 23  1  0
  8 24  1  1
  9 25  1  0
 12 26  1  0
 13 27  1  0
 13 28  1  0
M  END
$$$$

     RDKit          3D

 28 28  0  0  0  0  0  0  0  0999 V2000
   -2.0548    1.6394   -0.6241 C   0  0  0  0  0  0  0  0  0  0  0  0
   -2.6345    0.2665   -0.4386 C   0  0  0  0  0  0  0  0  0  0  0  0
   -1.6550   -0.7118    0.1671 C   0  0  0  0  0  0  0  0  0  0  0  0
   -2.2224   -1.9575    0.3215 O   0  0  0  0  0  0  0  0  0  0  0  0
   -0.8994   -0.2191    1.3551 C   0  0  0  0  0  0  0  0  0  0  0  0
    0.2806   -0.1255    0.5512 N   0  0  0  0  0  0  0  0  0  0  0  0
    1.4780   -0.7130    1.0856 C   0  0  0  0  0  0  0  0  0  0  0  0
    2.5878   -0.4901    0.0622 C   0  0  1  0  0  0  0  0  0  0  0  0
    2.2664   -1.0864   -1.1459 O   0  0  0  0  0  0  0  0  0  0  0  0
    2.7580    0.9633   -0.1146 C   0  0  0  0  0  0  0  0  0  0  0  0
    2.6057    1.4708   -1.2530 O   0  0  0  0  0  0  0  0  0  0  0  0
    3.0827    1.8046    0.9333 O   0  0  0  0  0  0  0  0  0  0  0  0
   -0.3322   -0.7795   -0.5577 C   0  0  0  0  0  0  0  0  0  0  0  0
   -2.2928    2.2712    0.2752 H   0  0  0  0  0  0  0  0  0  0  0  0
   -0.9960    1.6563   -0.8895 H   0  0  0  0  0  0  0  0  0  0  0  0
   -2.6142    2.1183   -1.4667 H   0  0  0  0  0  0  0  0  0  0  0  0
   -2.9932   -0.1039   -1.4159 H   0  0  0  0  0  0  0  0  0  0  0  0
   -3.5119    0.3674    0.2318 H   0  0  0  0  0  0  0  0  0  0  0  0
   -2.6712   -2.2081   -0.5185 H   0  0  0  0  0  0  0  0  0  0  0  0
   -1.2004    0.7836    1.7480 H   0  0  0  0  0  0  0  0  0  0  0  0
   -0.8658   -0.9378    2.2002 H   0  0  0  0  0  0  0  0  0  0  0  0
    1.3915   -1.7657    1.3575 H   0  0  0  0  0  0  0  0  0  0  0  0
    1.7664   -0.1161    1.9852 H   0  0  0  0  0  0  0  0  0  0  0  0
    3.5317   -0.9192    0.4479 H   0  0  0  0  0  0  0  0  0  0  0  0
    2.4920   -2.0419   -1.1368 H   0  0  0  0  0  0  0  0  0  0  0  0
    2.9790    2.8045    0.8506 H   0  0  0  0  0  0  0  0  0  0  0  0
    0.0145   -1.8067   -0.7805 H   0  0  0  0  0  0  0  0  0  0  0  0
   -0.2904   -0.1638   -1.4808 H   0  0  0  0  0  0  0  0  0  0  0  0
  1  2  1  0
  2  3  1  0
  3  4  1  0
  3  5  1  0
  5  6  1  0
  6  7  1  0
  7  8  1  0
  8  9  1  0
  8 10  1  0
 10 11  2  0
 10 12  1  0
  6 13  1  0
 13  3  1  0
  1 14  1  0
  1 15  1  0
  1 16  1  0
  2 17  1  0
  2 18  1  0
  4 19  1  0
  5 20  1  0
  5 21  1  0
  7 22  1  0
  7 23  1  0
  8 24  1  1
  9 25  1  0
 12 26  1  0
 13 27  1  0
 13 28  1  0
M  END
$$$$

     RDKit          3D

 28 28  0  0  0  0  0  0  0  0999 V2000
   -3.6079   -0.2350    0.8102 C   0  0  0  0  0  0  0  0  0  0  0  0
   -2.4899    0.6295    0.2445 C   0  0  0  0  0  0  0  0  0  0  0  0
   -1.7098   -0.1030   -0.7987 C   0  0  0  0  0  0  0  0  0  0  0  0
   -2.4222   -0.5336   -1.9040 O   0  0  0  0  0  0  0  0  0  0  0  0
   -0.3903    0.5720   -1.1084 C   0  0  0  0  0  0  0  0  0  0  0  0
    0.1010   -0.0372    0.1072 N   0  0  0  0  0  0  0  0  0  0  0  0
    1.4571   -0.4737    0.1138 C   0  0  0  0  0  0  0  0  0  0  0  0
    2.4577    0.6802    0.0646 C   0  0  1  0  0  0  0  0  0  0  0  0
    2.2829    1.5221    1.1637 O   0  0  0  0  0  0  0  0  0  0  0  0
    3.8094    0.0780    0.1639 C   0  0  0  0  0  0  0  0  0  0  0  0
    4.2053   -0.7183   -0.7300 O   0  0  0  0  0  0  0  0  0  0  0  0
    4.6347    0.3946    1.2425 O   0  0  0  0  0  0  0  0  0  0  0  0
   -0.8009   -1.1355   -0.1753 C   0  0  0  0  0  0  0  0  0  0  0  0
   -4.1610    0.3054    1.5884 H   0  0  0  0  0  0  0  0  0  0  0  0
   -4.3161   -0.3888   -0.0404 H   0  0  0  0  0  0  0  0  0  0  0  0
   -3.1788   -1.1925    1.1330 H   0  0  0  0  0  0  0  0  0  0  0  0
   -2.8818    1.5974   -0.1165 H   0  0  0  0  0  0  0  0  0  0  0  0
   -1.8065    0.8584    1.1002 H   0  0  0  0  0  0  0  0  0  0  0  0
   -2.7387   -1.4599   -1.7685 H   0  0  0  0  0  0  0  0  0  0  0  0
   -0.4675    1.6778   -1.0808 H   0  0  0  0  0  0  0  0  0  0  0  0
    0.0047    0.1826   -2.0478 H   0  0  0  0  0  0  0  0  0  0  0  0
    1.6906   -1.2268   -0.6801 H   0  0  0  0  0  0  0  0  0  0  0  0
    1.6490   -0.9946    1.0743 H   0  0  0  0  0  0  0  0  0  0  0  0
    2.3632    1.2863   -0.8517 H   0  0  0  0  0  0  0  0  0  0  0  0
    2.5706    2.4482    0.9545 H   0  0  0  0  0  0  0  0  0  0  0  0
    5.3150   -0.2888    1.5423 H   0  0  0  0  0  0  0  0  0  0  0  0
   -1.2111   -1.6477    0.7183 H   0  0  0  0  0  0  0  0  0  0  0  0
   -0.3587   -1.7973   -0.9390 H   0  0  0  0  0  0  0  0  0  0  0  0
  1  2  1  0
  2  3  1  0
  3  4  1  0
  3  5  1  0
  5  6  1  0
  6  7  1  0
  7  8  1  0
  8  9  1  0
  8 10  1  0
 10 11  2  0
 10 12  1  0
  6 13  1  0
 13  3  1  0
  1 14  1  0
  1 15  1  0
  1 16  1  0
  2 17  1  0
  2 18  1  0
  4 19  1  0
  5 20  1  0
  5 21  1  0
  7 22  1  0
  7 23  1  0
  8 24  1  6
  9 25  1  0
 12 26  1  0
 13 27  1  0
 13 28  1  0
M  END
$$$$

     RDKit          3D

 28 28  0  0  0  0  0  0  0  0999 V2000
   -3.6332    0.5670   -0.3295 C   0  0  0  0  0  0  0  0  0  0  0  0
   -2.7290   -0.4023    0.4406 C   0  0  0  0  0  0  0  0  0  0  0  0
   -1.3547    0.2040    0.3786 C   0  0  0  0  0  0  0  0  0  0  0  0
   -1.2373    1.4510    0.9353 O   0  0  0  0  0  0  0  0  0  0  0  0
   -0.1944   -0.7054    0.7205 C   0  0  0  0  0  0  0  0  0  0  0  0
    0.5234   -0.0282   -0.3369 N   0  0  0  0  0  0  0  0  0  0  0  0
    1.6140   -0.6853   -0.9418 C   0  0  0  0  0  0  0  0  0  0  0  0
    2.7396   -0.7387    0.1031 C   0  0  1  0  0  0  0  0  0  0  0  0
    3.8526   -1.3791   -0.4004 O   0  0  0  0  0  0  0  0  0  0  0  0
    3.0973    0.6851    0.3972 C   0  0  0  0  0  0  0  0  0  0  0  0
    4.2649    1.0987    0.1313 O   0  0  0  0  0  0  0  0  0  0  0  0
    2.2154    1.5849    0.9488 O   0  0  0  0  0  0  0  0  0  0  0  0
   -0.7209    0.1194   -1.0226 C   0  0  0  0  0  0  0  0  0  0  0  0
   -4.6233    0.1296   -0.4365 H   0  0  0  0  0  0  0  0  0  0  0  0
   -3.1554    0.8157   -1.2959 H   0  0  0  0  0  0  0  0  0  0  0  0
   -3.7135    1.5272    0.2229 H   0  0  0  0  0  0  0  0  0  0  0  0
   -3.0686   -0.3694    1.4808 H   0  0  0  0  0  0  0  0  0  0  0  0
   -2.7508   -1.3780   -0.0429 H   0  0  0  0  0  0  0  0  0  0  0  0
   -1.1440    1.3148    1.9207 H   0  0  0  0  0  0  0  0  0  0  0  0
    0.2275   -0.6074    1.7385 H   0  0  0  0  0  0  0  0  0  0  0  0
   -0.4569   -1.7636    0.4444 H   0  0  0  0  0  0  0  0  0  0  0  0
    1.4220   -1.7456   -1.2574 H   0  0  0  0  0  0  0  0  0  0  0  0
    1.9820   -0.0623   -1.8023 H   0  0  0  0  0  0  0  0  0  0  0  0
    2.3539   -1.2070    1.0018 H   0  0  0  0  0  0  0  0  0  0  0  0
    3.8652   -1.1864   -1.3845 H   0  0  0  0  0  0  0  0  0  0  0  0
    2.5729    2.3897    1.4869 H   0  0  0  0  0  0  0  0  0  0  0  0
   -1.1267   -0.7310   -1.5739 H   0  0  0  0  0  0  0  0  0  0  0  0
   -0.8221    1.1027   -1.5270 H   0  0  0  0  0  0  0  0  0  0  0  0
  1  2  1  0
  2  3  1  0
  3  4  1  0
  3  5  1  0
  5  6  1  0
  6  7  1  0
  7  8  1  0
  8  9  1  0
  8 10  1  0
 10 11  2  0
 10 12  1  0
  6 13  1  0
 13  3  1  0
  1 14  1  0
  1 15  1  0
  1 16  1  0
  2 17  1  0
  2 18  1  0
  4 19  1  0
  5 20  1  0
  5 21  1  0
  7 22  1  0
  7 23  1  0
  8 24  1  1
  9 25  1  0
 12 26  1  0
 13 27  1  0
 13 28  1  0
M  END
$$$$

     RDKit          3D

 28 28  0  0  0  0  0  0  0  0999 V2000
    3.0259    0.7827   -0.6335 C   0  0  0  0  0  0  0  0  0  0  0  0
    2.6547    0.6473    0.8026 C   0  0  0  0  0  0  0  0  0  0  0  0
    1.2755    0.1068    1.0366 C   0  0  0  0  0  0  0  0  0  0  0  0
    0.9843    0.0054    2.3906 O   0  0  0  0  0  0  0  0  0  0  0  0
    1.0206   -1.1801    0.3345 C   0  0  0  0  0  0  0  0  0  0  0  0
   -0.1695   -0.5956   -0.2808 N   0  0  0  0  0  0  0  0  0  0  0  0
   -1.3852   -1.1971    0.1510 C   0  0  0  0  0  0  0  0  0  0  0  0
   -2.5690   -0.7692   -0.6562 C   0  0  1  0  0  0  0  0  0  0  0  0
   -3.7322   -1.4470   -0.1492 O   0  0  0  0  0  0  0  0  0  0  0  0
   -2.8639    0.6548   -0.6898 C   0  0  0  0  0  0  0  0  0  0  0  0
   -3.9360    1.0688   -0.1257 O   0  0  0  0  0  0  0  0  0  0  0  0
   -2.0705    1.5999   -1.2922 O   0  0  0  0  0  0  0  0  0  0  0  0
    0.1596    0.6943    0.2618 C   0  0  0  0  0  0  0  0  0  0  0  0
    3.2475    1.8478   -0.8988 H   0  0  0  0  0  0  0  0  0  0  0  0
    3.9594    0.2218   -0.8202 H   0  0  0  0  0  0  0  0  0  0  0  0
    2.2722    0.3816   -1.3416 H   0  0  0  0  0  0  0  0  0  0  0  0
    3.3683   -0.0232    1.3225 H   0  0  0  0  0  0  0  0  0  0  0  0
    2.7401    1.6424    1.2842 H   0  0  0  0  0  0  0  0  0  0  0  0
    0.6435    0.8475    2.7700 H   0  0  0  0  0  0  0  0  0  0  0  0
    1.7773   -1.4398   -0.4417 H   0  0  0  0  0  0  0  0  0  0  0  0
    0.7954   -2.0282    1.0172 H   0  0  0  0  0  0  0  0  0  0  0  0
   -1.5841   -1.0403    1.2448 H   0  0  0  0  0  0  0  0  0  0  0  0
   -1.3083   -2.3223    0.0620 H   0  0  0  0  0  0  0  0  0  0  0  0
   -2.5123   -1.1367   -1.7076 H   0  0  0  0  0  0  0  0  0  0  0  0
   -3.5780   -2.4218   -0.1618 H   0  0  0  0  0  0  0  0  0  0  0  0
   -2.0655    2.5513   -0.9633 H   0  0  0  0  0  0  0  0  0  0  0  0
   -0.5961    1.1539    0.9219 H   0  0  0  0  0  0  0  0  0  0  0  0
    0.4464    1.3951   -0.5495 H   0  0  0  0  0  0  0  0  0  0  0  0
  1  2  1  0
  2  3  1  0
  3  4  1  0
  3  5  1  0
  5  6  1  0
  6  7  1  0
  7  8  1  0
  8  9  1  0
  8 10  1  0
 10 11  2  0
 10 12  1  0
  6 13  1  0
 13  3  1  0
  1 14  1  0
  1 15  1  0
  1 16  1  0
  2 17  1  0
  2 18  1  0
  4 19  1  0
  5 20  1  0
  5 21  1  0
  7 22  1  0
  7 23  1  0
  8 24  1  6
  9 25  1  0
 12 26  1  0
 13 27  1  0
 13 28  1  0
M  END
$$$$

     RDKit          3D

 28 28  0  0  0  0  0  0  0  0999 V2000
   -3.7081    0.4901    0.6682 C   0  0  0  0  0  0  0  0  0  0  0  0
   -2.8724   -0.2815   -0.3000 C   0  0  0  0  0  0  0  0  0  0  0  0
   -1.4579    0.2077   -0.4045 C   0  0  0  0  0  0  0  0  0  0  0  0
   -1.3317    1.5171   -0.8139 O   0  0  0  0  0  0  0  0  0  0  0  0
   -0.6429   -0.7819   -1.2401 C   0  0  0  0  0  0  0  0  0  0  0  0
    0.3430   -0.8466   -0.1910 N   0  0  0  0  0  0  0  0  0  0  0  0
    1.5894   -0.1616   -0.4819 C   0  0  0  0  0  0  0  0  0  0  0  0
    2.4807   -0.3489    0.7379 C   0  0  1  0  0  0  0  0  0  0  0  0
    2.6463   -1.7449    0.8765 O   0  0  0  0  0  0  0  0  0  0  0  0
    3.8273    0.2682    0.5192 C   0  0  0  0  0  0  0  0  0  0  0  0
    4.8523   -0.4297    0.4840 O   0  0  0  0  0  0  0  0  0  0  0  0
    3.8872    1.6303    0.3594 O   0  0  0  0  0  0  0  0  0  0  0  0
   -0.5383   -0.1522    0.7112 C   0  0  0  0  0  0  0  0  0  0  0  0
   -3.6009    1.5935    0.5788 H   0  0  0  0  0  0  0  0  0  0  0  0
   -3.5941    0.1861    1.7177 H   0  0  0  0  0  0  0  0  0  0  0  0
   -4.7864    0.2821    0.4102 H   0  0  0  0  0  0  0  0  0  0  0  0
   -2.9139   -1.3380   -0.0421 H   0  0  0  0  0  0  0  0  0  0  0  0
   -3.3339   -0.1591   -1.3217 H   0  0  0  0  0  0  0  0  0  0  0  0
   -1.2887    2.0759    0.0218 H   0  0  0  0  0  0  0  0  0  0  0  0
   -1.1300   -1.7693   -1.3609 H   0  0  0  0  0  0  0  0  0  0  0  0
   -0.3071   -0.3098   -2.1908 H   0  0  0  0  0  0  0  0  0  0  0  0
    2.0889   -0.6840   -1.3229 H   0  0  0  0  0  0  0  0  0  0  0  0
    1.4423    0.8934   -0.7387 H   0  0  0  0  0  0  0  0  0  0  0  0
    1.9708    0.0675    1.6158 H   0  0  0  0  0  0  0  0  0  0  0  0
    2.6017   -2.1855   -0.0144 H   0  0  0  0  0  0  0  0  0  0  0  0
    4.7906    2.1123    0.3797 H   0  0  0  0  0  0  0  0  0  0  0  0
   -0.0929    0.7236    1.2292 H   0  0  0  0  0  0  0  0  0  0  0  0
   -0.9211   -0.8546    1.4775 H   0  0  0  0  0  0  0  0  0  0  0  0
  1  2  1  0
  2  3  1  0
  3  4  1  0
  3  5  1  0
  5  6  1  0
  6  7  1  0
  7  8  1  0
  8  9  1  0
  8 10  1  0
 10 11  2  0
 10 12  1  0
  6 13  1  0
 13  3  1  0
  1 14  1  0
  1 15  1  0
  1 16  1  0
  2 17  1  0
  2 18  1  0
  4 19  1  0
  5 20  1  0
  5 21  1  0
  7 22  1  0
  7 23  1  0
  8 24  1  1
  9 25  1  0
 12 26  1  0
 13 27  1  0
 13 28  1  0
M  END
$$$$

     RDKit          3D

 28 28  0  0  0  0  0  0  0  0999 V2000
   -3.6747    0.0590    0.7069 C   0  0  0  0  0  0  0  0  0  0  0  0
   -2.5532   -0.2661   -0.2516 C   0  0  0  0  0  0  0  0  0  0  0  0
   -1.3635    0.6394   -0.0638 C   0  0  0  0  0  0  0  0  0  0  0  0
   -1.7085    1.9690   -0.2709 O   0  0  0  0  0  0  0  0  0  0  0  0
   -0.5348    0.3938    1.1508 C   0  0  0  0  0  0  0  0  0  0  0  0
    0.6012    0.1220    0.3331 N   0  0  0  0  0  0  0  0  0  0  0  0
    1.3456   -1.0597    0.6005 C   0  0  0  0  0  0  0  0  0  0  0  0
    2.5024   -1.1226   -0.4030 C   0  0  1  0  0  0  0  0  0  0  0  0
    2.0144   -1.1562   -1.6967 O   0  0  0  0  0  0  0  0  0  0  0  0
    3.3791    0.0811   -0.1960 C   0  0  0  0  0  0  0  0  0  0  0  0
    3.9105    0.2745    0.9226 O   0  0  0  0  0  0  0  0  0  0  0  0
    3.6152    0.9843   -1.2123 O   0  0  0  0  0  0  0  0  0  0  0  0
   -0.1845    0.1446   -0.8686 C   0  0  0  0  0  0  0  0  0  0  0  0
   -3.3737   -0.0602    1.7700 H   0  0  0  0  0  0  0  0  0  0  0  0
   -4.0713    1.0701    0.4860 H   0  0  0  0  0  0  0  0  0  0  0  0
   -4.4990   -0.6601    0.4805 H   0  0  0  0  0  0  0  0  0  0  0  0
   -2.3119   -1.3263   -0.1378 H   0  0  0  0  0  0  0  0  0  0  0  0
   -2.9378   -0.1139   -1.2740 H   0  0  0  0  0  0  0  0  0  0  0  0
   -0.9455    2.5798   -0.0935 H   0  0  0  0  0  0  0  0  0  0  0  0
   -0.3776    1.3446    1.7274 H   0  0  0  0  0  0  0  0  0  0  0  0
   -0.8692   -0.4149    1.8268 H   0  0  0  0  0  0  0  0  0  0  0  0
    0.7829   -1.9910    0.6287 H   0  0  0  0  0  0  0  0  0  0  0  0
    1.8347   -0.9384    1.5953 H   0  0  0  0  0  0  0  0  0  0  0  0
    3.0635   -2.0439   -0.1869 H   0  0  0  0  0  0  0  0  0  0  0  0
    2.2952   -0.3228   -2.1656 H   0  0  0  0  0  0  0  0  0  0  0  0
    4.2939    1.7254   -1.0692 H   0  0  0  0  0  0  0  0  0  0  0  0
    0.1212    0.9234   -1.5897 H   0  0  0  0  0  0  0  0  0  0  0  0
   -0.3546   -0.8349   -1.3582 H   0  0  0  0  0  0  0  0  0  0  0  0
  1  2  1  0
  2  3  1  0
  3  4  1  0
  3  5  1  0
  5  6  1  0
  6  7  1  0
  7  8  1  0
  8  9  1  0
  8 10  1  0
 10 11  2  0
 10 12  1  0
  6 13  1  0
 13  3  1  0
  1 14  1  0
  1 15  1  0
  1 16  1  0
  2 17  1  0
  2 18  1  0
  4 19  1  0
  5 20  1  0
  5 21  1  0
  7 22  1  0
  7 23  1  0
  8 24  1  1
  9 25  1  0
 12 26  1  0
 13 27  1  0
 13 28  1  0
M  END
$$$$

     RDKit          3D

 28 28  0  0  0  0  0  0  0  0999 V2000
   -3.7450   -0.1824    0.3867 C   0  0  0  0  0  0  0  0  0  0  0  0
   -2.5309   -0.6885   -0.3158 C   0  0  0  0  0  0  0  0  0  0  0  0
   -1.5930    0.3669   -0.8069 C   0  0  0  0  0  0  0  0  0  0  0  0
   -2.0892    1.2769   -1.7118 O   0  0  0  0  0  0  0  0  0  0  0  0
   -0.6063    0.9260    0.2049 C   0  0  0  0  0  0  0  0  0  0  0  0
    0.1532   -0.2707    0.0495 N   0  0  0  0  0  0  0  0  0  0  0  0
    1.5718   -0.2061    0.0042 C   0  0  0  0  0  0  0  0  0  0  0  0
    2.2692    0.1848    1.2647 C   0  0  1  0  0  0  0  0  0  0  0  0
    2.0303   -0.6681    2.3225 O   0  0  0  0  0  0  0  0  0  0  0  0
    3.7434    0.0991    0.9635 C   0  0  0  0  0  0  0  0  0  0  0  0
    4.5156   -0.6474    1.6095 O   0  0  0  0  0  0  0  0  0  0  0  0
    4.3063    0.8606   -0.0617 O   0  0  0  0  0  0  0  0  0  0  0  0
   -0.3429   -0.2958   -1.3443 C   0  0  0  0  0  0  0  0  0  0  0  0
   -4.3972   -1.0842    0.5744 H   0  0  0  0  0  0  0  0  0  0  0  0
   -3.4513    0.2887    1.3351 H   0  0  0  0  0  0  0  0  0  0  0  0
   -4.3217    0.4757   -0.2875 H   0  0  0  0  0  0  0  0  0  0  0  0
   -1.9622   -1.3464    0.3773 H   0  0  0  0  0  0  0  0  0  0  0  0
   -2.7945   -1.3319   -1.1829 H   0  0  0  0  0  0  0  0  0  0  0  0
   -2.0726    0.8375   -2.6033 H   0  0  0  0  0  0  0  0  0  0  0  0
   -0.1642    1.8681   -0.1516 H   0  0  0  0  0  0  0  0  0  0  0  0
   -1.1081    0.9986    1.2086 H   0  0  0  0  0  0  0  0  0  0  0  0
    1.9298   -1.2518   -0.2520 H   0  0  0  0  0  0  0  0  0  0  0  0
    1.9561    0.4584   -0.8030 H   0  0  0  0  0  0  0  0  0  0  0  0
    2.0577    1.2260    1.5725 H   0  0  0  0  0  0  0  0  0  0  0  0
    1.7617   -1.5462    1.9572 H   0  0  0  0  0  0  0  0  0  0  0  0
    5.0620    0.4895   -0.6515 H   0  0  0  0  0  0  0  0  0  0  0  0
    0.2494    0.3837   -1.9765 H   0  0  0  0  0  0  0  0  0  0  0  0
   -0.4272   -1.3193   -1.6815 H   0  0  0  0  0  0  0  0  0  0  0  0
  1  2  1  0
  2  3  1  0
  3  4  1  0
  3  5  1  0
  5  6  1  0
  6  7  1  0
  7  8  1  0
  8  9  1  0
  8 10  1  0
 10 11  2  0
 10 12  1  0
  6 13  1  0
 13  3  1  0
  1 14  1  0
  1 15  1  0
  1 16  1  0
  2 17  1  0
  2 18  1  0
  4 19  1  0
  5 20  1  0
  5 21  1  0
  7 22  1  0
  7 23  1  0
  8 24  1  1
  9 25  1  0
 12 26  1  0
 13 27  1  0
 13 28  1  0
M  END
$$$$
