
     RDKit          3D

 30 30  0  0  0  0  0  0  0  0999 V2000
   -3.4861    0.6940    1.2201 C   0  0  0  0  0  0  0  0  0  0  0  0
   -2.7054    0.7265   -0.0589 C   0  0  0  0  0  0  0  0  0  0  0  0
   -2.0434   -0.5737   -0.3896 C   0  0  0  0  0  0  0  0  0  0  0  0
   -2.8558   -1.6607   -0.5504 O   0  0  0  0  0  0  0  0  0  0  0  0
   -0.7554   -0.8162    0.4164 C   0  0  0  0  0  0  0  0  0  0  0  0
   -0.1434    0.1315   -0.4452 N   0  0  0  0  0  0  0  0  0  0  0  0
    1.2462    0.0849   -0.6910 C   0  0  0  0  0  0  0  0  0  0  0  0
    2.1079    0.4360    0.4972 C   0  0  1  0  0  0  0  0  0  0  0  0
    1.9040   -0.4432    1.6226 N   0  0  0  0  0  0  0  0  0  0  0  0
    3.5197    0.2850    0.0835 C   0  0  0  0  0  0  0  0  0  0  0  0
    4.0820    0.9850   -1.0186 N   0  0  0  0  0  0  0  0  0  0  0  0
    4.2645   -0.4897    0.7214 O   0  0  0  0  0  0  0  0  0  0  0  0
   -1.0100   -0.3487   -1.5039 C   0  0  0  0  0  0  0  0  0  0  0  0
   -4.5649    0.8211    0.9483 H   0  0  0  0  0  0  0  0  0  0  0  0
   -3.2504    1.5756    1.8741 H   0  0  0  0  0  0  0  0  0  0  0  0
   -3.3196   -0.2181    1.8173 H   0  0  0  0  0  0  0  0  0  0  0  0
   -3.3267    1.0210   -0.9404 H   0  0  0  0  0  0  0  0  0  0  0  0
   -1.9378    1.5286    0.0433 H   0  0  0  0  0  0  0  0  0  0  0  0
   -2.3148   -2.4714   -0.6799 H   0  0  0  0  0  0  0  0  0  0  0  0
   -0.8628   -0.5803    1.4759 H   0  0  0  0  0  0  0  0  0  0  0  0
   -0.4872   -1.8834    0.2640 H   0  0  0  0  0  0  0  0  0  0  0  0
    1.5714   -0.8861   -1.0968 H   0  0  0  0  0  0  0  0  0  0  0  0
    1.4738    0.8372   -1.4895 H   0  0  0  0  0  0  0  0  0  0  0  0
    1.9868    1.5119    0.7863 H   0  0  0  0  0  0  0  0  0  0  0  0
    2.8106   -0.5291    2.1287 H   0  0  0  0  0  0  0  0  0  0  0  0
    1.5512   -1.3732    1.4130 H   0  0  0  0  0  0  0  0  0  0  0  0
    4.8100    1.7112   -0.8581 H   0  0  0  0  0  0  0  0  0  0  0  0
    3.7388    0.7439   -1.9839 H   0  0  0  0  0  0  0  0  0  0  0  0
   -1.3381    0.4571   -2.1848 H   0  0  0  0  0  0  0  0  0  0  0  0
   -0.6650   -1.2770   -1.9930 H   0  0  0  0  0  0  0  0  0  0  0  0
  1  2  1  0
  2  3  1  0
  3  4  1  0
  3  5  1  0
  5  6  1  0
  6  7  1  0
  7  8  1  0
  8  9  1  0
  8 10  1  0
 10 11  1  0
 10 12  2  0
  6 13  1  0
 13  3  1  0
  1 14  1  0
  1 15  1  0
  1 16  1  0
  2 17  1  0
  2 18  1  0
  4 19  1  0
  5 20  1  0
  5 21  1  0
  7 22  1  0
  7 23  1  0
  8 24  1  1
  9 25  1  0
  9 26  1  0
 11 27  1  0
 11 28  1  0
 13 29  1  0
 13 30  1  0
M  END
$$$$

     RDKit          3D

 30 30  0  0  0  0  0  0  0  0999 V2000
    3.4188    1.2409    0.1803 C   0  0  0  0  0  0  0  0  0  0  0  0
    3.3277   -0.2541    0.0526 C   0  0  0  0  0  0  0  0  0  0  0  0
    1.9283   -0.7768    0.0213 C   0  0  0  0  0  0  0  0  0  0  0  0
    1.8941   -2.1502   -0.0962 O   0  0  0  0  0  0  0  0  0  0  0  0
    1.1220   -0.0193   -1.0160 C   0  0  0  0  0  0  0  0  0  0  0  0
    0.1279    0.3650   -0.0324 N   0  0  0  0  0  0  0  0  0  0  0  0
   -1.1097   -0.2940   -0.3211 C   0  0  0  0  0  0  0  0  0  0  0  0
   -2.2128    0.0447    0.6537 C   0  0  1  0  0  0  0  0  0  0  0  0
   -2.4955    1.4493    0.6580 N   0  0  0  0  0  0  0  0  0  0  0  0
   -3.4274   -0.6744    0.1921 C   0  0  0  0  0  0  0  0  0  0  0  0
   -4.6442   -0.0412   -0.1737 N   0  0  0  0  0  0  0  0  0  0  0  0
   -3.3745   -1.9264    0.1206 O   0  0  0  0  0  0  0  0  0  0  0  0
    0.9514   -0.2408    0.9917 C   0  0  0  0  0  0  0  0  0  0  0  0
    2.7446    1.6634    0.9376 H   0  0  0  0  0  0  0  0  0  0  0  0
    3.3534    1.7198   -0.8021 H   0  0  0  0  0  0  0  0  0  0  0  0
    4.4626    1.4556    0.5560 H   0  0  0  0  0  0  0  0  0  0  0  0
    3.8769   -0.5344   -0.8696 H   0  0  0  0  0  0  0  0  0  0  0  0
    3.8887   -0.6999    0.9000 H   0  0  0  0  0  0  0  0  0  0  0  0
    1.0963   -2.5054    0.3491 H   0  0  0  0  0  0  0  0  0  0  0  0
    0.7766   -0.7277   -1.7935 H   0  0  0  0  0  0  0  0  0  0  0  0
    1.6051    0.8775   -1.4325 H   0  0  0  0  0  0  0  0  0  0  0  0
   -1.4536    0.0827   -1.3205 H   0  0  0  0  0  0  0  0  0  0  0  0
   -1.0222   -1.3888   -0.4333 H   0  0  0  0  0  0  0  0  0  0  0  0
   -1.9461   -0.3061    1.6717 H   0  0  0  0  0  0  0  0  0  0  0  0
   -2.1789    1.9292    1.5254 H   0  0  0  0  0  0  0  0  0  0  0  0
   -2.1779    1.9323   -0.2187 H   0  0  0  0  0  0  0  0  0  0  0  0
   -4.7268    0.5009   -1.0519 H   0  0  0  0  0  0  0  0  0  0  0  0
   -5.4741   -0.1327    0.4713 H   0  0  0  0  0  0  0  0  0  0  0  0
    0.3495   -1.0420    1.5121 H   0  0  0  0  0  0  0  0  0  0  0  0
    1.3198    0.4530    1.7713 H   0  0  0  0  0  0  0  0  0  0  0  0
  1  2  1  0
  2  3  1  0
  3  4  1  0
  3  5  1  0
  5  6  1  0
  6  7  1  0
  7  8  1  0
  8  9  1  0
  8 10  1  0
 10 11  1  0
 10 12  2  0
  6 13  1  0
 13  3  1  0
  1 14  1  0
  1 15  1  0
  1 16  1  0
  2 17  1  0
  2 18  1  0
  4 19  1  0
  5 20  1  0
  5 21  1  0
  7 22  1  0
  7 23  1  0
  8 24  1  1
  9 25  1  0
  9 26  1  0
 11 27  1  0
 11 28  1  0
 13 29  1  0
 13 30  1  0
M  END
$$$$

     RDKit          3D

 30 30  0  0  0  0  0  0  0  0999 V2000
    3.4499    1.4522    0.5703 C   0  0  0  0  0  0  0  0  0  0  0  0
    2.7144    0.1427    0.7374 C   0  0  0  0  0  0  0  0  0  0  0  0
    2.0701   -0.3174   -0.5345 C   0  0  0  0  0  0  0  0  0  0  0  0
    2.8561   -0.5480   -1.6207 O   0  0  0  0  0  0  0  0  0  0  0  0
    0.9827   -1.4065   -0.3221 C   0  0  0  0  0  0  0  0  0  0  0  0
    0.2199   -0.2811    0.2130 N   0  0  0  0  0  0  0  0  0  0  0  0
   -1.0647   -0.4327    0.6246 C   0  0  0  0  0  0  0  0  0  0  0  0
   -2.2219   -0.6440   -0.2733 C   0  0  1  0  0  0  0  0  0  0  0  0
   -3.4167   -0.8411    0.6112 N   0  0  0  0  0  0  0  0  0  0  0  0
   -2.5996    0.5986   -1.0474 C   0  0  0  0  0  0  0  0  0  0  0  0
   -3.8408    1.2731   -0.8287 N   0  0  0  0  0  0  0  0  0  0  0  0
   -1.8597    1.0999   -1.9093 O   0  0  0  0  0  0  0  0  0  0  0  0
    0.7502    0.4731   -0.8399 C   0  0  0  0  0  0  0  0  0  0  0  0
    4.2732    1.2931   -0.1679 H   0  0  0  0  0  0  0  0  0  0  0  0
    2.8343    2.2939    0.2553 H   0  0  0  0  0  0  0  0  0  0  0  0
    3.9003    1.7179    1.5590 H   0  0  0  0  0  0  0  0  0  0  0  0
    1.9820    0.1532    1.5439 H   0  0  0  0  0  0  0  0  0  0  0  0
    3.4985   -0.6158    1.0037 H   0  0  0  0  0  0  0  0  0  0  0  0
    2.9919   -1.5396   -1.7840 H   0  0  0  0  0  0  0  0  0  0  0  0
    0.6583   -1.7967   -1.2913 H   0  0  0  0  0  0  0  0  0  0  0  0
    1.3686   -2.1247    0.4198 H   0  0  0  0  0  0  0  0  0  0  0  0
   -1.1325   -1.2310    1.4482 H   0  0  0  0  0  0  0  0  0  0  0  0
   -1.3430    0.4985    1.2386 H   0  0  0  0  0  0  0  0  0  0  0  0
   -2.2154   -1.4777   -0.9507 H   0  0  0  0  0  0  0  0  0  0  0  0
   -3.4283   -1.8690    0.7998 H   0  0  0  0  0  0  0  0  0  0  0  0
   -4.2563   -0.6185    0.0439 H   0  0  0  0  0  0  0  0  0  0  0  0
   -4.3685    1.6069   -1.6490 H   0  0  0  0  0  0  0  0  0  0  0  0
   -4.1686    1.4078    0.1452 H   0  0  0  0  0  0  0  0  0  0  0  0
    0.8202    1.5362   -0.6560 H   0  0  0  0  0  0  0  0  0  0  0  0
    0.5454    0.1966   -1.9037 H   0  0  0  0  0  0  0  0  0  0  0  0
  1  2  1  0
  2  3  1  0
  3  4  1  0
  3  5  1  0
  5  6  1  0
  6  7  1  0
  7  8  1  0
  8  9  1  0
  8 10  1  0
 10 11  1  0
 10 12  2  0
  6 13  1  0
 13  3  1  0
  1 14  1  0
  1 15  1  0
  1 16  1  0
  2 17  1  0
  2 18  1  0
  4 19  1  0
  5 20  1  0
  5 21  1  0
  7 22  1  0
  7 23  1  0
  8 24  1  6
  9 25  1  0
  9 26  1  0
 11 27  1  0
 11 28  1  0
 13 29  1  0
 13 30  1  0
M  END
$$$$

     RDKit          3D

 30 30  0  0  0  0  0  0  0  0999 V2000
   -3.5303   -1.2162    0.6688 C   0  0  0  0  0  0  0  0  0  0  0  0
   -3.0680    0.2276    0.7690 C   0  0  0  0  0  0  0  0  0  0  0  0
   -1.7948    0.3445   -0.0165 C   0  0  0  0  0  0  0  0  0  0  0  0
   -1.8919    0.0271   -1.3667 O   0  0  0  0  0  0  0  0  0  0  0  0
   -0.9354    1.5376    0.2821 C   0  0  0  0  0  0  0  0  0  0  0  0
    0.1944    0.6582    0.4068 N   0  0  0  0  0  0  0  0  0  0  0  0
    1.0256    0.5072   -0.7556 C   0  0  0  0  0  0  0  0  0  0  0  0
    2.1442   -0.4691   -0.3649 C   0  0  1  0  0  0  0  0  0  0  0  0
    3.0496   -0.6989   -1.4660 N   0  0  0  0  0  0  0  0  0  0  0  0
    2.8637    0.1272    0.7829 C   0  0  0  0  0  0  0  0  0  0  0  0
    4.2529    0.3913    0.6948 N   0  0  0  0  0  0  0  0  0  0  0  0
    2.2439    0.3976    1.8308 O   0  0  0  0  0  0  0  0  0  0  0  0
   -0.6896   -0.4507    0.6722 C   0  0  0  0  0  0  0  0  0  0  0  0
   -2.6319   -1.8664    0.7956 H   0  0  0  0  0  0  0  0  0  0  0  0
   -4.2780   -1.4736    1.4427 H   0  0  0  0  0  0  0  0  0  0  0  0
   -3.9964   -1.4049   -0.3240 H   0  0  0  0  0  0  0  0  0  0  0  0
   -3.8574    0.8769    0.3236 H   0  0  0  0  0  0  0  0  0  0  0  0
   -2.8419    0.4688    1.8176 H   0  0  0  0  0  0  0  0  0  0  0  0
   -2.0704    0.8501   -1.8695 H   0  0  0  0  0  0  0  0  0  0  0  0
   -0.8873    2.2841   -0.5421 H   0  0  0  0  0  0  0  0  0  0  0  0
   -1.1615    2.0078    1.2617 H   0  0  0  0  0  0  0  0  0  0  0  0
    0.4913    0.0695   -1.6247 H   0  0  0  0  0  0  0  0  0  0  0  0
    1.4525    1.4785   -1.0116 H   0  0  0  0  0  0  0  0  0  0  0  0
    1.7155   -1.4454   -0.0627 H   0  0  0  0  0  0  0  0  0  0  0  0
    2.5029   -0.5585   -2.3426 H   0  0  0  0  0  0  0  0  0  0  0  0
    3.4682   -1.6462   -1.3835 H   0  0  0  0  0  0  0  0  0  0  0  0
    4.7243    1.1457    1.2722 H   0  0  0  0  0  0  0  0  0  0  0  0
    4.8167   -0.1778    0.0412 H   0  0  0  0  0  0  0  0  0  0  0  0
   -0.8819   -0.6562    1.7260 H   0  0  0  0  0  0  0  0  0  0  0  0
   -0.4290   -1.3357    0.0796 H   0  0  0  0  0  0  0  0  0  0  0  0
  1  2  1  0
  2  3  1  0
  3  4  1  0
  3  5  1  0
  5  6  1  0
  6  7  1  0
  7  8  1  0
  8  9  1  0
  8 10  1  0
 10 11  1  0
 10 12  2  0
  6 13  1  0
 13  3  1  0
  1 14  1  0
  1 15  1  0
  1 16  1  0
  2 17  1  0
  2 18  1  0
  4 19  1  0
  5 20  1  0
  5 21  1  0
  7 22  1  0
  7 23  1  0
  8 24  1  1
  9 25  1  0
  9 26  1  0
 11 27  1  0
 11 28  1  0
 13 29  1  0
 13 30  1  0
M  END
$$$$

     RDKit          3D

 30 30  0  0  0  0  0  0  0  0999 V2000
   -3.0442    1.5818   -0.0603 C   0  0  0  0  0  0  0  0  0  0  0  0
   -3.0806    0.2755    0.6221 C   0  0  0  0  0  0  0  0  0  0  0  0
   -1.9210   -0.6263    0.4037 C   0  0  0  0  0  0  0  0  0  0  0  0
   -2.0844   -1.8215    1.1038 O   0  0  0  0  0  0  0  0  0  0  0  0
   -1.3694   -0.8051   -0.9473 C   0  0  0  0  0  0  0  0  0  0  0  0
   -0.2491    0.0373   -0.6145 N   0  0  0  0  0  0  0  0  0  0  0  0
    1.0446   -0.5800   -0.7859 C   0  0  0  0  0  0  0  0  0  0  0  0
    2.1128    0.4142   -0.4019 C   0  0  1  0  0  0  0  0  0  0  0  0
    1.9140    0.7849    0.9746 N   0  0  0  0  0  0  0  0  0  0  0  0
    3.4364   -0.2603   -0.5992 C   0  0  0  0  0  0  0  0  0  0  0  0
    4.2760   -0.4363    0.5337 N   0  0  0  0  0  0  0  0  0  0  0  0
    3.7754   -0.6486   -1.7272 O   0  0  0  0  0  0  0  0  0  0  0  0
   -0.6182    0.0869    0.7812 C   0  0  0  0  0  0  0  0  0  0  0  0
   -4.0604    1.7907   -0.4984 H   0  0  0  0  0  0  0  0  0  0  0  0
   -2.8518    2.4477    0.6185 H   0  0  0  0  0  0  0  0  0  0  0  0
   -2.3351    1.6713   -0.8961 H   0  0  0  0  0  0  0  0  0  0  0  0
   -4.0178   -0.2875    0.3865 H   0  0  0  0  0  0  0  0  0  0  0  0
   -3.1480    0.4670    1.7335 H   0  0  0  0  0  0  0  0  0  0  0  0
   -1.8995   -2.6130    0.5268 H   0  0  0  0  0  0  0  0  0  0  0  0
   -1.9712   -0.4930   -1.8168 H   0  0  0  0  0  0  0  0  0  0  0  0
   -1.0083   -1.8481   -1.1243 H   0  0  0  0  0  0  0  0  0  0  0  0
    1.1904   -1.4804   -0.1672 H   0  0  0  0  0  0  0  0  0  0  0  0
    1.1582   -0.8629   -1.8559 H   0  0  0  0  0  0  0  0  0  0  0  0
    2.0275    1.2779   -1.0881 H   0  0  0  0  0  0  0  0  0  0  0  0
    1.5782    1.7601    1.0034 H   0  0  0  0  0  0  0  0  0  0  0  0
    2.7643    0.6861    1.5524 H   0  0  0  0  0  0  0  0  0  0  0  0
    4.9808    0.2585    0.8504 H   0  0  0  0  0  0  0  0  0  0  0  0
    4.1503   -1.3399    1.0644 H   0  0  0  0  0  0  0  0  0  0  0  0
   -0.7540    1.1196    1.1372 H   0  0  0  0  0  0  0  0  0  0  0  0
    0.0040   -0.5568    1.4543 H   0  0  0  0  0  0  0  0  0  0  0  0
  1  2  1  0
  2  3  1  0
  3  4  1  0
  3  5  1  0
  5  6  1  0
  6  7  1  0
  7  8  1  0
  8  9  1  0
  8 10  1  0
 10 11  1  0
 10 12  2  0
  6 13  1  0
 13  3  1  0
  1 14  1  0
  1 15  1  0
  1 16  1  0
  2 17  1  0
  2 18  1  0
  4 19  1  0
  5 20  1  0
  5 21  1  0
  7 22  1  0
  7 23  1  0
  8 24  1  6
  9 25  1  0
  9 26  1  0
 11 27  1  0
 11 28  1  0
 13 29  1  0
 13 30  1  0
M  END
$$$$

     RDKit          3D

 30 30  0  0  0  0  0  0  0  0999 V2000
    3.8825    0.1206    0.0963 C   0  0  0  0  0  0  0  0  0  0  0  0
    2.6235    0.1974    0.9311 C   0  0  0  0  0  0  0  0  0  0  0  0
    1.5091    0.6755    0.0276 C   0  0  0  0  0  0  0  0  0  0  0  0
    1.7880    1.9341   -0.5026 O   0  0  0  0  0  0  0  0  0  0  0  0
    0.1167    0.4736    0.5642 C   0  0  0  0  0  0  0  0  0  0  0  0
   -0.0984   -0.6043   -0.2975 N   0  0  0  0  0  0  0  0  0  0  0  0
   -1.1985   -0.7128   -1.1648 C   0  0  0  0  0  0  0  0  0  0  0  0
   -2.5303   -0.9320   -0.5012 C   0  0  1  0  0  0  0  0  0  0  0  0
   -2.4530   -2.1914    0.2673 N   0  0  0  0  0  0  0  0  0  0  0  0
   -2.9391    0.1254    0.4110 C   0  0  0  0  0  0  0  0  0  0  0  0
   -3.2060    1.4434   -0.0453 N   0  0  0  0  0  0  0  0  0  0  0  0
   -3.0682   -0.0976    1.6342 O   0  0  0  0  0  0  0  0  0  0  0  0
    1.1455   -0.3739   -0.9675 C   0  0  0  0  0  0  0  0  0  0  0  0
    4.6147   -0.5674    0.5989 H   0  0  0  0  0  0  0  0  0  0  0  0
    4.3441    1.0904   -0.1023 H   0  0  0  0  0  0  0  0  0  0  0  0
    3.6075   -0.4097   -0.8519 H   0  0  0  0  0  0  0  0  0  0  0  0
    2.7620    0.8477    1.8225 H   0  0  0  0  0  0  0  0  0  0  0  0
    2.4514   -0.8265    1.3303 H   0  0  0  0  0  0  0  0  0  0  0  0
    1.6471    2.5992    0.2122 H   0  0  0  0  0  0  0  0  0  0  0  0
   -0.4456    1.4197    0.4014 H   0  0  0  0  0  0  0  0  0  0  0  0
    0.2061    0.2316    1.6613 H   0  0  0  0  0  0  0  0  0  0  0  0
   -1.3055    0.1884   -1.8384 H   0  0  0  0  0  0  0  0  0  0  0  0
   -1.0264   -1.5545   -1.8709 H   0  0  0  0  0  0  0  0  0  0  0  0
   -3.3070   -1.1210   -1.2747 H   0  0  0  0  0  0  0  0  0  0  0  0
   -1.8642   -2.0442    1.1152 H   0  0  0  0  0  0  0  0  0  0  0  0
   -3.3805   -2.5835    0.4581 H   0  0  0  0  0  0  0  0  0  0  0  0
   -2.6518    2.2934    0.2446 H   0  0  0  0  0  0  0  0  0  0  0  0
   -4.0118    1.5898   -0.7218 H   0  0  0  0  0  0  0  0  0  0  0  0
    1.0057    0.0780   -1.9867 H   0  0  0  0  0  0  0  0  0  0  0  0
    1.7824   -1.2893   -0.9750 H   0  0  0  0  0  0  0  0  0  0  0  0
  1  2  1  0
  2  3  1  0
  3  4  1  0
  3  5  1  0
  5  6  1  0
  6  7  1  0
  7  8  1  0
  8  9  1  0
  8 10  1  0
 10 11  1  0
 10 12  2  0
  6 13  1  0
 13  3  1  0
  1 14  1  0
  1 15  1  0
  1 16  1  0
  2 17  1  0
  2 18  1  0
  4 19  1  0
  5 20  1  0
  5 21  1  0
  7 22  1  0
  7 23  1  0
  8 24  1  6
  9 25  1  0
  9 26  1  0
 11 27  1  0
 11 28  1  0
 13 29  1  0
 13 30  1  0
M  END
$$$$

     RDKit          3D

 30 30  0  0  0  0  0  0  0  0999 V2000
   -3.1329    1.0690   -0.7799 C   0  0  0  0  0  0  0  0  0  0  0  0
   -3.2482   -0.3014   -0.2299 C   0  0  0  0  0  0  0  0  0  0  0  0
   -1.9839   -0.8904    0.2959 C   0  0  0  0  0  0  0  0  0  0  0  0
   -2.1842   -2.1776    0.7864 O   0  0  0  0  0  0  0  0  0  0  0  0
   -0.7822   -0.8262   -0.6048 C   0  0  0  0  0  0  0  0  0  0  0  0
   -0.1772    0.2293    0.1907 N   0  0  0  0  0  0  0  0  0  0  0  0
    1.1484   -0.0011    0.6674 C   0  0  0  0  0  0  0  0  0  0  0  0
    2.1969   -0.0255   -0.4181 C   0  0  1  0  0  0  0  0  0  0  0  0
    2.2598    1.2205   -1.1475 N   0  0  0  0  0  0  0  0  0  0  0  0
    3.4996   -0.3050    0.2308 C   0  0  0  0  0  0  0  0  0  0  0  0
    4.5975    0.5807    0.1299 N   0  0  0  0  0  0  0  0  0  0  0  0
    3.6155   -1.3639    0.8873 O   0  0  0  0  0  0  0  0  0  0  0  0
   -1.1658   -0.0649    1.2294 C   0  0  0  0  0  0  0  0  0  0  0  0
   -2.2459    1.2357   -1.4173 H   0  0  0  0  0  0  0  0  0  0  0  0
   -3.2489    1.8382    0.0112 H   0  0  0  0  0  0  0  0  0  0  0  0
   -4.0167    1.2347   -1.4637 H   0  0  0  0  0  0  0  0  0  0  0  0
   -3.6781   -0.9862   -0.9859 H   0  0  0  0  0  0  0  0  0  0  0  0
   -4.0156   -0.2546    0.5889 H   0  0  0  0  0  0  0  0  0  0  0  0
   -2.4444   -2.0991    1.7363 H   0  0  0  0  0  0  0  0  0  0  0  0
   -0.9874   -0.5341   -1.6608 H   0  0  0  0  0  0  0  0  0  0  0  0
   -0.1085   -1.7003   -0.5946 H   0  0  0  0  0  0  0  0  0  0  0  0
    1.3894    0.7637    1.4174 H   0  0  0  0  0  0  0  0  0  0  0  0
    1.1673   -0.9879    1.1782 H   0  0  0  0  0  0  0  0  0  0  0  0
    1.9978   -0.8338   -1.1445 H   0  0  0  0  0  0  0  0  0  0  0  0
    1.8154    2.0170   -0.6564 H   0  0  0  0  0  0  0  0  0  0  0  0
    1.9550    1.0922   -2.1260 H   0  0  0  0  0  0  0  0  0  0  0  0
    4.7629    1.2205   -0.6996 H   0  0  0  0  0  0  0  0  0  0  0  0
    5.3341    0.6645    0.8847 H   0  0  0  0  0  0  0  0  0  0  0  0
   -0.7219   -0.6642    2.0633 H   0  0  0  0  0  0  0  0  0  0  0  0
   -1.5978    0.8504    1.6310 H   0  0  0  0  0  0  0  0  0  0  0  0
  1  2  1  0
  2  3  1  0
  3  4  1  0
  3  5  1  0
  5  6  1  0
  6  7  1  0
  7  8  1  0
  8  9  1  0
  8 10  1  0
 10 11  1  0
 10 12  2  0
  6 13  1  0
 13  3  1  0
  1 14  1  0
  1 15  1  0
  1 16  1  0
  2 17  1  0
  2 18  1  0
  4 19  1  0
  5 20  1  0
  5 21  1  0
  7 22  1  0
  7 23  1  0
  8 24  1  6
  9 25  1  0
  9 26  1  0
 11 27  1  0
 11 28  1  0
 13 29  1  0
 13 30  1  0
M  END
$$$$

     RDKit          3D

 30 30  0  0  0  0  0  0  0  0999 V2000
   -4.0398   -0.2144   -0.4342 C   0  0  0  0  0  0  0  0  0  0  0  0
   -3.0636    0.7991    0.1249 C   0  0  0  0  0  0  0  0  0  0  0  0
   -1.6836    0.1791    0.2242 C   0  0  0  0  0  0  0  0  0  0  0  0
   -1.7608   -0.9238    1.0705 O   0  0  0  0  0  0  0  0  0  0  0  0
   -1.0011   -0.0420   -1.0957 C   0  0  0  0  0  0  0  0  0  0  0  0
    0.2277    0.4570   -0.5227 N   0  0  0  0  0  0  0  0  0  0  0  0
    1.0558   -0.5878   -0.0357 C   0  0  0  0  0  0  0  0  0  0  0  0
    2.3517   -0.1397    0.5702 C   0  0  1  0  0  0  0  0  0  0  0  0
    3.1153   -1.2781    1.0324 N   0  0  0  0  0  0  0  0  0  0  0  0
    3.1857    0.6728   -0.3106 C   0  0  0  0  0  0  0  0  0  0  0  0
    4.5135    0.2626   -0.5646 N   0  0  0  0  0  0  0  0  0  0  0  0
    2.7894    1.7368   -0.8694 O   0  0  0  0  0  0  0  0  0  0  0  0
   -0.5671    1.1396    0.4727 C   0  0  0  0  0  0  0  0  0  0  0  0
   -4.3622    0.0177   -1.4550 H   0  0  0  0  0  0  0  0  0  0  0  0
   -3.5821   -1.2374   -0.4691 H   0  0  0  0  0  0  0  0  0  0  0  0
   -4.9344   -0.3262    0.2300 H   0  0  0  0  0  0  0  0  0  0  0  0
   -3.0652    1.6654   -0.5859 H   0  0  0  0  0  0  0  0  0  0  0  0
   -3.4087    1.1635    1.1067 H   0  0  0  0  0  0  0  0  0  0  0  0
   -2.2741   -0.6357    1.8604 H   0  0  0  0  0  0  0  0  0  0  0  0
   -0.9909   -1.1163   -1.3669 H   0  0  0  0  0  0  0  0  0  0  0  0
   -1.4408    0.6260   -1.8686 H   0  0  0  0  0  0  0  0  0  0  0  0
    1.3124   -1.3319   -0.8403 H   0  0  0  0  0  0  0  0  0  0  0  0
    0.5253   -1.1799    0.7374 H   0  0  0  0  0  0  0  0  0  0  0  0
    2.1525    0.4814    1.4939 H   0  0  0  0  0  0  0  0  0  0  0  0
    3.0588   -2.0790    0.3394 H   0  0  0  0  0  0  0  0  0  0  0  0
    2.8316   -1.5723    1.9934 H   0  0  0  0  0  0  0  0  0  0  0  0
    5.2955    0.7469   -0.1015 H   0  0  0  0  0  0  0  0  0  0  0  0
    4.7027   -0.5178   -1.2102 H   0  0  0  0  0  0  0  0  0  0  0  0
   -0.1056    1.0527    1.4970 H   0  0  0  0  0  0  0  0  0  0  0  0
   -0.8380    2.1816    0.2134 H   0  0  0  0  0  0  0  0  0  0  0  0
  1  2  1  0
  2  3  1  0
  3  4  1  0
  3  5  1  0
  5  6  1  0
  6  7  1  0
  7  8  1  0
  8  9  1  0
  8 10  1  0
 10 11  1  0
 10 12  2  0
  6 13  1  0
 13  3  1  0
  1 14  1  0
  1 15  1  0
  1 16  1  0
  2 17  1  0
  2 18  1  0
  4 19  1  0
  5 20  1  0
  5 21  1  0
  7 22  1  0
  7 23  1  0
  8 24  1  1
  9 25  1  0
  9 26  1  0
 11 27  1  0
 11 28  1  0
 13 29  1  0
 13 30  1  0
M  END
$$$$
