
     RDKit          3D

 18 18  0  0  0  0  0  0  0  0999 V2000
   -0.4086    1.8772    2.1923 O   0  0  0  0  0  0  0  0  0  0  0  0
   -0.4925    0.7936    1.5296 C   0  0  0  0  0  0  0  0  0  0  0  0
    0.3041   -0.3434    1.6966 O   0  0  0  0  0  0  0  0  0  0  0  0
    0.5676   -0.8759    0.3967 C   0  0  2  0  0  0  0  0  0  0  0  0
    1.9014   -0.2863   -0.0492 C   0  0  0  0  0  0  0  0  0  0  0  0
    1.8403    1.0947   -0.1005 O   0  0  0  0  0  0  0  0  0  0  0  0
   -0.5727   -0.4146   -0.4670 C   0  0  1  0  0  0  0  0  0  0  0  0
   -1.3050   -1.5146   -0.9373 O   0  0  0  0  0  0  0  0  0  0  0  0
   -1.4327    0.4525    0.4303 C   0  0  2  0  0  0  0  0  0  0  0  0
   -1.8359    1.6137   -0.2011 O   0  0  0  0  0  0  0  0  0  0  0  0
    0.6604   -1.9724    0.4260 H   0  0  0  0  0  0  0  0  0  0  0  0
    2.1547   -0.6735   -1.0731 H   0  0  0  0  0  0  0  0  0  0  0  0
    2.6507   -0.6076    0.7083 H   0  0  0  0  0  0  0  0  0  0  0  0
    2.7779    1.4223    0.0182 H   0  0  0  0  0  0  0  0  0  0  0  0
   -0.2657    0.1715   -1.3416 H   0  0  0  0  0  0  0  0  0  0  0  0
   -1.4317   -2.1919   -0.2194 H   0  0  0  0  0  0  0  0  0  0  0  0
   -2.2768   -0.1529    0.8177 H   0  0  0  0  0  0  0  0  0  0  0  0
   -2.8353    1.6076   -0.2446 H   0  0  0  0  0  0  0  0  0  0  0  0
  1  2  2  0
  2  3  1  0
  3  4  1  0
  4  5  1  0
  5  6  1  0
  4  7  1  0
  7  8  1  0
  7  9  1  0
  9 10  1  0
  9  2  1  0
  4 11  1  1
  5 12  1  0
  5 13  1  0
  6 14  1  0
  7 15  1  6
  8 16  1  0
  9 17  1  1
 10 18  1  0
M  END
$$$$

     RDKit          3D

 18 18  0  0  0  0  0  0  0  0999 V2000
    0.8664   -2.0955   -1.7856 O   0  0  0  0  0  0  0  0  0  0  0  0
    0.5829   -1.4357   -0.7745 C   0  0  0  0  0  0  0  0  0  0  0  0
   -0.6886   -1.2782   -0.2002 O   0  0  0  0  0  0  0  0  0  0  0  0
   -0.7341   -0.0550    0.5214 C   0  0  2  0  0  0  0  0  0  0  0  0
   -1.8631    0.7636   -0.0469 C   0  0  0  0  0  0  0  0  0  0  0  0
   -3.0359    0.0085    0.1311 O   0  0  0  0  0  0  0  0  0  0  0  0
    0.6109    0.6071    0.3075 C   0  0  1  0  0  0  0  0  0  0  0  0
    1.0222    1.3744    1.3630 O   0  0  0  0  0  0  0  0  0  0  0  0
    1.4904   -0.6348    0.1070 C   0  0  2  0  0  0  0  0  0  0  0  0
    2.6859   -0.3376   -0.4892 O   0  0  0  0  0  0  0  0  0  0  0  0
   -0.8638   -0.2192    1.6128 H   0  0  0  0  0  0  0  0  0  0  0  0
   -1.6883    0.8742   -1.1347 H   0  0  0  0  0  0  0  0  0  0  0  0
   -1.9424    1.7632    0.4019 H   0  0  0  0  0  0  0  0  0  0  0  0
   -2.8118   -0.9383    0.1680 H   0  0  0  0  0  0  0  0  0  0  0  0
    0.5790    1.1472   -0.6595 H   0  0  0  0  0  0  0  0  0  0  0  0
    0.7624    2.3145    1.2429 H   0  0  0  0  0  0  0  0  0  0  0  0
    1.5834   -1.1518    1.0899 H   0  0  0  0  0  0  0  0  0  0  0  0
    3.4446   -0.7066    0.0439 H   0  0  0  0  0  0  0  0  0  0  0  0
  1  2  2  0
  2  3  1  0
  3  4  1  0
  4  5  1  0
  5  6  1  0
  4  7  1  0
  7  8  1  0
  7  9  1  0
  9 10  1  0
  9  2  1  0
  4 11  1  1
  5 12  1  0
  5 13  1  0
  6 14  1  0
  7 15  1  6
  8 16  1  0
  9 17  1  1
 10 18  1  0
M  END
$$$$

     RDKit          3D

 18 18  0  0  0  0  0  0  0  0999 V2000
   -1.6922    2.6411   -0.1959 O   0  0  0  0  0  0  0  0  0  0  0  0
   -0.9920    1.6473    0.1236 C   0  0  0  0  0  0  0  0  0  0  0  0
    0.3902    1.5019    0.1313 O   0  0  0  0  0  0  0  0  0  0  0  0
    0.7599    0.2259    0.6103 C   0  0  2  0  0  0  0  0  0  0  0  0
    2.0357   -0.2737   -0.0246 C   0  0  0  0  0  0  0  0  0  0  0  0
    1.9252   -0.3850   -1.4028 O   0  0  0  0  0  0  0  0  0  0  0  0
   -0.4362   -0.6061    0.1602 C   0  0  1  0  0  0  0  0  0  0  0  0
   -0.5049   -1.8218    0.7853 O   0  0  0  0  0  0  0  0  0  0  0  0
   -1.5687    0.3360    0.5909 C   0  0  2  0  0  0  0  0  0  0  0  0
   -2.7547    0.0386   -0.0296 O   0  0  0  0  0  0  0  0  0  0  0  0
    0.7855    0.1560    1.7123 H   0  0  0  0  0  0  0  0  0  0  0  0
    2.8050    0.5319    0.1657 H   0  0  0  0  0  0  0  0  0  0  0  0
    2.4136   -1.1895    0.4695 H   0  0  0  0  0  0  0  0  0  0  0  0
    2.7596   -0.0794   -1.8404 H   0  0  0  0  0  0  0  0  0  0  0  0
   -0.3842   -0.6555   -0.9358 H   0  0  0  0  0  0  0  0  0  0  0  0
   -0.4546   -2.5247    0.0666 H   0  0  0  0  0  0  0  0  0  0  0  0
   -1.6035    0.2953    1.6958 H   0  0  0  0  0  0  0  0  0  0  0  0
   -3.4837    0.1616    0.6569 H   0  0  0  0  0  0  0  0  0  0  0  0
  1  2  2  0
  2  3  1  0
  3  4  1  0
  4  5  1  0
  5  6  1  0
  4  7  1  0
  7  8  1  0
  7  9  1  0
  9 10  1  0
  9  2  1  0
  4 11  1  1
  5 12  1  0
  5 13  1  0
  6 14  1  0
  7 15  1  6
  8 16  1  0
  9 17  1  1
 10 18  1  0
M  END
$$$$

     RDKit          3D

 18 18  0  0  0  0  0  0  0  0999 V2000
   -1.9266    0.7261   -2.4660 O   0  0  0  0  0  0  0  0  0  0  0  0
   -1.1461    0.4049   -1.5153 C   0  0  0  0  0  0  0  0  0  0  0  0
    0.2535    0.5658   -1.4801 O   0  0  0  0  0  0  0  0  0  0  0  0
    0.5775    0.6303   -0.1124 C   0  0  2  0  0  0  0  0  0  0  0  0
    2.0367    0.5157    0.1667 C   0  0  0  0  0  0  0  0  0  0  0  0
    2.5986   -0.6705   -0.2741 O   0  0  0  0  0  0  0  0  0  0  0  0
   -0.2525   -0.4636    0.4778 C   0  0  1  0  0  0  0  0  0  0  0  0
   -0.3646   -0.2889    1.8393 O   0  0  0  0  0  0  0  0  0  0  0  0
   -1.5899   -0.2167   -0.2335 C   0  0  2  0  0  0  0  0  0  0  0  0
   -2.2821   -1.3911   -0.4230 O   0  0  0  0  0  0  0  0  0  0  0  0
    0.2167    1.5899    0.2736 H   0  0  0  0  0  0  0  0  0  0  0  0
    2.2012    0.6274    1.2446 H   0  0  0  0  0  0  0  0  0  0  0  0
    2.5544    1.3414   -0.3542 H   0  0  0  0  0  0  0  0  0  0  0  0
    3.5807   -0.6040   -0.0610 H   0  0  0  0  0  0  0  0  0  0  0  0
    0.1182   -1.4814    0.2437 H   0  0  0  0  0  0  0  0  0  0  0  0
   -1.2228   -0.6611    2.1600 H   0  0  0  0  0  0  0  0  0  0  0  0
   -2.1409    0.5287    0.3918 H   0  0  0  0  0  0  0  0  0  0  0  0
   -3.2119   -1.1530   -0.6673 H   0  0  0  0  0  0  0  0  0  0  0  0
  1  2  2  0
  2  3  1  0
  3  4  1  0
  4  5  1  0
  5  6  1  0
  4  7  1  0
  7  8  1  0
  7  9  1  0
  9 10  1  0
  9  2  1  0
  4 11  1  1
  5 12  1  0
  5 13  1  0
  6 14  1  0
  7 15  1  1
  8 16  1  0
  9 17  1  1
 10 18  1  0
M  END
$$$$

     RDKit          3D

 18 18  0  0  0  0  0  0  0  0999 V2000
    1.2377   -2.5618    0.7376 O   0  0  0  0  0  0  0  0  0  0  0  0
    0.8242   -1.3780    0.8197 C   0  0  0  0  0  0  0  0  0  0  0  0
   -0.4332   -0.9541    1.2673 O   0  0  0  0  0  0  0  0  0  0  0  0
   -0.7546    0.2950    0.7165 C   0  0  2  0  0  0  0  0  0  0  0  0
   -2.0578    0.2521   -0.0486 C   0  0  0  0  0  0  0  0  0  0  0  0
   -2.0142   -0.6440   -1.0870 O   0  0  0  0  0  0  0  0  0  0  0  0
    0.4054    0.6717   -0.1945 C   0  0  1  0  0  0  0  0  0  0  0  0
    0.6413    2.0341   -0.1504 O   0  0  0  0  0  0  0  0  0  0  0  0
    1.5383   -0.1146    0.4718 C   0  0  2  0  0  0  0  0  0  0  0  0
    2.5957   -0.3091   -0.3784 O   0  0  0  0  0  0  0  0  0  0  0  0
   -0.8047    1.0684    1.5040 H   0  0  0  0  0  0  0  0  0  0  0  0
   -2.3291    1.2461   -0.4355 H   0  0  0  0  0  0  0  0  0  0  0  0
   -2.8326   -0.0920    0.6817 H   0  0  0  0  0  0  0  0  0  0  0  0
   -2.3460   -1.5386   -0.8024 H   0  0  0  0  0  0  0  0  0  0  0  0
    0.2227    0.2973   -1.2266 H   0  0  0  0  0  0  0  0  0  0  0  0
    1.1223    2.3627   -0.9372 H   0  0  0  0  0  0  0  0  0  0  0  0
    1.8391    0.4318    1.3855 H   0  0  0  0  0  0  0  0  0  0  0  0
    3.1456   -1.0670   -0.0952 H   0  0  0  0  0  0  0  0  0  0  0  0
  1  2  2  0
  2  3  1  0
  3  4  1  0
  4  5  1  0
  5  6  1  0
  4  7  1  0
  7  8  1  0
  7  9  1  0
  9 10  1  0
  9  2  1  0
  4 11  1  1
  5 12  1  0
  5 13  1  0
  6 14  1  0
  7 15  1  6
  8 16  1  0
  9 17  1  1
 10 18  1  0
M  END
$$$$

     RDKit          3D

 18 18  0  0  0  0  0  0  0  0999 V2000
    1.9106    2.4447   -0.6324 O   0  0  0  0  0  0  0  0  0  0  0  0
    1.1187    1.5108   -0.3762 C   0  0  0  0  0  0  0  0  0  0  0  0
   -0.2368    1.5677   -0.4991 O   0  0  0  0  0  0  0  0  0  0  0  0
   -0.7293    0.2607   -0.7091 C   0  0  2  0  0  0  0  0  0  0  0  0
   -2.0123    0.1451    0.0922 C   0  0  0  0  0  0  0  0  0  0  0  0
   -1.7874    0.3525    1.4388 O   0  0  0  0  0  0  0  0  0  0  0  0
    0.3190   -0.6996   -0.2756 C   0  0  1  0  0  0  0  0  0  0  0  0
    0.6600   -1.5213   -1.3627 O   0  0  0  0  0  0  0  0  0  0  0  0
    1.4874    0.1733    0.1057 C   0  0  2  0  0  0  0  0  0  0  0  0
    1.6743    0.2369    1.4817 O   0  0  0  0  0  0  0  0  0  0  0  0
   -0.9728    0.1365   -1.7838 H   0  0  0  0  0  0  0  0  0  0  0  0
   -2.4467   -0.8383   -0.1463 H   0  0  0  0  0  0  0  0  0  0  0  0
   -2.7330    0.9166   -0.2456 H   0  0  0  0  0  0  0  0  0  0  0  0
   -2.1740   -0.3786    2.0137 H   0  0  0  0  0  0  0  0  0  0  0  0
    0.0422   -1.3106    0.6120 H   0  0  0  0  0  0  0  0  0  0  0  0
    1.2674   -2.2485   -1.1016 H   0  0  0  0  0  0  0  0  0  0  0  0
    2.3935   -0.2056   -0.4238 H   0  0  0  0  0  0  0  0  0  0  0  0
    2.2191   -0.5420    1.8120 H   0  0  0  0  0  0  0  0  0  0  0  0
  1  2  2  0
  2  3  1  0
  3  4  1  0
  4  5  1  0
  5  6  1  0
  4  7  1  0
  7  8  1  0
  7  9  1  0
  9 10  1  0
  9  2  1  0
  4 11  1  6
  5 12  1  0
  5 13  1  0
  6 14  1  0
  7 15  1  1
  8 16  1  0
  9 17  1  6
 10 18  1  0
M  END
$$$$

     RDKit          3D

 18 18  0  0  0  0  0  0  0  0999 V2000
   -2.2240   -1.7798    1.5279 O   0  0  0  0  0  0  0  0  0  0  0  0
   -1.3868   -1.2194    0.7822 C   0  0  0  0  0  0  0  0  0  0  0  0
   -0.0967   -1.6552    0.5281 O   0  0  0  0  0  0  0  0  0  0  0  0
    0.5975   -0.7000   -0.2756 C   0  0  2  0  0  0  0  0  0  0  0  0
    2.0498   -0.6067    0.1390 C   0  0  0  0  0  0  0  0  0  0  0  0
    2.7204    0.3127   -0.6341 O   0  0  0  0  0  0  0  0  0  0  0  0
   -0.1519    0.5633    0.0637 C   0  0  1  0  0  0  0  0  0  0  0  0
    0.0433    1.5747   -0.8502 O   0  0  0  0  0  0  0  0  0  0  0  0
   -1.5801    0.0184    0.0127 C   0  0  2  0  0  0  0  0  0  0  0  0
   -2.4869    0.8921    0.5761 O   0  0  0  0  0  0  0  0  0  0  0  0
    0.4745   -0.9366   -1.3527 H   0  0  0  0  0  0  0  0  0  0  0  0
    2.0418   -0.2209    1.1947 H   0  0  0  0  0  0  0  0  0  0  0  0
    2.5310   -1.5963    0.0606 H   0  0  0  0  0  0  0  0  0  0  0  0
    2.1608    0.7006   -1.3432 H   0  0  0  0  0  0  0  0  0  0  0  0
    0.0430    0.8530    1.1111 H   0  0  0  0  0  0  0  0  0  0  0  0
   -0.2969    2.4133   -0.4335 H   0  0  0  0  0  0  0  0  0  0  0  0
   -1.8308   -0.2500   -1.0400 H   0  0  0  0  0  0  0  0  0  0  0  0
   -2.6079    1.6369   -0.0667 H   0  0  0  0  0  0  0  0  0  0  0  0
  1  2  2  0
  2  3  1  0
  3  4  1  0
  4  5  1  0
  5  6  1  0
  4  7  1  0
  7  8  1  0
  7  9  1  0
  9 10  1  0
  9  2  1  0
  4 11  1  6
  5 12  1  0
  5 13  1  0
  6 14  1  0
  7 15  1  1
  8 16  1  0
  9 17  1  6
 10 18  1  0
M  END
$$$$

     RDKit          3D

 18 18  0  0  0  0  0  0  0  0999 V2000
   -2.2707   -2.1237    0.0996 O   0  0  0  0  0  0  0  0  0  0  0  0
   -1.4211   -1.2308    0.1722 C   0  0  0  0  0  0  0  0  0  0  0  0
   -0.0229   -1.3866    0.2439 O   0  0  0  0  0  0  0  0  0  0  0  0
    0.6069   -0.3152   -0.4073 C   0  0  2  0  0  0  0  0  0  0  0  0
    1.5742    0.4181    0.4971 C   0  0  0  0  0  0  0  0  0  0  0  0
    2.5724   -0.4429    0.9459 O   0  0  0  0  0  0  0  0  0  0  0  0
   -0.4927    0.6844   -0.7613 C   0  0  1  0  0  0  0  0  0  0  0  0
   -0.9311    0.3988   -2.0385 O   0  0  0  0  0  0  0  0  0  0  0  0
   -1.6047    0.2631    0.2062 C   0  0  2  0  0  0  0  0  0  0  0  0
   -1.3331    0.6651    1.4953 O   0  0  0  0  0  0  0  0  0  0  0  0
    1.1658   -0.6276   -1.3084 H   0  0  0  0  0  0  0  0  0  0  0  0
    2.0580    1.2117   -0.1220 H   0  0  0  0  0  0  0  0  0  0  0  0
    1.0701    0.8660    1.3646 H   0  0  0  0  0  0  0  0  0  0  0  0
    3.4655   -0.1462    0.7062 H   0  0  0  0  0  0  0  0  0  0  0  0
   -0.1865    1.7188   -0.6183 H   0  0  0  0  0  0  0  0  0  0  0  0
   -0.5898   -0.4443   -2.3923 H   0  0  0  0  0  0  0  0  0  0  0  0
   -2.5736    0.5727   -0.1838 H   0  0  0  0  0  0  0  0  0  0  0  0
   -1.0868   -0.0815    2.1006 H   0  0  0  0  0  0  0  0  0  0  0  0
  1  2  2  0
  2  3  1  0
  3  4  1  0
  4  5  1  0
  5  6  1  0
  4  7  1  0
  7  8  1  0
  7  9  1  0
  9 10  1  0
  9  2  1  0
  4 11  1  6
  5 12  1  0
  5 13  1  0
  6 14  1  0
  7 15  1  6
  8 16  1  0
  9 17  1  6
 10 18  1  0
M  END
$$$$
