
     RDKit          3D

 28 28  0  0  0  0  0  0  0  0999 V2000
   -4.9771    0.4691   -1.1152 C   0  0  0  0  0  0  0  0  0  0  0  0
   -3.8296    0.3592   -0.2348 N   0  0  0  0  0  0  0  0  0  0  0  0
   -3.8676    0.6189    1.0821 C   0  0  0  0  0  0  0  0  0  0  0  0
   -2.5712    0.3962    1.5582 C   0  0  0  0  0  0  0  0  0  0  0  0
   -1.7954    0.0056    0.4903 C   0  0  0  0  0  0  0  0  0  0  0  0
   -0.3501   -0.3315    0.5541 C   0  0  0  0  0  0  0  0  0  0  0  0
    0.2435   -0.2649    1.6571 O   0  0  0  0  0  0  0  0  0  0  0  0
    0.3527   -0.7206   -0.5975 N   0  0  0  0  0  0  0  0  0  0  0  0
    1.7418   -1.0588   -0.6604 C   0  0  0  0  0  0  0  0  0  0  0  0
    2.7016    0.0358   -0.3047 C   0  0  1  0  0  0  0  0  0  0  0  0
    2.5728    0.5482    1.0124 N   0  0  0  0  0  0  0  0  0  0  0  0
    4.1074   -0.5206   -0.5013 C   0  0  0  0  0  0  0  0  0  0  0  0
    5.0578    0.4813   -0.3104 O   0  0  0  0  0  0  0  0  0  0  0  0
   -2.5875   -0.0068   -0.5815 N   0  0  0  0  0  0  0  0  0  0  0  0
   -5.5779    1.3535   -0.8403 H   0  0  0  0  0  0  0  0  0  0  0  0
   -5.5632   -0.4662   -0.9976 H   0  0  0  0  0  0  0  0  0  0  0  0
   -4.6162    0.5211   -2.1627 H   0  0  0  0  0  0  0  0  0  0  0  0
   -4.7052    0.9352    1.6810 H   0  0  0  0  0  0  0  0  0  0  0  0
   -2.2661    0.5180    2.5866 H   0  0  0  0  0  0  0  0  0  0  0  0
   -0.1862   -0.7719   -1.5118 H   0  0  0  0  0  0  0  0  0  0  0  0
    2.0262   -1.4521   -1.6697 H   0  0  0  0  0  0  0  0  0  0  0  0
    1.9725   -1.9106    0.0612 H   0  0  0  0  0  0  0  0  0  0  0  0
    2.5461    0.8595   -1.0525 H   0  0  0  0  0  0  0  0  0  0  0  0
    3.4228    0.3514    1.5741 H   0  0  0  0  0  0  0  0  0  0  0  0
    2.2679    1.5356    1.0701 H   0  0  0  0  0  0  0  0  0  0  0  0
    4.1702   -0.9320   -1.5164 H   0  0  0  0  0  0  0  0  0  0  0  0
    4.2531   -1.3109    0.2399 H   0  0  0  0  0  0  0  0  0  0  0  0
    5.4566    0.7584   -1.1829 H   0  0  0  0  0  0  0  0  0  0  0  0
  1  2  1  0
  2  3  1  0
  3  4  2  0
  4  5  1  0
  5  6  1  0
  6  7  2  0
  6  8  1  0
  8  9  1  0
  9 10  1  0
 10 11  1  0
 10 12  1  0
 12 13  1  0
  5 14  2  0
 14  2  1  0
  1 15  1  0
  1 16  1  0
  1 17  1  0
  3 18  1  0
  4 19  1  0
  8 20  1  0
  9 21  1  0
  9 22  1  0
 10 23  1  6
 11 24  1  0
 11 25  1  0
 12 26  1  0
 12 27  1  0
 13 28  1  0
M  END
$$$$

     RDKit          3D

 28 28  0  0  0  0  0  0  0  0999 V2000
   -4.3271    2.0105   -0.5533 C   0  0  0  0  0  0  0  0  0  0  0  0
   -3.4073    0.9968   -0.0876 N   0  0  0  0  0  0  0  0  0  0  0  0
   -3.6666    0.1262    0.9062 C   0  0  0  0  0  0  0  0  0  0  0  0
   -2.5461   -0.6715    1.0482 C   0  0  0  0  0  0  0  0  0  0  0  0
   -1.6217   -0.2541    0.1189 C   0  0  0  0  0  0  0  0  0  0  0  0
   -0.3104   -0.8492   -0.0443 C   0  0  0  0  0  0  0  0  0  0  0  0
    0.0415   -1.8015    0.6832 O   0  0  0  0  0  0  0  0  0  0  0  0
    0.6314   -0.3980   -1.0164 N   0  0  0  0  0  0  0  0  0  0  0  0
    1.9357   -0.9871   -1.1815 C   0  0  0  0  0  0  0  0  0  0  0  0
    2.7761   -0.8929    0.0684 C   0  0  1  0  0  0  0  0  0  0  0  0
    4.0540   -1.5170   -0.2277 N   0  0  0  0  0  0  0  0  0  0  0  0
    3.0552    0.5464    0.4468 C   0  0  0  0  0  0  0  0  0  0  0  0
    1.8421    1.1496    0.7309 O   0  0  0  0  0  0  0  0  0  0  0  0
   -2.1919    0.7602   -0.5452 N   0  0  0  0  0  0  0  0  0  0  0  0
   -5.1096    1.6297   -1.2183 H   0  0  0  0  0  0  0  0  0  0  0  0
   -4.8079    2.4457    0.3516 H   0  0  0  0  0  0  0  0  0  0  0  0
   -3.7710    2.7893   -1.1409 H   0  0  0  0  0  0  0  0  0  0  0  0
   -4.5573    0.0379    1.4962 H   0  0  0  0  0  0  0  0  0  0  0  0
   -2.4718   -1.4655    1.7785 H   0  0  0  0  0  0  0  0  0  0  0  0
    0.3078    0.4024   -1.6121 H   0  0  0  0  0  0  0  0  0  0  0  0
    2.4652   -0.4600   -1.9783 H   0  0  0  0  0  0  0  0  0  0  0  0
    1.8998   -2.0601   -1.4688 H   0  0  0  0  0  0  0  0  0  0  0  0
    2.3425   -1.3928    0.9350 H   0  0  0  0  0  0  0  0  0  0  0  0
    3.8762   -2.5540   -0.2688 H   0  0  0  0  0  0  0  0  0  0  0  0
    4.3425   -1.2364   -1.1914 H   0  0  0  0  0  0  0  0  0  0  0  0
    3.6690    0.5371    1.3635 H   0  0  0  0  0  0  0  0  0  0  0  0
    3.6265    1.0812   -0.3326 H   0  0  0  0  0  0  0  0  0  0  0  0
    1.9232    2.0269    1.1682 H   0  0  0  0  0  0  0  0  0  0  0  0
  1  2  1  0
  2  3  1  0
  3  4  2  0
  4  5  1  0
  5  6  1  0
  6  7  2  0
  6  8  1  0
  8  9  1  0
  9 10  1  0
 10 11  1  0
 10 12  1  0
 12 13  1  0
  5 14  2  0
 14  2  1  0
  1 15  1  0
  1 16  1  0
  1 17  1  0
  3 18  1  0
  4 19  1  0
  8 20  1  0
  9 21  1  0
  9 22  1  0
 10 23  1  1
 11 24  1  0
 11 25  1  0
 12 26  1  0
 12 27  1  0
 13 28  1  0
M  END
$$$$

     RDKit          3D

 28 28  0  0  0  0  0  0  0  0999 V2000
   -4.3692   -1.0650    1.2663 C   0  0  0  0  0  0  0  0  0  0  0  0
   -3.5994   -0.4130    0.2220 N   0  0  0  0  0  0  0  0  0  0  0  0
   -4.0059    0.3308   -0.8078 C   0  0  0  0  0  0  0  0  0  0  0  0
   -2.8835    0.7364   -1.5383 C   0  0  0  0  0  0  0  0  0  0  0  0
   -1.8142    0.1965   -0.8880 C   0  0  0  0  0  0  0  0  0  0  0  0
   -0.4047    0.3511   -1.2900 C   0  0  0  0  0  0  0  0  0  0  0  0
   -0.0932    1.0232   -2.3058 O   0  0  0  0  0  0  0  0  0  0  0  0
    0.6413   -0.2446   -0.5560 N   0  0  0  0  0  0  0  0  0  0  0  0
    2.0470   -0.1012   -0.9411 C   0  0  0  0  0  0  0  0  0  0  0  0
    2.9568   -0.8247   -0.0042 C   0  0  1  0  0  0  0  0  0  0  0  0
    4.3168   -0.6282   -0.4609 N   0  0  0  0  0  0  0  0  0  0  0  0
    2.8155   -0.2463    1.4071 C   0  0  0  0  0  0  0  0  0  0  0  0
    3.1118    1.1155    1.3761 O   0  0  0  0  0  0  0  0  0  0  0  0
   -2.2831   -0.4786    0.1520 N   0  0  0  0  0  0  0  0  0  0  0  0
   -3.8851   -0.8972    2.2708 H   0  0  0  0  0  0  0  0  0  0  0  0
   -4.3462   -2.1554    1.1043 H   0  0  0  0  0  0  0  0  0  0  0  0
   -5.3737   -0.6281    1.2824 H   0  0  0  0  0  0  0  0  0  0  0  0
   -5.0445    0.5707   -1.0258 H   0  0  0  0  0  0  0  0  0  0  0  0
   -2.9140    1.3497   -2.4256 H   0  0  0  0  0  0  0  0  0  0  0  0
    0.4068   -0.8012    0.2825 H   0  0  0  0  0  0  0  0  0  0  0  0
    2.2508    0.9967   -0.9006 H   0  0  0  0  0  0  0  0  0  0  0  0
    2.1854   -0.4542   -1.9645 H   0  0  0  0  0  0  0  0  0  0  0  0
    2.7358   -1.8968    0.0218 H   0  0  0  0  0  0  0  0  0  0  0  0
    4.4958    0.3878   -0.6578 H   0  0  0  0  0  0  0  0  0  0  0  0
    4.9514   -0.8772    0.3260 H   0  0  0  0  0  0  0  0  0  0  0  0
    1.7733   -0.3798    1.7607 H   0  0  0  0  0  0  0  0  0  0  0  0
    3.5231   -0.7524    2.0955 H   0  0  0  0  0  0  0  0  0  0  0  0
    2.8049    1.5561    2.1991 H   0  0  0  0  0  0  0  0  0  0  0  0
  1  2  1  0
  2  3  1  0
  3  4  2  0
  4  5  1  0
  5  6  1  0
  6  7  2  0
  6  8  1  0
  8  9  1  0
  9 10  1  0
 10 11  1  0
 10 12  1  0
 12 13  1  0
  5 14  2  0
 14  2  1  0
  1 15  1  0
  1 16  1  0
  1 17  1  0
  3 18  1  0
  4 19  1  0
  8 20  1  0
  9 21  1  0
  9 22  1  0
 10 23  1  1
 11 24  1  0
 11 25  1  0
 12 26  1  0
 12 27  1  0
 13 28  1  0
M  END
$$$$

     RDKit          3D

 28 28  0  0  0  0  0  0  0  0999 V2000
    5.2925   -0.7328   -0.2098 C   0  0  0  0  0  0  0  0  0  0  0  0
    3.8472   -0.4406   -0.2347 N   0  0  0  0  0  0  0  0  0  0  0  0
    3.1768    0.1843   -1.2183 C   0  0  0  0  0  0  0  0  0  0  0  0
    1.8419    0.2614   -0.8586 C   0  0  0  0  0  0  0  0  0  0  0  0
    1.7229   -0.3388    0.3791 C   0  0  0  0  0  0  0  0  0  0  0  0
    0.4839   -0.4891    1.1533 C   0  0  0  0  0  0  0  0  0  0  0  0
    0.5019   -1.0572    2.2746 O   0  0  0  0  0  0  0  0  0  0  0  0
   -0.7636   -0.0096    0.6799 N   0  0  0  0  0  0  0  0  0  0  0  0
   -1.9902   -0.1673    1.4640 C   0  0  0  0  0  0  0  0  0  0  0  0
   -3.1740    0.4102    0.7717 C   0  0  1  0  0  0  0  0  0  0  0  0
   -3.0454    1.8174    0.5096 N   0  0  0  0  0  0  0  0  0  0  0  0
   -3.4091   -0.3225   -0.5350 C   0  0  0  0  0  0  0  0  0  0  0  0
   -4.5752    0.1588   -1.1148 O   0  0  0  0  0  0  0  0  0  0  0  0
    2.9617   -0.7363    0.6924 N   0  0  0  0  0  0  0  0  0  0  0  0
    5.8145   -0.1453   -0.9624 H   0  0  0  0  0  0  0  0  0  0  0  0
    5.6083   -0.4899    0.8430 H   0  0  0  0  0  0  0  0  0  0  0  0
    5.3755   -1.8281   -0.3294 H   0  0  0  0  0  0  0  0  0  0  0  0
    3.6190    0.5650   -2.1441 H   0  0  0  0  0  0  0  0  0  0  0  0
    1.0632    0.7105   -1.4512 H   0  0  0  0  0  0  0  0  0  0  0  0
   -0.7687    0.4595   -0.2497 H   0  0  0  0  0  0  0  0  0  0  0  0
   -1.8349    0.2109    2.4729 H   0  0  0  0  0  0  0  0  0  0  0  0
   -2.1459   -1.2731    1.5377 H   0  0  0  0  0  0  0  0  0  0  0  0
   -4.0611    0.2078    1.4055 H   0  0  0  0  0  0  0  0  0  0  0  0
   -2.4843    2.2317    1.2748 H   0  0  0  0  0  0  0  0  0  0  0  0
   -2.5935    1.9876   -0.4226 H   0  0  0  0  0  0  0  0  0  0  0  0
   -2.5279   -0.1573   -1.2003 H   0  0  0  0  0  0  0  0  0  0  0  0
   -3.5514   -1.3946   -0.2802 H   0  0  0  0  0  0  0  0  0  0  0  0
   -4.3840    0.3775   -2.0652 H   0  0  0  0  0  0  0  0  0  0  0  0
  1  2  1  0
  2  3  1  0
  3  4  2  0
  4  5  1  0
  5  6  1  0
  6  7  2  0
  6  8  1  0
  8  9  1  0
  9 10  1  0
 10 11  1  0
 10 12  1  0
 12 13  1  0
  5 14  2  0
 14  2  1  0
  1 15  1  0
  1 16  1  0
  1 17  1  0
  3 18  1  0
  4 19  1  0
  8 20  1  0
  9 21  1  0
  9 22  1  0
 10 23  1  1
 11 24  1  0
 11 25  1  0
 12 26  1  0
 12 27  1  0
 13 28  1  0
M  END
$$$$

     RDKit          3D

 28 28  0  0  0  0  0  0  0  0999 V2000
    4.6129    0.1242   -1.3897 C   0  0  0  0  0  0  0  0  0  0  0  0
    3.5101    0.3359   -0.4394 N   0  0  0  0  0  0  0  0  0  0  0  0
    3.5661    1.1818    0.5999 C   0  0  0  0  0  0  0  0  0  0  0  0
    2.3395    1.0898    1.2411 C   0  0  0  0  0  0  0  0  0  0  0  0
    1.5596    0.1791    0.5669 C   0  0  0  0  0  0  0  0  0  0  0  0
    0.1872   -0.1855    0.9522 C   0  0  0  0  0  0  0  0  0  0  0  0
   -0.3654    0.3349    1.9543 O   0  0  0  0  0  0  0  0  0  0  0  0
   -0.5676   -1.1328    0.2163 N   0  0  0  0  0  0  0  0  0  0  0  0
   -1.8955   -1.5707    0.4721 C   0  0  0  0  0  0  0  0  0  0  0  0
   -2.9809   -0.5622    0.4247 C   0  0  1  0  0  0  0  0  0  0  0  0
   -2.8864    0.5299    1.3474 N   0  0  0  0  0  0  0  0  0  0  0  0
   -3.2752   -0.0821   -0.9907 C   0  0  0  0  0  0  0  0  0  0  0  0
   -2.3100    0.7589   -1.4844 O   0  0  0  0  0  0  0  0  0  0  0  0
    2.3271   -0.2427   -0.4428 N   0  0  0  0  0  0  0  0  0  0  0  0
    4.2580   -0.3830   -2.3022 H   0  0  0  0  0  0  0  0  0  0  0  0
    5.1399    1.0638   -1.5971 H   0  0  0  0  0  0  0  0  0  0  0  0
    5.3697   -0.5602   -0.9132 H   0  0  0  0  0  0  0  0  0  0  0  0
    4.4033    1.8064    0.8754 H   0  0  0  0  0  0  0  0  0  0  0  0
    2.0807    1.6622    2.1277 H   0  0  0  0  0  0  0  0  0  0  0  0
   -0.0459   -1.5466   -0.6240 H   0  0  0  0  0  0  0  0  0  0  0  0
   -2.0011   -2.1140    1.4450 H   0  0  0  0  0  0  0  0  0  0  0  0
   -2.1744   -2.3629   -0.2867 H   0  0  0  0  0  0  0  0  0  0  0  0
   -3.9245   -1.1174    0.7180 H   0  0  0  0  0  0  0  0  0  0  0  0
   -3.4956    1.3001    1.0464 H   0  0  0  0  0  0  0  0  0  0  0  0
   -3.1741    0.2386    2.3085 H   0  0  0  0  0  0  0  0  0  0  0  0
   -4.2417    0.4883   -0.9093 H   0  0  0  0  0  0  0  0  0  0  0  0
   -3.4951   -0.9451   -1.6509 H   0  0  0  0  0  0  0  0  0  0  0  0
   -2.5206    1.7112   -1.2950 H   0  0  0  0  0  0  0  0  0  0  0  0
  1  2  1  0
  2  3  1  0
  3  4  2  0
  4  5  1  0
  5  6  1  0
  6  7  2  0
  6  8  1  0
  8  9  1  0
  9 10  1  0
 10 11  1  0
 10 12  1  0
 12 13  1  0
  5 14  2  0
 14  2  1  0
  1 15  1  0
  1 16  1  0
  1 17  1  0
  3 18  1  0
  4 19  1  0
  8 20  1  0
  9 21  1  0
  9 22  1  0
 10 23  1  1
 11 24  1  0
 11 25  1  0
 12 26  1  0
 12 27  1  0
 13 28  1  0
M  END
$$$$

     RDKit          3D

 28 28  0  0  0  0  0  0  0  0999 V2000
    5.1403    1.1855   -0.6742 C   0  0  0  0  0  0  0  0  0  0  0  0
    3.9217    0.4947   -0.3131 N   0  0  0  0  0  0  0  0  0  0  0  0
    3.8143   -0.5102    0.5735 C   0  0  0  0  0  0  0  0  0  0  0  0
    2.4894   -0.8563    0.5994 C   0  0  0  0  0  0  0  0  0  0  0  0
    1.8449   -0.0288   -0.2898 C   0  0  0  0  0  0  0  0  0  0  0  0
    0.3896   -0.0828   -0.5568 C   0  0  0  0  0  0  0  0  0  0  0  0
   -0.1220    0.7117   -1.3871 O   0  0  0  0  0  0  0  0  0  0  0  0
   -0.4525   -1.0106    0.1004 N   0  0  0  0  0  0  0  0  0  0  0  0
   -1.8629   -1.1619   -0.0600 C   0  0  0  0  0  0  0  0  0  0  0  0
   -2.7109    0.0012    0.3033 C   0  0  1  0  0  0  0  0  0  0  0  0
   -2.4723    1.1960   -0.4250 N   0  0  0  0  0  0  0  0  0  0  0  0
   -4.1796   -0.3990    0.2016 C   0  0  0  0  0  0  0  0  0  0  0  0
   -4.9658    0.6218    0.7259 O   0  0  0  0  0  0  0  0  0  0  0  0
    2.7457    0.7852   -0.8315 N   0  0  0  0  0  0  0  0  0  0  0  0
    5.1775    2.1485   -0.1244 H   0  0  0  0  0  0  0  0  0  0  0  0
    6.0206    0.5910   -0.3732 H   0  0  0  0  0  0  0  0  0  0  0  0
    5.1908    1.3787   -1.7690 H   0  0  0  0  0  0  0  0  0  0  0  0
    4.6094   -0.9660    1.1589 H   0  0  0  0  0  0  0  0  0  0  0  0
    2.0549   -1.6376    1.2125 H   0  0  0  0  0  0  0  0  0  0  0  0
    0.0663   -1.6489    0.7840 H   0  0  0  0  0  0  0  0  0  0  0  0
   -2.1898   -2.0472    0.5442 H   0  0  0  0  0  0  0  0  0  0  0  0
   -2.1340   -1.4536   -1.1111 H   0  0  0  0  0  0  0  0  0  0  0  0
   -2.5300    0.2299    1.3950 H   0  0  0  0  0  0  0  0  0  0  0  0
   -3.3562    1.5809   -0.8475 H   0  0  0  0  0  0  0  0  0  0  0  0
   -2.0384    1.9614    0.1385 H   0  0  0  0  0  0  0  0  0  0  0  0
   -4.4008   -0.5646   -0.8639 H   0  0  0  0  0  0  0  0  0  0  0  0
   -4.2847   -1.3132    0.8221 H   0  0  0  0  0  0  0  0  0  0  0  0
   -5.7655    0.7943    0.1554 H   0  0  0  0  0  0  0  0  0  0  0  0
  1  2  1  0
  2  3  1  0
  3  4  2  0
  4  5  1  0
  5  6  1  0
  6  7  2  0
  6  8  1  0
  8  9  1  0
  9 10  1  0
 10 11  1  0
 10 12  1  0
 12 13  1  0
  5 14  2  0
 14  2  1  0
  1 15  1  0
  1 16  1  0
  1 17  1  0
  3 18  1  0
  4 19  1  0
  8 20  1  0
  9 21  1  0
  9 22  1  0
 10 23  1  1
 11 24  1  0
 11 25  1  0
 12 26  1  0
 12 27  1  0
 13 28  1  0
M  END
$$$$

     RDKit          3D

 28 28  0  0  0  0  0  0  0  0999 V2000
    4.9293   -0.2870   -1.1398 C   0  0  0  0  0  0  0  0  0  0  0  0
    3.7742    0.0178   -0.3036 N   0  0  0  0  0  0  0  0  0  0  0  0
    3.7919    0.7205    0.8400 C   0  0  0  0  0  0  0  0  0  0  0  0
    2.4609    0.7437    1.2671 C   0  0  0  0  0  0  0  0  0  0  0  0
    1.6909    0.0528    0.3629 C   0  0  0  0  0  0  0  0  0  0  0  0
    0.2227   -0.1464    0.4665 C   0  0  0  0  0  0  0  0  0  0  0  0
   -0.3891    0.3410    1.4417 O   0  0  0  0  0  0  0  0  0  0  0  0
   -0.4769   -0.8665   -0.5060 N   0  0  0  0  0  0  0  0  0  0  0  0
   -1.8759   -1.1115   -0.5498 C   0  0  0  0  0  0  0  0  0  0  0  0
   -2.8310   -0.0154   -0.7928 C   0  0  1  0  0  0  0  0  0  0  0  0
   -4.2044   -0.6217   -0.7574 N   0  0  0  0  0  0  0  0  0  0  0  0
   -2.8941    1.1054    0.1791 C   0  0  0  0  0  0  0  0  0  0  0  0
   -3.9470    1.9930   -0.1942 O   0  0  0  0  0  0  0  0  0  0  0  0
    2.5365   -0.3750   -0.5838 N   0  0  0  0  0  0  0  0  0  0  0  0
    4.5991   -0.3161   -2.1952 H   0  0  0  0  0  0  0  0  0  0  0  0
    5.3292   -1.2989   -0.9033 H   0  0  0  0  0  0  0  0  0  0  0  0
    5.7238    0.4532   -1.0089 H   0  0  0  0  0  0  0  0  0  0  0  0
    4.6524    1.1613    1.3090 H   0  0  0  0  0  0  0  0  0  0  0  0
    2.1211    1.2297    2.1611 H   0  0  0  0  0  0  0  0  0  0  0  0
    0.1306   -1.2661   -1.2924 H   0  0  0  0  0  0  0  0  0  0  0  0
   -2.2104   -1.6057    0.4162 H   0  0  0  0  0  0  0  0  0  0  0  0
   -2.0951   -1.9578   -1.2960 H   0  0  0  0  0  0  0  0  0  0  0  0
   -2.7306    0.4424   -1.8102 H   0  0  0  0  0  0  0  0  0  0  0  0
   -4.2342   -1.3071    0.0426 H   0  0  0  0  0  0  0  0  0  0  0  0
   -4.2661   -1.1358   -1.6758 H   0  0  0  0  0  0  0  0  0  0  0  0
   -3.0439    0.7635    1.2054 H   0  0  0  0  0  0  0  0  0  0  0  0
   -1.9677    1.7552    0.0961 H   0  0  0  0  0  0  0  0  0  0  0  0
   -4.7961    1.5316    0.0555 H   0  0  0  0  0  0  0  0  0  0  0  0
  1  2  1  0
  2  3  1  0
  3  4  2  0
  4  5  1  0
  5  6  1  0
  6  7  2  0
  6  8  1  0
  8  9  1  0
  9 10  1  0
 10 11  1  0
 10 12  1  0
 12 13  1  0
  5 14  2  0
 14  2  1  0
  1 15  1  0
  1 16  1  0
  1 17  1  0
  3 18  1  0
  4 19  1  0
  8 20  1  0
  9 21  1  0
  9 22  1  0
 10 23  1  6
 11 24  1  0
 11 25  1  0
 12 26  1  0
 12 27  1  0
 13 28  1  0
M  END
$$$$

     RDKit          3D

 28 28  0  0  0  0  0  0  0  0999 V2000
    4.9081    0.4896    0.7847 C   0  0  0  0  0  0  0  0  0  0  0  0
    3.7551    0.0194    0.0178 N   0  0  0  0  0  0  0  0  0  0  0  0
    3.7593   -0.8177   -1.0072 C   0  0  0  0  0  0  0  0  0  0  0  0
    2.4583   -1.0053   -1.4523 C   0  0  0  0  0  0  0  0  0  0  0  0
    1.6817   -0.2356   -0.6375 C   0  0  0  0  0  0  0  0  0  0  0  0
    0.2175   -0.0745   -0.6823 C   0  0  0  0  0  0  0  0  0  0  0  0
   -0.4788   -0.6787   -1.5379 O   0  0  0  0  0  0  0  0  0  0  0  0
   -0.4626    0.7689    0.2387 N   0  0  0  0  0  0  0  0  0  0  0  0
   -1.8842    0.9649    0.2438 C   0  0  0  0  0  0  0  0  0  0  0  0
   -2.6625   -0.3148    0.4630 C   0  0  1  0  0  0  0  0  0  0  0  0
   -2.3668   -0.9580    1.7038 N   0  0  0  0  0  0  0  0  0  0  0  0
   -4.1408    0.0633    0.3613 C   0  0  0  0  0  0  0  0  0  0  0  0
   -4.3338    0.6807   -0.8736 O   0  0  0  0  0  0  0  0  0  0  0  0
    2.5044    0.3667    0.2365 N   0  0  0  0  0  0  0  0  0  0  0  0
    5.8197    0.0056    0.3724 H   0  0  0  0  0  0  0  0  0  0  0  0
    4.9633    1.5863    0.6675 H   0  0  0  0  0  0  0  0  0  0  0  0
    4.7712    0.1759    1.8335 H   0  0  0  0  0  0  0  0  0  0  0  0
    4.6370   -1.2831   -1.4325 H   0  0  0  0  0  0  0  0  0  0  0  0
    2.1062   -1.6223   -2.2666 H   0  0  0  0  0  0  0  0  0  0  0  0
    0.1715    1.2566    0.9411 H   0  0  0  0  0  0  0  0  0  0  0  0
   -2.1241    1.7232    1.0166 H   0  0  0  0  0  0  0  0  0  0  0  0
   -2.2596    1.3977   -0.7220 H   0  0  0  0  0  0  0  0  0  0  0  0
   -2.4693   -1.0268   -0.3642 H   0  0  0  0  0  0  0  0  0  0  0  0
   -1.5920   -1.6560    1.6454 H   0  0  0  0  0  0  0  0  0  0  0  0
   -3.2360   -1.3774    2.1110 H   0  0  0  0  0  0  0  0  0  0  0  0
   -4.3852    0.7604    1.1695 H   0  0  0  0  0  0  0  0  0  0  0  0
   -4.7913   -0.8307    0.4714 H   0  0  0  0  0  0  0  0  0  0  0  0
   -4.5665    1.6218   -0.7363 H   0  0  0  0  0  0  0  0  0  0  0  0
  1  2  1  0
  2  3  1  0
  3  4  2  0
  4  5  1  0
  5  6  1  0
  6  7  2  0
  6  8  1  0
  8  9  1  0
  9 10  1  0
 10 11  1  0
 10 12  1  0
 12 13  1  0
  5 14  2  0
 14  2  1  0
  1 15  1  0
  1 16  1  0
  1 17  1  0
  3 18  1  0
  4 19  1  0
  8 20  1  0
  9 21  1  0
  9 22  1  0
 10 23  1  6
 11 24  1  0
 11 25  1  0
 12 26  1  0
 12 27  1  0
 13 28  1  0
M  END
$$$$
