
     RDKit          3D

 25 25  0  0  0  0  0  0  0  0999 V2000
    2.1715    1.2903   -0.8988 N   0  0  0  0  0  0  0  0  0  0  0  0
    2.5558    0.0404   -0.3410 C   0  0  0  0  0  0  0  0  0  0  0  0
    1.4806   -0.9950   -0.4550 C   0  0  0  0  0  0  0  0  0  0  0  0
    0.2096   -0.6381    0.2312 C   0  0  2  0  0  0  0  0  0  0  0  0
   -0.7949   -1.7055    0.1113 N   0  0  0  0  0  0  0  0  0  0  0  0
   -2.0117   -0.9268    0.4360 C   0  0  1  0  0  0  0  0  0  0  0  0
   -1.8040   -0.3682    1.6906 O   0  0  0  0  0  0  0  0  0  0  0  0
   -1.8738    0.1638   -0.5829 C   0  0  1  0  0  0  0  0  0  0  0  0
   -2.7299    1.2289   -0.3715 O   0  0  0  0  0  0  0  0  0  0  0  0
   -0.4221    0.5441   -0.4660 C   0  0  1  0  0  0  0  0  0  0  0  0
   -0.2565    1.6630    0.3682 O   0  0  0  0  0  0  0  0  0  0  0  0
    2.6832    2.0879   -0.4177 H   0  0  0  0  0  0  0  0  0  0  0  0
    2.3349    1.3165   -1.9414 H   0  0  0  0  0  0  0  0  0  0  0  0
    3.4520   -0.3760   -0.8886 H   0  0  0  0  0  0  0  0  0  0  0  0
    2.8486    0.1896    0.7328 H   0  0  0  0  0  0  0  0  0  0  0  0
    1.9028   -1.9708   -0.1008 H   0  0  0  0  0  0  0  0  0  0  0  0
    1.3361   -1.1648   -1.5636 H   0  0  0  0  0  0  0  0  0  0  0  0
    0.3621   -0.4762    1.3019 H   0  0  0  0  0  0  0  0  0  0  0  0
   -0.8780   -1.8622   -0.9382 H   0  0  0  0  0  0  0  0  0  0  0  0
   -2.9129   -1.5251    0.3484 H   0  0  0  0  0  0  0  0  0  0  0  0
   -2.3962    0.4269    1.8114 H   0  0  0  0  0  0  0  0  0  0  0  0
   -2.0003   -0.2959   -1.5871 H   0  0  0  0  0  0  0  0  0  0  0  0
   -3.5610    1.1848   -0.9057 H   0  0  0  0  0  0  0  0  0  0  0  0
    0.0286    0.7207   -1.4696 H   0  0  0  0  0  0  0  0  0  0  0  0
    0.2754    1.4476    1.1767 H   0  0  0  0  0  0  0  0  0  0  0  0
  1  2  1  0
  2  3  1  0
  3  4  1  0
  4  5  1  0
  5  6  1  0
  6  7  1  0
  6  8  1  0
  8  9  1  0
  8 10  1  0
 10 11  1  0
 10  4  1  0
  1 12  1  0
  1 13  1  0
  2 14  1  0
  2 15  1  0
  3 16  1  0
  3 17  1  0
  4 18  1  1
  5 19  1  0
  6 20  1  1
  7 21  1  0
  8 22  1  6
  9 23  1  0
 10 24  1  6
 11 25  1  0
M  END
$$$$

     RDKit          3D

 25 25  0  0  0  0  0  0  0  0999 V2000
    3.6030   -0.7037    0.0950 N   0  0  0  0  0  0  0  0  0  0  0  0
    2.1809   -0.6750   -0.2689 C   0  0  0  0  0  0  0  0  0  0  0  0
    1.4773    0.1185    0.7849 C   0  0  0  0  0  0  0  0  0  0  0  0
    0.0015    0.2430    0.5574 C   0  0  2  0  0  0  0  0  0  0  0  0
   -0.6872   -1.0112    0.5207 N   0  0  0  0  0  0  0  0  0  0  0  0
   -1.8704   -0.8612   -0.2818 C   0  0  1  0  0  0  0  0  0  0  0  0
   -3.0389   -1.1257    0.3931 O   0  0  0  0  0  0  0  0  0  0  0  0
   -1.8450    0.5748   -0.8198 C   0  0  1  0  0  0  0  0  0  0  0  0
   -2.3969    1.4531    0.1081 O   0  0  0  0  0  0  0  0  0  0  0  0
   -0.3308    0.8276   -0.8004 C   0  0  1  0  0  0  0  0  0  0  0  0
   -0.0295    2.1618   -0.9043 O   0  0  0  0  0  0  0  0  0  0  0  0
    4.0143    0.2376   -0.1186 H   0  0  0  0  0  0  0  0  0  0  0  0
    3.6170   -0.7799    1.1486 H   0  0  0  0  0  0  0  0  0  0  0  0
    1.8423   -1.7422   -0.2850 H   0  0  0  0  0  0  0  0  0  0  0  0
    2.0820   -0.2096   -1.2678 H   0  0  0  0  0  0  0  0  0  0  0  0
    1.6330   -0.3388    1.7703 H   0  0  0  0  0  0  0  0  0  0  0  0
    1.9175    1.1343    0.7971 H   0  0  0  0  0  0  0  0  0  0  0  0
   -0.4398    0.8603    1.3458 H   0  0  0  0  0  0  0  0  0  0  0  0
   -0.9857   -1.3136    1.4725 H   0  0  0  0  0  0  0  0  0  0  0  0
   -1.8241   -1.5044   -1.2090 H   0  0  0  0  0  0  0  0  0  0  0  0
   -3.4517   -1.9458    0.0386 H   0  0  0  0  0  0  0  0  0  0  0  0
   -2.2647    0.6546   -1.8195 H   0  0  0  0  0  0  0  0  0  0  0  0
   -2.5532    0.9668    0.9783 H   0  0  0  0  0  0  0  0  0  0  0  0
    0.1043    0.2064   -1.6093 H   0  0  0  0  0  0  0  0  0  0  0  0
   -0.7553    2.7724   -0.6261 H   0  0  0  0  0  0  0  0  0  0  0  0
  1  2  1  0
  2  3  1  0
  3  4  1  0
  4  5  1  0
  5  6  1  0
  6  7  1  0
  6  8  1  0
  8  9  1  0
  8 10  1  0
 10 11  1  0
 10  4  1  0
  1 12  1  0
  1 13  1  0
  2 14  1  0
  2 15  1  0
  3 16  1  0
  3 17  1  0
  4 18  1  1
  5 19  1  0
  6 20  1  6
  7 21  1  0
  8 22  1  6
  9 23  1  0
 10 24  1  6
 11 25  1  0
M  END
$$$$

     RDKit          3D

 25 25  0  0  0  0  0  0  0  0999 V2000
    2.6559   -0.4495    0.6230 N   0  0  0  0  0  0  0  0  0  0  0  0
    2.3692    0.8284    0.0596 C   0  0  0  0  0  0  0  0  0  0  0  0
    1.2460    0.8696   -0.9079 C   0  0  0  0  0  0  0  0  0  0  0  0
   -0.0766    0.4603   -0.4279 C   0  0  2  0  0  0  0  0  0  0  0  0
   -0.6038    1.2460    0.6735 N   0  0  0  0  0  0  0  0  0  0  0  0
   -1.9417    0.6390    0.7478 C   0  0  1  0  0  0  0  0  0  0  0  0
   -2.6158    1.1089   -0.4006 O   0  0  0  0  0  0  0  0  0  0  0  0
   -1.7020   -0.8469    0.5651 C   0  0  1  0  0  0  0  0  0  0  0  0
   -2.4735   -1.3354   -0.4958 O   0  0  0  0  0  0  0  0  0  0  0  0
   -0.2412   -0.9235    0.0784 C   0  0  1  0  0  0  0  0  0  0  0  0
   -0.1085   -1.8650   -0.9272 O   0  0  0  0  0  0  0  0  0  0  0  0
    3.5645   -0.3694    1.1465 H   0  0  0  0  0  0  0  0  0  0  0  0
    2.8565   -1.1374   -0.1568 H   0  0  0  0  0  0  0  0  0  0  0  0
    2.1761    1.5646    0.8757 H   0  0  0  0  0  0  0  0  0  0  0  0
    3.2860    1.1875   -0.4536 H   0  0  0  0  0  0  0  0  0  0  0  0
    1.5162    0.2431   -1.7836 H   0  0  0  0  0  0  0  0  0  0  0  0
    1.1736    1.9095   -1.2946 H   0  0  0  0  0  0  0  0  0  0  0  0
   -0.8083    0.5962   -1.2686 H   0  0  0  0  0  0  0  0  0  0  0  0
   -0.1343    0.9549    1.5829 H   0  0  0  0  0  0  0  0  0  0  0  0
   -2.4606    0.8886    1.6704 H   0  0  0  0  0  0  0  0  0  0  0  0
   -2.9890    1.9981   -0.2698 H   0  0  0  0  0  0  0  0  0  0  0  0
   -1.8478   -1.4047    1.4944 H   0  0  0  0  0  0  0  0  0  0  0  0
   -2.5952   -2.2975   -0.4428 H   0  0  0  0  0  0  0  0  0  0  0  0
    0.3349   -1.1612    0.9823 H   0  0  0  0  0  0  0  0  0  0  0  0
   -0.5809   -2.7041   -0.6829 H   0  0  0  0  0  0  0  0  0  0  0  0
  1  2  1  0
  2  3  1  0
  3  4  1  0
  4  5  1  0
  5  6  1  0
  6  7  1  0
  6  8  1  0
  8  9  1  0
  8 10  1  0
 10 11  1  0
 10  4  1  0
  1 12  1  0
  1 13  1  0
  2 14  1  0
  2 15  1  0
  3 16  1  0
  3 17  1  0
  4 18  1  6
  5 19  1  0
  6 20  1  1
  7 21  1  0
  8 22  1  1
  9 23  1  0
 10 24  1  1
 11 25  1  0
M  END
$$$$

     RDKit          3D

 25 25  0  0  0  0  0  0  0  0999 V2000
    3.4675    0.8433    0.3882 N   0  0  0  0  0  0  0  0  0  0  0  0
    2.0113    0.7637    0.4868 C   0  0  0  0  0  0  0  0  0  0  0  0
    1.5474   -0.2420   -0.5090 C   0  0  0  0  0  0  0  0  0  0  0  0
    0.0723   -0.4539   -0.5466 C   0  0  2  0  0  0  0  0  0  0  0  0
   -0.6994    0.7008   -0.8620 N   0  0  0  0  0  0  0  0  0  0  0  0
   -1.9356    0.6444   -0.1249 C   0  0  1  0  0  0  0  0  0  0  0  0
   -3.0409    0.9779   -0.8682 O   0  0  0  0  0  0  0  0  0  0  0  0
   -1.9889   -0.7840    0.3912 C   0  0  1  0  0  0  0  0  0  0  0  0
   -2.2327   -1.6093   -0.6930 O   0  0  0  0  0  0  0  0  0  0  0  0
   -0.5040   -0.8994    0.7727 C   0  0  1  0  0  0  0  0  0  0  0  0
   -0.1533   -2.1551    1.1507 O   0  0  0  0  0  0  0  0  0  0  0  0
    3.7812    1.7937    0.6844 H   0  0  0  0  0  0  0  0  0  0  0  0
    3.7748    0.6733   -0.5931 H   0  0  0  0  0  0  0  0  0  0  0  0
    1.6066    1.7529    0.2107 H   0  0  0  0  0  0  0  0  0  0  0  0
    1.7299    0.4735    1.5184 H   0  0  0  0  0  0  0  0  0  0  0  0
    2.0298   -1.2121   -0.2869 H   0  0  0  0  0  0  0  0  0  0  0  0
    1.8804    0.0680   -1.5105 H   0  0  0  0  0  0  0  0  0  0  0  0
   -0.1423   -1.2522   -1.2814 H   0  0  0  0  0  0  0  0  0  0  0  0
   -0.1847    1.5843   -0.7505 H   0  0  0  0  0  0  0  0  0  0  0  0
   -1.8127    1.3202    0.7711 H   0  0  0  0  0  0  0  0  0  0  0  0
   -3.7172    1.3618   -0.2309 H   0  0  0  0  0  0  0  0  0  0  0  0
   -2.6489   -0.9220    1.2355 H   0  0  0  0  0  0  0  0  0  0  0  0
   -2.3321   -1.1018   -1.5492 H   0  0  0  0  0  0  0  0  0  0  0  0
   -0.3273   -0.1028    1.5098 H   0  0  0  0  0  0  0  0  0  0  0  0
   -0.1813   -2.2232    2.1406 H   0  0  0  0  0  0  0  0  0  0  0  0
  1  2  1  0
  2  3  1  0
  3  4  1  0
  4  5  1  0
  5  6  1  0
  6  7  1  0
  6  8  1  0
  8  9  1  0
  8 10  1  0
 10 11  1  0
 10  4  1  0
  1 12  1  0
  1 13  1  0
  2 14  1  0
  2 15  1  0
  3 16  1  0
  3 17  1  0
  4 18  1  6
  5 19  1  0
  6 20  1  1
  7 21  1  0
  8 22  1  1
  9 23  1  0
 10 24  1  1
 11 25  1  0
M  END
$$$$

     RDKit          3D

 25 25  0  0  0  0  0  0  0  0999 V2000
    2.2041    1.0029    0.5341 N   0  0  0  0  0  0  0  0  0  0  0  0
    2.1923   -0.3839    0.1270 C   0  0  0  0  0  0  0  0  0  0  0  0
    1.0857   -1.1933    0.6586 C   0  0  0  0  0  0  0  0  0  0  0  0
   -0.3002   -0.8248    0.3471 C   0  0  2  0  0  0  0  0  0  0  0  0
   -0.6509   -0.8007   -1.0424 N   0  0  0  0  0  0  0  0  0  0  0  0
   -0.9023    0.5827   -1.3304 C   0  0  1  0  0  0  0  0  0  0  0  0
   -1.5569    0.7999   -2.5194 O   0  0  0  0  0  0  0  0  0  0  0  0
   -1.7732    0.9333   -0.1206 C   0  0  1  0  0  0  0  0  0  0  0  0
   -2.8752    0.1028   -0.1304 O   0  0  0  0  0  0  0  0  0  0  0  0
   -0.8169    0.4417    0.9790 C   0  0  1  0  0  0  0  0  0  0  0  0
   -1.5184    0.2032    2.1579 O   0  0  0  0  0  0  0  0  0  0  0  0
    2.2863    1.6559   -0.2801 H   0  0  0  0  0  0  0  0  0  0  0  0
    2.9405    1.2243    1.2331 H   0  0  0  0  0  0  0  0  0  0  0  0
    3.1615   -0.8144    0.5203 H   0  0  0  0  0  0  0  0  0  0  0  0
    2.3134   -0.4015   -0.9722 H   0  0  0  0  0  0  0  0  0  0  0  0
    1.1790   -1.1903    1.7868 H   0  0  0  0  0  0  0  0  0  0  0  0
    1.2614   -2.2675    0.3830 H   0  0  0  0  0  0  0  0  0  0  0  0
   -0.9593   -1.6404    0.7916 H   0  0  0  0  0  0  0  0  0  0  0  0
   -0.0124   -1.2745   -1.6750 H   0  0  0  0  0  0  0  0  0  0  0  0
    0.0156    1.2226   -1.2147 H   0  0  0  0  0  0  0  0  0  0  0  0
   -0.8476    0.9558   -3.2133 H   0  0  0  0  0  0  0  0  0  0  0  0
   -1.9851    1.9926   -0.0429 H   0  0  0  0  0  0  0  0  0  0  0  0
   -2.5218   -0.8293   -0.2757 H   0  0  0  0  0  0  0  0  0  0  0  0
   -0.0627    1.2220    1.0755 H   0  0  0  0  0  0  0  0  0  0  0  0
   -1.8573   -0.7191    2.2232 H   0  0  0  0  0  0  0  0  0  0  0  0
  1  2  1  0
  2  3  1  0
  3  4  1  0
  4  5  1  0
  5  6  1  0
  6  7  1  0
  6  8  1  0
  8  9  1  0
  8 10  1  0
 10 11  1  0
 10  4  1  0
  1 12  1  0
  1 13  1  0
  2 14  1  0
  2 15  1  0
  3 16  1  0
  3 17  1  0
  4 18  1  1
  5 19  1  0
  6 20  1  6
  7 21  1  0
  8 22  1  1
  9 23  1  0
 10 24  1  1
 11 25  1  0
M  END
$$$$

     RDKit          3D

 25 25  0  0  0  0  0  0  0  0999 V2000
    3.7403    0.3769    0.1346 N   0  0  0  0  0  0  0  0  0  0  0  0
    2.3833    0.5657   -0.3452 C   0  0  0  0  0  0  0  0  0  0  0  0
    1.4331   -0.4520    0.2357 C   0  0  0  0  0  0  0  0  0  0  0  0
    0.0574   -0.1881   -0.3086 C   0  0  2  0  0  0  0  0  0  0  0  0
   -0.4535    1.1067    0.0031 N   0  0  0  0  0  0  0  0  0  0  0  0
   -1.8315    0.9736    0.3977 C   0  0  1  0  0  0  0  0  0  0  0  0
   -2.5928    1.7844   -0.4318 O   0  0  0  0  0  0  0  0  0  0  0  0
   -2.2119   -0.4690    0.2800 C   0  0  1  0  0  0  0  0  0  0  0  0
   -2.9313   -0.7157   -0.8642 O   0  0  0  0  0  0  0  0  0  0  0  0
   -0.9024   -1.2072    0.2501 C   0  0  1  0  0  0  0  0  0  0  0  0
   -0.9521   -2.3545   -0.5278 O   0  0  0  0  0  0  0  0  0  0  0  0
    4.3232   -0.1733   -0.5341 H   0  0  0  0  0  0  0  0  0  0  0  0
    4.1671    1.3447    0.2094 H   0  0  0  0  0  0  0  0  0  0  0  0
    1.9966    1.5765   -0.1245 H   0  0  0  0  0  0  0  0  0  0  0  0
    2.3348    0.4435   -1.4640 H   0  0  0  0  0  0  0  0  0  0  0  0
    1.7438   -1.4561   -0.1249 H   0  0  0  0  0  0  0  0  0  0  0  0
    1.4426   -0.4066    1.3459 H   0  0  0  0  0  0  0  0  0  0  0  0
    0.1321   -0.2648   -1.4222 H   0  0  0  0  0  0  0  0  0  0  0  0
    0.1177    1.6616    0.6660 H   0  0  0  0  0  0  0  0  0  0  0  0
   -1.9346    1.3242    1.4502 H   0  0  0  0  0  0  0  0  0  0  0  0
   -2.6931    2.6718   -0.0205 H   0  0  0  0  0  0  0  0  0  0  0  0
   -2.7893   -0.8161    1.1647 H   0  0  0  0  0  0  0  0  0  0  0  0
   -3.3428   -1.6021   -0.7925 H   0  0  0  0  0  0  0  0  0  0  0  0
   -0.5417   -1.5086    1.2522 H   0  0  0  0  0  0  0  0  0  0  0  0
   -0.6951   -2.2156   -1.4581 H   0  0  0  0  0  0  0  0  0  0  0  0
  1  2  1  0
  2  3  1  0
  3  4  1  0
  4  5  1  0
  5  6  1  0
  6  7  1  0
  6  8  1  0
  8  9  1  0
  8 10  1  0
 10 11  1  0
 10  4  1  0
  1 12  1  0
  1 13  1  0
  2 14  1  0
  2 15  1  0
  3 16  1  0
  3 17  1  0
  4 18  1  6
  5 19  1  0
  6 20  1  1
  7 21  1  0
  8 22  1  1
  9 23  1  0
 10 24  1  1
 11 25  1  0
M  END
$$$$

     RDKit          3D

 25 25  0  0  0  0  0  0  0  0999 V2000
    2.8363    0.3548   -0.8390 N   0  0  0  0  0  0  0  0  0  0  0  0
    2.4730    0.1576    0.5487 C   0  0  0  0  0  0  0  0  0  0  0  0
    1.2445   -0.6894    0.7062 C   0  0  0  0  0  0  0  0  0  0  0  0
    0.0335   -0.1012    0.0433 C   0  0  2  0  0  0  0  0  0  0  0  0
   -0.3241    1.1988    0.5614 N   0  0  0  0  0  0  0  0  0  0  0  0
   -1.6473    1.3860   -0.0546 C   0  0  1  0  0  0  0  0  0  0  0  0
   -1.3918    1.6894   -1.4012 O   0  0  0  0  0  0  0  0  0  0  0  0
   -2.2977    0.0211   -0.0269 C   0  0  1  0  0  0  0  0  0  0  0  0
   -2.6752   -0.4111   -1.2983 O   0  0  0  0  0  0  0  0  0  0  0  0
   -1.1873   -0.9121    0.4321 C   0  0  1  0  0  0  0  0  0  0  0  0
   -1.2062   -2.1153   -0.2481 O   0  0  0  0  0  0  0  0  0  0  0  0
    3.3219   -0.5004   -1.1808 H   0  0  0  0  0  0  0  0  0  0  0  0
    3.5455    1.1480   -0.8423 H   0  0  0  0  0  0  0  0  0  0  0  0
    2.4059    1.0988    1.1120 H   0  0  0  0  0  0  0  0  0  0  0  0
    3.3203   -0.4230    1.0063 H   0  0  0  0  0  0  0  0  0  0  0  0
    1.4152   -1.6881    0.2686 H   0  0  0  0  0  0  0  0  0  0  0  0
    1.0454   -0.8263    1.7838 H   0  0  0  0  0  0  0  0  0  0  0  0
    0.1018   -0.0391   -1.0412 H   0  0  0  0  0  0  0  0  0  0  0  0
   -0.5369    1.1134    1.5999 H   0  0  0  0  0  0  0  0  0  0  0  0
   -2.2336    2.1593    0.4525 H   0  0  0  0  0  0  0  0  0  0  0  0
   -0.4609    1.9411   -1.5601 H   0  0  0  0  0  0  0  0  0  0  0  0
   -3.1721   -0.0189    0.6519 H   0  0  0  0  0  0  0  0  0  0  0  0
   -2.8924   -1.3879   -1.1891 H   0  0  0  0  0  0  0  0  0  0  0  0
   -1.2807   -1.0172    1.5217 H   0  0  0  0  0  0  0  0  0  0  0  0
   -0.4371   -2.1382   -0.8926 H   0  0  0  0  0  0  0  0  0  0  0  0
  1  2  1  0
  2  3  1  0
  3  4  1  0
  4  5  1  0
  5  6  1  0
  6  7  1  0
  6  8  1  0
  8  9  1  0
  8 10  1  0
 10 11  1  0
 10  4  1  0
  1 12  1  0
  1 13  1  0
  2 14  1  0
  2 15  1  0
  3 16  1  0
  3 17  1  0
  4 18  1  6
  5 19  1  0
  6 20  1  1
  7 21  1  0
  8 22  1  1
  9 23  1  0
 10 24  1  1
 11 25  1  0
M  END
$$$$

     RDKit          3D

 25 25  0  0  0  0  0  0  0  0999 V2000
   -3.5336   -0.0082    0.8491 N   0  0  0  0  0  0  0  0  0  0  0  0
   -2.0780   -0.1795    0.9454 C   0  0  0  0  0  0  0  0  0  0  0  0
   -1.5362    0.0401   -0.4461 C   0  0  0  0  0  0  0  0  0  0  0  0
   -0.0559   -0.0968   -0.5346 C   0  0  2  0  0  0  0  0  0  0  0  0
    0.4455   -1.3857   -0.1491 N   0  0  0  0  0  0  0  0  0  0  0  0
    1.8448   -1.2135    0.1572 C   0  0  1  0  0  0  0  0  0  0  0  0
    2.6499   -1.8958   -0.7532 O   0  0  0  0  0  0  0  0  0  0  0  0
    2.1178    0.2835    0.1183 C   0  0  1  0  0  0  0  0  0  0  0  0
    2.4379    0.6061   -1.1817 O   0  0  0  0  0  0  0  0  0  0  0  0
    0.7029    0.8231    0.3708 C   0  0  1  0  0  0  0  0  0  0  0  0
    0.5980    2.1514    0.0524 O   0  0  0  0  0  0  0  0  0  0  0  0
   -3.7287    0.9019    0.3634 H   0  0  0  0  0  0  0  0  0  0  0  0
   -3.9775   -0.1064    1.7671 H   0  0  0  0  0  0  0  0  0  0  0  0
   -1.9306   -1.2266    1.2792 H   0  0  0  0  0  0  0  0  0  0  0  0
   -1.6526    0.4801    1.7000 H   0  0  0  0  0  0  0  0  0  0  0  0
   -1.8332    1.0108   -0.8459 H   0  0  0  0  0  0  0  0  0  0  0  0
   -1.9913   -0.7365   -1.0938 H   0  0  0  0  0  0  0  0  0  0  0  0
    0.2545    0.1058   -1.5675 H   0  0  0  0  0  0  0  0  0  0  0  0
   -0.0231   -1.6946    0.7265 H   0  0  0  0  0  0  0  0  0  0  0  0
    2.1108   -1.5487    1.1854 H   0  0  0  0  0  0  0  0  0  0  0  0
    3.5171   -1.4521   -0.7961 H   0  0  0  0  0  0  0  0  0  0  0  0
    2.8289    0.6093    0.8682 H   0  0  0  0  0  0  0  0  0  0  0  0
    2.6759    1.5318   -1.3425 H   0  0  0  0  0  0  0  0  0  0  0  0
    0.5109    0.6135    1.4546 H   0  0  0  0  0  0  0  0  0  0  0  0
   -0.3543    2.3869    0.0167 H   0  0  0  0  0  0  0  0  0  0  0  0
  1  2  1  0
  2  3  1  0
  3  4  1  0
  4  5  1  0
  5  6  1  0
  6  7  1  0
  6  8  1  0
  8  9  1  0
  8 10  1  0
 10 11  1  0
 10  4  1  0
  1 12  1  0
  1 13  1  0
  2 14  1  0
  2 15  1  0
  3 16  1  0
  3 17  1  0
  4 18  1  6
  5 19  1  0
  6 20  1  1
  7 21  1  0
  8 22  1  1
  9 23  1  0
 10 24  1  1
 11 25  1  0
M  END
$$$$
