
     RDKit          3D

 23 23  0  0  0  0  0  0  0  0999 V2000
   -4.8105    0.0169    0.6201 N   0  0  0  0  0  0  0  0  0  0  0  0
   -3.7722    0.4248   -0.2886 C   0  0  0  0  0  0  0  0  0  0  0  0
   -4.1129    0.4437   -1.5101 O   0  0  0  0  0  0  0  0  0  0  0  0
   -2.4179    0.7970    0.1002 C   0  0  0  0  0  0  0  0  0  0  0  0
   -1.3817   -0.0243   -0.6326 C   0  0  0  0  0  0  0  0  0  0  0  0
   -1.7163   -0.8985   -1.4689 O   0  0  0  0  0  0  0  0  0  0  0  0
   -0.0193    0.2083   -0.3587 N   0  0  0  0  0  0  0  0  0  0  0  0
    0.9809   -0.5970   -1.0690 C   0  0  0  0  0  0  0  0  0  0  0  0
    2.3550   -0.2663   -0.6368 C   0  0  0  0  0  0  0  0  0  0  0  0
    3.0685   -0.9566    0.3243 C   0  0  0  0  0  0  0  0  0  0  0  0
    4.3051   -0.3748    0.4742 C   0  0  0  0  0  0  0  0  0  0  0  0
    4.3184    0.6666   -0.4094 N   0  0  0  0  0  0  0  0  0  0  0  0
    3.1619    0.7165   -1.0558 N   0  0  0  0  0  0  0  0  0  0  0  0
   -5.4447    0.6903    1.0681 H   0  0  0  0  0  0  0  0  0  0  0  0
   -4.8717   -1.0274    0.7936 H   0  0  0  0  0  0  0  0  0  0  0  0
   -2.2751    0.6450    1.1850 H   0  0  0  0  0  0  0  0  0  0  0  0
   -2.1672    1.8822   -0.0952 H   0  0  0  0  0  0  0  0  0  0  0  0
    0.2442    0.9482    0.3388 H   0  0  0  0  0  0  0  0  0  0  0  0
    0.8065   -0.3861   -2.1481 H   0  0  0  0  0  0  0  0  0  0  0  0
    0.7886   -1.6965   -0.8545 H   0  0  0  0  0  0  0  0  0  0  0  0
    2.7071   -1.8269    0.8784 H   0  0  0  0  0  0  0  0  0  0  0  0
    5.0898   -0.6786    1.1430 H   0  0  0  0  0  0  0  0  0  0  0  0
    5.1635    1.2934   -0.4964 H   0  0  0  0  0  0  0  0  0  0  0  0
  1  2  1  0
  2  3  2  0
  2  4  1  0
  4  5  1  0
  5  6  2  0
  5  7  1  0
  7  8  1  0
  8  9  1  0
  9 10  1  0
 10 11  2  0
 11 12  1  0
 12 13  1  0
 13  9  2  0
  1 14  1  0
  1 15  1  0
  4 16  1  0
  4 17  1  0
  7 18  1  0
  8 19  1  0
  8 20  1  0
 10 21  1  0
 11 22  1  0
 12 23  1  0
M  END
$$$$

     RDKit          3D

 23 23  0  0  0  0  0  0  0  0999 V2000
    4.5440    0.9147    0.6700 N   0  0  0  0  0  0  0  0  0  0  0  0
    3.2757    0.3153    0.8301 C   0  0  0  0  0  0  0  0  0  0  0  0
    2.9067   -0.1273    1.9331 O   0  0  0  0  0  0  0  0  0  0  0  0
    2.3714    0.2113   -0.3315 C   0  0  0  0  0  0  0  0  0  0  0  0
    1.0854   -0.4333   -0.0250 C   0  0  0  0  0  0  0  0  0  0  0  0
    0.8303   -0.8107    1.1427 O   0  0  0  0  0  0  0  0  0  0  0  0
    0.1181   -0.6379   -1.0390 N   0  0  0  0  0  0  0  0  0  0  0  0
   -1.1733   -1.2641   -0.8177 C   0  0  0  0  0  0  0  0  0  0  0  0
   -2.1232   -0.3506   -0.1708 C   0  0  0  0  0  0  0  0  0  0  0  0
   -3.4332   -0.7005    0.1295 C   0  0  0  0  0  0  0  0  0  0  0  0
   -4.0641    0.3726    0.7244 C   0  0  0  0  0  0  0  0  0  0  0  0
   -3.1411    1.3460    0.7765 N   0  0  0  0  0  0  0  0  0  0  0  0
   -1.9930    0.9174    0.2470 N   0  0  0  0  0  0  0  0  0  0  0  0
    4.6300    1.8383    0.1847 H   0  0  0  0  0  0  0  0  0  0  0  0
    5.4313    0.4708    1.0215 H   0  0  0  0  0  0  0  0  0  0  0  0
    2.2508    1.2318   -0.7555 H   0  0  0  0  0  0  0  0  0  0  0  0
    2.9523   -0.3493   -1.1233 H   0  0  0  0  0  0  0  0  0  0  0  0
    0.3988   -0.2967   -2.0055 H   0  0  0  0  0  0  0  0  0  0  0  0
   -1.0710   -2.1725   -0.1641 H   0  0  0  0  0  0  0  0  0  0  0  0
   -1.5692   -1.5579   -1.8327 H   0  0  0  0  0  0  0  0  0  0  0  0
   -3.8948   -1.6582   -0.0681 H   0  0  0  0  0  0  0  0  0  0  0  0
   -5.0789    0.4425    1.0804 H   0  0  0  0  0  0  0  0  0  0  0  0
   -3.2526    2.2982    1.1581 H   0  0  0  0  0  0  0  0  0  0  0  0
  1  2  1  0
  2  3  2  0
  2  4  1  0
  4  5  1  0
  5  6  2  0
  5  7  1  0
  7  8  1  0
  8  9  1  0
  9 10  1  0
 10 11  2  0
 11 12  1  0
 12 13  1  0
 13  9  2  0
  1 14  1  0
  1 15  1  0
  4 16  1  0
  4 17  1  0
  7 18  1  0
  8 19  1  0
  8 20  1  0
 10 21  1  0
 11 22  1  0
 12 23  1  0
M  END
$$$$

     RDKit          3D

 23 23  0  0  0  0  0  0  0  0999 V2000
    4.2937    0.5741   -0.4819 N   0  0  0  0  0  0  0  0  0  0  0  0
    3.7981   -0.4412    0.3707 C   0  0  0  0  0  0  0  0  0  0  0  0
    4.4933   -0.8133    1.3426 O   0  0  0  0  0  0  0  0  0  0  0  0
    2.4711   -1.0221    0.0783 C   0  0  0  0  0  0  0  0  0  0  0  0
    1.4363    0.0043    0.3071 C   0  0  0  0  0  0  0  0  0  0  0  0
    1.7817    1.1483    0.7262 O   0  0  0  0  0  0  0  0  0  0  0  0
    0.0580   -0.2062    0.0849 N   0  0  0  0  0  0  0  0  0  0  0  0
   -0.8687    0.8559    0.3285 C   0  0  0  0  0  0  0  0  0  0  0  0
   -2.2731    0.4997    0.0580 C   0  0  0  0  0  0  0  0  0  0  0  0
   -2.8394   -0.7428   -0.0706 C   0  0  0  0  0  0  0  0  0  0  0  0
   -4.1917   -0.5888   -0.3351 C   0  0  0  0  0  0  0  0  0  0  0  0
   -4.3950    0.7599   -0.3556 N   0  0  0  0  0  0  0  0  0  0  0  0
   -3.2805    1.4041   -0.1265 N   0  0  0  0  0  0  0  0  0  0  0  0
    4.3030    1.5785   -0.2297 H   0  0  0  0  0  0  0  0  0  0  0  0
    4.6720    0.3043   -1.4146 H   0  0  0  0  0  0  0  0  0  0  0  0
    2.3091   -1.9118    0.7413 H   0  0  0  0  0  0  0  0  0  0  0  0
    2.4359   -1.2755   -0.9961 H   0  0  0  0  0  0  0  0  0  0  0  0
   -0.2795   -1.1231   -0.2516 H   0  0  0  0  0  0  0  0  0  0  0  0
   -0.5985    1.7306   -0.3383 H   0  0  0  0  0  0  0  0  0  0  0  0
   -0.7143    1.1937    1.3807 H   0  0  0  0  0  0  0  0  0  0  0  0
   -2.3128   -1.6852    0.0252 H   0  0  0  0  0  0  0  0  0  0  0  0
   -4.9352   -1.3782   -0.4876 H   0  0  0  0  0  0  0  0  0  0  0  0
   -5.3635    1.1347   -0.5417 H   0  0  0  0  0  0  0  0  0  0  0  0
  1  2  1  0
  2  3  2  0
  2  4  1  0
  4  5  1  0
  5  6  2  0
  5  7  1  0
  7  8  1  0
  8  9  1  0
  9 10  1  0
 10 11  2  0
 11 12  1  0
 12 13  1  0
 13  9  2  0
  1 14  1  0
  1 15  1  0
  4 16  1  0
  4 17  1  0
  7 18  1  0
  8 19  1  0
  8 20  1  0
 10 21  1  0
 11 22  1  0
 12 23  1  0
M  END
$$$$

     RDKit          3D

 23 23  0  0  0  0  0  0  0  0999 V2000
    3.4967    0.7180    0.9989 N   0  0  0  0  0  0  0  0  0  0  0  0
    3.1801    1.3766   -0.2030 C   0  0  0  0  0  0  0  0  0  0  0  0
    3.6542    2.4921   -0.4658 O   0  0  0  0  0  0  0  0  0  0  0  0
    2.2702    0.7238   -1.1654 C   0  0  0  0  0  0  0  0  0  0  0  0
    1.2034   -0.0541   -0.4804 C   0  0  0  0  0  0  0  0  0  0  0  0
    1.1512   -0.0626    0.7700 O   0  0  0  0  0  0  0  0  0  0  0  0
    0.2683   -0.7699   -1.2615 N   0  0  0  0  0  0  0  0  0  0  0  0
   -0.8136   -1.5550   -0.6506 C   0  0  0  0  0  0  0  0  0  0  0  0
   -1.9237   -0.7007   -0.1864 C   0  0  0  0  0  0  0  0  0  0  0  0
   -2.7330   -0.9772    0.8926 C   0  0  0  0  0  0  0  0  0  0  0  0
   -3.6681    0.0398    1.0278 C   0  0  0  0  0  0  0  0  0  0  0  0
   -3.3916    0.9046    0.0171 N   0  0  0  0  0  0  0  0  0  0  0  0
   -2.3725    0.4680   -0.6884 N   0  0  0  0  0  0  0  0  0  0  0  0
    4.0022   -0.2083    0.9456 H   0  0  0  0  0  0  0  0  0  0  0  0
    3.2671    1.0787    1.9580 H   0  0  0  0  0  0  0  0  0  0  0  0
    1.7958    1.5175   -1.8100 H   0  0  0  0  0  0  0  0  0  0  0  0
    2.9035    0.0526   -1.8076 H   0  0  0  0  0  0  0  0  0  0  0  0
    0.3599   -0.7288   -2.2935 H   0  0  0  0  0  0  0  0  0  0  0  0
   -0.3988   -2.0822    0.2456 H   0  0  0  0  0  0  0  0  0  0  0  0
   -1.1670   -2.3365   -1.3711 H   0  0  0  0  0  0  0  0  0  0  0  0
   -2.6883   -1.8409    1.5646 H   0  0  0  0  0  0  0  0  0  0  0  0
   -4.4532    0.1491    1.7619 H   0  0  0  0  0  0  0  0  0  0  0  0
   -3.9429    1.7954   -0.1438 H   0  0  0  0  0  0  0  0  0  0  0  0
  1  2  1  0
  2  3  2  0
  2  4  1  0
  4  5  1  0
  5  6  2  0
  5  7  1  0
  7  8  1  0
  8  9  1  0
  9 10  1  0
 10 11  2  0
 11 12  1  0
 12 13  1  0
 13  9  2  0
  1 14  1  0
  1 15  1  0
  4 16  1  0
  4 17  1  0
  7 18  1  0
  8 19  1  0
  8 20  1  0
 10 21  1  0
 11 22  1  0
 12 23  1  0
M  END
$$$$

     RDKit          3D

 23 23  0  0  0  0  0  0  0  0999 V2000
    4.3757    1.3658   -0.0400 N   0  0  0  0  0  0  0  0  0  0  0  0
    3.0703    1.0380   -0.5064 C   0  0  0  0  0  0  0  0  0  0  0  0
    2.5533    1.6903   -1.4256 O   0  0  0  0  0  0  0  0  0  0  0  0
    2.3592   -0.0938    0.1347 C   0  0  0  0  0  0  0  0  0  0  0  0
    1.0193   -0.3064   -0.4726 C   0  0  0  0  0  0  0  0  0  0  0  0
    0.6014    0.4446   -1.3861 O   0  0  0  0  0  0  0  0  0  0  0  0
    0.1810   -1.3601   -0.0372 N   0  0  0  0  0  0  0  0  0  0  0  0
   -1.1480   -1.5937   -0.6198 C   0  0  0  0  0  0  0  0  0  0  0  0
   -2.0743   -0.5883   -0.0716 C   0  0  0  0  0  0  0  0  0  0  0  0
   -3.4208   -0.4571   -0.3753 C   0  0  0  0  0  0  0  0  0  0  0  0
   -3.8871    0.5979    0.3558 C   0  0  0  0  0  0  0  0  0  0  0  0
   -2.8769    1.1049    1.0858 N   0  0  0  0  0  0  0  0  0  0  0  0
   -1.8154    0.3818    0.8117 N   0  0  0  0  0  0  0  0  0  0  0  0
    4.6326    1.3836    0.9578 H   0  0  0  0  0  0  0  0  0  0  0  0
    5.0951    1.5991   -0.7880 H   0  0  0  0  0  0  0  0  0  0  0  0
    2.9054   -1.0546    0.0564 H   0  0  0  0  0  0  0  0  0  0  0  0
    2.2692    0.1047    1.2417 H   0  0  0  0  0  0  0  0  0  0  0  0
    0.5587   -1.9743    0.7318 H   0  0  0  0  0  0  0  0  0  0  0  0
   -1.1163   -1.4831   -1.7223 H   0  0  0  0  0  0  0  0  0  0  0  0
   -1.4110   -2.6309   -0.4101 H   0  0  0  0  0  0  0  0  0  0  0  0
   -4.0122   -1.0594   -1.0560 H   0  0  0  0  0  0  0  0  0  0  0  0
   -4.9055    0.9676    0.3499 H   0  0  0  0  0  0  0  0  0  0  0  0
   -2.9537    1.9236    1.7417 H   0  0  0  0  0  0  0  0  0  0  0  0
  1  2  1  0
  2  3  2  0
  2  4  1  0
  4  5  1  0
  5  6  2  0
  5  7  1  0
  7  8  1  0
  8  9  1  0
  9 10  1  0
 10 11  2  0
 11 12  1  0
 12 13  1  0
 13  9  2  0
  1 14  1  0
  1 15  1  0
  4 16  1  0
  4 17  1  0
  7 18  1  0
  8 19  1  0
  8 20  1  0
 10 21  1  0
 11 22  1  0
 12 23  1  0
M  END
$$$$

     RDKit          3D

 23 23  0  0  0  0  0  0  0  0999 V2000
    3.3319   -0.8848    1.2456 N   0  0  0  0  0  0  0  0  0  0  0  0
    3.5566   -0.3651   -0.0564 C   0  0  0  0  0  0  0  0  0  0  0  0
    4.6896   -0.5608   -0.5644 O   0  0  0  0  0  0  0  0  0  0  0  0
    2.5643    0.3744   -0.8341 C   0  0  0  0  0  0  0  0  0  0  0  0
    1.2690    0.5305   -0.1038 C   0  0  0  0  0  0  0  0  0  0  0  0
    1.0763    0.0615    1.0474 O   0  0  0  0  0  0  0  0  0  0  0  0
    0.1791    1.2302   -0.6932 N   0  0  0  0  0  0  0  0  0  0  0  0
   -1.0930    1.4267   -0.0671 C   0  0  0  0  0  0  0  0  0  0  0  0
   -1.9515    0.2264   -0.0760 C   0  0  0  0  0  0  0  0  0  0  0  0
   -3.2299    0.2338    0.4700 C   0  0  0  0  0  0  0  0  0  0  0  0
   -3.7794   -1.0213    0.3126 C   0  0  0  0  0  0  0  0  0  0  0  0
   -2.8412   -1.7496   -0.3133 N   0  0  0  0  0  0  0  0  0  0  0  0
   -1.7538   -1.0042   -0.5435 N   0  0  0  0  0  0  0  0  0  0  0  0
    3.3577   -1.9437    1.3253 H   0  0  0  0  0  0  0  0  0  0  0  0
    3.1550   -0.2708    2.0584 H   0  0  0  0  0  0  0  0  0  0  0  0
    2.3192   -0.2571   -1.7361 H   0  0  0  0  0  0  0  0  0  0  0  0
    2.9409    1.3593   -1.1951 H   0  0  0  0  0  0  0  0  0  0  0  0
    0.3758    1.6141   -1.6674 H   0  0  0  0  0  0  0  0  0  0  0  0
   -1.6364    2.2207   -0.6168 H   0  0  0  0  0  0  0  0  0  0  0  0
   -1.0246    1.7836    0.9800 H   0  0  0  0  0  0  0  0  0  0  0  0
   -3.7490    1.0623    0.9494 H   0  0  0  0  0  0  0  0  0  0  0  0
   -4.7770   -1.3167    0.6445 H   0  0  0  0  0  0  0  0  0  0  0  0
   -2.9796   -2.7495   -0.5661 H   0  0  0  0  0  0  0  0  0  0  0  0
  1  2  1  0
  2  3  2  0
  2  4  1  0
  4  5  1  0
  5  6  2  0
  5  7  1  0
  7  8  1  0
  8  9  1  0
  9 10  1  0
 10 11  2  0
 11 12  1  0
 12 13  1  0
 13  9  2  0
  1 14  1  0
  1 15  1  0
  4 16  1  0
  4 17  1  0
  7 18  1  0
  8 19  1  0
  8 20  1  0
 10 21  1  0
 11 22  1  0
 12 23  1  0
M  END
$$$$

     RDKit          3D

 23 23  0  0  0  0  0  0  0  0999 V2000
   -3.0825    0.3426    1.4546 N   0  0  0  0  0  0  0  0  0  0  0  0
   -3.3193    0.7505    0.1314 C   0  0  0  0  0  0  0  0  0  0  0  0
   -4.3579    1.4067   -0.1420 O   0  0  0  0  0  0  0  0  0  0  0  0
   -2.3703    0.4207   -0.9394 C   0  0  0  0  0  0  0  0  0  0  0  0
   -1.2267   -0.3239   -0.3839 C   0  0  0  0  0  0  0  0  0  0  0  0
   -1.1820   -0.5775    0.8388 O   0  0  0  0  0  0  0  0  0  0  0  0
   -0.1700   -0.7611   -1.2123 N   0  0  0  0  0  0  0  0  0  0  0  0
    0.9447   -1.4874   -0.6632 C   0  0  0  0  0  0  0  0  0  0  0  0
    1.8564   -0.5588    0.0546 C   0  0  0  0  0  0  0  0  0  0  0  0
    2.9281    0.1247   -0.5199 C   0  0  0  0  0  0  0  0  0  0  0  0
    3.5450    0.8906    0.4471 C   0  0  0  0  0  0  0  0  0  0  0  0
    2.8532    0.6674    1.5778 N   0  0  0  0  0  0  0  0  0  0  0  0
    1.8559   -0.1909    1.3383 N   0  0  0  0  0  0  0  0  0  0  0  0
   -3.3302   -0.6401    1.7610 H   0  0  0  0  0  0  0  0  0  0  0  0
   -2.6653    0.9544    2.1889 H   0  0  0  0  0  0  0  0  0  0  0  0
   -2.9000   -0.1645   -1.7226 H   0  0  0  0  0  0  0  0  0  0  0  0
   -1.9801    1.3229   -1.4742 H   0  0  0  0  0  0  0  0  0  0  0  0
   -0.1961   -0.5573   -2.2279 H   0  0  0  0  0  0  0  0  0  0  0  0
    1.5017   -1.9993   -1.4832 H   0  0  0  0  0  0  0  0  0  0  0  0
    0.6246   -2.2943    0.0268 H   0  0  0  0  0  0  0  0  0  0  0  0
    3.1887    0.0308   -1.5668 H   0  0  0  0  0  0  0  0  0  0  0  0
    4.4039    1.5347    0.3223 H   0  0  0  0  0  0  0  0  0  0  0  0
    3.0783    1.1089    2.4946 H   0  0  0  0  0  0  0  0  0  0  0  0
  1  2  1  0
  2  3  2  0
  2  4  1  0
  4  5  1  0
  5  6  2  0
  5  7  1  0
  7  8  1  0
  8  9  1  0
  9 10  1  0
 10 11  2  0
 11 12  1  0
 12 13  1  0
 13  9  2  0
  1 14  1  0
  1 15  1  0
  4 16  1  0
  4 17  1  0
  7 18  1  0
  8 19  1  0
  8 20  1  0
 10 21  1  0
 11 22  1  0
 12 23  1  0
M  END
$$$$

     RDKit          3D

 23 23  0  0  0  0  0  0  0  0999 V2000
    4.4107    0.5267   -1.2701 N   0  0  0  0  0  0  0  0  0  0  0  0
    3.0856    0.0601   -1.2893 C   0  0  0  0  0  0  0  0  0  0  0  0
    2.5208   -0.2398   -2.3657 O   0  0  0  0  0  0  0  0  0  0  0  0
    2.3832   -0.0609    0.0357 C   0  0  0  0  0  0  0  0  0  0  0  0
    1.0111   -0.5665   -0.2302 C   0  0  0  0  0  0  0  0  0  0  0  0
    0.5924   -0.8234   -1.3895 O   0  0  0  0  0  0  0  0  0  0  0  0
    0.1637   -0.7559    0.8954 N   0  0  0  0  0  0  0  0  0  0  0  0
   -1.1786   -1.2381    0.7629 C   0  0  0  0  0  0  0  0  0  0  0  0
   -2.1000   -0.1658    0.2561 C   0  0  0  0  0  0  0  0  0  0  0  0
   -3.4442   -0.3250    0.0303 C   0  0  0  0  0  0  0  0  0  0  0  0
   -3.8932    0.8933   -0.4236 C   0  0  0  0  0  0  0  0  0  0  0  0
   -2.8505    1.7195   -0.4577 N   0  0  0  0  0  0  0  0  0  0  0  0
   -1.7881    1.0872   -0.0537 N   0  0  0  0  0  0  0  0  0  0  0  0
    4.9972    0.4542   -2.1512 H   0  0  0  0  0  0  0  0  0  0  0  0
    4.8577    0.9471   -0.4262 H   0  0  0  0  0  0  0  0  0  0  0  0
    2.9343   -0.7735    0.6699 H   0  0  0  0  0  0  0  0  0  0  0  0
    2.3859    0.9382    0.5149 H   0  0  0  0  0  0  0  0  0  0  0  0
    0.5254   -0.5369    1.8669 H   0  0  0  0  0  0  0  0  0  0  0  0
   -1.2211   -2.1333    0.0894 H   0  0  0  0  0  0  0  0  0  0  0  0
   -1.5700   -1.5822    1.7420 H   0  0  0  0  0  0  0  0  0  0  0  0
   -4.0369   -1.2379    0.1820 H   0  0  0  0  0  0  0  0  0  0  0  0
   -4.9251    1.0791   -0.6885 H   0  0  0  0  0  0  0  0  0  0  0  0
   -2.8603    2.7336   -0.7615 H   0  0  0  0  0  0  0  0  0  0  0  0
  1  2  1  0
  2  3  2  0
  2  4  1  0
  4  5  1  0
  5  6  2  0
  5  7  1  0
  7  8  1  0
  8  9  1  0
  9 10  1  0
 10 11  2  0
 11 12  1  0
 12 13  1  0
 13  9  2  0
  1 14  1  0
  1 15  1  0
  4 16  1  0
  4 17  1  0
  7 18  1  0
  8 19  1  0
  8 20  1  0
 10 21  1  0
 11 22  1  0
 12 23  1  0
M  END
$$$$
