
     RDKit          3D

 28 27  0  0  0  0  0  0  0  0999 V2000
    3.9865    1.1771    1.0832 C   0  0  0  0  0  0  0  0  0  0  0  0
    4.0327    0.6259   -0.2299 O   0  0  0  0  0  0  0  0  0  0  0  0
    3.5549   -0.6614   -0.1174 N   0  0  0  0  0  0  0  0  0  0  0  0
    2.6112   -0.9340   -1.1691 C   0  0  0  0  0  0  0  0  0  0  0  0
    1.2651   -0.4560   -0.7568 C   0  0  0  0  0  0  0  0  0  0  0  0
    1.1555    0.1920    0.2851 O   0  0  0  0  0  0  0  0  0  0  0  0
    0.0776   -0.7077   -1.5261 N   0  0  0  0  0  0  0  0  0  0  0  0
   -1.1892   -0.1999   -1.1481 C   0  0  0  0  0  0  0  0  0  0  0  0
   -1.6260   -0.4812    0.2397 C   0  0  0  0  0  0  0  0  0  0  0  0
   -0.9410   -1.1390    1.0260 O   0  0  0  0  0  0  0  0  0  0  0  0
   -2.8668    0.0473    0.6321 N   0  0  0  0  0  0  0  0  0  0  0  0
   -3.7239    0.7153   -0.3437 C   0  0  0  0  0  0  0  0  0  0  0  0
   -3.2958   -0.0121    2.0071 C   0  0  0  0  0  0  0  0  0  0  0  0
    4.9322    1.7605    1.1671 H   0  0  0  0  0  0  0  0  0  0  0  0
    3.9542    0.3106    1.8160 H   0  0  0  0  0  0  0  0  0  0  0  0
    3.1315    1.8403    1.1596 H   0  0  0  0  0  0  0  0  0  0  0  0
    4.4071   -1.3148   -0.3703 H   0  0  0  0  0  0  0  0  0  0  0  0
    2.5879   -2.0266   -1.4305 H   0  0  0  0  0  0  0  0  0  0  0  0
    2.8834   -0.3566   -2.0844 H   0  0  0  0  0  0  0  0  0  0  0  0
    0.2113   -1.2794   -2.3848 H   0  0  0  0  0  0  0  0  0  0  0  0
   -1.2223    0.9123   -1.3195 H   0  0  0  0  0  0  0  0  0  0  0  0
   -1.9732   -0.6425   -1.8095 H   0  0  0  0  0  0  0  0  0  0  0  0
   -4.7418    0.9069    0.0069 H   0  0  0  0  0  0  0  0  0  0  0  0
   -3.2251    1.6555   -0.6688 H   0  0  0  0  0  0  0  0  0  0  0  0
   -3.8058    0.1165   -1.2753 H   0  0  0  0  0  0  0  0  0  0  0  0
   -2.8079   -0.8194    2.5930 H   0  0  0  0  0  0  0  0  0  0  0  0
   -4.3855   -0.1547    2.0955 H   0  0  0  0  0  0  0  0  0  0  0  0
   -2.9867    0.9252    2.5230 H   0  0  0  0  0  0  0  0  0  0  0  0
  1  2  1  0
  2  3  1  0
  3  4  1  0
  4  5  1  0
  5  6  2  0
  5  7  1  0
  7  8  1  0
  8  9  1  0
  9 10  2  0
  9 11  1  0
 11 12  1  0
 11 13  1  0
  1 14  1  0
  1 15  1  0
  1 16  1  0
  3 17  1  0
  4 18  1  0
  4 19  1  0
  7 20  1  0
  8 21  1  0
  8 22  1  0
 12 23  1  0
 12 24  1  0
 12 25  1  0
 13 26  1  0
 13 27  1  0
 13 28  1  0
M  END
$$$$

     RDKit          3D

 28 27  0  0  0  0  0  0  0  0999 V2000
    5.3313    0.3692    0.6046 C   0  0  0  0  0  0  0  0  0  0  0  0
    4.4225    1.4100    0.4592 O   0  0  0  0  0  0  0  0  0  0  0  0
    3.4488    0.9935   -0.3651 N   0  0  0  0  0  0  0  0  0  0  0  0
    2.1805    0.8176    0.3173 C   0  0  0  0  0  0  0  0  0  0  0  0
    1.2007    0.3580   -0.7068 C   0  0  0  0  0  0  0  0  0  0  0  0
    1.5065    0.1841   -1.9082 O   0  0  0  0  0  0  0  0  0  0  0  0
   -0.1773    0.0937   -0.3154 N   0  0  0  0  0  0  0  0  0  0  0  0
   -1.0269   -0.3366   -1.3559 C   0  0  0  0  0  0  0  0  0  0  0  0
   -2.4139   -0.6346   -1.1062 C   0  0  0  0  0  0  0  0  0  0  0  0
   -3.0546   -1.0149   -2.1776 O   0  0  0  0  0  0  0  0  0  0  0  0
   -3.2027   -0.5970    0.0474 N   0  0  0  0  0  0  0  0  0  0  0  0
   -4.6304   -0.9765   -0.0832 C   0  0  0  0  0  0  0  0  0  0  0  0
   -2.8110   -0.2326    1.3794 C   0  0  0  0  0  0  0  0  0  0  0  0
    6.2978    0.7390    1.0453 H   0  0  0  0  0  0  0  0  0  0  0  0
    4.9094   -0.4015    1.2646 H   0  0  0  0  0  0  0  0  0  0  0  0
    5.5581   -0.0217   -0.3900 H   0  0  0  0  0  0  0  0  0  0  0  0
    3.2918    1.7721   -1.0673 H   0  0  0  0  0  0  0  0  0  0  0  0
    1.8718    1.7668    0.7881 H   0  0  0  0  0  0  0  0  0  0  0  0
    2.3531    0.0146    1.0795 H   0  0  0  0  0  0  0  0  0  0  0  0
   -0.3817    0.2528    0.6884 H   0  0  0  0  0  0  0  0  0  0  0  0
   -0.5704   -1.2753   -1.8248 H   0  0  0  0  0  0  0  0  0  0  0  0
   -0.9643    0.3950   -2.2303 H   0  0  0  0  0  0  0  0  0  0  0  0
   -4.9993   -1.4372    0.8451 H   0  0  0  0  0  0  0  0  0  0  0  0
   -5.1607   -0.0152   -0.2455 H   0  0  0  0  0  0  0  0  0  0  0  0
   -4.7694   -1.6119   -0.9843 H   0  0  0  0  0  0  0  0  0  0  0  0
   -2.4815    0.8186    1.4971 H   0  0  0  0  0  0  0  0  0  0  0  0
   -2.0462   -0.9835    1.7189 H   0  0  0  0  0  0  0  0  0  0  0  0
   -3.6820   -0.4464    2.0632 H   0  0  0  0  0  0  0  0  0  0  0  0
  1  2  1  0
  2  3  1  0
  3  4  1  0
  4  5  1  0
  5  6  2  0
  5  7  1  0
  7  8  1  0
  8  9  1  0
  9 10  2  0
  9 11  1  0
 11 12  1  0
 11 13  1  0
  1 14  1  0
  1 15  1  0
  1 16  1  0
  3 17  1  0
  4 18  1  0
  4 19  1  0
  7 20  1  0
  8 21  1  0
  8 22  1  0
 12 23  1  0
 12 24  1  0
 12 25  1  0
 13 26  1  0
 13 27  1  0
 13 28  1  0
M  END
$$$$

     RDKit          3D

 28 27  0  0  0  0  0  0  0  0999 V2000
    5.0862    0.7401   -0.2057 C   0  0  0  0  0  0  0  0  0  0  0  0
    4.3621   -0.0141    0.7172 O   0  0  0  0  0  0  0  0  0  0  0  0
    3.0475    0.2015    0.4634 N   0  0  0  0  0  0  0  0  0  0  0  0
    2.5058   -0.7986   -0.4290 C   0  0  0  0  0  0  0  0  0  0  0  0
    1.0884   -0.5259   -0.6876 C   0  0  0  0  0  0  0  0  0  0  0  0
    0.4333   -1.2938   -1.4445 O   0  0  0  0  0  0  0  0  0  0  0  0
    0.4323    0.5855   -0.1054 N   0  0  0  0  0  0  0  0  0  0  0  0
   -0.9689    0.8242   -0.3822 C   0  0  0  0  0  0  0  0  0  0  0  0
   -1.8074   -0.3185    0.0562 C   0  0  0  0  0  0  0  0  0  0  0  0
   -1.2373   -1.3095    0.5896 O   0  0  0  0  0  0  0  0  0  0  0  0
   -3.2094   -0.2861   -0.1246 N   0  0  0  0  0  0  0  0  0  0  0  0
   -3.8247    0.8550   -0.7339 C   0  0  0  0  0  0  0  0  0  0  0  0
   -3.9921   -1.4333    0.3225 C   0  0  0  0  0  0  0  0  0  0  0  0
    5.1026    1.8090    0.1123 H   0  0  0  0  0  0  0  0  0  0  0  0
    4.5688    0.6513   -1.1852 H   0  0  0  0  0  0  0  0  0  0  0  0
    6.1460    0.4018   -0.2577 H   0  0  0  0  0  0  0  0  0  0  0  0
    2.4946    0.2819    1.3485 H   0  0  0  0  0  0  0  0  0  0  0  0
    2.6552   -1.8216   -0.0274 H   0  0  0  0  0  0  0  0  0  0  0  0
    3.0669   -0.7519   -1.3796 H   0  0  0  0  0  0  0  0  0  0  0  0
    0.9237    1.2535    0.5254 H   0  0  0  0  0  0  0  0  0  0  0  0
   -1.0890    0.8994   -1.4969 H   0  0  0  0  0  0  0  0  0  0  0  0
   -1.3049    1.7562    0.1111 H   0  0  0  0  0  0  0  0  0  0  0  0
   -3.2886    1.1370   -1.6625 H   0  0  0  0  0  0  0  0  0  0  0  0
   -4.8865    0.6303   -1.0016 H   0  0  0  0  0  0  0  0  0  0  0  0
   -3.8004    1.7361   -0.0506 H   0  0  0  0  0  0  0  0  0  0  0  0
   -5.0691   -1.1989    0.3767 H   0  0  0  0  0  0  0  0  0  0  0  0
   -3.6612   -1.7049    1.3615 H   0  0  0  0  0  0  0  0  0  0  0  0
   -3.7739   -2.3057   -0.3186 H   0  0  0  0  0  0  0  0  0  0  0  0
  1  2  1  0
  2  3  1  0
  3  4  1  0
  4  5  1  0
  5  6  2  0
  5  7  1  0
  7  8  1  0
  8  9  1  0
  9 10  2  0
  9 11  1  0
 11 12  1  0
 11 13  1  0
  1 14  1  0
  1 15  1  0
  1 16  1  0
  3 17  1  0
  4 18  1  0
  4 19  1  0
  7 20  1  0
  8 21  1  0
  8 22  1  0
 12 23  1  0
 12 24  1  0
 12 25  1  0
 13 26  1  0
 13 27  1  0
 13 28  1  0
M  END
$$$$

     RDKit          3D

 28 27  0  0  0  0  0  0  0  0999 V2000
    4.9565   -0.6689   -0.6201 C   0  0  0  0  0  0  0  0  0  0  0  0
    4.1032   -0.1464   -1.5699 O   0  0  0  0  0  0  0  0  0  0  0  0
    2.9062    0.0981   -0.9494 N   0  0  0  0  0  0  0  0  0  0  0  0
    2.2579   -1.1775   -0.8205 C   0  0  0  0  0  0  0  0  0  0  0  0
    0.9382   -1.0028   -0.1688 C   0  0  0  0  0  0  0  0  0  0  0  0
    0.1824   -2.0122    0.0556 O   0  0  0  0  0  0  0  0  0  0  0  0
    0.5243    0.3023    0.2027 N   0  0  0  0  0  0  0  0  0  0  0  0
   -0.7418    0.5007    0.8314 C   0  0  0  0  0  0  0  0  0  0  0  0
   -1.8271    0.0412   -0.0615 C   0  0  0  0  0  0  0  0  0  0  0  0
   -1.4964   -0.4316   -1.1914 O   0  0  0  0  0  0  0  0  0  0  0  0
   -3.2031    0.1149    0.3078 N   0  0  0  0  0  0  0  0  0  0  0  0
   -4.2044   -0.3541   -0.6189 C   0  0  0  0  0  0  0  0  0  0  0  0
   -3.5411    0.6559    1.5948 C   0  0  0  0  0  0  0  0  0  0  0  0
    5.8543    0.0128   -0.5615 H   0  0  0  0  0  0  0  0  0  0  0  0
    4.5355   -0.7240    0.3867 H   0  0  0  0  0  0  0  0  0  0  0  0
    5.3561   -1.6669   -0.8953 H   0  0  0  0  0  0  0  0  0  0  0  0
    3.0881    0.5358   -0.0113 H   0  0  0  0  0  0  0  0  0  0  0  0
    2.8394   -1.8907   -0.2015 H   0  0  0  0  0  0  0  0  0  0  0  0
    2.0860   -1.5997   -1.8331 H   0  0  0  0  0  0  0  0  0  0  0  0
    1.1552    1.1040    0.0079 H   0  0  0  0  0  0  0  0  0  0  0  0
   -0.8390   -0.0861    1.7761 H   0  0  0  0  0  0  0  0  0  0  0  0
   -0.8625    1.5693    1.1111 H   0  0  0  0  0  0  0  0  0  0  0  0
   -4.4277   -1.4209   -0.3253 H   0  0  0  0  0  0  0  0  0  0  0  0
   -3.7750   -0.3464   -1.6423 H   0  0  0  0  0  0  0  0  0  0  0  0
   -5.1296    0.2570   -0.5906 H   0  0  0  0  0  0  0  0  0  0  0  0
   -3.1071   -0.0131    2.3744 H   0  0  0  0  0  0  0  0  0  0  0  0
   -3.0154    1.6485    1.6846 H   0  0  0  0  0  0  0  0  0  0  0  0
   -4.6134    0.8366    1.7284 H   0  0  0  0  0  0  0  0  0  0  0  0
  1  2  1  0
  2  3  1  0
  3  4  1  0
  4  5  1  0
  5  6  2  0
  5  7  1  0
  7  8  1  0
  8  9  1  0
  9 10  2  0
  9 11  1  0
 11 12  1  0
 11 13  1  0
  1 14  1  0
  1 15  1  0
  1 16  1  0
  3 17  1  0
  4 18  1  0
  4 19  1  0
  7 20  1  0
  8 21  1  0
  8 22  1  0
 12 23  1  0
 12 24  1  0
 12 25  1  0
 13 26  1  0
 13 27  1  0
 13 28  1  0
M  END
$$$$

     RDKit          3D

 28 27  0  0  0  0  0  0  0  0999 V2000
    5.3279   -0.6767    0.2210 C   0  0  0  0  0  0  0  0  0  0  0  0
    4.4713    0.2628   -0.3800 O   0  0  0  0  0  0  0  0  0  0  0  0
    3.1948    0.0360   -0.1250 N   0  0  0  0  0  0  0  0  0  0  0  0
    2.4080    1.2277    0.0779 C   0  0  0  0  0  0  0  0  0  0  0  0
    0.9955    0.9507    0.3592 C   0  0  0  0  0  0  0  0  0  0  0  0
    0.2126    1.9168    0.5536 O   0  0  0  0  0  0  0  0  0  0  0  0
    0.4274   -0.3514    0.4315 N   0  0  0  0  0  0  0  0  0  0  0  0
   -0.9807   -0.5699    0.7138 C   0  0  0  0  0  0  0  0  0  0  0  0
   -1.8360    0.0749   -0.3141 C   0  0  0  0  0  0  0  0  0  0  0  0
   -1.2974    0.7012   -1.2592 O   0  0  0  0  0  0  0  0  0  0  0  0
   -3.2360   -0.0378   -0.1947 N   0  0  0  0  0  0  0  0  0  0  0  0
   -4.0939    0.5854   -1.1895 C   0  0  0  0  0  0  0  0  0  0  0  0
   -3.8594   -0.7491    0.8783 C   0  0  0  0  0  0  0  0  0  0  0  0
    5.3372   -1.6376   -0.3215 H   0  0  0  0  0  0  0  0  0  0  0  0
    6.3565   -0.2793    0.3267 H   0  0  0  0  0  0  0  0  0  0  0  0
    4.8588   -0.8873    1.2266 H   0  0  0  0  0  0  0  0  0  0  0  0
    2.7382   -0.6651   -0.7407 H   0  0  0  0  0  0  0  0  0  0  0  0
    2.8863    1.7791    0.9309 H   0  0  0  0  0  0  0  0  0  0  0  0
    2.5674    1.8776   -0.8161 H   0  0  0  0  0  0  0  0  0  0  0  0
    1.0388   -1.1558    0.2780 H   0  0  0  0  0  0  0  0  0  0  0  0
   -1.2757   -0.1040    1.6892 H   0  0  0  0  0  0  0  0  0  0  0  0
   -1.1961   -1.6347    0.7763 H   0  0  0  0  0  0  0  0  0  0  0  0
   -4.0217    1.6748   -1.0750 H   0  0  0  0  0  0  0  0  0  0  0  0
   -3.7336    0.2222   -2.1849 H   0  0  0  0  0  0  0  0  0  0  0  0
   -5.1468    0.2550   -1.0891 H   0  0  0  0  0  0  0  0  0  0  0  0
   -4.5004   -0.0483    1.4377 H   0  0  0  0  0  0  0  0  0  0  0  0
   -4.5117   -1.5690    0.5078 H   0  0  0  0  0  0  0  0  0  0  0  0
   -3.1313   -1.1982    1.5762 H   0  0  0  0  0  0  0  0  0  0  0  0
  1  2  1  0
  2  3  1  0
  3  4  1  0
  4  5  1  0
  5  6  2  0
  5  7  1  0
  7  8  1  0
  8  9  1  0
  9 10  2  0
  9 11  1  0
 11 12  1  0
 11 13  1  0
  1 14  1  0
  1 15  1  0
  1 16  1  0
  3 17  1  0
  4 18  1  0
  4 19  1  0
  7 20  1  0
  8 21  1  0
  8 22  1  0
 12 23  1  0
 12 24  1  0
 12 25  1  0
 13 26  1  0
 13 27  1  0
 13 28  1  0
M  END
$$$$

     RDKit          3D

 28 27  0  0  0  0  0  0  0  0999 V2000
    4.8508    0.2926    0.9302 C   0  0  0  0  0  0  0  0  0  0  0  0
    4.2555    1.0723   -0.0410 O   0  0  0  0  0  0  0  0  0  0  0  0
    2.9416    0.7671   -0.1492 N   0  0  0  0  0  0  0  0  0  0  0  0
    2.8136   -0.2907   -1.1294 C   0  0  0  0  0  0  0  0  0  0  0  0
    1.3960   -0.6867   -1.3059 C   0  0  0  0  0  0  0  0  0  0  0  0
    1.0691   -1.5914   -2.1153 O   0  0  0  0  0  0  0  0  0  0  0  0
    0.4071   -0.0176   -0.5357 N   0  0  0  0  0  0  0  0  0  0  0  0
   -0.9683   -0.4311   -0.7348 C   0  0  0  0  0  0  0  0  0  0  0  0
   -1.8785    0.3456    0.1259 C   0  0  0  0  0  0  0  0  0  0  0  0
   -1.4102    1.2174    0.8843 O   0  0  0  0  0  0  0  0  0  0  0  0
   -3.2627    0.1058    0.0924 N   0  0  0  0  0  0  0  0  0  0  0  0
   -4.1374    0.8864    0.9516 C   0  0  0  0  0  0  0  0  0  0  0  0
   -3.7793   -0.9160   -0.8004 C   0  0  0  0  0  0  0  0  0  0  0  0
    4.4135    0.4624    1.9528 H   0  0  0  0  0  0  0  0  0  0  0  0
    5.9288    0.4861    0.9911 H   0  0  0  0  0  0  0  0  0  0  0  0
    4.7397   -0.7782    0.6340 H   0  0  0  0  0  0  0  0  0  0  0  0
    2.3792    1.5947   -0.3663 H   0  0  0  0  0  0  0  0  0  0  0  0
    3.2203    0.0884   -2.0859 H   0  0  0  0  0  0  0  0  0  0  0  0
    3.3796   -1.1901   -0.8293 H   0  0  0  0  0  0  0  0  0  0  0  0
    0.6062    0.7398    0.1527 H   0  0  0  0  0  0  0  0  0  0  0  0
   -1.0797   -1.5099   -0.4444 H   0  0  0  0  0  0  0  0  0  0  0  0
   -1.2334   -0.3780   -1.8106 H   0  0  0  0  0  0  0  0  0  0  0  0
   -5.2046    0.6818    0.7492 H   0  0  0  0  0  0  0  0  0  0  0  0
   -3.9223    0.7128    2.0263 H   0  0  0  0  0  0  0  0  0  0  0  0
   -3.8843    1.9617    0.7615 H   0  0  0  0  0  0  0  0  0  0  0  0
   -3.5242   -0.6517   -1.8529 H   0  0  0  0  0  0  0  0  0  0  0  0
   -3.2609   -1.8832   -0.5783 H   0  0  0  0  0  0  0  0  0  0  0  0
   -4.8552   -1.0903   -0.6875 H   0  0  0  0  0  0  0  0  0  0  0  0
  1  2  1  0
  2  3  1  0
  3  4  1  0
  4  5  1  0
  5  6  2  0
  5  7  1  0
  7  8  1  0
  8  9  1  0
  9 10  2  0
  9 11  1  0
 11 12  1  0
 11 13  1  0
  1 14  1  0
  1 15  1  0
  1 16  1  0
  3 17  1  0
  4 18  1  0
  4 19  1  0
  7 20  1  0
  8 21  1  0
  8 22  1  0
 12 23  1  0
 12 24  1  0
 12 25  1  0
 13 26  1  0
 13 27  1  0
 13 28  1  0
M  END
$$$$

     RDKit          3D

 28 27  0  0  0  0  0  0  0  0999 V2000
    5.2516    0.2052   -0.4477 C   0  0  0  0  0  0  0  0  0  0  0  0
    4.4086    0.4981   -1.5151 O   0  0  0  0  0  0  0  0  0  0  0  0
    3.1660    0.0179   -1.3272 N   0  0  0  0  0  0  0  0  0  0  0  0
    2.4465    0.7404   -0.2918 C   0  0  0  0  0  0  0  0  0  0  0  0
    1.0976    0.1281   -0.1721 C   0  0  0  0  0  0  0  0  0  0  0  0
    0.7160   -0.8423   -0.8765 O   0  0  0  0  0  0  0  0  0  0  0  0
    0.1793    0.6507    0.7794 N   0  0  0  0  0  0  0  0  0  0  0  0
   -1.1457    0.0809    0.9260 C   0  0  0  0  0  0  0  0  0  0  0  0
   -1.9051    0.1784   -0.3403 C   0  0  0  0  0  0  0  0  0  0  0  0
   -1.3545    0.7138   -1.3506 O   0  0  0  0  0  0  0  0  0  0  0  0
   -3.2165   -0.3047   -0.4543 N   0  0  0  0  0  0  0  0  0  0  0  0
   -3.9705   -0.2183   -1.6783 C   0  0  0  0  0  0  0  0  0  0  0  0
   -3.8447   -0.9153    0.6974 C   0  0  0  0  0  0  0  0  0  0  0  0
    5.1625    1.0666    0.2689 H   0  0  0  0  0  0  0  0  0  0  0  0
    6.3137    0.1722   -0.7407 H   0  0  0  0  0  0  0  0  0  0  0  0
    4.9399   -0.7055    0.0704 H   0  0  0  0  0  0  0  0  0  0  0  0
    3.2290   -0.9783   -0.9897 H   0  0  0  0  0  0  0  0  0  0  0  0
    2.3907    1.8285   -0.5019 H   0  0  0  0  0  0  0  0  0  0  0  0
    3.0045    0.6516    0.6775 H   0  0  0  0  0  0  0  0  0  0  0  0
    0.4632    1.4603    1.3849 H   0  0  0  0  0  0  0  0  0  0  0  0
   -1.6908    0.5276    1.7592 H   0  0  0  0  0  0  0  0  0  0  0  0
   -1.0001   -1.0130    1.1680 H   0  0  0  0  0  0  0  0  0  0  0  0
   -4.4573   -1.2093   -1.8787 H   0  0  0  0  0  0  0  0  0  0  0  0
   -4.8200    0.4869   -1.5061 H   0  0  0  0  0  0  0  0  0  0  0  0
   -3.3515    0.1085   -2.5377 H   0  0  0  0  0  0  0  0  0  0  0  0
   -4.8926   -1.2172    0.4985 H   0  0  0  0  0  0  0  0  0  0  0  0
   -3.3068   -1.8550    0.9899 H   0  0  0  0  0  0  0  0  0  0  0  0
   -3.8128   -0.2568    1.5891 H   0  0  0  0  0  0  0  0  0  0  0  0
  1  2  1  0
  2  3  1  0
  3  4  1  0
  4  5  1  0
  5  6  2  0
  5  7  1  0
  7  8  1  0
  8  9  1  0
  9 10  2  0
  9 11  1  0
 11 12  1  0
 11 13  1  0
  1 14  1  0
  1 15  1  0
  1 16  1  0
  3 17  1  0
  4 18  1  0
  4 19  1  0
  7 20  1  0
  8 21  1  0
  8 22  1  0
 12 23  1  0
 12 24  1  0
 12 25  1  0
 13 26  1  0
 13 27  1  0
 13 28  1  0
M  END
$$$$

     RDKit          3D

 28 27  0  0  0  0  0  0  0  0999 V2000
   -5.0921   -0.1031   -0.6159 C   0  0  0  0  0  0  0  0  0  0  0  0
   -4.2579    0.7587   -1.2778 O   0  0  0  0  0  0  0  0  0  0  0  0
   -2.9719    0.5690   -0.9118 N   0  0  0  0  0  0  0  0  0  0  0  0
   -2.8343    0.3969    0.5184 C   0  0  0  0  0  0  0  0  0  0  0  0
   -1.4159    0.1897    0.8647 C   0  0  0  0  0  0  0  0  0  0  0  0
   -1.1296    0.0238    2.0931 O   0  0  0  0  0  0  0  0  0  0  0  0
   -0.3731    0.1681   -0.1013 N   0  0  0  0  0  0  0  0  0  0  0  0
    0.9777   -0.0447    0.3748 C   0  0  0  0  0  0  0  0  0  0  0  0
    1.9723   -0.0495   -0.6942 C   0  0  0  0  0  0  0  0  0  0  0  0
    1.6401    0.1181   -1.8904 O   0  0  0  0  0  0  0  0  0  0  0  0
    3.3386   -0.2473   -0.3747 N   0  0  0  0  0  0  0  0  0  0  0  0
    4.3533   -0.2586   -1.4067 C   0  0  0  0  0  0  0  0  0  0  0  0
    3.7720   -0.4459    0.9981 C   0  0  0  0  0  0  0  0  0  0  0  0
   -6.0876   -0.1469   -1.1026 H   0  0  0  0  0  0  0  0  0  0  0  0
   -5.2660    0.1911    0.4492 H   0  0  0  0  0  0  0  0  0  0  0  0
   -4.6683   -1.1277   -0.6059 H   0  0  0  0  0  0  0  0  0  0  0  0
   -2.3418    1.3124   -1.2841 H   0  0  0  0  0  0  0  0  0  0  0  0
   -3.2862    1.2651    1.0588 H   0  0  0  0  0  0  0  0  0  0  0  0
   -3.3884   -0.4966    0.8514 H   0  0  0  0  0  0  0  0  0  0  0  0
   -0.5867    0.3020   -1.1203 H   0  0  0  0  0  0  0  0  0  0  0  0
    1.0340   -0.9649    0.9863 H   0  0  0  0  0  0  0  0  0  0  0  0
    1.2123    0.8078    1.0546 H   0  0  0  0  0  0  0  0  0  0  0  0
    4.4578   -1.3167   -1.7414 H   0  0  0  0  0  0  0  0  0  0  0  0
    5.2966    0.1346   -1.0108 H   0  0  0  0  0  0  0  0  0  0  0  0
    3.9532    0.3856   -2.2382 H   0  0  0  0  0  0  0  0  0  0  0  0
    4.4447    0.3865    1.3146 H   0  0  0  0  0  0  0  0  0  0  0  0
    4.3468   -1.3912    1.0844 H   0  0  0  0  0  0  0  0  0  0  0  0
    2.9003   -0.4163    1.6885 H   0  0  0  0  0  0  0  0  0  0  0  0
  1  2  1  0
  2  3  1  0
  3  4  1  0
  4  5  1  0
  5  6  2  0
  5  7  1  0
  7  8  1  0
  8  9  1  0
  9 10  2  0
  9 11  1  0
 11 12  1  0
 11 13  1  0
  1 14  1  0
  1 15  1  0
  1 16  1  0
  3 17  1  0
  4 18  1  0
  4 19  1  0
  7 20  1  0
  8 21  1  0
  8 22  1  0
 12 23  1  0
 12 24  1  0
 12 25  1  0
 13 26  1  0
 13 27  1  0
 13 28  1  0
M  END
$$$$
