
     RDKit          3D

 27 27  0  0  0  0  0  0  0  0999 V2000
    2.7637    2.0574   -0.8018 O   0  0  0  0  0  0  0  0  0  0  0  0
    1.4892    1.5421   -0.4612 C   0  0  0  0  0  0  0  0  0  0  0  0
    1.7263    0.2686    0.3203 C   0  0  2  0  0  0  0  0  0  0  0  0
    2.4277   -0.6025   -0.4673 O   0  0  0  0  0  0  0  0  0  0  0  0
    0.4349   -0.2723    0.8891 C   0  0  2  0  0  0  0  0  0  0  0  0
    0.7252   -1.3659    1.6801 O   0  0  0  0  0  0  0  0  0  0  0  0
    0.6302   -2.4505    0.8415 C   0  0  0  0  0  0  0  0  0  0  0  0
   -0.4483   -2.1868    0.0365 O   0  0  0  0  0  0  0  0  0  0  0  0
   -0.5086   -0.7972   -0.1278 C   0  0  1  0  0  0  0  0  0  0  0  0
   -1.9553   -0.4411    0.1678 C   0  0  2  0  0  0  0  0  0  0  0  0
   -2.7447   -1.1689   -0.7692 O   0  0  0  0  0  0  0  0  0  0  0  0
   -2.2977    0.9914   -0.0577 C   0  0  0  0  0  0  0  0  0  0  0  0
   -1.6714    1.9030    0.7468 O   0  0  0  0  0  0  0  0  0  0  0  0
    2.8607    2.1193   -1.7990 H   0  0  0  0  0  0  0  0  0  0  0  0
    0.9717    2.2721    0.2061 H   0  0  0  0  0  0  0  0  0  0  0  0
    0.9056    1.3826   -1.3707 H   0  0  0  0  0  0  0  0  0  0  0  0
    2.4189    0.5681    1.1614 H   0  0  0  0  0  0  0  0  0  0  0  0
    2.9684   -0.1022   -1.1351 H   0  0  0  0  0  0  0  0  0  0  0  0
   -0.0075    0.5181    1.5403 H   0  0  0  0  0  0  0  0  0  0  0  0
    0.4736   -3.3996    1.4201 H   0  0  0  0  0  0  0  0  0  0  0  0
    1.5191   -2.5854    0.1824 H   0  0  0  0  0  0  0  0  0  0  0  0
   -0.2283   -0.5923   -1.1776 H   0  0  0  0  0  0  0  0  0  0  0  0
   -2.1982   -0.7735    1.1747 H   0  0  0  0  0  0  0  0  0  0  0  0
   -3.1407   -1.9656   -0.3146 H   0  0  0  0  0  0  0  0  0  0  0  0
   -2.2039    1.2516   -1.1349 H   0  0  0  0  0  0  0  0  0  0  0  0
   -3.4032    1.0802    0.1524 H   0  0  0  0  0  0  0  0  0  0  0  0
   -1.5074    2.7490    0.2478 H   0  0  0  0  0  0  0  0  0  0  0  0
  1  2  1  0
  2  3  1  0
  3  4  1  0
  3  5  1  0
  5  6  1  0
  6  7  1  0
  7  8  1  0
  8  9  1  0
  9 10  1  0
 10 11  1  0
 10 12  1  0
 12 13  1  0
  9  5  1  0
  1 14  1  0
  2 15  1  0
  2 16  1  0
  3 17  1  1
  4 18  1  0
  5 19  1  1
  7 20  1  0
  7 21  1  0
  9 22  1  6
 10 23  1  1
 11 24  1  0
 12 25  1  0
 12 26  1  0
 13 27  1  0
M  END
$$$$

     RDKit          3D

 27 27  0  0  0  0  0  0  0  0999 V2000
    0.4819    1.2810    2.1047 O   0  0  0  0  0  0  0  0  0  0  0  0
    1.6932    0.9312    1.5600 C   0  0  0  0  0  0  0  0  0  0  0  0
    1.7436    0.9804    0.0700 C   0  0  2  0  0  0  0  0  0  0  0  0
    1.4618    2.2434   -0.4367 O   0  0  0  0  0  0  0  0  0  0  0  0
    0.8595   -0.0397   -0.6192 C   0  0  2  0  0  0  0  0  0  0  0  0
    1.1275    0.0096   -1.9750 O   0  0  0  0  0  0  0  0  0  0  0  0
   -0.0723   -0.0043   -2.6105 C   0  0  0  0  0  0  0  0  0  0  0  0
   -0.9386    0.6596   -1.7710 O   0  0  0  0  0  0  0  0  0  0  0  0
   -0.6001    0.2196   -0.4702 C   0  0  1  0  0  0  0  0  0  0  0  0
   -1.4117   -1.0156   -0.2350 C   0  0  2  0  0  0  0  0  0  0  0  0
   -2.7771   -0.7818   -0.3215 O   0  0  0  0  0  0  0  0  0  0  0  0
   -1.1491   -1.7167    1.0563 C   0  0  0  0  0  0  0  0  0  0  0  0
   -1.5291   -1.0423    2.1900 O   0  0  0  0  0  0  0  0  0  0  0  0
    0.2946    0.8690    2.9749 H   0  0  0  0  0  0  0  0  0  0  0  0
    2.4901    1.6298    1.9478 H   0  0  0  0  0  0  0  0  0  0  0  0
    1.9638   -0.0669    1.9612 H   0  0  0  0  0  0  0  0  0  0  0  0
    2.8043    0.7304   -0.2307 H   0  0  0  0  0  0  0  0  0  0  0  0
    1.8772    2.3564   -1.3300 H   0  0  0  0  0  0  0  0  0  0  0  0
    1.1141   -1.0783   -0.2874 H   0  0  0  0  0  0  0  0  0  0  0  0
    0.0338    0.5413   -3.5768 H   0  0  0  0  0  0  0  0  0  0  0  0
   -0.4070   -1.0542   -2.7789 H   0  0  0  0  0  0  0  0  0  0  0  0
   -0.8523    1.0498    0.2047 H   0  0  0  0  0  0  0  0  0  0  0  0
   -1.1608   -1.7530   -1.0454 H   0  0  0  0  0  0  0  0  0  0  0  0
   -2.9514    0.1517   -0.5815 H   0  0  0  0  0  0  0  0  0  0  0  0
   -1.7336   -2.6705    1.0298 H   0  0  0  0  0  0  0  0  0  0  0  0
   -0.0780   -2.0072    1.1133 H   0  0  0  0  0  0  0  0  0  0  0  0
   -2.2843   -0.4227    2.0568 H   0  0  0  0  0  0  0  0  0  0  0  0
  1  2  1  0
  2  3  1  0
  3  4  1  0
  3  5  1  0
  5  6  1  0
  6  7  1  0
  7  8  1  0
  8  9  1  0
  9 10  1  0
 10 11  1  0
 10 12  1  0
 12 13  1  0
  9  5  1  0
  1 14  1  0
  2 15  1  0
  2 16  1  0
  3 17  1  1
  4 18  1  0
  5 19  1  1
  7 20  1  0
  7 21  1  0
  9 22  1  1
 10 23  1  6
 11 24  1  0
 12 25  1  0
 12 26  1  0
 13 27  1  0
M  END
$$$$

     RDKit          3D

 27 27  0  0  0  0  0  0  0  0999 V2000
    3.5407    1.6860   -0.6244 O   0  0  0  0  0  0  0  0  0  0  0  0
    2.1490    1.5070   -0.7169 C   0  0  0  0  0  0  0  0  0  0  0  0
    1.7373    0.5710    0.3671 C   0  0  2  0  0  0  0  0  0  0  0  0
    2.4204   -0.6396    0.1629 O   0  0  0  0  0  0  0  0  0  0  0  0
    0.2689    0.3716    0.4921 C   0  0  2  0  0  0  0  0  0  0  0  0
    0.0552   -0.4781    1.5999 O   0  0  0  0  0  0  0  0  0  0  0  0
    0.2036   -1.7679    1.1412 C   0  0  0  0  0  0  0  0  0  0  0  0
    0.3259   -1.7338   -0.2339 O   0  0  0  0  0  0  0  0  0  0  0  0
   -0.2927   -0.5153   -0.6137 C   0  0  1  0  0  0  0  0  0  0  0  0
   -1.7604   -0.7271   -0.4429 C   0  0  2  0  0  0  0  0  0  0  0  0
   -2.1121   -1.8026   -1.2929 O   0  0  0  0  0  0  0  0  0  0  0  0
   -2.6087    0.4319   -0.8668 C   0  0  0  0  0  0  0  0  0  0  0  0
   -2.4209    1.5858   -0.1602 O   0  0  0  0  0  0  0  0  0  0  0  0
    3.9446    1.0460    0.0099 H   0  0  0  0  0  0  0  0  0  0  0  0
    1.7076    2.5130   -0.6324 H   0  0  0  0  0  0  0  0  0  0  0  0
    1.9808    1.0541   -1.7291 H   0  0  0  0  0  0  0  0  0  0  0  0
    2.1148    0.9672    1.3401 H   0  0  0  0  0  0  0  0  0  0  0  0
    2.4374   -0.7825   -0.8194 H   0  0  0  0  0  0  0  0  0  0  0  0
   -0.2240    1.3290    0.5833 H   0  0  0  0  0  0  0  0  0  0  0  0
    1.1087   -2.2136    1.6419 H   0  0  0  0  0  0  0  0  0  0  0  0
   -0.6694   -2.3988    1.4769 H   0  0  0  0  0  0  0  0  0  0  0  0
    0.0151   -0.2092   -1.6098 H   0  0  0  0  0  0  0  0  0  0  0  0
   -1.9900   -1.0118    0.5805 H   0  0  0  0  0  0  0  0  0  0  0  0
   -2.5326   -1.4675   -2.1325 H   0  0  0  0  0  0  0  0  0  0  0  0
   -2.4930    0.6464   -1.9616 H   0  0  0  0  0  0  0  0  0  0  0  0
   -3.6708    0.1233   -0.7456 H   0  0  0  0  0  0  0  0  0  0  0  0
   -3.2353    1.9153    0.2616 H   0  0  0  0  0  0  0  0  0  0  0  0
  1  2  1  0
  2  3  1  0
  3  4  1  0
  3  5  1  0
  5  6  1  0
  6  7  1  0
  7  8  1  0
  8  9  1  0
  9 10  1  0
 10 11  1  0
 10 12  1  0
 12 13  1  0
  9  5  1  0
  1 14  1  0
  2 15  1  0
  2 16  1  0
  3 17  1  1
  4 18  1  0
  5 19  1  1
  7 20  1  0
  7 21  1  0
  9 22  1  6
 10 23  1  1
 11 24  1  0
 12 25  1  0
 12 26  1  0
 13 27  1  0
M  END
$$$$

     RDKit          3D

 27 27  0  0  0  0  0  0  0  0999 V2000
    2.8400    1.3170   -1.3766 O   0  0  0  0  0  0  0  0  0  0  0  0
    2.9007    0.4843   -0.2657 C   0  0  0  0  0  0  0  0  0  0  0  0
    1.7084   -0.4393   -0.2400 C   0  0  2  0  0  0  0  0  0  0  0  0
    1.6537   -1.2438   -1.3753 O   0  0  0  0  0  0  0  0  0  0  0  0
    0.4044    0.3621   -0.1121 C   0  0  2  0  0  0  0  0  0  0  0  0
    0.5525    1.1303    1.0428 O   0  0  0  0  0  0  0  0  0  0  0  0
    0.1231    0.3434    2.1060 C   0  0  0  0  0  0  0  0  0  0  0  0
   -0.1893   -0.9049    1.6252 O   0  0  0  0  0  0  0  0  0  0  0  0
   -0.6334   -0.6282    0.3074 C   0  0  1  0  0  0  0  0  0  0  0  0
   -2.0188   -0.0856    0.4511 C   0  0  2  0  0  0  0  0  0  0  0  0
   -2.7664   -1.1094    1.0874 O   0  0  0  0  0  0  0  0  0  0  0  0
   -2.7208    0.1566   -0.8582 C   0  0  0  0  0  0  0  0  0  0  0  0
   -2.0505    1.1570   -1.5519 O   0  0  0  0  0  0  0  0  0  0  0  0
    3.7679    1.5482   -1.6207 H   0  0  0  0  0  0  0  0  0  0  0  0
    2.9633    1.0684    0.6495 H   0  0  0  0  0  0  0  0  0  0  0  0
    3.8219   -0.1179   -0.3472 H   0  0  0  0  0  0  0  0  0  0  0  0
    1.7660   -1.0661    0.6641 H   0  0  0  0  0  0  0  0  0  0  0  0
    1.5077   -2.1926   -1.1533 H   0  0  0  0  0  0  0  0  0  0  0  0
    0.2026    0.9316   -1.0124 H   0  0  0  0  0  0  0  0  0  0  0  0
    0.9488    0.2758    2.8350 H   0  0  0  0  0  0  0  0  0  0  0  0
   -0.7109    0.8768    2.5873 H   0  0  0  0  0  0  0  0  0  0  0  0
   -0.6297   -1.5201   -0.3176 H   0  0  0  0  0  0  0  0  0  0  0  0
   -2.0811    0.8024    1.0780 H   0  0  0  0  0  0  0  0  0  0  0  0
   -2.7948   -1.8567    0.4111 H   0  0  0  0  0  0  0  0  0  0  0  0
   -3.7396    0.5383   -0.6419 H   0  0  0  0  0  0  0  0  0  0  0  0
   -2.8077   -0.7730   -1.4500 H   0  0  0  0  0  0  0  0  0  0  0  0
   -2.0181    0.9457   -2.5221 H   0  0  0  0  0  0  0  0  0  0  0  0
  1  2  1  0
  2  3  1  0
  3  4  1  0
  3  5  1  0
  5  6  1  0
  6  7  1  0
  7  8  1  0
  8  9  1  0
  9 10  1  0
 10 11  1  0
 10 12  1  0
 12 13  1  0
  9  5  1  0
  1 14  1  0
  2 15  1  0
  2 16  1  0
  3 17  1  1
  4 18  1  0
  5 19  1  6
  7 20  1  0
  7 21  1  0
  9 22  1  6
 10 23  1  1
 11 24  1  0
 12 25  1  0
 12 26  1  0
 13 27  1  0
M  END
$$$$

     RDKit          3D

 27 27  0  0  0  0  0  0  0  0999 V2000
    1.4969    1.1677   -2.0359 O   0  0  0  0  0  0  0  0  0  0  0  0
    2.2530    0.9576   -0.8963 C   0  0  0  0  0  0  0  0  0  0  0  0
    1.4572    0.7540    0.3439 C   0  0  2  0  0  0  0  0  0  0  0  0
    2.4033    0.5764    1.3945 O   0  0  0  0  0  0  0  0  0  0  0  0
    0.5988   -0.4507    0.3770 C   0  0  2  0  0  0  0  0  0  0  0  0
    1.4217   -1.5840    0.1563 O   0  0  0  0  0  0  0  0  0  0  0  0
    0.4962   -2.5780   -0.0790 C   0  0  0  0  0  0  0  0  0  0  0  0
   -0.6918   -2.0132   -0.4987 O   0  0  0  0  0  0  0  0  0  0  0  0
   -0.4068   -0.6335   -0.6815 C   0  0  1  0  0  0  0  0  0  0  0  0
   -1.6348    0.1926   -0.5997 C   0  0  2  0  0  0  0  0  0  0  0  0
   -1.3104    1.5346   -0.7827 O   0  0  0  0  0  0  0  0  0  0  0  0
   -2.4345    0.0552    0.6356 C   0  0  0  0  0  0  0  0  0  0  0  0
   -3.5990    0.8121    0.5125 O   0  0  0  0  0  0  0  0  0  0  0  0
    1.2689    2.1137   -2.1998 H   0  0  0  0  0  0  0  0  0  0  0  0
    2.8453    1.9075   -0.7451 H   0  0  0  0  0  0  0  0  0  0  0  0
    3.0244    0.1757   -1.0573 H   0  0  0  0  0  0  0  0  0  0  0  0
    0.9436    1.6957    0.5882 H   0  0  0  0  0  0  0  0  0  0  0  0
    2.7684   -0.3186    1.2747 H   0  0  0  0  0  0  0  0  0  0  0  0
    0.2214   -0.6120    1.4097 H   0  0  0  0  0  0  0  0  0  0  0  0
    0.8589   -3.2343   -0.8994 H   0  0  0  0  0  0  0  0  0  0  0  0
    0.3940   -3.1665    0.8643 H   0  0  0  0  0  0  0  0  0  0  0  0
    0.0576   -0.5825   -1.6740 H   0  0  0  0  0  0  0  0  0  0  0  0
   -2.2858   -0.0828   -1.4688 H   0  0  0  0  0  0  0  0  0  0  0  0
   -2.1093    1.9879   -1.1830 H   0  0  0  0  0  0  0  0  0  0  0  0
   -2.7403   -0.9665    0.8889 H   0  0  0  0  0  0  0  0  0  0  0  0
   -1.8574    0.5103    1.4906 H   0  0  0  0  0  0  0  0  0  0  0  0
   -3.4397    1.7818    0.6441 H   0  0  0  0  0  0  0  0  0  0  0  0
  1  2  1  0
  2  3  1  0
  3  4  1  0
  3  5  1  0
  5  6  1  0
  6  7  1  0
  7  8  1  0
  8  9  1  0
  9 10  1  0
 10 11  1  0
 10 12  1  0
 12 13  1  0
  9  5  1  0
  1 14  1  0
  2 15  1  0
  2 16  1  0
  3 17  1  1
  4 18  1  0
  5 19  1  1
  7 20  1  0
  7 21  1  0
  9 22  1  6
 10 23  1  6
 11 24  1  0
 12 25  1  0
 12 26  1  0
 13 27  1  0
M  END
$$$$

     RDKit          3D

 27 27  0  0  0  0  0  0  0  0999 V2000
   -2.9535    1.3495   -0.2679 O   0  0  0  0  0  0  0  0  0  0  0  0
   -2.7258    0.4416    0.7923 C   0  0  0  0  0  0  0  0  0  0  0  0
   -1.6229   -0.4944    0.3393 C   0  0  2  0  0  0  0  0  0  0  0  0
   -1.3444   -1.4205    1.3384 O   0  0  0  0  0  0  0  0  0  0  0  0
   -0.4163    0.3301   -0.0299 C   0  0  2  0  0  0  0  0  0  0  0  0
   -0.7999    1.2198   -1.0310 O   0  0  0  0  0  0  0  0  0  0  0  0
   -0.6283    0.4945   -2.1836 C   0  0  0  0  0  0  0  0  0  0  0  0
    0.6338   -0.0885   -2.0211 O   0  0  0  0  0  0  0  0  0  0  0  0
    0.6843   -0.4476   -0.6574 C   0  0  1  0  0  0  0  0  0  0  0  0
    2.0557    0.0136   -0.1763 C   0  0  2  0  0  0  0  0  0  0  0  0
    3.0728   -0.6086   -0.8920 O   0  0  0  0  0  0  0  0  0  0  0  0
    2.2697   -0.3157    1.2805 C   0  0  0  0  0  0  0  0  0  0  0  0
    3.5261    0.1809    1.6289 O   0  0  0  0  0  0  0  0  0  0  0  0
   -2.6246    2.2309    0.0243 H   0  0  0  0  0  0  0  0  0  0  0  0
   -2.4915    0.9508    1.7313 H   0  0  0  0  0  0  0  0  0  0  0  0
   -3.6885   -0.1021    0.9212 H   0  0  0  0  0  0  0  0  0  0  0  0
   -2.0270   -1.0438   -0.5363 H   0  0  0  0  0  0  0  0  0  0  0  0
   -1.9223   -2.2368    1.2015 H   0  0  0  0  0  0  0  0  0  0  0  0
   -0.0478    0.8575    0.8682 H   0  0  0  0  0  0  0  0  0  0  0  0
   -0.6325    1.1863   -3.0589 H   0  0  0  0  0  0  0  0  0  0  0  0
   -1.3406   -0.3359   -2.3207 H   0  0  0  0  0  0  0  0  0  0  0  0
    0.5878   -1.5301   -0.6152 H   0  0  0  0  0  0  0  0  0  0  0  0
    2.1329    1.1098   -0.2881 H   0  0  0  0  0  0  0  0  0  0  0  0
    2.9247   -1.5827   -0.8809 H   0  0  0  0  0  0  0  0  0  0  0  0
    1.5123    0.1122    1.9493 H   0  0  0  0  0  0  0  0  0  0  0  0
    2.3339   -1.4273    1.4388 H   0  0  0  0  0  0  0  0  0  0  0  0
    3.5319    1.1565    1.4452 H   0  0  0  0  0  0  0  0  0  0  0  0
  1  2  1  0
  2  3  1  0
  3  4  1  0
  3  5  1  0
  5  6  1  0
  6  7  1  0
  7  8  1  0
  8  9  1  0
  9 10  1  0
 10 11  1  0
 10 12  1  0
 12 13  1  0
  9  5  1  0
  1 14  1  0
  2 15  1  0
  2 16  1  0
  3 17  1  6
  4 18  1  0
  5 19  1  1
  7 20  1  0
  7 21  1  0
  9 22  1  6
 10 23  1  1
 11 24  1  0
 12 25  1  0
 12 26  1  0
 13 27  1  0
M  END
$$$$

     RDKit          3D

 27 27  0  0  0  0  0  0  0  0999 V2000
   -1.8833    1.7449    1.2256 O   0  0  0  0  0  0  0  0  0  0  0  0
   -2.2098    0.4108    1.1259 C   0  0  0  0  0  0  0  0  0  0  0  0
   -1.9738   -0.1122   -0.2430 C   0  0  2  0  0  0  0  0  0  0  0  0
   -2.3173   -1.4727   -0.3111 O   0  0  0  0  0  0  0  0  0  0  0  0
   -0.5835    0.0822   -0.7657 C   0  0  2  0  0  0  0  0  0  0  0  0
   -0.5788   -0.3590   -2.0889 O   0  0  0  0  0  0  0  0  0  0  0  0
    0.5108   -1.1827   -2.2567 C   0  0  0  0  0  0  0  0  0  0  0  0
    0.6244   -1.8331   -1.0440 O   0  0  0  0  0  0  0  0  0  0  0  0
    0.4469   -0.7906   -0.1302 C   0  0  1  0  0  0  0  0  0  0  0  0
    1.7327   -0.0249   -0.0046 C   0  0  2  0  0  0  0  0  0  0  0  0
    2.7725   -0.8554    0.4470 O   0  0  0  0  0  0  0  0  0  0  0  0
    1.5699    1.0452    1.0668 C   0  0  0  0  0  0  0  0  0  0  0  0
    2.8167    1.7039    1.1346 O   0  0  0  0  0  0  0  0  0  0  0  0
   -2.4449    2.2983    0.6408 H   0  0  0  0  0  0  0  0  0  0  0  0
   -3.2911    0.3115    1.3561 H   0  0  0  0  0  0  0  0  0  0  0  0
   -1.6719   -0.1285    1.9242 H   0  0  0  0  0  0  0  0  0  0  0  0
   -2.6625    0.4113   -0.9392 H   0  0  0  0  0  0  0  0  0  0  0  0
   -2.5190   -1.7911    0.5862 H   0  0  0  0  0  0  0  0  0  0  0  0
   -0.3178    1.1485   -0.7826 H   0  0  0  0  0  0  0  0  0  0  0  0
    0.2964   -1.9493   -3.0343 H   0  0  0  0  0  0  0  0  0  0  0  0
    1.4262   -0.6019   -2.5350 H   0  0  0  0  0  0  0  0  0  0  0  0
    0.1533   -1.2421    0.8178 H   0  0  0  0  0  0  0  0  0  0  0  0
    2.0173    0.4966   -0.9259 H   0  0  0  0  0  0  0  0  0  0  0  0
    2.8486   -1.6638   -0.1517 H   0  0  0  0  0  0  0  0  0  0  0  0
    1.3828    0.5821    2.0516 H   0  0  0  0  0  0  0  0  0  0  0  0
    0.8258    1.8033    0.7742 H   0  0  0  0  0  0  0  0  0  0  0  0
    3.0296    1.9688    2.0623 H   0  0  0  0  0  0  0  0  0  0  0  0
  1  2  1  0
  2  3  1  0
  3  4  1  0
  3  5  1  0
  5  6  1  0
  6  7  1  0
  7  8  1  0
  8  9  1  0
  9 10  1  0
 10 11  1  0
 10 12  1  0
 12 13  1  0
  9  5  1  0
  1 14  1  0
  2 15  1  0
  2 16  1  0
  3 17  1  6
  4 18  1  0
  5 19  1  6
  7 20  1  0
  7 21  1  0
  9 22  1  1
 10 23  1  6
 11 24  1  0
 12 25  1  0
 12 26  1  0
 13 27  1  0
M  END
$$$$

     RDKit          3D

 27 27  0  0  0  0  0  0  0  0999 V2000
    3.3080   -0.3011    1.8027 O   0  0  0  0  0  0  0  0  0  0  0  0
    1.9582   -0.2605    1.4348 C   0  0  0  0  0  0  0  0  0  0  0  0
    1.8863   -0.4382   -0.0448 C   0  0  2  0  0  0  0  0  0  0  0  0
    2.5974    0.6005   -0.6399 O   0  0  0  0  0  0  0  0  0  0  0  0
    0.5053   -0.5621   -0.5984 C   0  0  2  0  0  0  0  0  0  0  0  0
    0.6243   -0.8116   -1.9729 O   0  0  0  0  0  0  0  0  0  0  0  0
   -0.4790   -0.1680   -2.5170 C   0  0  0  0  0  0  0  0  0  0  0  0
   -0.5222    1.0386   -1.8239 O   0  0  0  0  0  0  0  0  0  0  0  0
   -0.3373    0.6452   -0.4999 C   0  0  1  0  0  0  0  0  0  0  0  0
   -1.7276    0.3220    0.0477 C   0  0  2  0  0  0  0  0  0  0  0  0
   -2.5513    1.4444   -0.0206 O   0  0  0  0  0  0  0  0  0  0  0  0
   -1.6529   -0.0957    1.5003 C   0  0  0  0  0  0  0  0  0  0  0  0
   -2.9540   -0.3857    1.9047 O   0  0  0  0  0  0  0  0  0  0  0  0
    3.9017   -0.5275    1.0463 H   0  0  0  0  0  0  0  0  0  0  0  0
    1.5679    0.7049    1.7920 H   0  0  0  0  0  0  0  0  0  0  0  0
    1.4827   -1.1279    1.9699 H   0  0  0  0  0  0  0  0  0  0  0  0
    2.4301   -1.3851   -0.2932 H   0  0  0  0  0  0  0  0  0  0  0  0
    1.9998    1.3893   -0.6503 H   0  0  0  0  0  0  0  0  0  0  0  0
   -0.0313   -1.4349   -0.1784 H   0  0  0  0  0  0  0  0  0  0  0  0
   -0.3317   -0.0149   -3.6062 H   0  0  0  0  0  0  0  0  0  0  0  0
   -1.3618   -0.8057   -2.3453 H   0  0  0  0  0  0  0  0  0  0  0  0
    0.0922    1.4717    0.0943 H   0  0  0  0  0  0  0  0  0  0  0  0
   -2.1861   -0.5167   -0.5034 H   0  0  0  0  0  0  0  0  0  0  0  0
   -2.3152    1.9929   -0.8150 H   0  0  0  0  0  0  0  0  0  0  0  0
   -1.0606   -1.0410    1.6155 H   0  0  0  0  0  0  0  0  0  0  0  0
   -1.2515    0.6895    2.1589 H   0  0  0  0  0  0  0  0  0  0  0  0
   -3.5918   -0.4223    1.1422 H   0  0  0  0  0  0  0  0  0  0  0  0
  1  2  1  0
  2  3  1  0
  3  4  1  0
  3  5  1  0
  5  6  1  0
  6  7  1  0
  7  8  1  0
  8  9  1  0
  9 10  1  0
 10 11  1  0
 10 12  1  0
 12 13  1  0
  9  5  1  0
  1 14  1  0
  2 15  1  0
  2 16  1  0
  3 17  1  1
  4 18  1  0
  5 19  1  1
  7 20  1  0
  7 21  1  0
  9 22  1  1
 10 23  1  6
 11 24  1  0
 12 25  1  0
 12 26  1  0
 13 27  1  0
M  END
$$$$
