
     RDKit          3D

 27 26  0  0  0  0  0  0  0  0999 V2000
    4.3747   -0.8105    1.2948 C   0  0  0  0  0  0  0  0  0  0  0  0
    3.0081   -0.8977    1.4224 O   0  0  0  0  0  0  0  0  0  0  0  0
    2.4062   -0.3919    0.3417 N   0  0  0  0  0  0  0  0  0  0  0  0
    0.9979   -0.4989    0.1887 C   0  0  0  0  0  0  0  0  0  0  0  0
    0.3199   -1.0804    1.0907 O   0  0  0  0  0  0  0  0  0  0  0  0
    0.3175    0.0503   -0.9917 C   0  0  2  0  0  0  0  0  0  0  0  0
    1.3495    0.5258   -1.9287 N   0  0  0  0  0  0  0  0  0  0  0  0
   -0.5062    1.2468   -0.6501 C   0  0  0  0  0  0  0  0  0  0  0  0
   -1.5648    0.9589    0.3481 C   0  0  0  0  0  0  0  0  0  0  0  0
   -2.5494   -0.0567   -0.0824 C   0  0  0  0  0  0  0  0  0  0  0  0
   -2.5449   -0.6009   -1.2019 O   0  0  0  0  0  0  0  0  0  0  0  0
   -3.5737   -0.4632    0.7986 O   0  0  0  0  0  0  0  0  0  0  0  0
   -4.5121   -1.4270    0.3963 C   0  0  0  0  0  0  0  0  0  0  0  0
    4.7804   -1.8163    1.0951 H   0  0  0  0  0  0  0  0  0  0  0  0
    4.6916   -0.1649    0.4568 H   0  0  0  0  0  0  0  0  0  0  0  0
    4.8716   -0.4368    2.2251 H   0  0  0  0  0  0  0  0  0  0  0  0
    2.9520    0.0860   -0.4011 H   0  0  0  0  0  0  0  0  0  0  0  0
   -0.2930   -0.7013   -1.4943 H   0  0  0  0  0  0  0  0  0  0  0  0
    1.8154    1.3623   -1.5532 H   0  0  0  0  0  0  0  0  0  0  0  0
    1.9752   -0.2534   -2.1556 H   0  0  0  0  0  0  0  0  0  0  0  0
   -0.9285    1.6365   -1.6221 H   0  0  0  0  0  0  0  0  0  0  0  0
    0.1401    2.0808   -0.2730 H   0  0  0  0  0  0  0  0  0  0  0  0
   -1.1482    0.6482    1.3151 H   0  0  0  0  0  0  0  0  0  0  0  0
   -2.1527    1.9012    0.6002 H   0  0  0  0  0  0  0  0  0  0  0  0
   -4.9000   -2.0190    1.2486 H   0  0  0  0  0  0  0  0  0  0  0  0
   -5.3026   -0.9456   -0.1810 H   0  0  0  0  0  0  0  0  0  0  0  0
   -4.0239   -2.1779   -0.2872 H   0  0  0  0  0  0  0  0  0  0  0  0
  1  2  1  0
  2  3  1  0
  3  4  1  0
  4  5  2  0
  4  6  1  0
  6  7  1  0
  6  8  1  0
  8  9  1  0
  9 10  1  0
 10 11  2  0
 10 12  1  0
 12 13  1  0
  1 14  1  0
  1 15  1  0
  1 16  1  0
  3 17  1  0
  6 18  1  6
  7 19  1  0
  7 20  1  0
  8 21  1  0
  8 22  1  0
  9 23  1  0
  9 24  1  0
 13 25  1  0
 13 26  1  0
 13 27  1  0
M  END
$$$$

     RDKit          3D

 27 26  0  0  0  0  0  0  0  0999 V2000
   -4.6039    0.5317   -0.9195 C   0  0  0  0  0  0  0  0  0  0  0  0
   -4.4143   -0.6713   -0.2910 O   0  0  0  0  0  0  0  0  0  0  0  0
   -3.1717   -0.8494    0.2067 N   0  0  0  0  0  0  0  0  0  0  0  0
   -1.9863   -0.9226   -0.5754 C   0  0  0  0  0  0  0  0  0  0  0  0
   -2.0946   -0.8105   -1.8288 O   0  0  0  0  0  0  0  0  0  0  0  0
   -0.6497   -1.1210   -0.0105 C   0  0  2  0  0  0  0  0  0  0  0  0
   -0.6512   -1.1616    1.4391 N   0  0  0  0  0  0  0  0  0  0  0  0
    0.3707   -0.0703   -0.4403 C   0  0  0  0  0  0  0  0  0  0  0  0
    1.6531   -0.4823    0.2464 C   0  0  0  0  0  0  0  0  0  0  0  0
    2.7965    0.3906   -0.0249 C   0  0  0  0  0  0  0  0  0  0  0  0
    2.7882    1.4197   -0.7213 O   0  0  0  0  0  0  0  0  0  0  0  0
    4.0088    0.0126    0.5650 O   0  0  0  0  0  0  0  0  0  0  0  0
    5.2141    0.7320    0.4092 C   0  0  0  0  0  0  0  0  0  0  0  0
   -5.4361    0.3739   -1.6607 H   0  0  0  0  0  0  0  0  0  0  0  0
   -4.9705    1.3087   -0.2160 H   0  0  0  0  0  0  0  0  0  0  0  0
   -3.6705    0.8522   -1.3978 H   0  0  0  0  0  0  0  0  0  0  0  0
   -3.0047   -0.9494    1.2536 H   0  0  0  0  0  0  0  0  0  0  0  0
   -0.2572   -2.1126   -0.3826 H   0  0  0  0  0  0  0  0  0  0  0  0
   -1.2428   -1.9494    1.7605 H   0  0  0  0  0  0  0  0  0  0  0  0
   -1.0936   -0.2678    1.7921 H   0  0  0  0  0  0  0  0  0  0  0  0
    0.0454    0.9308   -0.1004 H   0  0  0  0  0  0  0  0  0  0  0  0
    0.4578   -0.0989   -1.5481 H   0  0  0  0  0  0  0  0  0  0  0  0
    1.8445   -1.5313   -0.0763 H   0  0  0  0  0  0  0  0  0  0  0  0
    1.4423   -0.4677    1.3437 H   0  0  0  0  0  0  0  0  0  0  0  0
    5.9480    0.0008   -0.0285 H   0  0  0  0  0  0  0  0  0  0  0  0
    5.1005    1.6245   -0.2362 H   0  0  0  0  0  0  0  0  0  0  0  0
    5.5772    0.9861    1.4421 H   0  0  0  0  0  0  0  0  0  0  0  0
  1  2  1  0
  2  3  1  0
  3  4  1  0
  4  5  2  0
  4  6  1  0
  6  7  1  0
  6  8  1  0
  8  9  1  0
  9 10  1  0
 10 11  2  0
 10 12  1  0
 12 13  1  0
  1 14  1  0
  1 15  1  0
  1 16  1  0
  3 17  1  0
  6 18  1  6
  7 19  1  0
  7 20  1  0
  8 21  1  0
  8 22  1  0
  9 23  1  0
  9 24  1  0
 13 25  1  0
 13 26  1  0
 13 27  1  0
M  END
$$$$

     RDKit          3D

 27 26  0  0  0  0  0  0  0  0999 V2000
   -4.8331    0.6495    0.2385 C   0  0  0  0  0  0  0  0  0  0  0  0
   -3.7581    0.4278    1.1018 O   0  0  0  0  0  0  0  0  0  0  0  0
   -2.8909   -0.4675    0.5944 N   0  0  0  0  0  0  0  0  0  0  0  0
   -1.5376   -0.0633    0.2423 C   0  0  0  0  0  0  0  0  0  0  0  0
   -1.2959    1.1488    0.4480 O   0  0  0  0  0  0  0  0  0  0  0  0
   -0.6142   -1.0551   -0.2954 C   0  0  2  0  0  0  0  0  0  0  0  0
   -1.1457   -2.4010   -0.0791 N   0  0  0  0  0  0  0  0  0  0  0  0
    0.7939   -0.8746    0.1147 C   0  0  0  0  0  0  0  0  0  0  0  0
    1.3551    0.4262   -0.3547 C   0  0  0  0  0  0  0  0  0  0  0  0
    2.8019    0.5605    0.0743 C   0  0  0  0  0  0  0  0  0  0  0  0
    3.3452   -0.3639    0.7297 O   0  0  0  0  0  0  0  0  0  0  0  0
    3.5215    1.6870   -0.2504 O   0  0  0  0  0  0  0  0  0  0  0  0
    4.8716    1.8047    0.1537 C   0  0  0  0  0  0  0  0  0  0  0  0
   -5.4839    1.4050    0.7124 H   0  0  0  0  0  0  0  0  0  0  0  0
   -4.4093    0.9576   -0.7398 H   0  0  0  0  0  0  0  0  0  0  0  0
   -5.3787   -0.2900    0.0871 H   0  0  0  0  0  0  0  0  0  0  0  0
   -3.1286   -1.4641    0.4225 H   0  0  0  0  0  0  0  0  0  0  0  0
   -0.6279   -0.9542   -1.4293 H   0  0  0  0  0  0  0  0  0  0  0  0
   -0.4387   -3.1354   -0.3284 H   0  0  0  0  0  0  0  0  0  0  0  0
   -1.5087   -2.5316    0.9094 H   0  0  0  0  0  0  0  0  0  0  0  0
    0.9388   -0.9057    1.2312 H   0  0  0  0  0  0  0  0  0  0  0  0
    1.4287   -1.7346   -0.2469 H   0  0  0  0  0  0  0  0  0  0  0  0
    1.4192    0.3619   -1.4716 H   0  0  0  0  0  0  0  0  0  0  0  0
    0.8371    1.3170   -0.0349 H   0  0  0  0  0  0  0  0  0  0  0  0
    4.9783    2.5143    1.0161 H   0  0  0  0  0  0  0  0  0  0  0  0
    5.5157    2.1832   -0.6889 H   0  0  0  0  0  0  0  0  0  0  0  0
    5.2443    0.7974    0.4321 H   0  0  0  0  0  0  0  0  0  0  0  0
  1  2  1  0
  2  3  1  0
  3  4  1  0
  4  5  2  0
  4  6  1  0
  6  7  1  0
  6  8  1  0
  8  9  1  0
  9 10  1  0
 10 11  2  0
 10 12  1  0
 12 13  1  0
  1 14  1  0
  1 15  1  0
  1 16  1  0
  3 17  1  0
  6 18  1  6
  7 19  1  0
  7 20  1  0
  8 21  1  0
  8 22  1  0
  9 23  1  0
  9 24  1  0
 13 25  1  0
 13 26  1  0
 13 27  1  0
M  END
$$$$

     RDKit          3D

 27 26  0  0  0  0  0  0  0  0999 V2000
    4.5036    1.4621    0.5484 C   0  0  0  0  0  0  0  0  0  0  0  0
    3.4167    0.9878    1.2667 O   0  0  0  0  0  0  0  0  0  0  0  0
    2.5153    0.4903    0.3781 N   0  0  0  0  0  0  0  0  0  0  0  0
    1.7247   -0.6483    0.6969 C   0  0  0  0  0  0  0  0  0  0  0  0
    1.8452   -1.2155    1.8034 O   0  0  0  0  0  0  0  0  0  0  0  0
    0.7633   -1.1305   -0.3245 C   0  0  2  0  0  0  0  0  0  0  0  0
    0.9216   -0.4074   -1.5726 N   0  0  0  0  0  0  0  0  0  0  0  0
   -0.6082   -0.7781    0.1945 C   0  0  0  0  0  0  0  0  0  0  0  0
   -1.6914   -1.2223   -0.7859 C   0  0  0  0  0  0  0  0  0  0  0  0
   -3.0236   -0.8356   -0.1985 C   0  0  0  0  0  0  0  0  0  0  0  0
   -3.8909   -1.6764    0.1217 O   0  0  0  0  0  0  0  0  0  0  0  0
   -3.2567    0.5076   -0.0212 O   0  0  0  0  0  0  0  0  0  0  0  0
   -4.4425    1.0530    0.5239 C   0  0  0  0  0  0  0  0  0  0  0  0
    4.1778    2.3274   -0.0768 H   0  0  0  0  0  0  0  0  0  0  0  0
    5.2754    1.7421    1.2781 H   0  0  0  0  0  0  0  0  0  0  0  0
    4.8929    0.6777   -0.1316 H   0  0  0  0  0  0  0  0  0  0  0  0
    2.3962    0.9398   -0.5471 H   0  0  0  0  0  0  0  0  0  0  0  0
    0.8675   -2.1981   -0.5111 H   0  0  0  0  0  0  0  0  0  0  0  0
    1.8660   -0.4432   -1.9639 H   0  0  0  0  0  0  0  0  0  0  0  0
    0.4337    0.4886   -1.5551 H   0  0  0  0  0  0  0  0  0  0  0  0
   -0.7970   -1.1558    1.1958 H   0  0  0  0  0  0  0  0  0  0  0  0
   -0.6437    0.3360    0.2322 H   0  0  0  0  0  0  0  0  0  0  0  0
   -1.6257   -2.3487   -0.8794 H   0  0  0  0  0  0  0  0  0  0  0  0
   -1.5048   -0.7191   -1.7484 H   0  0  0  0  0  0  0  0  0  0  0  0
   -5.2996    0.3768    0.5290 H   0  0  0  0  0  0  0  0  0  0  0  0
   -4.1894    1.3738    1.5771 H   0  0  0  0  0  0  0  0  0  0  0  0
   -4.6266    2.0158   -0.0297 H   0  0  0  0  0  0  0  0  0  0  0  0
  1  2  1  0
  2  3  1  0
  3  4  1  0
  4  5  2  0
  4  6  1  0
  6  7  1  0
  6  8  1  0
  8  9  1  0
  9 10  1  0
 10 11  2  0
 10 12  1  0
 12 13  1  0
  1 14  1  0
  1 15  1  0
  1 16  1  0
  3 17  1  0
  6 18  1  6
  7 19  1  0
  7 20  1  0
  8 21  1  0
  8 22  1  0
  9 23  1  0
  9 24  1  0
 13 25  1  0
 13 26  1  0
 13 27  1  0
M  END
$$$$

     RDKit          3D

 27 26  0  0  0  0  0  0  0  0999 V2000
   -4.5808    0.1512    1.4372 C   0  0  0  0  0  0  0  0  0  0  0  0
   -3.3990   -0.4397    1.8233 O   0  0  0  0  0  0  0  0  0  0  0  0
   -2.3516    0.1110    1.2222 N   0  0  0  0  0  0  0  0  0  0  0  0
   -2.0524   -0.0827   -0.1551 C   0  0  0  0  0  0  0  0  0  0  0  0
   -2.8420   -0.8284   -0.8243 O   0  0  0  0  0  0  0  0  0  0  0  0
   -0.8876    0.5384   -0.7972 C   0  0  2  0  0  0  0  0  0  0  0  0
   -0.8628    0.1653   -2.2030 N   0  0  0  0  0  0  0  0  0  0  0  0
    0.3692    0.0091   -0.1423 C   0  0  0  0  0  0  0  0  0  0  0  0
    1.6148    0.6045   -0.7413 C   0  0  0  0  0  0  0  0  0  0  0  0
    2.7882    0.0361   -0.0469 C   0  0  0  0  0  0  0  0  0  0  0  0
    2.6413   -0.8076    0.8753 O   0  0  0  0  0  0  0  0  0  0  0  0
    4.0828    0.4110   -0.3877 O   0  0  0  0  0  0  0  0  0  0  0  0
    5.1788   -0.1766    0.3115 C   0  0  0  0  0  0  0  0  0  0  0  0
   -4.4230    1.1899    1.0149 H   0  0  0  0  0  0  0  0  0  0  0  0
   -5.0952   -0.4256    0.6248 H   0  0  0  0  0  0  0  0  0  0  0  0
   -5.2465    0.3182    2.3113 H   0  0  0  0  0  0  0  0  0  0  0  0
   -1.7142    0.7094    1.7900 H   0  0  0  0  0  0  0  0  0  0  0  0
   -0.9484    1.6229   -0.6986 H   0  0  0  0  0  0  0  0  0  0  0  0
   -0.9787   -0.8787   -2.2865 H   0  0  0  0  0  0  0  0  0  0  0  0
   -1.6791    0.6285   -2.6632 H   0  0  0  0  0  0  0  0  0  0  0  0
    0.3534    0.2621    0.9354 H   0  0  0  0  0  0  0  0  0  0  0  0
    0.3857   -1.0845   -0.3178 H   0  0  0  0  0  0  0  0  0  0  0  0
    1.5541    1.7126   -0.6313 H   0  0  0  0  0  0  0  0  0  0  0  0
    1.6660    0.4412   -1.8540 H   0  0  0  0  0  0  0  0  0  0  0  0
    4.8638   -0.4826    1.3135 H   0  0  0  0  0  0  0  0  0  0  0  0
    5.5288   -1.0016   -0.3180 H   0  0  0  0  0  0  0  0  0  0  0  0
    6.0344    0.5512    0.4079 H   0  0  0  0  0  0  0  0  0  0  0  0
  1  2  1  0
  2  3  1  0
  3  4  1  0
  4  5  2  0
  4  6  1  0
  6  7  1  0
  6  8  1  0
  8  9  1  0
  9 10  1  0
 10 11  2  0
 10 12  1  0
 12 13  1  0
  1 14  1  0
  1 15  1  0
  1 16  1  0
  3 17  1  0
  6 18  1  6
  7 19  1  0
  7 20  1  0
  8 21  1  0
  8 22  1  0
  9 23  1  0
  9 24  1  0
 13 25  1  0
 13 26  1  0
 13 27  1  0
M  END
$$$$

     RDKit          3D

 27 26  0  0  0  0  0  0  0  0999 V2000
    4.9877    0.4672   -0.4036 C   0  0  0  0  0  0  0  0  0  0  0  0
    4.3074   -0.7190   -0.6509 O   0  0  0  0  0  0  0  0  0  0  0  0
    3.1336   -0.6860   -0.0165 N   0  0  0  0  0  0  0  0  0  0  0  0
    2.0411    0.1511   -0.3497 C   0  0  0  0  0  0  0  0  0  0  0  0
    2.1567    0.9413   -1.3160 O   0  0  0  0  0  0  0  0  0  0  0  0
    0.8026    0.0674    0.4518 C   0  0  2  0  0  0  0  0  0  0  0  0
    0.8910   -1.0634    1.3250 N   0  0  0  0  0  0  0  0  0  0  0  0
   -0.4560    0.1417   -0.3503 C   0  0  0  0  0  0  0  0  0  0  0  0
   -1.6143    0.0355    0.6355 C   0  0  0  0  0  0  0  0  0  0  0  0
   -2.8922    0.1261   -0.1436 C   0  0  0  0  0  0  0  0  0  0  0  0
   -2.8733    0.2956   -1.3969 O   0  0  0  0  0  0  0  0  0  0  0  0
   -4.1347    0.0315    0.4447 O   0  0  0  0  0  0  0  0  0  0  0  0
   -5.3499    0.1130   -0.2651 C   0  0  0  0  0  0  0  0  0  0  0  0
    5.5014    0.4038    0.5740 H   0  0  0  0  0  0  0  0  0  0  0  0
    5.7292    0.6490   -1.2163 H   0  0  0  0  0  0  0  0  0  0  0  0
    4.2636    1.3204   -0.4202 H   0  0  0  0  0  0  0  0  0  0  0  0
    3.0471   -1.3614    0.8085 H   0  0  0  0  0  0  0  0  0  0  0  0
    0.7966    0.9806    1.1075 H   0  0  0  0  0  0  0  0  0  0  0  0
    0.3953   -1.8776    0.8609 H   0  0  0  0  0  0  0  0  0  0  0  0
    0.5535   -0.8991    2.2814 H   0  0  0  0  0  0  0  0  0  0  0  0
   -0.5364   -0.5937   -1.1691 H   0  0  0  0  0  0  0  0  0  0  0  0
   -0.4843    1.1595   -0.8360 H   0  0  0  0  0  0  0  0  0  0  0  0
   -1.5825    0.8997    1.3456 H   0  0  0  0  0  0  0  0  0  0  0  0
   -1.5407   -0.8968    1.2153 H   0  0  0  0  0  0  0  0  0  0  0  0
   -5.6215    1.1121   -0.6042 H   0  0  0  0  0  0  0  0  0  0  0  0
   -5.3352   -0.5725   -1.1403 H   0  0  0  0  0  0  0  0  0  0  0  0
   -6.1857   -0.2261    0.3929 H   0  0  0  0  0  0  0  0  0  0  0  0
  1  2  1  0
  2  3  1  0
  3  4  1  0
  4  5  2  0
  4  6  1  0
  6  7  1  0
  6  8  1  0
  8  9  1  0
  9 10  1  0
 10 11  2  0
 10 12  1  0
 12 13  1  0
  1 14  1  0
  1 15  1  0
  1 16  1  0
  3 17  1  0
  6 18  1  1
  7 19  1  0
  7 20  1  0
  8 21  1  0
  8 22  1  0
  9 23  1  0
  9 24  1  0
 13 25  1  0
 13 26  1  0
 13 27  1  0
M  END
$$$$

     RDKit          3D

 27 26  0  0  0  0  0  0  0  0999 V2000
    5.2147   -0.3655   -0.2546 C   0  0  0  0  0  0  0  0  0  0  0  0
    4.2021   -0.8407    0.6072 O   0  0  0  0  0  0  0  0  0  0  0  0
    3.0826   -0.1051    0.4078 N   0  0  0  0  0  0  0  0  0  0  0  0
    1.8970   -0.6407   -0.1708 C   0  0  0  0  0  0  0  0  0  0  0  0
    1.8764   -1.8333   -0.5133 O   0  0  0  0  0  0  0  0  0  0  0  0
    0.7142    0.2069   -0.3644 C   0  0  2  0  0  0  0  0  0  0  0  0
    0.8465    1.4545    0.3204 N   0  0  0  0  0  0  0  0  0  0  0  0
   -0.5528   -0.5092    0.0143 C   0  0  0  0  0  0  0  0  0  0  0  0
   -1.7543    0.3958   -0.2035 C   0  0  0  0  0  0  0  0  0  0  0  0
   -3.0331   -0.2562    0.1432 C   0  0  0  0  0  0  0  0  0  0  0  0
   -3.0961   -1.4360    0.5538 O   0  0  0  0  0  0  0  0  0  0  0  0
   -4.2234    0.4454    0.0188 O   0  0  0  0  0  0  0  0  0  0  0  0
   -5.4976   -0.0301    0.3087 C   0  0  0  0  0  0  0  0  0  0  0  0
    6.1748   -0.3599    0.2897 H   0  0  0  0  0  0  0  0  0  0  0  0
    4.9588    0.6982   -0.4673 H   0  0  0  0  0  0  0  0  0  0  0  0
    5.3252   -0.9865   -1.1459 H   0  0  0  0  0  0  0  0  0  0  0  0
    3.0823    0.8833    0.6810 H   0  0  0  0  0  0  0  0  0  0  0  0
    0.5830    0.4677   -1.4563 H   0  0  0  0  0  0  0  0  0  0  0  0
    1.2838    2.2016   -0.2286 H   0  0  0  0  0  0  0  0  0  0  0  0
    1.1864    1.2856    1.2705 H   0  0  0  0  0  0  0  0  0  0  0  0
   -0.5190   -0.8192    1.0757 H   0  0  0  0  0  0  0  0  0  0  0  0
   -0.7210   -1.4242   -0.5768 H   0  0  0  0  0  0  0  0  0  0  0  0
   -1.6378    1.3695    0.3215 H   0  0  0  0  0  0  0  0  0  0  0  0
   -1.8217    0.6283   -1.2954 H   0  0  0  0  0  0  0  0  0  0  0  0
   -5.7133    0.0129    1.3994 H   0  0  0  0  0  0  0  0  0  0  0  0
   -5.6440   -1.0673   -0.1047 H   0  0  0  0  0  0  0  0  0  0  0  0
   -6.2137    0.6244   -0.2649 H   0  0  0  0  0  0  0  0  0  0  0  0
  1  2  1  0
  2  3  1  0
  3  4  1  0
  4  5  2  0
  4  6  1  0
  6  7  1  0
  6  8  1  0
  8  9  1  0
  9 10  1  0
 10 11  2  0
 10 12  1  0
 12 13  1  0
  1 14  1  0
  1 15  1  0
  1 16  1  0
  3 17  1  0
  6 18  1  6
  7 19  1  0
  7 20  1  0
  8 21  1  0
  8 22  1  0
  9 23  1  0
  9 24  1  0
 13 25  1  0
 13 26  1  0
 13 27  1  0
M  END
$$$$

     RDKit          3D

 27 26  0  0  0  0  0  0  0  0999 V2000
   -4.0234    1.0760   -0.1860 C   0  0  0  0  0  0  0  0  0  0  0  0
   -3.8557   -0.3082   -0.3620 O   0  0  0  0  0  0  0  0  0  0  0  0
   -2.5939   -0.5625   -0.8159 N   0  0  0  0  0  0  0  0  0  0  0  0
   -1.5402   -0.2029    0.0502 C   0  0  0  0  0  0  0  0  0  0  0  0
   -1.7509    0.3119    1.1554 O   0  0  0  0  0  0  0  0  0  0  0  0
   -0.1218   -0.4507   -0.3786 C   0  0  2  0  0  0  0  0  0  0  0  0
   -0.1250   -1.0579   -1.6996 N   0  0  0  0  0  0  0  0  0  0  0  0
    0.6087   -1.3001    0.6125 C   0  0  0  0  0  0  0  0  0  0  0  0
    2.0149   -1.5303    0.1567 C   0  0  0  0  0  0  0  0  0  0  0  0
    2.8178   -0.3051    0.0304 C   0  0  0  0  0  0  0  0  0  0  0  0
    3.9612   -0.3119   -0.5110 O   0  0  0  0  0  0  0  0  0  0  0  0
    2.3273    0.8852    0.5100 O   0  0  0  0  0  0  0  0  0  0  0  0
    2.9894    2.1114    0.4527 C   0  0  0  0  0  0  0  0  0  0  0  0
   -4.8590    1.4618   -0.7821 H   0  0  0  0  0  0  0  0  0  0  0  0
   -3.1015    1.6364   -0.4312 H   0  0  0  0  0  0  0  0  0  0  0  0
   -4.2272    1.2184    0.8973 H   0  0  0  0  0  0  0  0  0  0  0  0
   -2.4577   -0.9929   -1.7432 H   0  0  0  0  0  0  0  0  0  0  0  0
    0.3178    0.5532   -0.4924 H   0  0  0  0  0  0  0  0  0  0  0  0
   -0.4631   -0.3939   -2.4251 H   0  0  0  0  0  0  0  0  0  0  0  0
   -0.6496   -1.9375   -1.6834 H   0  0  0  0  0  0  0  0  0  0  0  0
    0.6901   -0.7284    1.5860 H   0  0  0  0  0  0  0  0  0  0  0  0
    0.0789   -2.2505    0.8296 H   0  0  0  0  0  0  0  0  0  0  0  0
    2.5124   -2.1855    0.9035 H   0  0  0  0  0  0  0  0  0  0  0  0
    2.0140   -2.0635   -0.8345 H   0  0  0  0  0  0  0  0  0  0  0  0
    4.0381    2.0003    0.7428 H   0  0  0  0  0  0  0  0  0  0  0  0
    2.4820    2.8424    1.1118 H   0  0  0  0  0  0  0  0  0  0  0  0
    2.9166    2.4850   -0.6006 H   0  0  0  0  0  0  0  0  0  0  0  0
  1  2  1  0
  2  3  1  0
  3  4  1  0
  4  5  2  0
  4  6  1  0
  6  7  1  0
  6  8  1  0
  8  9  1  0
  9 10  1  0
 10 11  2  0
 10 12  1  0
 12 13  1  0
  1 14  1  0
  1 15  1  0
  1 16  1  0
  3 17  1  0
  6 18  1  6
  7 19  1  0
  7 20  1  0
  8 21  1  0
  8 22  1  0
  9 23  1  0
  9 24  1  0
 13 25  1  0
 13 26  1  0
 13 27  1  0
M  END
$$$$
