
     RDKit          3D

 30 30  0  0  0  0  0  0  0  0999 V2000
    1.7323    2.7054   -0.1054 N   0  0  0  0  0  0  0  0  0  0  0  0
    0.3250    2.4769    0.1863 C   0  0  0  0  0  0  0  0  0  0  0  0
    0.2241    1.1486    0.8928 C   0  0  0  0  0  0  0  0  0  0  0  0
    0.7096    0.0518    0.1272 N   0  0  0  0  0  0  0  0  0  0  0  0
    2.1150   -0.3677    0.2156 C   0  0  0  0  0  0  0  0  0  0  0  0
    2.2774   -1.4095    1.3130 C   0  0  0  0  0  0  0  0  0  0  0  0
    1.4626   -2.5044    0.9780 O   0  0  0  0  0  0  0  0  0  0  0  0
   -0.1467   -0.6657   -0.7413 C   0  0  0  0  0  0  0  0  0  0  0  0
    0.3227   -1.6588   -1.4225 O   0  0  0  0  0  0  0  0  0  0  0  0
   -1.5626   -0.3984   -0.9642 C   0  0  0  0  0  0  0  0  0  0  0  0
   -2.5361   -0.5313    0.1438 C   0  0  0  0  0  0  0  0  0  0  0  0
   -3.5022   -1.0472   -0.8460 N   0  0  0  0  0  0  0  0  0  0  0  0
   -2.3538   -1.5422   -1.5698 C   0  0  0  0  0  0  0  0  0  0  0  0
    1.7434    3.5520   -0.7505 H   0  0  0  0  0  0  0  0  0  0  0  0
    2.2502    3.0149    0.7473 H   0  0  0  0  0  0  0  0  0  0  0  0
    0.0332    3.2549    0.9228 H   0  0  0  0  0  0  0  0  0  0  0  0
   -0.3182    2.5781   -0.6822 H   0  0  0  0  0  0  0  0  0  0  0  0
    0.9311    1.2533    1.7790 H   0  0  0  0  0  0  0  0  0  0  0  0
   -0.7594    1.0026    1.3622 H   0  0  0  0  0  0  0  0  0  0  0  0
    2.3807   -0.8047   -0.7678 H   0  0  0  0  0  0  0  0  0  0  0  0
    2.7715    0.4729    0.4784 H   0  0  0  0  0  0  0  0  0  0  0  0
    2.0599   -1.0014    2.3054 H   0  0  0  0  0  0  0  0  0  0  0  0
    3.3123   -1.8055    1.3381 H   0  0  0  0  0  0  0  0  0  0  0  0
    1.9544   -3.0389    0.3084 H   0  0  0  0  0  0  0  0  0  0  0  0
   -1.7393    0.5272   -1.5427 H   0  0  0  0  0  0  0  0  0  0  0  0
   -2.3491   -1.3324    0.8856 H   0  0  0  0  0  0  0  0  0  0  0  0
   -2.8851    0.4347    0.5715 H   0  0  0  0  0  0  0  0  0  0  0  0
   -3.9815   -0.2770   -1.3788 H   0  0  0  0  0  0  0  0  0  0  0  0
   -2.4210   -1.5541   -2.6589 H   0  0  0  0  0  0  0  0  0  0  0  0
   -2.0502   -2.5341   -1.1252 H   0  0  0  0  0  0  0  0  0  0  0  0
  1  2  1  0
  2  3  1  0
  3  4  1  0
  4  5  1  0
  5  6  1  0
  6  7  1  0
  4  8  1  0
  8  9  2  0
  8 10  1  0
 10 11  1  0
 11 12  1  0
 12 13  1  0
 13 10  1  0
  1 14  1  0
  1 15  1  0
  2 16  1  0
  2 17  1  0
  3 18  1  0
  3 19  1  0
  5 20  1  0
  5 21  1  0
  6 22  1  0
  6 23  1  0
  7 24  1  0
 10 25  1  0
 11 26  1  0
 11 27  1  0
 12 28  1  0
 13 29  1  0
 13 30  1  0
M  END
$$$$

     RDKit          3D

 30 30  0  0  0  0  0  0  0  0999 V2000
   -3.5543    2.0416   -0.3058 N   0  0  0  0  0  0  0  0  0  0  0  0
   -2.4668    1.2170    0.1590 C   0  0  0  0  0  0  0  0  0  0  0  0
   -1.5054    0.9737   -0.9905 C   0  0  0  0  0  0  0  0  0  0  0  0
   -0.3878    0.1484   -0.5839 N   0  0  0  0  0  0  0  0  0  0  0  0
   -0.5251   -1.2738   -0.7316 C   0  0  0  0  0  0  0  0  0  0  0  0
   -0.0525   -1.7575   -2.0865 C   0  0  0  0  0  0  0  0  0  0  0  0
   -0.2428   -3.1525   -2.0918 O   0  0  0  0  0  0  0  0  0  0  0  0
    0.7731    0.7365   -0.0785 C   0  0  0  0  0  0  0  0  0  0  0  0
    0.7896    2.0147   -0.0096 O   0  0  0  0  0  0  0  0  0  0  0  0
    1.9704    0.0313    0.3798 C   0  0  0  0  0  0  0  0  0  0  0  0
    1.8603   -0.8097    1.6212 C   0  0  0  0  0  0  0  0  0  0  0  0
    3.1969   -0.3050    1.9908 N   0  0  0  0  0  0  0  0  0  0  0  0
    2.8628    0.9028    1.2734 C   0  0  0  0  0  0  0  0  0  0  0  0
   -4.4866    1.5713   -0.2459 H   0  0  0  0  0  0  0  0  0  0  0  0
   -3.6283    2.9044    0.2751 H   0  0  0  0  0  0  0  0  0  0  0  0
   -1.9727    1.7367    1.0025 H   0  0  0  0  0  0  0  0  0  0  0  0
   -2.8358    0.2497    0.5731 H   0  0  0  0  0  0  0  0  0  0  0  0
   -2.0841    0.5420   -1.8266 H   0  0  0  0  0  0  0  0  0  0  0  0
   -1.1695    1.9851   -1.3274 H   0  0  0  0  0  0  0  0  0  0  0  0
    0.0520   -1.8036    0.0279 H   0  0  0  0  0  0  0  0  0  0  0  0
   -1.6182   -1.5387   -0.6874 H   0  0  0  0  0  0  0  0  0  0  0  0
   -0.6494   -1.3571   -2.9106 H   0  0  0  0  0  0  0  0  0  0  0  0
    1.0357   -1.5937   -2.1841 H   0  0  0  0  0  0  0  0  0  0  0  0
   -0.2167   -3.5156   -3.0053 H   0  0  0  0  0  0  0  0  0  0  0  0
    2.6126   -0.4103   -0.4129 H   0  0  0  0  0  0  0  0  0  0  0  0
    1.1121   -0.4014    2.3055 H   0  0  0  0  0  0  0  0  0  0  0  0
    1.8551   -1.9124    1.4888 H   0  0  0  0  0  0  0  0  0  0  0  0
    3.3186   -0.1866    3.0182 H   0  0  0  0  0  0  0  0  0  0  0  0
    3.7005    1.3749    0.7301 H   0  0  0  0  0  0  0  0  0  0  0  0
    2.2564    1.5879    1.8763 H   0  0  0  0  0  0  0  0  0  0  0  0
  1  2  1  0
  2  3  1  0
  3  4  1  0
  4  5  1  0
  5  6  1  0
  6  7  1  0
  4  8  1  0
  8  9  2  0
  8 10  1  0
 10 11  1  0
 11 12  1  0
 12 13  1  0
 13 10  1  0
  1 14  1  0
  1 15  1  0
  2 16  1  0
  2 17  1  0
  3 18  1  0
  3 19  1  0
  5 20  1  0
  5 21  1  0
  6 22  1  0
  6 23  1  0
  7 24  1  0
 10 25  1  0
 11 26  1  0
 11 27  1  0
 12 28  1  0
 13 29  1  0
 13 30  1  0
M  END
$$$$

     RDKit          3D

 30 30  0  0  0  0  0  0  0  0999 V2000
   -1.8852    2.3069   -1.7592 N   0  0  0  0  0  0  0  0  0  0  0  0
   -1.3488    0.9953   -1.3586 C   0  0  0  0  0  0  0  0  0  0  0  0
   -1.0929    1.0665    0.1048 C   0  0  0  0  0  0  0  0  0  0  0  0
   -0.5566   -0.1163    0.7142 N   0  0  0  0  0  0  0  0  0  0  0  0
   -1.4326   -1.1223    1.2394 C   0  0  0  0  0  0  0  0  0  0  0  0
   -1.8094   -2.2093    0.2866 C   0  0  0  0  0  0  0  0  0  0  0  0
   -2.6640   -3.0771    1.0109 O   0  0  0  0  0  0  0  0  0  0  0  0
    0.8409   -0.2908    0.8136 C   0  0  0  0  0  0  0  0  0  0  0  0
    1.2712   -1.3459    1.3553 O   0  0  0  0  0  0  0  0  0  0  0  0
    1.8440    0.6852    0.3228 C   0  0  0  0  0  0  0  0  0  0  0  0
    3.2582    0.2987    0.7014 C   0  0  0  0  0  0  0  0  0  0  0  0
    3.6353    0.2729   -0.6961 N   0  0  0  0  0  0  0  0  0  0  0  0
    2.2621    0.3463   -1.0918 C   0  0  0  0  0  0  0  0  0  0  0  0
   -2.8824    2.3149   -1.4209 H   0  0  0  0  0  0  0  0  0  0  0  0
   -1.4109    3.0796   -1.2045 H   0  0  0  0  0  0  0  0  0  0  0  0
   -0.4279    0.8325   -1.9228 H   0  0  0  0  0  0  0  0  0  0  0  0
   -2.1363    0.2422   -1.5771 H   0  0  0  0  0  0  0  0  0  0  0  0
   -0.4238    1.9419    0.2725 H   0  0  0  0  0  0  0  0  0  0  0  0
   -2.0970    1.2437    0.5895 H   0  0  0  0  0  0  0  0  0  0  0  0
   -0.9926   -1.6328    2.1414 H   0  0  0  0  0  0  0  0  0  0  0  0
   -2.3935   -0.6910    1.6267 H   0  0  0  0  0  0  0  0  0  0  0  0
   -0.9449   -2.8383   -0.0184 H   0  0  0  0  0  0  0  0  0  0  0  0
   -2.4112   -1.8892   -0.5765 H   0  0  0  0  0  0  0  0  0  0  0  0
   -3.1101   -2.5853    1.7504 H   0  0  0  0  0  0  0  0  0  0  0  0
    1.6352    1.7336    0.5256 H   0  0  0  0  0  0  0  0  0  0  0  0
    3.3725   -0.6433    1.2487 H   0  0  0  0  0  0  0  0  0  0  0  0
    3.8369    1.1198    1.2162 H   0  0  0  0  0  0  0  0  0  0  0  0
    4.1662   -0.5714   -1.0037 H   0  0  0  0  0  0  0  0  0  0  0  0
    1.8673   -0.6285   -1.4635 H   0  0  0  0  0  0  0  0  0  0  0  0
    2.0302    1.1613   -1.8268 H   0  0  0  0  0  0  0  0  0  0  0  0
  1  2  1  0
  2  3  1  0
  3  4  1  0
  4  5  1  0
  5  6  1  0
  6  7  1  0
  4  8  1  0
  8  9  2  0
  8 10  1  0
 10 11  1  0
 11 12  1  0
 12 13  1  0
 13 10  1  0
  1 14  1  0
  1 15  1  0
  2 16  1  0
  2 17  1  0
  3 18  1  0
  3 19  1  0
  5 20  1  0
  5 21  1  0
  6 22  1  0
  6 23  1  0
  7 24  1  0
 10 25  1  0
 11 26  1  0
 11 27  1  0
 12 28  1  0
 13 29  1  0
 13 30  1  0
M  END
$$$$

     RDKit          3D

 30 30  0  0  0  0  0  0  0  0999 V2000
    2.8908   -1.1307    0.6982 N   0  0  0  0  0  0  0  0  0  0  0  0
    1.6204   -1.7136    0.4255 C   0  0  0  0  0  0  0  0  0  0  0  0
    0.8049   -1.0972   -0.6490 C   0  0  0  0  0  0  0  0  0  0  0  0
    0.3948    0.2576   -0.4944 N   0  0  0  0  0  0  0  0  0  0  0  0
    1.1022    1.3569   -1.0277 C   0  0  0  0  0  0  0  0  0  0  0  0
    2.0566    2.0799   -0.1302 C   0  0  0  0  0  0  0  0  0  0  0  0
    2.6006    3.1237   -0.9333 O   0  0  0  0  0  0  0  0  0  0  0  0
   -0.8435    0.5388    0.1735 C   0  0  0  0  0  0  0  0  0  0  0  0
   -1.2384    1.7433    0.3424 O   0  0  0  0  0  0  0  0  0  0  0  0
   -1.7437   -0.5075    0.7069 C   0  0  0  0  0  0  0  0  0  0  0  0
   -3.0116    0.0454    1.3446 C   0  0  0  0  0  0  0  0  0  0  0  0
   -3.7537   -0.9996    0.6986 N   0  0  0  0  0  0  0  0  0  0  0  0
   -2.7174   -1.0366   -0.3200 C   0  0  0  0  0  0  0  0  0  0  0  0
    3.5856   -1.8340    1.0957 H   0  0  0  0  0  0  0  0  0  0  0  0
    3.3817   -0.8078   -0.1882 H   0  0  0  0  0  0  0  0  0  0  0  0
    0.9920   -1.7753    1.3602 H   0  0  0  0  0  0  0  0  0  0  0  0
    1.8243   -2.8067    0.2022 H   0  0  0  0  0  0  0  0  0  0  0  0
   -0.1222   -1.7418   -0.8102 H   0  0  0  0  0  0  0  0  0  0  0  0
    1.3168   -1.1940   -1.6576 H   0  0  0  0  0  0  0  0  0  0  0  0
    1.6844    1.1087   -1.9570 H   0  0  0  0  0  0  0  0  0  0  0  0
    0.4043    2.1749   -1.4098 H   0  0  0  0  0  0  0  0  0  0  0  0
    1.5487    2.6162    0.7025 H   0  0  0  0  0  0  0  0  0  0  0  0
    2.9163    1.4992    0.2335 H   0  0  0  0  0  0  0  0  0  0  0  0
    1.9999    3.3563   -1.6702 H   0  0  0  0  0  0  0  0  0  0  0  0
   -1.3102   -1.2597    1.3777 H   0  0  0  0  0  0  0  0  0  0  0  0
   -3.0005    0.0311    2.4486 H   0  0  0  0  0  0  0  0  0  0  0  0
   -3.2745    1.0576    0.9325 H   0  0  0  0  0  0  0  0  0  0  0  0
   -4.6982   -0.7464    0.3315 H   0  0  0  0  0  0  0  0  0  0  0  0
   -2.9106   -0.2955   -1.1075 H   0  0  0  0  0  0  0  0  0  0  0  0
   -2.4999   -2.0433   -0.7191 H   0  0  0  0  0  0  0  0  0  0  0  0
  1  2  1  0
  2  3  1  0
  3  4  1  0
  4  5  1  0
  5  6  1  0
  6  7  1  0
  4  8  1  0
  8  9  2  0
  8 10  1  0
 10 11  1  0
 11 12  1  0
 12 13  1  0
 13 10  1  0
  1 14  1  0
  1 15  1  0
  2 16  1  0
  2 17  1  0
  3 18  1  0
  3 19  1  0
  5 20  1  0
  5 21  1  0
  6 22  1  0
  6 23  1  0
  7 24  1  0
 10 25  1  0
 11 26  1  0
 11 27  1  0
 12 28  1  0
 13 29  1  0
 13 30  1  0
M  END
$$$$

     RDKit          3D

 30 30  0  0  0  0  0  0  0  0999 V2000
   -0.6776   -2.1758    1.4170 N   0  0  0  0  0  0  0  0  0  0  0  0
   -1.5489   -1.9260    0.3009 C   0  0  0  0  0  0  0  0  0  0  0  0
   -1.0504   -0.9958   -0.7335 C   0  0  0  0  0  0  0  0  0  0  0  0
   -0.7322    0.3308   -0.3359 N   0  0  0  0  0  0  0  0  0  0  0  0
   -1.7241    1.4008   -0.2747 C   0  0  0  0  0  0  0  0  0  0  0  0
   -1.7987    2.1245   -1.5999 C   0  0  0  0  0  0  0  0  0  0  0  0
   -2.7387    3.1315   -1.5274 O   0  0  0  0  0  0  0  0  0  0  0  0
    0.5872    0.6817    0.0257 C   0  0  0  0  0  0  0  0  0  0  0  0
    0.8679    1.8809    0.4037 O   0  0  0  0  0  0  0  0  0  0  0  0
    1.7506   -0.2211    0.0182 C   0  0  0  0  0  0  0  0  0  0  0  0
    3.0950    0.4998    0.0244 C   0  0  0  0  0  0  0  0  0  0  0  0
    3.6153   -0.6130    0.7889 N   0  0  0  0  0  0  0  0  0  0  0  0
    2.2546   -0.7017    1.3582 C   0  0  0  0  0  0  0  0  0  0  0  0
   -0.7234   -1.4604    2.1651 H   0  0  0  0  0  0  0  0  0  0  0  0
   -1.0121   -3.0746    1.8647 H   0  0  0  0  0  0  0  0  0  0  0  0
   -2.5879   -1.6848    0.6177 H   0  0  0  0  0  0  0  0  0  0  0  0
   -1.6698   -2.9331   -0.2068 H   0  0  0  0  0  0  0  0  0  0  0  0
   -0.1772   -1.4637   -1.2581 H   0  0  0  0  0  0  0  0  0  0  0  0
   -1.8472   -0.9210   -1.5210 H   0  0  0  0  0  0  0  0  0  0  0  0
   -2.7308    1.0143   -0.0563 H   0  0  0  0  0  0  0  0  0  0  0  0
   -1.4379    2.0727    0.5555 H   0  0  0  0  0  0  0  0  0  0  0  0
   -2.1285    1.4228   -2.3919 H   0  0  0  0  0  0  0  0  0  0  0  0
   -0.7975    2.4910   -1.9176 H   0  0  0  0  0  0  0  0  0  0  0  0
   -3.1445    3.1884   -0.6229 H   0  0  0  0  0  0  0  0  0  0  0  0
    1.7458   -1.0014   -0.7355 H   0  0  0  0  0  0  0  0  0  0  0  0
    3.5546    0.6028   -0.9816 H   0  0  0  0  0  0  0  0  0  0  0  0
    3.1233    1.4117    0.6572 H   0  0  0  0  0  0  0  0  0  0  0  0
    3.7544   -1.4393    0.1544 H   0  0  0  0  0  0  0  0  0  0  0  0
    2.1920    0.0721    2.1607 H   0  0  0  0  0  0  0  0  0  0  0  0
    1.9866   -1.7139    1.6509 H   0  0  0  0  0  0  0  0  0  0  0  0
  1  2  1  0
  2  3  1  0
  3  4  1  0
  4  5  1  0
  5  6  1  0
  6  7  1  0
  4  8  1  0
  8  9  2  0
  8 10  1  0
 10 11  1  0
 11 12  1  0
 12 13  1  0
 13 10  1  0
  1 14  1  0
  1 15  1  0
  2 16  1  0
  2 17  1  0
  3 18  1  0
  3 19  1  0
  5 20  1  0
  5 21  1  0
  6 22  1  0
  6 23  1  0
  7 24  1  0
 10 25  1  0
 11 26  1  0
 11 27  1  0
 12 28  1  0
 13 29  1  0
 13 30  1  0
M  END
$$$$

     RDKit          3D

 30 30  0  0  0  0  0  0  0  0999 V2000
   -2.9744    2.8924   -0.8775 N   0  0  0  0  0  0  0  0  0  0  0  0
   -1.7647    2.0972   -0.9804 C   0  0  0  0  0  0  0  0  0  0  0  0
   -1.7753    1.0354    0.0959 C   0  0  0  0  0  0  0  0  0  0  0  0
   -0.5665    0.2078    0.0262 N   0  0  0  0  0  0  0  0  0  0  0  0
   -0.5221   -0.9910   -0.7357 C   0  0  0  0  0  0  0  0  0  0  0  0
   -0.9938   -2.2163    0.0075 C   0  0  0  0  0  0  0  0  0  0  0  0
   -0.8877   -3.2982   -0.8601 O   0  0  0  0  0  0  0  0  0  0  0  0
    0.5306    0.6547    0.7814 C   0  0  0  0  0  0  0  0  0  0  0  0
    0.2503    1.7376    1.4687 O   0  0  0  0  0  0  0  0  0  0  0  0
    1.8617    0.1513    0.9231 C   0  0  0  0  0  0  0  0  0  0  0  0
    2.1860   -1.2725    1.1644 C   0  0  0  0  0  0  0  0  0  0  0  0
    3.5495   -0.8995    0.7017 N   0  0  0  0  0  0  0  0  0  0  0  0
    2.8274    0.0422   -0.1906 C   0  0  0  0  0  0  0  0  0  0  0  0
   -2.9891    3.4645   -0.0183 H   0  0  0  0  0  0  0  0  0  0  0  0
   -3.1400    3.4328   -1.7554 H   0  0  0  0  0  0  0  0  0  0  0  0
   -0.8632    2.7350   -0.8844 H   0  0  0  0  0  0  0  0  0  0  0  0
   -1.7789    1.6362   -1.9961 H   0  0  0  0  0  0  0  0  0  0  0  0
   -2.6888    0.4405   -0.0450 H   0  0  0  0  0  0  0  0  0  0  0  0
   -1.7872    1.5402    1.0747 H   0  0  0  0  0  0  0  0  0  0  0  0
   -1.2084   -0.8005   -1.6289 H   0  0  0  0  0  0  0  0  0  0  0  0
    0.4307   -1.2618   -1.2028 H   0  0  0  0  0  0  0  0  0  0  0  0
   -0.4348   -2.4416    0.9255 H   0  0  0  0  0  0  0  0  0  0  0  0
   -2.0560   -2.1587    0.3077 H   0  0  0  0  0  0  0  0  0  0  0  0
   -1.6652   -3.8942   -0.8132 H   0  0  0  0  0  0  0  0  0  0  0  0
    2.3882    0.7380    1.7592 H   0  0  0  0  0  0  0  0  0  0  0  0
    1.8559   -2.0568    0.4989 H   0  0  0  0  0  0  0  0  0  0  0  0
    2.1753   -1.5440    2.2545 H   0  0  0  0  0  0  0  0  0  0  0  0
    4.0085   -0.4180    1.5042 H   0  0  0  0  0  0  0  0  0  0  0  0
    2.6035   -0.5052   -1.0971 H   0  0  0  0  0  0  0  0  0  0  0  0
    3.4286    0.9526   -0.4081 H   0  0  0  0  0  0  0  0  0  0  0  0
  1  2  1  0
  2  3  1  0
  3  4  1  0
  4  5  1  0
  5  6  1  0
  6  7  1  0
  4  8  1  0
  8  9  2  0
  8 10  1  0
 10 11  1  0
 11 12  1  0
 12 13  1  0
 13 10  1  0
  1 14  1  0
  1 15  1  0
  2 16  1  0
  2 17  1  0
  3 18  1  0
  3 19  1  0
  5 20  1  0
  5 21  1  0
  6 22  1  0
  6 23  1  0
  7 24  1  0
 10 25  1  0
 11 26  1  0
 11 27  1  0
 12 28  1  0
 13 29  1  0
 13 30  1  0
M  END
$$$$

     RDKit          3D

 30 30  0  0  0  0  0  0  0  0999 V2000
   -3.0199   -2.8411    0.4263 N   0  0  0  0  0  0  0  0  0  0  0  0
   -1.8228   -2.0603    0.6483 C   0  0  0  0  0  0  0  0  0  0  0  0
   -1.7624   -0.8914   -0.3210 C   0  0  0  0  0  0  0  0  0  0  0  0
   -0.5689   -0.1026   -0.1084 N   0  0  0  0  0  0  0  0  0  0  0  0
   -0.6726    0.9893    0.8372 C   0  0  0  0  0  0  0  0  0  0  0  0
   -1.0944    2.2750    0.1878 C   0  0  0  0  0  0  0  0  0  0  0  0
   -1.1574    3.2448    1.1986 O   0  0  0  0  0  0  0  0  0  0  0  0
    0.6069   -0.4231   -0.8108 C   0  0  0  0  0  0  0  0  0  0  0  0
    0.5970   -1.3897   -1.6103 O   0  0  0  0  0  0  0  0  0  0  0  0
    1.8515    0.3300   -0.6466 C   0  0  0  0  0  0  0  0  0  0  0  0
    2.9967   -0.1554   -1.4734 C   0  0  0  0  0  0  0  0  0  0  0  0
    3.8765    0.0869   -0.3413 N   0  0  0  0  0  0  0  0  0  0  0  0
    2.7112   -0.0038    0.5207 C   0  0  0  0  0  0  0  0  0  0  0  0
   -3.4158   -2.5800   -0.5041 H   0  0  0  0  0  0  0  0  0  0  0  0
   -3.7405   -2.5426    1.1405 H   0  0  0  0  0  0  0  0  0  0  0  0
   -1.8160   -1.6418    1.6598 H   0  0  0  0  0  0  0  0  0  0  0  0
   -0.9275   -2.7015    0.4456 H   0  0  0  0  0  0  0  0  0  0  0  0
   -2.6919   -0.2933   -0.2458 H   0  0  0  0  0  0  0  0  0  0  0  0
   -1.7698   -1.3378   -1.3496 H   0  0  0  0  0  0  0  0  0  0  0  0
    0.2742    1.1800    1.3738 H   0  0  0  0  0  0  0  0  0  0  0  0
   -1.4320    0.7474    1.6107 H   0  0  0  0  0  0  0  0  0  0  0  0
   -0.3619    2.6545   -0.5524 H   0  0  0  0  0  0  0  0  0  0  0  0
   -2.0808    2.2025   -0.3175 H   0  0  0  0  0  0  0  0  0  0  0  0
   -2.0437    3.6851    1.1694 H   0  0  0  0  0  0  0  0  0  0  0  0
    1.6847    1.4192   -0.7602 H   0  0  0  0  0  0  0  0  0  0  0  0
    3.2685    0.5077   -2.3229 H   0  0  0  0  0  0  0  0  0  0  0  0
    2.9579   -1.2092   -1.8054 H   0  0  0  0  0  0  0  0  0  0  0  0
    4.2887    1.0285   -0.3100 H   0  0  0  0  0  0  0  0  0  0  0  0
    2.5791   -0.9879    0.9885 H   0  0  0  0  0  0  0  0  0  0  0  0
    2.6852    0.8106    1.2723 H   0  0  0  0  0  0  0  0  0  0  0  0
  1  2  1  0
  2  3  1  0
  3  4  1  0
  4  5  1  0
  5  6  1  0
  6  7  1  0
  4  8  1  0
  8  9  2  0
  8 10  1  0
 10 11  1  0
 11 12  1  0
 12 13  1  0
 13 10  1  0
  1 14  1  0
  1 15  1  0
  2 16  1  0
  2 17  1  0
  3 18  1  0
  3 19  1  0
  5 20  1  0
  5 21  1  0
  6 22  1  0
  6 23  1  0
  7 24  1  0
 10 25  1  0
 11 26  1  0
 11 27  1  0
 12 28  1  0
 13 29  1  0
 13 30  1  0
M  END
$$$$

     RDKit          3D

 30 30  0  0  0  0  0  0  0  0999 V2000
   -3.5708   -1.9667   -0.6052 N   0  0  0  0  0  0  0  0  0  0  0  0
   -2.3501   -1.1644   -0.8226 C   0  0  0  0  0  0  0  0  0  0  0  0
   -1.8166   -0.8612    0.5338 C   0  0  0  0  0  0  0  0  0  0  0  0
   -0.6162   -0.0847    0.5966 N   0  0  0  0  0  0  0  0  0  0  0  0
   -0.6310    1.3457    0.6684 C   0  0  0  0  0  0  0  0  0  0  0  0
   -0.6758    2.0460   -0.6478 C   0  0  0  0  0  0  0  0  0  0  0  0
   -0.6789    3.4237   -0.4175 O   0  0  0  0  0  0  0  0  0  0  0  0
    0.6168   -0.7466    0.5816 C   0  0  0  0  0  0  0  0  0  0  0  0
    0.5863   -2.0312    0.4862 O   0  0  0  0  0  0  0  0  0  0  0  0
    1.9621   -0.1953    0.6613 C   0  0  0  0  0  0  0  0  0  0  0  0
    2.5083    0.6970   -0.3640 C   0  0  0  0  0  0  0  0  0  0  0  0
    3.8207    0.0627   -0.1555 N   0  0  0  0  0  0  0  0  0  0  0  0
    3.0865   -1.1182    0.2432 C   0  0  0  0  0  0  0  0  0  0  0  0
   -3.2901   -2.9647   -0.4594 H   0  0  0  0  0  0  0  0  0  0  0  0
   -4.0188   -1.6515    0.2905 H   0  0  0  0  0  0  0  0  0  0  0  0
   -1.6712   -1.8452   -1.3864 H   0  0  0  0  0  0  0  0  0  0  0  0
   -2.6739   -0.3251   -1.4294 H   0  0  0  0  0  0  0  0  0  0  0  0
   -1.6024   -1.8617    1.0151 H   0  0  0  0  0  0  0  0  0  0  0  0
   -2.6150   -0.4145    1.1773 H   0  0  0  0  0  0  0  0  0  0  0  0
   -1.4768    1.7417    1.2704 H   0  0  0  0  0  0  0  0  0  0  0  0
    0.2917    1.6640    1.2338 H   0  0  0  0  0  0  0  0  0  0  0  0
    0.0957    1.7590   -1.3709 H   0  0  0  0  0  0  0  0  0  0  0  0
   -1.7008    1.8134   -1.0786 H   0  0  0  0  0  0  0  0  0  0  0  0
   -1.3158    3.5968    0.3265 H   0  0  0  0  0  0  0  0  0  0  0  0
    2.1884    0.1919    1.6923 H   0  0  0  0  0  0  0  0  0  0  0  0
    2.2209    0.5534   -1.4095 H   0  0  0  0  0  0  0  0  0  0  0  0
    2.6269    1.7760   -0.0534 H   0  0  0  0  0  0  0  0  0  0  0  0
    4.3838   -0.0303   -1.0223 H   0  0  0  0  0  0  0  0  0  0  0  0
    2.7840   -1.7194   -0.6353 H   0  0  0  0  0  0  0  0  0  0  0  0
    3.5321   -1.6908    1.0806 H   0  0  0  0  0  0  0  0  0  0  0  0
  1  2  1  0
  2  3  1  0
  3  4  1  0
  4  5  1  0
  5  6  1  0
  6  7  1  0
  4  8  1  0
  8  9  2  0
  8 10  1  0
 10 11  1  0
 11 12  1  0
 12 13  1  0
 13 10  1  0
  1 14  1  0
  1 15  1  0
  2 16  1  0
  2 17  1  0
  3 18  1  0
  3 19  1  0
  5 20  1  0
  5 21  1  0
  6 22  1  0
  6 23  1  0
  7 24  1  0
 10 25  1  0
 11 26  1  0
 11 27  1  0
 12 28  1  0
 13 29  1  0
 13 30  1  0
M  END
$$$$
