
     RDKit          3D

 27 27  0  0  0  0  0  0  0  0999 V2000
    5.0801   -0.4538    0.5217 N   0  0  0  0  0  0  0  0  0  0  0  0
    4.0617    0.5512    0.3557 C   0  0  0  0  0  0  0  0  0  0  0  0
    2.7608   -0.1221    0.0856 C   0  0  0  0  0  0  0  0  0  0  0  0
    2.7086   -1.3794    0.0383 O   0  0  0  0  0  0  0  0  0  0  0  0
    1.5593    0.6303   -0.1231 N   0  0  0  0  0  0  0  0  0  0  0  0
    0.3537   -0.1110   -0.3769 C   0  0  0  0  0  0  0  0  0  0  0  0
   -0.8426    0.8085   -0.5795 C   0  0  0  0  0  0  0  0  0  0  0  0
   -1.9883   -0.0355   -0.8252 N   0  0  0  0  0  0  0  0  0  0  0  0
   -3.2013    0.6871   -1.0375 C   0  0  0  0  0  0  0  0  0  0  0  0
   -4.2431   -0.1527   -0.3900 C   0  0  0  0  0  0  0  0  0  0  0  0
   -3.6774   -1.1161    0.3259 C   0  0  0  0  0  0  0  0  0  0  0  0
   -2.2152   -0.9936    0.2114 C   0  0  0  0  0  0  0  0  0  0  0  0
    5.7591   -0.2174    1.2799 H   0  0  0  0  0  0  0  0  0  0  0  0
    4.6732   -1.3961    0.7756 H   0  0  0  0  0  0  0  0  0  0  0  0
    3.9218    1.1288    1.2973 H   0  0  0  0  0  0  0  0  0  0  0  0
    4.2729    1.2465   -0.4722 H   0  0  0  0  0  0  0  0  0  0  0  0
    1.6135    1.6624   -0.0820 H   0  0  0  0  0  0  0  0  0  0  0  0
    0.1947   -0.7958    0.4801 H   0  0  0  0  0  0  0  0  0  0  0  0
    0.5098   -0.7582   -1.2732 H   0  0  0  0  0  0  0  0  0  0  0  0
   -0.6701    1.5332   -1.3864 H   0  0  0  0  0  0  0  0  0  0  0  0
   -0.9563    1.3822    0.3655 H   0  0  0  0  0  0  0  0  0  0  0  0
   -3.2061    1.7007   -0.5902 H   0  0  0  0  0  0  0  0  0  0  0  0
   -3.3568    0.7580   -2.1533 H   0  0  0  0  0  0  0  0  0  0  0  0
   -5.3346    0.0034   -0.4907 H   0  0  0  0  0  0  0  0  0  0  0  0
   -4.2605   -1.8605    0.8945 H   0  0  0  0  0  0  0  0  0  0  0  0
   -1.7936   -1.9657   -0.1229 H   0  0  0  0  0  0  0  0  0  0  0  0
   -1.7234   -0.7345    1.1704 H   0  0  0  0  0  0  0  0  0  0  0  0
  1  2  1  0
  2  3  1  0
  3  4  2  0
  3  5  1  0
  5  6  1  0
  6  7  1  0
  7  8  1  0
  8  9  1  0
  9 10  1  0
 10 11  2  0
 11 12  1  0
 12  8  1  0
  1 13  1  0
  1 14  1  0
  2 15  1  0
  2 16  1  0
  5 17  1  0
  6 18  1  0
  6 19  1  0
  7 20  1  0
  7 21  1  0
  9 22  1  0
  9 23  1  0
 10 24  1  0
 11 25  1  0
 12 26  1  0
 12 27  1  0
M  END
$$$$

     RDKit          3D

 27 27  0  0  0  0  0  0  0  0999 V2000
   -4.3728   -0.3254   -0.9889 N   0  0  0  0  0  0  0  0  0  0  0  0
   -4.2436    0.5331    0.1498 C   0  0  0  0  0  0  0  0  0  0  0  0
   -2.8538    0.6824    0.6390 C   0  0  0  0  0  0  0  0  0  0  0  0
   -2.5873    1.4179    1.6484 O   0  0  0  0  0  0  0  0  0  0  0  0
   -1.7228    0.0460    0.0559 N   0  0  0  0  0  0  0  0  0  0  0  0
   -0.3922    0.2398    0.5917 C   0  0  0  0  0  0  0  0  0  0  0  0
    0.5821   -0.5432   -0.2166 C   0  0  0  0  0  0  0  0  0  0  0  0
    1.9317   -0.4321    0.2095 N   0  0  0  0  0  0  0  0  0  0  0  0
    2.5706    0.8263    0.0306 C   0  0  0  0  0  0  0  0  0  0  0  0
    3.9920    0.5018    0.3293 C   0  0  0  0  0  0  0  0  0  0  0  0
    4.1653   -0.7893    0.0809 C   0  0  0  0  0  0  0  0  0  0  0  0
    2.8520   -1.3658   -0.3941 C   0  0  0  0  0  0  0  0  0  0  0  0
   -5.3136   -0.1992   -1.4344 H   0  0  0  0  0  0  0  0  0  0  0  0
   -3.6029   -0.1062   -1.6650 H   0  0  0  0  0  0  0  0  0  0  0  0
   -4.9456    0.2404    0.9496 H   0  0  0  0  0  0  0  0  0  0  0  0
   -4.5628    1.5536   -0.1900 H   0  0  0  0  0  0  0  0  0  0  0  0
   -1.8509   -0.5599   -0.7555 H   0  0  0  0  0  0  0  0  0  0  0  0
   -0.3769   -0.1417    1.6382 H   0  0  0  0  0  0  0  0  0  0  0  0
   -0.1312    1.3152    0.6681 H   0  0  0  0  0  0  0  0  0  0  0  0
    0.4602   -0.2506   -1.2870 H   0  0  0  0  0  0  0  0  0  0  0  0
    0.2826   -1.6069   -0.1587 H   0  0  0  0  0  0  0  0  0  0  0  0
    2.5681    1.1417   -1.0555 H   0  0  0  0  0  0  0  0  0  0  0  0
    2.1686    1.6465    0.6594 H   0  0  0  0  0  0  0  0  0  0  0  0
    4.7557    1.1797    0.6846 H   0  0  0  0  0  0  0  0  0  0  0  0
    5.0843   -1.3517    0.1948 H   0  0  0  0  0  0  0  0  0  0  0  0
    2.8310   -1.2507   -1.4762 H   0  0  0  0  0  0  0  0  0  0  0  0
    2.7121   -2.4017   -0.0244 H   0  0  0  0  0  0  0  0  0  0  0  0
  1  2  1  0
  2  3  1  0
  3  4  2  0
  3  5  1  0
  5  6  1  0
  6  7  1  0
  7  8  1  0
  8  9  1  0
  9 10  1  0
 10 11  2  0
 11 12  1  0
 12  8  1  0
  1 13  1  0
  1 14  1  0
  2 15  1  0
  2 16  1  0
  5 17  1  0
  6 18  1  0
  6 19  1  0
  7 20  1  0
  7 21  1  0
  9 22  1  0
  9 23  1  0
 10 24  1  0
 11 25  1  0
 12 26  1  0
 12 27  1  0
M  END
$$$$

     RDKit          3D

 27 27  0  0  0  0  0  0  0  0999 V2000
    4.7883    0.5179    0.4640 N   0  0  0  0  0  0  0  0  0  0  0  0
    3.5235   -0.0564    0.8851 C   0  0  0  0  0  0  0  0  0  0  0  0
    2.5565   -0.0371   -0.2566 C   0  0  0  0  0  0  0  0  0  0  0  0
    2.9216    0.4367   -1.3622 O   0  0  0  0  0  0  0  0  0  0  0  0
    1.2387   -0.5337   -0.1426 N   0  0  0  0  0  0  0  0  0  0  0  0
    0.2869   -0.5233   -1.2393 C   0  0  0  0  0  0  0  0  0  0  0  0
   -1.0342   -1.1016   -0.8679 C   0  0  0  0  0  0  0  0  0  0  0  0
   -1.6016   -0.3341    0.2178 N   0  0  0  0  0  0  0  0  0  0  0  0
   -2.8846   -0.8180    0.6497 C   0  0  0  0  0  0  0  0  0  0  0  0
   -3.6077    0.3936    1.1094 C   0  0  0  0  0  0  0  0  0  0  0  0
   -3.0015    1.4779    0.6525 C   0  0  0  0  0  0  0  0  0  0  0  0
   -1.8258    1.0498   -0.1475 C   0  0  0  0  0  0  0  0  0  0  0  0
    4.6486    1.5709    0.4161 H   0  0  0  0  0  0  0  0  0  0  0  0
    5.0232    0.2285   -0.5115 H   0  0  0  0  0  0  0  0  0  0  0  0
    3.0584    0.5341    1.6940 H   0  0  0  0  0  0  0  0  0  0  0  0
    3.6942   -1.0914    1.2179 H   0  0  0  0  0  0  0  0  0  0  0  0
    0.9196   -0.9299    0.7665 H   0  0  0  0  0  0  0  0  0  0  0  0
    0.7576   -1.0478   -2.0984 H   0  0  0  0  0  0  0  0  0  0  0  0
    0.1416    0.5421   -1.5178 H   0  0  0  0  0  0  0  0  0  0  0  0
   -1.0035   -2.1541   -0.5806 H   0  0  0  0  0  0  0  0  0  0  0  0
   -1.7124   -0.9901   -1.7363 H   0  0  0  0  0  0  0  0  0  0  0  0
   -2.7027   -1.5306    1.4885 H   0  0  0  0  0  0  0  0  0  0  0  0
   -3.4304   -1.3573   -0.1524 H   0  0  0  0  0  0  0  0  0  0  0  0
   -4.5227    0.4196    1.7426 H   0  0  0  0  0  0  0  0  0  0  0  0
   -3.3344    2.5104    0.8483 H   0  0  0  0  0  0  0  0  0  0  0  0
   -0.9559    1.6223    0.2335 H   0  0  0  0  0  0  0  0  0  0  0  0
   -1.9411    1.2017   -1.2200 H   0  0  0  0  0  0  0  0  0  0  0  0
  1  2  1  0
  2  3  1  0
  3  4  2  0
  3  5  1  0
  5  6  1  0
  6  7  1  0
  7  8  1  0
  8  9  1  0
  9 10  1  0
 10 11  2  0
 11 12  1  0
 12  8  1  0
  1 13  1  0
  1 14  1  0
  2 15  1  0
  2 16  1  0
  5 17  1  0
  6 18  1  0
  6 19  1  0
  7 20  1  0
  7 21  1  0
  9 22  1  0
  9 23  1  0
 10 24  1  0
 11 25  1  0
 12 26  1  0
 12 27  1  0
M  END
$$$$

     RDKit          3D

 27 27  0  0  0  0  0  0  0  0999 V2000
    4.7098    0.6047   -0.4838 N   0  0  0  0  0  0  0  0  0  0  0  0
    3.9483   -0.3130    0.3139 C   0  0  0  0  0  0  0  0  0  0  0  0
    2.5181   -0.3320   -0.1345 C   0  0  0  0  0  0  0  0  0  0  0  0
    2.1992    0.4080   -1.0845 O   0  0  0  0  0  0  0  0  0  0  0  0
    1.5441   -1.1422    0.4706 N   0  0  0  0  0  0  0  0  0  0  0  0
    0.1699   -1.1597    0.0440 C   0  0  0  0  0  0  0  0  0  0  0  0
   -0.4233    0.2064    0.2085 C   0  0  0  0  0  0  0  0  0  0  0  0
   -1.8033    0.1368   -0.2254 N   0  0  0  0  0  0  0  0  0  0  0  0
   -2.4743    1.4154   -0.1063 C   0  0  0  0  0  0  0  0  0  0  0  0
   -3.8984    1.0119   -0.2449 C   0  0  0  0  0  0  0  0  0  0  0  0
   -3.9842   -0.2222    0.2363 C   0  0  0  0  0  0  0  0  0  0  0  0
   -2.6160   -0.6622    0.7040 C   0  0  0  0  0  0  0  0  0  0  0  0
    4.1033    1.3097   -0.9525 H   0  0  0  0  0  0  0  0  0  0  0  0
    5.5282    1.0118    0.0113 H   0  0  0  0  0  0  0  0  0  0  0  0
    3.9956    0.0435    1.3662 H   0  0  0  0  0  0  0  0  0  0  0  0
    4.3770   -1.3464    0.3300 H   0  0  0  0  0  0  0  0  0  0  0  0
    1.8407   -1.7611    1.2712 H   0  0  0  0  0  0  0  0  0  0  0  0
   -0.4034   -1.9014    0.6442 H   0  0  0  0  0  0  0  0  0  0  0  0
    0.0595   -1.5029   -1.0095 H   0  0  0  0  0  0  0  0  0  0  0  0
   -0.3811    0.5195    1.2656 H   0  0  0  0  0  0  0  0  0  0  0  0
    0.0574    0.9387   -0.4651 H   0  0  0  0  0  0  0  0  0  0  0  0
   -2.1599    2.1415   -0.8739 H   0  0  0  0  0  0  0  0  0  0  0  0
   -2.3490    1.8013    0.9277 H   0  0  0  0  0  0  0  0  0  0  0  0
   -4.6764    1.6396   -0.6638 H   0  0  0  0  0  0  0  0  0  0  0  0
   -4.8932   -0.8086    0.2812 H   0  0  0  0  0  0  0  0  0  0  0  0
   -2.4699   -1.7335    0.5714 H   0  0  0  0  0  0  0  0  0  0  0  0
   -2.5188   -0.3038    1.7423 H   0  0  0  0  0  0  0  0  0  0  0  0
  1  2  1  0
  2  3  1  0
  3  4  2  0
  3  5  1  0
  5  6  1  0
  6  7  1  0
  7  8  1  0
  8  9  1  0
  9 10  1  0
 10 11  2  0
 11 12  1  0
 12  8  1  0
  1 13  1  0
  1 14  1  0
  2 15  1  0
  2 16  1  0
  5 17  1  0
  6 18  1  0
  6 19  1  0
  7 20  1  0
  7 21  1  0
  9 22  1  0
  9 23  1  0
 10 24  1  0
 11 25  1  0
 12 26  1  0
 12 27  1  0
M  END
$$$$

     RDKit          3D

 27 27  0  0  0  0  0  0  0  0999 V2000
    4.2572    0.7981    0.1907 N   0  0  0  0  0  0  0  0  0  0  0  0
    3.8762   -0.5223   -0.2932 C   0  0  0  0  0  0  0  0  0  0  0  0
    2.4529   -0.7229    0.0724 C   0  0  0  0  0  0  0  0  0  0  0  0
    1.8866   -1.8011   -0.2564 O   0  0  0  0  0  0  0  0  0  0  0  0
    1.6992    0.2400    0.7743 N   0  0  0  0  0  0  0  0  0  0  0  0
    0.3339   -0.0185    1.0907 C   0  0  0  0  0  0  0  0  0  0  0  0
   -0.5525   -0.2079   -0.1196 C   0  0  0  0  0  0  0  0  0  0  0  0
   -1.8851   -0.4819    0.3295 N   0  0  0  0  0  0  0  0  0  0  0  0
   -2.5624    0.6129    0.9525 C   0  0  0  0  0  0  0  0  0  0  0  0
   -3.4815    1.0871   -0.1532 C   0  0  0  0  0  0  0  0  0  0  0  0
   -3.5952    0.1466   -1.0763 C   0  0  0  0  0  0  0  0  0  0  0  0
   -2.7733   -1.0043   -0.6580 C   0  0  0  0  0  0  0  0  0  0  0  0
    5.2332    0.8284    0.4930 H   0  0  0  0  0  0  0  0  0  0  0  0
    3.9761    1.5507   -0.4661 H   0  0  0  0  0  0  0  0  0  0  0  0
    4.4719   -1.2449    0.3265 H   0  0  0  0  0  0  0  0  0  0  0  0
    4.0661   -0.6726   -1.3566 H   0  0  0  0  0  0  0  0  0  0  0  0
    2.1442    1.1310    1.0525 H   0  0  0  0  0  0  0  0  0  0  0  0
   -0.1392    0.7542    1.7278 H   0  0  0  0  0  0  0  0  0  0  0  0
    0.2176   -0.9685    1.6953 H   0  0  0  0  0  0  0  0  0  0  0  0
   -0.2116   -0.9951   -0.8106 H   0  0  0  0  0  0  0  0  0  0  0  0
   -0.5195    0.7392   -0.7441 H   0  0  0  0  0  0  0  0  0  0  0  0
   -1.9155    1.4620    1.1776 H   0  0  0  0  0  0  0  0  0  0  0  0
   -3.1381    0.2639    1.8351 H   0  0  0  0  0  0  0  0  0  0  0  0
   -3.9692    2.0777   -0.1611 H   0  0  0  0  0  0  0  0  0  0  0  0
   -4.2132    0.2568   -1.9852 H   0  0  0  0  0  0  0  0  0  0  0  0
   -3.3921   -1.7888   -0.1376 H   0  0  0  0  0  0  0  0  0  0  0  0
   -2.2667   -1.5198   -1.5046 H   0  0  0  0  0  0  0  0  0  0  0  0
  1  2  1  0
  2  3  1  0
  3  4  2  0
  3  5  1  0
  5  6  1  0
  6  7  1  0
  7  8  1  0
  8  9  1  0
  9 10  1  0
 10 11  2  0
 11 12  1  0
 12  8  1  0
  1 13  1  0
  1 14  1  0
  2 15  1  0
  2 16  1  0
  5 17  1  0
  6 18  1  0
  6 19  1  0
  7 20  1  0
  7 21  1  0
  9 22  1  0
  9 23  1  0
 10 24  1  0
 11 25  1  0
 12 26  1  0
 12 27  1  0
M  END
$$$$

     RDKit          3D

 27 27  0  0  0  0  0  0  0  0999 V2000
    4.4391   -0.8393   -0.5717 N   0  0  0  0  0  0  0  0  0  0  0  0
    3.8417   -0.3850    0.6505 C   0  0  0  0  0  0  0  0  0  0  0  0
    2.3542   -0.3804    0.5935 C   0  0  0  0  0  0  0  0  0  0  0  0
    1.7358    0.0004    1.6126 O   0  0  0  0  0  0  0  0  0  0  0  0
    1.6344   -0.7824   -0.5469 N   0  0  0  0  0  0  0  0  0  0  0  0
    0.1938   -0.7590   -0.5583 C   0  0  0  0  0  0  0  0  0  0  0  0
   -0.3975    0.6163   -0.3423 C   0  0  0  0  0  0  0  0  0  0  0  0
   -1.8006    0.5095   -0.3798 N   0  0  0  0  0  0  0  0  0  0  0  0
   -2.5866    1.6441   -0.2059 C   0  0  0  0  0  0  0  0  0  0  0  0
   -3.9427    1.0711    0.1336 C   0  0  0  0  0  0  0  0  0  0  0  0
   -3.8317   -0.2407    0.3298 C   0  0  0  0  0  0  0  0  0  0  0  0
   -2.3965   -0.6514    0.1381 C   0  0  0  0  0  0  0  0  0  0  0  0
    4.0314   -0.3153   -1.3714 H   0  0  0  0  0  0  0  0  0  0  0  0
    5.4594   -0.6118   -0.5261 H   0  0  0  0  0  0  0  0  0  0  0  0
    4.2281   -0.9527    1.5209 H   0  0  0  0  0  0  0  0  0  0  0  0
    4.1643    0.6774    0.8104 H   0  0  0  0  0  0  0  0  0  0  0  0
    2.1502   -1.1039   -1.4014 H   0  0  0  0  0  0  0  0  0  0  0  0
   -0.1947   -1.4425    0.2533 H   0  0  0  0  0  0  0  0  0  0  0  0
   -0.1844   -1.2020   -1.5263 H   0  0  0  0  0  0  0  0  0  0  0  0
    0.0048    1.2964   -1.1224 H   0  0  0  0  0  0  0  0  0  0  0  0
   -0.1134    0.9777    0.6621 H   0  0  0  0  0  0  0  0  0  0  0  0
   -2.3036    2.2478    0.6960 H   0  0  0  0  0  0  0  0  0  0  0  0
   -2.7171    2.3220   -1.0505 H   0  0  0  0  0  0  0  0  0  0  0  0
   -4.8587    1.6198    0.2087 H   0  0  0  0  0  0  0  0  0  0  0  0
   -4.6101   -0.9429    0.5862 H   0  0  0  0  0  0  0  0  0  0  0  0
   -2.3394   -1.5095   -0.5481 H   0  0  0  0  0  0  0  0  0  0  0  0
   -1.9601   -0.8635    1.1436 H   0  0  0  0  0  0  0  0  0  0  0  0
  1  2  1  0
  2  3  1  0
  3  4  2  0
  3  5  1  0
  5  6  1  0
  6  7  1  0
  7  8  1  0
  8  9  1  0
  9 10  1  0
 10 11  2  0
 11 12  1  0
 12  8  1  0
  1 13  1  0
  1 14  1  0
  2 15  1  0
  2 16  1  0
  5 17  1  0
  6 18  1  0
  6 19  1  0
  7 20  1  0
  7 21  1  0
  9 22  1  0
  9 23  1  0
 10 24  1  0
 11 25  1  0
 12 26  1  0
 12 27  1  0
M  END
$$$$

     RDKit          3D

 27 27  0  0  0  0  0  0  0  0999 V2000
    4.2480    0.3368    0.2777 N   0  0  0  0  0  0  0  0  0  0  0  0
    3.2611    0.7900    1.1721 C   0  0  0  0  0  0  0  0  0  0  0  0
    1.9312    0.2361    0.8450 C   0  0  0  0  0  0  0  0  0  0  0  0
    0.9664    0.5679    1.5729 O   0  0  0  0  0  0  0  0  0  0  0  0
    1.6867   -0.6403   -0.2343 N   0  0  0  0  0  0  0  0  0  0  0  0
    0.3720   -1.1447   -0.5060 C   0  0  0  0  0  0  0  0  0  0  0  0
   -0.6383   -0.0884   -0.8119 C   0  0  0  0  0  0  0  0  0  0  0  0
   -1.9600   -0.6802   -1.0824 N   0  0  0  0  0  0  0  0  0  0  0  0
   -2.8333    0.4717   -1.3668 C   0  0  0  0  0  0  0  0  0  0  0  0
   -2.7607    1.1689   -0.0302 C   0  0  0  0  0  0  0  0  0  0  0  0
   -2.5883    0.2361    0.8989 C   0  0  0  0  0  0  0  0  0  0  0  0
   -2.5442   -1.0760    0.2047 C   0  0  0  0  0  0  0  0  0  0  0  0
    4.3951   -0.6493    0.1554 H   0  0  0  0  0  0  0  0  0  0  0  0
    5.0050    0.9821    0.0351 H   0  0  0  0  0  0  0  0  0  0  0  0
    3.2389    1.8915    1.1759 H   0  0  0  0  0  0  0  0  0  0  0  0
    3.5071    0.4568    2.2024 H   0  0  0  0  0  0  0  0  0  0  0  0
    2.4849   -0.9178   -0.8368 H   0  0  0  0  0  0  0  0  0  0  0  0
    0.0239   -1.7773    0.3565 H   0  0  0  0  0  0  0  0  0  0  0  0
    0.3947   -1.8684   -1.3680 H   0  0  0  0  0  0  0  0  0  0  0  0
   -0.6882    0.6560   -0.0207 H   0  0  0  0  0  0  0  0  0  0  0  0
   -0.2850    0.4496   -1.7320 H   0  0  0  0  0  0  0  0  0  0  0  0
   -2.4552    1.0873   -2.1799 H   0  0  0  0  0  0  0  0  0  0  0  0
   -3.8508    0.0763   -1.5126 H   0  0  0  0  0  0  0  0  0  0  0  0
   -2.8352    2.2299    0.1396 H   0  0  0  0  0  0  0  0  0  0  0  0
   -2.4975    0.4042    1.9598 H   0  0  0  0  0  0  0  0  0  0  0  0
   -3.5993   -1.3542   -0.0104 H   0  0  0  0  0  0  0  0  0  0  0  0
   -1.9791   -1.8445    0.7192 H   0  0  0  0  0  0  0  0  0  0  0  0
  1  2  1  0
  2  3  1  0
  3  4  2  0
  3  5  1  0
  5  6  1  0
  6  7  1  0
  7  8  1  0
  8  9  1  0
  9 10  1  0
 10 11  2  0
 11 12  1  0
 12  8  1  0
  1 13  1  0
  1 14  1  0
  2 15  1  0
  2 16  1  0
  5 17  1  0
  6 18  1  0
  6 19  1  0
  7 20  1  0
  7 21  1  0
  9 22  1  0
  9 23  1  0
 10 24  1  0
 11 25  1  0
 12 26  1  0
 12 27  1  0
M  END
$$$$

     RDKit          3D

 27 27  0  0  0  0  0  0  0  0999 V2000
    3.4844    0.6408    1.6192 N   0  0  0  0  0  0  0  0  0  0  0  0
    3.3847    0.7659    0.1962 C   0  0  0  0  0  0  0  0  0  0  0  0
    2.2885   -0.0584   -0.3851 C   0  0  0  0  0  0  0  0  0  0  0  0
    2.1291   -0.0103   -1.6196 O   0  0  0  0  0  0  0  0  0  0  0  0
    1.4351   -0.8789    0.3859 N   0  0  0  0  0  0  0  0  0  0  0  0
    0.3632   -1.6876   -0.1581 C   0  0  0  0  0  0  0  0  0  0  0  0
   -0.6759   -0.8758   -0.8744 C   0  0  0  0  0  0  0  0  0  0  0  0
   -1.2965    0.0939    0.0042 N   0  0  0  0  0  0  0  0  0  0  0  0
   -2.2802    0.8262   -0.7716 C   0  0  0  0  0  0  0  0  0  0  0  0
   -3.1559    1.3868    0.2951 C   0  0  0  0  0  0  0  0  0  0  0  0
   -3.0691    0.5781    1.3480 C   0  0  0  0  0  0  0  0  0  0  0  0
   -2.1341   -0.5390    1.0069 C   0  0  0  0  0  0  0  0  0  0  0  0
    2.8316    1.3355    2.0609 H   0  0  0  0  0  0  0  0  0  0  0  0
    4.4449    0.9098    1.9285 H   0  0  0  0  0  0  0  0  0  0  0  0
    4.3653    0.4302   -0.2374 H   0  0  0  0  0  0  0  0  0  0  0  0
    3.2635    1.8230   -0.0971 H   0  0  0  0  0  0  0  0  0  0  0  0
    1.6370   -0.8650    1.4315 H   0  0  0  0  0  0  0  0  0  0  0  0
   -0.0442   -2.3654    0.5924 H   0  0  0  0  0  0  0  0  0  0  0  0
    0.8541   -2.3477   -0.9320 H   0  0  0  0  0  0  0  0  0  0  0  0
   -0.1767   -0.3140   -1.6869 H   0  0  0  0  0  0  0  0  0  0  0  0
   -1.4208   -1.5307   -1.3528 H   0  0  0  0  0  0  0  0  0  0  0  0
   -1.7418    1.6198   -1.3190 H   0  0  0  0  0  0  0  0  0  0  0  0
   -2.8988    0.1787   -1.4020 H   0  0  0  0  0  0  0  0  0  0  0  0
   -3.7669    2.2994    0.2371 H   0  0  0  0  0  0  0  0  0  0  0  0
   -3.6116    0.7557    2.2699 H   0  0  0  0  0  0  0  0  0  0  0  0
   -1.5147   -0.7772    1.8703 H   0  0  0  0  0  0  0  0  0  0  0  0
   -2.6940   -1.3935    0.5878 H   0  0  0  0  0  0  0  0  0  0  0  0
  1  2  1  0
  2  3  1  0
  3  4  2  0
  3  5  1  0
  5  6  1  0
  6  7  1  0
  7  8  1  0
  8  9  1  0
  9 10  1  0
 10 11  2  0
 11 12  1  0
 12  8  1  0
  1 13  1  0
  1 14  1  0
  2 15  1  0
  2 16  1  0
  5 17  1  0
  6 18  1  0
  6 19  1  0
  7 20  1  0
  7 21  1  0
  9 22  1  0
  9 23  1  0
 10 24  1  0
 11 25  1  0
 12 26  1  0
 12 27  1  0
M  END
$$$$
