
     RDKit          3D

 29 29  0  0  0  0  0  0  0  0999 V2000
    2.3012    2.0985   -1.1115 C   0  0  0  0  0  0  0  0  0  0  0  0
    1.9928    1.6053    0.1753 O   0  0  0  0  0  0  0  0  0  0  0  0
    1.8823    0.2475    0.0792 C   0  0  1  0  0  0  0  0  0  0  0  0
    2.7190   -0.5575    1.0091 C   0  0  0  0  0  0  0  0  0  0  0  0
    2.0771   -1.7391    1.2712 O   0  0  0  0  0  0  0  0  0  0  0  0
    0.8061   -1.7085    0.6932 C   0  0  0  0  0  0  0  0  0  0  0  0
    0.4693   -0.2593    0.4378 C   0  0  2  0  0  0  0  0  0  0  0  0
   -0.3247    0.0124   -0.6958 N   0  0  0  0  0  0  0  0  0  0  0  0
   -1.7335   -0.0073   -0.5769 C   0  0  1  0  0  0  0  0  0  0  0  0
   -2.1636   -1.4262   -0.2007 C   0  0  0  0  0  0  0  0  0  0  0  0
   -2.3044    0.9873    0.3286 C   0  0  0  0  0  0  0  0  0  0  0  0
   -3.7001    1.0557    0.5264 N   0  0  0  0  0  0  0  0  0  0  0  0
   -1.5766    1.7880    0.9387 O   0  0  0  0  0  0  0  0  0  0  0  0
    3.2578    1.6310   -1.4166 H   0  0  0  0  0  0  0  0  0  0  0  0
    2.2921    3.1953   -1.1576 H   0  0  0  0  0  0  0  0  0  0  0  0
    1.5368    1.7450   -1.8619 H   0  0  0  0  0  0  0  0  0  0  0  0
    2.0573   -0.1387   -0.9576 H   0  0  0  0  0  0  0  0  0  0  0  0
    3.7140   -0.8031    0.5432 H   0  0  0  0  0  0  0  0  0  0  0  0
    2.9433    0.0392    1.9242 H   0  0  0  0  0  0  0  0  0  0  0  0
    0.1461   -2.1972    1.4358 H   0  0  0  0  0  0  0  0  0  0  0  0
    0.8276   -2.2447   -0.2689 H   0  0  0  0  0  0  0  0  0  0  0  0
    0.1099    0.2402    1.3587 H   0  0  0  0  0  0  0  0  0  0  0  0
    0.0674   -0.3995   -1.5633 H   0  0  0  0  0  0  0  0  0  0  0  0
   -2.1373    0.1098   -1.6324 H   0  0  0  0  0  0  0  0  0  0  0  0
   -2.0855   -1.6231    0.8713 H   0  0  0  0  0  0  0  0  0  0  0  0
   -1.4975   -2.1102   -0.7574 H   0  0  0  0  0  0  0  0  0  0  0  0
   -3.1864   -1.6330   -0.5904 H   0  0  0  0  0  0  0  0  0  0  0  0
   -4.2396    0.1613    0.5048 H   0  0  0  0  0  0  0  0  0  0  0  0
   -4.2509    1.9310    0.6936 H   0  0  0  0  0  0  0  0  0  0  0  0
  1  2  1  0
  2  3  1  0
  3  4  1  0
  4  5  1  0
  5  6  1  0
  6  7  1  0
  7  8  1  0
  8  9  1  0
  9 10  1  0
  9 11  1  0
 11 12  1  0
 11 13  2  0
  7  3  1  0
  1 14  1  0
  1 15  1  0
  1 16  1  0
  3 17  1  6
  4 18  1  0
  4 19  1  0
  6 20  1  0
  6 21  1  0
  7 22  1  1
  8 23  1  0
  9 24  1  6
 10 25  1  0
 10 26  1  0
 10 27  1  0
 12 28  1  0
 12 29  1  0
M  END
$$$$

     RDKit          3D

 29 29  0  0  0  0  0  0  0  0999 V2000
   -3.1728    1.7554    0.0080 C   0  0  0  0  0  0  0  0  0  0  0  0
   -2.7134    0.5975   -0.5879 O   0  0  0  0  0  0  0  0  0  0  0  0
   -1.8396   -0.1051    0.1985 C   0  0  1  0  0  0  0  0  0  0  0  0
   -2.2768   -1.5121    0.5049 C   0  0  0  0  0  0  0  0  0  0  0  0
   -1.0700   -2.1606    0.7655 O   0  0  0  0  0  0  0  0  0  0  0  0
   -0.2635   -1.7832   -0.3241 C   0  0  0  0  0  0  0  0  0  0  0  0
   -0.5590   -0.3644   -0.5999 C   0  0  2  0  0  0  0  0  0  0  0  0
    0.3946    0.5675   -0.0506 N   0  0  0  0  0  0  0  0  0  0  0  0
    1.7612    0.2111   -0.3696 C   0  0  1  0  0  0  0  0  0  0  0  0
    2.4251    1.4983   -0.8837 C   0  0  0  0  0  0  0  0  0  0  0  0
    2.4036   -0.1255    0.9226 C   0  0  0  0  0  0  0  0  0  0  0  0
    3.4276   -1.0969    1.0803 N   0  0  0  0  0  0  0  0  0  0  0  0
    2.0005    0.5076    1.9497 O   0  0  0  0  0  0  0  0  0  0  0  0
   -2.3241    2.4142    0.3257 H   0  0  0  0  0  0  0  0  0  0  0  0
   -3.6966    2.3662   -0.7922 H   0  0  0  0  0  0  0  0  0  0  0  0
   -3.8361    1.5222    0.8443 H   0  0  0  0  0  0  0  0  0  0  0  0
   -1.6321    0.4094    1.1715 H   0  0  0  0  0  0  0  0  0  0  0  0
   -2.7152   -1.9411   -0.4030 H   0  0  0  0  0  0  0  0  0  0  0  0
   -2.9330   -1.5563    1.3990 H   0  0  0  0  0  0  0  0  0  0  0  0
   -0.6030   -2.4578   -1.1520 H   0  0  0  0  0  0  0  0  0  0  0  0
    0.7939   -2.0113   -0.1486 H   0  0  0  0  0  0  0  0  0  0  0  0
   -0.7689   -0.2152   -1.6566 H   0  0  0  0  0  0  0  0  0  0  0  0
    0.1544    1.5397   -0.3291 H   0  0  0  0  0  0  0  0  0  0  0  0
    1.8356   -0.5394   -1.1495 H   0  0  0  0  0  0  0  0  0  0  0  0
    3.3187    1.2437   -1.4760 H   0  0  0  0  0  0  0  0  0  0  0  0
    1.6948    1.9959   -1.5118 H   0  0  0  0  0  0  0  0  0  0  0  0
    2.6409    2.1254   -0.0059 H   0  0  0  0  0  0  0  0  0  0  0  0
    4.3868   -0.8717    0.8095 H   0  0  0  0  0  0  0  0  0  0  0  0
    3.1662   -2.0134    1.4609 H   0  0  0  0  0  0  0  0  0  0  0  0
  1  2  1  0
  2  3  1  0
  3  4  1  0
  4  5  1  0
  5  6  1  0
  6  7  1  0
  7  8  1  0
  8  9  1  0
  9 10  1  0
  9 11  1  0
 11 12  1  0
 11 13  2  0
  7  3  1  0
  1 14  1  0
  1 15  1  0
  1 16  1  0
  3 17  1  1
  4 18  1  0
  4 19  1  0
  6 20  1  0
  6 21  1  0
  7 22  1  6
  8 23  1  0
  9 24  1  6
 10 25  1  0
 10 26  1  0
 10 27  1  0
 12 28  1  0
 12 29  1  0
M  END
$$$$

     RDKit          3D

 29 29  0  0  0  0  0  0  0  0999 V2000
    2.4080    1.8533    0.5441 C   0  0  0  0  0  0  0  0  0  0  0  0
    2.3377    0.5468    1.0492 O   0  0  0  0  0  0  0  0  0  0  0  0
    1.7247   -0.2247    0.1098 C   0  0  1  0  0  0  0  0  0  0  0  0
    2.6361   -1.3648   -0.3270 C   0  0  0  0  0  0  0  0  0  0  0  0
    1.8058   -2.2741   -0.9092 O   0  0  0  0  0  0  0  0  0  0  0  0
    0.5060   -2.1272   -0.3704 C   0  0  0  0  0  0  0  0  0  0  0  0
    0.5824   -1.0891    0.6721 C   0  0  2  0  0  0  0  0  0  0  0  0
   -0.5145   -0.4150    1.1223 N   0  0  0  0  0  0  0  0  0  0  0  0
   -1.3604    0.3922    0.3814 C   0  0  1  0  0  0  0  0  0  0  0  0
   -2.1348   -0.2535   -0.7451 C   0  0  0  0  0  0  0  0  0  0  0  0
   -2.3899    0.9648    1.2821 C   0  0  0  0  0  0  0  0  0  0  0  0
   -3.4103    1.8391    0.8364 N   0  0  0  0  0  0  0  0  0  0  0  0
   -2.3577    0.6637    2.4899 O   0  0  0  0  0  0  0  0  0  0  0  0
    2.9076    2.5305    1.2841 H   0  0  0  0  0  0  0  0  0  0  0  0
    2.9045    1.9029   -0.4392 H   0  0  0  0  0  0  0  0  0  0  0  0
    1.3886    2.2882    0.4081 H   0  0  0  0  0  0  0  0  0  0  0  0
    1.4233    0.2977   -0.8054 H   0  0  0  0  0  0  0  0  0  0  0  0
    3.3925   -1.0197   -1.0563 H   0  0  0  0  0  0  0  0  0  0  0  0
    3.1273   -1.8212    0.5725 H   0  0  0  0  0  0  0  0  0  0  0  0
   -0.1163   -1.8530   -1.2189 H   0  0  0  0  0  0  0  0  0  0  0  0
    0.2700   -3.1420    0.0424 H   0  0  0  0  0  0  0  0  0  0  0  0
    1.0827   -1.5887    1.5657 H   0  0  0  0  0  0  0  0  0  0  0  0
   -0.7598   -0.5933    2.1153 H   0  0  0  0  0  0  0  0  0  0  0  0
   -0.8132    1.2999   -0.0226 H   0  0  0  0  0  0  0  0  0  0  0  0
   -1.6545   -0.1187   -1.7284 H   0  0  0  0  0  0  0  0  0  0  0  0
   -3.1129    0.2721   -0.8375 H   0  0  0  0  0  0  0  0  0  0  0  0
   -2.3331   -1.2968   -0.5173 H   0  0  0  0  0  0  0  0  0  0  0  0
   -3.1142    2.6821    0.2889 H   0  0  0  0  0  0  0  0  0  0  0  0
   -4.4255    1.6484    1.0480 H   0  0  0  0  0  0  0  0  0  0  0  0
  1  2  1  0
  2  3  1  0
  3  4  1  0
  4  5  1  0
  5  6  1  0
  6  7  1  0
  7  8  1  0
  8  9  1  0
  9 10  1  0
  9 11  1  0
 11 12  1  0
 11 13  2  0
  7  3  1  0
  1 14  1  0
  1 15  1  0
  1 16  1  0
  3 17  1  6
  4 18  1  0
  4 19  1  0
  6 20  1  0
  6 21  1  0
  7 22  1  1
  8 23  1  0
  9 24  1  6
 10 25  1  0
 10 26  1  0
 10 27  1  0
 12 28  1  0
 12 29  1  0
M  END
$$$$

     RDKit          3D

 29 29  0  0  0  0  0  0  0  0999 V2000
   -2.7363    1.5975    0.2256 C   0  0  0  0  0  0  0  0  0  0  0  0
   -2.6580    0.3072   -0.2987 O   0  0  0  0  0  0  0  0  0  0  0  0
   -1.7610   -0.4737    0.3488 C   0  0  1  0  0  0  0  0  0  0  0  0
   -2.2154   -1.7644    0.9267 C   0  0  0  0  0  0  0  0  0  0  0  0
   -1.9303   -2.6833   -0.0855 O   0  0  0  0  0  0  0  0  0  0  0  0
   -0.6373   -2.4003   -0.4463 C   0  0  0  0  0  0  0  0  0  0  0  0
   -0.5450   -0.9094   -0.4623 C   0  0  2  0  0  0  0  0  0  0  0  0
    0.6374   -0.4916    0.1719 N   0  0  0  0  0  0  0  0  0  0  0  0
    1.6856    0.1330   -0.5307 C   0  0  1  0  0  0  0  0  0  0  0  0
    1.3275    1.4380   -1.2085 C   0  0  0  0  0  0  0  0  0  0  0  0
    2.7813    0.4321    0.3983 C   0  0  0  0  0  0  0  0  0  0  0  0
    3.7736    1.3644    0.3944 N   0  0  0  0  0  0  0  0  0  0  0  0
    2.7701   -0.3840    1.4515 O   0  0  0  0  0  0  0  0  0  0  0  0
   -1.7752    2.1580    0.1613 H   0  0  0  0  0  0  0  0  0  0  0  0
   -3.4988    2.1462   -0.3534 H   0  0  0  0  0  0  0  0  0  0  0  0
   -3.0967    1.5845    1.2995 H   0  0  0  0  0  0  0  0  0  0  0  0
   -1.3188    0.1823    1.1777 H   0  0  0  0  0  0  0  0  0  0  0  0
   -3.2807   -1.7411    1.1299 H   0  0  0  0  0  0  0  0  0  0  0  0
   -1.6106   -1.9764    1.8424 H   0  0  0  0  0  0  0  0  0  0  0  0
   -0.3858   -2.8920   -1.4177 H   0  0  0  0  0  0  0  0  0  0  0  0
    0.1142   -2.7835    0.2994 H   0  0  0  0  0  0  0  0  0  0  0  0
   -0.5998   -0.4439   -1.4445 H   0  0  0  0  0  0  0  0  0  0  0  0
    0.7525   -0.6928    1.1680 H   0  0  0  0  0  0  0  0  0  0  0  0
    2.0993   -0.5911   -1.2911 H   0  0  0  0  0  0  0  0  0  0  0  0
    0.3059    1.7787   -1.0068 H   0  0  0  0  0  0  0  0  0  0  0  0
    2.0120    2.2777   -0.9307 H   0  0  0  0  0  0  0  0  0  0  0  0
    1.4190    1.2506   -2.3164 H   0  0  0  0  0  0  0  0  0  0  0  0
    4.8173    1.1645    0.4704 H   0  0  0  0  0  0  0  0  0  0  0  0
    3.5540    2.4128    0.3268 H   0  0  0  0  0  0  0  0  0  0  0  0
  1  2  1  0
  2  3  1  0
  3  4  1  0
  4  5  1  0
  5  6  1  0
  6  7  1  0
  7  8  1  0
  8  9  1  0
  9 10  1  0
  9 11  1  0
 11 12  1  0
 11 13  2  0
  7  3  1  0
  1 14  1  0
  1 15  1  0
  1 16  1  0
  3 17  1  1
  4 18  1  0
  4 19  1  0
  6 20  1  0
  6 21  1  0
  7 22  1  6
  8 23  1  0
  9 24  1  6
 10 25  1  0
 10 26  1  0
 10 27  1  0
 12 28  1  0
 12 29  1  0
M  END
$$$$

     RDKit          3D

 29 29  0  0  0  0  0  0  0  0999 V2000
    2.3462    1.8925   -0.6573 C   0  0  0  0  0  0  0  0  0  0  0  0
    2.3757    0.8549    0.2352 O   0  0  0  0  0  0  0  0  0  0  0  0
    1.5196   -0.1903   -0.0711 C   0  0  1  0  0  0  0  0  0  0  0  0
    2.1604   -1.5350   -0.0072 C   0  0  0  0  0  0  0  0  0  0  0  0
    1.5641   -2.2324    1.0425 O   0  0  0  0  0  0  0  0  0  0  0  0
    1.2401   -1.2357    1.9905 C   0  0  0  0  0  0  0  0  0  0  0  0
    0.5078   -0.2448    1.0652 C   0  0  2  0  0  0  0  0  0  0  0  0
   -0.7315   -0.8464    0.7342 N   0  0  0  0  0  0  0  0  0  0  0  0
   -1.5220   -0.2344   -0.2699 C   0  0  1  0  0  0  0  0  0  0  0  0
   -2.8598   -0.9798   -0.4018 C   0  0  0  0  0  0  0  0  0  0  0  0
   -1.8463    1.1763   -0.0888 C   0  0  0  0  0  0  0  0  0  0  0  0
   -2.6231    1.8726   -1.0499 N   0  0  0  0  0  0  0  0  0  0  0  0
   -1.4527    1.8146    0.9132 O   0  0  0  0  0  0  0  0  0  0  0  0
    2.6093    1.6568   -1.6843 H   0  0  0  0  0  0  0  0  0  0  0  0
    1.3889    2.4508   -0.6602 H   0  0  0  0  0  0  0  0  0  0  0  0
    3.1140    2.6388   -0.2996 H   0  0  0  0  0  0  0  0  0  0  0  0
    0.9479   -0.0304   -0.9927 H   0  0  0  0  0  0  0  0  0  0  0  0
    3.2474   -1.5079    0.2034 H   0  0  0  0  0  0  0  0  0  0  0  0
    1.9729   -2.0776   -0.9589 H   0  0  0  0  0  0  0  0  0  0  0  0
    0.5131   -1.6700    2.6784 H   0  0  0  0  0  0  0  0  0  0  0  0
    2.1260   -0.7925    2.4442 H   0  0  0  0  0  0  0  0  0  0  0  0
    0.4552    0.6995    1.6157 H   0  0  0  0  0  0  0  0  0  0  0  0
   -0.6313   -1.8572    0.5284 H   0  0  0  0  0  0  0  0  0  0  0  0
   -1.0143   -0.4014   -1.2661 H   0  0  0  0  0  0  0  0  0  0  0  0
   -3.3111   -0.8058   -1.3940 H   0  0  0  0  0  0  0  0  0  0  0  0
   -3.5680   -0.6182    0.3663 H   0  0  0  0  0  0  0  0  0  0  0  0
   -2.7348   -2.0616   -0.2400 H   0  0  0  0  0  0  0  0  0  0  0  0
   -3.6102    2.1568   -0.8665 H   0  0  0  0  0  0  0  0  0  0  0  0
   -2.1837    2.1076   -1.9774 H   0  0  0  0  0  0  0  0  0  0  0  0
  1  2  1  0
  2  3  1  0
  3  4  1  0
  4  5  1  0
  5  6  1  0
  6  7  1  0
  7  8  1  0
  8  9  1  0
  9 10  1  0
  9 11  1  0
 11 12  1  0
 11 13  2  0
  7  3  1  0
  1 14  1  0
  1 15  1  0
  1 16  1  0
  3 17  1  6
  4 18  1  0
  4 19  1  0
  6 20  1  0
  6 21  1  0
  7 22  1  1
  8 23  1  0
  9 24  1  6
 10 25  1  0
 10 26  1  0
 10 27  1  0
 12 28  1  0
 12 29  1  0
M  END
$$$$

     RDKit          3D

 29 29  0  0  0  0  0  0  0  0999 V2000
    2.9420    1.4306    1.2149 C   0  0  0  0  0  0  0  0  0  0  0  0
    2.4137    0.1368    1.3094 O   0  0  0  0  0  0  0  0  0  0  0  0
    1.9625   -0.2424    0.0789 C   0  0  1  0  0  0  0  0  0  0  0  0
    2.6394   -1.5290   -0.4156 C   0  0  0  0  0  0  0  0  0  0  0  0
    1.7712   -2.1434   -1.2731 O   0  0  0  0  0  0  0  0  0  0  0  0
    0.5603   -1.5079   -1.2533 C   0  0  0  0  0  0  0  0  0  0  0  0
    0.5168   -0.6947    0.0434 C   0  0  2  0  0  0  0  0  0  0  0  0
   -0.3370    0.4575   -0.0746 N   0  0  0  0  0  0  0  0  0  0  0  0
   -1.7183    0.1482   -0.2544 C   0  0  1  0  0  0  0  0  0  0  0  0
   -2.3602   -0.5946    0.8777 C   0  0  0  0  0  0  0  0  0  0  0  0
   -2.4756    1.3954   -0.5248 C   0  0  0  0  0  0  0  0  0  0  0  0
   -3.8774    1.4271   -0.7526 N   0  0  0  0  0  0  0  0  0  0  0  0
   -1.8607    2.5128   -0.5604 O   0  0  0  0  0  0  0  0  0  0  0  0
    3.7919    1.4793    0.4848 H   0  0  0  0  0  0  0  0  0  0  0  0
    3.3638    1.7604    2.1915 H   0  0  0  0  0  0  0  0  0  0  0  0
    2.1183    2.0857    0.8705 H   0  0  0  0  0  0  0  0  0  0  0  0
    2.1050    0.5233   -0.7117 H   0  0  0  0  0  0  0  0  0  0  0  0
    2.7065   -2.1798    0.5034 H   0  0  0  0  0  0  0  0  0  0  0  0
    3.6314   -1.3198   -0.8512 H   0  0  0  0  0  0  0  0  0  0  0  0
    0.5574   -0.7521   -2.0785 H   0  0  0  0  0  0  0  0  0  0  0  0
   -0.3138   -2.1865   -1.3132 H   0  0  0  0  0  0  0  0  0  0  0  0
    0.2792   -1.3448    0.8884 H   0  0  0  0  0  0  0  0  0  0  0  0
   -0.1238    1.1481    0.6491 H   0  0  0  0  0  0  0  0  0  0  0  0
   -1.7916   -0.4643   -1.1959 H   0  0  0  0  0  0  0  0  0  0  0  0
   -2.8366   -1.5424    0.4859 H   0  0  0  0  0  0  0  0  0  0  0  0
   -1.6930   -0.8492    1.7095 H   0  0  0  0  0  0  0  0  0  0  0  0
   -3.2255   -0.0090    1.2885 H   0  0  0  0  0  0  0  0  0  0  0  0
   -4.3181    0.5737   -1.1443 H   0  0  0  0  0  0  0  0  0  0  0  0
   -4.4279    2.2811   -0.5303 H   0  0  0  0  0  0  0  0  0  0  0  0
  1  2  1  0
  2  3  1  0
  3  4  1  0
  4  5  1  0
  5  6  1  0
  6  7  1  0
  7  8  1  0
  8  9  1  0
  9 10  1  0
  9 11  1  0
 11 12  1  0
 11 13  2  0
  7  3  1  0
  1 14  1  0
  1 15  1  0
  1 16  1  0
  3 17  1  6
  4 18  1  0
  4 19  1  0
  6 20  1  0
  6 21  1  0
  7 22  1  1
  8 23  1  0
  9 24  1  6
 10 25  1  0
 10 26  1  0
 10 27  1  0
 12 28  1  0
 12 29  1  0
M  END
$$$$

     RDKit          3D

 29 29  0  0  0  0  0  0  0  0999 V2000
    3.1523    0.7884    1.4443 C   0  0  0  0  0  0  0  0  0  0  0  0
    2.1835   -0.1498    1.0634 O   0  0  0  0  0  0  0  0  0  0  0  0
    1.6680    0.1337   -0.1982 C   0  0  1  0  0  0  0  0  0  0  0  0
    2.4504   -0.9367   -1.1239 C   0  0  0  0  0  0  0  0  0  0  0  0
    1.6643   -0.9946   -2.2097 O   0  0  0  0  0  0  0  0  0  0  0  0
    0.3336   -0.9136   -1.8177 C   0  0  0  0  0  0  0  0  0  0  0  0
    0.3274   -0.4455   -0.3930 C   0  0  2  0  0  0  0  0  0  0  0  0
   -0.7080    0.2009    0.1800 N   0  0  0  0  0  0  0  0  0  0  0  0
   -2.0613    0.2529   -0.2923 C   0  0  1  0  0  0  0  0  0  0  0  0
   -2.5887   -1.1729   -0.4539 C   0  0  0  0  0  0  0  0  0  0  0  0
   -2.7453    0.6467    1.0609 C   0  0  0  0  0  0  0  0  0  0  0  0
   -2.6026    2.0526    1.4380 N   0  0  0  0  0  0  0  0  0  0  0  0
   -3.3574   -0.1120    1.7948 O   0  0  0  0  0  0  0  0  0  0  0  0
    3.5966    0.5336    2.4573 H   0  0  0  0  0  0  0  0  0  0  0  0
    3.9426    0.9019    0.6942 H   0  0  0  0  0  0  0  0  0  0  0  0
    2.6705    1.7770    1.6299 H   0  0  0  0  0  0  0  0  0  0  0  0
    1.9481    1.0353   -0.6741 H   0  0  0  0  0  0  0  0  0  0  0  0
    2.4631   -1.7815   -0.4235 H   0  0  0  0  0  0  0  0  0  0  0  0
    3.4105   -0.4325   -1.3039 H   0  0  0  0  0  0  0  0  0  0  0  0
   -0.0567   -1.9583   -1.8661 H   0  0  0  0  0  0  0  0  0  0  0  0
   -0.2580   -0.3251   -2.5465 H   0  0  0  0  0  0  0  0  0  0  0  0
    0.4680   -1.4849    0.2048 H   0  0  0  0  0  0  0  0  0  0  0  0
   -0.4278    1.1649    0.4769 H   0  0  0  0  0  0  0  0  0  0  0  0
   -2.3614    0.9020   -1.0121 H   0  0  0  0  0  0  0  0  0  0  0  0
   -1.8564   -1.8838    0.0211 H   0  0  0  0  0  0  0  0  0  0  0  0
   -2.7060   -1.4494   -1.5051 H   0  0  0  0  0  0  0  0  0  0  0  0
   -3.5389   -1.2980    0.0707 H   0  0  0  0  0  0  0  0  0  0  0  0
   -2.8762    2.8358    0.8771 H   0  0  0  0  0  0  0  0  0  0  0  0
   -2.1341    2.1129    2.4066 H   0  0  0  0  0  0  0  0  0  0  0  0
  1  2  1  0
  2  3  1  0
  3  4  1  0
  4  5  1  0
  5  6  1  0
  6  7  1  0
  7  8  1  0
  8  9  1  0
  9 10  1  0
  9 11  1  0
 11 12  1  0
 11 13  2  0
  7  3  1  0
  1 14  1  0
  1 15  1  0
  1 16  1  0
  3 17  1  6
  4 18  1  0
  4 19  1  0
  6 20  1  0
  6 21  1  0
  7 22  1  1
  8 23  1  0
  9 24  1  6
 10 25  1  0
 10 26  1  0
 10 27  1  0
 12 28  1  0
 12 29  1  0
M  END
$$$$

     RDKit          3D

 29 29  0  0  0  0  0  0  0  0999 V2000
   -2.3965    2.3227    0.1207 C   0  0  0  0  0  0  0  0  0  0  0  0
   -2.4425    0.9635   -0.1771 O   0  0  0  0  0  0  0  0  0  0  0  0
   -1.6052    0.1730    0.5427 C   0  0  1  0  0  0  0  0  0  0  0  0
   -2.3398   -0.9167    1.3037 C   0  0  0  0  0  0  0  0  0  0  0  0
   -1.8624   -2.0905    0.8178 O   0  0  0  0  0  0  0  0  0  0  0  0
   -1.3995   -1.8749   -0.4936 C   0  0  0  0  0  0  0  0  0  0  0  0
   -0.5720   -0.6045   -0.3378 C   0  0  2  0  0  0  0  0  0  0  0  0
    0.5470   -0.7680    0.4772 N   0  0  0  0  0  0  0  0  0  0  0  0
    1.8432   -0.3864    0.1347 C   0  0  1  0  0  0  0  0  0  0  0  0
    2.4833   -1.1713   -1.0012 C   0  0  0  0  0  0  0  0  0  0  0  0
    1.9982    1.0803   -0.1671 C   0  0  0  0  0  0  0  0  0  0  0  0
    3.3129    1.5341   -0.4485 N   0  0  0  0  0  0  0  0  0  0  0  0
    1.0642    1.8911   -0.1775 O   0  0  0  0  0  0  0  0  0  0  0  0
   -3.2298    2.8308   -0.4426 H   0  0  0  0  0  0  0  0  0  0  0  0
   -2.4948    2.4705    1.1977 H   0  0  0  0  0  0  0  0  0  0  0  0
   -1.4577    2.7942   -0.2797 H   0  0  0  0  0  0  0  0  0  0  0  0
   -1.0694    0.7970    1.2828 H   0  0  0  0  0  0  0  0  0  0  0  0
   -2.1310   -0.8574    2.4092 H   0  0  0  0  0  0  0  0  0  0  0  0
   -3.4528   -0.8480    1.1249 H   0  0  0  0  0  0  0  0  0  0  0  0
   -2.2794   -1.7185   -1.1294 H   0  0  0  0  0  0  0  0  0  0  0  0
   -0.8465   -2.7511   -0.8051 H   0  0  0  0  0  0  0  0  0  0  0  0
   -0.4820   -0.1213   -1.2967 H   0  0  0  0  0  0  0  0  0  0  0  0
    0.4926   -1.6044    1.0946 H   0  0  0  0  0  0  0  0  0  0  0  0
    2.4978   -0.5331    1.0166 H   0  0  0  0  0  0  0  0  0  0  0  0
    3.5917   -1.0170   -0.8714 H   0  0  0  0  0  0  0  0  0  0  0  0
    2.2019   -0.8425   -1.9922 H   0  0  0  0  0  0  0  0  0  0  0  0
    2.3409   -2.2481   -0.7929 H   0  0  0  0  0  0  0  0  0  0  0  0
    3.5849    2.5591   -0.3122 H   0  0  0  0  0  0  0  0  0  0  0  0
    4.1027    0.9373   -0.7974 H   0  0  0  0  0  0  0  0  0  0  0  0
  1  2  1  0
  2  3  1  0
  3  4  1  0
  4  5  1  0
  5  6  1  0
  6  7  1  0
  7  8  1  0
  8  9  1  0
  9 10  1  0
  9 11  1  0
 11 12  1  0
 11 13  2  0
  7  3  1  0
  1 14  1  0
  1 15  1  0
  1 16  1  0
  3 17  1  1
  4 18  1  0
  4 19  1  0
  6 20  1  0
  6 21  1  0
  7 22  1  6
  8 23  1  0
  9 24  1  1
 10 25  1  0
 10 26  1  0
 10 27  1  0
 12 28  1  0
 12 29  1  0
M  END
$$$$
