
     RDKit          3D

 23 23  0  0  0  0  0  0  0  0999 V2000
    3.2932   -0.2278   -1.7296 C   0  0  0  0  0  0  0  0  0  0  0  0
    3.0504    0.3619   -0.5259 O   0  0  0  0  0  0  0  0  0  0  0  0
    1.7689    0.3572   -0.0613 C   0  0  0  0  0  0  0  0  0  0  0  0
    1.1573   -0.9582    0.1678 C   0  0  0  0  0  0  0  0  0  0  0  0
    1.7872   -1.9669   -0.0453 O   0  0  0  0  0  0  0  0  0  0  0  0
   -0.2320   -1.0701    0.6606 C   0  0  0  0  0  0  0  0  0  0  0  0
   -0.8773    0.2007    0.8686 N   0  0  0  0  0  0  0  0  0  0  0  0
   -2.1064    0.1180    1.6242 C   0  0  0  0  0  0  0  0  0  0  0  0
   -3.0512    0.8494    0.7180 C   0  0  0  0  0  0  0  0  0  0  0  0
   -1.7543    0.8277   -0.4649 S   0  0  0  0  0  6  0  0  0  0  0  0
   -1.3222    2.1898   -0.9474 O   0  0  0  0  0  0  0  0  0  0  0  0
   -2.0025   -0.1470   -1.5821 O   0  0  0  0  0  0  0  0  0  0  0  0
    3.0661   -1.2813   -1.8434 H   0  0  0  0  0  0  0  0  0  0  0  0
    2.8410    0.3756   -2.5630 H   0  0  0  0  0  0  0  0  0  0  0  0
    4.4050   -0.1297   -1.9111 H   0  0  0  0  0  0  0  0  0  0  0  0
    1.1390    1.0086   -0.7096 H   0  0  0  0  0  0  0  0  0  0  0  0
    1.7955    0.9162    0.9225 H   0  0  0  0  0  0  0  0  0  0  0  0
   -0.2797   -1.6158    1.6265 H   0  0  0  0  0  0  0  0  0  0  0  0
   -0.8848   -1.6470   -0.0348 H   0  0  0  0  0  0  0  0  0  0  0  0
   -2.0273    0.6566    2.6016 H   0  0  0  0  0  0  0  0  0  0  0  0
   -2.4246   -0.9439    1.7176 H   0  0  0  0  0  0  0  0  0  0  0  0
   -3.9777    0.2772    0.4291 H   0  0  0  0  0  0  0  0  0  0  0  0
   -3.3637    1.8491    1.0817 H   0  0  0  0  0  0  0  0  0  0  0  0
  1  2  1  0
  2  3  1  0
  3  4  1  0
  4  5  2  0
  4  6  1  0
  6  7  1  0
  7  8  1  0
  8  9  1  0
  9 10  1  0
 10 11  2  0
 10 12  2  0
 10  7  1  0
  1 13  1  0
  1 14  1  0
  1 15  1  0
  3 16  1  0
  3 17  1  0
  6 18  1  0
  6 19  1  0
  8 20  1  0
  8 21  1  0
  9 22  1  0
  9 23  1  0
M  END
$$$$

     RDKit          3D

 23 23  0  0  0  0  0  0  0  0999 V2000
    4.3283    0.1562   -0.2818 C   0  0  0  0  0  0  0  0  0  0  0  0
    3.1231    0.8123   -0.0170 O   0  0  0  0  0  0  0  0  0  0  0  0
    2.1136   -0.1224   -0.0499 C   0  0  0  0  0  0  0  0  0  0  0  0
    0.7913    0.4937    0.2228 C   0  0  0  0  0  0  0  0  0  0  0  0
    0.7427    1.6891    0.4339 O   0  0  0  0  0  0  0  0  0  0  0  0
   -0.4378   -0.3387    0.2354 C   0  0  0  0  0  0  0  0  0  0  0  0
   -1.6224    0.4120    0.5135 N   0  0  0  0  0  0  0  0  0  0  0  0
   -2.7501   -0.4673    0.7615 C   0  0  0  0  0  0  0  0  0  0  0  0
   -3.2318   -0.4865   -0.6467 C   0  0  0  0  0  0  0  0  0  0  0  0
   -2.4566    1.0751   -0.8133 S   0  0  0  0  0  6  0  0  0  0  0  0
   -3.3287    2.2325   -0.3996 O   0  0  0  0  0  0  0  0  0  0  0  0
   -1.6706    1.2932   -2.0584 O   0  0  0  0  0  0  0  0  0  0  0  0
    4.5318   -0.6307    0.4724 H   0  0  0  0  0  0  0  0  0  0  0  0
    4.2173   -0.2811   -1.3094 H   0  0  0  0  0  0  0  0  0  0  0  0
    5.1221    0.9175   -0.3501 H   0  0  0  0  0  0  0  0  0  0  0  0
    2.3364   -0.9312    0.6931 H   0  0  0  0  0  0  0  0  0  0  0  0
    2.0959   -0.6625   -1.0420 H   0  0  0  0  0  0  0  0  0  0  0  0
   -0.3461   -1.1159    1.0507 H   0  0  0  0  0  0  0  0  0  0  0  0
   -0.5068   -0.9351   -0.7059 H   0  0  0  0  0  0  0  0  0  0  0  0
   -3.4978    0.0424    1.4299 H   0  0  0  0  0  0  0  0  0  0  0  0
   -2.4360   -1.4565    1.1925 H   0  0  0  0  0  0  0  0  0  0  0  0
   -2.7866   -1.2371   -1.3243 H   0  0  0  0  0  0  0  0  0  0  0  0
   -4.3312   -0.4591   -0.7847 H   0  0  0  0  0  0  0  0  0  0  0  0
  1  2  1  0
  2  3  1  0
  3  4  1  0
  4  5  2  0
  4  6  1  0
  6  7  1  0
  7  8  1  0
  8  9  1  0
  9 10  1  0
 10 11  2  0
 10 12  2  0
 10  7  1  0
  1 13  1  0
  1 14  1  0
  1 15  1  0
  3 16  1  0
  3 17  1  0
  6 18  1  0
  6 19  1  0
  8 20  1  0
  8 21  1  0
  9 22  1  0
  9 23  1  0
M  END
$$$$

     RDKit          3D

 23 23  0  0  0  0  0  0  0  0999 V2000
    3.7303    0.7117    0.4187 C   0  0  0  0  0  0  0  0  0  0  0  0
    2.9115    0.1103   -0.5245 O   0  0  0  0  0  0  0  0  0  0  0  0
    1.6056   -0.0068   -0.1240 C   0  0  0  0  0  0  0  0  0  0  0  0
    0.8355   -0.6622   -1.2145 C   0  0  0  0  0  0  0  0  0  0  0  0
    1.3564   -1.0027   -2.2499 O   0  0  0  0  0  0  0  0  0  0  0  0
   -0.6304   -0.9304   -1.0748 C   0  0  0  0  0  0  0  0  0  0  0  0
   -1.0544   -0.4579    0.2099 N   0  0  0  0  0  0  0  0  0  0  0  0
   -2.2203   -1.0458    0.7807 C   0  0  0  0  0  0  0  0  0  0  0  0
   -3.0031    0.2040    0.4911 C   0  0  0  0  0  0  0  0  0  0  0  0
   -1.5700    1.1631    0.2028 S   0  0  0  0  0  6  0  0  0  0  0  0
   -1.0406    1.9481    1.3401 O   0  0  0  0  0  0  0  0  0  0  0  0
   -1.4869    1.8097   -1.1438 O   0  0  0  0  0  0  0  0  0  0  0  0
    3.7603    0.1524    1.3726 H   0  0  0  0  0  0  0  0  0  0  0  0
    4.7502    0.7427    0.0121 H   0  0  0  0  0  0  0  0  0  0  0  0
    3.3111    1.7089    0.6534 H   0  0  0  0  0  0  0  0  0  0  0  0
    1.4736   -0.5656    0.8263 H   0  0  0  0  0  0  0  0  0  0  0  0
    1.2286    1.0328    0.0768 H   0  0  0  0  0  0  0  0  0  0  0  0
   -1.1749   -0.3434   -1.8432 H   0  0  0  0  0  0  0  0  0  0  0  0
   -0.8715   -1.9930   -1.2636 H   0  0  0  0  0  0  0  0  0  0  0  0
   -2.5916   -1.9363    0.2415 H   0  0  0  0  0  0  0  0  0  0  0  0
   -2.0555   -1.2172    1.8834 H   0  0  0  0  0  0  0  0  0  0  0  0
   -3.6379    0.5067    1.3475 H   0  0  0  0  0  0  0  0  0  0  0  0
   -3.6261    0.0709   -0.4186 H   0  0  0  0  0  0  0  0  0  0  0  0
  1  2  1  0
  2  3  1  0
  3  4  1  0
  4  5  2  0
  4  6  1  0
  6  7  1  0
  7  8  1  0
  8  9  1  0
  9 10  1  0
 10 11  2  0
 10 12  2  0
 10  7  1  0
  1 13  1  0
  1 14  1  0
  1 15  1  0
  3 16  1  0
  3 17  1  0
  6 18  1  0
  6 19  1  0
  8 20  1  0
  8 21  1  0
  9 22  1  0
  9 23  1  0
M  END
$$$$

     RDKit          3D

 23 23  0  0  0  0  0  0  0  0999 V2000
   -4.3552   -0.5605   -0.5525 C   0  0  0  0  0  0  0  0  0  0  0  0
   -3.1972   -0.6237    0.1873 O   0  0  0  0  0  0  0  0  0  0  0  0
   -2.0947   -0.1243   -0.5259 C   0  0  0  0  0  0  0  0  0  0  0  0
   -0.8537   -0.1956    0.2759 C   0  0  0  0  0  0  0  0  0  0  0  0
   -0.9273   -0.6558    1.4052 O   0  0  0  0  0  0  0  0  0  0  0  0
    0.4403    0.2721   -0.2613 C   0  0  0  0  0  0  0  0  0  0  0  0
    1.4843    0.0991    0.7002 N   0  0  0  0  0  0  0  0  0  0  0  0
    2.6314    0.9721    0.5500 C   0  0  0  0  0  0  0  0  0  0  0  0
    3.5930   -0.1704    0.4255 C   0  0  0  0  0  0  0  0  0  0  0  0
    2.3283   -1.3671    0.6869 S   0  0  0  0  0  6  0  0  0  0  0  0
    2.3411   -2.0253    2.0158 O   0  0  0  0  0  0  0  0  0  0  0  0
    2.1050   -2.2636   -0.4896 O   0  0  0  0  0  0  0  0  0  0  0  0
   -5.1746   -0.9651    0.0624 H   0  0  0  0  0  0  0  0  0  0  0  0
   -4.2044   -1.1012   -1.5056 H   0  0  0  0  0  0  0  0  0  0  0  0
   -4.5641    0.5200   -0.7437 H   0  0  0  0  0  0  0  0  0  0  0  0
   -2.3543    0.9156   -0.8342 H   0  0  0  0  0  0  0  0  0  0  0  0
   -2.0016   -0.7634   -1.4424 H   0  0  0  0  0  0  0  0  0  0  0  0
    0.3304    1.3824   -0.4281 H   0  0  0  0  0  0  0  0  0  0  0  0
    0.6774   -0.1462   -1.2605 H   0  0  0  0  0  0  0  0  0  0  0  0
    2.6129    1.6387   -0.3344 H   0  0  0  0  0  0  0  0  0  0  0  0
    2.7603    1.5818    1.4693 H   0  0  0  0  0  0  0  0  0  0  0  0
    4.0331   -0.2526   -0.5941 H   0  0  0  0  0  0  0  0  0  0  0  0
    4.3897   -0.2207    1.1938 H   0  0  0  0  0  0  0  0  0  0  0  0
  1  2  1  0
  2  3  1  0
  3  4  1  0
  4  5  2  0
  4  6  1  0
  6  7  1  0
  7  8  1  0
  8  9  1  0
  9 10  1  0
 10 11  2  0
 10 12  2  0
 10  7  1  0
  1 13  1  0
  1 14  1  0
  1 15  1  0
  3 16  1  0
  3 17  1  0
  6 18  1  0
  6 19  1  0
  8 20  1  0
  8 21  1  0
  9 22  1  0
  9 23  1  0
M  END
$$$$

     RDKit          3D

 23 23  0  0  0  0  0  0  0  0999 V2000
    3.5989    0.8125    0.4309 C   0  0  0  0  0  0  0  0  0  0  0  0
    3.4157   -0.5221    0.2532 O   0  0  0  0  0  0  0  0  0  0  0  0
    2.1959   -0.9928    0.6588 C   0  0  0  0  0  0  0  0  0  0  0  0
    1.0460   -0.4546   -0.0972 C   0  0  0  0  0  0  0  0  0  0  0  0
    1.2711    0.2809   -1.0343 O   0  0  0  0  0  0  0  0  0  0  0  0
   -0.3426   -0.8294    0.3122 C   0  0  0  0  0  0  0  0  0  0  0  0
   -1.2930   -0.2015   -0.5491 N   0  0  0  0  0  0  0  0  0  0  0  0
   -2.6313   -0.7024   -0.5281 C   0  0  0  0  0  0  0  0  0  0  0  0
   -3.2355    0.3242    0.3829 C   0  0  0  0  0  0  0  0  0  0  0  0
   -1.8690    1.3313   -0.1082 S   0  0  0  0  0  6  0  0  0  0  0  0
   -2.1454    2.2022   -1.2944 O   0  0  0  0  0  0  0  0  0  0  0  0
   -1.2123    2.0011    1.0443 O   0  0  0  0  0  0  0  0  0  0  0  0
    3.4861    1.0671    1.5295 H   0  0  0  0  0  0  0  0  0  0  0  0
    2.9686    1.4368   -0.2011 H   0  0  0  0  0  0  0  0  0  0  0  0
    4.6751    1.0413    0.1914 H   0  0  0  0  0  0  0  0  0  0  0  0
    2.1950   -2.0928    0.4584 H   0  0  0  0  0  0  0  0  0  0  0  0
    2.0666   -0.7929    1.7507 H   0  0  0  0  0  0  0  0  0  0  0  0
   -0.3825   -1.9275    0.3243 H   0  0  0  0  0  0  0  0  0  0  0  0
   -0.5033   -0.4525    1.3405 H   0  0  0  0  0  0  0  0  0  0  0  0
   -3.1041   -0.6404   -1.5433 H   0  0  0  0  0  0  0  0  0  0  0  0
   -2.7797   -1.7148   -0.1119 H   0  0  0  0  0  0  0  0  0  0  0  0
   -4.2152    0.7173    0.0269 H   0  0  0  0  0  0  0  0  0  0  0  0
   -3.2052    0.1090    1.4607 H   0  0  0  0  0  0  0  0  0  0  0  0
  1  2  1  0
  2  3  1  0
  3  4  1  0
  4  5  2  0
  4  6  1  0
  6  7  1  0
  7  8  1  0
  8  9  1  0
  9 10  1  0
 10 11  2  0
 10 12  2  0
 10  7  1  0
  1 13  1  0
  1 14  1  0
  1 15  1  0
  3 16  1  0
  3 17  1  0
  6 18  1  0
  6 19  1  0
  8 20  1  0
  8 21  1  0
  9 22  1  0
  9 23  1  0
M  END
$$$$

     RDKit          3D

 23 23  0  0  0  0  0  0  0  0999 V2000
   -3.9422   -0.4911   -0.0398 C   0  0  0  0  0  0  0  0  0  0  0  0
   -2.5603   -0.4748   -0.2169 O   0  0  0  0  0  0  0  0  0  0  0  0
   -2.0561    0.5267    0.5982 C   0  0  0  0  0  0  0  0  0  0  0  0
   -0.5703    0.6420    0.4943 C   0  0  0  0  0  0  0  0  0  0  0  0
   -0.0708    1.5060    1.1885 O   0  0  0  0  0  0  0  0  0  0  0  0
    0.1239   -0.2720   -0.4094 C   0  0  0  0  0  0  0  0  0  0  0  0
    1.5235   -0.1790   -0.5103 N   0  0  0  0  0  0  0  0  0  0  0  0
    2.2382    0.9583   -0.0520 C   0  0  0  0  0  0  0  0  0  0  0  0
    3.5130    0.1088   -0.2396 C   0  0  0  0  0  0  0  0  0  0  0  0
    2.4921   -1.1335    0.5414 S   0  0  0  0  0  6  0  0  0  0  0  0
    2.7522   -2.5201    0.1224 O   0  0  0  0  0  0  0  0  0  0  0  0
    2.2720   -0.8757    1.9808 O   0  0  0  0  0  0  0  0  0  0  0  0
   -4.1087   -0.7049    1.0523 H   0  0  0  0  0  0  0  0  0  0  0  0
   -4.4376    0.4412   -0.3092 H   0  0  0  0  0  0  0  0  0  0  0  0
   -4.3871   -1.3006   -0.6473 H   0  0  0  0  0  0  0  0  0  0  0  0
   -2.4631    1.4943    0.2195 H   0  0  0  0  0  0  0  0  0  0  0  0
   -2.3635    0.3286    1.6413 H   0  0  0  0  0  0  0  0  0  0  0  0
   -0.2954   -0.1208   -1.4512 H   0  0  0  0  0  0  0  0  0  0  0  0
   -0.2114   -1.3271   -0.1703 H   0  0  0  0  0  0  0  0  0  0  0  0
    2.2151    1.1643    1.0598 H   0  0  0  0  0  0  0  0  0  0  0  0
    2.2807    1.8491   -0.6764 H   0  0  0  0  0  0  0  0  0  0  0  0
    3.6985   -0.0698   -1.2989 H   0  0  0  0  0  0  0  0  0  0  0  0
    4.3574    0.4501    0.3781 H   0  0  0  0  0  0  0  0  0  0  0  0
  1  2  1  0
  2  3  1  0
  3  4  1  0
  4  5  2  0
  4  6  1  0
  6  7  1  0
  7  8  1  0
  8  9  1  0
  9 10  1  0
 10 11  2  0
 10 12  2  0
 10  7  1  0
  1 13  1  0
  1 14  1  0
  1 15  1  0
  3 16  1  0
  3 17  1  0
  6 18  1  0
  6 19  1  0
  8 20  1  0
  8 21  1  0
  9 22  1  0
  9 23  1  0
M  END
$$$$

     RDKit          3D

 23 23  0  0  0  0  0  0  0  0999 V2000
    3.2805    0.9104    0.6793 C   0  0  0  0  0  0  0  0  0  0  0  0
    3.1393   -0.4359    0.9192 O   0  0  0  0  0  0  0  0  0  0  0  0
    2.2212   -1.0609    0.1290 C   0  0  0  0  0  0  0  0  0  0  0  0
    0.8542   -0.5430    0.4158 C   0  0  0  0  0  0  0  0  0  0  0  0
    0.6378    0.2544    1.2998 O   0  0  0  0  0  0  0  0  0  0  0  0
   -0.3117   -1.0024   -0.3957 C   0  0  0  0  0  0  0  0  0  0  0  0
   -1.5004   -0.4506    0.0169 N   0  0  0  0  0  0  0  0  0  0  0  0
   -1.9477   -0.1927    1.3039 C   0  0  0  0  0  0  0  0  0  0  0  0
   -3.2680    0.3103    0.6640 C   0  0  0  0  0  0  0  0  0  0  0  0
   -2.1204    1.0032   -0.5451 S   0  0  0  0  0  6  0  0  0  0  0  0
   -2.6572    1.0672   -1.9172 O   0  0  0  0  0  0  0  0  0  0  0  0
   -1.5322    2.2646    0.0014 O   0  0  0  0  0  0  0  0  0  0  0  0
    2.3875    1.5041    0.8218 H   0  0  0  0  0  0  0  0  0  0  0  0
    3.6715    0.9838   -0.3852 H   0  0  0  0  0  0  0  0  0  0  0  0
    4.1025    1.3267    1.3249 H   0  0  0  0  0  0  0  0  0  0  0  0
    2.4165   -0.9505   -0.9611 H   0  0  0  0  0  0  0  0  0  0  0  0
    2.2949   -2.1553    0.3238 H   0  0  0  0  0  0  0  0  0  0  0  0
   -0.3224   -2.1279   -0.2296 H   0  0  0  0  0  0  0  0  0  0  0  0
   -0.0839   -0.9242   -1.4892 H   0  0  0  0  0  0  0  0  0  0  0  0
   -2.1215   -1.0326    2.0044 H   0  0  0  0  0  0  0  0  0  0  0  0
   -1.5086    0.7159    1.7821 H   0  0  0  0  0  0  0  0  0  0  0  0
   -3.8421   -0.5229    0.2488 H   0  0  0  0  0  0  0  0  0  0  0  0
   -3.7896    1.0583    1.2640 H   0  0  0  0  0  0  0  0  0  0  0  0
  1  2  1  0
  2  3  1  0
  3  4  1  0
  4  5  2  0
  4  6  1  0
  6  7  1  0
  7  8  1  0
  8  9  1  0
  9 10  1  0
 10 11  2  0
 10 12  2  0
 10  7  1  0
  1 13  1  0
  1 14  1  0
  1 15  1  0
  3 16  1  0
  3 17  1  0
  6 18  1  0
  6 19  1  0
  8 20  1  0
  8 21  1  0
  9 22  1  0
  9 23  1  0
M  END
$$$$

     RDKit          3D

 23 23  0  0  0  0  0  0  0  0999 V2000
    3.6440    0.4021   -0.7338 C   0  0  0  0  0  0  0  0  0  0  0  0
    3.4189    0.2077    0.6041 O   0  0  0  0  0  0  0  0  0  0  0  0
    2.2573   -0.4184    0.9451 C   0  0  0  0  0  0  0  0  0  0  0  0
    1.0069    0.2449    0.5796 C   0  0  0  0  0  0  0  0  0  0  0  0
    1.0043    1.3146    0.0273 O   0  0  0  0  0  0  0  0  0  0  0  0
   -0.2636   -0.4797    0.9303 C   0  0  0  0  0  0  0  0  0  0  0  0
   -1.3953    0.3121    0.5021 N   0  0  0  0  0  0  0  0  0  0  0  0
   -2.6764   -0.1378    1.0100 C   0  0  0  0  0  0  0  0  0  0  0  0
   -3.3260    0.6735   -0.0976 C   0  0  0  0  0  0  0  0  0  0  0  0
   -1.9753    0.0333   -1.0693 S   0  0  0  0  0  6  0  0  0  0  0  0
   -2.2052   -1.3897   -1.4563 O   0  0  0  0  0  0  0  0  0  0  0  0
   -1.5434    0.9559   -2.1342 O   0  0  0  0  0  0  0  0  0  0  0  0
    4.6264    0.9165   -0.8413 H   0  0  0  0  0  0  0  0  0  0  0  0
    2.8568    0.9695   -1.2555 H   0  0  0  0  0  0  0  0  0  0  0  0
    3.7460   -0.6010   -1.2026 H   0  0  0  0  0  0  0  0  0  0  0  0
    2.2637   -1.4229    0.4693 H   0  0  0  0  0  0  0  0  0  0  0  0
    2.3272   -0.6312    2.0520 H   0  0  0  0  0  0  0  0  0  0  0  0
   -0.2811   -0.5208    2.0413 H   0  0  0  0  0  0  0  0  0  0  0  0
   -0.2733   -1.5087    0.5641 H   0  0  0  0  0  0  0  0  0  0  0  0
   -2.7981   -1.2364    0.8504 H   0  0  0  0  0  0  0  0  0  0  0  0
   -2.9190    0.1958    2.0301 H   0  0  0  0  0  0  0  0  0  0  0  0
   -3.1741    1.7627    0.0903 H   0  0  0  0  0  0  0  0  0  0  0  0
   -4.3208    0.3581   -0.4028 H   0  0  0  0  0  0  0  0  0  0  0  0
  1  2  1  0
  2  3  1  0
  3  4  1  0
  4  5  2  0
  4  6  1  0
  6  7  1  0
  7  8  1  0
  8  9  1  0
  9 10  1  0
 10 11  2  0
 10 12  2  0
 10  7  1  0
  1 13  1  0
  1 14  1  0
  1 15  1  0
  3 16  1  0
  3 17  1  0
  6 18  1  0
  6 19  1  0
  8 20  1  0
  8 21  1  0
  9 22  1  0
  9 23  1  0
M  END
$$$$
