
     RDKit          3D

 26 26  0  0  0  0  0  0  0  0999 V2000
   -3.6916   -0.4474   -1.3047 N   0  0  0  0  0  0  0  0  0  0  0  0
   -2.4380   -0.6896   -0.6010 C   0  0  2  0  0  0  0  0  0  0  0  0
   -2.6290   -0.2598    0.8463 C   0  0  0  0  0  0  0  0  0  0  0  0
   -2.9529    1.0943    0.8571 O   0  0  0  0  0  0  0  0  0  0  0  0
   -1.3757    0.1054   -1.2828 C   0  0  0  0  0  0  0  0  0  0  0  0
   -0.0774   -0.0789   -0.6390 N   0  0  0  0  0  0  0  0  0  0  0  0
    1.0679    0.5774   -1.1176 C   0  0  0  0  0  0  0  0  0  0  0  0
    0.8985    1.3323   -2.1355 O   0  0  0  0  0  0  0  0  0  0  0  0
    2.4006    0.4465   -0.5312 C   0  0  0  0  0  0  0  0  0  0  0  0
    2.6206   -0.3554    0.5627 C   0  0  0  0  0  0  0  0  0  0  0  0
    3.8641   -0.4742    1.1055 C   0  0  0  0  0  0  0  0  0  0  0  0
    4.8869    0.1950    0.5720 N   0  0  0  0  0  0  0  0  0  0  0  0
    4.6611    0.9745   -0.4951 C   0  0  0  0  0  0  0  0  0  0  0  0
    3.4442    1.1083   -1.0486 N   0  0  0  0  0  0  0  0  0  0  0  0
   -4.5143   -0.4981   -0.6973 H   0  0  0  0  0  0  0  0  0  0  0  0
   -3.7033   -1.0914   -2.1224 H   0  0  0  0  0  0  0  0  0  0  0  0
   -2.2340   -1.7637   -0.6623 H   0  0  0  0  0  0  0  0  0  0  0  0
   -3.4878   -0.8035    1.2867 H   0  0  0  0  0  0  0  0  0  0  0  0
   -1.7193   -0.4398    1.4448 H   0  0  0  0  0  0  0  0  0  0  0  0
   -3.3457    1.3888    0.0087 H   0  0  0  0  0  0  0  0  0  0  0  0
   -1.2904   -0.2670   -2.3245 H   0  0  0  0  0  0  0  0  0  0  0  0
   -1.6528    1.1746   -1.3602 H   0  0  0  0  0  0  0  0  0  0  0  0
   -0.0182   -0.7022    0.1761 H   0  0  0  0  0  0  0  0  0  0  0  0
    1.8097   -0.9166    1.0250 H   0  0  0  0  0  0  0  0  0  0  0  0
    3.9965   -1.1259    1.9801 H   0  0  0  0  0  0  0  0  0  0  0  0
    5.4803    1.5165   -0.9300 H   0  0  0  0  0  0  0  0  0  0  0  0
  1  2  1  0
  2  3  1  0
  3  4  1  0
  2  5  1  0
  5  6  1  0
  6  7  1  0
  7  8  2  0
  7  9  1  0
  9 10  2  0
 10 11  1  0
 11 12  2  0
 12 13  1  0
 13 14  2  0
 14  9  1  0
  1 15  1  0
  1 16  1  0
  2 17  1  1
  3 18  1  0
  3 19  1  0
  4 20  1  0
  5 21  1  0
  5 22  1  0
  6 23  1  0
 10 24  1  0
 11 25  1  0
 13 26  1  0
M  END
$$$$

     RDKit          3D

 26 26  0  0  0  0  0  0  0  0999 V2000
   -2.0885    1.2320   -0.2825 N   0  0  0  0  0  0  0  0  0  0  0  0
   -2.1940   -0.1581   -0.5987 C   0  0  2  0  0  0  0  0  0  0  0  0
   -3.6256   -0.6578   -0.5349 C   0  0  0  0  0  0  0  0  0  0  0  0
   -4.1855   -0.5036    0.7078 O   0  0  0  0  0  0  0  0  0  0  0  0
   -1.3453   -1.0623    0.2096 C   0  0  0  0  0  0  0  0  0  0  0  0
    0.0664   -0.8761    0.1591 N   0  0  0  0  0  0  0  0  0  0  0  0
    0.7934    0.2732    0.5551 C   0  0  0  0  0  0  0  0  0  0  0  0
    0.1478    1.2537    1.0119 O   0  0  0  0  0  0  0  0  0  0  0  0
    2.2624    0.3811    0.4607 C   0  0  0  0  0  0  0  0  0  0  0  0
    3.0766   -0.6051   -0.0148 C   0  0  0  0  0  0  0  0  0  0  0  0
    4.4527   -0.3476   -0.0398 C   0  0  0  0  0  0  0  0  0  0  0  0
    4.9781    0.8125    0.3802 N   0  0  0  0  0  0  0  0  0  0  0  0
    4.1578    1.7676    0.8436 C   0  0  0  0  0  0  0  0  0  0  0  0
    2.8607    1.5272    0.8682 N   0  0  0  0  0  0  0  0  0  0  0  0
   -2.9496    1.5389    0.2257 H   0  0  0  0  0  0  0  0  0  0  0  0
   -1.9037    1.8458   -1.1033 H   0  0  0  0  0  0  0  0  0  0  0  0
   -1.8736   -0.2508   -1.6792 H   0  0  0  0  0  0  0  0  0  0  0  0
   -3.6605   -1.7277   -0.8128 H   0  0  0  0  0  0  0  0  0  0  0  0
   -4.2388   -0.1088   -1.2641 H   0  0  0  0  0  0  0  0  0  0  0  0
   -4.5232    0.4028    0.9047 H   0  0  0  0  0  0  0  0  0  0  0  0
   -1.7408   -1.0213    1.2730 H   0  0  0  0  0  0  0  0  0  0  0  0
   -1.5564   -2.1383   -0.0707 H   0  0  0  0  0  0  0  0  0  0  0  0
    0.7042   -1.6578   -0.2109 H   0  0  0  0  0  0  0  0  0  0  0  0
    2.6792   -1.5295   -0.3515 H   0  0  0  0  0  0  0  0  0  0  0  0
    5.1238   -1.1051   -0.4093 H   0  0  0  0  0  0  0  0  0  0  0  0
    4.5824    2.7150    1.1870 H   0  0  0  0  0  0  0  0  0  0  0  0
  1  2  1  0
  2  3  1  0
  3  4  1  0
  2  5  1  0
  5  6  1  0
  6  7  1  0
  7  8  2  0
  7  9  1  0
  9 10  2  0
 10 11  1  0
 11 12  2  0
 12 13  1  0
 13 14  2  0
 14  9  1  0
  1 15  1  0
  1 16  1  0
  2 17  1  6
  3 18  1  0
  3 19  1  0
  4 20  1  0
  5 21  1  0
  5 22  1  0
  6 23  1  0
 10 24  1  0
 11 25  1  0
 13 26  1  0
M  END
$$$$

     RDKit          3D

 26 26  0  0  0  0  0  0  0  0999 V2000
    2.2120    1.5989   -0.5348 N   0  0  0  0  0  0  0  0  0  0  0  0
    2.4309    0.2980    0.0926 C   0  0  2  0  0  0  0  0  0  0  0  0
    3.8180   -0.1408   -0.2775 C   0  0  0  0  0  0  0  0  0  0  0  0
    4.1390   -1.3838    0.2725 O   0  0  0  0  0  0  0  0  0  0  0  0
    1.3817   -0.6739   -0.4260 C   0  0  0  0  0  0  0  0  0  0  0  0
    0.0423   -0.1879   -0.0954 N   0  0  0  0  0  0  0  0  0  0  0  0
   -1.1079   -0.9134   -0.4686 C   0  0  0  0  0  0  0  0  0  0  0  0
   -0.9397   -2.0034   -1.1019 O   0  0  0  0  0  0  0  0  0  0  0  0
   -2.4450   -0.4501   -0.1512 C   0  0  0  0  0  0  0  0  0  0  0  0
   -2.6929    0.7147    0.5283 C   0  0  0  0  0  0  0  0  0  0  0  0
   -4.0119    1.0588    0.7765 C   0  0  0  0  0  0  0  0  0  0  0  0
   -5.0374    0.3015    0.3799 N   0  0  0  0  0  0  0  0  0  0  0  0
   -4.7500   -0.8328   -0.2835 C   0  0  0  0  0  0  0  0  0  0  0  0
   -3.4951   -1.2191   -0.5536 N   0  0  0  0  0  0  0  0  0  0  0  0
    3.0669    2.1696   -0.4470 H   0  0  0  0  0  0  0  0  0  0  0  0
    1.3497    2.0637   -0.2017 H   0  0  0  0  0  0  0  0  0  0  0  0
    2.3083    0.3771    1.1903 H   0  0  0  0  0  0  0  0  0  0  0  0
    4.5363    0.5930    0.0883 H   0  0  0  0  0  0  0  0  0  0  0  0
    3.8766   -0.2541   -1.3789 H   0  0  0  0  0  0  0  0  0  0  0  0
    4.0450   -1.2767    1.2619 H   0  0  0  0  0  0  0  0  0  0  0  0
    1.5421   -1.6683    0.0301 H   0  0  0  0  0  0  0  0  0  0  0  0
    1.4403   -0.7788   -1.5283 H   0  0  0  0  0  0  0  0  0  0  0  0
   -0.0417    0.7094    0.4238 H   0  0  0  0  0  0  0  0  0  0  0  0
   -1.8952    1.3407    0.8580 H   0  0  0  0  0  0  0  0  0  0  0  0
   -4.1673    1.9890    1.3175 H   0  0  0  0  0  0  0  0  0  0  0  0
   -5.6046   -1.4312   -0.5952 H   0  0  0  0  0  0  0  0  0  0  0  0
  1  2  1  0
  2  3  1  0
  3  4  1  0
  2  5  1  0
  5  6  1  0
  6  7  1  0
  7  8  2  0
  7  9  1  0
  9 10  2  0
 10 11  1  0
 11 12  2  0
 12 13  1  0
 13 14  2  0
 14  9  1  0
  1 15  1  0
  1 16  1  0
  2 17  1  1
  3 18  1  0
  3 19  1  0
  4 20  1  0
  5 21  1  0
  5 22  1  0
  6 23  1  0
 10 24  1  0
 11 25  1  0
 13 26  1  0
M  END
$$$$

     RDKit          3D

 26 26  0  0  0  0  0  0  0  0999 V2000
   -3.4993   -1.1759   -0.2963 N   0  0  0  0  0  0  0  0  0  0  0  0
   -2.1947   -0.5791    0.0334 C   0  0  2  0  0  0  0  0  0  0  0  0
   -2.4499    0.8686    0.3264 C   0  0  0  0  0  0  0  0  0  0  0  0
   -3.3366    0.9287    1.4055 O   0  0  0  0  0  0  0  0  0  0  0  0
   -1.3239   -0.7831   -1.1822 C   0  0  0  0  0  0  0  0  0  0  0  0
   -0.0004   -0.2528   -1.0266 N   0  0  0  0  0  0  0  0  0  0  0  0
    0.8801   -0.7021   -0.0061 C   0  0  0  0  0  0  0  0  0  0  0  0
    0.4522   -1.6183    0.7951 O   0  0  0  0  0  0  0  0  0  0  0  0
    2.2101   -0.1617    0.1416 C   0  0  0  0  0  0  0  0  0  0  0  0
    2.6926    0.8088   -0.6904 C   0  0  0  0  0  0  0  0  0  0  0  0
    3.9884    1.3232   -0.5327 C   0  0  0  0  0  0  0  0  0  0  0  0
    4.7338    0.8318    0.4583 N   0  0  0  0  0  0  0  0  0  0  0  0
    4.2602   -0.1334    1.2893 C   0  0  0  0  0  0  0  0  0  0  0  0
    2.9994   -0.6204    1.1204 N   0  0  0  0  0  0  0  0  0  0  0  0
   -3.3839   -2.1719   -0.5754 H   0  0  0  0  0  0  0  0  0  0  0  0
   -4.1742   -1.0412    0.4855 H   0  0  0  0  0  0  0  0  0  0  0  0
   -1.8374   -1.0774    0.9279 H   0  0  0  0  0  0  0  0  0  0  0  0
   -2.9845    1.3760   -0.5286 H   0  0  0  0  0  0  0  0  0  0  0  0
   -1.5334    1.4417    0.5522 H   0  0  0  0  0  0  0  0  0  0  0  0
   -4.0891    1.5330    1.2552 H   0  0  0  0  0  0  0  0  0  0  0  0
   -1.8198   -0.2556   -2.0202 H   0  0  0  0  0  0  0  0  0  0  0  0
   -1.3281   -1.8599   -1.4566 H   0  0  0  0  0  0  0  0  0  0  0  0
    0.3306    0.4817   -1.6761 H   0  0  0  0  0  0  0  0  0  0  0  0
    2.1387    1.2340   -1.4954 H   0  0  0  0  0  0  0  0  0  0  0  0
    4.3524    2.0879   -1.1975 H   0  0  0  0  0  0  0  0  0  0  0  0
    4.9168   -0.4828    2.0668 H   0  0  0  0  0  0  0  0  0  0  0  0
  1  2  1  0
  2  3  1  0
  3  4  1  0
  2  5  1  0
  5  6  1  0
  6  7  1  0
  7  8  2  0
  7  9  1  0
  9 10  2  0
 10 11  1  0
 11 12  2  0
 12 13  1  0
 13 14  2  0
 14  9  1  0
  1 15  1  0
  1 16  1  0
  2 17  1  1
  3 18  1  0
  3 19  1  0
  4 20  1  0
  5 21  1  0
  5 22  1  0
  6 23  1  0
 10 24  1  0
 11 25  1  0
 13 26  1  0
M  END
$$$$

     RDKit          3D

 26 26  0  0  0  0  0  0  0  0999 V2000
   -3.6451   -1.1555   -0.6206 N   0  0  0  0  0  0  0  0  0  0  0  0
   -2.3412   -0.6905   -0.1526 C   0  0  2  0  0  0  0  0  0  0  0  0
   -2.5165    0.5950    0.6167 C   0  0  0  0  0  0  0  0  0  0  0  0
   -1.2455    0.9968    1.0412 O   0  0  0  0  0  0  0  0  0  0  0  0
   -1.4630   -0.4411   -1.3542 C   0  0  0  0  0  0  0  0  0  0  0  0
   -0.1527    0.0263   -0.9483 N   0  0  0  0  0  0  0  0  0  0  0  0
    0.7346   -0.7190   -0.1378 C   0  0  0  0  0  0  0  0  0  0  0  0
    0.3349   -1.8568    0.2366 O   0  0  0  0  0  0  0  0  0  0  0  0
    2.0353   -0.1988    0.2410 C   0  0  0  0  0  0  0  0  0  0  0  0
    2.4973    1.0225   -0.1443 C   0  0  0  0  0  0  0  0  0  0  0  0
    3.7539    1.4687    0.2498 C   0  0  0  0  0  0  0  0  0  0  0  0
    4.5058    0.6653    1.0225 N   0  0  0  0  0  0  0  0  0  0  0  0
    4.0279   -0.5329    1.3885 C   0  0  0  0  0  0  0  0  0  0  0  0
    2.8309   -0.9721    1.0202 N   0  0  0  0  0  0  0  0  0  0  0  0
   -3.8674   -2.0799   -0.2035 H   0  0  0  0  0  0  0  0  0  0  0  0
   -3.6953   -1.1729   -1.6716 H   0  0  0  0  0  0  0  0  0  0  0  0
   -1.9085   -1.4525    0.4972 H   0  0  0  0  0  0  0  0  0  0  0  0
   -2.9226    1.3822   -0.0349 H   0  0  0  0  0  0  0  0  0  0  0  0
   -3.1922    0.3944    1.4910 H   0  0  0  0  0  0  0  0  0  0  0  0
   -1.3253    1.8297    1.5457 H   0  0  0  0  0  0  0  0  0  0  0  0
   -1.9133    0.3191   -2.0240 H   0  0  0  0  0  0  0  0  0  0  0  0
   -1.3716   -1.3753   -1.9676 H   0  0  0  0  0  0  0  0  0  0  0  0
    0.1377    0.9801   -1.2868 H   0  0  0  0  0  0  0  0  0  0  0  0
    1.9177    1.6848   -0.7615 H   0  0  0  0  0  0  0  0  0  0  0  0
    4.1337    2.4318   -0.0465 H   0  0  0  0  0  0  0  0  0  0  0  0
    4.6505   -1.1494    2.0039 H   0  0  0  0  0  0  0  0  0  0  0  0
  1  2  1  0
  2  3  1  0
  3  4  1  0
  2  5  1  0
  5  6  1  0
  6  7  1  0
  7  8  2  0
  7  9  1  0
  9 10  2  0
 10 11  1  0
 11 12  2  0
 12 13  1  0
 13 14  2  0
 14  9  1  0
  1 15  1  0
  1 16  1  0
  2 17  1  1
  3 18  1  0
  3 19  1  0
  4 20  1  0
  5 21  1  0
  5 22  1  0
  6 23  1  0
 10 24  1  0
 11 25  1  0
 13 26  1  0
M  END
$$$$

     RDKit          3D

 26 26  0  0  0  0  0  0  0  0999 V2000
   -2.7831    0.4066   -1.4390 N   0  0  0  0  0  0  0  0  0  0  0  0
   -2.7173   -0.3913   -0.2511 C   0  0  2  0  0  0  0  0  0  0  0  0
   -2.8129    0.4909    0.9751 C   0  0  0  0  0  0  0  0  0  0  0  0
   -4.0193    1.1889    0.9674 O   0  0  0  0  0  0  0  0  0  0  0  0
   -1.4644   -1.2278   -0.1973 C   0  0  0  0  0  0  0  0  0  0  0  0
   -0.2660   -0.3940   -0.2209 N   0  0  0  0  0  0  0  0  0  0  0  0
    1.0126   -0.9842   -0.1780 C   0  0  0  0  0  0  0  0  0  0  0  0
    1.0644   -2.2419   -0.1196 O   0  0  0  0  0  0  0  0  0  0  0  0
    2.2483   -0.1913   -0.1993 C   0  0  0  0  0  0  0  0  0  0  0  0
    3.4601   -0.8454   -0.1544 C   0  0  0  0  0  0  0  0  0  0  0  0
    4.6017   -0.0451   -0.1772 C   0  0  0  0  0  0  0  0  0  0  0  0
    4.5071    1.2831   -0.2394 N   0  0  0  0  0  0  0  0  0  0  0  0
    3.3094    1.8919   -0.2821 C   0  0  0  0  0  0  0  0  0  0  0  0
    2.1866    1.1441   -0.2614 N   0  0  0  0  0  0  0  0  0  0  0  0
   -1.9850    1.0724   -1.5335 H   0  0  0  0  0  0  0  0  0  0  0  0
   -2.9659   -0.1518   -2.2942 H   0  0  0  0  0  0  0  0  0  0  0  0
   -3.5808   -1.0679   -0.2419 H   0  0  0  0  0  0  0  0  0  0  0  0
   -1.9779    1.2027    0.9768 H   0  0  0  0  0  0  0  0  0  0  0  0
   -2.8365   -0.1550    1.8917 H   0  0  0  0  0  0  0  0  0  0  0  0
   -4.1610    1.5524    0.0683 H   0  0  0  0  0  0  0  0  0  0  0  0
   -1.4629   -1.8741   -1.1079 H   0  0  0  0  0  0  0  0  0  0  0  0
   -1.4368   -1.8102    0.7315 H   0  0  0  0  0  0  0  0  0  0  0  0
   -0.3525    0.6276   -0.2689 H   0  0  0  0  0  0  0  0  0  0  0  0
    3.5489   -1.9199   -0.1039 H   0  0  0  0  0  0  0  0  0  0  0  0
    5.5826   -0.5373   -0.1425 H   0  0  0  0  0  0  0  0  0  0  0  0
    3.3006    2.9763   -0.3320 H   0  0  0  0  0  0  0  0  0  0  0  0
  1  2  1  0
  2  3  1  0
  3  4  1  0
  2  5  1  0
  5  6  1  0
  6  7  1  0
  7  8  2  0
  7  9  1  0
  9 10  2  0
 10 11  1  0
 11 12  2  0
 12 13  1  0
 13 14  2  0
 14  9  1  0
  1 15  1  0
  1 16  1  0
  2 17  1  6
  3 18  1  0
  3 19  1  0
  4 20  1  0
  5 21  1  0
  5 22  1  0
  6 23  1  0
 10 24  1  0
 11 25  1  0
 13 26  1  0
M  END
$$$$

     RDKit          3D

 26 26  0  0  0  0  0  0  0  0999 V2000
    2.4327   -0.8894    1.1941 N   0  0  0  0  0  0  0  0  0  0  0  0
    2.3786   -0.8158   -0.2507 C   0  0  2  0  0  0  0  0  0  0  0  0
    3.7139   -0.4107   -0.8479 C   0  0  0  0  0  0  0  0  0  0  0  0
    4.0321    0.8479   -0.3287 O   0  0  0  0  0  0  0  0  0  0  0  0
    1.3598    0.1828   -0.7345 C   0  0  0  0  0  0  0  0  0  0  0  0
    0.0187   -0.1475   -0.2830 N   0  0  0  0  0  0  0  0  0  0  0  0
   -1.0218    0.7416   -0.6906 C   0  0  0  0  0  0  0  0  0  0  0  0
   -0.7196    1.7565   -1.4148 O   0  0  0  0  0  0  0  0  0  0  0  0
   -2.4003    0.5664   -0.3351 C   0  0  0  0  0  0  0  0  0  0  0  0
   -2.7955   -0.4959    0.4366 C   0  0  0  0  0  0  0  0  0  0  0  0
   -4.1385   -0.6313    0.7596 C   0  0  0  0  0  0  0  0  0  0  0  0
   -5.0191    0.2718    0.3149 N   0  0  0  0  0  0  0  0  0  0  0  0
   -4.6181    1.3041   -0.4380 C   0  0  0  0  0  0  0  0  0  0  0  0
   -3.3278    1.4433   -0.7543 N   0  0  0  0  0  0  0  0  0  0  0  0
    3.4119   -0.9998    1.4859 H   0  0  0  0  0  0  0  0  0  0  0  0
    1.9257   -0.0982    1.6429 H   0  0  0  0  0  0  0  0  0  0  0  0
    2.1508   -1.8377   -0.6147 H   0  0  0  0  0  0  0  0  0  0  0  0
    3.5295   -0.2890   -1.9466 H   0  0  0  0  0  0  0  0  0  0  0  0
    4.5054   -1.1553   -0.6327 H   0  0  0  0  0  0  0  0  0  0  0  0
    3.6214    0.9229    0.5620 H   0  0  0  0  0  0  0  0  0  0  0  0
    1.4000    0.2147   -1.8309 H   0  0  0  0  0  0  0  0  0  0  0  0
    1.6106    1.1690   -0.2923 H   0  0  0  0  0  0  0  0  0  0  0  0
   -0.1971   -0.9665    0.2966 H   0  0  0  0  0  0  0  0  0  0  0  0
   -2.1042   -1.2597    0.8220 H   0  0  0  0  0  0  0  0  0  0  0  0
   -4.4480   -1.4773    1.3733 H   0  0  0  0  0  0  0  0  0  0  0  0
   -5.3008    2.0533   -0.8152 H   0  0  0  0  0  0  0  0  0  0  0  0
  1  2  1  0
  2  3  1  0
  3  4  1  0
  2  5  1  0
  5  6  1  0
  6  7  1  0
  7  8  2  0
  7  9  1  0
  9 10  2  0
 10 11  1  0
 11 12  2  0
 12 13  1  0
 13 14  2  0
 14  9  1  0
  1 15  1  0
  1 16  1  0
  2 17  1  6
  3 18  1  0
  3 19  1  0
  4 20  1  0
  5 21  1  0
  5 22  1  0
  6 23  1  0
 10 24  1  0
 11 25  1  0
 13 26  1  0
M  END
$$$$

     RDKit          3D

 26 26  0  0  0  0  0  0  0  0999 V2000
   -2.0312   -0.9659    0.7301 N   0  0  0  0  0  0  0  0  0  0  0  0
   -2.2251    0.2715    0.0612 C   0  0  2  0  0  0  0  0  0  0  0  0
   -3.6559    0.2376   -0.5026 C   0  0  0  0  0  0  0  0  0  0  0  0
   -4.5545    0.0893    0.5218 O   0  0  0  0  0  0  0  0  0  0  0  0
   -1.2768    0.5578   -1.0498 C   0  0  0  0  0  0  0  0  0  0  0  0
    0.0913    0.6196   -0.6874 N   0  0  0  0  0  0  0  0  0  0  0  0
    0.8819   -0.4291   -0.1454 C   0  0  0  0  0  0  0  0  0  0  0  0
    0.3641   -1.5481    0.0450 O   0  0  0  0  0  0  0  0  0  0  0  0
    2.2832   -0.1958    0.1835 C   0  0  0  0  0  0  0  0  0  0  0  0
    3.0346   -1.2204    0.7070 C   0  0  0  0  0  0  0  0  0  0  0  0
    4.3795   -1.0105    1.0269 C   0  0  0  0  0  0  0  0  0  0  0  0
    4.9012    0.2093    0.8071 N   0  0  0  0  0  0  0  0  0  0  0  0
    4.1739    1.2145    0.2963 C   0  0  0  0  0  0  0  0  0  0  0  0
    2.8830    0.9842   -0.0020 N   0  0  0  0  0  0  0  0  0  0  0  0
   -1.9743   -0.9313    1.7522 H   0  0  0  0  0  0  0  0  0  0  0  0
   -2.6342   -1.7070    0.3424 H   0  0  0  0  0  0  0  0  0  0  0  0
   -2.2162    1.1310    0.7871 H   0  0  0  0  0  0  0  0  0  0  0  0
   -3.7730    1.2030   -1.0531 H   0  0  0  0  0  0  0  0  0  0  0  0
   -3.6921   -0.5703   -1.2483 H   0  0  0  0  0  0  0  0  0  0  0  0
   -4.8015    0.9645    0.8871 H   0  0  0  0  0  0  0  0  0  0  0  0
   -1.4382   -0.1365   -1.9221 H   0  0  0  0  0  0  0  0  0  0  0  0
   -1.5790    1.5580   -1.4853 H   0  0  0  0  0  0  0  0  0  0  0  0
    0.6179    1.5502   -0.8259 H   0  0  0  0  0  0  0  0  0  0  0  0
    2.6336   -2.2058    0.8904 H   0  0  0  0  0  0  0  0  0  0  0  0
    4.9447   -1.8291    1.4352 H   0  0  0  0  0  0  0  0  0  0  0  0
    4.6633    2.1593    0.1504 H   0  0  0  0  0  0  0  0  0  0  0  0
  1  2  1  0
  2  3  1  0
  3  4  1  0
  2  5  1  0
  5  6  1  0
  6  7  1  0
  7  8  2  0
  7  9  1  0
  9 10  2  0
 10 11  1  0
 11 12  2  0
 12 13  1  0
 13 14  2  0
 14  9  1  0
  1 15  1  0
  1 16  1  0
  2 17  1  1
  3 18  1  0
  3 19  1  0
  4 20  1  0
  5 21  1  0
  5 22  1  0
  6 23  1  0
 10 24  1  0
 11 25  1  0
 13 26  1  0
M  END
$$$$
