
     RDKit          3D

 29 28  0  0  0  0  0  0  0  0999 V2000
   -2.9326   -0.6557   -0.9144 C   0  0  0  0  0  0  0  0  0  0  0  0
   -1.8469    0.1399   -0.2397 C   0  0  1  0  0  0  0  0  0  0  0  0
   -2.0647    0.3894    1.1993 C   0  0  0  0  0  0  0  0  0  0  0  0
   -3.2676    1.1219    1.5101 N   0  0  0  0  0  0  0  0  0  0  0  0
   -0.5978   -0.5459   -0.4447 N   0  0  0  0  0  0  0  0  0  0  0  0
    0.5180   -0.0198    0.2798 C   0  0  0  0  0  0  0  0  0  0  0  0
    1.7408   -0.8251   -0.1395 C   0  0  1  0  0  0  0  0  0  0  0  0
    1.8771   -0.6221   -1.6409 C   0  0  0  0  0  0  0  0  0  0  0  0
    3.2113   -0.2490    0.6385 S   0  0  0  0  0  6  0  0  0  0  0  0
    3.4826    1.4301    0.3568 N   0  0  0  0  0  0  0  0  0  0  0  0
    4.3821   -0.9815   -0.0012 O   0  0  0  0  0  0  0  0  0  0  0  0
    3.2254   -0.5026    2.1148 O   0  0  0  0  0  0  0  0  0  0  0  0
   -3.8502   -0.7415   -0.3202 H   0  0  0  0  0  0  0  0  0  0  0  0
   -2.6161   -1.7082   -1.1447 H   0  0  0  0  0  0  0  0  0  0  0  0
   -3.1425   -0.2052   -1.9052 H   0  0  0  0  0  0  0  0  0  0  0  0
   -1.7350    1.1354   -0.7621 H   0  0  0  0  0  0  0  0  0  0  0  0
   -1.2284    1.0194    1.5755 H   0  0  0  0  0  0  0  0  0  0  0  0
   -2.0105   -0.5688    1.7547 H   0  0  0  0  0  0  0  0  0  0  0  0
   -4.1139    0.8177    0.9857 H   0  0  0  0  0  0  0  0  0  0  0  0
   -3.1246    2.1528    1.5429 H   0  0  0  0  0  0  0  0  0  0  0  0
   -0.6614   -1.5774   -0.4074 H   0  0  0  0  0  0  0  0  0  0  0  0
    0.3790   -0.1855    1.3857 H   0  0  0  0  0  0  0  0  0  0  0  0
    0.7157    1.0298    0.0700 H   0  0  0  0  0  0  0  0  0  0  0  0
    1.5772   -1.8930    0.0600 H   0  0  0  0  0  0  0  0  0  0  0  0
    2.0782    0.4547   -1.7893 H   0  0  0  0  0  0  0  0  0  0  0  0
    2.6993   -1.2319   -2.0517 H   0  0  0  0  0  0  0  0  0  0  0  0
    0.9606   -0.9232   -2.1582 H   0  0  0  0  0  0  0  0  0  0  0  0
    3.0495    2.0396    1.0688 H   0  0  0  0  0  0  0  0  0  0  0  0
    3.2954    1.7058   -0.6237 H   0  0  0  0  0  0  0  0  0  0  0  0
  1  2  1  0
  2  3  1  0
  3  4  1  0
  2  5  1  0
  5  6  1  0
  6  7  1  0
  7  8  1  0
  7  9  1  0
  9 10  1  0
  9 11  2  0
  9 12  2  0
  1 13  1  0
  1 14  1  0
  1 15  1  0
  2 16  1  6
  3 17  1  0
  3 18  1  0
  4 19  1  0
  4 20  1  0
  5 21  1  0
  6 22  1  0
  6 23  1  0
  7 24  1  6
  8 25  1  0
  8 26  1  0
  8 27  1  0
 10 28  1  0
 10 29  1  0
M  END
$$$$

     RDKit          3D

 29 28  0  0  0  0  0  0  0  0999 V2000
    2.2695   -0.8735    1.2949 C   0  0  0  0  0  0  0  0  0  0  0  0
    1.8819    0.4980    0.8168 C   0  0  1  0  0  0  0  0  0  0  0  0
    2.7935    0.7927   -0.3819 C   0  0  0  0  0  0  0  0  0  0  0  0
    2.5627   -0.2208   -1.3817 N   0  0  0  0  0  0  0  0  0  0  0  0
    0.5205    0.7166    0.5371 N   0  0  0  0  0  0  0  0  0  0  0  0
   -0.1009   -0.0046   -0.5082 C   0  0  0  0  0  0  0  0  0  0  0  0
   -1.5722    0.3768   -0.5283 C   0  0  1  0  0  0  0  0  0  0  0  0
   -2.3108   -0.3499   -1.6348 C   0  0  0  0  0  0  0  0  0  0  0  0
   -2.3272   -0.1598    0.9959 S   0  0  0  0  0  6  0  0  0  0  0  0
   -4.0260    0.1169    0.9336 N   0  0  0  0  0  0  0  0  0  0  0  0
   -2.0580   -1.6320    1.1398 O   0  0  0  0  0  0  0  0  0  0  0  0
   -1.7207    0.5844    2.1379 O   0  0  0  0  0  0  0  0  0  0  0  0
    3.3831   -0.8265    1.4749 H   0  0  0  0  0  0  0  0  0  0  0  0
    1.8344   -1.1024    2.2991 H   0  0  0  0  0  0  0  0  0  0  0  0
    2.1179   -1.6787    0.5783 H   0  0  0  0  0  0  0  0  0  0  0  0
    2.1793    1.2077    1.6304 H   0  0  0  0  0  0  0  0  0  0  0  0
    3.8419    0.8051   -0.0634 H   0  0  0  0  0  0  0  0  0  0  0  0
    2.4872    1.7601   -0.8186 H   0  0  0  0  0  0  0  0  0  0  0  0
    3.1232   -1.0575   -1.1054 H   0  0  0  0  0  0  0  0  0  0  0  0
    2.7849    0.1489   -2.3239 H   0  0  0  0  0  0  0  0  0  0  0  0
    0.1356    1.6435    0.7584 H   0  0  0  0  0  0  0  0  0  0  0  0
    0.2639    0.2548   -1.5405 H   0  0  0  0  0  0  0  0  0  0  0  0
   -0.0035   -1.1034   -0.4160 H   0  0  0  0  0  0  0  0  0  0  0  0
   -1.7478    1.4554   -0.6701 H   0  0  0  0  0  0  0  0  0  0  0  0
   -2.3049    0.2883   -2.5644 H   0  0  0  0  0  0  0  0  0  0  0  0
   -1.7995   -1.2852   -1.8526 H   0  0  0  0  0  0  0  0  0  0  0  0
   -3.3681   -0.5492   -1.3595 H   0  0  0  0  0  0  0  0  0  0  0  0
   -4.5470   -0.7237    0.5784 H   0  0  0  0  0  0  0  0  0  0  0  0
   -4.2930    0.9180    0.3402 H   0  0  0  0  0  0  0  0  0  0  0  0
  1  2  1  0
  2  3  1  0
  3  4  1  0
  2  5  1  0
  5  6  1  0
  6  7  1  0
  7  8  1  0
  7  9  1  0
  9 10  1  0
  9 11  2  0
  9 12  2  0
  1 13  1  0
  1 14  1  0
  1 15  1  0
  2 16  1  1
  3 17  1  0
  3 18  1  0
  4 19  1  0
  4 20  1  0
  5 21  1  0
  6 22  1  0
  6 23  1  0
  7 24  1  6
  8 25  1  0
  8 26  1  0
  8 27  1  0
 10 28  1  0
 10 29  1  0
M  END
$$$$

     RDKit          3D

 29 28  0  0  0  0  0  0  0  0999 V2000
    1.4391   -2.1509    0.1510 C   0  0  0  0  0  0  0  0  0  0  0  0
    1.6258   -0.7509    0.7220 C   0  0  1  0  0  0  0  0  0  0  0  0
    2.5835   -0.0491   -0.2209 C   0  0  0  0  0  0  0  0  0  0  0  0
    2.8560    1.2945    0.1856 N   0  0  0  0  0  0  0  0  0  0  0  0
    0.3962   -0.0315    0.8379 N   0  0  0  0  0  0  0  0  0  0  0  0
   -0.2227    0.2142   -0.4319 C   0  0  0  0  0  0  0  0  0  0  0  0
   -1.5337    0.9133   -0.2756 C   0  0  1  0  0  0  0  0  0  0  0  0
   -2.1469    1.1421   -1.6759 C   0  0  0  0  0  0  0  0  0  0  0  0
   -2.7190   -0.0899    0.5869 S   0  0  0  0  0  6  0  0  0  0  0  0
   -2.3216   -0.2747    2.2349 N   0  0  0  0  0  0  0  0  0  0  0  0
   -4.1072    0.5019    0.4989 O   0  0  0  0  0  0  0  0  0  0  0  0
   -2.7123   -1.4566   -0.0915 O   0  0  0  0  0  0  0  0  0  0  0  0
    0.6851   -2.7040    0.7253 H   0  0  0  0  0  0  0  0  0  0  0  0
    2.4269   -2.6559    0.2016 H   0  0  0  0  0  0  0  0  0  0  0  0
    1.1762   -2.0991   -0.9216 H   0  0  0  0  0  0  0  0  0  0  0  0
    2.1027   -0.8651    1.7081 H   0  0  0  0  0  0  0  0  0  0  0  0
    3.5369   -0.6558   -0.2663 H   0  0  0  0  0  0  0  0  0  0  0  0
    2.1590   -0.1236   -1.2335 H   0  0  0  0  0  0  0  0  0  0  0  0
    2.7157    1.5111    1.1750 H   0  0  0  0  0  0  0  0  0  0  0  0
    3.7363    1.6778   -0.2201 H   0  0  0  0  0  0  0  0  0  0  0  0
    0.5717    0.8321    1.3843 H   0  0  0  0  0  0  0  0  0  0  0  0
    0.4413    0.8967   -1.0469 H   0  0  0  0  0  0  0  0  0  0  0  0
   -0.3478   -0.7336   -0.9713 H   0  0  0  0  0  0  0  0  0  0  0  0
   -1.4334    1.9245    0.1848 H   0  0  0  0  0  0  0  0  0  0  0  0
   -1.6694    1.9983   -2.1460 H   0  0  0  0  0  0  0  0  0  0  0  0
   -3.2129    1.3885   -1.4751 H   0  0  0  0  0  0  0  0  0  0  0  0
   -2.0725    0.2127   -2.2490 H   0  0  0  0  0  0  0  0  0  0  0  0
   -1.3272   -0.4563    2.3828 H   0  0  0  0  0  0  0  0  0  0  0  0
   -2.6257    0.5893    2.7524 H   0  0  0  0  0  0  0  0  0  0  0  0
  1  2  1  0
  2  3  1  0
  3  4  1  0
  2  5  1  0
  5  6  1  0
  6  7  1  0
  7  8  1  0
  7  9  1  0
  9 10  1  0
  9 11  2  0
  9 12  2  0
  1 13  1  0
  1 14  1  0
  1 15  1  0
  2 16  1  1
  3 17  1  0
  3 18  1  0
  4 19  1  0
  4 20  1  0
  5 21  1  0
  6 22  1  0
  6 23  1  0
  7 24  1  1
  8 25  1  0
  8 26  1  0
  8 27  1  0
 10 28  1  0
 10 29  1  0
M  END
$$$$

     RDKit          3D

 29 28  0  0  0  0  0  0  0  0999 V2000
   -1.9509    0.2247   -1.3415 C   0  0  0  0  0  0  0  0  0  0  0  0
   -1.8223    0.0219    0.1450 C   0  0  1  0  0  0  0  0  0  0  0  0
   -3.0648   -0.7562    0.6233 C   0  0  0  0  0  0  0  0  0  0  0  0
   -2.9746   -0.9679    2.0405 N   0  0  0  0  0  0  0  0  0  0  0  0
   -0.6519   -0.5601    0.5543 N   0  0  0  0  0  0  0  0  0  0  0  0
    0.6381   -0.1389    0.5604 C   0  0  0  0  0  0  0  0  0  0  0  0
    1.4749    0.1043   -0.6355 C   0  0  1  0  0  0  0  0  0  0  0  0
    1.0133    1.1793   -1.5643 C   0  0  0  0  0  0  0  0  0  0  0  0
    3.1341    0.5854   -0.0888 S   0  0  0  0  0  6  0  0  0  0  0  0
    3.7689   -0.6517    0.8830 N   0  0  0  0  0  0  0  0  0  0  0  0
    2.9590    1.8234    0.7259 O   0  0  0  0  0  0  0  0  0  0  0  0
    3.9153    0.8910   -1.3041 O   0  0  0  0  0  0  0  0  0  0  0  0
   -1.8233    1.2593   -1.6755 H   0  0  0  0  0  0  0  0  0  0  0  0
   -1.2981   -0.4783   -1.8928 H   0  0  0  0  0  0  0  0  0  0  0  0
   -3.0102   -0.0526   -1.6239 H   0  0  0  0  0  0  0  0  0  0  0  0
   -2.0158    1.0540    0.6052 H   0  0  0  0  0  0  0  0  0  0  0  0
   -3.0879   -1.6845    0.0443 H   0  0  0  0  0  0  0  0  0  0  0  0
   -3.9354   -0.1244    0.3769 H   0  0  0  0  0  0  0  0  0  0  0  0
   -2.1705   -1.5320    2.3261 H   0  0  0  0  0  0  0  0  0  0  0  0
   -3.1641   -0.1202    2.5892 H   0  0  0  0  0  0  0  0  0  0  0  0
   -0.8205   -1.5814    0.8093 H   0  0  0  0  0  0  0  0  0  0  0  0
    1.2432   -0.9126    1.1883 H   0  0  0  0  0  0  0  0  0  0  0  0
    0.8116    0.7819    1.2379 H   0  0  0  0  0  0  0  0  0  0  0  0
    1.5991   -0.8618   -1.2345 H   0  0  0  0  0  0  0  0  0  0  0  0
    1.9410    1.7614   -1.8873 H   0  0  0  0  0  0  0  0  0  0  0  0
    0.3514    1.9250   -1.0731 H   0  0  0  0  0  0  0  0  0  0  0  0
    0.6237    0.7406   -2.4818 H   0  0  0  0  0  0  0  0  0  0  0  0
    4.3791   -0.3739    1.6566 H   0  0  0  0  0  0  0  0  0  0  0  0
    3.9376   -1.5557    0.4368 H   0  0  0  0  0  0  0  0  0  0  0  0
  1  2  1  0
  2  3  1  0
  3  4  1  0
  2  5  1  0
  5  6  1  0
  6  7  1  0
  7  8  1  0
  7  9  1  0
  9 10  1  0
  9 11  2  0
  9 12  2  0
  1 13  1  0
  1 14  1  0
  1 15  1  0
  2 16  1  1
  3 17  1  0
  3 18  1  0
  4 19  1  0
  4 20  1  0
  5 21  1  0
  6 22  1  0
  6 23  1  0
  7 24  1  6
  8 25  1  0
  8 26  1  0
  8 27  1  0
 10 28  1  0
 10 29  1  0
M  END
$$$$

     RDKit          3D

 29 28  0  0  0  0  0  0  0  0999 V2000
    2.2158   -0.0711   -1.3714 C   0  0  0  0  0  0  0  0  0  0  0  0
    1.9348   -0.7457   -0.0692 C   0  0  1  0  0  0  0  0  0  0  0  0
    3.0444   -0.5740    0.9346 C   0  0  0  0  0  0  0  0  0  0  0  0
    3.3176    0.7859    1.2663 N   0  0  0  0  0  0  0  0  0  0  0  0
    0.6941   -0.3173    0.4946 N   0  0  0  0  0  0  0  0  0  0  0  0
   -0.4705   -0.6333   -0.2960 C   0  0  0  0  0  0  0  0  0  0  0  0
   -1.6754   -0.1028    0.4558 C   0  0  1  0  0  0  0  0  0  0  0  0
   -1.5497    1.3916    0.6356 C   0  0  0  0  0  0  0  0  0  0  0  0
   -3.1859   -0.4564   -0.3668 S   0  0  0  0  0  6  0  0  0  0  0  0
   -4.4933    0.1093    0.6087 N   0  0  0  0  0  0  0  0  0  0  0  0
   -3.2564    0.3662   -1.6468 O   0  0  0  0  0  0  0  0  0  0  0  0
   -3.3807   -1.9017   -0.6721 O   0  0  0  0  0  0  0  0  0  0  0  0
    2.1850    1.0316   -1.2569 H   0  0  0  0  0  0  0  0  0  0  0  0
    3.1910   -0.4333   -1.7652 H   0  0  0  0  0  0  0  0  0  0  0  0
    1.4472   -0.3609   -2.0992 H   0  0  0  0  0  0  0  0  0  0  0  0
    1.8420   -1.8482   -0.2737 H   0  0  0  0  0  0  0  0  0  0  0  0
    2.7632   -1.1027    1.8813 H   0  0  0  0  0  0  0  0  0  0  0  0
    3.9956   -1.0400    0.5622 H   0  0  0  0  0  0  0  0  0  0  0  0
    4.3349    1.0102    1.2230 H   0  0  0  0  0  0  0  0  0  0  0  0
    2.7069    1.4774    0.7785 H   0  0  0  0  0  0  0  0  0  0  0  0
    0.7300    0.7138    0.6603 H   0  0  0  0  0  0  0  0  0  0  0  0
   -0.4220   -0.2256   -1.3106 H   0  0  0  0  0  0  0  0  0  0  0  0
   -0.5792   -1.7471   -0.3362 H   0  0  0  0  0  0  0  0  0  0  0  0
   -1.6752   -0.6115    1.4367 H   0  0  0  0  0  0  0  0  0  0  0  0
   -0.9030    1.6090    1.5191 H   0  0  0  0  0  0  0  0  0  0  0  0
   -2.5552    1.8389    0.7575 H   0  0  0  0  0  0  0  0  0  0  0  0
   -1.0599    1.7994   -0.2888 H   0  0  0  0  0  0  0  0  0  0  0  0
   -4.1417    0.7285    1.3645 H   0  0  0  0  0  0  0  0  0  0  0  0
   -5.0545   -0.6902    0.9997 H   0  0  0  0  0  0  0  0  0  0  0  0
  1  2  1  0
  2  3  1  0
  3  4  1  0
  2  5  1  0
  5  6  1  0
  6  7  1  0
  7  8  1  0
  7  9  1  0
  9 10  1  0
  9 11  2  0
  9 12  2  0
  1 13  1  0
  1 14  1  0
  1 15  1  0
  2 16  1  6
  3 17  1  0
  3 18  1  0
  4 19  1  0
  4 20  1  0
  5 21  1  0
  6 22  1  0
  6 23  1  0
  7 24  1  1
  8 25  1  0
  8 26  1  0
  8 27  1  0
 10 28  1  0
 10 29  1  0
M  END
$$$$

     RDKit          3D

 29 28  0  0  0  0  0  0  0  0999 V2000
    2.8786    1.1776    0.7012 C   0  0  0  0  0  0  0  0  0  0  0  0
    1.8113    0.7359   -0.2867 C   0  0  1  0  0  0  0  0  0  0  0  0
    2.3683   -0.3061   -1.2384 C   0  0  0  0  0  0  0  0  0  0  0  0
    2.8023   -1.4337   -0.4397 N   0  0  0  0  0  0  0  0  0  0  0  0
    0.7215    0.1368    0.4525 N   0  0  0  0  0  0  0  0  0  0  0  0
   -0.4526   -0.0789   -0.3348 C   0  0  0  0  0  0  0  0  0  0  0  0
   -1.5165   -0.7041    0.5438 C   0  0  1  0  0  0  0  0  0  0  0  0
   -1.8422    0.2168    1.7092 C   0  0  0  0  0  0  0  0  0  0  0  0
   -3.0049   -0.8608   -0.4388 S   0  0  0  0  0  6  0  0  0  0  0  0
   -3.4292    0.7418   -0.9346 N   0  0  0  0  0  0  0  0  0  0  0  0
   -2.7215   -1.6593   -1.6552 O   0  0  0  0  0  0  0  0  0  0  0  0
   -4.0827   -1.5043    0.3661 O   0  0  0  0  0  0  0  0  0  0  0  0
    3.8994    1.0170    0.3535 H   0  0  0  0  0  0  0  0  0  0  0  0
    2.7518    0.6833    1.6848 H   0  0  0  0  0  0  0  0  0  0  0  0
    2.7915    2.2853    0.8935 H   0  0  0  0  0  0  0  0  0  0  0  0
    1.4399    1.6327   -0.8142 H   0  0  0  0  0  0  0  0  0  0  0  0
    3.1710    0.1050   -1.8874 H   0  0  0  0  0  0  0  0  0  0  0  0
    1.5761   -0.6584   -1.9198 H   0  0  0  0  0  0  0  0  0  0  0  0
    3.8147   -1.4404   -0.2405 H   0  0  0  0  0  0  0  0  0  0  0  0
    2.4781   -2.3446   -0.8102 H   0  0  0  0  0  0  0  0  0  0  0  0
    0.4902    0.6159    1.3299 H   0  0  0  0  0  0  0  0  0  0  0  0
   -0.3165   -0.7347   -1.2065 H   0  0  0  0  0  0  0  0  0  0  0  0
   -0.8072    0.9030   -0.7155 H   0  0  0  0  0  0  0  0  0  0  0  0
   -1.1686   -1.6889    0.9090 H   0  0  0  0  0  0  0  0  0  0  0  0
   -1.0751    0.0465    2.5033 H   0  0  0  0  0  0  0  0  0  0  0  0
   -1.8262    1.2516    1.3410 H   0  0  0  0  0  0  0  0  0  0  0  0
   -2.8597   -0.1032    2.0785 H   0  0  0  0  0  0  0  0  0  0  0  0
   -4.1510    0.6798   -1.6695 H   0  0  0  0  0  0  0  0  0  0  0  0
   -3.7408    1.2884   -0.1026 H   0  0  0  0  0  0  0  0  0  0  0  0
  1  2  1  0
  2  3  1  0
  3  4  1  0
  2  5  1  0
  5  6  1  0
  6  7  1  0
  7  8  1  0
  7  9  1  0
  9 10  1  0
  9 11  2  0
  9 12  2  0
  1 13  1  0
  1 14  1  0
  1 15  1  0
  2 16  1  6
  3 17  1  0
  3 18  1  0
  4 19  1  0
  4 20  1  0
  5 21  1  0
  6 22  1  0
  6 23  1  0
  7 24  1  1
  8 25  1  0
  8 26  1  0
  8 27  1  0
 10 28  1  0
 10 29  1  0
M  END
$$$$

     RDKit          3D

 29 28  0  0  0  0  0  0  0  0999 V2000
   -2.3009    0.0112    1.4874 C   0  0  0  0  0  0  0  0  0  0  0  0
   -1.8426   -0.7940    0.3174 C   0  0  1  0  0  0  0  0  0  0  0  0
   -2.7265   -0.4473   -0.8686 C   0  0  0  0  0  0  0  0  0  0  0  0
   -2.6139    0.9636   -1.1615 N   0  0  0  0  0  0  0  0  0  0  0  0
   -0.4961   -0.4919   -0.0618 N   0  0  0  0  0  0  0  0  0  0  0  0
    0.5097   -0.7918    0.8910 C   0  0  0  0  0  0  0  0  0  0  0  0
    1.8843   -0.4428    0.3508 C   0  0  1  0  0  0  0  0  0  0  0  0
    2.2433   -1.1859   -0.8939 C   0  0  0  0  0  0  0  0  0  0  0  0
    1.9484    1.3160    0.1215 S   0  0  0  0  0  6  0  0  0  0  0  0
    3.5269    1.8328   -0.3459 N   0  0  0  0  0  0  0  0  0  0  0  0
    1.6557    1.9711    1.4513 O   0  0  0  0  0  0  0  0  0  0  0  0
    0.9614    1.7939   -0.8927 O   0  0  0  0  0  0  0  0  0  0  0  0
   -2.9346    0.8727    1.1348 H   0  0  0  0  0  0  0  0  0  0  0  0
   -1.4775    0.4320    2.0765 H   0  0  0  0  0  0  0  0  0  0  0  0
   -2.9497   -0.6350    2.1263 H   0  0  0  0  0  0  0  0  0  0  0  0
   -1.9758   -1.8856    0.5412 H   0  0  0  0  0  0  0  0  0  0  0  0
   -2.3736   -1.0784   -1.7170 H   0  0  0  0  0  0  0  0  0  0  0  0
   -3.7790   -0.7349   -0.6461 H   0  0  0  0  0  0  0  0  0  0  0  0
   -3.5204    1.4704   -1.0876 H   0  0  0  0  0  0  0  0  0  0  0  0
   -1.8641    1.3760   -0.5795 H   0  0  0  0  0  0  0  0  0  0  0  0
   -0.3244   -0.7718   -1.0305 H   0  0  0  0  0  0  0  0  0  0  0  0
    0.3885   -0.1906    1.8057 H   0  0  0  0  0  0  0  0  0  0  0  0
    0.5704   -1.8692    1.1704 H   0  0  0  0  0  0  0  0  0  0  0  0
    2.6113   -0.6936    1.1444 H   0  0  0  0  0  0  0  0  0  0  0  0
    1.3945   -1.8455   -1.1716 H   0  0  0  0  0  0  0  0  0  0  0  0
    3.1274   -1.8679   -0.7170 H   0  0  0  0  0  0  0  0  0  0  0  0
    2.5300   -0.5106   -1.7417 H   0  0  0  0  0  0  0  0  0  0  0  0
    4.2240    1.3394    0.2305 H   0  0  0  0  0  0  0  0  0  0  0  0
    3.6034    2.8578   -0.1432 H   0  0  0  0  0  0  0  0  0  0  0  0
  1  2  1  0
  2  3  1  0
  3  4  1  0
  2  5  1  0
  5  6  1  0
  6  7  1  0
  7  8  1  0
  7  9  1  0
  9 10  1  0
  9 11  2  0
  9 12  2  0
  1 13  1  0
  1 14  1  0
  1 15  1  0
  2 16  1  1
  3 17  1  0
  3 18  1  0
  4 19  1  0
  4 20  1  0
  5 21  1  0
  6 22  1  0
  6 23  1  0
  7 24  1  1
  8 25  1  0
  8 26  1  0
  8 27  1  0
 10 28  1  0
 10 29  1  0
M  END
$$$$

     RDKit          3D

 29 28  0  0  0  0  0  0  0  0999 V2000
   -1.9234    0.5314   -1.4450 C   0  0  0  0  0  0  0  0  0  0  0  0
   -1.9539    0.1901    0.0365 C   0  0  1  0  0  0  0  0  0  0  0  0
   -3.0750   -0.8139    0.3116 C   0  0  0  0  0  0  0  0  0  0  0  0
   -4.3281   -0.2232   -0.0755 N   0  0  0  0  0  0  0  0  0  0  0  0
   -0.6763   -0.4227    0.3426 N   0  0  0  0  0  0  0  0  0  0  0  0
    0.3908    0.5260    0.1077 C   0  0  0  0  0  0  0  0  0  0  0  0
    1.7406   -0.0606    0.4058 C   0  0  1  0  0  0  0  0  0  0  0  0
    1.9869   -1.2664   -0.4771 C   0  0  0  0  0  0  0  0  0  0  0  0
    3.0391    1.1467    0.1835 S   0  0  0  0  0  6  0  0  0  0  0  0
    4.5104    0.4171    0.5344 N   0  0  0  0  0  0  0  0  0  0  0  0
    2.7904    2.2508    1.1740 O   0  0  0  0  0  0  0  0  0  0  0  0
    2.9846    1.6552   -1.2390 O   0  0  0  0  0  0  0  0  0  0  0  0
   -2.9406    0.5357   -1.8520 H   0  0  0  0  0  0  0  0  0  0  0  0
   -1.2458   -0.1812   -1.9636 H   0  0  0  0  0  0  0  0  0  0  0  0
   -1.5148    1.5779   -1.5306 H   0  0  0  0  0  0  0  0  0  0  0  0
   -2.0998    1.0732    0.6568 H   0  0  0  0  0  0  0  0  0  0  0  0
   -2.9154   -1.7309   -0.3173 H   0  0  0  0  0  0  0  0  0  0  0  0
   -3.0202   -1.1214    1.3672 H   0  0  0  0  0  0  0  0  0  0  0  0
   -4.8998   -0.8225   -0.6794 H   0  0  0  0  0  0  0  0  0  0  0  0
   -4.8247    0.2764    0.6821 H   0  0  0  0  0  0  0  0  0  0  0  0
   -0.5894   -1.2775   -0.2451 H   0  0  0  0  0  0  0  0  0  0  0  0
    0.3213    0.8155   -0.9631 H   0  0  0  0  0  0  0  0  0  0  0  0
    0.1890    1.4259    0.7189 H   0  0  0  0  0  0  0  0  0  0  0  0
    1.7807   -0.3833    1.4620 H   0  0  0  0  0  0  0  0  0  0  0  0
    3.0763   -1.4701   -0.5219 H   0  0  0  0  0  0  0  0  0  0  0  0
    1.6442   -1.0899   -1.5124 H   0  0  0  0  0  0  0  0  0  0  0  0
    1.5121   -2.1416    0.0109 H   0  0  0  0  0  0  0  0  0  0  0  0
    4.7599   -0.4282    0.0113 H   0  0  0  0  0  0  0  0  0  0  0  0
    5.2813    1.0118    0.8485 H   0  0  0  0  0  0  0  0  0  0  0  0
  1  2  1  0
  2  3  1  0
  3  4  1  0
  2  5  1  0
  5  6  1  0
  6  7  1  0
  7  8  1  0
  7  9  1  0
  9 10  1  0
  9 11  2  0
  9 12  2  0
  1 13  1  0
  1 14  1  0
  1 15  1  0
  2 16  1  1
  3 17  1  0
  3 18  1  0
  4 19  1  0
  4 20  1  0
  5 21  1  0
  6 22  1  0
  6 23  1  0
  7 24  1  1
  8 25  1  0
  8 26  1  0
  8 27  1  0
 10 28  1  0
 10 29  1  0
M  END
$$$$
