
     RDKit          3D

 29 29  0  0  0  0  0  0  0  0999 V2000
    3.8279    0.7586   -0.1877 N   0  0  0  0  0  0  0  0  0  0  0  0
    2.7173    0.1766   -0.9555 C   0  0  0  0  0  0  0  0  0  0  0  0
    1.7210   -0.3148    0.0228 C   0  0  0  0  0  0  0  0  0  0  0  0
    0.5500   -0.9208   -0.5157 N   0  0  0  0  0  0  0  0  0  0  0  0
   -0.3370   -0.0359   -1.2115 C   0  0  0  0  0  0  0  0  0  0  0  0
   -1.1694    0.8176   -0.2760 C   0  0  1  0  0  0  0  0  0  0  0  0
   -2.1837    1.5492   -1.0768 C   0  0  0  0  0  0  0  0  0  0  0  0
   -2.2435    1.4111   -2.3091 O   0  0  0  0  0  0  0  0  0  0  0  0
   -3.0795    2.4002   -0.4416 O   0  0  0  0  0  0  0  0  0  0  0  0
   -1.9321   -0.1067    0.6516 C   0  0  0  0  0  0  0  0  0  0  0  0
   -0.9041   -0.9047    1.4282 C   0  0  1  0  0  0  0  0  0  0  0  0
   -1.4769   -1.6760    2.4080 O   0  0  0  0  0  0  0  0  0  0  0  0
   -0.1529   -1.7589    0.4275 C   0  0  0  0  0  0  0  0  0  0  0  0
    3.3821    1.2126    0.6652 H   0  0  0  0  0  0  0  0  0  0  0  0
    4.4698    0.0235    0.1734 H   0  0  0  0  0  0  0  0  0  0  0  0
    2.3570    0.9806   -1.6184 H   0  0  0  0  0  0  0  0  0  0  0  0
    3.1858   -0.6769   -1.5238 H   0  0  0  0  0  0  0  0  0  0  0  0
    1.4563    0.4920    0.7302 H   0  0  0  0  0  0  0  0  0  0  0  0
    2.2327   -1.0947    0.6525 H   0  0  0  0  0  0  0  0  0  0  0  0
   -1.0845   -0.6976   -1.7443 H   0  0  0  0  0  0  0  0  0  0  0  0
    0.1804    0.5177   -1.9909 H   0  0  0  0  0  0  0  0  0  0  0  0
   -0.5391    1.5250    0.3035 H   0  0  0  0  0  0  0  0  0  0  0  0
   -3.8581    2.8255   -0.9644 H   0  0  0  0  0  0  0  0  0  0  0  0
   -2.5992    0.4680    1.3386 H   0  0  0  0  0  0  0  0  0  0  0  0
   -2.5180   -0.8171    0.0705 H   0  0  0  0  0  0  0  0  0  0  0  0
   -0.1844   -0.1739    1.8495 H   0  0  0  0  0  0  0  0  0  0  0  0
   -1.4975   -1.1674    3.2514 H   0  0  0  0  0  0  0  0  0  0  0  0
   -0.8749   -2.4027   -0.1136 H   0  0  0  0  0  0  0  0  0  0  0  0
    0.5544   -2.4099    0.9566 H   0  0  0  0  0  0  0  0  0  0  0  0
  1  2  1  0
  2  3  1  0
  3  4  1  0
  4  5  1  0
  5  6  1  0
  6  7  1  0
  7  8  2  0
  7  9  1  0
  6 10  1  0
 10 11  1  0
 11 12  1  0
 11 13  1  0
 13  4  1  0
  1 14  1  0
  1 15  1  0
  2 16  1  0
  2 17  1  0
  3 18  1  0
  3 19  1  0
  5 20  1  0
  5 21  1  0
  6 22  1  1
  9 23  1  0
 10 24  1  0
 10 25  1  0
 11 26  1  1
 12 27  1  0
 13 28  1  0
 13 29  1  0
M  END
$$$$

     RDKit          3D

 29 29  0  0  0  0  0  0  0  0999 V2000
    3.2222   -0.4715    1.1190 N   0  0  0  0  0  0  0  0  0  0  0  0
    2.7575   -1.0469   -0.1032 C   0  0  0  0  0  0  0  0  0  0  0  0
    1.8602   -0.1448   -0.9019 C   0  0  0  0  0  0  0  0  0  0  0  0
    0.6589    0.2589   -0.2257 N   0  0  0  0  0  0  0  0  0  0  0  0
   -0.2677   -0.8067   -0.0096 C   0  0  0  0  0  0  0  0  0  0  0  0
   -1.7126   -0.4103    0.0379 C   0  0  1  0  0  0  0  0  0  0  0  0
   -2.4998   -1.2880    0.9180 C   0  0  0  0  0  0  0  0  0  0  0  0
   -3.1110   -0.8432    1.9220 O   0  0  0  0  0  0  0  0  0  0  0  0
   -2.6032   -2.6589    0.6760 O   0  0  0  0  0  0  0  0  0  0  0  0
   -1.7625    0.9960    0.6317 C   0  0  0  0  0  0  0  0  0  0  0  0
   -1.1800    1.8825   -0.4625 C   0  0  1  0  0  0  0  0  0  0  0  0
   -1.1925    3.2217   -0.0937 O   0  0  0  0  0  0  0  0  0  0  0  0
    0.1376    1.3930   -0.9449 C   0  0  0  0  0  0  0  0  0  0  0  0
    2.6394   -0.8544    1.8960 H   0  0  0  0  0  0  0  0  0  0  0  0
    4.2104   -0.7999    1.3425 H   0  0  0  0  0  0  0  0  0  0  0  0
    3.6214   -1.2949   -0.7520 H   0  0  0  0  0  0  0  0  0  0  0  0
    2.2439   -2.0259    0.0770 H   0  0  0  0  0  0  0  0  0  0  0  0
    2.3902    0.7671   -1.2362 H   0  0  0  0  0  0  0  0  0  0  0  0
    1.5656   -0.6903   -1.8262 H   0  0  0  0  0  0  0  0  0  0  0  0
   -0.1847   -1.6043   -0.8059 H   0  0  0  0  0  0  0  0  0  0  0  0
   -0.0320   -1.2620    0.9793 H   0  0  0  0  0  0  0  0  0  0  0  0
   -2.1696   -0.3227   -0.9691 H   0  0  0  0  0  0  0  0  0  0  0  0
   -3.3553   -3.1883    1.1252 H   0  0  0  0  0  0  0  0  0  0  0  0
   -2.8180    1.3223    0.7536 H   0  0  0  0  0  0  0  0  0  0  0  0
   -1.1436    1.1120    1.5234 H   0  0  0  0  0  0  0  0  0  0  0  0
   -1.9089    1.7896   -1.3180 H   0  0  0  0  0  0  0  0  0  0  0  0
   -0.3939    3.6311   -0.4992 H   0  0  0  0  0  0  0  0  0  0  0  0
    0.1453    1.1172   -2.0303 H   0  0  0  0  0  0  0  0  0  0  0  0
    0.8827    2.2217   -0.8234 H   0  0  0  0  0  0  0  0  0  0  0  0
  1  2  1  0
  2  3  1  0
  3  4  1  0
  4  5  1  0
  5  6  1  0
  6  7  1  0
  7  8  2  0
  7  9  1  0
  6 10  1  0
 10 11  1  0
 11 12  1  0
 11 13  1  0
 13  4  1  0
  1 14  1  0
  1 15  1  0
  2 16  1  0
  2 17  1  0
  3 18  1  0
  3 19  1  0
  5 20  1  0
  5 21  1  0
  6 22  1  6
  9 23  1  0
 10 24  1  0
 10 25  1  0
 11 26  1  6
 12 27  1  0
 13 28  1  0
 13 29  1  0
M  END
$$$$

     RDKit          3D

 29 29  0  0  0  0  0  0  0  0999 V2000
    2.9497    1.2175    0.3869 N   0  0  0  0  0  0  0  0  0  0  0  0
    3.0573   -0.1692   -0.0231 C   0  0  0  0  0  0  0  0  0  0  0  0
    1.9035   -1.0187    0.4145 C   0  0  0  0  0  0  0  0  0  0  0  0
    0.6205   -0.5841   -0.0774 N   0  0  0  0  0  0  0  0  0  0  0  0
    0.1900    0.6251    0.4942 C   0  0  0  0  0  0  0  0  0  0  0  0
   -1.2973    0.8110    0.5600 C   0  0  1  0  0  0  0  0  0  0  0  0
   -1.7572    2.1955    0.5851 C   0  0  0  0  0  0  0  0  0  0  0  0
   -0.9906    3.1934    0.5678 O   0  0  0  0  0  0  0  0  0  0  0  0
   -3.1199    2.4404    0.6311 O   0  0  0  0  0  0  0  0  0  0  0  0
   -1.9639    0.1068   -0.6203 C   0  0  0  0  0  0  0  0  0  0  0  0
   -1.6973   -1.3728   -0.3731 C   0  0  1  0  0  0  0  0  0  0  0  0
   -2.2639   -2.1719   -1.3818 O   0  0  0  0  0  0  0  0  0  0  0  0
   -0.2519   -1.6760   -0.1814 C   0  0  0  0  0  0  0  0  0  0  0  0
    3.4598    1.7898   -0.3383 H   0  0  0  0  0  0  0  0  0  0  0  0
    3.4621    1.3825    1.2936 H   0  0  0  0  0  0  0  0  0  0  0  0
    3.9796   -0.5696    0.4926 H   0  0  0  0  0  0  0  0  0  0  0  0
    3.2994   -0.2832   -1.1131 H   0  0  0  0  0  0  0  0  0  0  0  0
    1.9409   -1.0771    1.5322 H   0  0  0  0  0  0  0  0  0  0  0  0
    2.1479   -2.0625    0.0882 H   0  0  0  0  0  0  0  0  0  0  0  0
    0.5697    0.7390    1.5486 H   0  0  0  0  0  0  0  0  0  0  0  0
    0.6044    1.5008   -0.0731 H   0  0  0  0  0  0  0  0  0  0  0  0
   -1.6951    0.2973    1.4604 H   0  0  0  0  0  0  0  0  0  0  0  0
   -3.5663    3.2486    0.2388 H   0  0  0  0  0  0  0  0  0  0  0  0
   -1.5125    0.4169   -1.5835 H   0  0  0  0  0  0  0  0  0  0  0  0
   -3.0444    0.2513   -0.5903 H   0  0  0  0  0  0  0  0  0  0  0  0
   -2.2700   -1.6195    0.5610 H   0  0  0  0  0  0  0  0  0  0  0  0
   -2.6765   -2.9844   -1.0036 H   0  0  0  0  0  0  0  0  0  0  0  0
    0.0662   -2.2658   -1.0989 H   0  0  0  0  0  0  0  0  0  0  0  0
   -0.1441   -2.3611    0.6765 H   0  0  0  0  0  0  0  0  0  0  0  0
  1  2  1  0
  2  3  1  0
  3  4  1  0
  4  5  1  0
  5  6  1  0
  6  7  1  0
  7  8  2  0
  7  9  1  0
  6 10  1  0
 10 11  1  0
 11 12  1  0
 11 13  1  0
 13  4  1  0
  1 14  1  0
  1 15  1  0
  2 16  1  0
  2 17  1  0
  3 18  1  0
  3 19  1  0
  5 20  1  0
  5 21  1  0
  6 22  1  1
  9 23  1  0
 10 24  1  0
 10 25  1  0
 11 26  1  1
 12 27  1  0
 13 28  1  0
 13 29  1  0
M  END
$$$$

     RDKit          3D

 29 29  0  0  0  0  0  0  0  0999 V2000
    4.1782    0.1721   -0.2747 N   0  0  0  0  0  0  0  0  0  0  0  0
    2.8112    0.2946   -0.7679 C   0  0  0  0  0  0  0  0  0  0  0  0
    1.8910   -0.3531    0.2404 C   0  0  0  0  0  0  0  0  0  0  0  0
    0.5423   -0.3020   -0.1033 N   0  0  0  0  0  0  0  0  0  0  0  0
   -0.1612    0.8862   -0.0883 C   0  0  0  0  0  0  0  0  0  0  0  0
   -1.6099    0.7710    0.3256 C   0  0  1  0  0  0  0  0  0  0  0  0
   -2.3821    1.9968    0.0675 C   0  0  0  0  0  0  0  0  0  0  0  0
   -3.3120    1.9825   -0.8180 O   0  0  0  0  0  0  0  0  0  0  0  0
   -2.1657    3.1840    0.7365 O   0  0  0  0  0  0  0  0  0  0  0  0
   -2.2662   -0.4798   -0.2027 C   0  0  0  0  0  0  0  0  0  0  0  0
   -1.4595   -1.6192    0.3776 C   0  0  1  0  0  0  0  0  0  0  0  0
   -1.9937   -2.8532    0.1915 O   0  0  0  0  0  0  0  0  0  0  0  0
   -0.0973   -1.5213   -0.2869 C   0  0  0  0  0  0  0  0  0  0  0  0
    4.2120   -0.6610    0.3512 H   0  0  0  0  0  0  0  0  0  0  0  0
    4.3495    1.0148    0.3147 H   0  0  0  0  0  0  0  0  0  0  0  0
    2.7301   -0.3180   -1.6919 H   0  0  0  0  0  0  0  0  0  0  0  0
    2.4975    1.3292   -0.9559 H   0  0  0  0  0  0  0  0  0  0  0  0
    2.2541   -1.4068    0.3771 H   0  0  0  0  0  0  0  0  0  0  0  0
    2.0561    0.1824    1.2223 H   0  0  0  0  0  0  0  0  0  0  0  0
    0.3013    1.6317    0.5795 H   0  0  0  0  0  0  0  0  0  0  0  0
   -0.1661    1.3463   -1.1147 H   0  0  0  0  0  0  0  0  0  0  0  0
   -1.6041    0.6437    1.4478 H   0  0  0  0  0  0  0  0  0  0  0  0
   -2.5892    4.0861    0.4601 H   0  0  0  0  0  0  0  0  0  0  0  0
   -3.3239   -0.5004    0.1202 H   0  0  0  0  0  0  0  0  0  0  0  0
   -2.1512   -0.5593   -1.3235 H   0  0  0  0  0  0  0  0  0  0  0  0
   -1.2580   -1.4244    1.4734 H   0  0  0  0  0  0  0  0  0  0  0  0
   -1.4672   -3.4799    0.7845 H   0  0  0  0  0  0  0  0  0  0  0  0
   -0.3209   -1.6309   -1.4011 H   0  0  0  0  0  0  0  0  0  0  0  0
    0.5050   -2.4123   -0.0409 H   0  0  0  0  0  0  0  0  0  0  0  0
  1  2  1  0
  2  3  1  0
  3  4  1  0
  4  5  1  0
  5  6  1  0
  6  7  1  0
  7  8  2  0
  7  9  1  0
  6 10  1  0
 10 11  1  0
 11 12  1  0
 11 13  1  0
 13  4  1  0
  1 14  1  0
  1 15  1  0
  2 16  1  0
  2 17  1  0
  3 18  1  0
  3 19  1  0
  5 20  1  0
  5 21  1  0
  6 22  1  1
  9 23  1  0
 10 24  1  0
 10 25  1  0
 11 26  1  1
 12 27  1  0
 13 28  1  0
 13 29  1  0
M  END
$$$$

     RDKit          3D

 29 29  0  0  0  0  0  0  0  0999 V2000
    4.0716    0.5365   -0.2443 N   0  0  0  0  0  0  0  0  0  0  0  0
    2.7970    0.5403    0.4632 C   0  0  0  0  0  0  0  0  0  0  0  0
    1.8789   -0.3752   -0.2835 C   0  0  0  0  0  0  0  0  0  0  0  0
    0.5568   -0.4902    0.2900 N   0  0  0  0  0  0  0  0  0  0  0  0
   -0.1708    0.7297    0.1633 C   0  0  0  0  0  0  0  0  0  0  0  0
   -1.6307    0.6004    0.4328 C   0  0  1  0  0  0  0  0  0  0  0  0
   -2.3506    1.7982   -0.0961 C   0  0  0  0  0  0  0  0  0  0  0  0
   -3.2221    1.6193   -1.0088 O   0  0  0  0  0  0  0  0  0  0  0  0
   -2.1136    3.0858    0.3594 O   0  0  0  0  0  0  0  0  0  0  0  0
   -2.2756   -0.6389   -0.1050 C   0  0  0  0  0  0  0  0  0  0  0  0
   -1.4129   -1.8201    0.2940 C   0  0  1  0  0  0  0  0  0  0  0  0
   -1.9966   -3.0346    0.0360 O   0  0  0  0  0  0  0  0  0  0  0  0
   -0.0776   -1.6180   -0.3943 C   0  0  0  0  0  0  0  0  0  0  0  0
    4.8495    0.2091    0.3631 H   0  0  0  0  0  0  0  0  0  0  0  0
    4.2918    1.4546   -0.6623 H   0  0  0  0  0  0  0  0  0  0  0  0
    2.4001    1.5796    0.5429 H   0  0  0  0  0  0  0  0  0  0  0  0
    2.9825    0.1896    1.4986 H   0  0  0  0  0  0  0  0  0  0  0  0
    1.8399   -0.1076   -1.3524 H   0  0  0  0  0  0  0  0  0  0  0  0
    2.3262   -1.3968   -0.2348 H   0  0  0  0  0  0  0  0  0  0  0  0
    0.2357    1.4189    0.9625 H   0  0  0  0  0  0  0  0  0  0  0  0
    0.0439    1.2854   -0.7901 H   0  0  0  0  0  0  0  0  0  0  0  0
   -1.7716    0.5869    1.5389 H   0  0  0  0  0  0  0  0  0  0  0  0
   -2.6581    3.8957    0.0644 H   0  0  0  0  0  0  0  0  0  0  0  0
   -3.2693   -0.7491    0.3723 H   0  0  0  0  0  0  0  0  0  0  0  0
   -2.3470   -0.6045   -1.2110 H   0  0  0  0  0  0  0  0  0  0  0  0
   -1.2124   -1.6902    1.3906 H   0  0  0  0  0  0  0  0  0  0  0  0
   -2.1310   -3.1377   -0.9353 H   0  0  0  0  0  0  0  0  0  0  0  0
   -0.2199   -1.3806   -1.4762 H   0  0  0  0  0  0  0  0  0  0  0  0
    0.5861   -2.4866   -0.2550 H   0  0  0  0  0  0  0  0  0  0  0  0
  1  2  1  0
  2  3  1  0
  3  4  1  0
  4  5  1  0
  5  6  1  0
  6  7  1  0
  7  8  2  0
  7  9  1  0
  6 10  1  0
 10 11  1  0
 11 12  1  0
 11 13  1  0
 13  4  1  0
  1 14  1  0
  1 15  1  0
  2 16  1  0
  2 17  1  0
  3 18  1  0
  3 19  1  0
  5 20  1  0
  5 21  1  0
  6 22  1  1
  9 23  1  0
 10 24  1  0
 10 25  1  0
 11 26  1  1
 12 27  1  0
 13 28  1  0
 13 29  1  0
M  END
$$$$

     RDKit          3D

 29 29  0  0  0  0  0  0  0  0999 V2000
    4.0834    0.9629   -0.1328 N   0  0  0  0  0  0  0  0  0  0  0  0
    2.7508    0.5056   -0.4861 C   0  0  0  0  0  0  0  0  0  0  0  0
    1.8387    0.4616    0.7249 C   0  0  0  0  0  0  0  0  0  0  0  0
    0.5837    0.0278    0.3677 N   0  0  0  0  0  0  0  0  0  0  0  0
   -0.2891    0.8184   -0.4133 C   0  0  0  0  0  0  0  0  0  0  0  0
   -1.6418    0.7516    0.2683 C   0  0  1  0  0  0  0  0  0  0  0  0
   -2.6507    1.3892   -0.5887 C   0  0  0  0  0  0  0  0  0  0  0  0
   -3.2711    2.3994   -0.1858 O   0  0  0  0  0  0  0  0  0  0  0  0
   -2.9363    0.8933   -1.8467 O   0  0  0  0  0  0  0  0  0  0  0  0
   -2.0676   -0.6435    0.5943 C   0  0  0  0  0  0  0  0  0  0  0  0
   -1.0242   -1.6642    0.7541 C   0  0  1  0  0  0  0  0  0  0  0  0
   -1.4289   -2.8548    0.0980 O   0  0  0  0  0  0  0  0  0  0  0  0
    0.3304   -1.3531    0.1786 C   0  0  0  0  0  0  0  0  0  0  0  0
    4.3983    0.4554    0.7421 H   0  0  0  0  0  0  0  0  0  0  0  0
    4.0140    1.9940    0.0477 H   0  0  0  0  0  0  0  0  0  0  0  0
    2.8692   -0.5363   -0.8608 H   0  0  0  0  0  0  0  0  0  0  0  0
    2.3565    1.1687   -1.2605 H   0  0  0  0  0  0  0  0  0  0  0  0
    1.7728    1.5089    1.1140 H   0  0  0  0  0  0  0  0  0  0  0  0
    2.3281   -0.1350    1.5271 H   0  0  0  0  0  0  0  0  0  0  0  0
    0.0436    1.8370   -0.5230 H   0  0  0  0  0  0  0  0  0  0  0  0
   -0.3934    0.3584   -1.4122 H   0  0  0  0  0  0  0  0  0  0  0  0
   -1.5199    1.3497    1.2113 H   0  0  0  0  0  0  0  0  0  0  0  0
   -3.8623    1.0069   -2.2772 H   0  0  0  0  0  0  0  0  0  0  0  0
   -2.6330   -0.5708    1.5726 H   0  0  0  0  0  0  0  0  0  0  0  0
   -2.8356   -0.9851   -0.1289 H   0  0  0  0  0  0  0  0  0  0  0  0
   -0.9007   -1.9763    1.8338 H   0  0  0  0  0  0  0  0  0  0  0  0
   -1.2199   -3.6442    0.6204 H   0  0  0  0  0  0  0  0  0  0  0  0
    0.2201   -1.4761   -0.9454 H   0  0  0  0  0  0  0  0  0  0  0  0
    1.0850   -2.0493    0.5240 H   0  0  0  0  0  0  0  0  0  0  0  0
  1  2  1  0
  2  3  1  0
  3  4  1  0
  4  5  1  0
  5  6  1  0
  6  7  1  0
  7  8  2  0
  7  9  1  0
  6 10  1  0
 10 11  1  0
 11 12  1  0
 11 13  1  0
 13  4  1  0
  1 14  1  0
  1 15  1  0
  2 16  1  0
  2 17  1  0
  3 18  1  0
  3 19  1  0
  5 20  1  0
  5 21  1  0
  6 22  1  1
  9 23  1  0
 10 24  1  0
 10 25  1  0
 11 26  1  1
 12 27  1  0
 13 28  1  0
 13 29  1  0
M  END
$$$$

     RDKit          3D

 29 29  0  0  0  0  0  0  0  0999 V2000
    3.4222    0.1816   -0.6858 N   0  0  0  0  0  0  0  0  0  0  0  0
    2.8858   -0.9203    0.1155 C   0  0  0  0  0  0  0  0  0  0  0  0
    1.7323   -0.4480    0.9621 C   0  0  0  0  0  0  0  0  0  0  0  0
    0.6876    0.0423    0.0818 N   0  0  0  0  0  0  0  0  0  0  0  0
   -0.2951    0.7948    0.7806 C   0  0  0  0  0  0  0  0  0  0  0  0
   -1.6992    0.7727    0.4177 C   0  0  1  0  0  0  0  0  0  0  0  0
   -2.2344    2.1275    0.1430 C   0  0  0  0  0  0  0  0  0  0  0  0
   -3.1462    2.5910    0.8482 O   0  0  0  0  0  0  0  0  0  0  0  0
   -1.7314    2.8894   -0.8901 O   0  0  0  0  0  0  0  0  0  0  0  0
   -2.0667   -0.2040   -0.7037 C   0  0  0  0  0  0  0  0  0  0  0  0
   -1.2091   -1.4172   -0.3500 C   0  0  1  0  0  0  0  0  0  0  0  0
   -1.6238   -2.5870   -0.9250 O   0  0  0  0  0  0  0  0  0  0  0  0
    0.1838   -0.9749   -0.7917 C   0  0  0  0  0  0  0  0  0  0  0  0
    4.2662    0.5471   -0.1868 H   0  0  0  0  0  0  0  0  0  0  0  0
    2.6985    0.9689   -0.6604 H   0  0  0  0  0  0  0  0  0  0  0  0
    3.7214   -1.2205    0.8196 H   0  0  0  0  0  0  0  0  0  0  0  0
    2.6885   -1.7904   -0.5183 H   0  0  0  0  0  0  0  0  0  0  0  0
    1.3379   -1.2533    1.6164 H   0  0  0  0  0  0  0  0  0  0  0  0
    2.0712    0.4160    1.5744 H   0  0  0  0  0  0  0  0  0  0  0  0
   -0.1698    0.5918    1.8843 H   0  0  0  0  0  0  0  0  0  0  0  0
    0.0578    1.8822    0.7109 H   0  0  0  0  0  0  0  0  0  0  0  0
   -2.2827    0.3393    1.3055 H   0  0  0  0  0  0  0  0  0  0  0  0
   -1.9352    3.8766   -0.9962 H   0  0  0  0  0  0  0  0  0  0  0  0
   -3.1245   -0.4284   -0.7124 H   0  0  0  0  0  0  0  0  0  0  0  0
   -1.7166    0.2077   -1.6749 H   0  0  0  0  0  0  0  0  0  0  0  0
   -1.1343   -1.5280    0.7568 H   0  0  0  0  0  0  0  0  0  0  0  0
   -2.2675   -3.0300   -0.2731 H   0  0  0  0  0  0  0  0  0  0  0  0
    0.8043   -1.8627   -0.8414 H   0  0  0  0  0  0  0  0  0  0  0  0
    0.0795   -0.5642   -1.8069 H   0  0  0  0  0  0  0  0  0  0  0  0
  1  2  1  0
  2  3  1  0
  3  4  1  0
  4  5  1  0
  5  6  1  0
  6  7  1  0
  7  8  2  0
  7  9  1  0
  6 10  1  0
 10 11  1  0
 11 12  1  0
 11 13  1  0
 13  4  1  0
  1 14  1  0
  1 15  1  0
  2 16  1  0
  2 17  1  0
  3 18  1  0
  3 19  1  0
  5 20  1  0
  5 21  1  0
  6 22  1  1
  9 23  1  0
 10 24  1  0
 10 25  1  0
 11 26  1  1
 12 27  1  0
 13 28  1  0
 13 29  1  0
M  END
$$$$

     RDKit          3D

 29 29  0  0  0  0  0  0  0  0999 V2000
    3.2944    0.5595    0.7874 N   0  0  0  0  0  0  0  0  0  0  0  0
    2.9581    0.2213   -0.5812 C   0  0  0  0  0  0  0  0  0  0  0  0
    1.9102   -0.8334   -0.6809 C   0  0  0  0  0  0  0  0  0  0  0  0
    0.6603   -0.4810   -0.0634 N   0  0  0  0  0  0  0  0  0  0  0  0
   -0.0355    0.5857   -0.7513 C   0  0  0  0  0  0  0  0  0  0  0  0
   -1.2287    0.9134    0.1563 C   0  0  1  0  0  0  0  0  0  0  0  0
   -1.8379    2.1970   -0.1689 C   0  0  0  0  0  0  0  0  0  0  0  0
   -1.4498    2.9670   -1.0857 O   0  0  0  0  0  0  0  0  0  0  0  0
   -2.9273    2.6113    0.5822 O   0  0  0  0  0  0  0  0  0  0  0  0
   -2.1409   -0.2754    0.0471 C   0  0  0  0  0  0  0  0  0  0  0  0
   -1.4501   -1.4179    0.7598 C   0  0  1  0  0  0  0  0  0  0  0  0
   -2.2197   -2.5705    0.7744 O   0  0  0  0  0  0  0  0  0  0  0  0
   -0.1382   -1.6655    0.0650 C   0  0  0  0  0  0  0  0  0  0  0  0
    3.9263    1.4071    0.7962 H   0  0  0  0  0  0  0  0  0  0  0  0
    2.3888    0.8236    1.2738 H   0  0  0  0  0  0  0  0  0  0  0  0
    2.6739    1.0920   -1.1723 H   0  0  0  0  0  0  0  0  0  0  0  0
    3.8897   -0.2020   -1.0339 H   0  0  0  0  0  0  0  0  0  0  0  0
    2.2893   -1.7301   -0.1105 H   0  0  0  0  0  0  0  0  0  0  0  0
    1.8067   -1.1297   -1.7299 H   0  0  0  0  0  0  0  0  0  0  0  0
   -0.4047    0.2373   -1.7383 H   0  0  0  0  0  0  0  0  0  0  0  0
    0.6348    1.4366   -0.8233 H   0  0  0  0  0  0  0  0  0  0  0  0
   -0.8122    0.9211    1.1969 H   0  0  0  0  0  0  0  0  0  0  0  0
   -3.1399    3.5878    0.7838 H   0  0  0  0  0  0  0  0  0  0  0  0
   -2.2112   -0.5862   -1.0346 H   0  0  0  0  0  0  0  0  0  0  0  0
   -3.1587   -0.0903    0.4430 H   0  0  0  0  0  0  0  0  0  0  0  0
   -1.2117   -1.0905    1.8010 H   0  0  0  0  0  0  0  0  0  0  0  0
   -2.1591   -2.9570    1.6782 H   0  0  0  0  0  0  0  0  0  0  0  0
    0.4410   -2.3648    0.7335 H   0  0  0  0  0  0  0  0  0  0  0  0
   -0.3481   -2.1664   -0.9042 H   0  0  0  0  0  0  0  0  0  0  0  0
  1  2  1  0
  2  3  1  0
  3  4  1  0
  4  5  1  0
  5  6  1  0
  6  7  1  0
  7  8  2  0
  7  9  1  0
  6 10  1  0
 10 11  1  0
 11 12  1  0
 11 13  1  0
 13  4  1  0
  1 14  1  0
  1 15  1  0
  2 16  1  0
  2 17  1  0
  3 18  1  0
  3 19  1  0
  5 20  1  0
  5 21  1  0
  6 22  1  1
  9 23  1  0
 10 24  1  0
 10 25  1  0
 11 26  1  1
 12 27  1  0
 13 28  1  0
 13 29  1  0
M  END
$$$$
