
     RDKit          3D

 24 24  0  0  0  0  0  0  0  0999 V2000
   -1.3999   -1.9446    0.7770 C   0  0  0  0  0  0  0  0  0  0  0  0
   -0.6806   -0.8622    1.0717 O   0  0  0  0  0  0  0  0  0  0  0  0
   -0.4692    0.1389    0.2291 C   0  0  1  0  0  0  0  0  0  0  0  0
   -1.7235    0.8434   -0.2563 C   0  0  0  0  0  0  0  0  0  0  0  0
   -2.5652   -0.0398   -0.9291 O   0  0  0  0  0  0  0  0  0  0  0  0
    0.3072    1.2108    1.0199 C   0  0  0  0  0  0  0  0  0  0  0  0
    1.7334    0.7505    0.8016 C   0  0  0  0  0  0  0  0  0  0  0  0
    1.7426    0.4292   -0.5917 N   0  0  0  0  0  0  0  0  0  0  0  0
    2.7430   -0.4860   -0.9246 N   0  0  0  0  0  0  0  0  0  0  0  0
    0.4203   -0.0599   -0.9412 C   0  0  0  0  0  0  0  0  0  0  0  0
   -1.3965   -2.6190    1.6890 H   0  0  0  0  0  0  0  0  0  0  0  0
   -1.0708   -2.5797   -0.0502 H   0  0  0  0  0  0  0  0  0  0  0  0
   -2.5054   -1.7649    0.6289 H   0  0  0  0  0  0  0  0  0  0  0  0
   -1.4838    1.6526   -0.9791 H   0  0  0  0  0  0  0  0  0  0  0  0
   -2.2750    1.3160    0.5814 H   0  0  0  0  0  0  0  0  0  0  0  0
   -3.0465    0.3703   -1.6752 H   0  0  0  0  0  0  0  0  0  0  0  0
    0.0158    1.1823    2.0908 H   0  0  0  0  0  0  0  0  0  0  0  0
    0.1556    2.1904    0.5466 H   0  0  0  0  0  0  0  0  0  0  0  0
    1.9670   -0.1252    1.4434 H   0  0  0  0  0  0  0  0  0  0  0  0
    2.3889    1.6152    0.9994 H   0  0  0  0  0  0  0  0  0  0  0  0
    2.8994   -0.5299   -1.9396 H   0  0  0  0  0  0  0  0  0  0  0  0
    3.6234   -0.1533   -0.4715 H   0  0  0  0  0  0  0  0  0  0  0  0
    0.0961    0.5507   -1.8237 H   0  0  0  0  0  0  0  0  0  0  0  0
    0.5238   -1.0860   -1.2968 H   0  0  0  0  0  0  0  0  0  0  0  0
  1  2  1  0
  3  2  1  1
  3  4  1  0
  4  5  1  0
  3  6  1  0
  6  7  1  0
  7  8  1  0
  8  9  1  0
  8 10  1  0
 10  3  1  0
  1 11  1  0
  1 12  1  0
  1 13  1  0
  4 14  1  0
  4 15  1  0
  5 16  1  0
  6 17  1  0
  6 18  1  0
  7 19  1  0
  7 20  1  0
  9 21  1  0
  9 22  1  0
 10 23  1  0
 10 24  1  0
M  END
$$$$

     RDKit          3D

 24 24  0  0  0  0  0  0  0  0999 V2000
   -1.3558   -1.7852   -0.7478 C   0  0  0  0  0  0  0  0  0  0  0  0
   -1.6893   -0.4729   -0.5313 O   0  0  0  0  0  0  0  0  0  0  0  0
   -0.6898    0.3229   -0.0550 C   0  0  1  0  0  0  0  0  0  0  0  0
   -1.2603    1.7293    0.1157 C   0  0  0  0  0  0  0  0  0  0  0  0
   -2.3356    1.7175    1.0215 O   0  0  0  0  0  0  0  0  0  0  0  0
   -0.0922   -0.1112    1.2398 C   0  0  0  0  0  0  0  0  0  0  0  0
    1.3935   -0.3395    0.9444 C   0  0  0  0  0  0  0  0  0  0  0  0
    1.3930   -0.6043   -0.4769 N   0  0  0  0  0  0  0  0  0  0  0  0
    2.6403   -0.5222   -1.0559 N   0  0  0  0  0  0  0  0  0  0  0  0
    0.5027    0.4353   -0.9690 C   0  0  0  0  0  0  0  0  0  0  0  0
   -2.2630   -2.3048   -1.1317 H   0  0  0  0  0  0  0  0  0  0  0  0
   -0.5573   -1.9418   -1.4871 H   0  0  0  0  0  0  0  0  0  0  0  0
   -1.0596   -2.3346    0.1684 H   0  0  0  0  0  0  0  0  0  0  0  0
   -0.4948    2.4054    0.5866 H   0  0  0  0  0  0  0  0  0  0  0  0
   -1.5996    2.1397   -0.8511 H   0  0  0  0  0  0  0  0  0  0  0  0
   -3.2110    1.8575    0.5429 H   0  0  0  0  0  0  0  0  0  0  0  0
   -0.1190    0.6878    2.0251 H   0  0  0  0  0  0  0  0  0  0  0  0
   -0.5640   -0.9992    1.6878 H   0  0  0  0  0  0  0  0  0  0  0  0
    1.9452    0.6165    1.1056 H   0  0  0  0  0  0  0  0  0  0  0  0
    1.8127   -1.1504    1.5457 H   0  0  0  0  0  0  0  0  0  0  0  0
    3.1761    0.3281   -0.8360 H   0  0  0  0  0  0  0  0  0  0  0  0
    3.1678   -1.4008   -1.0403 H   0  0  0  0  0  0  0  0  0  0  0  0
    0.9962    1.4051   -0.7356 H   0  0  0  0  0  0  0  0  0  0  0  0
    0.2640    0.3217   -2.0307 H   0  0  0  0  0  0  0  0  0  0  0  0
  1  2  1  0
  3  2  1  6
  3  4  1  0
  4  5  1  0
  3  6  1  0
  6  7  1  0
  7  8  1  0
  8  9  1  0
  8 10  1  0
 10  3  1  0
  1 11  1  0
  1 12  1  0
  1 13  1  0
  4 14  1  0
  4 15  1  0
  5 16  1  0
  6 17  1  0
  6 18  1  0
  7 19  1  0
  7 20  1  0
  9 21  1  0
  9 22  1  0
 10 23  1  0
 10 24  1  0
M  END
$$$$

     RDKit          3D

 24 24  0  0  0  0  0  0  0  0999 V2000
   -2.6158   -0.7386   -0.4087 C   0  0  0  0  0  0  0  0  0  0  0  0
   -1.5656   -0.2778   -1.1383 O   0  0  0  0  0  0  0  0  0  0  0  0
   -0.4559   -0.0215   -0.3934 C   0  0  1  0  0  0  0  0  0  0  0  0
   -0.7168    1.0192    0.6352 C   0  0  0  0  0  0  0  0  0  0  0  0
   -1.1241    2.1842   -0.0458 O   0  0  0  0  0  0  0  0  0  0  0  0
    0.0608   -1.3201    0.1829 C   0  0  0  0  0  0  0  0  0  0  0  0
    1.5051   -0.9529    0.4595 C   0  0  0  0  0  0  0  0  0  0  0  0
    1.8763   -0.3338   -0.7939 N   0  0  0  0  0  0  0  0  0  0  0  0
    3.0113    0.4478   -0.6164 N   0  0  0  0  0  0  0  0  0  0  0  0
    0.7344    0.3988   -1.2491 C   0  0  0  0  0  0  0  0  0  0  0  0
   -3.0197   -0.1076    0.3758 H   0  0  0  0  0  0  0  0  0  0  0  0
   -2.3369   -1.7080    0.1039 H   0  0  0  0  0  0  0  0  0  0  0  0
   -3.4884   -1.0027   -1.0664 H   0  0  0  0  0  0  0  0  0  0  0  0
   -1.5292    0.7871    1.3453 H   0  0  0  0  0  0  0  0  0  0  0  0
    0.1978    1.3100    1.2045 H   0  0  0  0  0  0  0  0  0  0  0  0
   -1.4481    2.8779    0.5917 H   0  0  0  0  0  0  0  0  0  0  0  0
   -0.4811   -1.6596    1.0675 H   0  0  0  0  0  0  0  0  0  0  0  0
    0.0522   -2.0580   -0.6524 H   0  0  0  0  0  0  0  0  0  0  0  0
    2.0757   -1.8788    0.6622 H   0  0  0  0  0  0  0  0  0  0  0  0
    1.5050   -0.2519    1.3099 H   0  0  0  0  0  0  0  0  0  0  0  0
    3.4914    0.1210    0.2727 H   0  0  0  0  0  0  0  0  0  0  0  0
    2.8326    1.4606   -0.5695 H   0  0  0  0  0  0  0  0  0  0  0  0
    0.9129    1.4764   -1.1208 H   0  0  0  0  0  0  0  0  0  0  0  0
    0.5262    0.2282   -2.3236 H   0  0  0  0  0  0  0  0  0  0  0  0
  1  2  1  0
  3  2  1  6
  3  4  1  0
  4  5  1  0
  3  6  1  0
  6  7  1  0
  7  8  1  0
  8  9  1  0
  8 10  1  0
 10  3  1  0
  1 11  1  0
  1 12  1  0
  1 13  1  0
  4 14  1  0
  4 15  1  0
  5 16  1  0
  6 17  1  0
  6 18  1  0
  7 19  1  0
  7 20  1  0
  9 21  1  0
  9 22  1  0
 10 23  1  0
 10 24  1  0
M  END
$$$$

     RDKit          3D

 24 24  0  0  0  0  0  0  0  0999 V2000
   -1.7249   -0.7537    1.6336 C   0  0  0  0  0  0  0  0  0  0  0  0
   -0.6237    0.0108    1.4021 O   0  0  0  0  0  0  0  0  0  0  0  0
   -0.2819    0.1366    0.0801 C   0  0  1  0  0  0  0  0  0  0  0  0
   -1.3856    0.7648   -0.6985 C   0  0  0  0  0  0  0  0  0  0  0  0
   -1.6259    2.0323   -0.1321 O   0  0  0  0  0  0  0  0  0  0  0  0
    0.9346    1.0266   -0.0906 C   0  0  0  0  0  0  0  0  0  0  0  0
    1.7083    0.2812   -1.1764 C   0  0  0  0  0  0  0  0  0  0  0  0
    1.5826   -1.0747   -0.7074 N   0  0  0  0  0  0  0  0  0  0  0  0
    2.3465   -1.2045    0.4538 N   0  0  0  0  0  0  0  0  0  0  0  0
    0.1603   -1.1956   -0.4554 C   0  0  0  0  0  0  0  0  0  0  0  0
   -1.8801   -0.7790    2.7581 H   0  0  0  0  0  0  0  0  0  0  0  0
   -2.6736   -0.3541    1.1687 H   0  0  0  0  0  0  0  0  0  0  0  0
   -1.6717   -1.8069    1.3247 H   0  0  0  0  0  0  0  0  0  0  0  0
   -1.0593    1.0002   -1.7598 H   0  0  0  0  0  0  0  0  0  0  0  0
   -2.3382    0.2344   -0.7141 H   0  0  0  0  0  0  0  0  0  0  0  0
   -2.4731    2.4287   -0.4758 H   0  0  0  0  0  0  0  0  0  0  0  0
    1.5248    1.1427    0.8164 H   0  0  0  0  0  0  0  0  0  0  0  0
    0.6887    2.0179   -0.5004 H   0  0  0  0  0  0  0  0  0  0  0  0
    2.7564    0.6278   -1.2043 H   0  0  0  0  0  0  0  0  0  0  0  0
    1.2329    0.3986   -2.1534 H   0  0  0  0  0  0  0  0  0  0  0  0
    3.2184   -0.6235    0.3090 H   0  0  0  0  0  0  0  0  0  0  0  0
    1.8790   -0.8088    1.2937 H   0  0  0  0  0  0  0  0  0  0  0  0
    0.0293   -2.0375    0.2413 H   0  0  0  0  0  0  0  0  0  0  0  0
   -0.3239   -1.4644   -1.4131 H   0  0  0  0  0  0  0  0  0  0  0  0
  1  2  1  0
  3  2  1  1
  3  4  1  0
  4  5  1  0
  3  6  1  0
  6  7  1  0
  7  8  1  0
  8  9  1  0
  8 10  1  0
 10  3  1  0
  1 11  1  0
  1 12  1  0
  1 13  1  0
  4 14  1  0
  4 15  1  0
  5 16  1  0
  6 17  1  0
  6 18  1  0
  7 19  1  0
  7 20  1  0
  9 21  1  0
  9 22  1  0
 10 23  1  0
 10 24  1  0
M  END
$$$$

     RDKit          3D

 24 24  0  0  0  0  0  0  0  0999 V2000
    2.1027   -0.8550   -1.0163 C   0  0  0  0  0  0  0  0  0  0  0  0
    0.9483   -0.1906   -1.2953 O   0  0  0  0  0  0  0  0  0  0  0  0
    0.2711    0.2927   -0.2330 C   0  0  1  0  0  0  0  0  0  0  0  0
    1.0069    1.2821    0.5911 C   0  0  0  0  0  0  0  0  0  0  0  0
    2.1569    0.8131    1.2017 O   0  0  0  0  0  0  0  0  0  0  0  0
   -1.0446    0.9645   -0.6479 C   0  0  0  0  0  0  0  0  0  0  0  0
   -1.9301    0.6525    0.5136 C   0  0  0  0  0  0  0  0  0  0  0  0
   -1.6471   -0.7253    0.7717 N   0  0  0  0  0  0  0  0  0  0  0  0
   -2.4067   -1.5412   -0.0709 N   0  0  0  0  0  0  0  0  0  0  0  0
   -0.2378   -0.8822    0.5852 C   0  0  0  0  0  0  0  0  0  0  0  0
    2.9109   -0.3067   -0.5327 H   0  0  0  0  0  0  0  0  0  0  0  0
    1.8965   -1.7294   -0.3180 H   0  0  0  0  0  0  0  0  0  0  0  0
    2.5165   -1.3649   -1.9368 H   0  0  0  0  0  0  0  0  0  0  0  0
    0.3542    1.8275    1.3179 H   0  0  0  0  0  0  0  0  0  0  0  0
    1.3687    2.1145   -0.0894 H   0  0  0  0  0  0  0  0  0  0  0  0
    2.8460    1.4967    1.2651 H   0  0  0  0  0  0  0  0  0  0  0  0
   -0.8791    2.0673   -0.7084 H   0  0  0  0  0  0  0  0  0  0  0  0
   -1.4065    0.6033   -1.6102 H   0  0  0  0  0  0  0  0  0  0  0  0
   -1.5772    1.2338    1.3950 H   0  0  0  0  0  0  0  0  0  0  0  0
   -3.0064    0.8468    0.3084 H   0  0  0  0  0  0  0  0  0  0  0  0
   -2.3104   -1.2760   -1.0760 H   0  0  0  0  0  0  0  0  0  0  0  0
   -2.0814   -2.5339   -0.0076 H   0  0  0  0  0  0  0  0  0  0  0  0
    0.2469   -0.9385    1.5717 H   0  0  0  0  0  0  0  0  0  0  0  0
   -0.0983   -1.8514    0.0211 H   0  0  0  0  0  0  0  0  0  0  0  0
  1  2  1  0
  3  2  1  6
  3  4  1  0
  4  5  1  0
  3  6  1  0
  6  7  1  0
  7  8  1  0
  8  9  1  0
  8 10  1  0
 10  3  1  0
  1 11  1  0
  1 12  1  0
  1 13  1  0
  4 14  1  0
  4 15  1  0
  5 16  1  0
  6 17  1  0
  6 18  1  0
  7 19  1  0
  7 20  1  0
  9 21  1  0
  9 22  1  0
 10 23  1  0
 10 24  1  0
M  END
$$$$

     RDKit          3D

 24 24  0  0  0  0  0  0  0  0999 V2000
   -2.2959    1.4957   -0.2985 C   0  0  0  0  0  0  0  0  0  0  0  0
   -1.2103    1.2015    0.4575 O   0  0  0  0  0  0  0  0  0  0  0  0
   -0.4593    0.1163    0.1704 C   0  0  1  0  0  0  0  0  0  0  0  0
   -1.2272   -1.1601    0.2467 C   0  0  0  0  0  0  0  0  0  0  0  0
   -2.2840   -1.2498   -0.6333 O   0  0  0  0  0  0  0  0  0  0  0  0
    0.2717    0.2053   -1.1540 C   0  0  0  0  0  0  0  0  0  0  0  0
    1.6877   -0.1607   -0.7638 C   0  0  0  0  0  0  0  0  0  0  0  0
    1.8061    0.5024    0.5171 N   0  0  0  0  0  0  0  0  0  0  0  0
    3.0051    0.2862    1.1484 N   0  0  0  0  0  0  0  0  0  0  0  0
    0.6627    0.0188    1.2181 C   0  0  0  0  0  0  0  0  0  0  0  0
   -2.7231    2.4582    0.1387 H   0  0  0  0  0  0  0  0  0  0  0  0
   -3.1613    0.8010   -0.2231 H   0  0  0  0  0  0  0  0  0  0  0  0
   -2.0410    1.7339   -1.3512 H   0  0  0  0  0  0  0  0  0  0  0  0
   -0.5737   -2.0418    0.0473 H   0  0  0  0  0  0  0  0  0  0  0  0
   -1.6526   -1.3140    1.2686 H   0  0  0  0  0  0  0  0  0  0  0  0
   -2.4401   -2.1922   -0.9352 H   0  0  0  0  0  0  0  0  0  0  0  0
    0.2643    1.2152   -1.5853 H   0  0  0  0  0  0  0  0  0  0  0  0
   -0.1145   -0.5786   -1.8270 H   0  0  0  0  0  0  0  0  0  0  0  0
    2.4115    0.2327   -1.5068 H   0  0  0  0  0  0  0  0  0  0  0  0
    1.8370   -1.2510   -0.7102 H   0  0  0  0  0  0  0  0  0  0  0  0
    3.2337   -0.6842    1.3788 H   0  0  0  0  0  0  0  0  0  0  0  0
    3.7466    0.8160    0.6473 H   0  0  0  0  0  0  0  0  0  0  0  0
    0.4218    0.5993    2.1173 H   0  0  0  0  0  0  0  0  0  0  0  0
    0.8349   -1.0503    1.5070 H   0  0  0  0  0  0  0  0  0  0  0  0
  1  2  1  0
  3  2  1  1
  3  4  1  0
  4  5  1  0
  3  6  1  0
  6  7  1  0
  7  8  1  0
  8  9  1  0
  8 10  1  0
 10  3  1  0
  1 11  1  0
  1 12  1  0
  1 13  1  0
  4 14  1  0
  4 15  1  0
  5 16  1  0
  6 17  1  0
  6 18  1  0
  7 19  1  0
  7 20  1  0
  9 21  1  0
  9 22  1  0
 10 23  1  0
 10 24  1  0
M  END
$$$$

     RDKit          3D

 24 24  0  0  0  0  0  0  0  0999 V2000
   -2.1389   -0.7842    1.1232 C   0  0  0  0  0  0  0  0  0  0  0  0
   -1.2388    0.2263    0.8814 O   0  0  0  0  0  0  0  0  0  0  0  0
   -0.4843    0.0808   -0.2447 C   0  0  1  0  0  0  0  0  0  0  0  0
   -1.2455    0.0027   -1.5230 C   0  0  0  0  0  0  0  0  0  0  0  0
   -1.9786    1.1685   -1.6860 O   0  0  0  0  0  0  0  0  0  0  0  0
    0.4271    1.3114   -0.3353 C   0  0  0  0  0  0  0  0  0  0  0  0
    1.4195    0.9564    0.7814 C   0  0  0  0  0  0  0  0  0  0  0  0
    1.6256   -0.4673    0.6858 N   0  0  0  0  0  0  0  0  0  0  0  0
    2.8925   -0.8040    0.2352 N   0  0  0  0  0  0  0  0  0  0  0  0
    0.5684   -1.0121   -0.1223 C   0  0  0  0  0  0  0  0  0  0  0  0
   -2.6769   -0.5237    2.0718 H   0  0  0  0  0  0  0  0  0  0  0  0
   -2.8918   -0.9243    0.3496 H   0  0  0  0  0  0  0  0  0  0  0  0
   -1.6475   -1.7650    1.3321 H   0  0  0  0  0  0  0  0  0  0  0  0
   -0.5032   -0.0416   -2.3557 H   0  0  0  0  0  0  0  0  0  0  0  0
   -1.9250   -0.8607   -1.5921 H   0  0  0  0  0  0  0  0  0  0  0  0
   -2.1278    1.5681   -0.7949 H   0  0  0  0  0  0  0  0  0  0  0  0
   -0.1635    2.2134   -0.0749 H   0  0  0  0  0  0  0  0  0  0  0  0
    0.9336    1.3683   -1.3043 H   0  0  0  0  0  0  0  0  0  0  0  0
    2.3303    1.5513    0.7248 H   0  0  0  0  0  0  0  0  0  0  0  0
    0.8714    1.1638    1.7273 H   0  0  0  0  0  0  0  0  0  0  0  0
    3.4489    0.0162   -0.0832 H   0  0  0  0  0  0  0  0  0  0  0  0
    3.3837   -1.3164    1.0262 H   0  0  0  0  0  0  0  0  0  0  0  0
    0.1542   -1.9150    0.3246 H   0  0  0  0  0  0  0  0  0  0  0  0
    0.9663   -1.2130   -1.1470 H   0  0  0  0  0  0  0  0  0  0  0  0
  1  2  1  0
  3  2  1  1
  3  4  1  0
  4  5  1  0
  3  6  1  0
  6  7  1  0
  7  8  1  0
  8  9  1  0
  8 10  1  0
 10  3  1  0
  1 11  1  0
  1 12  1  0
  1 13  1  0
  4 14  1  0
  4 15  1  0
  5 16  1  0
  6 17  1  0
  6 18  1  0
  7 19  1  0
  7 20  1  0
  9 21  1  0
  9 22  1  0
 10 23  1  0
 10 24  1  0
M  END
$$$$

     RDKit          3D

 24 24  0  0  0  0  0  0  0  0999 V2000
   -1.8540    1.6146   -0.9167 C   0  0  0  0  0  0  0  0  0  0  0  0
   -1.3643    0.3610   -1.2513 O   0  0  0  0  0  0  0  0  0  0  0  0
   -0.5286   -0.1252   -0.2867 C   0  0  1  0  0  0  0  0  0  0  0  0
   -1.1545   -0.2915    1.0735 C   0  0  0  0  0  0  0  0  0  0  0  0
   -2.2232   -1.1901    0.9285 O   0  0  0  0  0  0  0  0  0  0  0  0
    0.0859   -1.4644   -0.6548 C   0  0  0  0  0  0  0  0  0  0  0  0
    1.5368   -1.3843   -0.1809 C   0  0  0  0  0  0  0  0  0  0  0  0
    1.5287   -0.2161    0.6717 N   0  0  0  0  0  0  0  0  0  0  0  0
    2.7740    0.2634    0.9868 N   0  0  0  0  0  0  0  0  0  0  0  0
    0.7525    0.7131   -0.1606 C   0  0  0  0  0  0  0  0  0  0  0  0
   -2.5220    1.9107   -1.7808 H   0  0  0  0  0  0  0  0  0  0  0  0
   -2.4478    1.5819    0.0217 H   0  0  0  0  0  0  0  0  0  0  0  0
   -1.0188    2.3264   -0.8422 H   0  0  0  0  0  0  0  0  0  0  0  0
   -0.3913   -0.8196    1.7204 H   0  0  0  0  0  0  0  0  0  0  0  0
   -1.5018    0.6256    1.5432 H   0  0  0  0  0  0  0  0  0  0  0  0
   -2.9496   -0.7575    0.4059 H   0  0  0  0  0  0  0  0  0  0  0  0
    0.0608   -1.5929   -1.7625 H   0  0  0  0  0  0  0  0  0  0  0  0
   -0.4416   -2.3123   -0.1412 H   0  0  0  0  0  0  0  0  0  0  0  0
    2.2197   -1.1355   -1.0411 H   0  0  0  0  0  0  0  0  0  0  0  0
    1.8709   -2.2929    0.3164 H   0  0  0  0  0  0  0  0  0  0  0  0
    3.0672    0.9839    0.2764 H   0  0  0  0  0  0  0  0  0  0  0  0
    2.6922    0.8043    1.8964 H   0  0  0  0  0  0  0  0  0  0  0  0
    1.2269    0.7308   -1.1412 H   0  0  0  0  0  0  0  0  0  0  0  0
    0.5817    1.6665    0.3190 H   0  0  0  0  0  0  0  0  0  0  0  0
  1  2  1  0
  3  2  1  6
  3  4  1  0
  4  5  1  0
  3  6  1  0
  6  7  1  0
  7  8  1  0
  8  9  1  0
  8 10  1  0
 10  3  1  0
  1 11  1  0
  1 12  1  0
  1 13  1  0
  4 14  1  0
  4 15  1  0
  5 16  1  0
  6 17  1  0
  6 18  1  0
  7 19  1  0
  7 20  1  0
  9 21  1  0
  9 22  1  0
 10 23  1  0
 10 24  1  0
M  END
$$$$
