
     RDKit          3D

 30 29  0  0  0  0  0  0  0  0999 V2000
    4.3948   -0.5264    0.2419 C   0  0  0  0  0  0  0  0  0  0  0  0
    3.6488    0.5220    1.0523 C   0  0  0  0  0  0  0  0  0  0  0  0
    2.2527    0.4031    0.6773 N   0  0  0  0  0  0  0  0  0  0  0  0
    1.7916    0.5915   -0.6396 C   0  0  0  0  0  0  0  0  0  0  0  0
    2.6139    0.8784   -1.5428 O   0  0  0  0  0  0  0  0  0  0  0  0
    0.3305    0.4549   -0.9833 C   0  0  0  0  0  0  0  0  0  0  0  0
   -0.4405    0.1282    0.1737 N   0  0  0  0  0  0  0  0  0  0  0  0
   -1.8364   -0.0067   -0.0898 C   0  0  0  0  0  0  0  0  0  0  0  0
   -2.0638   -1.1463   -1.0635 C   0  0  0  0  0  0  0  0  0  0  0  0
   -2.4372    1.2751   -0.5436 C   0  0  0  0  0  0  0  0  0  0  0  0
   -2.5401   -0.4222    1.1801 C   0  0  0  0  0  0  0  0  0  0  0  0
   -3.9351   -0.5993    1.0946 N   0  0  0  0  0  0  0  0  0  0  0  0
   -1.9117   -0.5979    2.2472 O   0  0  0  0  0  0  0  0  0  0  0  0
    4.5318   -1.4058    0.9013 H   0  0  0  0  0  0  0  0  0  0  0  0
    5.3413   -0.0730   -0.0784 H   0  0  0  0  0  0  0  0  0  0  0  0
    3.7889   -0.8984   -0.6157 H   0  0  0  0  0  0  0  0  0  0  0  0
    4.0425    1.5421    0.8442 H   0  0  0  0  0  0  0  0  0  0  0  0
    3.7591    0.2732    2.1268 H   0  0  0  0  0  0  0  0  0  0  0  0
    1.5596    0.1706    1.4025 H   0  0  0  0  0  0  0  0  0  0  0  0
    0.3022   -0.4214   -1.6883 H   0  0  0  0  0  0  0  0  0  0  0  0
    0.0595    1.3998   -1.4740 H   0  0  0  0  0  0  0  0  0  0  0  0
   -0.0973   -0.7357    0.6476 H   0  0  0  0  0  0  0  0  0  0  0  0
   -3.1442   -1.3448   -1.2182 H   0  0  0  0  0  0  0  0  0  0  0  0
   -1.6245   -2.0538   -0.6014 H   0  0  0  0  0  0  0  0  0  0  0  0
   -1.6098   -1.0073   -2.0420 H   0  0  0  0  0  0  0  0  0  0  0  0
   -3.0792    1.6886    0.2601 H   0  0  0  0  0  0  0  0  0  0  0  0
   -1.6972    2.0868   -0.7582 H   0  0  0  0  0  0  0  0  0  0  0  0
   -3.1186    1.1542   -1.4241 H   0  0  0  0  0  0  0  0  0  0  0  0
   -4.5628   -0.0049    1.6509 H   0  0  0  0  0  0  0  0  0  0  0  0
   -4.3187   -1.3246    0.4739 H   0  0  0  0  0  0  0  0  0  0  0  0
  1  2  1  0
  2  3  1  0
  3  4  1  0
  4  5  2  0
  4  6  1  0
  6  7  1  0
  7  8  1  0
  8  9  1  0
  8 10  1  0
  8 11  1  0
 11 12  1  0
 11 13  2  0
  1 14  1  0
  1 15  1  0
  1 16  1  0
  2 17  1  0
  2 18  1  0
  3 19  1  0
  6 20  1  0
  6 21  1  0
  7 22  1  0
  9 23  1  0
  9 24  1  0
  9 25  1  0
 10 26  1  0
 10 27  1  0
 10 28  1  0
 12 29  1  0
 12 30  1  0
M  END
$$$$

     RDKit          3D

 30 29  0  0  0  0  0  0  0  0999 V2000
    5.1136    0.4068   -0.0182 C   0  0  0  0  0  0  0  0  0  0  0  0
    3.9297   -0.0364    0.8500 C   0  0  0  0  0  0  0  0  0  0  0  0
    2.7212    0.2488    0.1122 N   0  0  0  0  0  0  0  0  0  0  0  0
    1.4334   -0.0343    0.6869 C   0  0  0  0  0  0  0  0  0  0  0  0
    1.4283   -0.5209    1.8514 O   0  0  0  0  0  0  0  0  0  0  0  0
    0.1808    0.2387   -0.0858 C   0  0  0  0  0  0  0  0  0  0  0  0
   -0.9332   -0.1263    0.7059 N   0  0  0  0  0  0  0  0  0  0  0  0
   -2.2109   -0.1637    0.1036 C   0  0  0  0  0  0  0  0  0  0  0  0
   -3.2379    0.0554    1.2210 C   0  0  0  0  0  0  0  0  0  0  0  0
   -2.5381   -1.5006   -0.5243 C   0  0  0  0  0  0  0  0  0  0  0  0
   -2.3895    0.9112   -0.8738 C   0  0  0  0  0  0  0  0  0  0  0  0
   -3.0734    0.6319   -2.1047 N   0  0  0  0  0  0  0  0  0  0  0  0
   -1.9582    2.0628   -0.6652 O   0  0  0  0  0  0  0  0  0  0  0  0
    5.5618    1.2975    0.4275 H   0  0  0  0  0  0  0  0  0  0  0  0
    5.8562   -0.4257   -0.0189 H   0  0  0  0  0  0  0  0  0  0  0  0
    4.7762    0.6798   -1.0350 H   0  0  0  0  0  0  0  0  0  0  0  0
    3.9540   -1.1529    0.9710 H   0  0  0  0  0  0  0  0  0  0  0  0
    3.9384    0.4370    1.8319 H   0  0  0  0  0  0  0  0  0  0  0  0
    2.7558    0.6610   -0.8249 H   0  0  0  0  0  0  0  0  0  0  0  0
    0.2047   -0.2454   -1.0892 H   0  0  0  0  0  0  0  0  0  0  0  0
    0.1293    1.3315   -0.2945 H   0  0  0  0  0  0  0  0  0  0  0  0
   -0.7849   -0.6200    1.5783 H   0  0  0  0  0  0  0  0  0  0  0  0
   -3.2149   -0.8323    1.8749 H   0  0  0  0  0  0  0  0  0  0  0  0
   -2.9142    0.9176    1.8367 H   0  0  0  0  0  0  0  0  0  0  0  0
   -4.2440    0.2309    0.7817 H   0  0  0  0  0  0  0  0  0  0  0  0
   -1.8275   -2.2864   -0.1700 H   0  0  0  0  0  0  0  0  0  0  0  0
   -2.4454   -1.4476   -1.6277 H   0  0  0  0  0  0  0  0  0  0  0  0
   -3.5826   -1.7640   -0.3081 H   0  0  0  0  0  0  0  0  0  0  0  0
   -2.5196    0.4377   -2.9905 H   0  0  0  0  0  0  0  0  0  0  0  0
   -4.1093    0.6077   -2.2021 H   0  0  0  0  0  0  0  0  0  0  0  0
  1  2  1  0
  2  3  1  0
  3  4  1  0
  4  5  2  0
  4  6  1  0
  6  7  1  0
  7  8  1  0
  8  9  1  0
  8 10  1  0
  8 11  1  0
 11 12  1  0
 11 13  2  0
  1 14  1  0
  1 15  1  0
  1 16  1  0
  2 17  1  0
  2 18  1  0
  3 19  1  0
  6 20  1  0
  6 21  1  0
  7 22  1  0
  9 23  1  0
  9 24  1  0
  9 25  1  0
 10 26  1  0
 10 27  1  0
 10 28  1  0
 12 29  1  0
 12 30  1  0
M  END
$$$$

     RDKit          3D

 30 29  0  0  0  0  0  0  0  0999 V2000
    5.1606    0.1695    0.4301 C   0  0  0  0  0  0  0  0  0  0  0  0
    3.9443    0.0629   -0.4567 C   0  0  0  0  0  0  0  0  0  0  0  0
    2.7000   -0.0091    0.2621 N   0  0  0  0  0  0  0  0  0  0  0  0
    1.5030   -0.1083   -0.4675 C   0  0  0  0  0  0  0  0  0  0  0  0
    1.5572   -0.1414   -1.7416 O   0  0  0  0  0  0  0  0  0  0  0  0
    0.1601   -0.1717    0.1473 C   0  0  0  0  0  0  0  0  0  0  0  0
   -0.8413   -0.2608   -0.9087 N   0  0  0  0  0  0  0  0  0  0  0  0
   -2.1418    0.0182   -0.3134 C   0  0  0  0  0  0  0  0  0  0  0  0
   -2.0954    1.4480    0.2096 C   0  0  0  0  0  0  0  0  0  0  0  0
   -3.2052   -0.0661   -1.4210 C   0  0  0  0  0  0  0  0  0  0  0  0
   -2.5170   -0.9632    0.7131 C   0  0  0  0  0  0  0  0  0  0  0  0
   -3.6872   -0.7166    1.5052 N   0  0  0  0  0  0  0  0  0  0  0  0
   -1.8955   -2.0176    0.9687 O   0  0  0  0  0  0  0  0  0  0  0  0
    5.1959   -0.6418    1.1626 H   0  0  0  0  0  0  0  0  0  0  0  0
    5.1676    1.1612    0.9270 H   0  0  0  0  0  0  0  0  0  0  0  0
    6.0415    0.1469   -0.2704 H   0  0  0  0  0  0  0  0  0  0  0  0
    4.0463   -0.8444   -1.0728 H   0  0  0  0  0  0  0  0  0  0  0  0
    3.9457    0.9571   -1.1240 H   0  0  0  0  0  0  0  0  0  0  0  0
    2.6233    0.0107    1.3135 H   0  0  0  0  0  0  0  0  0  0  0  0
    0.1537   -1.1853    0.6766 H   0  0  0  0  0  0  0  0  0  0  0  0
   -0.0492    0.5734    0.9111 H   0  0  0  0  0  0  0  0  0  0  0  0
   -0.9337   -1.2734   -1.2424 H   0  0  0  0  0  0  0  0  0  0  0  0
   -2.9458    2.0444   -0.1709 H   0  0  0  0  0  0  0  0  0  0  0  0
   -1.1359    1.9588   -0.1081 H   0  0  0  0  0  0  0  0  0  0  0  0
   -2.1488    1.4400    1.3165 H   0  0  0  0  0  0  0  0  0  0  0  0
   -2.8660    0.3747   -2.3500 H   0  0  0  0  0  0  0  0  0  0  0  0
   -3.4423   -1.1474   -1.5358 H   0  0  0  0  0  0  0  0  0  0  0  0
   -4.0979    0.4475   -1.0199 H   0  0  0  0  0  0  0  0  0  0  0  0
   -3.5950   -0.4856    2.4910 H   0  0  0  0  0  0  0  0  0  0  0  0
   -4.6012   -0.7806    1.0412 H   0  0  0  0  0  0  0  0  0  0  0  0
  1  2  1  0
  2  3  1  0
  3  4  1  0
  4  5  2  0
  4  6  1  0
  6  7  1  0
  7  8  1  0
  8  9  1  0
  8 10  1  0
  8 11  1  0
 11 12  1  0
 11 13  2  0
  1 14  1  0
  1 15  1  0
  1 16  1  0
  2 17  1  0
  2 18  1  0
  3 19  1  0
  6 20  1  0
  6 21  1  0
  7 22  1  0
  9 23  1  0
  9 24  1  0
  9 25  1  0
 10 26  1  0
 10 27  1  0
 10 28  1  0
 12 29  1  0
 12 30  1  0
M  END
$$$$

     RDKit          3D

 30 29  0  0  0  0  0  0  0  0999 V2000
   -4.2566    0.3887    0.2311 C   0  0  0  0  0  0  0  0  0  0  0  0
   -3.6166   -0.6223   -0.7063 C   0  0  0  0  0  0  0  0  0  0  0  0
   -2.1869   -0.5682   -0.5205 N   0  0  0  0  0  0  0  0  0  0  0  0
   -1.2463   -1.3506   -1.2262 C   0  0  0  0  0  0  0  0  0  0  0  0
   -1.6582   -2.1488   -2.0811 O   0  0  0  0  0  0  0  0  0  0  0  0
    0.2583   -1.2303   -0.9780 C   0  0  0  0  0  0  0  0  0  0  0  0
    0.3877   -0.2959    0.0836 N   0  0  0  0  0  0  0  0  0  0  0  0
    1.6411    0.2874    0.3809 C   0  0  0  0  0  0  0  0  0  0  0  0
    1.9561    0.0342    1.8659 C   0  0  0  0  0  0  0  0  0  0  0  0
    1.4864    1.7897    0.2371 C   0  0  0  0  0  0  0  0  0  0  0  0
    2.7988   -0.1923   -0.3770 C   0  0  0  0  0  0  0  0  0  0  0  0
    4.0105    0.5219   -0.1783 N   0  0  0  0  0  0  0  0  0  0  0  0
    2.7456   -1.1445   -1.1345 O   0  0  0  0  0  0  0  0  0  0  0  0
   -3.4983    1.0809    0.6790 H   0  0  0  0  0  0  0  0  0  0  0  0
   -4.7400   -0.1127    1.0876 H   0  0  0  0  0  0  0  0  0  0  0  0
   -4.9619    1.0632   -0.3201 H   0  0  0  0  0  0  0  0  0  0  0  0
   -3.9652   -1.6387   -0.4914 H   0  0  0  0  0  0  0  0  0  0  0  0
   -3.8321   -0.3012   -1.7407 H   0  0  0  0  0  0  0  0  0  0  0  0
   -1.7846    0.0992    0.1861 H   0  0  0  0  0  0  0  0  0  0  0  0
    0.5891   -2.2615   -0.8025 H   0  0  0  0  0  0  0  0  0  0  0  0
    0.6787   -0.7930   -1.9280 H   0  0  0  0  0  0  0  0  0  0  0  0
   -0.1230   -0.6437    0.9733 H   0  0  0  0  0  0  0  0  0  0  0  0
    1.0346   -0.0808    2.4531 H   0  0  0  0  0  0  0  0  0  0  0  0
    2.6417   -0.8477    1.8806 H   0  0  0  0  0  0  0  0  0  0  0  0
    2.4875    0.9472    2.2607 H   0  0  0  0  0  0  0  0  0  0  0  0
    0.4684    2.1097    0.5821 H   0  0  0  0  0  0  0  0  0  0  0  0
    1.5045    2.0087   -0.8811 H   0  0  0  0  0  0  0  0  0  0  0  0
    2.3150    2.3457    0.6823 H   0  0  0  0  0  0  0  0  0  0  0  0
    4.7401    0.1130    0.4111 H   0  0  0  0  0  0  0  0  0  0  0  0
    4.1257    1.4429   -0.6286 H   0  0  0  0  0  0  0  0  0  0  0  0
  1  2  1  0
  2  3  1  0
  3  4  1  0
  4  5  2  0
  4  6  1  0
  6  7  1  0
  7  8  1  0
  8  9  1  0
  8 10  1  0
  8 11  1  0
 11 12  1  0
 11 13  2  0
  1 14  1  0
  1 15  1  0
  1 16  1  0
  2 17  1  0
  2 18  1  0
  3 19  1  0
  6 20  1  0
  6 21  1  0
  7 22  1  0
  9 23  1  0
  9 24  1  0
  9 25  1  0
 10 26  1  0
 10 27  1  0
 10 28  1  0
 12 29  1  0
 12 30  1  0
M  END
$$$$

     RDKit          3D

 30 29  0  0  0  0  0  0  0  0999 V2000
    4.5645   -0.7826   -0.1624 C   0  0  0  0  0  0  0  0  0  0  0  0
    3.7635    0.2233   -0.9521 C   0  0  0  0  0  0  0  0  0  0  0  0
    2.3549    0.1610   -0.7209 N   0  0  0  0  0  0  0  0  0  0  0  0
    1.7567    0.3599    0.5612 C   0  0  0  0  0  0  0  0  0  0  0  0
    2.5391    0.5987    1.5146 O   0  0  0  0  0  0  0  0  0  0  0  0
    0.2966    0.2990    0.8089 C   0  0  0  0  0  0  0  0  0  0  0  0
   -0.4521    0.0173   -0.3783 N   0  0  0  0  0  0  0  0  0  0  0  0
   -1.8700   -0.0208   -0.1695 C   0  0  0  0  0  0  0  0  0  0  0  0
   -2.2910   -1.1207    0.7888 C   0  0  0  0  0  0  0  0  0  0  0  0
   -2.3776    1.3261    0.3546 C   0  0  0  0  0  0  0  0  0  0  0  0
   -2.5949   -0.2652   -1.4367 C   0  0  0  0  0  0  0  0  0  0  0  0
   -4.0037   -0.3227   -1.3993 N   0  0  0  0  0  0  0  0  0  0  0  0
   -1.9554   -0.4136   -2.4991 O   0  0  0  0  0  0  0  0  0  0  0  0
    4.1910   -1.8057   -0.2254 H   0  0  0  0  0  0  0  0  0  0  0  0
    5.6049   -0.8105   -0.5889 H   0  0  0  0  0  0  0  0  0  0  0  0
    4.6906   -0.3931    0.8616 H   0  0  0  0  0  0  0  0  0  0  0  0
    3.9802    0.0412   -2.0188 H   0  0  0  0  0  0  0  0  0  0  0  0
    4.1897    1.2338   -0.6910 H   0  0  0  0  0  0  0  0  0  0  0  0
    1.7167   -0.0394   -1.5225 H   0  0  0  0  0  0  0  0  0  0  0  0
   -0.0185    1.2937    1.1853 H   0  0  0  0  0  0  0  0  0  0  0  0
    0.1134   -0.4523    1.6134 H   0  0  0  0  0  0  0  0  0  0  0  0
   -0.2404    0.7526   -1.0862 H   0  0  0  0  0  0  0  0  0  0  0  0
   -3.4059   -1.2351    0.7012 H   0  0  0  0  0  0  0  0  0  0  0  0
   -1.8639   -2.0744    0.4767 H   0  0  0  0  0  0  0  0  0  0  0  0
   -2.1128   -0.8520    1.8485 H   0  0  0  0  0  0  0  0  0  0  0  0
   -1.6181    2.0992    0.1638 H   0  0  0  0  0  0  0  0  0  0  0  0
   -3.3261    1.6168   -0.1280 H   0  0  0  0  0  0  0  0  0  0  0  0
   -2.5543    1.2753    1.4378 H   0  0  0  0  0  0  0  0  0  0  0  0
   -4.6002    0.5305   -1.3596 H   0  0  0  0  0  0  0  0  0  0  0  0
   -4.4769   -1.2403   -1.4113 H   0  0  0  0  0  0  0  0  0  0  0  0
  1  2  1  0
  2  3  1  0
  3  4  1  0
  4  5  2  0
  4  6  1  0
  6  7  1  0
  7  8  1  0
  8  9  1  0
  8 10  1  0
  8 11  1  0
 11 12  1  0
 11 13  2  0
  1 14  1  0
  1 15  1  0
  1 16  1  0
  2 17  1  0
  2 18  1  0
  3 19  1  0
  6 20  1  0
  6 21  1  0
  7 22  1  0
  9 23  1  0
  9 24  1  0
  9 25  1  0
 10 26  1  0
 10 27  1  0
 10 28  1  0
 12 29  1  0
 12 30  1  0
M  END
$$$$

     RDKit          3D

 30 29  0  0  0  0  0  0  0  0999 V2000
    5.1009    0.1326   -1.3247 C   0  0  0  0  0  0  0  0  0  0  0  0
    4.0447    0.6236   -0.3955 C   0  0  0  0  0  0  0  0  0  0  0  0
    2.7271    0.0882   -0.6990 N   0  0  0  0  0  0  0  0  0  0  0  0
    1.5785    0.4112    0.0354 C   0  0  0  0  0  0  0  0  0  0  0  0
    1.6468    1.1976    1.0023 O   0  0  0  0  0  0  0  0  0  0  0  0
    0.2203   -0.1559   -0.2858 C   0  0  0  0  0  0  0  0  0  0  0  0
   -0.7739    0.3209    0.5833 N   0  0  0  0  0  0  0  0  0  0  0  0
   -2.1299    0.0031    0.3868 C   0  0  0  0  0  0  0  0  0  0  0  0
   -2.5636    0.6457   -0.9440 C   0  0  0  0  0  0  0  0  0  0  0  0
   -3.0217    0.6386    1.4566 C   0  0  0  0  0  0  0  0  0  0  0  0
   -2.4733   -1.4370    0.3775 C   0  0  0  0  0  0  0  0  0  0  0  0
   -3.6350   -2.0093    0.9415 N   0  0  0  0  0  0  0  0  0  0  0  0
   -1.6534   -2.2292   -0.1828 O   0  0  0  0  0  0  0  0  0  0  0  0
    6.0172   -0.0540   -0.7342 H   0  0  0  0  0  0  0  0  0  0  0  0
    4.8292   -0.8123   -1.8380 H   0  0  0  0  0  0  0  0  0  0  0  0
    5.3316    0.9359   -2.0616 H   0  0  0  0  0  0  0  0  0  0  0  0
    4.2712    0.2744    0.6566 H   0  0  0  0  0  0  0  0  0  0  0  0
    4.0616    1.7416   -0.3902 H   0  0  0  0  0  0  0  0  0  0  0  0
    2.6549   -0.5638   -1.5065 H   0  0  0  0  0  0  0  0  0  0  0  0
    0.0084   -0.1082   -1.3518 H   0  0  0  0  0  0  0  0  0  0  0  0
    0.3484   -1.2707   -0.0349 H   0  0  0  0  0  0  0  0  0  0  0  0
   -0.6737    1.3394    0.7669 H   0  0  0  0  0  0  0  0  0  0  0  0
   -2.8837    1.6942   -0.6933 H   0  0  0  0  0  0  0  0  0  0  0  0
   -1.7430    0.6982   -1.6765 H   0  0  0  0  0  0  0  0  0  0  0  0
   -3.3636    0.0456   -1.3962 H   0  0  0  0  0  0  0  0  0  0  0  0
   -4.0652    0.5196    1.1331 H   0  0  0  0  0  0  0  0  0  0  0  0
   -2.7652    1.7225    1.4913 H   0  0  0  0  0  0  0  0  0  0  0  0
   -2.8959    0.1272    2.4078 H   0  0  0  0  0  0  0  0  0  0  0  0
   -4.4236   -1.4681    1.3745 H   0  0  0  0  0  0  0  0  0  0  0  0
   -3.7761   -3.0518    0.9572 H   0  0  0  0  0  0  0  0  0  0  0  0
  1  2  1  0
  2  3  1  0
  3  4  1  0
  4  5  2  0
  4  6  1  0
  6  7  1  0
  7  8  1  0
  8  9  1  0
  8 10  1  0
  8 11  1  0
 11 12  1  0
 11 13  2  0
  1 14  1  0
  1 15  1  0
  1 16  1  0
  2 17  1  0
  2 18  1  0
  3 19  1  0
  6 20  1  0
  6 21  1  0
  7 22  1  0
  9 23  1  0
  9 24  1  0
  9 25  1  0
 10 26  1  0
 10 27  1  0
 10 28  1  0
 12 29  1  0
 12 30  1  0
M  END
$$$$

     RDKit          3D

 30 29  0  0  0  0  0  0  0  0999 V2000
    4.3005   -0.6766   -0.0362 C   0  0  0  0  0  0  0  0  0  0  0  0
    3.6444    0.3247    0.8796 C   0  0  0  0  0  0  0  0  0  0  0  0
    2.2081    0.2811    0.6849 N   0  0  0  0  0  0  0  0  0  0  0  0
    1.6713    0.5776   -0.6249 C   0  0  0  0  0  0  0  0  0  0  0  0
    2.5031    0.8762   -1.5324 O   0  0  0  0  0  0  0  0  0  0  0  0
    0.2161    0.5166   -0.8813 C   0  0  0  0  0  0  0  0  0  0  0  0
   -0.4436    0.2122    0.3706 N   0  0  0  0  0  0  0  0  0  0  0  0
   -1.8154   -0.1704    0.2020 C   0  0  0  0  0  0  0  0  0  0  0  0
   -1.8910   -1.6263    0.6919 C   0  0  0  0  0  0  0  0  0  0  0  0
   -2.2406   -0.2520   -1.2564 C   0  0  0  0  0  0  0  0  0  0  0  0
   -2.6795    0.7064    0.9767 C   0  0  0  0  0  0  0  0  0  0  0  0
   -3.9509    1.1974    0.5369 N   0  0  0  0  0  0  0  0  0  0  0  0
   -2.3187    1.0993    2.1356 O   0  0  0  0  0  0  0  0  0  0  0  0
    5.1660   -1.1462    0.4611 H   0  0  0  0  0  0  0  0  0  0  0  0
    4.6638   -0.1492   -0.9504 H   0  0  0  0  0  0  0  0  0  0  0  0
    3.5515   -1.4714   -0.2750 H   0  0  0  0  0  0  0  0  0  0  0  0
    3.8555    0.0940    1.9527 H   0  0  0  0  0  0  0  0  0  0  0  0
    3.9460    1.3741    0.6470 H   0  0  0  0  0  0  0  0  0  0  0  0
    1.5897    0.0346    1.4740 H   0  0  0  0  0  0  0  0  0  0  0  0
   -0.1109    1.5473   -1.2308 H   0  0  0  0  0  0  0  0  0  0  0  0
    0.0338   -0.2602   -1.6069 H   0  0  0  0  0  0  0  0  0  0  0  0
   -0.2397    0.8828    1.1100 H   0  0  0  0  0  0  0  0  0  0  0  0
   -2.6971   -2.1876    0.2450 H   0  0  0  0  0  0  0  0  0  0  0  0
   -0.9008   -2.1248    0.6076 H   0  0  0  0  0  0  0  0  0  0  0  0
   -2.0342   -1.5236    1.8070 H   0  0  0  0  0  0  0  0  0  0  0  0
   -2.0856    0.6824   -1.8209 H   0  0  0  0  0  0  0  0  0  0  0  0
   -3.3445   -0.4569   -1.2412 H   0  0  0  0  0  0  0  0  0  0  0  0
   -1.7558   -1.1455   -1.7331 H   0  0  0  0  0  0  0  0  0  0  0  0
   -4.8131    0.6242    0.5879 H   0  0  0  0  0  0  0  0  0  0  0  0
   -4.0285    2.1600    0.1545 H   0  0  0  0  0  0  0  0  0  0  0  0
  1  2  1  0
  2  3  1  0
  3  4  1  0
  4  5  2  0
  4  6  1  0
  6  7  1  0
  7  8  1  0
  8  9  1  0
  8 10  1  0
  8 11  1  0
 11 12  1  0
 11 13  2  0
  1 14  1  0
  1 15  1  0
  1 16  1  0
  2 17  1  0
  2 18  1  0
  3 19  1  0
  6 20  1  0
  6 21  1  0
  7 22  1  0
  9 23  1  0
  9 24  1  0
  9 25  1  0
 10 26  1  0
 10 27  1  0
 10 28  1  0
 12 29  1  0
 12 30  1  0
M  END
$$$$

     RDKit          3D

 30 29  0  0  0  0  0  0  0  0999 V2000
    4.4510    0.6651   -1.2008 C   0  0  0  0  0  0  0  0  0  0  0  0
    3.8864   -0.0808   -0.0222 C   0  0  0  0  0  0  0  0  0  0  0  0
    2.4211   -0.0578   -0.0393 N   0  0  0  0  0  0  0  0  0  0  0  0
    1.6578   -0.6937    0.9688 C   0  0  0  0  0  0  0  0  0  0  0  0
    2.3008   -1.2803    1.8820 O   0  0  0  0  0  0  0  0  0  0  0  0
    0.1753   -0.7069    1.0081 C   0  0  0  0  0  0  0  0  0  0  0  0
   -0.4165   -0.0078   -0.0805 N   0  0  0  0  0  0  0  0  0  0  0  0
   -1.8454    0.0054   -0.0701 C   0  0  0  0  0  0  0  0  0  0  0  0
   -2.4656   -1.3713   -0.1763 C   0  0  0  0  0  0  0  0  0  0  0  0
   -2.3143    0.7109    1.1801 C   0  0  0  0  0  0  0  0  0  0  0  0
   -2.3779    0.7711   -1.2487 C   0  0  0  0  0  0  0  0  0  0  0  0
   -3.7661    0.9374   -1.4805 N   0  0  0  0  0  0  0  0  0  0  0  0
   -1.5778    1.2881   -2.0663 O   0  0  0  0  0  0  0  0  0  0  0  0
    3.8593    1.5954   -1.3207 H   0  0  0  0  0  0  0  0  0  0  0  0
    5.5026    0.9065   -0.9787 H   0  0  0  0  0  0  0  0  0  0  0  0
    4.3954    0.0825   -2.1399 H   0  0  0  0  0  0  0  0  0  0  0  0
    4.2946   -1.0993    0.0038 H   0  0  0  0  0  0  0  0  0  0  0  0
    4.1723    0.4998    0.8978 H   0  0  0  0  0  0  0  0  0  0  0  0
    1.9403    0.4336   -0.8037 H   0  0  0  0  0  0  0  0  0  0  0  0
   -0.2186   -1.7616    0.9858 H   0  0  0  0  0  0  0  0  0  0  0  0
   -0.1627   -0.2830    1.9676 H   0  0  0  0  0  0  0  0  0  0  0  0
    0.0111   -0.1915   -0.9912 H   0  0  0  0  0  0  0  0  0  0  0  0
   -2.0371   -1.9618   -0.9886 H   0  0  0  0  0  0  0  0  0  0  0  0
   -2.4445   -1.9086    0.8079 H   0  0  0  0  0  0  0  0  0  0  0  0
   -3.5464   -1.2295   -0.3995 H   0  0  0  0  0  0  0  0  0  0  0  0
   -2.7826   -0.0056    1.8824 H   0  0  0  0  0  0  0  0  0  0  0  0
   -3.0649    1.5150    0.9406 H   0  0  0  0  0  0  0  0  0  0  0  0
   -1.4839    1.2294    1.7114 H   0  0  0  0  0  0  0  0  0  0  0  0
   -4.1585    0.9766   -2.4422 H   0  0  0  0  0  0  0  0  0  0  0  0
   -4.4050    1.0227   -0.6726 H   0  0  0  0  0  0  0  0  0  0  0  0
  1  2  1  0
  2  3  1  0
  3  4  1  0
  4  5  2  0
  4  6  1  0
  6  7  1  0
  7  8  1  0
  8  9  1  0
  8 10  1  0
  8 11  1  0
 11 12  1  0
 11 13  2  0
  1 14  1  0
  1 15  1  0
  1 16  1  0
  2 17  1  0
  2 18  1  0
  3 19  1  0
  6 20  1  0
  6 21  1  0
  7 22  1  0
  9 23  1  0
  9 24  1  0
  9 25  1  0
 10 26  1  0
 10 27  1  0
 10 28  1  0
 12 29  1  0
 12 30  1  0
M  END
$$$$
