
     RDKit          3D

 23 23  0  0  0  0  0  0  0  0999 V2000
    2.0605    1.0664   -1.5929 O   0  0  0  0  0  0  0  0  0  0  0  0
    2.0603    0.3518   -0.5590 C   0  0  0  0  0  0  0  0  0  0  0  0
    3.0724    0.5575    0.3636 O   0  0  0  0  0  0  0  0  0  0  0  0
    0.9926   -0.6644   -0.3751 C   0  0  2  0  0  0  0  0  0  0  0  0
    0.0951   -0.6518   -1.4755 N   0  0  0  0  0  0  0  0  0  0  0  0
   -0.9179    0.3593   -1.3860 C   0  0  0  0  0  0  0  0  0  0  0  0
   -1.7460    0.0207   -0.1381 C   0  0  2  0  0  0  0  0  0  0  0  0
   -2.9289    0.7191   -0.0986 O   0  0  0  0  0  0  0  0  0  0  0  0
   -0.8189    0.3747    1.0250 C   0  0  2  0  0  0  0  0  0  0  0  0
   -0.4702    1.7176    0.8578 O   0  0  0  0  0  0  0  0  0  0  0  0
    0.3719   -0.5122    0.9705 C   0  0  1  0  0  0  0  0  0  0  0  0
    0.0448   -1.7532    1.5435 O   0  0  0  0  0  0  0  0  0  0  0  0
    4.0126    0.8479    0.0962 H   0  0  0  0  0  0  0  0  0  0  0  0
    1.5148   -1.6672   -0.3825 H   0  0  0  0  0  0  0  0  0  0  0  0
   -0.2343   -1.5745   -1.7790 H   0  0  0  0  0  0  0  0  0  0  0  0
   -0.3986    1.3282   -1.1774 H   0  0  0  0  0  0  0  0  0  0  0  0
   -1.5208    0.4241   -2.2835 H   0  0  0  0  0  0  0  0  0  0  0  0
   -1.8925   -1.0922   -0.0878 H   0  0  0  0  0  0  0  0  0  0  0  0
   -3.7352    0.1486   -0.2937 H   0  0  0  0  0  0  0  0  0  0  0  0
   -1.3210    0.2250    2.0043 H   0  0  0  0  0  0  0  0  0  0  0  0
   -0.2541    2.1661    1.6932 H   0  0  0  0  0  0  0  0  0  0  0  0
    1.1520   -0.0689    1.6511 H   0  0  0  0  0  0  0  0  0  0  0  0
    0.8615   -2.3226    1.4240 H   0  0  0  0  0  0  0  0  0  0  0  0
  1  2  2  0
  2  3  1  0
  2  4  1  0
  4  5  1  0
  5  6  1  0
  6  7  1  0
  7  8  1  0
  7  9  1  0
  9 10  1  0
  9 11  1  0
 11 12  1  0
 11  4  1  0
  3 13  1  0
  4 14  1  1
  5 15  1  0
  6 16  1  0
  6 17  1  0
  7 18  1  6
  8 19  1  0
  9 20  1  1
 10 21  1  0
 11 22  1  1
 12 23  1  0
M  END
$$$$

     RDKit          3D

 23 23  0  0  0  0  0  0  0  0999 V2000
    3.2567    0.1879   -1.1385 O   0  0  0  0  0  0  0  0  0  0  0  0
    2.4182    0.1010   -0.3306 C   0  0  0  0  0  0  0  0  0  0  0  0
    2.8034   -0.3474    0.9922 O   0  0  0  0  0  0  0  0  0  0  0  0
    0.9443    0.3225   -0.4326 C   0  0  2  0  0  0  0  0  0  0  0  0
    0.4683    1.4300    0.3027 N   0  0  0  0  0  0  0  0  0  0  0  0
   -0.9374    1.6211   -0.0511 C   0  0  0  0  0  0  0  0  0  0  0  0
   -1.6892    0.4192    0.4693 C   0  0  2  0  0  0  0  0  0  0  0  0
   -1.4936    0.2861    1.8478 O   0  0  0  0  0  0  0  0  0  0  0  0
   -1.2326   -0.8790   -0.1571 C   0  0  2  0  0  0  0  0  0  0  0  0
   -1.6970   -1.9093    0.6679 O   0  0  0  0  0  0  0  0  0  0  0  0
    0.2500   -0.9734   -0.2717 C   0  0  1  0  0  0  0  0  0  0  0  0
    0.6208   -1.7851   -1.3661 O   0  0  0  0  0  0  0  0  0  0  0  0
    3.7926   -0.3188    1.2285 H   0  0  0  0  0  0  0  0  0  0  0  0
    0.7937    0.6361   -1.5336 H   0  0  0  0  0  0  0  0  0  0  0  0
    1.0251    2.2662    0.1902 H   0  0  0  0  0  0  0  0  0  0  0  0
   -1.0553    1.6077   -1.1500 H   0  0  0  0  0  0  0  0  0  0  0  0
   -1.3776    2.5172    0.4002 H   0  0  0  0  0  0  0  0  0  0  0  0
   -2.7880    0.5055    0.2775 H   0  0  0  0  0  0  0  0  0  0  0  0
   -1.7378    1.0994    2.3358 H   0  0  0  0  0  0  0  0  0  0  0  0
   -1.6905   -1.0165   -1.1574 H   0  0  0  0  0  0  0  0  0  0  0  0
   -1.4266   -2.7964    0.3589 H   0  0  0  0  0  0  0  0  0  0  0  0
    0.6794   -1.4763    0.6436 H   0  0  0  0  0  0  0  0  0  0  0  0
    0.0730   -1.4977   -2.1259 H   0  0  0  0  0  0  0  0  0  0  0  0
  1  2  2  0
  2  3  1  0
  2  4  1  0
  4  5  1  0
  5  6  1  0
  6  7  1  0
  7  8  1  0
  7  9  1  0
  9 10  1  0
  9 11  1  0
 11 12  1  0
 11  4  1  0
  3 13  1  0
  4 14  1  6
  5 15  1  0
  6 16  1  0
  6 17  1  0
  7 18  1  1
  8 19  1  0
  9 20  1  6
 10 21  1  0
 11 22  1  1
 12 23  1  0
M  END
$$$$

     RDKit          3D

 23 23  0  0  0  0  0  0  0  0999 V2000
    2.8520   -1.3335    1.0741 O   0  0  0  0  0  0  0  0  0  0  0  0
    2.4429   -0.4613    0.2626 C   0  0  0  0  0  0  0  0  0  0  0  0
    3.2729   -0.0531   -0.7880 O   0  0  0  0  0  0  0  0  0  0  0  0
    1.0968    0.1449    0.3960 C   0  0  2  0  0  0  0  0  0  0  0  0
    0.4126   -0.4050    1.5264 N   0  0  0  0  0  0  0  0  0  0  0  0
   -1.0357   -0.4285    1.3199 C   0  0  0  0  0  0  0  0  0  0  0  0
   -1.4716    0.8548    0.6664 C   0  0  2  0  0  0  0  0  0  0  0  0
   -2.8631    0.9124    0.7037 O   0  0  0  0  0  0  0  0  0  0  0  0
   -0.9564    0.8203   -0.7675 C   0  0  2  0  0  0  0  0  0  0  0  0
   -1.9756    0.3232   -1.5951 O   0  0  0  0  0  0  0  0  0  0  0  0
    0.2532   -0.0767   -0.8416 C   0  0  1  0  0  0  0  0  0  0  0  0
    0.9742    0.2455   -2.0046 O   0  0  0  0  0  0  0  0  0  0  0  0
    4.2776   -0.2079   -0.6594 H   0  0  0  0  0  0  0  0  0  0  0  0
    1.1898    1.2491    0.5717 H   0  0  0  0  0  0  0  0  0  0  0  0
    0.7552   -1.3712    1.7606 H   0  0  0  0  0  0  0  0  0  0  0  0
   -1.5333   -0.5845    2.2921 H   0  0  0  0  0  0  0  0  0  0  0  0
   -1.3454   -1.2593    0.6617 H   0  0  0  0  0  0  0  0  0  0  0  0
   -1.0344    1.7411    1.1828 H   0  0  0  0  0  0  0  0  0  0  0  0
   -3.1819   -0.0196    0.5476 H   0  0  0  0  0  0  0  0  0  0  0  0
   -0.6615    1.8506   -1.0503 H   0  0  0  0  0  0  0  0  0  0  0  0
   -1.9074   -0.6552   -1.6206 H   0  0  0  0  0  0  0  0  0  0  0  0
   -0.0088   -1.1458   -0.8869 H   0  0  0  0  0  0  0  0  0  0  0  0
    0.4482   -0.1403   -2.7516 H   0  0  0  0  0  0  0  0  0  0  0  0
  1  2  2  0
  2  3  1  0
  2  4  1  0
  4  5  1  0
  5  6  1  0
  6  7  1  0
  7  8  1  0
  7  9  1  0
  9 10  1  0
  9 11  1  0
 11 12  1  0
 11  4  1  0
  3 13  1  0
  4 14  1  1
  5 15  1  0
  6 16  1  0
  6 17  1  0
  7 18  1  1
  8 19  1  0
  9 20  1  6
 10 21  1  0
 11 22  1  6
 12 23  1  0
M  END
$$$$

     RDKit          3D

 23 23  0  0  0  0  0  0  0  0999 V2000
    3.1486    0.6423   -0.7245 O   0  0  0  0  0  0  0  0  0  0  0  0
    2.1434   -0.1942   -0.3964 C   0  0  0  0  0  0  0  0  0  0  0  0
    2.2104   -1.4410   -0.9437 O   0  0  0  0  0  0  0  0  0  0  0  0
    1.1240    0.2768    0.5013 C   0  0  2  0  0  0  0  0  0  0  0  0
    0.5789   -0.7090    1.4382 N   0  0  0  0  0  0  0  0  0  0  0  0
   -0.4847   -1.3549    0.6837 C   0  0  0  0  0  0  0  0  0  0  0  0
   -1.5948   -0.3442    0.6883 C   0  0  2  0  0  0  0  0  0  0  0  0
   -2.7333   -0.9516    0.1603 O   0  0  0  0  0  0  0  0  0  0  0  0
   -1.2350    0.8318   -0.1905 C   0  0  2  0  0  0  0  0  0  0  0  0
   -1.4333    0.4975   -1.5232 O   0  0  0  0  0  0  0  0  0  0  0  0
    0.1737    1.3023    0.0351 C   0  0  1  0  0  0  0  0  0  0  0  0
    0.1056    2.3755    0.9642 O   0  0  0  0  0  0  0  0  0  0  0  0
    3.1395   -1.9608   -0.9128 H   0  0  0  0  0  0  0  0  0  0  0  0
    1.7758    0.8912    1.2969 H   0  0  0  0  0  0  0  0  0  0  0  0
    1.3132   -1.3895    1.7558 H   0  0  0  0  0  0  0  0  0  0  0  0
   -0.7518   -2.3088    1.0556 H   0  0  0  0  0  0  0  0  0  0  0  0
   -0.0798   -1.4851   -0.3384 H   0  0  0  0  0  0  0  0  0  0  0  0
   -1.7846   -0.0373    1.7328 H   0  0  0  0  0  0  0  0  0  0  0  0
   -3.3589   -0.2409   -0.1365 H   0  0  0  0  0  0  0  0  0  0  0  0
   -1.9210    1.6525    0.0565 H   0  0  0  0  0  0  0  0  0  0  0  0
   -1.9077   -0.3469   -1.6271 H   0  0  0  0  0  0  0  0  0  0  0  0
    0.5412    1.7754   -0.8841 H   0  0  0  0  0  0  0  0  0  0  0  0
    1.0306    2.5189    1.3541 H   0  0  0  0  0  0  0  0  0  0  0  0
  1  2  2  0
  2  3  1  0
  2  4  1  0
  4  5  1  0
  5  6  1  0
  6  7  1  0
  7  8  1  0
  7  9  1  0
  9 10  1  0
  9 11  1  0
 11 12  1  0
 11  4  1  0
  3 13  1  0
  4 14  1  1
  5 15  1  0
  6 16  1  0
  6 17  1  0
  7 18  1  1
  8 19  1  0
  9 20  1  1
 10 21  1  0
 11 22  1  6
 12 23  1  0
M  END
$$$$

     RDKit          3D

 23 23  0  0  0  0  0  0  0  0999 V2000
    2.7557   -1.3034   -1.3882 O   0  0  0  0  0  0  0  0  0  0  0  0
    2.4167   -0.5313   -0.4767 C   0  0  0  0  0  0  0  0  0  0  0  0
    3.3254    0.3571    0.0787 O   0  0  0  0  0  0  0  0  0  0  0  0
    1.0041   -0.5587    0.0322 C   0  0  2  0  0  0  0  0  0  0  0  0
    0.2196   -1.5299   -0.6543 N   0  0  0  0  0  0  0  0  0  0  0  0
   -1.1874   -1.2767   -0.6650 C   0  0  0  0  0  0  0  0  0  0  0  0
   -1.6542   -0.4301    0.4926 C   0  0  2  0  0  0  0  0  0  0  0  0
   -2.9982   -0.1177    0.3011 O   0  0  0  0  0  0  0  0  0  0  0  0
   -0.8877    0.8365    0.6404 C   0  0  2  0  0  0  0  0  0  0  0  0
   -1.6248    1.9664    0.2993 O   0  0  0  0  0  0  0  0  0  0  0  0
    0.3810    0.7993   -0.1815 C   0  0  1  0  0  0  0  0  0  0  0  0
    1.2569    1.8222    0.1904 O   0  0  0  0  0  0  0  0  0  0  0  0
    4.3067    0.0667    0.0946 H   0  0  0  0  0  0  0  0  0  0  0  0
    1.0595   -0.8130    1.1010 H   0  0  0  0  0  0  0  0  0  0  0  0
    0.4490   -2.5100   -0.4506 H   0  0  0  0  0  0  0  0  0  0  0  0
   -1.5270   -0.8277   -1.6149 H   0  0  0  0  0  0  0  0  0  0  0  0
   -1.7055   -2.2650   -0.5806 H   0  0  0  0  0  0  0  0  0  0  0  0
   -1.6237   -1.0819    1.4077 H   0  0  0  0  0  0  0  0  0  0  0  0
   -3.3083    0.5200    1.0125 H   0  0  0  0  0  0  0  0  0  0  0  0
   -0.6038    0.9382    1.7216 H   0  0  0  0  0  0  0  0  0  0  0  0
   -1.0279    2.5966   -0.1605 H   0  0  0  0  0  0  0  0  0  0  0  0
    0.1539    0.9193   -1.2565 H   0  0  0  0  0  0  0  0  0  0  0  0
    0.8201    2.4232    0.8449 H   0  0  0  0  0  0  0  0  0  0  0  0
  1  2  2  0
  2  3  1  0
  2  4  1  0
  4  5  1  0
  5  6  1  0
  6  7  1  0
  7  8  1  0
  7  9  1  0
  9 10  1  0
  9 11  1  0
 11 12  1  0
 11  4  1  0
  3 13  1  0
  4 14  1  1
  5 15  1  0
  6 16  1  0
  6 17  1  0
  7 18  1  1
  8 19  1  0
  9 20  1  1
 10 21  1  0
 11 22  1  6
 12 23  1  0
M  END
$$$$

     RDKit          3D

 23 23  0  0  0  0  0  0  0  0999 V2000
    2.6417    1.5018    0.7801 O   0  0  0  0  0  0  0  0  0  0  0  0
    2.2970    0.3915    0.3173 C   0  0  0  0  0  0  0  0  0  0  0  0
    3.2047   -0.6536    0.3953 O   0  0  0  0  0  0  0  0  0  0  0  0
    0.9538    0.2583   -0.2809 C   0  0  2  0  0  0  0  0  0  0  0  0
    0.2588    1.5001   -0.2136 N   0  0  0  0  0  0  0  0  0  0  0  0
   -1.1017    1.4598   -0.6286 C   0  0  0  0  0  0  0  0  0  0  0  0
   -1.8957    0.3124   -0.1169 C   0  0  2  0  0  0  0  0  0  0  0  0
   -2.2734    0.4204    1.2018 O   0  0  0  0  0  0  0  0  0  0  0  0
   -1.1338   -0.9710   -0.3990 C   0  0  2  0  0  0  0  0  0  0  0  0
   -1.8663   -2.0927   -0.0917 O   0  0  0  0  0  0  0  0  0  0  0  0
    0.1689   -0.8787    0.3685 C   0  0  1  0  0  0  0  0  0  0  0  0
    0.9094   -2.0361    0.2934 O   0  0  0  0  0  0  0  0  0  0  0  0
    3.9646   -0.6056    1.0906 H   0  0  0  0  0  0  0  0  0  0  0  0
    1.1153   -0.0739   -1.3426 H   0  0  0  0  0  0  0  0  0  0  0  0
    0.7644    2.1843   -0.8200 H   0  0  0  0  0  0  0  0  0  0  0  0
   -1.1560    1.4437   -1.7503 H   0  0  0  0  0  0  0  0  0  0  0  0
   -1.5879    2.4098   -0.3019 H   0  0  0  0  0  0  0  0  0  0  0  0
   -2.8325    0.2465   -0.7258 H   0  0  0  0  0  0  0  0  0  0  0  0
   -1.5359    0.6513    1.8140 H   0  0  0  0  0  0  0  0  0  0  0  0
   -0.8587   -0.9285   -1.4831 H   0  0  0  0  0  0  0  0  0  0  0  0
   -1.5405   -2.8420   -0.6348 H   0  0  0  0  0  0  0  0  0  0  0  0
    0.0127   -0.6350    1.4357 H   0  0  0  0  0  0  0  0  0  0  0  0
    1.4910   -2.0833    1.0927 H   0  0  0  0  0  0  0  0  0  0  0  0
  1  2  2  0
  2  3  1  0
  2  4  1  0
  4  5  1  0
  5  6  1  0
  6  7  1  0
  7  8  1  0
  7  9  1  0
  9 10  1  0
  9 11  1  0
 11 12  1  0
 11  4  1  0
  3 13  1  0
  4 14  1  6
  5 15  1  0
  6 16  1  0
  6 17  1  0
  7 18  1  6
  8 19  1  0
  9 20  1  6
 10 21  1  0
 11 22  1  1
 12 23  1  0
M  END
$$$$

     RDKit          3D

 23 23  0  0  0  0  0  0  0  0999 V2000
    2.1836    1.4122   -2.1590 O   0  0  0  0  0  0  0  0  0  0  0  0
    2.1001    0.9837   -0.9878 C   0  0  0  0  0  0  0  0  0  0  0  0
    3.1047    1.3176   -0.1021 O   0  0  0  0  0  0  0  0  0  0  0  0
    0.9886    0.1631   -0.5663 C   0  0  2  0  0  0  0  0  0  0  0  0
    0.0221   -0.1022   -1.5925 N   0  0  0  0  0  0  0  0  0  0  0  0
   -0.9982   -1.0029   -1.2056 C   0  0  0  0  0  0  0  0  0  0  0  0
   -1.5420   -0.8529    0.1633 C   0  0  2  0  0  0  0  0  0  0  0  0
   -2.6116    0.0434    0.1589 O   0  0  0  0  0  0  0  0  0  0  0  0
   -0.5159   -0.4506    1.1912 C   0  0  2  0  0  0  0  0  0  0  0  0
   -1.1184   -0.1586    2.3947 O   0  0  0  0  0  0  0  0  0  0  0  0
    0.1997    0.7619    0.6027 C   0  0  1  0  0  0  0  0  0  0  0  0
    0.9983    1.3986    1.5055 O   0  0  0  0  0  0  0  0  0  0  0  0
    4.0484    1.5746   -0.4058 H   0  0  0  0  0  0  0  0  0  0  0  0
    1.3969   -0.8406   -0.2477 H   0  0  0  0  0  0  0  0  0  0  0  0
    0.5311   -0.4984   -2.4223 H   0  0  0  0  0  0  0  0  0  0  0  0
   -1.8544   -0.8828   -1.9291 H   0  0  0  0  0  0  0  0  0  0  0  0
   -0.6350   -2.0556   -1.3833 H   0  0  0  0  0  0  0  0  0  0  0  0
   -1.9257   -1.8640    0.4899 H   0  0  0  0  0  0  0  0  0  0  0  0
   -3.4477   -0.4210    0.3675 H   0  0  0  0  0  0  0  0  0  0  0  0
    0.2205   -1.2815    1.2651 H   0  0  0  0  0  0  0  0  0  0  0  0
   -1.1202   -0.9629    2.9753 H   0  0  0  0  0  0  0  0  0  0  0  0
   -0.6110    1.4171    0.1966 H   0  0  0  0  0  0  0  0  0  0  0  0
    0.5860    2.3019    1.6906 H   0  0  0  0  0  0  0  0  0  0  0  0
  1  2  2  0
  2  3  1  0
  2  4  1  0
  4  5  1  0
  5  6  1  0
  6  7  1  0
  7  8  1  0
  7  9  1  0
  9 10  1  0
  9 11  1  0
 11 12  1  0
 11  4  1  0
  3 13  1  0
  4 14  1  1
  5 15  1  0
  6 16  1  0
  6 17  1  0
  7 18  1  1
  8 19  1  0
  9 20  1  1
 10 21  1  0
 11 22  1  6
 12 23  1  0
M  END
$$$$

     RDKit          3D

 23 23  0  0  0  0  0  0  0  0999 V2000
    3.0361   -0.4953   -1.2301 O   0  0  0  0  0  0  0  0  0  0  0  0
    2.4506    0.0273   -0.2585 C   0  0  0  0  0  0  0  0  0  0  0  0
    3.1323    0.9601    0.4983 O   0  0  0  0  0  0  0  0  0  0  0  0
    1.0828   -0.3259    0.0833 C   0  0  2  0  0  0  0  0  0  0  0  0
    0.5157   -1.3121   -0.8037 N   0  0  0  0  0  0  0  0  0  0  0  0
   -0.7634   -1.7638   -0.3110 C   0  0  0  0  0  0  0  0  0  0  0  0
   -1.7439   -0.6176   -0.1372 C   0  0  2  0  0  0  0  0  0  0  0  0
   -2.0104   -0.0092   -1.3446 O   0  0  0  0  0  0  0  0  0  0  0  0
   -1.1175    0.3477    0.8491 C   0  0  2  0  0  0  0  0  0  0  0  0
   -1.9839    1.3779    1.1664 O   0  0  0  0  0  0  0  0  0  0  0  0
    0.1471    0.8730    0.1642 C   0  0  1  0  0  0  0  0  0  0  0  0
    0.7013    1.9271    0.8415 O   0  0  0  0  0  0  0  0  0  0  0  0
    4.1414    0.9720    0.5845 H   0  0  0  0  0  0  0  0  0  0  0  0
    1.0539   -0.7856    1.1137 H   0  0  0  0  0  0  0  0  0  0  0  0
    0.4854   -0.9997   -1.7958 H   0  0  0  0  0  0  0  0  0  0  0  0
   -0.5920   -2.1896    0.6996 H   0  0  0  0  0  0  0  0  0  0  0  0
   -1.1666   -2.5644   -0.9344 H   0  0  0  0  0  0  0  0  0  0  0  0
   -2.6480   -1.0535    0.3369 H   0  0  0  0  0  0  0  0  0  0  0  0
   -2.8484   -0.3456   -1.7406 H   0  0  0  0  0  0  0  0  0  0  0  0
   -0.8099   -0.2423    1.7510 H   0  0  0  0  0  0  0  0  0  0  0  0
   -1.5745    2.2630    1.0238 H   0  0  0  0  0  0  0  0  0  0  0  0
   -0.1341    1.1890   -0.8624 H   0  0  0  0  0  0  0  0  0  0  0  0
    0.6459    2.7671    0.3059 H   0  0  0  0  0  0  0  0  0  0  0  0
  1  2  2  0
  2  3  1  0
  2  4  1  0
  4  5  1  0
  5  6  1  0
  6  7  1  0
  7  8  1  0
  7  9  1  0
  9 10  1  0
  9 11  1  0
 11 12  1  0
 11  4  1  0
  3 13  1  0
  4 14  1  1
  5 15  1  0
  6 16  1  0
  6 17  1  0
  7 18  1  1
  8 19  1  0
  9 20  1  1
 10 21  1  0
 11 22  1  6
 12 23  1  0
M  END
$$$$
