
     RDKit          3D

 25 26  0  0  0  0  0  0  0  0999 V2000
    2.6192    0.8595    1.4728 O   0  0  0  0  0  0  0  0  0  0  0  0
    2.8296    0.1524    0.2938 C   0  0  0  0  0  0  0  0  0  0  0  0
    1.5162   -0.4264   -0.1182 C   0  0  0  0  0  0  0  0  0  0  0  0
    1.1899   -1.7012   -0.2864 C   0  0  0  0  0  0  0  0  0  0  0  0
   -0.2448   -1.8103   -0.7060 C   0  0  0  0  0  0  0  0  0  0  0  0
   -0.5849   -0.4871   -1.1291 N   0  0  0  0  0  0  0  0  0  0  0  0
   -1.9195   -0.0802   -0.8077 C   0  0  0  0  0  0  0  0  0  0  0  0
   -1.7822    1.0952    0.1504 C   0  0  1  0  0  0  0  0  0  0  0  0
   -2.8377    1.1828    1.0330 O   0  0  0  0  0  0  0  0  0  0  0  0
   -0.4829    0.7120    0.8326 C   0  0  1  0  0  0  0  0  0  0  0  0
   -0.6324   -0.4360    1.5875 O   0  0  0  0  0  0  0  0  0  0  0  0
    0.3277    0.3788   -0.4136 C   0  0  1  0  0  0  0  0  0  0  0  0
    3.1187    1.7292    1.4777 H   0  0  0  0  0  0  0  0  0  0  0  0
    3.5785   -0.6475    0.4412 H   0  0  0  0  0  0  0  0  0  0  0  0
    3.2093    0.8932   -0.4555 H   0  0  0  0  0  0  0  0  0  0  0  0
    1.8818   -2.5116   -0.1343 H   0  0  0  0  0  0  0  0  0  0  0  0
   -0.8581   -2.2223    0.0939 H   0  0  0  0  0  0  0  0  0  0  0  0
   -0.2926   -2.5042   -1.5723 H   0  0  0  0  0  0  0  0  0  0  0  0
   -2.3711    0.3321   -1.7547 H   0  0  0  0  0  0  0  0  0  0  0  0
   -2.5663   -0.8741   -0.4176 H   0  0  0  0  0  0  0  0  0  0  0  0
   -1.6098    2.0255   -0.4182 H   0  0  0  0  0  0  0  0  0  0  0  0
   -2.9376    2.1510    1.2716 H   0  0  0  0  0  0  0  0  0  0  0  0
   -0.0461    1.5533    1.3988 H   0  0  0  0  0  0  0  0  0  0  0  0
   -1.6129   -0.6211    1.7146 H   0  0  0  0  0  0  0  0  0  0  0  0
    0.5080    1.2569   -1.0377 H   0  0  0  0  0  0  0  0  0  0  0  0
  1  2  1  0
  2  3  1  0
  3  4  2  0
  4  5  1  0
  5  6  1  0
  6  7  1  0
  7  8  1  0
  8  9  1  0
  8 10  1  0
 10 11  1  0
 10 12  1  0
 12  3  1  0
 12  6  1  0
  1 13  1  0
  2 14  1  0
  2 15  1  0
  4 16  1  0
  5 17  1  0
  5 18  1  0
  7 19  1  0
  7 20  1  0
  8 21  1  6
  9 22  1  0
 10 23  1  1
 11 24  1  0
 12 25  1  6
M  END
$$$$

     RDKit          3D

 25 26  0  0  0  0  0  0  0  0999 V2000
    2.4894    0.9712   -1.5174 O   0  0  0  0  0  0  0  0  0  0  0  0
    2.6663   -0.0242   -0.5543 C   0  0  0  0  0  0  0  0  0  0  0  0
    1.4255   -0.3274    0.1838 C   0  0  0  0  0  0  0  0  0  0  0  0
    1.2799   -0.1971    1.4972 C   0  0  0  0  0  0  0  0  0  0  0  0
   -0.0916   -0.5865    1.9116 C   0  0  0  0  0  0  0  0  0  0  0  0
   -0.6744   -1.2062    0.7423 N   0  0  0  0  0  0  0  0  0  0  0  0
   -2.0149   -0.7888    0.4793 C   0  0  0  0  0  0  0  0  0  0  0  0
   -1.9975    0.2192   -0.6154 C   0  0  1  0  0  0  0  0  0  0  0  0
   -2.3280    1.5134   -0.1588 O   0  0  0  0  0  0  0  0  0  0  0  0
   -0.5961    0.1878   -1.1801 C   0  0  1  0  0  0  0  0  0  0  0  0
   -0.0721    1.4622   -1.1420 O   0  0  0  0  0  0  0  0  0  0  0  0
    0.1461   -0.8190   -0.3773 C   0  0  1  0  0  0  0  0  0  0  0  0
    2.6872    1.8703   -1.1917 H   0  0  0  0  0  0  0  0  0  0  0  0
    3.4922    0.3081    0.0946 H   0  0  0  0  0  0  0  0  0  0  0  0
    3.0587   -0.9229   -1.1038 H   0  0  0  0  0  0  0  0  0  0  0  0
    2.0410    0.1456    2.2039 H   0  0  0  0  0  0  0  0  0  0  0  0
    0.0230   -1.3716    2.6975 H   0  0  0  0  0  0  0  0  0  0  0  0
   -0.6833    0.2436    2.3156 H   0  0  0  0  0  0  0  0  0  0  0  0
   -2.5368   -0.3671    1.3785 H   0  0  0  0  0  0  0  0  0  0  0  0
   -2.6008   -1.6858    0.1864 H   0  0  0  0  0  0  0  0  0  0  0  0
   -2.7603   -0.0195   -1.3891 H   0  0  0  0  0  0  0  0  0  0  0  0
   -2.5712    1.4863    0.8100 H   0  0  0  0  0  0  0  0  0  0  0  0
   -0.6794   -0.1835   -2.2416 H   0  0  0  0  0  0  0  0  0  0  0  0
   -0.0638    1.8384   -2.0601 H   0  0  0  0  0  0  0  0  0  0  0  0
    0.3608   -1.7465   -0.9691 H   0  0  0  0  0  0  0  0  0  0  0  0
  1  2  1  0
  2  3  1  0
  3  4  2  0
  4  5  1  0
  5  6  1  0
  6  7  1  0
  7  8  1  0
  8  9  1  0
  8 10  1  0
 10 11  1  0
 10 12  1  0
 12  3  1  0
 12  6  1  0
  1 13  1  0
  2 14  1  0
  2 15  1  0
  4 16  1  0
  5 17  1  0
  5 18  1  0
  7 19  1  0
  7 20  1  0
  8 21  1  6
  9 22  1  0
 10 23  1  6
 11 24  1  0
 12 25  1  6
M  END
$$$$

     RDKit          3D

 25 26  0  0  0  0  0  0  0  0999 V2000
   -2.2387    1.8947   -0.5901 O   0  0  0  0  0  0  0  0  0  0  0  0
   -2.6025    0.7268    0.0862 C   0  0  0  0  0  0  0  0  0  0  0  0
   -1.4784   -0.2577   -0.0549 C   0  0  0  0  0  0  0  0  0  0  0  0
   -1.5749   -1.4608   -0.6235 C   0  0  0  0  0  0  0  0  0  0  0  0
   -0.1959   -2.1031   -0.5438 C   0  0  0  0  0  0  0  0  0  0  0  0
    0.5736   -0.8899   -0.6861 N   0  0  0  0  0  0  0  0  0  0  0  0
    1.8900   -0.8615   -0.1943 C   0  0  0  0  0  0  0  0  0  0  0  0
    2.0381    0.5584    0.3724 C   0  0  1  0  0  0  0  0  0  0  0  0
    2.9207    1.3189   -0.3397 O   0  0  0  0  0  0  0  0  0  0  0  0
    0.6040    1.1255    0.3133 C   0  0  1  0  0  0  0  0  0  0  0  0
    0.4977    1.7300   -0.9345 O   0  0  0  0  0  0  0  0  0  0  0  0
   -0.1172   -0.1399    0.3815 C   0  0  1  0  0  0  0  0  0  0  0  0
   -3.0896    2.4042   -0.7637 H   0  0  0  0  0  0  0  0  0  0  0  0
   -2.7222    0.9226    1.1848 H   0  0  0  0  0  0  0  0  0  0  0  0
   -3.5143    0.2772   -0.3478 H   0  0  0  0  0  0  0  0  0  0  0  0
   -2.4448   -1.9378   -1.0718 H   0  0  0  0  0  0  0  0  0  0  0  0
   -0.0489   -2.8310   -1.3364 H   0  0  0  0  0  0  0  0  0  0  0  0
   -0.0459   -2.5015    0.4766 H   0  0  0  0  0  0  0  0  0  0  0  0
    2.6136   -0.9129   -1.0578 H   0  0  0  0  0  0  0  0  0  0  0  0
    2.1554   -1.6260    0.5359 H   0  0  0  0  0  0  0  0  0  0  0  0
    2.3056    0.4305    1.4478 H   0  0  0  0  0  0  0  0  0  0  0  0
    3.3773    1.9344    0.3133 H   0  0  0  0  0  0  0  0  0  0  0  0
    0.4408    1.8447    1.1121 H   0  0  0  0  0  0  0  0  0  0  0  0
    0.5717    1.0453   -1.6516 H   0  0  0  0  0  0  0  0  0  0  0  0
    0.0849   -0.6910    1.3182 H   0  0  0  0  0  0  0  0  0  0  0  0
  1  2  1  0
  2  3  1  0
  3  4  2  0
  4  5  1  0
  5  6  1  0
  6  7  1  0
  7  8  1  0
  8  9  1  0
  8 10  1  0
 10 11  1  0
 10 12  1  0
 12  3  1  0
 12  6  1  0
  1 13  1  0
  2 14  1  0
  2 15  1  0
  4 16  1  0
  5 17  1  0
  5 18  1  0
  7 19  1  0
  7 20  1  0
  8 21  1  1
  9 22  1  0
 10 23  1  1
 11 24  1  0
 12 25  1  1
M  END
$$$$

     RDKit          3D

 25 26  0  0  0  0  0  0  0  0999 V2000
    3.5158    0.0120   -0.9110 O   0  0  0  0  0  0  0  0  0  0  0  0
    2.3489   -0.7098   -1.1286 C   0  0  0  0  0  0  0  0  0  0  0  0
    1.3048   -0.3588   -0.0896 C   0  0  0  0  0  0  0  0  0  0  0  0
    1.5205    0.5192    0.8722 C   0  0  0  0  0  0  0  0  0  0  0  0
    0.2949    0.6104    1.6939 C   0  0  0  0  0  0  0  0  0  0  0  0
   -0.4864   -0.5153    1.3181 N   0  0  0  0  0  0  0  0  0  0  0  0
   -1.9011   -0.2234    1.1930 C   0  0  0  0  0  0  0  0  0  0  0  0
   -2.0198    0.3768   -0.1818 C   0  0  1  0  0  0  0  0  0  0  0  0
   -1.7881    1.7480   -0.2058 O   0  0  0  0  0  0  0  0  0  0  0  0
   -1.0308   -0.3935   -0.9864 C   0  0  1  0  0  0  0  0  0  0  0  0
   -0.4342    0.3621   -1.9909 O   0  0  0  0  0  0  0  0  0  0  0  0
   -0.0625   -0.9273    0.0046 C   0  0  1  0  0  0  0  0  0  0  0  0
    4.2515   -0.6081   -0.6129 H   0  0  0  0  0  0  0  0  0  0  0  0
    2.5366   -1.8030   -1.1162 H   0  0  0  0  0  0  0  0  0  0  0  0
    1.9385   -0.3661   -2.1170 H   0  0  0  0  0  0  0  0  0  0  0  0
    2.4579    1.0987    1.0472 H   0  0  0  0  0  0  0  0  0  0  0  0
    0.5500    0.6406    2.7749 H   0  0  0  0  0  0  0  0  0  0  0  0
   -0.1726    1.5916    1.4705 H   0  0  0  0  0  0  0  0  0  0  0  0
   -2.2872    0.4009    1.9948 H   0  0  0  0  0  0  0  0  0  0  0  0
   -2.4133   -1.2238    1.1465 H   0  0  0  0  0  0  0  0  0  0  0  0
   -3.0731    0.2302   -0.5255 H   0  0  0  0  0  0  0  0  0  0  0  0
   -2.3521    2.1852    0.4802 H   0  0  0  0  0  0  0  0  0  0  0  0
   -1.5795   -1.2544   -1.4576 H   0  0  0  0  0  0  0  0  0  0  0  0
   -1.0914    0.6581   -2.6388 H   0  0  0  0  0  0  0  0  0  0  0  0
   -0.0272   -2.0503   -0.0338 H   0  0  0  0  0  0  0  0  0  0  0  0
  1  2  1  0
  2  3  1  0
  3  4  2  0
  4  5  1  0
  5  6  1  0
  6  7  1  0
  7  8  1  0
  8  9  1  0
  8 10  1  0
 10 11  1  0
 10 12  1  0
 12  3  1  0
 12  6  1  0
  1 13  1  0
  2 14  1  0
  2 15  1  0
  4 16  1  0
  5 17  1  0
  5 18  1  0
  7 19  1  0
  7 20  1  0
  8 21  1  6
  9 22  1  0
 10 23  1  6
 11 24  1  0
 12 25  1  1
M  END
$$$$

     RDKit          3D

 25 26  0  0  0  0  0  0  0  0999 V2000
   -2.4420    1.8752    0.2153 O   0  0  0  0  0  0  0  0  0  0  0  0
   -2.6524    0.5590    0.5615 C   0  0  0  0  0  0  0  0  0  0  0  0
   -1.4976   -0.3107    0.2198 C   0  0  0  0  0  0  0  0  0  0  0  0
   -1.4915   -1.3522   -0.5900 C   0  0  0  0  0  0  0  0  0  0  0  0
   -0.1098   -1.9410   -0.6469 C   0  0  0  0  0  0  0  0  0  0  0  0
    0.6076   -1.3278    0.4580 N   0  0  0  0  0  0  0  0  0  0  0  0
    1.9442   -0.9283    0.0759 C   0  0  0  0  0  0  0  0  0  0  0  0
    2.0460    0.5584    0.3681 C   0  0  1  0  0  0  0  0  0  0  0  0
    2.9737    1.1944   -0.4190 O   0  0  0  0  0  0  0  0  0  0  0  0
    0.6117    0.9950    0.0463 C   0  0  1  0  0  0  0  0  0  0  0  0
    0.4173    0.9137   -1.3225 O   0  0  0  0  0  0  0  0  0  0  0  0
   -0.1372   -0.1398    0.7485 C   0  0  1  0  0  0  0  0  0  0  0  0
   -3.2952    2.2847   -0.0428 H   0  0  0  0  0  0  0  0  0  0  0  0
   -3.5916    0.2115    0.0780 H   0  0  0  0  0  0  0  0  0  0  0  0
   -2.8657    0.5404    1.6641 H   0  0  0  0  0  0  0  0  0  0  0  0
   -2.3284   -1.7482   -1.1419 H   0  0  0  0  0  0  0  0  0  0  0  0
    0.3629   -1.7254   -1.6260 H   0  0  0  0  0  0  0  0  0  0  0  0
   -0.1600   -3.0275   -0.4331 H   0  0  0  0  0  0  0  0  0  0  0  0
    2.1096   -1.0923   -1.0139 H   0  0  0  0  0  0  0  0  0  0  0  0
    2.7344   -1.4416    0.6683 H   0  0  0  0  0  0  0  0  0  0  0  0
    2.2086    0.7253    1.4491 H   0  0  0  0  0  0  0  0  0  0  0  0
    3.7931    1.3271    0.1509 H   0  0  0  0  0  0  0  0  0  0  0  0
    0.3674    1.9695    0.4676 H   0  0  0  0  0  0  0  0  0  0  0  0
    0.5047    1.7981   -1.7631 H   0  0  0  0  0  0  0  0  0  0  0  0
   -0.1101    0.0825    1.8280 H   0  0  0  0  0  0  0  0  0  0  0  0
  1  2  1  0
  2  3  1  0
  3  4  2  0
  4  5  1  0
  5  6  1  0
  6  7  1  0
  7  8  1  0
  8  9  1  0
  8 10  1  0
 10 11  1  0
 10 12  1  0
 12  3  1  0
 12  6  1  0
  1 13  1  0
  2 14  1  0
  2 15  1  0
  4 16  1  0
  5 17  1  0
  5 18  1  0
  7 19  1  0
  7 20  1  0
  8 21  1  1
  9 22  1  0
 10 23  1  1
 11 24  1  0
 12 25  1  1
M  END
$$$$

     RDKit          3D

 25 26  0  0  0  0  0  0  0  0999 V2000
    3.4080    1.1416    0.4209 O   0  0  0  0  0  0  0  0  0  0  0  0
    2.1719    1.4317   -0.1549 C   0  0  0  0  0  0  0  0  0  0  0  0
    1.3465    0.2132   -0.3369 C   0  0  0  0  0  0  0  0  0  0  0  0
    1.7124   -1.0076   -0.0038 C   0  0  0  0  0  0  0  0  0  0  0  0
    0.6451   -1.9899   -0.3242 C   0  0  0  0  0  0  0  0  0  0  0  0
   -0.4514   -1.1919   -0.7918 N   0  0  0  0  0  0  0  0  0  0  0  0
   -1.5431   -1.2003    0.1610 C   0  0  0  0  0  0  0  0  0  0  0  0
   -2.2297    0.1112   -0.2174 C   0  0  1  0  0  0  0  0  0  0  0  0
   -3.2099    0.4756    0.6581 O   0  0  0  0  0  0  0  0  0  0  0  0
   -1.0006    1.0294   -0.1472 C   0  0  1  0  0  0  0  0  0  0  0  0
   -0.6558    1.1080    1.1952 O   0  0  0  0  0  0  0  0  0  0  0  0
    0.0064    0.1565   -0.9079 C   0  0  1  0  0  0  0  0  0  0  0  0
    3.9064    0.4705   -0.1184 H   0  0  0  0  0  0  0  0  0  0  0  0
    1.6720    2.1556    0.5480 H   0  0  0  0  0  0  0  0  0  0  0  0
    2.3181    1.9866   -1.1241 H   0  0  0  0  0  0  0  0  0  0  0  0
    2.6605   -1.3400    0.4535 H   0  0  0  0  0  0  0  0  0  0  0  0
    0.3633   -2.5209    0.6052 H   0  0  0  0  0  0  0  0  0  0  0  0
    0.9342   -2.6959   -1.1240 H   0  0  0  0  0  0  0  0  0  0  0  0
   -2.2020   -2.0612    0.0621 H   0  0  0  0  0  0  0  0  0  0  0  0
   -1.1053   -1.0623    1.1669 H   0  0  0  0  0  0  0  0  0  0  0  0
   -2.5330    0.0957   -1.2813 H   0  0  0  0  0  0  0  0  0  0  0  0
   -4.0941    0.2344    0.2350 H   0  0  0  0  0  0  0  0  0  0  0  0
   -1.1702    1.9882   -0.6301 H   0  0  0  0  0  0  0  0  0  0  0  0
   -0.9451    1.9313    1.6315 H   0  0  0  0  0  0  0  0  0  0  0  0
   -0.0045    0.5405   -1.9477 H   0  0  0  0  0  0  0  0  0  0  0  0
  1  2  1  0
  2  3  1  0
  3  4  2  0
  4  5  1  0
  5  6  1  0
  6  7  1  0
  7  8  1  0
  8  9  1  0
  8 10  1  0
 10 11  1  0
 10 12  1  0
 12  3  1  0
 12  6  1  0
  1 13  1  0
  2 14  1  0
  2 15  1  0
  4 16  1  0
  5 17  1  0
  5 18  1  0
  7 19  1  0
  7 20  1  0
  8 21  1  6
  9 22  1  0
 10 23  1  6
 11 24  1  0
 12 25  1  6
M  END
$$$$

     RDKit          3D

 25 26  0  0  0  0  0  0  0  0999 V2000
   -2.4663    1.7471    0.4231 O   0  0  0  0  0  0  0  0  0  0  0  0
   -2.6541    0.3835    0.4759 C   0  0  0  0  0  0  0  0  0  0  0  0
   -1.4101   -0.3465    0.1496 C   0  0  0  0  0  0  0  0  0  0  0  0
   -1.3045   -1.1908   -0.8683 C   0  0  0  0  0  0  0  0  0  0  0  0
    0.0718   -1.7293   -0.8883 C   0  0  0  0  0  0  0  0  0  0  0  0
    0.6410   -1.4254    0.3900 N   0  0  0  0  0  0  0  0  0  0  0  0
    2.0122   -1.0250    0.3691 C   0  0  0  0  0  0  0  0  0  0  0  0
    1.9736    0.4214   -0.0250 C   0  0  1  0  0  0  0  0  0  0  0  0
    1.9468    0.5552   -1.4132 O   0  0  0  0  0  0  0  0  0  0  0  0
    0.7059    0.9183    0.6014 C   0  0  1  0  0  0  0  0  0  0  0  0
    0.0823    1.8976   -0.1670 O   0  0  0  0  0  0  0  0  0  0  0  0
   -0.1214   -0.2841    0.8544 C   0  0  1  0  0  0  0  0  0  0  0  0
   -2.7003    2.1199   -0.4683 H   0  0  0  0  0  0  0  0  0  0  0  0
   -2.9578    0.1434    1.5308 H   0  0  0  0  0  0  0  0  0  0  0  0
   -3.5137    0.0695   -0.1482 H   0  0  0  0  0  0  0  0  0  0  0  0
   -2.1005   -1.4571   -1.5879 H   0  0  0  0  0  0  0  0  0  0  0  0
   -0.0065   -2.8338   -1.0496 H   0  0  0  0  0  0  0  0  0  0  0  0
    0.5965   -1.3159   -1.7506 H   0  0  0  0  0  0  0  0  0  0  0  0
    2.6521   -1.6139   -0.2854 H   0  0  0  0  0  0  0  0  0  0  0  0
    2.3835   -1.0785    1.4313 H   0  0  0  0  0  0  0  0  0  0  0  0
    2.8697    0.9850    0.3321 H   0  0  0  0  0  0  0  0  0  0  0  0
    2.4533    1.3322   -1.7395 H   0  0  0  0  0  0  0  0  0  0  0  0
    1.0163    1.3896    1.5811 H   0  0  0  0  0  0  0  0  0  0  0  0
    0.0958    2.7653    0.3051 H   0  0  0  0  0  0  0  0  0  0  0  0
   -0.2654   -0.4278    1.9471 H   0  0  0  0  0  0  0  0  0  0  0  0
  1  2  1  0
  2  3  1  0
  3  4  2  0
  4  5  1  0
  5  6  1  0
  6  7  1  0
  7  8  1  0
  8  9  1  0
  8 10  1  0
 10 11  1  0
 10 12  1  0
 12  3  1  0
 12  6  1  0
  1 13  1  0
  2 14  1  0
  2 15  1  0
  4 16  1  0
  5 17  1  0
  5 18  1  0
  7 19  1  0
  7 20  1  0
  8 21  1  1
  9 22  1  0
 10 23  1  1
 11 24  1  0
 12 25  1  1
M  END
$$$$

     RDKit          3D

 25 26  0  0  0  0  0  0  0  0999 V2000
    1.7504    0.9015    1.5642 O   0  0  0  0  0  0  0  0  0  0  0  0
    2.1824    0.5768    0.2841 C   0  0  0  0  0  0  0  0  0  0  0  0
    1.0922   -0.0477   -0.5245 C   0  0  0  0  0  0  0  0  0  0  0  0
    1.2336   -1.2777   -1.0131 C   0  0  0  0  0  0  0  0  0  0  0  0
   -0.0119   -1.6144   -1.7649 C   0  0  0  0  0  0  0  0  0  0  0  0
   -0.9966   -0.7430   -1.1422 N   0  0  0  0  0  0  0  0  0  0  0  0
   -1.2594   -1.1368    0.2388 C   0  0  0  0  0  0  0  0  0  0  0  0
   -1.6312    0.1437    0.9560 C   0  0  1  0  0  0  0  0  0  0  0  0
   -1.1786    0.1859    2.2609 O   0  0  0  0  0  0  0  0  0  0  0  0
   -1.0052    1.1901    0.0910 C   0  0  1  0  0  0  0  0  0  0  0  0
   -0.3663    2.2044    0.7411 O   0  0  0  0  0  0  0  0  0  0  0  0
   -0.2051    0.4551   -0.9383 C   0  0  1  0  0  0  0  0  0  0  0  0
    1.8552    0.0743    2.1239 H   0  0  0  0  0  0  0  0  0  0  0  0
    2.5700    1.4897   -0.2511 H   0  0  0  0  0  0  0  0  0  0  0  0
    3.0631   -0.0822    0.4016 H   0  0  0  0  0  0  0  0  0  0  0  0
    2.0710   -1.9657   -0.9215 H   0  0  0  0  0  0  0  0  0  0  0  0
   -0.2321   -2.6774   -1.6478 H   0  0  0  0  0  0  0  0  0  0  0  0
    0.0478   -1.3311   -2.8263 H   0  0  0  0  0  0  0  0  0  0  0  0
   -0.3687   -1.5970    0.7014 H   0  0  0  0  0  0  0  0  0  0  0  0
   -2.1300   -1.8156    0.2527 H   0  0  0  0  0  0  0  0  0  0  0  0
   -2.7385    0.2208    0.9994 H   0  0  0  0  0  0  0  0  0  0  0  0
   -1.2959    1.1194    2.5753 H   0  0  0  0  0  0  0  0  0  0  0  0
   -1.8568    1.6704   -0.4808 H   0  0  0  0  0  0  0  0  0  0  0  0
   -0.4081    3.0541    0.2365 H   0  0  0  0  0  0  0  0  0  0  0  0
   -0.1814    1.0024   -1.9164 H   0  0  0  0  0  0  0  0  0  0  0  0
  1  2  1  0
  2  3  1  0
  3  4  2  0
  4  5  1  0
  5  6  1  0
  6  7  1  0
  7  8  1  0
  8  9  1  0
  8 10  1  0
 10 11  1  0
 10 12  1  0
 12  3  1  0
 12  6  1  0
  1 13  1  0
  2 14  1  0
  2 15  1  0
  4 16  1  0
  5 17  1  0
  5 18  1  0
  7 19  1  0
  7 20  1  0
  8 21  1  1
  9 22  1  0
 10 23  1  6
 11 24  1  0
 12 25  1  6
M  END
$$$$
