
     RDKit          3D

 27 26  0  0  0  0  0  0  0  0999 V2000
   -3.7861    0.5503    0.3535 C   0  0  0  0  0  0  0  0  0  0  0  0
   -2.5217    0.2657   -0.1260 O   0  0  0  0  0  0  0  0  0  0  0  0
   -1.9447   -0.8381    0.4791 C   0  0  0  0  0  0  0  0  0  0  0  0
   -0.5614   -1.0037   -0.1682 C   0  0  1  0  0  0  0  0  0  0  0  0
   -0.8031   -1.1964   -1.5276 O   0  0  0  0  0  0  0  0  0  0  0  0
    0.1367    0.3381    0.0578 C   0  0  0  0  0  0  0  0  0  0  0  0
    1.3830    0.3548   -0.6485 N   0  0  0  0  0  0  0  0  0  0  0  0
    1.6482    1.6145   -1.2937 C   0  0  0  0  0  0  0  0  0  0  0  0
    2.7292   -0.1754    0.2523 S   0  0  0  0  0  6  0  0  0  0  0  0
    2.5955   -1.8454    0.7902 C   0  0  0  0  0  0  0  0  0  0  0  0
    3.9855   -0.0538   -0.5621 O   0  0  0  0  0  0  0  0  0  0  0  0
    2.8958    0.7055    1.4685 O   0  0  0  0  0  0  0  0  0  0  0  0
   -3.8163    0.7672    1.4350 H   0  0  0  0  0  0  0  0  0  0  0  0
   -4.5022   -0.2655    0.1455 H   0  0  0  0  0  0  0  0  0  0  0  0
   -4.1231    1.4820   -0.1611 H   0  0  0  0  0  0  0  0  0  0  0  0
   -1.8118   -0.5888    1.5501 H   0  0  0  0  0  0  0  0  0  0  0  0
   -2.5052   -1.7755    0.3118 H   0  0  0  0  0  0  0  0  0  0  0  0
   -0.0198   -1.8350    0.3032 H   0  0  0  0  0  0  0  0  0  0  0  0
   -1.6017   -0.7022   -1.8252 H   0  0  0  0  0  0  0  0  0  0  0  0
    0.3334    0.5118    1.1185 H   0  0  0  0  0  0  0  0  0  0  0  0
   -0.5127    1.1402   -0.3714 H   0  0  0  0  0  0  0  0  0  0  0  0
    0.7358    2.2560   -1.1349 H   0  0  0  0  0  0  0  0  0  0  0  0
    1.7487    1.4644   -2.3881 H   0  0  0  0  0  0  0  0  0  0  0  0
    2.5180    2.1120   -0.8514 H   0  0  0  0  0  0  0  0  0  0  0  0
    3.6185   -2.1718    1.1127 H   0  0  0  0  0  0  0  0  0  0  0  0
    2.2461   -2.5388    0.0041 H   0  0  0  0  0  0  0  0  0  0  0  0
    1.9355   -1.9519    1.6761 H   0  0  0  0  0  0  0  0  0  0  0  0
  1  2  1  0
  2  3  1  0
  3  4  1  0
  4  5  1  0
  4  6  1  0
  6  7  1  0
  7  8  1  0
  7  9  1  0
  9 10  1  0
  9 11  2  0
  9 12  2  0
  1 13  1  0
  1 14  1  0
  1 15  1  0
  3 16  1  0
  3 17  1  0
  4 18  1  1
  5 19  1  0
  6 20  1  0
  6 21  1  0
  8 22  1  0
  8 23  1  0
  8 24  1  0
 10 25  1  0
 10 26  1  0
 10 27  1  0
M  END
$$$$

     RDKit          3D

 27 26  0  0  0  0  0  0  0  0999 V2000
    3.6536    0.7991    1.2393 C   0  0  0  0  0  0  0  0  0  0  0  0
    2.2911    0.8053    0.9447 O   0  0  0  0  0  0  0  0  0  0  0  0
    2.1261    0.1898   -0.2937 C   0  0  0  0  0  0  0  0  0  0  0  0
    0.6801    0.1394   -0.7180 C   0  0  1  0  0  0  0  0  0  0  0  0
    0.6575   -0.5007   -1.9727 O   0  0  0  0  0  0  0  0  0  0  0  0
   -0.1475   -0.6640    0.2568 C   0  0  0  0  0  0  0  0  0  0  0  0
   -1.4865   -0.8320   -0.0748 N   0  0  0  0  0  0  0  0  0  0  0  0
   -1.9498   -2.0862   -0.5000 C   0  0  0  0  0  0  0  0  0  0  0  0
   -2.6106    0.2869    0.4513 S   0  0  0  0  0  6  0  0  0  0  0  0
   -2.3577    1.9285   -0.1454 C   0  0  0  0  0  0  0  0  0  0  0  0
   -3.9957   -0.1488    0.0644 O   0  0  0  0  0  0  0  0  0  0  0  0
   -2.5933    0.3402    1.9693 O   0  0  0  0  0  0  0  0  0  0  0  0
    3.8844    1.2692    2.2090 H   0  0  0  0  0  0  0  0  0  0  0  0
    4.1841    1.2745    0.3817 H   0  0  0  0  0  0  0  0  0  0  0  0
    4.0364   -0.2609    1.2665 H   0  0  0  0  0  0  0  0  0  0  0  0
    2.5991   -0.8186   -0.3193 H   0  0  0  0  0  0  0  0  0  0  0  0
    2.6710    0.8120   -1.0370 H   0  0  0  0  0  0  0  0  0  0  0  0
    0.3115    1.1700   -0.7642 H   0  0  0  0  0  0  0  0  0  0  0  0
    1.1688   -1.3523   -1.8457 H   0  0  0  0  0  0  0  0  0  0  0  0
    0.3517   -1.6734    0.3373 H   0  0  0  0  0  0  0  0  0  0  0  0
   -0.0413   -0.1882    1.2519 H   0  0  0  0  0  0  0  0  0  0  0  0
   -1.3385   -2.9160   -0.0868 H   0  0  0  0  0  0  0  0  0  0  0  0
   -2.0603   -2.1850   -1.6188 H   0  0  0  0  0  0  0  0  0  0  0  0
   -2.9802   -2.2481   -0.1044 H   0  0  0  0  0  0  0  0  0  0  0  0
   -3.3420    2.4482   -0.1048 H   0  0  0  0  0  0  0  0  0  0  0  0
   -2.0088    1.9499   -1.1802 H   0  0  0  0  0  0  0  0  0  0  0  0
   -1.7032    2.4609    0.5688 H   0  0  0  0  0  0  0  0  0  0  0  0
  1  2  1  0
  2  3  1  0
  3  4  1  0
  4  5  1  0
  4  6  1  0
  6  7  1  0
  7  8  1  0
  7  9  1  0
  9 10  1  0
  9 11  2  0
  9 12  2  0
  1 13  1  0
  1 14  1  0
  1 15  1  0
  3 16  1  0
  3 17  1  0
  4 18  1  6
  5 19  1  0
  6 20  1  0
  6 21  1  0
  8 22  1  0
  8 23  1  0
  8 24  1  0
 10 25  1  0
 10 26  1  0
 10 27  1  0
M  END
$$$$

     RDKit          3D

 27 26  0  0  0  0  0  0  0  0999 V2000
   -4.2601    0.7620   -0.7706 C   0  0  0  0  0  0  0  0  0  0  0  0
   -3.1472    0.7595    0.0651 O   0  0  0  0  0  0  0  0  0  0  0  0
   -2.1092   -0.0107   -0.4572 C   0  0  0  0  0  0  0  0  0  0  0  0
   -0.9670    0.0614    0.5269 C   0  0  1  0  0  0  0  0  0  0  0  0
   -1.4154   -0.4458    1.7340 O   0  0  0  0  0  0  0  0  0  0  0  0
    0.2756   -0.6353    0.0305 C   0  0  0  0  0  0  0  0  0  0  0  0
    1.3125   -0.4689    0.9996 N   0  0  0  0  0  0  0  0  0  0  0  0
    2.2323   -1.5785    1.0747 C   0  0  0  0  0  0  0  0  0  0  0  0
    2.2511    0.9645    0.7057 S   0  0  0  0  0  6  0  0  0  0  0  0
    3.0470    0.8471   -0.8918 C   0  0  0  0  0  0  0  0  0  0  0  0
    1.3686    2.1922    0.6983 O   0  0  0  0  0  0  0  0  0  0  0  0
    3.3034    1.0784    1.7648 O   0  0  0  0  0  0  0  0  0  0  0  0
   -4.6015   -0.3059   -0.8754 H   0  0  0  0  0  0  0  0  0  0  0  0
   -5.0835    1.2711   -0.2272 H   0  0  0  0  0  0  0  0  0  0  0  0
   -4.0421    1.2345   -1.7327 H   0  0  0  0  0  0  0  0  0  0  0  0
   -2.4842   -1.0491   -0.5600 H   0  0  0  0  0  0  0  0  0  0  0  0
   -1.8211    0.3438   -1.4673 H   0  0  0  0  0  0  0  0  0  0  0  0
   -0.7149    1.1327    0.6647 H   0  0  0  0  0  0  0  0  0  0  0  0
   -0.9313   -1.2811    1.9949 H   0  0  0  0  0  0  0  0  0  0  0  0
    0.1119   -1.7023   -0.1921 H   0  0  0  0  0  0  0  0  0  0  0  0
    0.5835   -0.1002   -0.9030 H   0  0  0  0  0  0  0  0  0  0  0  0
    1.8995   -2.3674    1.7745 H   0  0  0  0  0  0  0  0  0  0  0  0
    3.1863   -1.1825    1.4831 H   0  0  0  0  0  0  0  0  0  0  0  0
    2.3590   -1.9779    0.0532 H   0  0  0  0  0  0  0  0  0  0  0  0
    3.0118    1.8205   -1.3787 H   0  0  0  0  0  0  0  0  0  0  0  0
    4.1107    0.5505   -0.7394 H   0  0  0  0  0  0  0  0  0  0  0  0
    2.5243    0.0873   -1.5080 H   0  0  0  0  0  0  0  0  0  0  0  0
  1  2  1  0
  2  3  1  0
  3  4  1  0
  4  5  1  0
  4  6  1  0
  6  7  1  0
  7  8  1  0
  7  9  1  0
  9 10  1  0
  9 11  2  0
  9 12  2  0
  1 13  1  0
  1 14  1  0
  1 15  1  0
  3 16  1  0
  3 17  1  0
  4 18  1  1
  5 19  1  0
  6 20  1  0
  6 21  1  0
  8 22  1  0
  8 23  1  0
  8 24  1  0
 10 25  1  0
 10 26  1  0
 10 27  1  0
M  END
$$$$

     RDKit          3D

 27 26  0  0  0  0  0  0  0  0999 V2000
    4.2490    0.5911   -0.1611 C   0  0  0  0  0  0  0  0  0  0  0  0
    3.0191    0.2990    0.3819 O   0  0  0  0  0  0  0  0  0  0  0  0
    2.0031    0.2124   -0.5376 C   0  0  0  0  0  0  0  0  0  0  0  0
    0.7247   -0.1131    0.2217 C   0  0  1  0  0  0  0  0  0  0  0  0
    0.4696    0.8886    1.1307 O   0  0  0  0  0  0  0  0  0  0  0  0
   -0.3727   -0.3992   -0.7415 C   0  0  0  0  0  0  0  0  0  0  0  0
   -1.6084   -0.8042   -0.2425 N   0  0  0  0  0  0  0  0  0  0  0  0
   -1.9073   -2.1763   -0.1736 C   0  0  0  0  0  0  0  0  0  0  0  0
   -2.8024    0.2971    0.1085 S   0  0  0  0  0  6  0  0  0  0  0  0
   -2.4652    1.4949    1.3362 C   0  0  0  0  0  0  0  0  0  0  0  0
   -3.1725    1.0488   -1.1645 O   0  0  0  0  0  0  0  0  0  0  0  0
   -4.0657   -0.4402    0.5291 O   0  0  0  0  0  0  0  0  0  0  0  0
    4.3067    1.5390   -0.7012 H   0  0  0  0  0  0  0  0  0  0  0  0
    4.6128   -0.2371   -0.8255 H   0  0  0  0  0  0  0  0  0  0  0  0
    4.9854    0.6290    0.6748 H   0  0  0  0  0  0  0  0  0  0  0  0
    2.1551   -0.6269   -1.2633 H   0  0  0  0  0  0  0  0  0  0  0  0
    1.8076    1.1748   -1.0662 H   0  0  0  0  0  0  0  0  0  0  0  0
    0.9392   -1.0409    0.8127 H   0  0  0  0  0  0  0  0  0  0  0  0
    0.9956    0.7293    1.9423 H   0  0  0  0  0  0  0  0  0  0  0  0
   -0.5005    0.4954   -1.3842 H   0  0  0  0  0  0  0  0  0  0  0  0
    0.0125   -1.1964   -1.4432 H   0  0  0  0  0  0  0  0  0  0  0  0
   -1.2118   -2.7496   -0.8208 H   0  0  0  0  0  0  0  0  0  0  0  0
   -2.9305   -2.3517   -0.5753 H   0  0  0  0  0  0  0  0  0  0  0  0
   -1.8957   -2.5483    0.8726 H   0  0  0  0  0  0  0  0  0  0  0  0
   -3.4558    1.9455    1.6385 H   0  0  0  0  0  0  0  0  0  0  0  0
   -2.0379    0.9964    2.2394 H   0  0  0  0  0  0  0  0  0  0  0  0
   -1.8538    2.3426    1.0148 H   0  0  0  0  0  0  0  0  0  0  0  0
  1  2  1  0
  2  3  1  0
  3  4  1  0
  4  5  1  0
  4  6  1  0
  6  7  1  0
  7  8  1  0
  7  9  1  0
  9 10  1  0
  9 11  2  0
  9 12  2  0
  1 13  1  0
  1 14  1  0
  1 15  1  0
  3 16  1  0
  3 17  1  0
  4 18  1  1
  5 19  1  0
  6 20  1  0
  6 21  1  0
  8 22  1  0
  8 23  1  0
  8 24  1  0
 10 25  1  0
 10 26  1  0
 10 27  1  0
M  END
$$$$

     RDKit          3D

 27 26  0  0  0  0  0  0  0  0999 V2000
   -2.0964    0.5987    2.6728 C   0  0  0  0  0  0  0  0  0  0  0  0
   -2.7485    0.3625    1.4755 O   0  0  0  0  0  0  0  0  0  0  0  0
   -1.9175    0.2488    0.4053 C   0  0  0  0  0  0  0  0  0  0  0  0
   -0.9059   -0.8624    0.4633 C   0  0  1  0  0  0  0  0  0  0  0  0
   -1.5753   -2.0999    0.5856 O   0  0  0  0  0  0  0  0  0  0  0  0
   -0.0572   -0.9014   -0.7945 C   0  0  0  0  0  0  0  0  0  0  0  0
    0.6696    0.2882   -1.0413 N   0  0  0  0  0  0  0  0  0  0  0  0
    0.6129    0.7789   -2.3845 C   0  0  0  0  0  0  0  0  0  0  0  0
    2.2766    0.3226   -0.4851 S   0  0  0  0  0  6  0  0  0  0  0  0
    2.2978    0.1450    1.2755 C   0  0  0  0  0  0  0  0  0  0  0  0
    2.9237    1.6444   -0.8593 O   0  0  0  0  0  0  0  0  0  0  0  0
    3.0588   -0.8008   -1.1054 O   0  0  0  0  0  0  0  0  0  0  0  0
   -1.4221   -0.2535    2.8738 H   0  0  0  0  0  0  0  0  0  0  0  0
   -2.8076    0.7529    3.5056 H   0  0  0  0  0  0  0  0  0  0  0  0
   -1.4450    1.4837    2.5119 H   0  0  0  0  0  0  0  0  0  0  0  0
   -2.5029    0.0916   -0.5466 H   0  0  0  0  0  0  0  0  0  0  0  0
   -1.4098    1.2365    0.2366 H   0  0  0  0  0  0  0  0  0  0  0  0
   -0.2504   -0.7521    1.3408 H   0  0  0  0  0  0  0  0  0  0  0  0
   -1.3636   -2.5221    1.4501 H   0  0  0  0  0  0  0  0  0  0  0  0
   -0.6843   -1.2247   -1.6622 H   0  0  0  0  0  0  0  0  0  0  0  0
    0.6895   -1.7343   -0.6373 H   0  0  0  0  0  0  0  0  0  0  0  0
    0.8741    1.8763   -2.3626 H   0  0  0  0  0  0  0  0  0  0  0  0
   -0.4119    0.7261   -2.8027 H   0  0  0  0  0  0  0  0  0  0  0  0
    1.2747    0.2342   -3.0712 H   0  0  0  0  0  0  0  0  0  0  0  0
    2.1095   -0.9105    1.5386 H   0  0  0  0  0  0  0  0  0  0  0  0
    1.5141    0.7901    1.7160 H   0  0  0  0  0  0  0  0  0  0  0  0
    3.2968    0.4813    1.6421 H   0  0  0  0  0  0  0  0  0  0  0  0
  1  2  1  0
  2  3  1  0
  3  4  1  0
  4  5  1  0
  4  6  1  0
  6  7  1  0
  7  8  1  0
  7  9  1  0
  9 10  1  0
  9 11  2  0
  9 12  2  0
  1 13  1  0
  1 14  1  0
  1 15  1  0
  3 16  1  0
  3 17  1  0
  4 18  1  1
  5 19  1  0
  6 20  1  0
  6 21  1  0
  8 22  1  0
  8 23  1  0
  8 24  1  0
 10 25  1  0
 10 26  1  0
 10 27  1  0
M  END
$$$$

     RDKit          3D

 27 26  0  0  0  0  0  0  0  0999 V2000
    3.3444    1.5489    0.6816 C   0  0  0  0  0  0  0  0  0  0  0  0
    2.1722    1.0983    0.0630 O   0  0  0  0  0  0  0  0  0  0  0  0
    2.2973   -0.2556   -0.1525 C   0  0  0  0  0  0  0  0  0  0  0  0
    1.0207   -0.7411   -0.8252 C   0  0  1  0  0  0  0  0  0  0  0  0
    1.1722   -2.1199   -1.0337 O   0  0  0  0  0  0  0  0  0  0  0  0
   -0.1059   -0.5249    0.1611 C   0  0  0  0  0  0  0  0  0  0  0  0
   -1.3589   -1.0467   -0.2928 N   0  0  0  0  0  0  0  0  0  0  0  0
   -2.1394   -1.4329    0.8635 C   0  0  0  0  0  0  0  0  0  0  0  0
   -2.2331    0.1434   -1.1824 S   0  0  0  0  0  6  0  0  0  0  0  0
   -2.6258    1.5611   -0.2243 C   0  0  0  0  0  0  0  0  0  0  0  0
   -1.4516    0.5817   -2.3876 O   0  0  0  0  0  0  0  0  0  0  0  0
   -3.5293   -0.4497   -1.6815 O   0  0  0  0  0  0  0  0  0  0  0  0
    3.4851    1.0180    1.6524 H   0  0  0  0  0  0  0  0  0  0  0  0
    3.2052    2.6131    0.9036 H   0  0  0  0  0  0  0  0  0  0  0  0
    4.1682    1.3427   -0.0243 H   0  0  0  0  0  0  0  0  0  0  0  0
    2.4049   -0.7381    0.8481 H   0  0  0  0  0  0  0  0  0  0  0  0
    3.1961   -0.5342   -0.7307 H   0  0  0  0  0  0  0  0  0  0  0  0
    0.8555   -0.1871   -1.7497 H   0  0  0  0  0  0  0  0  0  0  0  0
    1.1323   -2.5689   -0.1611 H   0  0  0  0  0  0  0  0  0  0  0  0
   -0.1929    0.5734    0.3245 H   0  0  0  0  0  0  0  0  0  0  0  0
    0.2367   -0.9950    1.1244 H   0  0  0  0  0  0  0  0  0  0  0  0
   -3.2109   -1.5456    0.6125 H   0  0  0  0  0  0  0  0  0  0  0  0
   -1.9529   -0.6983    1.6595 H   0  0  0  0  0  0  0  0  0  0  0  0
   -1.6915   -2.4047    1.2202 H   0  0  0  0  0  0  0  0  0  0  0  0
   -3.7217    1.7905   -0.2247 H   0  0  0  0  0  0  0  0  0  0  0  0
   -2.3367    1.4804    0.8373 H   0  0  0  0  0  0  0  0  0  0  0  0
   -2.1401    2.4912   -0.6137 H   0  0  0  0  0  0  0  0  0  0  0  0
  1  2  1  0
  2  3  1  0
  3  4  1  0
  4  5  1  0
  4  6  1  0
  6  7  1  0
  7  8  1  0
  7  9  1  0
  9 10  1  0
  9 11  2  0
  9 12  2  0
  1 13  1  0
  1 14  1  0
  1 15  1  0
  3 16  1  0
  3 17  1  0
  4 18  1  6
  5 19  1  0
  6 20  1  0
  6 21  1  0
  8 22  1  0
  8 23  1  0
  8 24  1  0
 10 25  1  0
 10 26  1  0
 10 27  1  0
M  END
$$$$

     RDKit          3D

 27 26  0  0  0  0  0  0  0  0999 V2000
    3.3824    0.5842    1.1401 C   0  0  0  0  0  0  0  0  0  0  0  0
    2.6009    1.4624    0.4521 O   0  0  0  0  0  0  0  0  0  0  0  0
    2.0170    1.0661   -0.7114 C   0  0  0  0  0  0  0  0  0  0  0  0
    1.0838   -0.0737   -0.5735 C   0  0  1  0  0  0  0  0  0  0  0  0
    1.6935   -1.2126   -0.1359 O   0  0  0  0  0  0  0  0  0  0  0  0
   -0.0746    0.3310    0.3575 C   0  0  0  0  0  0  0  0  0  0  0  0
   -1.0032   -0.7362    0.3620 N   0  0  0  0  0  0  0  0  0  0  0  0
   -1.3717   -1.2463    1.6374 C   0  0  0  0  0  0  0  0  0  0  0  0
   -2.2198   -0.6819   -0.8038 S   0  0  0  0  0  6  0  0  0  0  0  0
   -3.2814    0.7167   -0.6829 C   0  0  0  0  0  0  0  0  0  0  0  0
   -1.5971   -0.7087   -2.1724 O   0  0  0  0  0  0  0  0  0  0  0  0
   -3.0727   -1.9174   -0.6773 O   0  0  0  0  0  0  0  0  0  0  0  0
    2.8568   -0.2990    1.4939 H   0  0  0  0  0  0  0  0  0  0  0  0
    3.8062    1.1165    2.0263 H   0  0  0  0  0  0  0  0  0  0  0  0
    4.2903    0.3007    0.5335 H   0  0  0  0  0  0  0  0  0  0  0  0
    2.7965    0.7999   -1.5014 H   0  0  0  0  0  0  0  0  0  0  0  0
    1.4844    1.9315   -1.2003 H   0  0  0  0  0  0  0  0  0  0  0  0
    0.6273   -0.2996   -1.5830 H   0  0  0  0  0  0  0  0  0  0  0  0
    1.1115   -1.7679    0.4431 H   0  0  0  0  0  0  0  0  0  0  0  0
   -0.5143    1.2478   -0.0833 H   0  0  0  0  0  0  0  0  0  0  0  0
    0.3588    0.5908    1.3273 H   0  0  0  0  0  0  0  0  0  0  0  0
   -1.3064   -2.3535    1.6120 H   0  0  0  0  0  0  0  0  0  0  0  0
   -2.4223   -0.9894    1.8763 H   0  0  0  0  0  0  0  0  0  0  0  0
   -0.7120   -0.8984    2.4456 H   0  0  0  0  0  0  0  0  0  0  0  0
   -2.7646    1.5380   -0.1603 H   0  0  0  0  0  0  0  0  0  0  0  0
   -3.5764    1.0278   -1.7061 H   0  0  0  0  0  0  0  0  0  0  0  0
   -4.1927    0.4712   -0.0826 H   0  0  0  0  0  0  0  0  0  0  0  0
  1  2  1  0
  2  3  1  0
  3  4  1  0
  4  5  1  0
  4  6  1  0
  6  7  1  0
  7  8  1  0
  7  9  1  0
  9 10  1  0
  9 11  2  0
  9 12  2  0
  1 13  1  0
  1 14  1  0
  1 15  1  0
  3 16  1  0
  3 17  1  0
  4 18  1  6
  5 19  1  0
  6 20  1  0
  6 21  1  0
  8 22  1  0
  8 23  1  0
  8 24  1  0
 10 25  1  0
 10 26  1  0
 10 27  1  0
M  END
$$$$

     RDKit          3D

 27 26  0  0  0  0  0  0  0  0999 V2000
    3.8108   -0.9686    0.0119 C   0  0  0  0  0  0  0  0  0  0  0  0
    2.6304   -0.2810   -0.2056 O   0  0  0  0  0  0  0  0  0  0  0  0
    2.1524    0.1984    1.0105 C   0  0  0  0  0  0  0  0  0  0  0  0
    0.8515    0.9433    0.6860 C   0  0  1  0  0  0  0  0  0  0  0  0
    1.2246    1.9694   -0.2039 O   0  0  0  0  0  0  0  0  0  0  0  0
   -0.0865   -0.0250    0.0038 C   0  0  0  0  0  0  0  0  0  0  0  0
   -1.2724    0.6277   -0.4419 N   0  0  0  0  0  0  0  0  0  0  0  0
   -1.7442    0.2237   -1.7281 C   0  0  0  0  0  0  0  0  0  0  0  0
   -2.5393    0.6508    0.6938 S   0  0  0  0  0  6  0  0  0  0  0  0
   -3.0974   -0.9632    1.1414 C   0  0  0  0  0  0  0  0  0  0  0  0
   -3.7134    1.3717    0.0592 O   0  0  0  0  0  0  0  0  0  0  0  0
   -2.0963    1.4251    1.8916 O   0  0  0  0  0  0  0  0  0  0  0  0
    4.1878   -1.3515   -0.9782 H   0  0  0  0  0  0  0  0  0  0  0  0
    3.6999   -1.8345    0.6897 H   0  0  0  0  0  0  0  0  0  0  0  0
    4.5648   -0.2828    0.4578 H   0  0  0  0  0  0  0  0  0  0  0  0
    1.9859   -0.6002    1.7459 H   0  0  0  0  0  0  0  0  0  0  0  0
    2.8892    0.9482    1.3643 H   0  0  0  0  0  0  0  0  0  0  0  0
    0.4011    1.3329    1.6035 H   0  0  0  0  0  0  0  0  0  0  0  0
    1.4084    1.5598   -1.0855 H   0  0  0  0  0  0  0  0  0  0  0  0
    0.4304   -0.6280   -0.7656 H   0  0  0  0  0  0  0  0  0  0  0  0
   -0.3939   -0.7627    0.7993 H   0  0  0  0  0  0  0  0  0  0  0  0
   -2.7746    0.6515   -1.8566 H   0  0  0  0  0  0  0  0  0  0  0  0
   -1.1403    0.6380   -2.5705 H   0  0  0  0  0  0  0  0  0  0  0  0
   -1.7706   -0.8724   -1.8822 H   0  0  0  0  0  0  0  0  0  0  0  0
   -2.9152   -1.1281    2.2183 H   0  0  0  0  0  0  0  0  0  0  0  0
   -4.1805   -1.1109    0.9595 H   0  0  0  0  0  0  0  0  0  0  0  0
   -2.5124   -1.7315    0.5752 H   0  0  0  0  0  0  0  0  0  0  0  0
  1  2  1  0
  2  3  1  0
  3  4  1  0
  4  5  1  0
  4  6  1  0
  6  7  1  0
  7  8  1  0
  7  9  1  0
  9 10  1  0
  9 11  2  0
  9 12  2  0
  1 13  1  0
  1 14  1  0
  1 15  1  0
  3 16  1  0
  3 17  1  0
  4 18  1  1
  5 19  1  0
  6 20  1  0
  6 21  1  0
  8 22  1  0
  8 23  1  0
  8 24  1  0
 10 25  1  0
 10 26  1  0
 10 27  1  0
M  END
$$$$
