
     RDKit          3D

 29 29  0  0  0  0  0  0  0  0999 V2000
   -3.0203    0.2543    1.5369 C   0  0  0  0  0  0  0  0  0  0  0  0
   -3.1939    0.0620    0.0625 C   0  0  2  0  0  0  0  0  0  0  0  0
   -4.5528   -0.0596   -0.2158 O   0  0  0  0  0  0  0  0  0  0  0  0
   -2.4200   -1.1231   -0.4772 C   0  0  0  0  0  0  0  0  0  0  0  0
   -1.0207   -1.0377   -0.2128 N   0  0  0  0  0  0  0  0  0  0  0  0
   -0.1746    0.0049   -0.6653 C   0  0  0  0  0  0  0  0  0  0  0  0
   -0.6931    0.9229   -1.3499 O   0  0  0  0  0  0  0  0  0  0  0  0
    1.2679    0.0736   -0.3808 C   0  0  2  0  0  0  0  0  0  0  0  0
    1.5851    0.0063    1.0908 C   0  0  0  0  0  0  0  0  0  0  0  0
    3.0409   -0.1855    1.1894 N   0  0  0  0  0  0  0  0  0  0  0  0
    3.7310    0.8883    0.5062 C   0  0  0  0  0  0  0  0  0  0  0  0
    3.2614    0.9233   -0.9216 C   0  0  0  0  0  0  0  0  0  0  0  0
    1.8882    1.1718   -0.9189 O   0  0  0  0  0  0  0  0  0  0  0  0
   -3.9520    0.7021    1.9404 H   0  0  0  0  0  0  0  0  0  0  0  0
   -2.2208    1.0103    1.7249 H   0  0  0  0  0  0  0  0  0  0  0  0
   -2.8027   -0.7139    2.0393 H   0  0  0  0  0  0  0  0  0  0  0  0
   -2.8493    1.0078   -0.4414 H   0  0  0  0  0  0  0  0  0  0  0  0
   -4.8116   -1.0273   -0.1298 H   0  0  0  0  0  0  0  0  0  0  0  0
   -2.8312   -2.0341    0.0022 H   0  0  0  0  0  0  0  0  0  0  0  0
   -2.6757   -1.1972   -1.5558 H   0  0  0  0  0  0  0  0  0  0  0  0
   -0.5309   -1.7875    0.3614 H   0  0  0  0  0  0  0  0  0  0  0  0
    1.7370   -0.8396   -0.8454 H   0  0  0  0  0  0  0  0  0  0  0  0
    1.3435    0.9149    1.6445 H   0  0  0  0  0  0  0  0  0  0  0  0
    1.1085   -0.8808    1.5515 H   0  0  0  0  0  0  0  0  0  0  0  0
    3.2609   -1.0892    0.6736 H   0  0  0  0  0  0  0  0  0  0  0  0
    3.4999    1.8365    1.0130 H   0  0  0  0  0  0  0  0  0  0  0  0
    4.8152    0.6338    0.5320 H   0  0  0  0  0  0  0  0  0  0  0  0
    3.4043   -0.0995   -1.3436 H   0  0  0  0  0  0  0  0  0  0  0  0
    3.8056    1.6622   -1.5373 H   0  0  0  0  0  0  0  0  0  0  0  0
  1  2  1  0
  2  3  1  0
  2  4  1  0
  4  5  1  0
  5  6  1  0
  6  7  2  0
  6  8  1  0
  8  9  1  0
  9 10  1  0
 10 11  1  0
 11 12  1  0
 12 13  1  0
 13  8  1  0
  1 14  1  0
  1 15  1  0
  1 16  1  0
  2 17  1  6
  3 18  1  0
  4 19  1  0
  4 20  1  0
  5 21  1  0
  8 22  1  6
  9 23  1  0
  9 24  1  0
 10 25  1  0
 11 26  1  0
 11 27  1  0
 12 28  1  0
 12 29  1  0
M  END
$$$$

     RDKit          3D

 29 29  0  0  0  0  0  0  0  0999 V2000
    4.2775   -0.6977   -0.7749 C   0  0  0  0  0  0  0  0  0  0  0  0
    2.9508    0.0271   -0.7039 C   0  0  2  0  0  0  0  0  0  0  0  0
    3.2096    1.3872   -0.6228 O   0  0  0  0  0  0  0  0  0  0  0  0
    2.2099   -0.4832    0.5099 C   0  0  0  0  0  0  0  0  0  0  0  0
    0.9437    0.1557    0.6986 N   0  0  0  0  0  0  0  0  0  0  0  0
   -0.0718    0.0843   -0.2900 C   0  0  0  0  0  0  0  0  0  0  0  0
    0.0775   -0.5309   -1.3671 O   0  0  0  0  0  0  0  0  0  0  0  0
   -1.3579    0.7657   -0.0342 C   0  0  2  0  0  0  0  0  0  0  0  0
   -1.8731    0.3085    1.2872 C   0  0  0  0  0  0  0  0  0  0  0  0
   -2.9409   -0.6088    1.2759 N   0  0  0  0  0  0  0  0  0  0  0  0
   -3.6449   -0.7924    0.0634 C   0  0  0  0  0  0  0  0  0  0  0  0
   -3.5407    0.4948   -0.7501 C   0  0  0  0  0  0  0  0  0  0  0  0
   -2.1919    0.5896   -1.0941 O   0  0  0  0  0  0  0  0  0  0  0  0
    4.6482   -0.7738   -1.8176 H   0  0  0  0  0  0  0  0  0  0  0  0
    4.1526   -1.6942   -0.3120 H   0  0  0  0  0  0  0  0  0  0  0  0
    4.9885   -0.1248   -0.1444 H   0  0  0  0  0  0  0  0  0  0  0  0
    2.4060   -0.1471   -1.6443 H   0  0  0  0  0  0  0  0  0  0  0  0
    3.6669    1.6373   -1.4691 H   0  0  0  0  0  0  0  0  0  0  0  0
    2.1221   -1.5963    0.4218 H   0  0  0  0  0  0  0  0  0  0  0  0
    2.8758   -0.3137    1.3800 H   0  0  0  0  0  0  0  0  0  0  0  0
    0.7864    0.6858    1.6008 H   0  0  0  0  0  0  0  0  0  0  0  0
   -1.1054    1.8687   -0.0026 H   0  0  0  0  0  0  0  0  0  0  0  0
   -2.1912    1.2179    1.8581 H   0  0  0  0  0  0  0  0  0  0  0  0
   -1.0485   -0.1340    1.9217 H   0  0  0  0  0  0  0  0  0  0  0  0
   -3.6181   -0.4666    2.0569 H   0  0  0  0  0  0  0  0  0  0  0  0
   -3.1147   -1.5758   -0.5421 H   0  0  0  0  0  0  0  0  0  0  0  0
   -4.6926   -1.0664    0.2675 H   0  0  0  0  0  0  0  0  0  0  0  0
   -3.8048    1.3476   -0.0972 H   0  0  0  0  0  0  0  0  0  0  0  0
   -4.1190    0.4355   -1.6753 H   0  0  0  0  0  0  0  0  0  0  0  0
  1  2  1  0
  2  3  1  0
  2  4  1  0
  4  5  1  0
  5  6  1  0
  6  7  2  0
  6  8  1  0
  8  9  1  0
  9 10  1  0
 10 11  1  0
 11 12  1  0
 12 13  1  0
 13  8  1  0
  1 14  1  0
  1 15  1  0
  1 16  1  0
  2 17  1  6
  3 18  1  0
  4 19  1  0
  4 20  1  0
  5 21  1  0
  8 22  1  1
  9 23  1  0
  9 24  1  0
 10 25  1  0
 11 26  1  0
 11 27  1  0
 12 28  1  0
 12 29  1  0
M  END
$$$$

     RDKit          3D

 29 29  0  0  0  0  0  0  0  0999 V2000
    3.4536   -1.2560    0.2212 C   0  0  0  0  0  0  0  0  0  0  0  0
    3.5498    0.1688   -0.2766 C   0  0  2  0  0  0  0  0  0  0  0  0
    3.8754    1.0543    0.7197 O   0  0  0  0  0  0  0  0  0  0  0  0
    2.2606    0.5135   -0.9779 C   0  0  0  0  0  0  0  0  0  0  0  0
    1.1317    0.5300   -0.0711 N   0  0  0  0  0  0  0  0  0  0  0  0
   -0.1323    0.8518   -0.6724 C   0  0  0  0  0  0  0  0  0  0  0  0
   -0.2088    1.0952   -1.9025 O   0  0  0  0  0  0  0  0  0  0  0  0
   -1.3805    0.9079    0.1283 C   0  0  2  0  0  0  0  0  0  0  0  0
   -1.5272   -0.4199    0.8147 C   0  0  0  0  0  0  0  0  0  0  0  0
   -2.8635   -0.7677    1.1684 N   0  0  0  0  0  0  0  0  0  0  0  0
   -3.8795   -0.2404    0.3222 C   0  0  0  0  0  0  0  0  0  0  0  0
   -3.2291    0.1446   -1.0022 C   0  0  0  0  0  0  0  0  0  0  0  0
   -2.4153    1.2350   -0.7036 O   0  0  0  0  0  0  0  0  0  0  0  0
    3.2094   -1.1863    1.3116 H   0  0  0  0  0  0  0  0  0  0  0  0
    4.4139   -1.7883    0.1386 H   0  0  0  0  0  0  0  0  0  0  0  0
    2.6452   -1.7977   -0.3122 H   0  0  0  0  0  0  0  0  0  0  0  0
    4.3490    0.1869   -1.0521 H   0  0  0  0  0  0  0  0  0  0  0  0
    3.1445    1.2882    1.3227 H   0  0  0  0  0  0  0  0  0  0  0  0
    2.2943    1.5107   -1.4596 H   0  0  0  0  0  0  0  0  0  0  0  0
    2.0491   -0.2224   -1.7692 H   0  0  0  0  0  0  0  0  0  0  0  0
    1.1634    0.3350    0.9404 H   0  0  0  0  0  0  0  0  0  0  0  0
   -1.3159    1.7349    0.8962 H   0  0  0  0  0  0  0  0  0  0  0  0
   -1.0657   -1.2489    0.2212 H   0  0  0  0  0  0  0  0  0  0  0  0
   -0.9282   -0.3661    1.7547 H   0  0  0  0  0  0  0  0  0  0  0  0
   -2.9606   -1.8226    1.1903 H   0  0  0  0  0  0  0  0  0  0  0  0
   -4.2483    0.7138    0.7914 H   0  0  0  0  0  0  0  0  0  0  0  0
   -4.7382   -0.9180    0.1657 H   0  0  0  0  0  0  0  0  0  0  0  0
   -2.6710   -0.7065   -1.4132 H   0  0  0  0  0  0  0  0  0  0  0  0
   -3.9759    0.4699   -1.7508 H   0  0  0  0  0  0  0  0  0  0  0  0
  1  2  1  0
  2  3  1  0
  2  4  1  0
  4  5  1  0
  5  6  1  0
  6  7  2  0
  6  8  1  0
  8  9  1  0
  9 10  1  0
 10 11  1  0
 11 12  1  0
 12 13  1  0
 13  8  1  0
  1 14  1  0
  1 15  1  0
  1 16  1  0
  2 17  1  6
  3 18  1  0
  4 19  1  0
  4 20  1  0
  5 21  1  0
  8 22  1  1
  9 23  1  0
  9 24  1  0
 10 25  1  0
 11 26  1  0
 11 27  1  0
 12 28  1  0
 12 29  1  0
M  END
$$$$

     RDKit          3D

 29 29  0  0  0  0  0  0  0  0999 V2000
    4.6071    0.6842    0.1432 C   0  0  0  0  0  0  0  0  0  0  0  0
    3.1636    0.7038    0.5908 C   0  0  2  0  0  0  0  0  0  0  0  0
    3.0372    0.0405    1.8083 O   0  0  0  0  0  0  0  0  0  0  0  0
    2.3330   -0.0108   -0.4262 C   0  0  0  0  0  0  0  0  0  0  0  0
    0.9495    0.0075    0.0273 N   0  0  0  0  0  0  0  0  0  0  0  0
   -0.0875   -0.6019   -0.7399 C   0  0  0  0  0  0  0  0  0  0  0  0
    0.2146   -1.1544   -1.8133 O   0  0  0  0  0  0  0  0  0  0  0  0
   -1.4736   -0.5536   -0.2323 C   0  0  2  0  0  0  0  0  0  0  0  0
   -2.4318    0.0970   -1.1983 C   0  0  0  0  0  0  0  0  0  0  0  0
   -3.7816   -0.2041   -0.6960 N   0  0  0  0  0  0  0  0  0  0  0  0
   -3.8896    0.3137    0.6359 C   0  0  0  0  0  0  0  0  0  0  0  0
   -2.8183   -0.2517    1.5270 C   0  0  0  0  0  0  0  0  0  0  0  0
   -1.5661    0.1163    0.9860 O   0  0  0  0  0  0  0  0  0  0  0  0
    5.2309    0.6279    1.0528 H   0  0  0  0  0  0  0  0  0  0  0  0
    4.8123    1.6334   -0.3784 H   0  0  0  0  0  0  0  0  0  0  0  0
    4.7577   -0.1928   -0.4990 H   0  0  0  0  0  0  0  0  0  0  0  0
    2.8294    1.7505    0.6899 H   0  0  0  0  0  0  0  0  0  0  0  0
    3.1990   -0.9285    1.6601 H   0  0  0  0  0  0  0  0  0  0  0  0
    2.3467    0.4580   -1.4230 H   0  0  0  0  0  0  0  0  0  0  0  0
    2.6201   -1.0897   -0.4729 H   0  0  0  0  0  0  0  0  0  0  0  0
    0.6757    0.4677    0.9281 H   0  0  0  0  0  0  0  0  0  0  0  0
   -1.8666   -1.5891   -0.0451 H   0  0  0  0  0  0  0  0  0  0  0  0
   -2.2830    1.1895   -1.2879 H   0  0  0  0  0  0  0  0  0  0  0  0
   -2.3001   -0.3760   -2.1911 H   0  0  0  0  0  0  0  0  0  0  0  0
   -3.8023   -1.2653   -0.6368 H   0  0  0  0  0  0  0  0  0  0  0  0
   -4.8955    0.0561    1.0255 H   0  0  0  0  0  0  0  0  0  0  0  0
   -3.7934    1.4072    0.6459 H   0  0  0  0  0  0  0  0  0  0  0  0
   -2.9305    0.0361    2.5680 H   0  0  0  0  0  0  0  0  0  0  0  0
   -2.8568   -1.3715    1.4295 H   0  0  0  0  0  0  0  0  0  0  0  0
  1  2  1  0
  2  3  1  0
  2  4  1  0
  4  5  1  0
  5  6  1  0
  6  7  2  0
  6  8  1  0
  8  9  1  0
  9 10  1  0
 10 11  1  0
 11 12  1  0
 12 13  1  0
 13  8  1  0
  1 14  1  0
  1 15  1  0
  1 16  1  0
  2 17  1  1
  3 18  1  0
  4 19  1  0
  4 20  1  0
  5 21  1  0
  8 22  1  1
  9 23  1  0
  9 24  1  0
 10 25  1  0
 11 26  1  0
 11 27  1  0
 12 28  1  0
 12 29  1  0
M  END
$$$$

     RDKit          3D

 29 29  0  0  0  0  0  0  0  0999 V2000
    3.6694    0.7510   -0.4622 C   0  0  0  0  0  0  0  0  0  0  0  0
    3.3057   -0.6373    0.0129 C   0  0  2  0  0  0  0  0  0  0  0  0
    2.8874   -1.4200   -1.0614 O   0  0  0  0  0  0  0  0  0  0  0  0
    2.2740   -0.6076    1.0893 C   0  0  0  0  0  0  0  0  0  0  0  0
    1.0052   -0.0586    0.6271 N   0  0  0  0  0  0  0  0  0  0  0  0
   -0.1203    0.0646    1.4846 C   0  0  0  0  0  0  0  0  0  0  0  0
    0.0226   -0.3232    2.6726 O   0  0  0  0  0  0  0  0  0  0  0  0
   -1.4298    0.6328    1.0018 C   0  0  2  0  0  0  0  0  0  0  0  0
   -2.4824   -0.3611    1.3206 C   0  0  0  0  0  0  0  0  0  0  0  0
   -3.7263   -0.1764    0.6458 N   0  0  0  0  0  0  0  0  0  0  0  0
   -3.6325    0.7225   -0.4871 C   0  0  0  0  0  0  0  0  0  0  0  0
   -2.2840    0.4377   -1.1399 C   0  0  0  0  0  0  0  0  0  0  0  0
   -1.3086    0.9714   -0.3161 O   0  0  0  0  0  0  0  0  0  0  0  0
    3.0869    0.9975   -1.3916 H   0  0  0  0  0  0  0  0  0  0  0  0
    3.4736    1.4919    0.3388 H   0  0  0  0  0  0  0  0  0  0  0  0
    4.7365    0.7649   -0.7278 H   0  0  0  0  0  0  0  0  0  0  0  0
    4.2215   -1.0968    0.4349 H   0  0  0  0  0  0  0  0  0  0  0  0
    3.5872   -2.0211   -1.3706 H   0  0  0  0  0  0  0  0  0  0  0  0
    2.6558    0.0062    1.9261 H   0  0  0  0  0  0  0  0  0  0  0  0
    2.0847   -1.6517    1.4123 H   0  0  0  0  0  0  0  0  0  0  0  0
    0.8930    0.2600   -0.3552 H   0  0  0  0  0  0  0  0  0  0  0  0
   -1.5945    1.5613    1.6043 H   0  0  0  0  0  0  0  0  0  0  0  0
   -2.6952   -0.2841    2.4279 H   0  0  0  0  0  0  0  0  0  0  0  0
   -2.0585   -1.3801    1.1813 H   0  0  0  0  0  0  0  0  0  0  0  0
   -4.0288   -1.1132    0.2575 H   0  0  0  0  0  0  0  0  0  0  0  0
   -4.4264    0.4584   -1.2273 H   0  0  0  0  0  0  0  0  0  0  0  0
   -3.7017    1.7925   -0.1890 H   0  0  0  0  0  0  0  0  0  0  0  0
   -2.2113    0.8900   -2.1385 H   0  0  0  0  0  0  0  0  0  0  0  0
   -2.2031   -0.6715   -1.2159 H   0  0  0  0  0  0  0  0  0  0  0  0
  1  2  1  0
  2  3  1  0
  2  4  1  0
  4  5  1  0
  5  6  1  0
  6  7  2  0
  6  8  1  0
  8  9  1  0
  9 10  1  0
 10 11  1  0
 11 12  1  0
 12 13  1  0
 13  8  1  0
  1 14  1  0
  1 15  1  0
  1 16  1  0
  2 17  1  1
  3 18  1  0
  4 19  1  0
  4 20  1  0
  5 21  1  0
  8 22  1  1
  9 23  1  0
  9 24  1  0
 10 25  1  0
 11 26  1  0
 11 27  1  0
 12 28  1  0
 12 29  1  0
M  END
$$$$

     RDKit          3D

 29 29  0  0  0  0  0  0  0  0999 V2000
   -3.6341   -0.5416   -1.0900 C   0  0  0  0  0  0  0  0  0  0  0  0
   -3.1128   -0.8365    0.3150 C   0  0  2  0  0  0  0  0  0  0  0  0
   -4.1923   -0.6827    1.1735 O   0  0  0  0  0  0  0  0  0  0  0  0
   -2.0186    0.1814    0.6257 C   0  0  0  0  0  0  0  0  0  0  0  0
   -0.8948    0.0153   -0.2739 N   0  0  0  0  0  0  0  0  0  0  0  0
    0.2461    0.8534   -0.1744 C   0  0  0  0  0  0  0  0  0  0  0  0
    0.2755    1.7448    0.7033 O   0  0  0  0  0  0  0  0  0  0  0  0
    1.4111    0.6963   -1.0918 C   0  0  2  0  0  0  0  0  0  0  0  0
    1.8582   -0.7444   -1.0442 C   0  0  0  0  0  0  0  0  0  0  0  0
    2.6668   -1.0273    0.1247 N   0  0  0  0  0  0  0  0  0  0  0  0
    3.7730   -0.0743    0.1031 C   0  0  0  0  0  0  0  0  0  0  0  0
    3.1739    1.2952    0.2795 C   0  0  0  0  0  0  0  0  0  0  0  0
    2.4085    1.5944   -0.8412 O   0  0  0  0  0  0  0  0  0  0  0  0
   -4.1299   -1.4418   -1.4629 H   0  0  0  0  0  0  0  0  0  0  0  0
   -4.3228    0.3248   -0.9985 H   0  0  0  0  0  0  0  0  0  0  0  0
   -2.7827   -0.2282   -1.7227 H   0  0  0  0  0  0  0  0  0  0  0  0
   -2.6747   -1.8475    0.3304 H   0  0  0  0  0  0  0  0  0  0  0  0
   -4.9975   -0.3120    0.7342 H   0  0  0  0  0  0  0  0  0  0  0  0
   -2.4207    1.2114    0.5222 H   0  0  0  0  0  0  0  0  0  0  0  0
   -1.6430   -0.0011    1.6513 H   0  0  0  0  0  0  0  0  0  0  0  0
   -0.9462   -0.7281   -0.9886 H   0  0  0  0  0  0  0  0  0  0  0  0
    1.0233    0.8831   -2.1164 H   0  0  0  0  0  0  0  0  0  0  0  0
    0.9813   -1.3913   -1.0162 H   0  0  0  0  0  0  0  0  0  0  0  0
    2.4560   -0.9927   -1.9283 H   0  0  0  0  0  0  0  0  0  0  0  0
    2.1035   -0.8592    0.9973 H   0  0  0  0  0  0  0  0  0  0  0  0
    4.4966   -0.2651    0.9104 H   0  0  0  0  0  0  0  0  0  0  0  0
    4.2689   -0.1900   -0.8797 H   0  0  0  0  0  0  0  0  0  0  0  0
    2.6212    1.3305    1.2152 H   0  0  0  0  0  0  0  0  0  0  0  0
    4.0060    2.0329    0.3051 H   0  0  0  0  0  0  0  0  0  0  0  0
  1  2  1  0
  2  3  1  0
  2  4  1  0
  4  5  1  0
  5  6  1  0
  6  7  2  0
  6  8  1  0
  8  9  1  0
  9 10  1  0
 10 11  1  0
 11 12  1  0
 12 13  1  0
 13  8  1  0
  1 14  1  0
  1 15  1  0
  1 16  1  0
  2 17  1  6
  3 18  1  0
  4 19  1  0
  4 20  1  0
  5 21  1  0
  8 22  1  6
  9 23  1  0
  9 24  1  0
 10 25  1  0
 11 26  1  0
 11 27  1  0
 12 28  1  0
 12 29  1  0
M  END
$$$$

     RDKit          3D

 29 29  0  0  0  0  0  0  0  0999 V2000
   -3.8024    0.2707    0.0692 C   0  0  0  0  0  0  0  0  0  0  0  0
   -2.9506   -0.9826   -0.0473 C   0  0  2  0  0  0  0  0  0  0  0  0
   -2.5555   -1.4007    1.1887 O   0  0  0  0  0  0  0  0  0  0  0  0
   -1.8931   -0.8320   -1.0809 C   0  0  0  0  0  0  0  0  0  0  0  0
   -0.8543    0.0904   -0.8253 N   0  0  0  0  0  0  0  0  0  0  0  0
    0.0367   -0.0335    0.2574 C   0  0  0  0  0  0  0  0  0  0  0  0
   -0.0595   -0.9946    1.0486 O   0  0  0  0  0  0  0  0  0  0  0  0
    1.1198    1.0028    0.4676 C   0  0  2  0  0  0  0  0  0  0  0  0
    1.9364    1.1937   -0.7821 C   0  0  0  0  0  0  0  0  0  0  0  0
    2.9463    0.1691   -0.9589 N   0  0  0  0  0  0  0  0  0  0  0  0
    3.7280    0.1336    0.2740 C   0  0  0  0  0  0  0  0  0  0  0  0
    2.7483   -0.3387    1.3565 C   0  0  0  0  0  0  0  0  0  0  0  0
    1.8693    0.6937    1.5720 O   0  0  0  0  0  0  0  0  0  0  0  0
   -3.6416    0.9436   -0.7997 H   0  0  0  0  0  0  0  0  0  0  0  0
   -4.8758    0.0381    0.1713 H   0  0  0  0  0  0  0  0  0  0  0  0
   -3.5246    0.8565    0.9768 H   0  0  0  0  0  0  0  0  0  0  0  0
   -3.6623   -1.7712   -0.4350 H   0  0  0  0  0  0  0  0  0  0  0  0
   -2.7766   -0.7972    1.9330 H   0  0  0  0  0  0  0  0  0  0  0  0
   -2.4191   -0.5673   -2.0373 H   0  0  0  0  0  0  0  0  0  0  0  0
   -1.5006   -1.8761   -1.3016 H   0  0  0  0  0  0  0  0  0  0  0  0
   -0.7380    0.9201   -1.4815 H   0  0  0  0  0  0  0  0  0  0  0  0
    0.5758    1.9536    0.6563 H   0  0  0  0  0  0  0  0  0  0  0  0
    1.2711    1.2186   -1.6557 H   0  0  0  0  0  0  0  0  0  0  0  0
    2.4421    2.1834   -0.7293 H   0  0  0  0  0  0  0  0  0  0  0  0
    2.4672   -0.7613   -1.0250 H   0  0  0  0  0  0  0  0  0  0  0  0
    4.5563   -0.5730    0.2387 H   0  0  0  0  0  0  0  0  0  0  0  0
    4.0427    1.1736    0.4807 H   0  0  0  0  0  0  0  0  0  0  0  0
    3.2545   -0.6637    2.2615 H   0  0  0  0  0  0  0  0  0  0  0  0
    2.2595   -1.2493    0.9087 H   0  0  0  0  0  0  0  0  0  0  0  0
  1  2  1  0
  2  3  1  0
  2  4  1  0
  4  5  1  0
  5  6  1  0
  6  7  2  0
  6  8  1  0
  8  9  1  0
  9 10  1  0
 10 11  1  0
 11 12  1  0
 12 13  1  0
 13  8  1  0
  1 14  1  0
  1 15  1  0
  1 16  1  0
  2 17  1  6
  3 18  1  0
  4 19  1  0
  4 20  1  0
  5 21  1  0
  8 22  1  1
  9 23  1  0
  9 24  1  0
 10 25  1  0
 11 26  1  0
 11 27  1  0
 12 28  1  0
 12 29  1  0
M  END
$$$$

     RDKit          3D

 29 29  0  0  0  0  0  0  0  0999 V2000
   -4.3378    0.4949   -0.7122 C   0  0  0  0  0  0  0  0  0  0  0  0
   -2.8273    0.5836   -0.4968 C   0  0  2  0  0  0  0  0  0  0  0  0
   -2.2832    0.9600   -1.6953 O   0  0  0  0  0  0  0  0  0  0  0  0
   -2.3795   -0.7464    0.0025 C   0  0  0  0  0  0  0  0  0  0  0  0
   -0.9803   -0.8991    0.2433 N   0  0  0  0  0  0  0  0  0  0  0  0
    0.0458   -0.7856   -0.7288 C   0  0  0  0  0  0  0  0  0  0  0  0
   -0.2284   -0.5384   -1.9083 O   0  0  0  0  0  0  0  0  0  0  0  0
    1.4930   -0.9633   -0.3475 C   0  0  2  0  0  0  0  0  0  0  0  0
    1.7640   -0.0799    0.8063 C   0  0  0  0  0  0  0  0  0  0  0  0
    3.1295    0.2385    1.0470 N   0  0  0  0  0  0  0  0  0  0  0  0
    3.9548    0.2986   -0.1179 C   0  0  0  0  0  0  0  0  0  0  0  0
    3.1933    0.2022   -1.4044 C   0  0  0  0  0  0  0  0  0  0  0  0
    2.2782   -0.8090   -1.4395 O   0  0  0  0  0  0  0  0  0  0  0  0
   -4.5271    0.0132   -1.6931 H   0  0  0  0  0  0  0  0  0  0  0  0
   -4.8157    1.4937   -0.6479 H   0  0  0  0  0  0  0  0  0  0  0  0
   -4.7833   -0.1363    0.1035 H   0  0  0  0  0  0  0  0  0  0  0  0
   -2.6616    1.3824    0.2629 H   0  0  0  0  0  0  0  0  0  0  0  0
   -2.9092    1.6144   -2.1354 H   0  0  0  0  0  0  0  0  0  0  0  0
   -2.9189   -0.9543    0.9664 H   0  0  0  0  0  0  0  0  0  0  0  0
   -2.7759   -1.5105   -0.7137 H   0  0  0  0  0  0  0  0  0  0  0  0
   -0.6177   -1.1191    1.2252 H   0  0  0  0  0  0  0  0  0  0  0  0
    1.5658   -2.0428   -0.0213 H   0  0  0  0  0  0  0  0  0  0  0  0
    1.1361    0.8567    0.7517 H   0  0  0  0  0  0  0  0  0  0  0  0
    1.3787   -0.5997    1.7333 H   0  0  0  0  0  0  0  0  0  0  0  0
    3.1681    1.1551    1.5557 H   0  0  0  0  0  0  0  0  0  0  0  0
    4.5395    1.2494   -0.1273 H   0  0  0  0  0  0  0  0  0  0  0  0
    4.6884   -0.5481   -0.0622 H   0  0  0  0  0  0  0  0  0  0  0  0
    2.7545    1.1995   -1.6940 H   0  0  0  0  0  0  0  0  0  0  0  0
    3.9562   -0.0097   -2.2110 H   0  0  0  0  0  0  0  0  0  0  0  0
  1  2  1  0
  2  3  1  0
  2  4  1  0
  4  5  1  0
  5  6  1  0
  6  7  2  0
  6  8  1  0
  8  9  1  0
  9 10  1  0
 10 11  1  0
 11 12  1  0
 12 13  1  0
 13  8  1  0
  1 14  1  0
  1 15  1  0
  1 16  1  0
  2 17  1  1
  3 18  1  0
  4 19  1  0
  4 20  1  0
  5 21  1  0
  8 22  1  1
  9 23  1  0
  9 24  1  0
 10 25  1  0
 11 26  1  0
 11 27  1  0
 12 28  1  0
 12 29  1  0
M  END
$$$$
