
     RDKit          3D

 23 23  0  0  0  0  0  0  0  0999 V2000
    3.2427    0.2033    0.0631 C   0  0  0  0  0  0  0  0  0  0  0  0
    2.0425    0.6400    0.6207 O   0  0  0  0  0  0  0  0  0  0  0  0
    1.0116   -0.0825    0.0240 C   0  0  1  0  0  0  0  0  0  0  0  0
    0.4213   -0.8698    1.0379 O   0  0  0  0  0  0  0  0  0  0  0  0
   -0.6049   -1.5841    0.3979 C   0  0  0  0  0  0  0  0  0  0  0  0
   -1.7859   -0.6716    0.0770 C   0  0  1  0  0  0  0  0  0  0  0  0
   -2.8744   -0.9214    0.8921 O   0  0  0  0  0  0  0  0  0  0  0  0
   -1.2749    0.7577    0.2271 C   0  0  2  0  0  0  0  0  0  0  0  0
   -2.2238    1.6941   -0.0933 O   0  0  0  0  0  0  0  0  0  0  0  0
   -0.0189    0.8566   -0.5946 C   0  0  1  0  0  0  0  0  0  0  0  0
    0.4614    2.1484   -0.7021 O   0  0  0  0  0  0  0  0  0  0  0  0
    3.1742    0.4057   -1.0252 H   0  0  0  0  0  0  0  0  0  0  0  0
    3.2949   -0.9007    0.1832 H   0  0  0  0  0  0  0  0  0  0  0  0
    4.1038    0.7200    0.5260 H   0  0  0  0  0  0  0  0  0  0  0  0
    1.3973   -0.7978   -0.7187 H   0  0  0  0  0  0  0  0  0  0  0  0
   -0.1385   -1.9538   -0.5601 H   0  0  0  0  0  0  0  0  0  0  0  0
   -0.9395   -2.4555    1.0083 H   0  0  0  0  0  0  0  0  0  0  0  0
   -2.0430   -0.8270   -0.9926 H   0  0  0  0  0  0  0  0  0  0  0  0
   -2.8152   -1.7930    1.3700 H   0  0  0  0  0  0  0  0  0  0  0  0
   -0.9947    0.8669    1.3093 H   0  0  0  0  0  0  0  0  0  0  0  0
   -2.8349    1.3808   -0.8026 H   0  0  0  0  0  0  0  0  0  0  0  0
   -0.2749    0.4280   -1.6072 H   0  0  0  0  0  0  0  0  0  0  0  0
   -0.3261    2.7557   -0.6403 H   0  0  0  0  0  0  0  0  0  0  0  0
  1  2  1  0
  2  3  1  0
  3  4  1  0
  4  5  1  0
  5  6  1  0
  6  7  1  0
  6  8  1  0
  8  9  1  0
  8 10  1  0
 10 11  1  0
 10  3  1  0
  1 12  1  0
  1 13  1  0
  1 14  1  0
  3 15  1  6
  5 16  1  0
  5 17  1  0
  6 18  1  6
  7 19  1  0
  8 20  1  1
  9 21  1  0
 10 22  1  6
 11 23  1  0
M  END
$$$$

     RDKit          3D

 23 23  0  0  0  0  0  0  0  0999 V2000
    3.0359   -0.2956   -0.7082 C   0  0  0  0  0  0  0  0  0  0  0  0
    1.7652   -0.7057   -0.3358 O   0  0  0  0  0  0  0  0  0  0  0  0
    0.8074    0.2993   -0.4643 C   0  0  1  0  0  0  0  0  0  0  0  0
   -0.1352   -0.0218   -1.3849 O   0  0  0  0  0  0  0  0  0  0  0  0
   -1.2962   -0.5620   -0.9383 C   0  0  0  0  0  0  0  0  0  0  0  0
   -1.9756    0.1866    0.1665 C   0  0  1  0  0  0  0  0  0  0  0  0
   -2.0510   -0.6876    1.2685 O   0  0  0  0  0  0  0  0  0  0  0  0
   -1.0973    1.3478    0.6335 C   0  0  2  0  0  0  0  0  0  0  0  0
   -1.0732    2.3881   -0.2511 O   0  0  0  0  0  0  0  0  0  0  0  0
    0.2627    0.7267    0.8774 C   0  0  1  0  0  0  0  0  0  0  0  0
    0.0633   -0.3575    1.7307 O   0  0  0  0  0  0  0  0  0  0  0  0
    3.7145   -1.1447   -0.5745 H   0  0  0  0  0  0  0  0  0  0  0  0
    3.3492    0.4807    0.0303 H   0  0  0  0  0  0  0  0  0  0  0  0
    3.0736    0.1197   -1.7280 H   0  0  0  0  0  0  0  0  0  0  0  0
    1.3694    1.1988   -0.8525 H   0  0  0  0  0  0  0  0  0  0  0  0
   -2.0214   -0.5674   -1.8054 H   0  0  0  0  0  0  0  0  0  0  0  0
   -1.1585   -1.6505   -0.7001 H   0  0  0  0  0  0  0  0  0  0  0  0
   -2.9733    0.5574   -0.0718 H   0  0  0  0  0  0  0  0  0  0  0  0
   -2.8292   -0.5235    1.8310 H   0  0  0  0  0  0  0  0  0  0  0  0
   -1.5180    1.7303    1.5969 H   0  0  0  0  0  0  0  0  0  0  0  0
   -0.9184    2.1711   -1.1812 H   0  0  0  0  0  0  0  0  0  0  0  0
    0.9376    1.4440    1.3639 H   0  0  0  0  0  0  0  0  0  0  0  0
    0.6685   -1.1087    1.4973 H   0  0  0  0  0  0  0  0  0  0  0  0
  1  2  1  0
  2  3  1  0
  3  4  1  0
  4  5  1  0
  5  6  1  0
  6  7  1  0
  6  8  1  0
  8  9  1  0
  8 10  1  0
 10 11  1  0
 10  3  1  0
  1 12  1  0
  1 13  1  0
  1 14  1  0
  3 15  1  6
  5 16  1  0
  5 17  1  0
  6 18  1  6
  7 19  1  0
  8 20  1  1
  9 21  1  0
 10 22  1  1
 11 23  1  0
M  END
$$$$

     RDKit          3D

 23 23  0  0  0  0  0  0  0  0999 V2000
    3.1313    0.4976   -0.0015 C   0  0  0  0  0  0  0  0  0  0  0  0
    2.1242   -0.0559   -0.7722 O   0  0  0  0  0  0  0  0  0  0  0  0
    0.9020    0.2668   -0.1560 C   0  0  1  0  0  0  0  0  0  0  0  0
    0.1580    1.0411   -1.0436 O   0  0  0  0  0  0  0  0  0  0  0  0
   -0.9332    1.5628   -0.3521 C   0  0  0  0  0  0  0  0  0  0  0  0
   -1.7510    0.4799    0.3227 C   0  0  1  0  0  0  0  0  0  0  0  0
   -3.0884    0.6581    0.0620 O   0  0  0  0  0  0  0  0  0  0  0  0
   -1.2666   -0.8562   -0.2554 C   0  0  2  0  0  0  0  0  0  0  0  0
   -2.0781   -1.8953    0.2103 O   0  0  0  0  0  0  0  0  0  0  0  0
    0.1610   -1.0241    0.2027 C   0  0  1  0  0  0  0  0  0  0  0  0
    0.7878   -2.1210   -0.3580 O   0  0  0  0  0  0  0  0  0  0  0  0
    3.0317    0.0284    1.0211 H   0  0  0  0  0  0  0  0  0  0  0  0
    4.1288    0.1720   -0.3644 H   0  0  0  0  0  0  0  0  0  0  0  0
    3.0262    1.5933    0.0563 H   0  0  0  0  0  0  0  0  0  0  0  0
    1.0540    0.8679    0.7678 H   0  0  0  0  0  0  0  0  0  0  0  0
   -1.5894    2.1427   -1.0486 H   0  0  0  0  0  0  0  0  0  0  0  0
   -0.5901    2.3039    0.4081 H   0  0  0  0  0  0  0  0  0  0  0  0
   -1.6080    0.4813    1.4241 H   0  0  0  0  0  0  0  0  0  0  0  0
   -3.5269    1.0995    0.8238 H   0  0  0  0  0  0  0  0  0  0  0  0
   -1.2619   -0.7622   -1.3424 H   0  0  0  0  0  0  0  0  0  0  0  0
   -1.5989   -2.4466    0.8762 H   0  0  0  0  0  0  0  0  0  0  0  0
    0.1224   -1.1153    1.3216 H   0  0  0  0  0  0  0  0  0  0  0  0
    0.6651   -2.9187    0.1941 H   0  0  0  0  0  0  0  0  0  0  0  0
  1  2  1  0
  2  3  1  0
  3  4  1  0
  4  5  1  0
  5  6  1  0
  6  7  1  0
  6  8  1  0
  8  9  1  0
  8 10  1  0
 10 11  1  0
 10  3  1  0
  1 12  1  0
  1 13  1  0
  1 14  1  0
  3 15  1  1
  5 16  1  0
  5 17  1  0
  6 18  1  1
  7 19  1  0
  8 20  1  6
  9 21  1  0
 10 22  1  1
 11 23  1  0
M  END
$$$$

     RDKit          3D

 23 23  0  0  0  0  0  0  0  0999 V2000
    3.1822    0.1734    0.0042 C   0  0  0  0  0  0  0  0  0  0  0  0
    2.0381   -0.5298   -0.4124 O   0  0  0  0  0  0  0  0  0  0  0  0
    0.8896    0.1758   -0.1173 C   0  0  1  0  0  0  0  0  0  0  0  0
    0.2327    0.5734   -1.3060 O   0  0  0  0  0  0  0  0  0  0  0  0
   -0.8742    1.3288   -0.8841 C   0  0  0  0  0  0  0  0  0  0  0  0
   -1.9367    0.4470   -0.2639 C   0  0  1  0  0  0  0  0  0  0  0  0
   -3.0653    0.3365   -1.0613 O   0  0  0  0  0  0  0  0  0  0  0  0
   -1.2870   -0.9081   -0.0097 C   0  0  2  0  0  0  0  0  0  0  0  0
   -2.1179   -1.7342    0.7386 O   0  0  0  0  0  0  0  0  0  0  0  0
   -0.0340   -0.6029    0.7876 C   0  0  1  0  0  0  0  0  0  0  0  0
    0.5445   -1.7230    1.3361 O   0  0  0  0  0  0  0  0  0  0  0  0
    4.1028   -0.3780   -0.2252 H   0  0  0  0  0  0  0  0  0  0  0  0
    3.1994    1.1444   -0.5240 H   0  0  0  0  0  0  0  0  0  0  0  0
    3.0559    0.3529    1.0915 H   0  0  0  0  0  0  0  0  0  0  0  0
    1.1862    1.1225    0.3770 H   0  0  0  0  0  0  0  0  0  0  0  0
   -1.3037    1.9142   -1.7167 H   0  0  0  0  0  0  0  0  0  0  0  0
   -0.4801    2.0633   -0.1481 H   0  0  0  0  0  0  0  0  0  0  0  0
   -2.2379    0.8267    0.7386 H   0  0  0  0  0  0  0  0  0  0  0  0
   -3.5291    1.2159   -1.0134 H   0  0  0  0  0  0  0  0  0  0  0  0
   -1.0206   -1.3504   -0.9918 H   0  0  0  0  0  0  0  0  0  0  0  0
   -1.5673   -2.5015    1.0360 H   0  0  0  0  0  0  0  0  0  0  0  0
   -0.3605    0.0604    1.6271 H   0  0  0  0  0  0  0  0  0  0  0  0
    1.3829   -2.0075    0.9371 H   0  0  0  0  0  0  0  0  0  0  0  0
  1  2  1  0
  2  3  1  0
  3  4  1  0
  4  5  1  0
  5  6  1  0
  6  7  1  0
  6  8  1  0
  8  9  1  0
  8 10  1  0
 10 11  1  0
 10  3  1  0
  1 12  1  0
  1 13  1  0
  1 14  1  0
  3 15  1  1
  5 16  1  0
  5 17  1  0
  6 18  1  1
  7 19  1  0
  8 20  1  6
  9 21  1  0
 10 22  1  1
 11 23  1  0
M  END
$$$$

     RDKit          3D

 23 23  0  0  0  0  0  0  0  0999 V2000
    3.0358    0.2735   -0.1725 C   0  0  0  0  0  0  0  0  0  0  0  0
    1.6983    0.5736    0.0653 O   0  0  0  0  0  0  0  0  0  0  0  0
    0.9518   -0.5616    0.2405 C   0  0  1  0  0  0  0  0  0  0  0  0
    0.4027   -0.6330    1.5023 O   0  0  0  0  0  0  0  0  0  0  0  0
   -0.6485    0.1661    1.7380 C   0  0  0  0  0  0  0  0  0  0  0  0
   -1.7789    0.0444    0.7575 C   0  0  1  0  0  0  0  0  0  0  0  0
   -2.8613    0.8027    1.0186 O   0  0  0  0  0  0  0  0  0  0  0  0
   -1.1686    0.3453   -0.6122 C   0  0  2  0  0  0  0  0  0  0  0  0
   -2.1418    0.3153   -1.5891 O   0  0  0  0  0  0  0  0  0  0  0  0
   -0.1235   -0.7373   -0.8041 C   0  0  1  0  0  0  0  0  0  0  0  0
    0.3706   -0.7776   -2.0839 O   0  0  0  0  0  0  0  0  0  0  0  0
    3.4652   -0.2876    0.6807 H   0  0  0  0  0  0  0  0  0  0  0  0
    3.1351   -0.3330   -1.1137 H   0  0  0  0  0  0  0  0  0  0  0  0
    3.5852    1.2103   -0.3086 H   0  0  0  0  0  0  0  0  0  0  0  0
    1.6286   -1.4469    0.1441 H   0  0  0  0  0  0  0  0  0  0  0  0
   -0.7263    0.6328    2.0810 H   0  0  0  0  0  0  0  0  0  0  0  0
   -0.3939    1.2332    2.0561 H   0  0  0  0  0  0  0  0  0  0  0  0
   -2.0254   -1.0282    0.7487 H   0  0  0  0  0  0  0  0  0  0  0  0
   -2.9610    1.1246    1.9447 H   0  0  0  0  0  0  0  0  0  0  0  0
   -0.7156    1.3410   -0.5705 H   0  0  0  0  0  0  0  0  0  0  0  0
   -1.7319    0.4895   -2.4586 H   0  0  0  0  0  0  0  0  0  0  0  0
   -0.6342   -1.7019   -0.5775 H   0  0  0  0  0  0  0  0  0  0  0  0
   -0.3624   -1.0452   -2.6868 H   0  0  0  0  0  0  0  0  0  0  0  0
  1  2  1  0
  2  3  1  0
  3  4  1  0
  4  5  1  0
  5  6  1  0
  6  7  1  0
  6  8  1  0
  8  9  1  0
  8 10  1  0
 10 11  1  0
 10  3  1  0
  1 12  1  0
  1 13  1  0
  1 14  1  0
  3 15  1  1
  5 16  1  0
  5 17  1  0
  6 18  1  6
  7 19  1  0
  8 20  1  1
  9 21  1  0
 10 22  1  1
 11 23  1  0
M  END
$$$$

     RDKit          3D

 23 23  0  0  0  0  0  0  0  0999 V2000
    3.1920   -0.1017   -0.0929 C   0  0  0  0  0  0  0  0  0  0  0  0
    1.9137   -0.6312   -0.3043 O   0  0  0  0  0  0  0  0  0  0  0  0
    0.9573    0.3843   -0.3461 C   0  0  1  0  0  0  0  0  0  0  0  0
    0.2582    0.3506   -1.5307 O   0  0  0  0  0  0  0  0  0  0  0  0
   -1.0089    0.9120   -1.4507 C   0  0  0  0  0  0  0  0  0  0  0  0
   -1.9713    0.0117   -0.6646 C   0  0  1  0  0  0  0  0  0  0  0  0
   -2.7668   -0.7445   -1.4808 O   0  0  0  0  0  0  0  0  0  0  0  0
   -1.0625   -0.8439    0.2239 C   0  0  2  0  0  0  0  0  0  0  0  0
   -1.7566   -1.5081    1.2004 O   0  0  0  0  0  0  0  0  0  0  0  0
   -0.0397    0.1385    0.7820 C   0  0  1  0  0  0  0  0  0  0  0  0
    0.5497   -0.3111    1.9310 O   0  0  0  0  0  0  0  0  0  0  0  0
    3.4766    0.5938   -0.8941 H   0  0  0  0  0  0  0  0  0  0  0  0
    3.1243    0.4915    0.8435 H   0  0  0  0  0  0  0  0  0  0  0  0
    3.9059   -0.9150    0.0507 H   0  0  0  0  0  0  0  0  0  0  0  0
    1.4522    1.3648   -0.2003 H   0  0  0  0  0  0  0  0  0  0  0  0
   -1.4005    0.9805   -2.4937 H   0  0  0  0  0  0  0  0  0  0  0  0
   -0.9580    1.9268   -1.0095 H   0  0  0  0  0  0  0  0  0  0  0  0
   -2.5407    0.6677    0.0301 H   0  0  0  0  0  0  0  0  0  0  0  0
   -3.6779   -0.3439   -1.5087 H   0  0  0  0  0  0  0  0  0  0  0  0
   -0.5429   -1.5412   -0.4879 H   0  0  0  0  0  0  0  0  0  0  0  0
   -1.3772   -2.4379    1.2642 H   0  0  0  0  0  0  0  0  0  0  0  0
   -0.5665    1.0932    0.9922 H   0  0  0  0  0  0  0  0  0  0  0  0
    0.8395    0.4631    2.4983 H   0  0  0  0  0  0  0  0  0  0  0  0
  1  2  1  0
  2  3  1  0
  3  4  1  0
  4  5  1  0
  5  6  1  0
  6  7  1  0
  6  8  1  0
  8  9  1  0
  8 10  1  0
 10 11  1  0
 10  3  1  0
  1 12  1  0
  1 13  1  0
  1 14  1  0
  3 15  1  1
  5 16  1  0
  5 17  1  0
  6 18  1  1
  7 19  1  0
  8 20  1  6
  9 21  1  0
 10 22  1  1
 11 23  1  0
M  END
$$$$

     RDKit          3D

 23 23  0  0  0  0  0  0  0  0999 V2000
    2.9749   -0.2871    0.5707 C   0  0  0  0  0  0  0  0  0  0  0  0
    1.7964    0.3402    0.9351 O   0  0  0  0  0  0  0  0  0  0  0  0
    0.7536   -0.1674    0.1752 C   0  0  1  0  0  0  0  0  0  0  0  0
   -0.1716   -0.7213    1.0413 O   0  0  0  0  0  0  0  0  0  0  0  0
   -1.1829   -1.2941    0.2692 C   0  0  0  0  0  0  0  0  0  0  0  0
   -2.0132   -0.1456   -0.2824 C   0  0  1  0  0  0  0  0  0  0  0  0
   -2.3057    0.6845    0.8034 O   0  0  0  0  0  0  0  0  0  0  0  0
   -1.1438    0.5954   -1.2749 C   0  0  2  0  0  0  0  0  0  0  0  0
   -0.9800   -0.1587   -2.4095 O   0  0  0  0  0  0  0  0  0  0  0  0
    0.1820    0.9561   -0.6531 C   0  0  1  0  0  0  0  0  0  0  0  0
    0.0758    2.1218    0.1053 O   0  0  0  0  0  0  0  0  0  0  0  0
    2.9446   -1.3911    0.7261 H   0  0  0  0  0  0  0  0  0  0  0  0
    3.1832   -0.0723   -0.5102 H   0  0  0  0  0  0  0  0  0  0  0  0
    3.7913    0.0981    1.2231 H   0  0  0  0  0  0  0  0  0  0  0  0
    1.1334   -0.9332   -0.5163 H   0  0  0  0  0  0  0  0  0  0  0  0
   -1.8256   -1.9483    0.8945 H   0  0  0  0  0  0  0  0  0  0  0  0
   -0.7462   -1.9211   -0.5256 H   0  0  0  0  0  0  0  0  0  0  0  0
   -2.9165   -0.4742   -0.7944 H   0  0  0  0  0  0  0  0  0  0  0  0
   -3.2563    0.7198    1.0165 H   0  0  0  0  0  0  0  0  0  0  0  0
   -1.6548    1.5427   -1.5221 H   0  0  0  0  0  0  0  0  0  0  0  0
   -0.4128   -0.9431   -2.2854 H   0  0  0  0  0  0  0  0  0  0  0  0
    0.9048    1.1629   -1.4736 H   0  0  0  0  0  0  0  0  0  0  0  0
    0.8696    2.2360    0.6639 H   0  0  0  0  0  0  0  0  0  0  0  0
  1  2  1  0
  2  3  1  0
  3  4  1  0
  4  5  1  0
  5  6  1  0
  6  7  1  0
  6  8  1  0
  8  9  1  0
  8 10  1  0
 10 11  1  0
 10  3  1  0
  1 12  1  0
  1 13  1  0
  1 14  1  0
  3 15  1  6
  5 16  1  0
  5 17  1  0
  6 18  1  6
  7 19  1  0
  8 20  1  6
  9 21  1  0
 10 22  1  6
 11 23  1  0
M  END
$$$$

     RDKit          3D

 23 23  0  0  0  0  0  0  0  0999 V2000
    2.9579   -0.2161   -0.0623 C   0  0  0  0  0  0  0  0  0  0  0  0
    1.6349   -0.2596   -0.4467 O   0  0  0  0  0  0  0  0  0  0  0  0
    0.8994    0.6097    0.3415 C   0  0  1  0  0  0  0  0  0  0  0  0
    0.3471    1.5656   -0.4499 O   0  0  0  0  0  0  0  0  0  0  0  0
   -0.7585    1.2611   -1.1663 C   0  0  0  0  0  0  0  0  0  0  0  0
   -1.6357    0.1794   -0.7008 C   0  0  1  0  0  0  0  0  0  0  0  0
   -2.2978   -0.4462   -1.7820 O   0  0  0  0  0  0  0  0  0  0  0  0
   -0.9617   -0.8828    0.1290 C   0  0  2  0  0  0  0  0  0  0  0  0
   -1.9039   -1.6780    0.7611 O   0  0  0  0  0  0  0  0  0  0  0  0
   -0.1461   -0.1149    1.1562 C   0  0  1  0  0  0  0  0  0  0  0  0
    0.4126   -0.9779    2.0823 O   0  0  0  0  0  0  0  0  0  0  0  0
    3.1231   -0.5074    0.9998 H   0  0  0  0  0  0  0  0  0  0  0  0
    3.4270    0.7846   -0.2504 H   0  0  0  0  0  0  0  0  0  0  0  0
    3.5645   -0.9370   -0.6812 H   0  0  0  0  0  0  0  0  0  0  0  0
    1.5826    1.0975    1.0618 H   0  0  0  0  0  0  0  0  0  0  0  0
   -1.3664    2.1960   -1.2793 H   0  0  0  0  0  0  0  0  0  0  0  0
   -0.4323    1.0224   -2.2222 H   0  0  0  0  0  0  0  0  0  0  0  0
   -2.4671    0.5854   -0.0632 H   0  0  0  0  0  0  0  0  0  0  0  0
   -2.6529    0.2276   -2.4078 H   0  0  0  0  0  0  0  0  0  0  0  0
   -0.2795   -1.4783   -0.5344 H   0  0  0  0  0  0  0  0  0  0  0  0
   -2.4875   -2.0683    0.0508 H   0  0  0  0  0  0  0  0  0  0  0  0
   -0.7912    0.6592    1.6125 H   0  0  0  0  0  0  0  0  0  0  0  0
    0.2313   -0.6221    2.9779 H   0  0  0  0  0  0  0  0  0  0  0  0
  1  2  1  0
  2  3  1  0
  3  4  1  0
  4  5  1  0
  5  6  1  0
  6  7  1  0
  6  8  1  0
  8  9  1  0
  8 10  1  0
 10 11  1  0
 10  3  1  0
  1 12  1  0
  1 13  1  0
  1 14  1  0
  3 15  1  1
  5 16  1  0
  5 17  1  0
  6 18  1  1
  7 19  1  0
  8 20  1  6
  9 21  1  0
 10 22  1  1
 11 23  1  0
M  END
$$$$
