
     RDKit          3D

 20 20  0  0  0  0  0  0  0  0999 V2000
   -2.4210    0.6268    0.9161 C   0  0  0  0  0  0  0  0  0  0  0  0
   -1.6044   -0.3266    0.0798 C   0  0  0  0  0  0  0  0  0  0  0  0
   -0.2359    0.1415   -0.0321 N   0  0  0  0  0  0  0  0  0  0  0  0
    0.4783    0.0837    1.1927 C   0  0  0  0  0  0  0  0  0  0  0  0
    1.9442    0.0411    1.0197 C   0  0  0  0  0  0  0  0  0  0  0  0
    2.7015   -0.1754    2.0169 O   0  0  0  0  0  0  0  0  0  0  0  0
    2.5117    0.2441   -0.2675 N   0  0  0  0  0  0  0  0  0  0  0  0
    1.6646    0.0536   -1.3855 C   0  0  0  0  0  0  0  0  0  0  0  0
    2.0101    0.4321   -2.5227 O   0  0  0  0  0  0  0  0  0  0  0  0
    0.3672   -0.6123   -1.1120 C   0  0  0  0  0  0  0  0  0  0  0  0
   -2.2071    0.4699    1.9979 H   0  0  0  0  0  0  0  0  0  0  0  0
   -3.4966    0.3794    0.7440 H   0  0  0  0  0  0  0  0  0  0  0  0
   -2.1881    1.6892    0.6992 H   0  0  0  0  0  0  0  0  0  0  0  0
   -2.0183   -0.3118   -0.9496 H   0  0  0  0  0  0  0  0  0  0  0  0
   -1.6560   -1.3322    0.5030 H   0  0  0  0  0  0  0  0  0  0  0  0
    0.1167   -0.7442    1.8677 H   0  0  0  0  0  0  0  0  0  0  0  0
    0.2756    1.0675    1.7163 H   0  0  0  0  0  0  0  0  0  0  0  0
    3.4975    0.5160   -0.4115 H   0  0  0  0  0  0  0  0  0  0  0  0
   -0.3239   -0.5775   -1.9688 H   0  0  0  0  0  0  0  0  0  0  0  0
    0.5841   -1.6648   -0.7967 H   0  0  0  0  0  0  0  0  0  0  0  0
  1  2  1  0
  2  3  1  0
  3  4  1  0
  4  5  1  0
  5  6  2  0
  5  7  1  0
  7  8  1  0
  8  9  2  0
  8 10  1  0
 10  3  1  0
  1 11  1  0
  1 12  1  0
  1 13  1  0
  2 14  1  0
  2 15  1  0
  4 16  1  0
  4 17  1  0
  7 18  1  0
 10 19  1  0
 10 20  1  0
M  END
$$$$

     RDKit          3D

 20 20  0  0  0  0  0  0  0  0999 V2000
    2.5474   -0.3808   -0.1079 C   0  0  0  0  0  0  0  0  0  0  0  0
    1.4727    0.6174    0.1041 C   0  0  0  0  0  0  0  0  0  0  0  0
    0.1959    0.0857    0.4692 N   0  0  0  0  0  0  0  0  0  0  0  0
   -0.7281    1.1483    0.6379 C   0  0  0  0  0  0  0  0  0  0  0  0
   -2.0576    0.9607    0.0654 C   0  0  0  0  0  0  0  0  0  0  0  0
   -2.7583    1.9713   -0.2881 O   0  0  0  0  0  0  0  0  0  0  0  0
   -2.5700   -0.3561   -0.0971 N   0  0  0  0  0  0  0  0  0  0  0  0
   -1.6041   -1.3819   -0.2948 C   0  0  0  0  0  0  0  0  0  0  0  0
   -1.9479   -2.5857   -0.4294 O   0  0  0  0  0  0  0  0  0  0  0  0
   -0.1928   -1.0111   -0.3396 C   0  0  0  0  0  0  0  0  0  0  0  0
    2.2426   -1.3314   -0.5463 H   0  0  0  0  0  0  0  0  0  0  0  0
    3.1601   -0.5257    0.8297 H   0  0  0  0  0  0  0  0  0  0  0  0
    3.2873    0.0699   -0.8341 H   0  0  0  0  0  0  0  0  0  0  0  0
    1.7999    1.2862    0.9521 H   0  0  0  0  0  0  0  0  0  0  0  0
    1.3874    1.3054   -0.7738 H   0  0  0  0  0  0  0  0  0  0  0  0
   -0.3205    2.1131    0.2132 H   0  0  0  0  0  0  0  0  0  0  0  0
   -0.7970    1.3621    1.7451 H   0  0  0  0  0  0  0  0  0  0  0  0
   -3.5889   -0.5390   -0.0710 H   0  0  0  0  0  0  0  0  0  0  0  0
    0.0963   -0.8981   -1.4068 H   0  0  0  0  0  0  0  0  0  0  0  0
    0.3758   -1.9101    0.0375 H   0  0  0  0  0  0  0  0  0  0  0  0
  1  2  1  0
  2  3  1  0
  3  4  1  0
  4  5  1  0
  5  6  2  0
  5  7  1  0
  7  8  1  0
  8  9  2  0
  8 10  1  0
 10  3  1  0
  1 11  1  0
  1 12  1  0
  1 13  1  0
  2 14  1  0
  2 15  1  0
  4 16  1  0
  4 17  1  0
  7 18  1  0
 10 19  1  0
 10 20  1  0
M  END
$$$$

     RDKit          3D

 20 20  0  0  0  0  0  0  0  0999 V2000
    2.5074   -0.7790    0.0759 C   0  0  0  0  0  0  0  0  0  0  0  0
    1.5885    0.3825   -0.3042 C   0  0  0  0  0  0  0  0  0  0  0  0
    0.2677    0.1502    0.1825 N   0  0  0  0  0  0  0  0  0  0  0  0
   -0.3907   -0.9214   -0.4668 C   0  0  0  0  0  0  0  0  0  0  0  0
   -1.8135   -1.0567   -0.2548 C   0  0  0  0  0  0  0  0  0  0  0  0
   -2.3665   -2.1743   -0.2719 O   0  0  0  0  0  0  0  0  0  0  0  0
   -2.6228    0.0901   -0.0199 N   0  0  0  0  0  0  0  0  0  0  0  0
   -1.9163    1.2387    0.4441 C   0  0  0  0  0  0  0  0  0  0  0  0
   -2.5678    2.2760    0.7049 O   0  0  0  0  0  0  0  0  0  0  0  0
   -0.4632    1.2469    0.6249 C   0  0  0  0  0  0  0  0  0  0  0  0
    2.1645   -1.2496    1.0279 H   0  0  0  0  0  0  0  0  0  0  0  0
    2.5016   -1.5507   -0.7248 H   0  0  0  0  0  0  0  0  0  0  0  0
    3.5438   -0.4101    0.1954 H   0  0  0  0  0  0  0  0  0  0  0  0
    1.9602    1.3078    0.1929 H   0  0  0  0  0  0  0  0  0  0  0  0
    1.6829    0.5319   -1.3875 H   0  0  0  0  0  0  0  0  0  0  0  0
   -0.1804   -0.9337   -1.5641 H   0  0  0  0  0  0  0  0  0  0  0  0
    0.0880   -1.8748   -0.1016 H   0  0  0  0  0  0  0  0  0  0  0  0
   -3.6557    0.1141   -0.1682 H   0  0  0  0  0  0  0  0  0  0  0  0
   -0.0821    2.1791    0.1108 H   0  0  0  0  0  0  0  0  0  0  0  0
   -0.2456    1.4333    1.7046 H   0  0  0  0  0  0  0  0  0  0  0  0
  1  2  1  0
  2  3  1  0
  3  4  1  0
  4  5  1  0
  5  6  2  0
  5  7  1  0
  7  8  1  0
  8  9  2  0
  8 10  1  0
 10  3  1  0
  1 11  1  0
  1 12  1  0
  1 13  1  0
  2 14  1  0
  2 15  1  0
  4 16  1  0
  4 17  1  0
  7 18  1  0
 10 19  1  0
 10 20  1  0
M  END
$$$$

     RDKit          3D

 20 20  0  0  0  0  0  0  0  0999 V2000
   -2.6039    0.3034   -0.1792 C   0  0  0  0  0  0  0  0  0  0  0  0
   -1.4758   -0.0242    0.7665 C   0  0  0  0  0  0  0  0  0  0  0  0
   -0.1984    0.3303    0.2274 N   0  0  0  0  0  0  0  0  0  0  0  0
    0.1617   -0.5208   -0.8335 C   0  0  0  0  0  0  0  0  0  0  0  0
    1.5638   -0.3089   -1.3115 C   0  0  0  0  0  0  0  0  0  0  0  0
    1.8957   -0.2407   -2.5149 O   0  0  0  0  0  0  0  0  0  0  0  0
    2.5399   -0.1873   -0.2737 N   0  0  0  0  0  0  0  0  0  0  0  0
    2.0591   -0.0216    1.0491 C   0  0  0  0  0  0  0  0  0  0  0  0
    2.7909   -0.4313    2.0040 O   0  0  0  0  0  0  0  0  0  0  0  0
    0.7347    0.6163    1.2398 C   0  0  0  0  0  0  0  0  0  0  0  0
   -2.6732    1.4189   -0.2711 H   0  0  0  0  0  0  0  0  0  0  0  0
   -3.5476   -0.0594    0.3191 H   0  0  0  0  0  0  0  0  0  0  0  0
   -2.4973   -0.2217   -1.1264 H   0  0  0  0  0  0  0  0  0  0  0  0
   -1.6651    0.5166    1.7439 H   0  0  0  0  0  0  0  0  0  0  0  0
   -1.5197   -1.1139    0.9936 H   0  0  0  0  0  0  0  0  0  0  0  0
   -0.5609   -0.4017   -1.6719 H   0  0  0  0  0  0  0  0  0  0  0  0
    0.1135   -1.6080   -0.5310 H   0  0  0  0  0  0  0  0  0  0  0  0
    3.5626   -0.2255   -0.5014 H   0  0  0  0  0  0  0  0  0  0  0  0
    0.9643    1.7279    1.1743 H   0  0  0  0  0  0  0  0  0  0  0  0
    0.3555    0.4515    2.2677 H   0  0  0  0  0  0  0  0  0  0  0  0
  1  2  1  0
  2  3  1  0
  3  4  1  0
  4  5  1  0
  5  6  2  0
  5  7  1  0
  7  8  1  0
  8  9  2  0
  8 10  1  0
 10  3  1  0
  1 11  1  0
  1 12  1  0
  1 13  1  0
  2 14  1  0
  2 15  1  0
  4 16  1  0
  4 17  1  0
  7 18  1  0
 10 19  1  0
 10 20  1  0
M  END
$$$$

     RDKit          3D

 20 20  0  0  0  0  0  0  0  0999 V2000
    2.5865   -0.2072    0.0069 C   0  0  0  0  0  0  0  0  0  0  0  0
    1.3408   -0.0148    0.8769 C   0  0  0  0  0  0  0  0  0  0  0  0
    0.2285    0.1472    0.0345 N   0  0  0  0  0  0  0  0  0  0  0  0
   -0.2139   -0.9372   -0.7170 C   0  0  0  0  0  0  0  0  0  0  0  0
   -1.6935   -1.1466   -0.6012 C   0  0  0  0  0  0  0  0  0  0  0  0
   -2.2483   -2.1521   -1.0934 O   0  0  0  0  0  0  0  0  0  0  0  0
   -2.5021   -0.1949    0.0791 N   0  0  0  0  0  0  0  0  0  0  0  0
   -1.9912    1.1277    0.2017 C   0  0  0  0  0  0  0  0  0  0  0  0
   -2.7548    2.0989    0.4184 O   0  0  0  0  0  0  0  0  0  0  0  0
   -0.5116    1.3267    0.0618 C   0  0  0  0  0  0  0  0  0  0  0  0
    3.0759    0.8041   -0.0788 H   0  0  0  0  0  0  0  0  0  0  0  0
    2.2553   -0.5668   -0.9893 H   0  0  0  0  0  0  0  0  0  0  0  0
    3.2889   -0.9305    0.4350 H   0  0  0  0  0  0  0  0  0  0  0  0
    1.2281   -0.9357    1.5187 H   0  0  0  0  0  0  0  0  0  0  0  0
    1.5384    0.8276    1.5640 H   0  0  0  0  0  0  0  0  0  0  0  0
    0.0466   -0.8045   -1.7947 H   0  0  0  0  0  0  0  0  0  0  0  0
    0.3053   -1.8817   -0.4045 H   0  0  0  0  0  0  0  0  0  0  0  0
   -3.4554   -0.4395    0.4870 H   0  0  0  0  0  0  0  0  0  0  0  0
   -0.2185    1.9834    0.8909 H   0  0  0  0  0  0  0  0  0  0  0  0
   -0.3049    1.8957   -0.8957 H   0  0  0  0  0  0  0  0  0  0  0  0
  1  2  1  0
  2  3  1  0
  3  4  1  0
  4  5  1  0
  5  6  2  0
  5  7  1  0
  7  8  1  0
  8  9  2  0
  8 10  1  0
 10  3  1  0
  1 11  1  0
  1 12  1  0
  1 13  1  0
  2 14  1  0
  2 15  1  0
  4 16  1  0
  4 17  1  0
  7 18  1  0
 10 19  1  0
 10 20  1  0
M  END
$$$$

     RDKit          3D

 20 20  0  0  0  0  0  0  0  0999 V2000
   -2.5398   -0.5601   -0.0479 C   0  0  0  0  0  0  0  0  0  0  0  0
   -1.3783    0.2142    0.4532 C   0  0  0  0  0  0  0  0  0  0  0  0
   -0.2540    0.1686   -0.4052 N   0  0  0  0  0  0  0  0  0  0  0  0
    0.4206   -1.0630   -0.5367 C   0  0  0  0  0  0  0  0  0  0  0  0
    1.5080   -1.1223    0.4821 C   0  0  0  0  0  0  0  0  0  0  0  0
    1.6516   -2.0747    1.2885 O   0  0  0  0  0  0  0  0  0  0  0  0
    2.4024   -0.0004    0.4881 N   0  0  0  0  0  0  0  0  0  0  0  0
    1.8968    1.2026   -0.0698 C   0  0  0  0  0  0  0  0  0  0  0  0
    2.7080    2.1672   -0.1569 O   0  0  0  0  0  0  0  0  0  0  0  0
    0.4915    1.3589   -0.5398 C   0  0  0  0  0  0  0  0  0  0  0  0
   -2.6309   -1.5586    0.4100 H   0  0  0  0  0  0  0  0  0  0  0  0
   -2.4934   -0.5882   -1.1513 H   0  0  0  0  0  0  0  0  0  0  0  0
   -3.4692   -0.0170    0.2322 H   0  0  0  0  0  0  0  0  0  0  0  0
   -1.0580   -0.0823    1.4824 H   0  0  0  0  0  0  0  0  0  0  0  0
   -1.6929    1.2899    0.5244 H   0  0  0  0  0  0  0  0  0  0  0  0
    0.8910   -1.2262   -1.5293 H   0  0  0  0  0  0  0  0  0  0  0  0
   -0.2980   -1.8973   -0.4021 H   0  0  0  0  0  0  0  0  0  0  0  0
    3.3464   -0.1208    0.8881 H   0  0  0  0  0  0  0  0  0  0  0  0
    0.4527    1.7794   -1.5608 H   0  0  0  0  0  0  0  0  0  0  0  0
    0.0452    2.1300    0.1508 H   0  0  0  0  0  0  0  0  0  0  0  0
  1  2  1  0
  2  3  1  0
  3  4  1  0
  4  5  1  0
  5  6  2  0
  5  7  1  0
  7  8  1  0
  8  9  2  0
  8 10  1  0
 10  3  1  0
  1 11  1  0
  1 12  1  0
  1 13  1  0
  2 14  1  0
  2 15  1  0
  4 16  1  0
  4 17  1  0
  7 18  1  0
 10 19  1  0
 10 20  1  0
M  END
$$$$

     RDKit          3D

 20 20  0  0  0  0  0  0  0  0999 V2000
    2.4595    0.3065   -0.5014 C   0  0  0  0  0  0  0  0  0  0  0  0
    1.2431   -0.5572   -0.4778 C   0  0  0  0  0  0  0  0  0  0  0  0
    0.3257   -0.2893    0.6038 N   0  0  0  0  0  0  0  0  0  0  0  0
   -0.7109   -1.2733    0.6697 C   0  0  0  0  0  0  0  0  0  0  0  0
   -1.7678   -1.0128   -0.3413 C   0  0  0  0  0  0  0  0  0  0  0  0
   -2.2186   -1.8962   -1.0974 O   0  0  0  0  0  0  0  0  0  0  0  0
   -2.2532    0.3221   -0.4047 N   0  0  0  0  0  0  0  0  0  0  0  0
   -1.5517    1.2783    0.3555 C   0  0  0  0  0  0  0  0  0  0  0  0
   -2.0928    2.3444    0.7961 O   0  0  0  0  0  0  0  0  0  0  0  0
   -0.1300    1.0621    0.6738 C   0  0  0  0  0  0  0  0  0  0  0  0
    2.3157    1.3764   -0.4349 H   0  0  0  0  0  0  0  0  0  0  0  0
    2.9962    0.0928   -1.4605 H   0  0  0  0  0  0  0  0  0  0  0  0
    3.1752    0.0077    0.3181 H   0  0  0  0  0  0  0  0  0  0  0  0
    1.5870   -1.6049   -0.3908 H   0  0  0  0  0  0  0  0  0  0  0  0
    0.7270   -0.4815   -1.4781 H   0  0  0  0  0  0  0  0  0  0  0  0
   -0.2895   -2.2835    0.6030 H   0  0  0  0  0  0  0  0  0  0  0  0
   -1.1705   -1.1693    1.6916 H   0  0  0  0  0  0  0  0  0  0  0  0
   -3.0827    0.6230   -0.9728 H   0  0  0  0  0  0  0  0  0  0  0  0
    0.4484    1.7708    0.0918 H   0  0  0  0  0  0  0  0  0  0  0  0
   -0.0100    1.3839    1.7563 H   0  0  0  0  0  0  0  0  0  0  0  0
  1  2  1  0
  2  3  1  0
  3  4  1  0
  4  5  1  0
  5  6  2  0
  5  7  1  0
  7  8  1  0
  8  9  2  0
  8 10  1  0
 10  3  1  0
  1 11  1  0
  1 12  1  0
  1 13  1  0
  2 14  1  0
  2 15  1  0
  4 16  1  0
  4 17  1  0
  7 18  1  0
 10 19  1  0
 10 20  1  0
M  END
$$$$

     RDKit          3D

 20 20  0  0  0  0  0  0  0  0999 V2000
   -2.4250    0.0312    0.6639 C   0  0  0  0  0  0  0  0  0  0  0  0
   -1.5362   -0.5008   -0.3972 C   0  0  0  0  0  0  0  0  0  0  0  0
   -0.2332    0.0501   -0.3784 N   0  0  0  0  0  0  0  0  0  0  0  0
    0.6737   -0.3919   -1.3419 C   0  0  0  0  0  0  0  0  0  0  0  0
    1.9369   -0.8595   -0.7128 C   0  0  0  0  0  0  0  0  0  0  0  0
    2.4968   -1.9423   -0.9838 O   0  0  0  0  0  0  0  0  0  0  0  0
    2.5025    0.0206    0.2532 N   0  0  0  0  0  0  0  0  0  0  0  0
    1.6337    1.0427    0.7295 C   0  0  0  0  0  0  0  0  0  0  0  0
    2.1050    2.1642    1.1198 O   0  0  0  0  0  0  0  0  0  0  0  0
    0.1808    0.7492    0.7512 C   0  0  0  0  0  0  0  0  0  0  0  0
   -2.3180   -0.6153    1.5780 H   0  0  0  0  0  0  0  0  0  0  0  0
   -2.3157    1.0995    0.8783 H   0  0  0  0  0  0  0  0  0  0  0  0
   -3.4997   -0.1099    0.3453 H   0  0  0  0  0  0  0  0  0  0  0  0
   -1.9882   -0.3078   -1.3931 H   0  0  0  0  0  0  0  0  0  0  0  0
   -1.4446   -1.6149   -0.2778 H   0  0  0  0  0  0  0  0  0  0  0  0
    0.2237   -1.2247   -1.9409 H   0  0  0  0  0  0  0  0  0  0  0  0
    0.9359    0.4644   -2.0243 H   0  0  0  0  0  0  0  0  0  0  0  0
    3.4820   -0.0561    0.6034 H   0  0  0  0  0  0  0  0  0  0  0  0
   -0.0325    0.2701    1.7328 H   0  0  0  0  0  0  0  0  0  0  0  0
   -0.3781    1.7310    0.7950 H   0  0  0  0  0  0  0  0  0  0  0  0
  1  2  1  0
  2  3  1  0
  3  4  1  0
  4  5  1  0
  5  6  2  0
  5  7  1  0
  7  8  1  0
  8  9  2  0
  8 10  1  0
 10  3  1  0
  1 11  1  0
  1 12  1  0
  1 13  1  0
  2 14  1  0
  2 15  1  0
  4 16  1  0
  4 17  1  0
  7 18  1  0
 10 19  1  0
 10 20  1  0
M  END
$$$$
