
     RDKit          3D

 27 27  0  0  0  0  0  0  0  0999 V2000
    3.0241    0.9379   -0.9273 N   0  0  0  0  0  0  0  0  0  0  0  0
    2.9585   -0.0548    0.1001 C   0  0  0  0  0  0  0  0  0  0  0  0
    2.2541   -1.2990   -0.2745 C   0  0  0  0  0  0  0  0  0  0  0  0
    0.8152   -1.1532   -0.6798 C   0  0  0  0  0  0  0  0  0  0  0  0
   -0.0368   -0.6050    0.3070 N   0  0  0  0  0  0  0  0  0  0  0  0
   -1.3908   -0.5703   -0.1806 C   0  0  2  0  0  0  0  0  0  0  0  0
   -1.6126    0.3194   -1.3697 C   0  0  0  0  0  0  0  0  0  0  0  0
   -1.6718    1.5879   -0.7546 O   0  0  0  0  0  0  0  0  0  0  0  0
   -2.7087    1.3547    0.1807 C   0  0  0  0  0  0  0  0  0  0  0  0
   -2.3432    0.0394    0.8286 C   0  0  2  0  0  0  0  0  0  0  0  0
   -1.7491    0.2077    2.0696 O   0  0  0  0  0  0  0  0  0  0  0  0
    2.1670    0.9559   -1.5173 H   0  0  0  0  0  0  0  0  0  0  0  0
    3.2432    1.8714   -0.5137 H   0  0  0  0  0  0  0  0  0  0  0  0
    4.0291   -0.3424    0.3212 H   0  0  0  0  0  0  0  0  0  0  0  0
    2.5932    0.3818    1.0647 H   0  0  0  0  0  0  0  0  0  0  0  0
    2.7915   -1.7494   -1.1534 H   0  0  0  0  0  0  0  0  0  0  0  0
    2.3626   -2.0409    0.5433 H   0  0  0  0  0  0  0  0  0  0  0  0
    0.7737   -0.6577   -1.6691 H   0  0  0  0  0  0  0  0  0  0  0  0
    0.4520   -2.2012   -0.8841 H   0  0  0  0  0  0  0  0  0  0  0  0
    0.2014    0.3668    0.6059 H   0  0  0  0  0  0  0  0  0  0  0  0
   -1.6772   -1.6278   -0.3864 H   0  0  0  0  0  0  0  0  0  0  0  0
   -0.8817    0.2787   -2.1621 H   0  0  0  0  0  0  0  0  0  0  0  0
   -2.6495    0.0854   -1.7339 H   0  0  0  0  0  0  0  0  0  0  0  0
   -2.7787    2.1940    0.8835 H   0  0  0  0  0  0  0  0  0  0  0  0
   -3.6355    1.2573   -0.4037 H   0  0  0  0  0  0  0  0  0  0  0  0
   -3.2169   -0.6331    0.9093 H   0  0  0  0  0  0  0  0  0  0  0  0
   -1.3129    1.0966    2.1536 H   0  0  0  0  0  0  0  0  0  0  0  0
  1  2  1  0
  2  3  1  0
  3  4  1  0
  4  5  1  0
  5  6  1  0
  6  7  1  0
  7  8  1  0
  8  9  1  0
  9 10  1  0
 10 11  1  0
 10  6  1  0
  1 12  1  0
  1 13  1  0
  2 14  1  0
  2 15  1  0
  3 16  1  0
  3 17  1  0
  4 18  1  0
  4 19  1  0
  5 20  1  0
  6 21  1  6
  7 22  1  0
  7 23  1  0
  9 24  1  0
  9 25  1  0
 10 26  1  1
 11 27  1  0
M  END
$$$$

     RDKit          3D

 27 27  0  0  0  0  0  0  0  0999 V2000
    3.6458    0.6765    1.0258 N   0  0  0  0  0  0  0  0  0  0  0  0
    3.4745   -0.5968    0.3302 C   0  0  0  0  0  0  0  0  0  0  0  0
    2.3234   -0.4324   -0.6534 C   0  0  0  0  0  0  0  0  0  0  0  0
    1.0344   -0.0822    0.0684 C   0  0  0  0  0  0  0  0  0  0  0  0
   -0.0024    0.0699   -0.9454 N   0  0  0  0  0  0  0  0  0  0  0  0
   -1.2074    0.4006   -0.3050 C   0  0  2  0  0  0  0  0  0  0  0  0
   -1.7754   -0.6440    0.6401 C   0  0  0  0  0  0  0  0  0  0  0  0
   -3.1348   -0.3521    0.7787 O   0  0  0  0  0  0  0  0  0  0  0  0
   -3.4272    0.7460   -0.0371 C   0  0  0  0  0  0  0  0  0  0  0  0
   -2.4274    0.5254   -1.1974 C   0  0  2  0  0  0  0  0  0  0  0  0
   -2.7725   -0.7190   -1.7185 O   0  0  0  0  0  0  0  0  0  0  0  0
    4.6609    0.9398    1.0422 H   0  0  0  0  0  0  0  0  0  0  0  0
    3.0764    1.4328    0.5496 H   0  0  0  0  0  0  0  0  0  0  0  0
    4.3824   -0.8138   -0.2544 H   0  0  0  0  0  0  0  0  0  0  0  0
    3.2542   -1.4008    1.0683 H   0  0  0  0  0  0  0  0  0  0  0  0
    2.6333    0.3813   -1.3522 H   0  0  0  0  0  0  0  0  0  0  0  0
    2.1858   -1.3294   -1.2663 H   0  0  0  0  0  0  0  0  0  0  0  0
    1.1518    0.8526    0.6511 H   0  0  0  0  0  0  0  0  0  0  0  0
    0.7749   -0.9097    0.7473 H   0  0  0  0  0  0  0  0  0  0  0  0
   -0.0174   -0.6941   -1.6200 H   0  0  0  0  0  0  0  0  0  0  0  0
   -1.1601    1.3417    0.2969 H   0  0  0  0  0  0  0  0  0  0  0  0
   -1.2453   -0.7202    1.5922 H   0  0  0  0  0  0  0  0  0  0  0  0
   -1.7367   -1.6375    0.1074 H   0  0  0  0  0  0  0  0  0  0  0  0
   -3.0577    1.6872    0.4712 H   0  0  0  0  0  0  0  0  0  0  0  0
   -4.4530    0.8204   -0.3653 H   0  0  0  0  0  0  0  0  0  0  0  0
   -2.4160    1.3468   -1.8980 H   0  0  0  0  0  0  0  0  0  0  0  0
   -3.7648   -0.8889   -1.6030 H   0  0  0  0  0  0  0  0  0  0  0  0
  1  2  1  0
  2  3  1  0
  3  4  1  0
  4  5  1  0
  5  6  1  0
  6  7  1  0
  7  8  1  0
  8  9  1  0
  9 10  1  0
 10 11  1  0
 10  6  1  0
  1 12  1  0
  1 13  1  0
  2 14  1  0
  2 15  1  0
  3 16  1  0
  3 17  1  0
  4 18  1  0
  4 19  1  0
  5 20  1  0
  6 21  1  1
  7 22  1  0
  7 23  1  0
  9 24  1  0
  9 25  1  0
 10 26  1  6
 11 27  1  0
M  END
$$$$

     RDKit          3D

 27 27  0  0  0  0  0  0  0  0999 V2000
    3.7682   -0.4031    0.2189 N   0  0  0  0  0  0  0  0  0  0  0  0
    3.3308    0.8319   -0.3316 C   0  0  0  0  0  0  0  0  0  0  0  0
    2.0167    0.6772   -1.0609 C   0  0  0  0  0  0  0  0  0  0  0  0
    0.9778    0.1830   -0.1172 C   0  0  0  0  0  0  0  0  0  0  0  0
   -0.3289    0.0305   -0.7224 N   0  0  0  0  0  0  0  0  0  0  0  0
   -1.1946   -0.5758    0.2561 C   0  0  2  0  0  0  0  0  0  0  0  0
   -2.1119   -1.5943   -0.3822 C   0  0  0  0  0  0  0  0  0  0  0  0
   -3.3804   -1.0903   -0.3752 O   0  0  0  0  0  0  0  0  0  0  0  0
   -3.3805    0.2142    0.0426 C   0  0  0  0  0  0  0  0  0  0  0  0
   -2.1520    0.3366    0.9373 C   0  0  2  0  0  0  0  0  0  0  0  0
   -1.7427    1.6294    1.1261 O   0  0  0  0  0  0  0  0  0  0  0  0
    3.9887   -0.3320    1.2383 H   0  0  0  0  0  0  0  0  0  0  0  0
    3.1908   -1.2151    0.0324 H   0  0  0  0  0  0  0  0  0  0  0  0
    3.1358    1.5479    0.5181 H   0  0  0  0  0  0  0  0  0  0  0  0
    4.1108    1.2749   -1.0058 H   0  0  0  0  0  0  0  0  0  0  0  0
    2.2124   -0.1102   -1.8518 H   0  0  0  0  0  0  0  0  0  0  0  0
    1.7247    1.5895   -1.6213 H   0  0  0  0  0  0  0  0  0  0  0  0
    1.2449   -0.8057    0.2895 H   0  0  0  0  0  0  0  0  0  0  0  0
    0.8182    0.8836    0.7481 H   0  0  0  0  0  0  0  0  0  0  0  0
   -0.2804   -0.5634   -1.5814 H   0  0  0  0  0  0  0  0  0  0  0  0
   -0.6031   -1.1066    1.0550 H   0  0  0  0  0  0  0  0  0  0  0  0
   -1.7700   -1.7409   -1.4186 H   0  0  0  0  0  0  0  0  0  0  0  0
   -2.0827   -2.5510    0.1698 H   0  0  0  0  0  0  0  0  0  0  0  0
   -3.2990    0.9088   -0.8281 H   0  0  0  0  0  0  0  0  0  0  0  0
   -4.2795    0.4128    0.6522 H   0  0  0  0  0  0  0  0  0  0  0  0
   -2.4442   -0.1488    1.9195 H   0  0  0  0  0  0  0  0  0  0  0  0
   -1.4703    1.7169    2.0927 H   0  0  0  0  0  0  0  0  0  0  0  0
  1  2  1  0
  2  3  1  0
  3  4  1  0
  4  5  1  0
  5  6  1  0
  6  7  1  0
  7  8  1  0
  8  9  1  0
  9 10  1  0
 10 11  1  0
 10  6  1  0
  1 12  1  0
  1 13  1  0
  2 14  1  0
  2 15  1  0
  3 16  1  0
  3 17  1  0
  4 18  1  0
  4 19  1  0
  5 20  1  0
  6 21  1  1
  7 22  1  0
  7 23  1  0
  9 24  1  0
  9 25  1  0
 10 26  1  1
 11 27  1  0
M  END
$$$$

     RDKit          3D

 27 27  0  0  0  0  0  0  0  0999 V2000
    4.0398    0.7061   -0.5745 N   0  0  0  0  0  0  0  0  0  0  0  0
    2.8825    0.4533    0.2845 C   0  0  0  0  0  0  0  0  0  0  0  0
    2.1061   -0.7101   -0.3023 C   0  0  0  0  0  0  0  0  0  0  0  0
    0.9884   -1.0571    0.6313 C   0  0  0  0  0  0  0  0  0  0  0  0
   -0.0430   -0.1608    0.8921 N   0  0  0  0  0  0  0  0  0  0  0  0
   -1.0779   -0.1104   -0.0264 C   0  0  2  0  0  0  0  0  0  0  0  0
   -1.5738    1.1249   -0.6302 C   0  0  0  0  0  0  0  0  0  0  0  0
   -2.9481    0.9389   -0.9141 O   0  0  0  0  0  0  0  0  0  0  0  0
   -3.3417   -0.2636   -0.3913 C   0  0  0  0  0  0  0  0  0  0  0  0
   -2.4033   -0.5333    0.7348 C   0  0  2  0  0  0  0  0  0  0  0  0
   -2.5934    0.3877    1.7514 O   0  0  0  0  0  0  0  0  0  0  0  0
    3.9278    1.6351   -1.0271 H   0  0  0  0  0  0  0  0  0  0  0  0
    4.8991    0.6931    0.0867 H   0  0  0  0  0  0  0  0  0  0  0  0
    2.2006    1.3405    0.3227 H   0  0  0  0  0  0  0  0  0  0  0  0
    3.2068    0.1224    1.2957 H   0  0  0  0  0  0  0  0  0  0  0  0
    1.7393   -0.4920   -1.3081 H   0  0  0  0  0  0  0  0  0  0  0  0
    2.8157   -1.5579   -0.3829 H   0  0  0  0  0  0  0  0  0  0  0  0
    1.4295   -1.4842    1.5927 H   0  0  0  0  0  0  0  0  0  0  0  0
    0.5620   -2.0545    0.1833 H   0  0  0  0  0  0  0  0  0  0  0  0
   -0.1062    0.2831    1.8028 H   0  0  0  0  0  0  0  0  0  0  0  0
   -1.0218   -0.9135   -0.8249 H   0  0  0  0  0  0  0  0  0  0  0  0
   -1.0843    1.4081   -1.5772 H   0  0  0  0  0  0  0  0  0  0  0  0
   -1.5491    2.0072    0.0759 H   0  0  0  0  0  0  0  0  0  0  0  0
   -4.4119   -0.2878   -0.0634 H   0  0  0  0  0  0  0  0  0  0  0  0
   -3.1844   -1.0716   -1.1364 H   0  0  0  0  0  0  0  0  0  0  0  0
   -2.3184   -1.5703    1.0803 H   0  0  0  0  0  0  0  0  0  0  0  0
   -3.1406    1.1665    1.5002 H   0  0  0  0  0  0  0  0  0  0  0  0
  1  2  1  0
  2  3  1  0
  3  4  1  0
  4  5  1  0
  5  6  1  0
  6  7  1  0
  7  8  1  0
  8  9  1  0
  9 10  1  0
 10 11  1  0
 10  6  1  0
  1 12  1  0
  1 13  1  0
  2 14  1  0
  2 15  1  0
  3 16  1  0
  3 17  1  0
  4 18  1  0
  4 19  1  0
  5 20  1  0
  6 21  1  6
  7 22  1  0
  7 23  1  0
  9 24  1  0
  9 25  1  0
 10 26  1  1
 11 27  1  0
M  END
$$$$

     RDKit          3D

 27 27  0  0  0  0  0  0  0  0999 V2000
    4.5517    0.1987   -0.3945 N   0  0  0  0  0  0  0  0  0  0  0  0
    3.2203   -0.2379   -0.7794 C   0  0  0  0  0  0  0  0  0  0  0  0
    2.1832    0.0536    0.3055 C   0  0  0  0  0  0  0  0  0  0  0  0
    0.8762   -0.4126   -0.2556 C   0  0  0  0  0  0  0  0  0  0  0  0
   -0.2515   -0.2803    0.6377 N   0  0  0  0  0  0  0  0  0  0  0  0
   -1.4410   -0.4729   -0.1257 C   0  0  2  0  0  0  0  0  0  0  0  0
   -1.6773    0.6510   -1.1130 C   0  0  0  0  0  0  0  0  0  0  0  0
   -2.5914    1.4643   -0.3860 O   0  0  0  0  0  0  0  0  0  0  0  0
   -3.5317    0.5462    0.0247 C   0  0  0  0  0  0  0  0  0  0  0  0
   -2.7247   -0.5977    0.5934 C   0  0  2  0  0  0  0  0  0  0  0  0
   -2.6663   -0.5821    1.9599 O   0  0  0  0  0  0  0  0  0  0  0  0
    4.8470    1.0651   -0.9018 H   0  0  0  0  0  0  0  0  0  0  0  0
    4.6637    0.2372    0.6331 H   0  0  0  0  0  0  0  0  0  0  0  0
    3.2502   -1.3569   -0.8666 H   0  0  0  0  0  0  0  0  0  0  0  0
    2.9479    0.2719   -1.7126 H   0  0  0  0  0  0  0  0  0  0  0  0
    2.1593    1.1534    0.5242 H   0  0  0  0  0  0  0  0  0  0  0  0
    2.4715   -0.4355    1.2297 H   0  0  0  0  0  0  0  0  0  0  0  0
    1.0085   -1.5276   -0.4226 H   0  0  0  0  0  0  0  0  0  0  0  0
    0.7365    0.0169   -1.2491 H   0  0  0  0  0  0  0  0  0  0  0  0
   -0.2102    0.5372    1.2502 H   0  0  0  0  0  0  0  0  0  0  0  0
   -1.2744   -1.4000   -0.7639 H   0  0  0  0  0  0  0  0  0  0  0  0
   -0.7818    1.2293   -1.3684 H   0  0  0  0  0  0  0  0  0  0  0  0
   -2.2174    0.2342   -1.9704 H   0  0  0  0  0  0  0  0  0  0  0  0
   -4.2045    0.9968    0.7836 H   0  0  0  0  0  0  0  0  0  0  0  0
   -4.1195    0.2116   -0.8714 H   0  0  0  0  0  0  0  0  0  0  0  0
   -3.2613   -1.5534    0.2972 H   0  0  0  0  0  0  0  0  0  0  0  0
   -1.9628   -0.0107    2.3452 H   0  0  0  0  0  0  0  0  0  0  0  0
  1  2  1  0
  2  3  1  0
  3  4  1  0
  4  5  1  0
  5  6  1  0
  6  7  1  0
  7  8  1  0
  8  9  1  0
  9 10  1  0
 10 11  1  0
 10  6  1  0
  1 12  1  0
  1 13  1  0
  2 14  1  0
  2 15  1  0
  3 16  1  0
  3 17  1  0
  4 18  1  0
  4 19  1  0
  5 20  1  0
  6 21  1  6
  7 22  1  0
  7 23  1  0
  9 24  1  0
  9 25  1  0
 10 26  1  1
 11 27  1  0
M  END
$$$$

     RDKit          3D

 27 27  0  0  0  0  0  0  0  0999 V2000
    3.8578    0.7803    0.5838 N   0  0  0  0  0  0  0  0  0  0  0  0
    2.7446   -0.1605    0.5718 C   0  0  0  0  0  0  0  0  0  0  0  0
    1.9755    0.0597   -0.7082 C   0  0  0  0  0  0  0  0  0  0  0  0
    0.8133   -0.8401   -0.9001 C   0  0  0  0  0  0  0  0  0  0  0  0
   -0.2780   -0.7370   -0.0001 N   0  0  0  0  0  0  0  0  0  0  0  0
   -1.0564    0.4656   -0.1848 C   0  0  2  0  0  0  0  0  0  0  0  0
   -1.4360    1.1097    1.1132 C   0  0  0  0  0  0  0  0  0  0  0  0
   -2.2754    0.1444    1.6692 O   0  0  0  0  0  0  0  0  0  0  0  0
   -3.0133   -0.4412    0.6740 C   0  0  0  0  0  0  0  0  0  0  0  0
   -2.4486    0.0144   -0.6467 C   0  0  2  0  0  0  0  0  0  0  0  0
   -2.3551   -1.0282   -1.5651 O   0  0  0  0  0  0  0  0  0  0  0  0
    3.7929    1.4664   -0.2079 H   0  0  0  0  0  0  0  0  0  0  0  0
    4.7839    0.2860    0.4985 H   0  0  0  0  0  0  0  0  0  0  0  0
    3.1601   -1.2085    0.5578 H   0  0  0  0  0  0  0  0  0  0  0  0
    2.1505   -0.0309    1.4721 H   0  0  0  0  0  0  0  0  0  0  0  0
    2.6940   -0.1005   -1.5546 H   0  0  0  0  0  0  0  0  0  0  0  0
    1.6820    1.1421   -0.7396 H   0  0  0  0  0  0  0  0  0  0  0  0
    1.2047   -1.8985   -0.7821 H   0  0  0  0  0  0  0  0  0  0  0  0
    0.4579   -0.7726   -1.9356 H   0  0  0  0  0  0  0  0  0  0  0  0
   -0.1166   -0.9981    0.9680 H   0  0  0  0  0  0  0  0  0  0  0  0
   -0.6266    1.1812   -0.9107 H   0  0  0  0  0  0  0  0  0  0  0  0
   -0.6068    1.3515    1.7706 H   0  0  0  0  0  0  0  0  0  0  0  0
   -2.0926    2.0004    0.8984 H   0  0  0  0  0  0  0  0  0  0  0  0
   -2.8745   -1.5659    0.7665 H   0  0  0  0  0  0  0  0  0  0  0  0
   -4.1047   -0.2919    0.7442 H   0  0  0  0  0  0  0  0  0  0  0  0
   -3.0447    0.8596   -1.0197 H   0  0  0  0  0  0  0  0  0  0  0  0
   -2.9878   -0.7873   -2.3058 H   0  0  0  0  0  0  0  0  0  0  0  0
  1  2  1  0
  2  3  1  0
  3  4  1  0
  4  5  1  0
  5  6  1  0
  6  7  1  0
  7  8  1  0
  8  9  1  0
  9 10  1  0
 10 11  1  0
 10  6  1  0
  1 12  1  0
  1 13  1  0
  2 14  1  0
  2 15  1  0
  3 16  1  0
  3 17  1  0
  4 18  1  0
  4 19  1  0
  5 20  1  0
  6 21  1  6
  7 22  1  0
  7 23  1  0
  9 24  1  0
  9 25  1  0
 10 26  1  6
 11 27  1  0
M  END
$$$$

     RDKit          3D

 27 27  0  0  0  0  0  0  0  0999 V2000
    3.8357   -0.3528    0.3935 N   0  0  0  0  0  0  0  0  0  0  0  0
    2.7281    0.0281   -0.4211 C   0  0  0  0  0  0  0  0  0  0  0  0
    1.8491    0.9911    0.3534 C   0  0  0  0  0  0  0  0  0  0  0  0
    0.6665    1.3934   -0.5147 C   0  0  0  0  0  0  0  0  0  0  0  0
   -0.1307    0.2579   -0.8993 N   0  0  0  0  0  0  0  0  0  0  0  0
   -0.8348   -0.3496    0.1771 C   0  0  2  0  0  0  0  0  0  0  0  0
   -1.3935   -1.6797   -0.2568 C   0  0  0  0  0  0  0  0  0  0  0  0
   -2.7093   -1.4051   -0.5772 O   0  0  0  0  0  0  0  0  0  0  0  0
   -3.1186   -0.7221    0.5951 C   0  0  0  0  0  0  0  0  0  0  0  0
   -2.0854    0.4051    0.5984 C   0  0  2  0  0  0  0  0  0  0  0  0
   -2.4763    1.3350   -0.3422 O   0  0  0  0  0  0  0  0  0  0  0  0
    3.8411    0.0135    1.3508 H   0  0  0  0  0  0  0  0  0  0  0  0
    4.1862   -1.3106    0.2621 H   0  0  0  0  0  0  0  0  0  0  0  0
    2.1016   -0.8932   -0.5954 H   0  0  0  0  0  0  0  0  0  0  0  0
    3.0292    0.4975   -1.3653 H   0  0  0  0  0  0  0  0  0  0  0  0
    1.5506    0.6105    1.3266 H   0  0  0  0  0  0  0  0  0  0  0  0
    2.4470    1.9131    0.5134 H   0  0  0  0  0  0  0  0  0  0  0  0
    1.0945    1.8302   -1.4334 H   0  0  0  0  0  0  0  0  0  0  0  0
    0.0545    2.1506   -0.0208 H   0  0  0  0  0  0  0  0  0  0  0  0
    0.2838   -0.3606   -1.5978 H   0  0  0  0  0  0  0  0  0  0  0  0
   -0.2216   -0.5197    1.0839 H   0  0  0  0  0  0  0  0  0  0  0  0
   -1.4157   -2.3705    0.6308 H   0  0  0  0  0  0  0  0  0  0  0  0
   -0.8132   -2.1532   -1.0627 H   0  0  0  0  0  0  0  0  0  0  0  0
   -4.1450   -0.3681    0.5126 H   0  0  0  0  0  0  0  0  0  0  0  0
   -2.9101   -1.3703    1.4504 H   0  0  0  0  0  0  0  0  0  0  0  0
   -2.0004    0.8276    1.6226 H   0  0  0  0  0  0  0  0  0  0  0  0
   -3.4133    1.6022   -0.1776 H   0  0  0  0  0  0  0  0  0  0  0  0
  1  2  1  0
  2  3  1  0
  3  4  1  0
  4  5  1  0
  5  6  1  0
  6  7  1  0
  7  8  1  0
  8  9  1  0
  9 10  1  0
 10 11  1  0
 10  6  1  0
  1 12  1  0
  1 13  1  0
  2 14  1  0
  2 15  1  0
  3 16  1  0
  3 17  1  0
  4 18  1  0
  4 19  1  0
  5 20  1  0
  6 21  1  1
  7 22  1  0
  7 23  1  0
  9 24  1  0
  9 25  1  0
 10 26  1  1
 11 27  1  0
M  END
$$$$

     RDKit          3D

 27 27  0  0  0  0  0  0  0  0999 V2000
    3.8103    0.4040    0.8989 N   0  0  0  0  0  0  0  0  0  0  0  0
    3.2986   -0.6947    0.1683 C   0  0  0  0  0  0  0  0  0  0  0  0
    1.7865   -0.7945    0.0938 C   0  0  0  0  0  0  0  0  0  0  0  0
    1.1594    0.3791   -0.5531 C   0  0  0  0  0  0  0  0  0  0  0  0
   -0.2029    0.4497   -0.7804 N   0  0  0  0  0  0  0  0  0  0  0  0
   -1.2007    0.5547    0.1695 C   0  0  2  0  0  0  0  0  0  0  0  0
   -1.4977   -0.5419    1.1145 C   0  0  0  0  0  0  0  0  0  0  0  0
   -2.5892   -1.2551    0.5324 O   0  0  0  0  0  0  0  0  0  0  0  0
   -3.4370   -0.1847    0.2659 C   0  0  0  0  0  0  0  0  0  0  0  0
   -2.5573    0.7372   -0.5406 C   0  0  2  0  0  0  0  0  0  0  0  0
   -2.4759    0.3105   -1.8384 O   0  0  0  0  0  0  0  0  0  0  0  0
    3.1969    1.2170    1.0091 H   0  0  0  0  0  0  0  0  0  0  0  0
    4.6942    0.7355    0.4397 H   0  0  0  0  0  0  0  0  0  0  0  0
    3.6937   -1.6369    0.6527 H   0  0  0  0  0  0  0  0  0  0  0  0
    3.7501   -0.7106   -0.8543 H   0  0  0  0  0  0  0  0  0  0  0  0
    1.5350   -1.7266   -0.4190 H   0  0  0  0  0  0  0  0  0  0  0  0
    1.4476   -0.9031    1.1682 H   0  0  0  0  0  0  0  0  0  0  0  0
    1.7234    0.6460   -1.5186 H   0  0  0  0  0  0  0  0  0  0  0  0
    1.4364    1.2912    0.0871 H   0  0  0  0  0  0  0  0  0  0  0  0
   -0.5011    0.5908   -1.7774 H   0  0  0  0  0  0  0  0  0  0  0  0
   -1.0392    1.5175    0.7585 H   0  0  0  0  0  0  0  0  0  0  0  0
   -0.7218   -1.2177    1.4197 H   0  0  0  0  0  0  0  0  0  0  0  0
   -1.9755   -0.0733    2.0299 H   0  0  0  0  0  0  0  0  0  0  0  0
   -3.7404    0.2659    1.2438 H   0  0  0  0  0  0  0  0  0  0  0  0
   -4.3458   -0.5045   -0.2876 H   0  0  0  0  0  0  0  0  0  0  0  0
   -2.8861    1.7993   -0.4767 H   0  0  0  0  0  0  0  0  0  0  0  0
   -2.3616   -0.6548   -1.9086 H   0  0  0  0  0  0  0  0  0  0  0  0
  1  2  1  0
  2  3  1  0
  3  4  1  0
  4  5  1  0
  5  6  1  0
  6  7  1  0
  7  8  1  0
  8  9  1  0
  9 10  1  0
 10 11  1  0
 10  6  1  0
  1 12  1  0
  1 13  1  0
  2 14  1  0
  2 15  1  0
  3 16  1  0
  3 17  1  0
  4 18  1  0
  4 19  1  0
  5 20  1  0
  6 21  1  1
  7 22  1  0
  7 23  1  0
  9 24  1  0
  9 25  1  0
 10 26  1  6
 11 27  1  0
M  END
$$$$
