
     RDKit          3D

 23 22  0  0  0  0  0  0  0  0999 V2000
   -3.8895   -0.1416    0.6128 C   0  0  0  0  0  0  0  0  0  0  0  0
   -2.9093    0.0809   -0.4376 N   0  0  0  0  0  0  0  0  0  0  0  0
   -1.5256    0.0562   -0.1184 C   0  0  0  0  0  0  0  0  0  0  0  0
   -1.1709    0.2408    1.0868 N   0  0  0  0  0  0  0  0  0  0  0  0
   -0.5380   -0.1685   -1.1171 N   0  0  0  0  0  0  0  0  0  0  0  0
    0.8738    0.1028   -0.8824 C   0  0  0  0  0  0  0  0  0  0  0  0
    1.4976   -0.8179    0.1088 C   0  0  0  0  0  0  0  0  0  0  0  0
    3.2049   -0.3614    0.2873 S   0  0  0  0  0  6  0  0  0  0  0  0
    3.2547    1.2733    0.8434 N   0  0  0  0  0  0  0  0  0  0  0  0
    3.8636   -0.3854   -1.0688 O   0  0  0  0  0  0  0  0  0  0  0  0
    3.9124   -1.2614    1.2566 O   0  0  0  0  0  0  0  0  0  0  0  0
   -4.6876   -0.7856    0.1354 H   0  0  0  0  0  0  0  0  0  0  0  0
   -4.3762    0.7964    0.9070 H   0  0  0  0  0  0  0  0  0  0  0  0
   -3.4899   -0.7458    1.4367 H   0  0  0  0  0  0  0  0  0  0  0  0
   -3.2230    0.2599   -1.4381 H   0  0  0  0  0  0  0  0  0  0  0  0
   -1.8683    0.4120    1.8600 H   0  0  0  0  0  0  0  0  0  0  0  0
   -0.8698   -0.5383   -2.0312 H   0  0  0  0  0  0  0  0  0  0  0  0
    1.0398    1.1474   -0.5436 H   0  0  0  0  0  0  0  0  0  0  0  0
    1.4122    0.0005   -1.8484 H   0  0  0  0  0  0  0  0  0  0  0  0
    1.0120   -0.7428    1.1099 H   0  0  0  0  0  0  0  0  0  0  0  0
    1.3877   -1.8887   -0.1878 H   0  0  0  0  0  0  0  0  0  0  0  0
    4.2675    1.5823    0.9037 H   0  0  0  0  0  0  0  0  0  0  0  0
    2.8218    1.8850    0.1113 H   0  0  0  0  0  0  0  0  0  0  0  0
  1  2  1  0
  2  3  1  0
  3  4  2  3
  3  5  1  0
  5  6  1  0
  6  7  1  0
  7  8  1  0
  8  9  1  0
  8 10  2  0
  8 11  2  0
  1 12  1  0
  1 13  1  0
  1 14  1  0
  2 15  1  0
  4 16  1  0
  5 17  1  0
  6 18  1  0
  6 19  1  0
  7 20  1  0
  7 21  1  0
  9 22  1  0
  9 23  1  0
M  END
$$$$

     RDKit          3D

 23 22  0  0  0  0  0  0  0  0999 V2000
   -4.2938    0.2874   -0.3804 C   0  0  0  0  0  0  0  0  0  0  0  0
   -2.9782    0.1094   -0.9632 N   0  0  0  0  0  0  0  0  0  0  0  0
   -1.8451   -0.3118   -0.2225 C   0  0  0  0  0  0  0  0  0  0  0  0
   -2.0326   -0.8988    0.8988 N   0  0  0  0  0  0  0  0  0  0  0  0
   -0.5102   -0.1123   -0.6677 N   0  0  0  0  0  0  0  0  0  0  0  0
    0.5752   -0.1597    0.2967 C   0  0  0  0  0  0  0  0  0  0  0  0
    1.8946    0.0824   -0.4286 C   0  0  0  0  0  0  0  0  0  0  0  0
    3.1793    0.0154    0.7810 S   0  0  0  0  0  6  0  0  0  0  0  0
    4.7327    0.2715    0.1098 N   0  0  0  0  0  0  0  0  0  0  0  0
    3.0952   -1.2871    1.5141 O   0  0  0  0  0  0  0  0  0  0  0  0
    2.9307    1.1054    1.7934 O   0  0  0  0  0  0  0  0  0  0  0  0
   -4.9450   -0.5947   -0.6449 H   0  0  0  0  0  0  0  0  0  0  0  0
   -4.2458    0.4235    0.7232 H   0  0  0  0  0  0  0  0  0  0  0  0
   -4.7810    1.2082   -0.7736 H   0  0  0  0  0  0  0  0  0  0  0  0
   -2.8484    0.2991   -1.9819 H   0  0  0  0  0  0  0  0  0  0  0  0
   -2.9843   -1.0783    1.2866 H   0  0  0  0  0  0  0  0  0  0  0  0
   -0.3669    0.0630   -1.6887 H   0  0  0  0  0  0  0  0  0  0  0  0
    0.4002    0.6224    1.0621 H   0  0  0  0  0  0  0  0  0  0  0  0
    0.6341   -1.1290    0.8218 H   0  0  0  0  0  0  0  0  0  0  0  0
    2.0140   -0.7056   -1.1984 H   0  0  0  0  0  0  0  0  0  0  0  0
    1.8458    1.0699   -0.9250 H   0  0  0  0  0  0  0  0  0  0  0  0
    5.3611    0.6102    0.8751 H   0  0  0  0  0  0  0  0  0  0  0  0
    5.1682   -0.5792   -0.2877 H   0  0  0  0  0  0  0  0  0  0  0  0
  1  2  1  0
  2  3  1  0
  3  4  2  3
  3  5  1  0
  5  6  1  0
  6  7  1  0
  7  8  1  0
  8  9  1  0
  8 10  2  0
  8 11  2  0
  1 12  1  0
  1 13  1  0
  1 14  1  0
  2 15  1  0
  4 16  1  0
  5 17  1  0
  6 18  1  0
  6 19  1  0
  7 20  1  0
  7 21  1  0
  9 22  1  0
  9 23  1  0
M  END
$$$$

     RDKit          3D

 23 22  0  0  0  0  0  0  0  0999 V2000
    3.8814    0.1261    0.6051 C   0  0  0  0  0  0  0  0  0  0  0  0
    2.9855   -0.1373   -0.5266 N   0  0  0  0  0  0  0  0  0  0  0  0
    1.6575   -0.5543   -0.3236 C   0  0  0  0  0  0  0  0  0  0  0  0
    1.3179   -1.2935    0.6643 N   0  0  0  0  0  0  0  0  0  0  0  0
    0.6513   -0.1554   -1.2361 N   0  0  0  0  0  0  0  0  0  0  0  0
   -0.7389   -0.3438   -1.0161 C   0  0  0  0  0  0  0  0  0  0  0  0
   -1.3467    0.4735    0.0784 C   0  0  0  0  0  0  0  0  0  0  0  0
   -3.0869    0.0560    0.1357 S   0  0  0  0  0  6  0  0  0  0  0  0
   -3.8719    0.9501    1.3724 N   0  0  0  0  0  0  0  0  0  0  0  0
   -3.6630    0.4684   -1.2156 O   0  0  0  0  0  0  0  0  0  0  0  0
   -3.2553   -1.4213    0.2655 O   0  0  0  0  0  0  0  0  0  0  0  0
    4.0997    1.2199    0.5409 H   0  0  0  0  0  0  0  0  0  0  0  0
    4.8036   -0.4306    0.4348 H   0  0  0  0  0  0  0  0  0  0  0  0
    3.4246   -0.1566    1.5670 H   0  0  0  0  0  0  0  0  0  0  0  0
    3.3528   -0.0095   -1.4790 H   0  0  0  0  0  0  0  0  0  0  0  0
    2.0199   -1.6026    1.3404 H   0  0  0  0  0  0  0  0  0  0  0  0
    0.9344    0.3196   -2.1526 H   0  0  0  0  0  0  0  0  0  0  0  0
   -1.2963   -0.1439   -1.9519 H   0  0  0  0  0  0  0  0  0  0  0  0
   -0.9265   -1.4242   -0.7309 H   0  0  0  0  0  0  0  0  0  0  0  0
   -0.8534    0.1841    1.0450 H   0  0  0  0  0  0  0  0  0  0  0  0
   -1.3127    1.5567   -0.0783 H   0  0  0  0  0  0  0  0  0  0  0  0
   -4.1583    1.8992    1.0669 H   0  0  0  0  0  0  0  0  0  0  0  0
   -4.6186    0.4194    1.8566 H   0  0  0  0  0  0  0  0  0  0  0  0
  1  2  1  0
  2  3  1  0
  3  4  2  3
  3  5  1  0
  5  6  1  0
  6  7  1  0
  7  8  1  0
  8  9  1  0
  8 10  2  0
  8 11  2  0
  1 12  1  0
  1 13  1  0
  1 14  1  0
  2 15  1  0
  4 16  1  0
  5 17  1  0
  6 18  1  0
  6 19  1  0
  7 20  1  0
  7 21  1  0
  9 22  1  0
  9 23  1  0
M  END
$$$$

     RDKit          3D

 23 22  0  0  0  0  0  0  0  0999 V2000
    3.8471   -0.2389    0.8122 C   0  0  0  0  0  0  0  0  0  0  0  0
    2.4183   -0.4592    0.6690 N   0  0  0  0  0  0  0  0  0  0  0  0
    1.5351    0.5769    0.2412 C   0  0  0  0  0  0  0  0  0  0  0  0
    2.0584    1.7234   -0.0663 N   0  0  0  0  0  0  0  0  0  0  0  0
    0.1352    0.4122    0.1505 N   0  0  0  0  0  0  0  0  0  0  0  0
   -0.6356    0.9206   -0.9617 C   0  0  0  0  0  0  0  0  0  0  0  0
   -2.1064    0.9079   -0.7755 C   0  0  0  0  0  0  0  0  0  0  0  0
   -2.8816   -0.6278   -0.4908 S   0  0  0  0  0  6  0  0  0  0  0  0
   -2.3547   -1.4579    0.9248 N   0  0  0  0  0  0  0  0  0  0  0  0
   -2.7247   -1.5739   -1.6570 O   0  0  0  0  0  0  0  0  0  0  0  0
   -4.3739   -0.3471   -0.3471 O   0  0  0  0  0  0  0  0  0  0  0  0
    4.3569   -1.2287    0.8780 H   0  0  0  0  0  0  0  0  0  0  0  0
    4.1052    0.4346    1.6346 H   0  0  0  0  0  0  0  0  0  0  0  0
    4.2380    0.2041   -0.1416 H   0  0  0  0  0  0  0  0  0  0  0  0
    1.9645   -1.3809    0.8733 H   0  0  0  0  0  0  0  0  0  0  0  0
    1.4541    2.4966   -0.3801 H   0  0  0  0  0  0  0  0  0  0  0  0
   -0.3458   -0.1151    0.9148 H   0  0  0  0  0  0  0  0  0  0  0  0
   -0.3199    1.9842   -1.2060 H   0  0  0  0  0  0  0  0  0  0  0  0
   -0.3248    0.3548   -1.8823 H   0  0  0  0  0  0  0  0  0  0  0  0
   -2.5512    1.3204   -1.7333 H   0  0  0  0  0  0  0  0  0  0  0  0
   -2.3536    1.6547    0.0158 H   0  0  0  0  0  0  0  0  0  0  0  0
   -2.9069   -1.2233    1.7510 H   0  0  0  0  0  0  0  0  0  0  0  0
   -2.2336   -2.4893    0.7762 H   0  0  0  0  0  0  0  0  0  0  0  0
  1  2  1  0
  2  3  1  0
  3  4  2  3
  3  5  1  0
  5  6  1  0
  6  7  1  0
  7  8  1  0
  8  9  1  0
  8 10  2  0
  8 11  2  0
  1 12  1  0
  1 13  1  0
  1 14  1  0
  2 15  1  0
  4 16  1  0
  5 17  1  0
  6 18  1  0
  6 19  1  0
  7 20  1  0
  7 21  1  0
  9 22  1  0
  9 23  1  0
M  END
$$$$

     RDKit          3D

 23 22  0  0  0  0  0  0  0  0999 V2000
    4.1975    0.4326    0.0317 C   0  0  0  0  0  0  0  0  0  0  0  0
    3.0136   -0.2682   -0.4850 N   0  0  0  0  0  0  0  0  0  0  0  0
    1.7442   -0.0907    0.1336 C   0  0  0  0  0  0  0  0  0  0  0  0
    1.6930    0.5137    1.2856 N   0  0  0  0  0  0  0  0  0  0  0  0
    0.5243   -0.5255   -0.4145 N   0  0  0  0  0  0  0  0  0  0  0  0
   -0.7684   -0.2219    0.1847 C   0  0  0  0  0  0  0  0  0  0  0  0
   -1.8821   -0.8328   -0.6460 C   0  0  0  0  0  0  0  0  0  0  0  0
   -3.4147   -0.4046    0.1698 S   0  0  0  0  0  6  0  0  0  0  0  0
   -3.6023    1.3117    0.2592 N   0  0  0  0  0  0  0  0  0  0  0  0
   -3.3454   -0.9840    1.5556 O   0  0  0  0  0  0  0  0  0  0  0  0
   -4.5234   -1.0531   -0.5918 O   0  0  0  0  0  0  0  0  0  0  0  0
    3.9851    1.5342    0.0720 H   0  0  0  0  0  0  0  0  0  0  0  0
    4.3719    0.0981    1.0670 H   0  0  0  0  0  0  0  0  0  0  0  0
    5.0348    0.2868   -0.6478 H   0  0  0  0  0  0  0  0  0  0  0  0
    3.0628   -0.9081   -1.3079 H   0  0  0  0  0  0  0  0  0  0  0  0
    2.5754    0.8675    1.7562 H   0  0  0  0  0  0  0  0  0  0  0  0
    0.5511   -1.0868   -1.2839 H   0  0  0  0  0  0  0  0  0  0  0  0
   -0.8129   -0.5535    1.2403 H   0  0  0  0  0  0  0  0  0  0  0  0
   -0.8441    0.8847    0.2042 H   0  0  0  0  0  0  0  0  0  0  0  0
   -1.8914   -0.3348   -1.6289 H   0  0  0  0  0  0  0  0  0  0  0  0
   -1.8201   -1.9181   -0.6763 H   0  0  0  0  0  0  0  0  0  0  0  0
   -3.2216    1.7457   -0.5933 H   0  0  0  0  0  0  0  0  0  0  0  0
   -4.6271    1.5072    0.3354 H   0  0  0  0  0  0  0  0  0  0  0  0
  1  2  1  0
  2  3  1  0
  3  4  2  3
  3  5  1  0
  5  6  1  0
  6  7  1  0
  7  8  1  0
  8  9  1  0
  8 10  2  0
  8 11  2  0
  1 12  1  0
  1 13  1  0
  1 14  1  0
  2 15  1  0
  4 16  1  0
  5 17  1  0
  6 18  1  0
  6 19  1  0
  7 20  1  0
  7 21  1  0
  9 22  1  0
  9 23  1  0
M  END
$$$$

     RDKit          3D

 23 22  0  0  0  0  0  0  0  0999 V2000
    3.7885   -0.3623    0.4080 C   0  0  0  0  0  0  0  0  0  0  0  0
    2.4342   -0.7266    0.7585 N   0  0  0  0  0  0  0  0  0  0  0  0
    1.3305   -0.0980    0.1382 C   0  0  0  0  0  0  0  0  0  0  0  0
    1.3746    1.1303   -0.2237 N   0  0  0  0  0  0  0  0  0  0  0  0
    0.1060   -0.8153   -0.1214 N   0  0  0  0  0  0  0  0  0  0  0  0
   -0.8466   -0.3019   -1.0850 C   0  0  0  0  0  0  0  0  0  0  0  0
   -1.5362    0.9537   -0.6608 C   0  0  0  0  0  0  0  0  0  0  0  0
   -2.4540    0.7137    0.8477 S   0  0  0  0  0  6  0  0  0  0  0  0
   -3.6648   -0.5144    0.6235 N   0  0  0  0  0  0  0  0  0  0  0  0
   -1.5188    0.2025    1.9272 O   0  0  0  0  0  0  0  0  0  0  0  0
   -3.0824    1.9837    1.2853 O   0  0  0  0  0  0  0  0  0  0  0  0
    4.5235   -0.9735    0.9330 H   0  0  0  0  0  0  0  0  0  0  0  0
    3.9365    0.7175    0.6291 H   0  0  0  0  0  0  0  0  0  0  0  0
    3.9272   -0.4755   -0.7089 H   0  0  0  0  0  0  0  0  0  0  0  0
    2.2842   -1.4644    1.4741 H   0  0  0  0  0  0  0  0  0  0  0  0
    2.2500    1.6673   -0.0511 H   0  0  0  0  0  0  0  0  0  0  0  0
   -0.0335   -1.6981    0.4198 H   0  0  0  0  0  0  0  0  0  0  0  0
   -1.6050   -1.0856   -1.3097 H   0  0  0  0  0  0  0  0  0  0  0  0
   -0.3470   -0.1248   -2.0759 H   0  0  0  0  0  0  0  0  0  0  0  0
   -2.2955    1.2263   -1.4528 H   0  0  0  0  0  0  0  0  0  0  0  0
   -0.8552    1.7952   -0.5555 H   0  0  0  0  0  0  0  0  0  0  0  0
   -4.4882   -0.3129    1.2377 H   0  0  0  0  0  0  0  0  0  0  0  0
   -3.2278   -1.4368    0.8378 H   0  0  0  0  0  0  0  0  0  0  0  0
  1  2  1  0
  2  3  1  0
  3  4  2  3
  3  5  1  0
  5  6  1  0
  6  7  1  0
  7  8  1  0
  8  9  1  0
  8 10  2  0
  8 11  2  0
  1 12  1  0
  1 13  1  0
  1 14  1  0
  2 15  1  0
  4 16  1  0
  5 17  1  0
  6 18  1  0
  6 19  1  0
  7 20  1  0
  7 21  1  0
  9 22  1  0
  9 23  1  0
M  END
$$$$

     RDKit          3D

 23 22  0  0  0  0  0  0  0  0999 V2000
    4.0009    0.6259    0.2655 C   0  0  0  0  0  0  0  0  0  0  0  0
    2.5742    0.8993    0.0466 N   0  0  0  0  0  0  0  0  0  0  0  0
    1.6462   -0.1675   -0.0299 C   0  0  0  0  0  0  0  0  0  0  0  0
    2.0248   -1.3672   -0.3101 N   0  0  0  0  0  0  0  0  0  0  0  0
    0.2547    0.1287    0.2156 N   0  0  0  0  0  0  0  0  0  0  0  0
   -0.6170   -0.9387    0.6119 C   0  0  0  0  0  0  0  0  0  0  0  0
   -2.0083   -0.4231    0.7612 C   0  0  0  0  0  0  0  0  0  0  0  0
   -2.5787    0.1860   -0.7902 S   0  0  0  0  0  6  0  0  0  0  0  0
   -4.2085    0.7956   -0.6619 N   0  0  0  0  0  0  0  0  0  0  0  0
   -2.5967   -0.9808   -1.7513 O   0  0  0  0  0  0  0  0  0  0  0  0
   -1.7409    1.2436   -1.3801 O   0  0  0  0  0  0  0  0  0  0  0  0
    4.4594    0.6069   -0.7439 H   0  0  0  0  0  0  0  0  0  0  0  0
    4.4390    1.4007    0.9292 H   0  0  0  0  0  0  0  0  0  0  0  0
    4.1372   -0.3441    0.7646 H   0  0  0  0  0  0  0  0  0  0  0  0
    2.2513    1.8646   -0.0499 H   0  0  0  0  0  0  0  0  0  0  0  0
    3.0301   -1.5260   -0.4774 H   0  0  0  0  0  0  0  0  0  0  0  0
   -0.0359    1.1150    0.0988 H   0  0  0  0  0  0  0  0  0  0  0  0
   -0.6192   -1.7814   -0.1408 H   0  0  0  0  0  0  0  0  0  0  0  0
   -0.2548   -1.4168    1.5480 H   0  0  0  0  0  0  0  0  0  0  0  0
   -2.7280   -1.1919    1.1109 H   0  0  0  0  0  0  0  0  0  0  0  0
   -2.0343    0.3707    1.5571 H   0  0  0  0  0  0  0  0  0  0  0  0
   -4.6479    0.6302   -1.5943 H   0  0  0  0  0  0  0  0  0  0  0  0
   -4.7475    0.2704    0.0534 H   0  0  0  0  0  0  0  0  0  0  0  0
  1  2  1  0
  2  3  1  0
  3  4  2  3
  3  5  1  0
  5  6  1  0
  6  7  1  0
  7  8  1  0
  8  9  1  0
  8 10  2  0
  8 11  2  0
  1 12  1  0
  1 13  1  0
  1 14  1  0
  2 15  1  0
  4 16  1  0
  5 17  1  0
  6 18  1  0
  6 19  1  0
  7 20  1  0
  7 21  1  0
  9 22  1  0
  9 23  1  0
M  END
$$$$

     RDKit          3D

 23 22  0  0  0  0  0  0  0  0999 V2000
    3.7991    0.6552    0.6153 C   0  0  0  0  0  0  0  0  0  0  0  0
    2.3670    0.5346    0.8010 N   0  0  0  0  0  0  0  0  0  0  0  0
    1.5548   -0.0254   -0.2200 C   0  0  0  0  0  0  0  0  0  0  0  0
    2.0004   -0.2482   -1.4099 N   0  0  0  0  0  0  0  0  0  0  0  0
    0.2030   -0.3666    0.0315 N   0  0  0  0  0  0  0  0  0  0  0  0
   -0.7276   -0.8209   -0.9784 C   0  0  0  0  0  0  0  0  0  0  0  0
   -2.0829   -1.1036   -0.4427 C   0  0  0  0  0  0  0  0  0  0  0  0
   -2.8978    0.2497    0.3010 S   0  0  0  0  0  6  0  0  0  0  0  0
   -2.0840    0.9262    1.6398 N   0  0  0  0  0  0  0  0  0  0  0  0
   -3.1129    1.3657   -0.7129 O   0  0  0  0  0  0  0  0  0  0  0  0
   -4.2713   -0.1693    0.7419 O   0  0  0  0  0  0  0  0  0  0  0  0
    4.1935   -0.1924    0.0236 H   0  0  0  0  0  0  0  0  0  0  0  0
    4.3111    0.7196    1.5974 H   0  0  0  0  0  0  0  0  0  0  0  0
    3.9568    1.6229    0.0528 H   0  0  0  0  0  0  0  0  0  0  0  0
    1.9747    0.8745    1.7059 H   0  0  0  0  0  0  0  0  0  0  0  0
    1.4516   -0.6489   -2.1733 H   0  0  0  0  0  0  0  0  0  0  0  0
   -0.1508   -0.2890    1.0048 H   0  0  0  0  0  0  0  0  0  0  0  0
   -0.3147   -1.7822   -1.3692 H   0  0  0  0  0  0  0  0  0  0  0  0
   -0.7348   -0.1074   -1.8361 H   0  0  0  0  0  0  0  0  0  0  0  0
   -2.7122   -1.4785   -1.2750 H   0  0  0  0  0  0  0  0  0  0  0  0
   -2.0005   -1.9366    0.2867 H   0  0  0  0  0  0  0  0  0  0  0  0
   -2.5307    1.8524    1.8463 H   0  0  0  0  0  0  0  0  0  0  0  0
   -2.1917    0.3681    2.5220 H   0  0  0  0  0  0  0  0  0  0  0  0
  1  2  1  0
  2  3  1  0
  3  4  2  3
  3  5  1  0
  5  6  1  0
  6  7  1  0
  7  8  1  0
  8  9  1  0
  8 10  2  0
  8 11  2  0
  1 12  1  0
  1 13  1  0
  1 14  1  0
  2 15  1  0
  4 16  1  0
  5 17  1  0
  6 18  1  0
  6 19  1  0
  7 20  1  0
  7 21  1  0
  9 22  1  0
  9 23  1  0
M  END
$$$$
