
     RDKit          3D

 20 19  0  0  0  0  0  0  0  0999 V2000
    1.9515    1.0932   -0.6889 N   0  0  0  0  0  0  0  0  0  0  0  0
    2.2285    0.1197    0.1036 C   0  0  0  0  0  0  0  0  0  0  0  0
    3.5957   -0.0740    0.5074 N   0  0  0  0  0  0  0  0  0  0  0  0
    1.1939   -0.7407    0.5865 N   0  0  0  0  0  0  0  0  0  0  0  0
   -0.1480   -0.2872    0.7207 C   0  0  0  0  0  0  0  0  0  0  0  0
   -0.8168   -0.0935   -0.5870 C   0  0  0  0  0  0  0  0  0  0  0  0
   -2.4853    0.5010   -0.3979 S   0  0  0  0  0  6  0  0  0  0  0  0
   -3.4391   -0.5790    0.5573 N   0  0  0  0  0  0  0  0  0  0  0  0
   -2.5276    1.8737    0.1392 O   0  0  0  0  0  0  0  0  0  0  0  0
   -3.1295    0.4862   -1.7847 O   0  0  0  0  0  0  0  0  0  0  0  0
    2.7366    1.7104   -1.0104 H   0  0  0  0  0  0  0  0  0  0  0  0
    3.7993   -0.2259    1.5088 H   0  0  0  0  0  0  0  0  0  0  0  0
    4.3909   -0.0748   -0.1665 H   0  0  0  0  0  0  0  0  0  0  0  0
    1.5272   -1.7203    0.8235 H   0  0  0  0  0  0  0  0  0  0  0  0
   -0.7044   -1.1219    1.2711 H   0  0  0  0  0  0  0  0  0  0  0  0
   -0.2323    0.6559    1.3309 H   0  0  0  0  0  0  0  0  0  0  0  0
   -0.7962   -1.0863   -1.1171 H   0  0  0  0  0  0  0  0  0  0  0  0
   -0.2644    0.6290   -1.2055 H   0  0  0  0  0  0  0  0  0  0  0  0
   -2.8196   -1.0870    1.2390 H   0  0  0  0  0  0  0  0  0  0  0  0
   -4.0605    0.0216    1.1642 H   0  0  0  0  0  0  0  0  0  0  0  0
  1  2  2  3
  2  3  1  0
  2  4  1  0
  4  5  1  0
  5  6  1  0
  6  7  1  0
  7  8  1  0
  7  9  2  0
  7 10  2  0
  1 11  1  0
  3 12  1  0
  3 13  1  0
  4 14  1  0
  5 15  1  0
  5 16  1  0
  6 17  1  0
  6 18  1  0
  8 19  1  0
  8 20  1  0
M  END
$$$$

     RDKit          3D

 20 19  0  0  0  0  0  0  0  0999 V2000
   -2.0707   -0.4761    1.0994 N   0  0  0  0  0  0  0  0  0  0  0  0
   -1.7899    0.1588   -0.0081 C   0  0  0  0  0  0  0  0  0  0  0  0
   -2.4771    1.3615   -0.3452 N   0  0  0  0  0  0  0  0  0  0  0  0
   -0.7983   -0.3347   -0.9003 N   0  0  0  0  0  0  0  0  0  0  0  0
    0.0465   -1.4291   -0.5834 C   0  0  0  0  0  0  0  0  0  0  0  0
    1.0618   -1.2193    0.4832 C   0  0  0  0  0  0  0  0  0  0  0  0
    2.2305    0.0491    0.1566 S   0  0  0  0  0  6  0  0  0  0  0  0
    1.5044    1.6002   -0.0515 N   0  0  0  0  0  0  0  0  0  0  0  0
    3.2142    0.1198    1.2894 O   0  0  0  0  0  0  0  0  0  0  0  0
    2.9240   -0.2636   -1.1422 O   0  0  0  0  0  0  0  0  0  0  0  0
   -2.7919   -0.1140    1.7395 H   0  0  0  0  0  0  0  0  0  0  0  0
   -3.2558    1.4240   -1.0135 H   0  0  0  0  0  0  0  0  0  0  0  0
   -2.1649    2.2429    0.1210 H   0  0  0  0  0  0  0  0  0  0  0  0
   -0.7044    0.1413   -1.8197 H   0  0  0  0  0  0  0  0  0  0  0  0
   -0.6299   -2.3064   -0.3670 H   0  0  0  0  0  0  0  0  0  0  0  0
    0.6347   -1.7035   -1.5088 H   0  0  0  0  0  0  0  0  0  0  0  0
    0.6391   -1.0637    1.4879 H   0  0  0  0  0  0  0  0  0  0  0  0
    1.6401   -2.1814    0.5652 H   0  0  0  0  0  0  0  0  0  0  0  0
    2.1806    2.3217    0.3248 H   0  0  0  0  0  0  0  0  0  0  0  0
    0.6070    1.6726    0.4728 H   0  0  0  0  0  0  0  0  0  0  0  0
  1  2  2  3
  2  3  1  0
  2  4  1  0
  4  5  1  0
  5  6  1  0
  6  7  1  0
  7  8  1  0
  7  9  2  0
  7 10  2  0
  1 11  1  0
  3 12  1  0
  3 13  1  0
  4 14  1  0
  5 15  1  0
  5 16  1  0
  6 17  1  0
  6 18  1  0
  8 19  1  0
  8 20  1  0
M  END
$$$$

     RDKit          3D

 20 19  0  0  0  0  0  0  0  0999 V2000
    2.0607    1.4174   -0.0834 N   0  0  0  0  0  0  0  0  0  0  0  0
    2.2889    0.1550   -0.1079 C   0  0  0  0  0  0  0  0  0  0  0  0
    3.4122   -0.3616   -0.7958 N   0  0  0  0  0  0  0  0  0  0  0  0
    1.4341   -0.7708    0.5476 N   0  0  0  0  0  0  0  0  0  0  0  0
    0.0818   -0.4141    0.8284 C   0  0  0  0  0  0  0  0  0  0  0  0
   -0.7652   -0.2818   -0.4362 C   0  0  0  0  0  0  0  0  0  0  0  0
   -2.4051    0.1695    0.1380 S   0  0  0  0  0  6  0  0  0  0  0  0
   -3.4843    0.3565   -1.1842 N   0  0  0  0  0  0  0  0  0  0  0  0
   -2.8687   -0.9198    1.0507 O   0  0  0  0  0  0  0  0  0  0  0  0
   -2.2379    1.4445    0.9144 O   0  0  0  0  0  0  0  0  0  0  0  0
    2.7182    2.0747   -0.5814 H   0  0  0  0  0  0  0  0  0  0  0  0
    3.4640   -1.3438   -1.1809 H   0  0  0  0  0  0  0  0  0  0  0  0
    4.2842    0.2050   -0.9728 H   0  0  0  0  0  0  0  0  0  0  0  0
    1.7944   -1.7057    0.8218 H   0  0  0  0  0  0  0  0  0  0  0  0
   -0.4394   -1.1810    1.4517 H   0  0  0  0  0  0  0  0  0  0  0  0
   -0.0270    0.5604    1.3643 H   0  0  0  0  0  0  0  0  0  0  0  0
   -0.8661   -1.2483   -0.9674 H   0  0  0  0  0  0  0  0  0  0  0  0
   -0.3518    0.4915   -1.1164 H   0  0  0  0  0  0  0  0  0  0  0  0
   -4.4154   -0.0386   -0.8684 H   0  0  0  0  0  0  0  0  0  0  0  0
   -3.6776    1.3911   -1.3077 H   0  0  0  0  0  0  0  0  0  0  0  0
  1  2  2  3
  2  3  1  0
  2  4  1  0
  4  5  1  0
  5  6  1  0
  6  7  1  0
  7  8  1  0
  7  9  2  0
  7 10  2  0
  1 11  1  0
  3 12  1  0
  3 13  1  0
  4 14  1  0
  5 15  1  0
  5 16  1  0
  6 17  1  0
  6 18  1  0
  8 19  1  0
  8 20  1  0
M  END
$$$$

     RDKit          3D

 20 19  0  0  0  0  0  0  0  0999 V2000
    2.8972    0.9985    0.5336 N   0  0  0  0  0  0  0  0  0  0  0  0
    2.3678   -0.0321   -0.0275 C   0  0  0  0  0  0  0  0  0  0  0  0
    3.2057   -1.1561   -0.3233 N   0  0  0  0  0  0  0  0  0  0  0  0
    0.9850   -0.0524   -0.3452 N   0  0  0  0  0  0  0  0  0  0  0  0
    0.1235    1.0092    0.0797 C   0  0  0  0  0  0  0  0  0  0  0  0
   -1.3035    0.8516   -0.3198 C   0  0  0  0  0  0  0  0  0  0  0  0
   -2.0347   -0.6242    0.3460 S   0  0  0  0  0  6  0  0  0  0  0  0
   -3.6939   -0.7572   -0.1480 N   0  0  0  0  0  0  0  0  0  0  0  0
   -1.3495   -1.8669   -0.1373 O   0  0  0  0  0  0  0  0  0  0  0  0
   -2.0327   -0.6043    1.8450 O   0  0  0  0  0  0  0  0  0  0  0  0
    3.9099    1.0003    0.7605 H   0  0  0  0  0  0  0  0  0  0  0  0
    3.8723   -1.4659    0.4236 H   0  0  0  0  0  0  0  0  0  0  0  0
    3.1631   -1.6462   -1.2280 H   0  0  0  0  0  0  0  0  0  0  0  0
    0.5996   -0.8450   -0.8914 H   0  0  0  0  0  0  0  0  0  0  0  0
    0.1491    1.1484    1.1896 H   0  0  0  0  0  0  0  0  0  0  0  0
    0.5026    1.9476   -0.3955 H   0  0  0  0  0  0  0  0  0  0  0  0
   -1.8814    1.7037    0.0879 H   0  0  0  0  0  0  0  0  0  0  0  0
   -1.4481    0.8721   -1.4181 H   0  0  0  0  0  0  0  0  0  0  0  0
   -3.8005   -0.3710   -1.1090 H   0  0  0  0  0  0  0  0  0  0  0  0
   -4.2318   -0.1099    0.4874 H   0  0  0  0  0  0  0  0  0  0  0  0
  1  2  2  3
  2  3  1  0
  2  4  1  0
  4  5  1  0
  5  6  1  0
  6  7  1  0
  7  8  1  0
  7  9  2  0
  7 10  2  0
  1 11  1  0
  3 12  1  0
  3 13  1  0
  4 14  1  0
  5 15  1  0
  5 16  1  0
  6 17  1  0
  6 18  1  0
  8 19  1  0
  8 20  1  0
M  END
$$$$

     RDKit          3D

 20 19  0  0  0  0  0  0  0  0999 V2000
   -2.7357   -1.2125    0.2030 N   0  0  0  0  0  0  0  0  0  0  0  0
   -2.0857   -0.2464   -0.4039 C   0  0  0  0  0  0  0  0  0  0  0  0
   -2.8267    0.7937   -0.9994 N   0  0  0  0  0  0  0  0  0  0  0  0
   -0.6555   -0.2609   -0.4525 N   0  0  0  0  0  0  0  0  0  0  0  0
    0.0405   -1.0973    0.4589 C   0  0  0  0  0  0  0  0  0  0  0  0
    1.5280   -1.0552    0.3477 C   0  0  0  0  0  0  0  0  0  0  0  0
    2.2435    0.5127    0.6172 S   0  0  0  0  0  6  0  0  0  0  0  0
    1.6571    1.6769   -0.5276 N   0  0  0  0  0  0  0  0  0  0  0  0
    2.0137    1.0380    2.0050 O   0  0  0  0  0  0  0  0  0  0  0  0
    3.7334    0.4377    0.4240 O   0  0  0  0  0  0  0  0  0  0  0  0
   -3.7718   -1.2029    0.2387 H   0  0  0  0  0  0  0  0  0  0  0  0
   -3.1985    0.6651   -1.9479 H   0  0  0  0  0  0  0  0  0  0  0  0
   -2.9906    1.6683   -0.4875 H   0  0  0  0  0  0  0  0  0  0  0  0
   -0.2088    0.3527   -1.1655 H   0  0  0  0  0  0  0  0  0  0  0  0
   -0.2150   -0.7504    1.5033 H   0  0  0  0  0  0  0  0  0  0  0  0
   -0.3489   -2.1331    0.4063 H   0  0  0  0  0  0  0  0  0  0  0  0
    1.7993   -1.3966   -0.6744 H   0  0  0  0  0  0  0  0  0  0  0  0
    1.9893   -1.7885    1.0412 H   0  0  0  0  0  0  0  0  0  0  0  0
    2.0725    2.6132   -0.3523 H   0  0  0  0  0  0  0  0  0  0  0  0
    1.9597    1.3857   -1.4890 H   0  0  0  0  0  0  0  0  0  0  0  0
  1  2  2  3
  2  3  1  0
  2  4  1  0
  4  5  1  0
  5  6  1  0
  6  7  1  0
  7  8  1  0
  7  9  2  0
  7 10  2  0
  1 11  1  0
  3 12  1  0
  3 13  1  0
  4 14  1  0
  5 15  1  0
  5 16  1  0
  6 17  1  0
  6 18  1  0
  8 19  1  0
  8 20  1  0
M  END
$$$$

     RDKit          3D

 20 19  0  0  0  0  0  0  0  0999 V2000
   -1.7294    0.6333   -1.5901 N   0  0  0  0  0  0  0  0  0  0  0  0
   -2.1422    0.4927   -0.3748 C   0  0  0  0  0  0  0  0  0  0  0  0
   -3.1690    1.3417    0.1690 N   0  0  0  0  0  0  0  0  0  0  0  0
   -1.5649   -0.5357    0.4215 N   0  0  0  0  0  0  0  0  0  0  0  0
   -0.3133   -1.1699    0.0513 C   0  0  0  0  0  0  0  0  0  0  0  0
    0.7834   -0.1446    0.2291 C   0  0  0  0  0  0  0  0  0  0  0  0
    2.3710   -0.7915   -0.2087 S   0  0  0  0  0  6  0  0  0  0  0  0
    3.5158    0.5059    0.0375 N   0  0  0  0  0  0  0  0  0  0  0  0
    2.7847   -1.9002    0.7311 O   0  0  0  0  0  0  0  0  0  0  0  0
    2.4248   -1.2275   -1.6341 O   0  0  0  0  0  0  0  0  0  0  0  0
   -2.1209    1.3759   -2.2261 H   0  0  0  0  0  0  0  0  0  0  0  0
   -3.4613    1.2022    1.1400 H   0  0  0  0  0  0  0  0  0  0  0  0
   -3.6139    2.0636   -0.3966 H   0  0  0  0  0  0  0  0  0  0  0  0
   -2.0774   -0.8350    1.3035 H   0  0  0  0  0  0  0  0  0  0  0  0
   -0.4314   -1.4643   -1.0081 H   0  0  0  0  0  0  0  0  0  0  0  0
   -0.1672   -2.0488    0.6800 H   0  0  0  0  0  0  0  0  0  0  0  0
    0.8077    0.1517    1.3010 H   0  0  0  0  0  0  0  0  0  0  0  0
    0.5584    0.7081   -0.4246 H   0  0  0  0  0  0  0  0  0  0  0  0
    3.0989    1.3809   -0.3585 H   0  0  0  0  0  0  0  0  0  0  0  0
    4.4463    0.2612   -0.3635 H   0  0  0  0  0  0  0  0  0  0  0  0
  1  2  2  3
  2  3  1  0
  2  4  1  0
  4  5  1  0
  5  6  1  0
  6  7  1  0
  7  8  1  0
  7  9  2  0
  7 10  2  0
  1 11  1  0
  3 12  1  0
  3 13  1  0
  4 14  1  0
  5 15  1  0
  5 16  1  0
  6 17  1  0
  6 18  1  0
  8 19  1  0
  8 20  1  0
M  END
$$$$

     RDKit          3D

 20 19  0  0  0  0  0  0  0  0999 V2000
    2.9494   -0.0749   -0.9653 N   0  0  0  0  0  0  0  0  0  0  0  0
    2.2996   -0.3111    0.1415 C   0  0  0  0  0  0  0  0  0  0  0  0
    2.9053   -1.0091    1.2085 N   0  0  0  0  0  0  0  0  0  0  0  0
    0.9561    0.1797    0.1922 N   0  0  0  0  0  0  0  0  0  0  0  0
    0.2717    0.4239   -1.0560 C   0  0  0  0  0  0  0  0  0  0  0  0
   -1.1333    0.8997   -0.9307 C   0  0  0  0  0  0  0  0  0  0  0  0
   -2.1114   -0.2898   -0.1049 S   0  0  0  0  0  6  0  0  0  0  0  0
   -3.7564    0.1972    0.0695 N   0  0  0  0  0  0  0  0  0  0  0  0
   -1.5071   -0.6119    1.2221 O   0  0  0  0  0  0  0  0  0  0  0  0
   -2.1174   -1.5546   -0.9420 O   0  0  0  0  0  0  0  0  0  0  0  0
    3.9470   -0.4091   -1.0721 H   0  0  0  0  0  0  0  0  0  0  0  0
    3.6768   -1.6758    1.0133 H   0  0  0  0  0  0  0  0  0  0  0  0
    2.5988   -0.8729    2.1834 H   0  0  0  0  0  0  0  0  0  0  0  0
    0.5740    0.3294    1.1428 H   0  0  0  0  0  0  0  0  0  0  0  0
    0.9273    1.1713   -1.5958 H   0  0  0  0  0  0  0  0  0  0  0  0
    0.3332   -0.4908   -1.7085 H   0  0  0  0  0  0  0  0  0  0  0  0
   -1.5140    1.0293   -1.9783 H   0  0  0  0  0  0  0  0  0  0  0  0
   -1.2177    1.9127   -0.4809 H   0  0  0  0  0  0  0  0  0  0  0  0
   -4.1548   -0.0136    1.0085 H   0  0  0  0  0  0  0  0  0  0  0  0
   -3.9272    1.1705   -0.2544 H   0  0  0  0  0  0  0  0  0  0  0  0
  1  2  2  3
  2  3  1  0
  2  4  1  0
  4  5  1  0
  5  6  1  0
  6  7  1  0
  7  8  1  0
  7  9  2  0
  7 10  2  0
  1 11  1  0
  3 12  1  0
  3 13  1  0
  4 14  1  0
  5 15  1  0
  5 16  1  0
  6 17  1  0
  6 18  1  0
  8 19  1  0
  8 20  1  0
M  END
$$$$

     RDKit          3D

 20 19  0  0  0  0  0  0  0  0999 V2000
   -2.1928    0.6194   -1.0853 N   0  0  0  0  0  0  0  0  0  0  0  0
   -1.8456    0.4077    0.1254 C   0  0  0  0  0  0  0  0  0  0  0  0
   -2.2800    1.2368    1.1954 N   0  0  0  0  0  0  0  0  0  0  0  0
   -0.9919   -0.6968    0.4554 N   0  0  0  0  0  0  0  0  0  0  0  0
   -0.2451   -1.4112   -0.5610 C   0  0  0  0  0  0  0  0  0  0  0  0
    0.8551   -0.6142   -1.1858 C   0  0  0  0  0  0  0  0  0  0  0  0
    2.1025   -0.0641   -0.0815 S   0  0  0  0  0  6  0  0  0  0  0  0
    1.5505    0.9411    1.1773 N   0  0  0  0  0  0  0  0  0  0  0  0
    2.8805   -1.1927    0.5344 O   0  0  0  0  0  0  0  0  0  0  0  0
    3.1128    0.7071   -0.9262 O   0  0  0  0  0  0  0  0  0  0  0  0
   -1.9168    0.0625   -1.8996 H   0  0  0  0  0  0  0  0  0  0  0  0
   -2.9079    0.8658    1.9450 H   0  0  0  0  0  0  0  0  0  0  0  0
   -1.9730    2.2535    1.2536 H   0  0  0  0  0  0  0  0  0  0  0  0
   -0.8899   -1.0114    1.4401 H   0  0  0  0  0  0  0  0  0  0  0  0
   -0.9675   -1.6566   -1.3671 H   0  0  0  0  0  0  0  0  0  0  0  0
    0.1134   -2.3872   -0.1695 H   0  0  0  0  0  0  0  0  0  0  0  0
    0.4447    0.2951   -1.6860 H   0  0  0  0  0  0  0  0  0  0  0  0
    1.3443   -1.2169   -1.9777 H   0  0  0  0  0  0  0  0  0  0  0  0
    2.2770    0.9054    1.9556 H   0  0  0  0  0  0  0  0  0  0  0  0
    1.5293    1.9567    0.8574 H   0  0  0  0  0  0  0  0  0  0  0  0
  1  2  2  3
  2  3  1  0
  2  4  1  0
  4  5  1  0
  5  6  1  0
  6  7  1  0
  7  8  1  0
  7  9  2  0
  7 10  2  0
  1 11  1  0
  3 12  1  0
  3 13  1  0
  4 14  1  0
  5 15  1  0
  5 16  1  0
  6 17  1  0
  6 18  1  0
  8 19  1  0
  8 20  1  0
M  END
$$$$
