
     RDKit          3D

 27 27  0  0  0  0  0  0  0  0999 V2000
    2.4511   -1.7996   -0.0260 C   0  0  0  0  0  0  0  0  0  0  0  0
    1.3312   -1.0239   -0.2535 O   0  0  0  0  0  0  0  0  0  0  0  0
    1.0185   -0.1910    0.8096 C   0  0  2  0  0  0  0  0  0  0  0  0
   -0.2654   -0.5438    1.2373 O   0  0  0  0  0  0  0  0  0  0  0  0
   -1.0796   -0.5134    0.1048 C   0  0  1  0  0  0  0  0  0  0  0  0
   -2.4172   -1.1832    0.3595 C   0  0  0  0  0  0  0  0  0  0  0  0
   -2.2543   -2.5196    0.7194 O   0  0  0  0  0  0  0  0  0  0  0  0
   -1.2853    0.9029   -0.3542 C   0  0  2  0  0  0  0  0  0  0  0  0
   -1.0170    1.0306   -1.7257 O   0  0  0  0  0  0  0  0  0  0  0  0
   -0.3465    1.8316    0.4066 C   0  0  2  0  0  0  0  0  0  0  0  0
   -0.4058    3.0703   -0.2025 O   0  0  0  0  0  0  0  0  0  0  0  0
    1.0469    1.2312    0.2838 C   0  0  2  0  0  0  0  0  0  0  0  0
    1.4027    1.2861   -1.0539 O   0  0  0  0  0  0  0  0  0  0  0  0
    3.3014   -1.1010    0.1479 H   0  0  0  0  0  0  0  0  0  0  0  0
    2.3733   -2.4568    0.8567 H   0  0  0  0  0  0  0  0  0  0  0  0
    2.6766   -2.3452   -0.9651 H   0  0  0  0  0  0  0  0  0  0  0  0
    1.7243   -0.2949    1.6569 H   0  0  0  0  0  0  0  0  0  0  0  0
   -0.6094   -1.0927   -0.7428 H   0  0  0  0  0  0  0  0  0  0  0  0
   -2.9739   -0.6497    1.1540 H   0  0  0  0  0  0  0  0  0  0  0  0
   -2.9849   -1.1499   -0.5852 H   0  0  0  0  0  0  0  0  0  0  0  0
   -2.1819   -3.0400   -0.1341 H   0  0  0  0  0  0  0  0  0  0  0  0
   -2.3212    1.2190   -0.1730 H   0  0  0  0  0  0  0  0  0  0  0  0
   -0.7076    0.1532   -2.0772 H   0  0  0  0  0  0  0  0  0  0  0  0
   -0.6545    1.8497    1.4749 H   0  0  0  0  0  0  0  0  0  0  0  0
    0.4796    3.3900   -0.4728 H   0  0  0  0  0  0  0  0  0  0  0  0
    1.7845    1.8510    0.8398 H   0  0  0  0  0  0  0  0  0  0  0  0
    1.9143    2.0891   -1.2852 H   0  0  0  0  0  0  0  0  0  0  0  0
  1  2  1  0
  2  3  1  0
  3  4  1  0
  4  5  1  0
  5  6  1  0
  6  7  1  0
  5  8  1  0
  8  9  1  0
  8 10  1  0
 10 11  1  0
 10 12  1  0
 12 13  1  0
 12  3  1  0
  1 14  1  0
  1 15  1  0
  1 16  1  0
  3 17  1  1
  5 18  1  6
  6 19  1  0
  6 20  1  0
  7 21  1  0
  8 22  1  6
  9 23  1  0
 10 24  1  1
 11 25  1  0
 12 26  1  1
 13 27  1  0
M  END
$$$$

     RDKit          3D

 27 27  0  0  0  0  0  0  0  0999 V2000
    3.2105   -0.9892   -0.2893 C   0  0  0  0  0  0  0  0  0  0  0  0
    1.9262   -0.5301   -0.6579 O   0  0  0  0  0  0  0  0  0  0  0  0
    1.1432   -0.2737    0.4619 C   0  0  2  0  0  0  0  0  0  0  0  0
    0.0247   -1.0738    0.5347 O   0  0  0  0  0  0  0  0  0  0  0  0
   -0.9871   -0.7183   -0.3360 C   0  0  1  0  0  0  0  0  0  0  0  0
   -2.1035   -1.7524   -0.1457 C   0  0  0  0  0  0  0  0  0  0  0  0
   -2.5635   -1.7379    1.1699 O   0  0  0  0  0  0  0  0  0  0  0  0
   -1.4898    0.6570    0.0335 C   0  0  2  0  0  0  0  0  0  0  0  0
   -2.5710    1.0658   -0.7167 O   0  0  0  0  0  0  0  0  0  0  0  0
   -0.3384    1.6128   -0.2901 C   0  0  2  0  0  0  0  0  0  0  0  0
   -0.0991    1.5322   -1.6455 O   0  0  0  0  0  0  0  0  0  0  0  0
    0.8456    1.1973    0.5071 C   0  0  2  0  0  0  0  0  0  0  0  0
    1.9534    1.9152    0.0383 O   0  0  0  0  0  0  0  0  0  0  0  0
    3.1738   -1.9137    0.2925 H   0  0  0  0  0  0  0  0  0  0  0  0
    3.8500   -1.0962   -1.1618 H   0  0  0  0  0  0  0  0  0  0  0  0
    3.7085   -0.2226    0.3730 H   0  0  0  0  0  0  0  0  0  0  0  0
    1.7653   -0.5085    1.3513 H   0  0  0  0  0  0  0  0  0  0  0  0
   -0.7037   -0.7091   -1.3912 H   0  0  0  0  0  0  0  0  0  0  0  0
   -1.7222   -2.7751   -0.3317 H   0  0  0  0  0  0  0  0  0  0  0  0
   -2.9463   -1.5654   -0.8207 H   0  0  0  0  0  0  0  0  0  0  0  0
   -3.4862   -1.3314    1.2289 H   0  0  0  0  0  0  0  0  0  0  0  0
   -1.7547    0.7198    1.1175 H   0  0  0  0  0  0  0  0  0  0  0  0
   -3.3155    0.4396   -0.7465 H   0  0  0  0  0  0  0  0  0  0  0  0
   -0.6022    2.6516   -0.0065 H   0  0  0  0  0  0  0  0  0  0  0  0
    0.7053    1.0461   -1.8983 H   0  0  0  0  0  0  0  0  0  0  0  0
    0.7275    1.5025    1.5784 H   0  0  0  0  0  0  0  0  0  0  0  0
    1.6492    2.8575   -0.0781 H   0  0  0  0  0  0  0  0  0  0  0  0
  1  2  1  0
  2  3  1  0
  3  4  1  0
  4  5  1  0
  5  6  1  0
  6  7  1  0
  5  8  1  0
  8  9  1  0
  8 10  1  0
 10 11  1  0
 10 12  1  0
 12 13  1  0
 12  3  1  0
  1 14  1  0
  1 15  1  0
  1 16  1  0
  3 17  1  1
  5 18  1  6
  6 19  1  0
  6 20  1  0
  7 21  1  0
  8 22  1  1
  9 23  1  0
 10 24  1  1
 11 25  1  0
 12 26  1  1
 13 27  1  0
M  END
$$$$

     RDKit          3D

 27 27  0  0  0  0  0  0  0  0999 V2000
    3.4737   -0.5688    0.0628 C   0  0  0  0  0  0  0  0  0  0  0  0
    2.4156   -0.0692    0.8175 O   0  0  0  0  0  0  0  0  0  0  0  0
    1.2352   -0.2504    0.1045 C   0  0  2  0  0  0  0  0  0  0  0  0
    0.6661    1.0066   -0.0670 O   0  0  0  0  0  0  0  0  0  0  0  0
   -0.7024    1.0153   -0.0063 C   0  0  1  0  0  0  0  0  0  0  0  0
   -1.1687    2.3336   -0.6392 C   0  0  0  0  0  0  0  0  0  0  0  0
   -0.6083    3.3630    0.1127 O   0  0  0  0  0  0  0  0  0  0  0  0
   -1.2805   -0.1477   -0.7901 C   0  0  2  0  0  0  0  0  0  0  0  0
   -2.6464   -0.0559   -0.9424 O   0  0  0  0  0  0  0  0  0  0  0  0
   -0.8990   -1.4094   -0.0211 C   0  0  2  0  0  0  0  0  0  0  0  0
   -1.9967   -1.9277    0.6548 O   0  0  0  0  0  0  0  0  0  0  0  0
    0.2980   -1.1987    0.8448 C   0  0  2  0  0  0  0  0  0  0  0  0
    0.0319   -0.7501    2.1062 O   0  0  0  0  0  0  0  0  0  0  0  0
    3.5370   -0.0319   -0.9023 H   0  0  0  0  0  0  0  0  0  0  0  0
    4.4306   -0.3848    0.5962 H   0  0  0  0  0  0  0  0  0  0  0  0
    3.3168   -1.6458   -0.1482 H   0  0  0  0  0  0  0  0  0  0  0  0
    1.4546   -0.7403   -0.8650 H   0  0  0  0  0  0  0  0  0  0  0  0
   -1.1224    1.0174    1.0158 H   0  0  0  0  0  0  0  0  0  0  0  0
   -0.8743    2.3858   -1.7034 H   0  0  0  0  0  0  0  0  0  0  0  0
   -2.2656    2.3716   -0.4818 H   0  0  0  0  0  0  0  0  0  0  0  0
   -0.4500    3.0465    1.0194 H   0  0  0  0  0  0  0  0  0  0  0  0
   -0.8250   -0.1182   -1.7939 H   0  0  0  0  0  0  0  0  0  0  0  0
   -2.8603    0.6015   -1.6494 H   0  0  0  0  0  0  0  0  0  0  0  0
   -0.6158   -2.1562   -0.8025 H   0  0  0  0  0  0  0  0  0  0  0  0
   -2.5940   -2.4449    0.0548 H   0  0  0  0  0  0  0  0  0  0  0  0
    0.8467   -2.1612    0.9262 H   0  0  0  0  0  0  0  0  0  0  0  0
   -0.7970   -1.0800    2.4968 H   0  0  0  0  0  0  0  0  0  0  0  0
  1  2  1  0
  2  3  1  0
  3  4  1  0
  4  5  1  0
  5  6  1  0
  6  7  1  0
  5  8  1  0
  8  9  1  0
  8 10  1  0
 10 11  1  0
 10 12  1  0
 12 13  1  0
 12  3  1  0
  1 14  1  0
  1 15  1  0
  1 16  1  0
  3 17  1  6
  5 18  1  1
  6 19  1  0
  6 20  1  0
  7 21  1  0
  8 22  1  6
  9 23  1  0
 10 24  1  6
 11 25  1  0
 12 26  1  1
 13 27  1  0
M  END
$$$$

     RDKit          3D

 27 27  0  0  0  0  0  0  0  0999 V2000
   -2.8996   -1.9334    0.1133 C   0  0  0  0  0  0  0  0  0  0  0  0
   -2.1599   -1.0579    0.9002 O   0  0  0  0  0  0  0  0  0  0  0  0
   -1.0106   -0.6080    0.2334 C   0  0  2  0  0  0  0  0  0  0  0  0
    0.1317   -0.8959    0.8795 O   0  0  0  0  0  0  0  0  0  0  0  0
    1.2389   -0.1869    0.6586 C   0  0  1  0  0  0  0  0  0  0  0  0
    2.2676   -1.0978   -0.0314 C   0  0  0  0  0  0  0  0  0  0  0  0
    2.5755   -2.1844    0.7546 O   0  0  0  0  0  0  0  0  0  0  0  0
    1.1714    1.0692   -0.1076 C   0  0  2  0  0  0  0  0  0  0  0  0
    1.3591    2.1916    0.7359 O   0  0  0  0  0  0  0  0  0  0  0  0
   -0.0908    1.3229   -0.8625 C   0  0  2  0  0  0  0  0  0  0  0  0
   -0.2089    2.7016   -1.1304 O   0  0  0  0  0  0  0  0  0  0  0  0
   -1.2492    0.8834   -0.0002 C   0  0  2  0  0  0  0  0  0  0  0  0
   -1.2299    1.5020    1.2307 O   0  0  0  0  0  0  0  0  0  0  0  0
   -3.2214   -1.4319   -0.8210 H   0  0  0  0  0  0  0  0  0  0  0  0
   -3.8268   -2.1606    0.6792 H   0  0  0  0  0  0  0  0  0  0  0  0
   -2.3842   -2.8903   -0.0565 H   0  0  0  0  0  0  0  0  0  0  0  0
   -0.9940   -1.0851   -0.7798 H   0  0  0  0  0  0  0  0  0  0  0  0
    1.7206    0.0438    1.6564 H   0  0  0  0  0  0  0  0  0  0  0  0
    1.9503   -1.3327   -1.0470 H   0  0  0  0  0  0  0  0  0  0  0  0
    3.1913   -0.4537   -0.1119 H   0  0  0  0  0  0  0  0  0  0  0  0
    3.0437   -2.8412    0.1830 H   0  0  0  0  0  0  0  0  0  0  0  0
    2.0112    1.1609   -0.8602 H   0  0  0  0  0  0  0  0  0  0  0  0
    1.3852    1.9116    1.6881 H   0  0  0  0  0  0  0  0  0  0  0  0
   -0.1143    0.7172   -1.7778 H   0  0  0  0  0  0  0  0  0  0  0  0
    0.6561    3.1513   -0.9118 H   0  0  0  0  0  0  0  0  0  0  0  0
   -2.2273    1.0205   -0.4735 H   0  0  0  0  0  0  0  0  0  0  0  0
   -1.0856    2.4838    1.1200 H   0  0  0  0  0  0  0  0  0  0  0  0
  1  2  1  0
  2  3  1  0
  3  4  1  0
  4  5  1  0
  5  6  1  0
  6  7  1  0
  5  8  1  0
  8  9  1  0
  8 10  1  0
 10 11  1  0
 10 12  1  0
 12 13  1  0
 12  3  1  0
  1 14  1  0
  1 15  1  0
  1 16  1  0
  3 17  1  6
  5 18  1  1
  6 19  1  0
  6 20  1  0
  7 21  1  0
  8 22  1  6
  9 23  1  0
 10 24  1  6
 11 25  1  0
 12 26  1  6
 13 27  1  0
M  END
$$$$

     RDKit          3D

 27 27  0  0  0  0  0  0  0  0999 V2000
   -2.5813    2.1523   -0.3839 C   0  0  0  0  0  0  0  0  0  0  0  0
   -1.5672    1.2877   -0.8359 O   0  0  0  0  0  0  0  0  0  0  0  0
   -0.8992    0.7525    0.2439 C   0  0  2  0  0  0  0  0  0  0  0  0
    0.4300    1.0149    0.2901 O   0  0  0  0  0  0  0  0  0  0  0  0
    1.2629    0.2246   -0.4275 C   0  0  1  0  0  0  0  0  0  0  0  0
    2.6939    0.5345    0.0384 C   0  0  0  0  0  0  0  0  0  0  0  0
    3.0304    1.8498   -0.1617 O   0  0  0  0  0  0  0  0  0  0  0  0
    1.0759   -1.2572   -0.2088 C   0  0  2  0  0  0  0  0  0  0  0  0
    0.5976   -1.8785   -1.3690 O   0  0  0  0  0  0  0  0  0  0  0  0
   -0.0035   -1.4145    0.8452 C   0  0  2  0  0  0  0  0  0  0  0  0
   -0.2251   -2.7188    1.2055 O   0  0  0  0  0  0  0  0  0  0  0  0
   -1.2333   -0.7380    0.2770 C   0  0  2  0  0  0  0  0  0  0  0  0
   -1.5098   -1.2083   -1.0102 O   0  0  0  0  0  0  0  0  0  0  0  0
   -3.1382    2.6004   -1.2113 H   0  0  0  0  0  0  0  0  0  0  0  0
   -2.1052    2.9356    0.2448 H   0  0  0  0  0  0  0  0  0  0  0  0
   -3.2886    1.6026    0.2627 H   0  0  0  0  0  0  0  0  0  0  0  0
   -1.3473    1.1534    1.2032 H   0  0  0  0  0  0  0  0  0  0  0  0
    1.2612    0.4173   -1.5244 H   0  0  0  0  0  0  0  0  0  0  0  0
    3.4264   -0.1450   -0.4011 H   0  0  0  0  0  0  0  0  0  0  0  0
    2.6708    0.3525    1.1505 H   0  0  0  0  0  0  0  0  0  0  0  0
    3.3596    2.3021    0.6567 H   0  0  0  0  0  0  0  0  0  0  0  0
    1.9834   -1.7766    0.1204 H   0  0  0  0  0  0  0  0  0  0  0  0
    0.3955   -2.8091   -1.1750 H   0  0  0  0  0  0  0  0  0  0  0  0
    0.3241   -0.8359    1.7347 H   0  0  0  0  0  0  0  0  0  0  0  0
   -1.1728   -2.9333    1.2434 H   0  0  0  0  0  0  0  0  0  0  0  0
   -2.1397   -0.9355    0.8999 H   0  0  0  0  0  0  0  0  0  0  0  0
   -1.3005   -0.5293   -1.7076 H   0  0  0  0  0  0  0  0  0  0  0  0
  1  2  1  0
  2  3  1  0
  3  4  1  0
  4  5  1  0
  5  6  1  0
  6  7  1  0
  5  8  1  0
  8  9  1  0
  8 10  1  0
 10 11  1  0
 10 12  1  0
 12 13  1  0
 12  3  1  0
  1 14  1  0
  1 15  1  0
  1 16  1  0
  3 17  1  1
  5 18  1  6
  6 19  1  0
  6 20  1  0
  7 21  1  0
  8 22  1  1
  9 23  1  0
 10 24  1  1
 11 25  1  0
 12 26  1  1
 13 27  1  0
M  END
$$$$

     RDKit          3D

 27 27  0  0  0  0  0  0  0  0999 V2000
    3.2486   -0.9741   -0.2512 C   0  0  0  0  0  0  0  0  0  0  0  0
    2.1978   -0.2375   -0.8095 O   0  0  0  0  0  0  0  0  0  0  0  0
    1.0715   -0.2400    0.0087 C   0  0  2  0  0  0  0  0  0  0  0  0
    0.0508   -0.8692   -0.6259 O   0  0  0  0  0  0  0  0  0  0  0  0
   -1.2177   -0.6096   -0.2859 C   0  0  1  0  0  0  0  0  0  0  0  0
   -1.6432   -1.6657    0.7463 C   0  0  0  0  0  0  0  0  0  0  0  0
   -1.5449   -2.9396    0.1951 O   0  0  0  0  0  0  0  0  0  0  0  0
   -1.5386    0.7443    0.2272 C   0  0  2  0  0  0  0  0  0  0  0  0
   -2.7771    1.1717   -0.2345 O   0  0  0  0  0  0  0  0  0  0  0  0
   -0.4125    1.6704   -0.2560 C   0  0  2  0  0  0  0  0  0  0  0  0
   -0.3056    1.4636   -1.6323 O   0  0  0  0  0  0  0  0  0  0  0  0
    0.8188    1.1483    0.4685 C   0  0  2  0  0  0  0  0  0  0  0  0
    1.9222    1.9374    0.2645 O   0  0  0  0  0  0  0  0  0  0  0  0
    2.9269   -2.0079   -0.1102 H   0  0  0  0  0  0  0  0  0  0  0  0
    4.1301   -0.9053   -0.8905 H   0  0  0  0  0  0  0  0  0  0  0  0
    3.4980   -0.5482    0.7644 H   0  0  0  0  0  0  0  0  0  0  0  0
    1.3371   -0.8520    0.9115 H   0  0  0  0  0  0  0  0  0  0  0  0
   -1.8863   -0.8032   -1.1751 H   0  0  0  0  0  0  0  0  0  0  0  0
   -2.6679   -1.4899    1.0967 H   0  0  0  0  0  0  0  0  0  0  0  0
   -0.9668   -1.6186    1.6396 H   0  0  0  0  0  0  0  0  0  0  0  0
   -2.2447   -2.9858   -0.5191 H   0  0  0  0  0  0  0  0  0  0  0  0
   -1.5370    0.7911    1.3550 H   0  0  0  0  0  0  0  0  0  0  0  0
   -2.9810    2.1003    0.0016 H   0  0  0  0  0  0  0  0  0  0  0  0
   -0.6295    2.7170   -0.0231 H   0  0  0  0  0  0  0  0  0  0  0  0
   -1.2038    1.2067   -1.9955 H   0  0  0  0  0  0  0  0  0  0  0  0
    0.5584    1.1564    1.5503 H   0  0  0  0  0  0  0  0  0  0  0  0
    1.7964    2.6394   -0.4203 H   0  0  0  0  0  0  0  0  0  0  0  0
  1  2  1  0
  2  3  1  0
  3  4  1  0
  4  5  1  0
  5  6  1  0
  6  7  1  0
  5  8  1  0
  8  9  1  0
  8 10  1  0
 10 11  1  0
 10 12  1  0
 12 13  1  0
 12  3  1  0
  1 14  1  0
  1 15  1  0
  1 16  1  0
  3 17  1  1
  5 18  1  6
  6 19  1  0
  6 20  1  0
  7 21  1  0
  8 22  1  1
  9 23  1  0
 10 24  1  6
 11 25  1  0
 12 26  1  1
 13 27  1  0
M  END
$$$$

     RDKit          3D

 27 27  0  0  0  0  0  0  0  0999 V2000
    3.0049   -0.5917   -1.2723 C   0  0  0  0  0  0  0  0  0  0  0  0
    2.1845   -1.2506   -0.3693 O   0  0  0  0  0  0  0  0  0  0  0  0
    0.9695   -0.6737   -0.1779 C   0  0  2  0  0  0  0  0  0  0  0  0
    0.7763   -0.2201    1.1199 O   0  0  0  0  0  0  0  0  0  0  0  0
   -0.4312    0.4234    1.2754 C   0  0  1  0  0  0  0  0  0  0  0  0
   -0.1162    1.8319    1.7893 C   0  0  0  0  0  0  0  0  0  0  0  0
    0.6818    2.5328    0.8942 O   0  0  0  0  0  0  0  0  0  0  0  0
   -1.2196    0.5862    0.0177 C   0  0  2  0  0  0  0  0  0  0  0  0
   -2.5151    1.0019    0.3917 O   0  0  0  0  0  0  0  0  0  0  0  0
   -1.3569   -0.6397   -0.8059 C   0  0  2  0  0  0  0  0  0  0  0  0
   -2.5927   -1.2563   -0.7143 O   0  0  0  0  0  0  0  0  0  0  0  0
   -0.2063   -1.5666   -0.5154 C   0  0  2  0  0  0  0  0  0  0  0  0
   -0.5446   -2.4001    0.5641 O   0  0  0  0  0  0  0  0  0  0  0  0
    3.2345    0.4357   -0.9836 H   0  0  0  0  0  0  0  0  0  0  0  0
    2.5619   -0.6335   -2.2917 H   0  0  0  0  0  0  0  0  0  0  0  0
    3.9549   -1.1614   -1.3244 H   0  0  0  0  0  0  0  0  0  0  0  0
    0.9188    0.2456   -0.8308 H   0  0  0  0  0  0  0  0  0  0  0  0
   -1.0428   -0.0636    2.0617 H   0  0  0  0  0  0  0  0  0  0  0  0
   -1.0424    2.4197    1.9515 H   0  0  0  0  0  0  0  0  0  0  0  0
    0.3976    1.7680    2.7695 H   0  0  0  0  0  0  0  0  0  0  0  0
    0.1529    3.2142    0.4011 H   0  0  0  0  0  0  0  0  0  0  0  0
   -0.7787    1.4522   -0.5409 H   0  0  0  0  0  0  0  0  0  0  0  0
   -2.7639    0.6111    1.2764 H   0  0  0  0  0  0  0  0  0  0  0  0
   -1.2461   -0.3322   -1.8873 H   0  0  0  0  0  0  0  0  0  0  0  0
   -2.9264   -1.3338    0.2062 H   0  0  0  0  0  0  0  0  0  0  0  0
    0.0177   -2.2459   -1.3607 H   0  0  0  0  0  0  0  0  0  0  0  0
   -0.0726   -2.1535    1.3892 H   0  0  0  0  0  0  0  0  0  0  0  0
  1  2  1  0
  2  3  1  0
  3  4  1  0
  4  5  1  0
  5  6  1  0
  6  7  1  0
  5  8  1  0
  8  9  1  0
  8 10  1  0
 10 11  1  0
 10 12  1  0
 12 13  1  0
 12  3  1  0
  1 14  1  0
  1 15  1  0
  1 16  1  0
  3 17  1  6
  5 18  1  1
  6 19  1  0
  6 20  1  0
  7 21  1  0
  8 22  1  6
  9 23  1  0
 10 24  1  6
 11 25  1  0
 12 26  1  6
 13 27  1  0
M  END
$$$$

     RDKit          3D

 27 27  0  0  0  0  0  0  0  0999 V2000
    3.1203    1.4803    0.1505 C   0  0  0  0  0  0  0  0  0  0  0  0
    2.1424    0.7972    0.8690 O   0  0  0  0  0  0  0  0  0  0  0  0
    1.0544    0.4533    0.0651 C   0  0  2  0  0  0  0  0  0  0  0  0
   -0.0444    1.0686    0.5278 O   0  0  0  0  0  0  0  0  0  0  0  0
   -1.1804    0.4275    0.7586 C   0  0  1  0  0  0  0  0  0  0  0  0
   -2.3283    1.4150    0.4785 C   0  0  0  0  0  0  0  0  0  0  0  0
   -2.2455    2.5234    1.2958 O   0  0  0  0  0  0  0  0  0  0  0  0
   -1.4860   -0.8281    0.0381 C   0  0  2  0  0  0  0  0  0  0  0  0
   -2.1699   -1.7244    0.8841 O   0  0  0  0  0  0  0  0  0  0  0  0
   -0.3004   -1.5302   -0.5530 C   0  0  2  0  0  0  0  0  0  0  0  0
   -0.3959   -2.9072   -0.3124 O   0  0  0  0  0  0  0  0  0  0  0  0
    1.0091   -1.0435   -0.0071 C   0  0  2  0  0  0  0  0  0  0  0  0
    1.3262   -1.6130    1.2264 O   0  0  0  0  0  0  0  0  0  0  0  0
    3.9495    1.7282    0.8177 H   0  0  0  0  0  0  0  0  0  0  0  0
    3.4352    0.8425   -0.6834 H   0  0  0  0  0  0  0  0  0  0  0  0
    2.6344    2.4215   -0.2208 H   0  0  0  0  0  0  0  0  0  0  0  0
    1.2797    0.8343   -0.9616 H   0  0  0  0  0  0  0  0  0  0  0  0
   -1.2647    0.2379    1.8703 H   0  0  0  0  0  0  0  0  0  0  0  0
   -2.2172    1.7356   -0.5983 H   0  0  0  0  0  0  0  0  0  0  0  0
   -3.2763    0.8696    0.5811 H   0  0  0  0  0  0  0  0  0  0  0  0
   -1.8159    3.2661    0.7959 H   0  0  0  0  0  0  0  0  0  0  0  0
   -2.2020   -0.6562   -0.8109 H   0  0  0  0  0  0  0  0  0  0  0  0
   -2.8840   -1.2125    1.3633 H   0  0  0  0  0  0  0  0  0  0  0  0
   -0.2580   -1.4205   -1.6631 H   0  0  0  0  0  0  0  0  0  0  0  0
    0.3997   -3.3920   -0.5784 H   0  0  0  0  0  0  0  0  0  0  0  0
    1.8228   -1.3584   -0.7098 H   0  0  0  0  0  0  0  0  0  0  0  0
    1.8952   -2.4150    1.1467 H   0  0  0  0  0  0  0  0  0  0  0  0
  1  2  1  0
  2  3  1  0
  3  4  1  0
  4  5  1  0
  5  6  1  0
  6  7  1  0
  5  8  1  0
  8  9  1  0
  8 10  1  0
 10 11  1  0
 10 12  1  0
 12 13  1  0
 12  3  1  0
  1 14  1  0
  1 15  1  0
  1 16  1  0
  3 17  1  6
  5 18  1  1
  6 19  1  0
  6 20  1  0
  7 21  1  0
  8 22  1  6
  9 23  1  0
 10 24  1  6
 11 25  1  0
 12 26  1  6
 13 27  1  0
M  END
$$$$
