
     RDKit          3D

 24 23  0  0  0  0  0  0  0  0999 V2000
   -4.0561    0.3882    0.4126 C   0  0  0  0  0  0  0  0  0  0  0  0
   -2.9387   -0.3717    0.9878 N   0  0  0  0  0  0  0  0  0  0  0  0
   -1.7442    0.3913    0.6140 C   0  0  0  0  0  0  0  0  0  0  0  0
   -0.5421   -0.5476    0.6104 C   0  0  0  0  0  0  0  0  0  0  0  0
    0.3524    0.1623   -0.2814 N   0  0  0  0  0  0  0  0  0  0  0  0
    1.3371   -0.7398   -1.2681 S   0  0  0  0  0  6  0  0  0  0  0  0
    1.1149   -2.2293   -1.0809 O   0  0  0  0  0  0  0  0  0  0  0  0
    0.7352   -0.4253   -2.7000 O   0  0  0  0  0  0  0  0  0  0  0  0
    3.0094   -0.2510   -1.2686 C   0  0  0  0  0  0  0  0  0  0  0  0
    3.3904   -0.1486    0.1743 C   0  0  0  0  0  0  0  0  0  0  0  0
    2.8870   -0.9907    0.9790 O   0  0  0  0  0  0  0  0  0  0  0  0
    4.2219    0.8439    0.5952 O   0  0  0  0  0  0  0  0  0  0  0  0
   -3.9715    0.4661   -0.7122 H   0  0  0  0  0  0  0  0  0  0  0  0
   -3.9779    1.4305    0.7629 H   0  0  0  0  0  0  0  0  0  0  0  0
   -5.0410   -0.0392    0.6786 H   0  0  0  0  0  0  0  0  0  0  0  0
   -2.9091   -1.3069    0.5535 H   0  0  0  0  0  0  0  0  0  0  0  0
   -1.9025    0.6024   -0.4871 H   0  0  0  0  0  0  0  0  0  0  0  0
   -1.5626    1.2678    1.1837 H   0  0  0  0  0  0  0  0  0  0  0  0
   -0.0818   -0.5936    1.6160 H   0  0  0  0  0  0  0  0  0  0  0  0
   -0.7050   -1.5448    0.2632 H   0  0  0  0  0  0  0  0  0  0  0  0
    1.0585    0.7465    0.4176 H   0  0  0  0  0  0  0  0  0  0  0  0
    3.0536    0.7421   -1.7924 H   0  0  0  0  0  0  0  0  0  0  0  0
    3.6495   -1.0201   -1.7793 H   0  0  0  0  0  0  0  0  0  0  0  0
    4.6228    0.8016    1.5212 H   0  0  0  0  0  0  0  0  0  0  0  0
  1  2  1  0
  2  3  1  0
  3  4  1  0
  4  5  1  0
  5  6  1  0
  6  7  2  0
  6  8  2  0
  6  9  1  0
  9 10  1  0
 10 11  2  0
 10 12  1  0
  1 13  1  0
  1 14  1  0
  1 15  1  0
  2 16  1  0
  3 17  1  0
  3 18  1  0
  4 19  1  0
  4 20  1  0
  5 21  1  0
  9 22  1  0
  9 23  1  0
 12 24  1  0
M  END
$$$$

     RDKit          3D

 24 23  0  0  0  0  0  0  0  0999 V2000
    3.8440    0.3866    0.3861 C   0  0  0  0  0  0  0  0  0  0  0  0
    2.6176   -0.3222    0.1187 N   0  0  0  0  0  0  0  0  0  0  0  0
    1.7128    0.6070   -0.5662 C   0  0  0  0  0  0  0  0  0  0  0  0
    0.3991   -0.1068   -0.8680 C   0  0  0  0  0  0  0  0  0  0  0  0
   -0.1558   -0.5230    0.3759 N   0  0  0  0  0  0  0  0  0  0  0  0
   -1.6446   -1.3504    0.2537 S   0  0  0  0  0  6  0  0  0  0  0  0
   -1.5519   -2.6014   -0.5649 O   0  0  0  0  0  0  0  0  0  0  0  0
   -2.0685   -1.7611    1.6378 O   0  0  0  0  0  0  0  0  0  0  0  0
   -2.9140   -0.3389   -0.4692 C   0  0  0  0  0  0  0  0  0  0  0  0
   -3.1625    0.8848    0.3348 C   0  0  0  0  0  0  0  0  0  0  0  0
   -2.4852    1.9163    0.0564 O   0  0  0  0  0  0  0  0  0  0  0  0
   -4.0845    0.9550    1.3597 O   0  0  0  0  0  0  0  0  0  0  0  0
    4.5385    0.2091   -0.4560 H   0  0  0  0  0  0  0  0  0  0  0  0
    4.3241    0.0013    1.3138 H   0  0  0  0  0  0  0  0  0  0  0  0
    3.6723    1.4847    0.4497 H   0  0  0  0  0  0  0  0  0  0  0  0
    2.8094   -1.1363   -0.5123 H   0  0  0  0  0  0  0  0  0  0  0  0
    1.5538    1.4990    0.0522 H   0  0  0  0  0  0  0  0  0  0  0  0
    2.2315    0.9243   -1.4975 H   0  0  0  0  0  0  0  0  0  0  0  0
    0.5841   -0.9422   -1.5473 H   0  0  0  0  0  0  0  0  0  0  0  0
   -0.2337    0.6272   -1.3987 H   0  0  0  0  0  0  0  0  0  0  0  0
    0.5193   -0.9754    0.9941 H   0  0  0  0  0  0  0  0  0  0  0  0
   -3.8384   -0.9726   -0.4940 H   0  0  0  0  0  0  0  0  0  0  0  0
   -2.6602   -0.1049   -1.5214 H   0  0  0  0  0  0  0  0  0  0  0  0
   -4.0072    1.6397    2.1248 H   0  0  0  0  0  0  0  0  0  0  0  0
  1  2  1  0
  2  3  1  0
  3  4  1  0
  4  5  1  0
  5  6  1  0
  6  7  2  0
  6  8  2  0
  6  9  1  0
  9 10  1  0
 10 11  2  0
 10 12  1  0
  1 13  1  0
  1 14  1  0
  1 15  1  0
  2 16  1  0
  3 17  1  0
  3 18  1  0
  4 19  1  0
  4 20  1  0
  5 21  1  0
  9 22  1  0
  9 23  1  0
 12 24  1  0
M  END
$$$$

     RDKit          3D

 24 23  0  0  0  0  0  0  0  0999 V2000
   -3.3099    0.2862    1.4336 C   0  0  0  0  0  0  0  0  0  0  0  0
   -1.9512    0.2680    0.8859 N   0  0  0  0  0  0  0  0  0  0  0  0
   -2.0477    0.2320   -0.5575 C   0  0  0  0  0  0  0  0  0  0  0  0
   -0.6276    0.2134   -1.0998 C   0  0  0  0  0  0  0  0  0  0  0  0
    0.0647   -0.9366   -0.6203 N   0  0  0  0  0  0  0  0  0  0  0  0
    1.6566   -1.0833   -1.1458 S   0  0  0  0  0  6  0  0  0  0  0  0
    1.9029   -0.0442   -2.2278 O   0  0  0  0  0  0  0  0  0  0  0  0
    1.8409   -2.4346   -1.8097 O   0  0  0  0  0  0  0  0  0  0  0  0
    2.9080   -0.9081    0.0516 C   0  0  0  0  0  0  0  0  0  0  0  0
    2.9532    0.3744    0.7534 C   0  0  0  0  0  0  0  0  0  0  0  0
    3.8518    0.5190    1.6286 O   0  0  0  0  0  0  0  0  0  0  0  0
    2.1087    1.4438    0.5523 O   0  0  0  0  0  0  0  0  0  0  0  0
   -3.2228    0.2789    2.5197 H   0  0  0  0  0  0  0  0  0  0  0  0
   -3.8033   -0.6348    1.0600 H   0  0  0  0  0  0  0  0  0  0  0  0
   -3.8879    1.1425    1.0357 H   0  0  0  0  0  0  0  0  0  0  0  0
   -1.4174    1.1165    1.1627 H   0  0  0  0  0  0  0  0  0  0  0  0
   -2.5827    1.1085   -0.9762 H   0  0  0  0  0  0  0  0  0  0  0  0
   -2.6163   -0.6680   -0.8899 H   0  0  0  0  0  0  0  0  0  0  0  0
   -0.7471    0.0783   -2.2150 H   0  0  0  0  0  0  0  0  0  0  0  0
   -0.1631    1.1821   -0.9371 H   0  0  0  0  0  0  0  0  0  0  0  0
   -0.1143   -1.1832    0.3694 H   0  0  0  0  0  0  0  0  0  0  0  0
    3.8933   -1.0042   -0.4945 H   0  0  0  0  0  0  0  0  0  0  0  0
    2.9408   -1.7457    0.7933 H   0  0  0  0  0  0  0  0  0  0  0  0
    2.3704    2.3990    0.7273 H   0  0  0  0  0  0  0  0  0  0  0  0
  1  2  1  0
  2  3  1  0
  3  4  1  0
  4  5  1  0
  5  6  1  0
  6  7  2  0
  6  8  2  0
  6  9  1  0
  9 10  1  0
 10 11  2  0
 10 12  1  0
  1 13  1  0
  1 14  1  0
  1 15  1  0
  2 16  1  0
  3 17  1  0
  3 18  1  0
  4 19  1  0
  4 20  1  0
  5 21  1  0
  9 22  1  0
  9 23  1  0
 12 24  1  0
M  END
$$$$

     RDKit          3D

 24 23  0  0  0  0  0  0  0  0999 V2000
    3.3577    1.3687   -0.3825 C   0  0  0  0  0  0  0  0  0  0  0  0
    3.3779   -0.0308   -0.0099 N   0  0  0  0  0  0  0  0  0  0  0  0
    2.3014   -0.7990   -0.5921 C   0  0  0  0  0  0  0  0  0  0  0  0
    1.0932   -0.6077    0.3205 C   0  0  0  0  0  0  0  0  0  0  0  0
   -0.0748   -1.0336   -0.3988 N   0  0  0  0  0  0  0  0  0  0  0  0
   -1.4219   -0.0947    0.1548 S   0  0  0  0  0  6  0  0  0  0  0  0
   -1.2929    1.3473   -0.2281 O   0  0  0  0  0  0  0  0  0  0  0  0
   -1.3744   -0.1343    1.6624 O   0  0  0  0  0  0  0  0  0  0  0  0
   -2.8719   -0.8565   -0.4955 C   0  0  0  0  0  0  0  0  0  0  0  0
   -3.9458    0.1142   -0.8039 C   0  0  0  0  0  0  0  0  0  0  0  0
   -4.9674   -0.3358   -1.3851 O   0  0  0  0  0  0  0  0  0  0  0  0
   -3.8975    1.4614   -0.5252 O   0  0  0  0  0  0  0  0  0  0  0  0
    2.4635    1.6495   -0.9730 H   0  0  0  0  0  0  0  0  0  0  0  0
    3.4359    2.0069    0.5327 H   0  0  0  0  0  0  0  0  0  0  0  0
    4.2773    1.5724   -0.9853 H   0  0  0  0  0  0  0  0  0  0  0  0
    3.2860   -0.1524    1.0352 H   0  0  0  0  0  0  0  0  0  0  0  0
    2.5500   -1.8602   -0.5839 H   0  0  0  0  0  0  0  0  0  0  0  0
    2.0731   -0.5118   -1.6390 H   0  0  0  0  0  0  0  0  0  0  0  0
    1.0382    0.4079    0.7062 H   0  0  0  0  0  0  0  0  0  0  0  0
    1.1925   -1.3106    1.1981 H   0  0  0  0  0  0  0  0  0  0  0  0
    0.0162   -1.0689   -1.4166 H   0  0  0  0  0  0  0  0  0  0  0  0
   -2.6772   -1.3958   -1.4601 H   0  0  0  0  0  0  0  0  0  0  0  0
   -3.1865   -1.6201    0.2294 H   0  0  0  0  0  0  0  0  0  0  0  0
   -4.7524    1.8837   -0.1643 H   0  0  0  0  0  0  0  0  0  0  0  0
  1  2  1  0
  2  3  1  0
  3  4  1  0
  4  5  1  0
  5  6  1  0
  6  7  2  0
  6  8  2  0
  6  9  1  0
  9 10  1  0
 10 11  2  0
 10 12  1  0
  1 13  1  0
  1 14  1  0
  1 15  1  0
  2 16  1  0
  3 17  1  0
  3 18  1  0
  4 19  1  0
  4 20  1  0
  5 21  1  0
  9 22  1  0
  9 23  1  0
 12 24  1  0
M  END
$$$$

     RDKit          3D

 24 23  0  0  0  0  0  0  0  0999 V2000
    4.1954   -0.2160    0.1255 C   0  0  0  0  0  0  0  0  0  0  0  0
    2.8084   -0.5093   -0.2568 N   0  0  0  0  0  0  0  0  0  0  0  0
    2.0394    0.6672    0.1113 C   0  0  0  0  0  0  0  0  0  0  0  0
    0.6101    0.4046   -0.2656 C   0  0  0  0  0  0  0  0  0  0  0  0
    0.0567   -0.7444    0.4066 N   0  0  0  0  0  0  0  0  0  0  0  0
   -1.5733   -1.0376   -0.0282 S   0  0  0  0  0  6  0  0  0  0  0  0
   -1.6802   -1.3093   -1.5201 O   0  0  0  0  0  0  0  0  0  0  0  0
   -2.0991   -2.2629    0.6603 O   0  0  0  0  0  0  0  0  0  0  0  0
   -2.5614    0.3442    0.4354 C   0  0  0  0  0  0  0  0  0  0  0  0
   -3.9972    0.1387    0.0770 C   0  0  0  0  0  0  0  0  0  0  0  0
   -4.4162   -0.9050   -0.4864 O   0  0  0  0  0  0  0  0  0  0  0  0
   -4.9302    1.1232    0.3656 O   0  0  0  0  0  0  0  0  0  0  0  0
    4.3685    0.8458   -0.1964 H   0  0  0  0  0  0  0  0  0  0  0  0
    4.1999   -0.2880    1.2505 H   0  0  0  0  0  0  0  0  0  0  0  0
    4.9047   -0.8994   -0.3382 H   0  0  0  0  0  0  0  0  0  0  0  0
    2.7270   -0.7524   -1.2483 H   0  0  0  0  0  0  0  0  0  0  0  0
    2.4073    1.5734   -0.4124 H   0  0  0  0  0  0  0  0  0  0  0  0
    2.1650    0.8624    1.1912 H   0  0  0  0  0  0  0  0  0  0  0  0
    0.5902    0.2462   -1.3767 H   0  0  0  0  0  0  0  0  0  0  0  0
    0.0324    1.3121   -0.0527 H   0  0  0  0  0  0  0  0  0  0  0  0
    0.6566   -1.5887    0.2728 H   0  0  0  0  0  0  0  0  0  0  0  0
   -2.2440    1.2797   -0.0489 H   0  0  0  0  0  0  0  0  0  0  0  0
   -2.5294    0.4213    1.5416 H   0  0  0  0  0  0  0  0  0  0  0  0
   -5.7306    1.2945   -0.2072 H   0  0  0  0  0  0  0  0  0  0  0  0
  1  2  1  0
  2  3  1  0
  3  4  1  0
  4  5  1  0
  5  6  1  0
  6  7  2  0
  6  8  2  0
  6  9  1  0
  9 10  1  0
 10 11  2  0
 10 12  1  0
  1 13  1  0
  1 14  1  0
  1 15  1  0
  2 16  1  0
  3 17  1  0
  3 18  1  0
  4 19  1  0
  4 20  1  0
  5 21  1  0
  9 22  1  0
  9 23  1  0
 12 24  1  0
M  END
$$$$

     RDKit          3D

 24 23  0  0  0  0  0  0  0  0999 V2000
   -4.1700   -0.4902   -0.1687 C   0  0  0  0  0  0  0  0  0  0  0  0
   -2.8740   -0.1265    0.3378 N   0  0  0  0  0  0  0  0  0  0  0  0
   -1.8689   -0.8191   -0.4180 C   0  0  0  0  0  0  0  0  0  0  0  0
   -0.4660   -0.5004    0.0415 C   0  0  0  0  0  0  0  0  0  0  0  0
   -0.1726    0.9249   -0.0812 N   0  0  0  0  0  0  0  0  0  0  0  0
    1.4574    1.1039    0.4835 S   0  0  0  0  0  6  0  0  0  0  0  0
    1.4816    0.5478    1.8873 O   0  0  0  0  0  0  0  0  0  0  0  0
    1.8733    2.5253    0.5578 O   0  0  0  0  0  0  0  0  0  0  0  0
    2.6167    0.2078   -0.4739 C   0  0  0  0  0  0  0  0  0  0  0  0
    3.9571    0.4341    0.0954 C   0  0  0  0  0  0  0  0  0  0  0  0
    4.6532    1.3813   -0.3056 O   0  0  0  0  0  0  0  0  0  0  0  0
    4.4375   -0.4038    1.0714 O   0  0  0  0  0  0  0  0  0  0  0  0
   -5.0011   -0.0790    0.4682 H   0  0  0  0  0  0  0  0  0  0  0  0
   -4.3166   -1.5879   -0.1675 H   0  0  0  0  0  0  0  0  0  0  0  0
   -4.3649   -0.1297   -1.1948 H   0  0  0  0  0  0  0  0  0  0  0  0
   -2.7953    0.8959    0.3422 H   0  0  0  0  0  0  0  0  0  0  0  0
   -2.0169   -1.9076   -0.2423 H   0  0  0  0  0  0  0  0  0  0  0  0
   -2.0109   -0.6628   -1.5064 H   0  0  0  0  0  0  0  0  0  0  0  0
   -0.3662   -0.8487    1.0848 H   0  0  0  0  0  0  0  0  0  0  0  0
    0.2498   -1.0452   -0.5774 H   0  0  0  0  0  0  0  0  0  0  0  0
   -0.8171    1.4035    0.5804 H   0  0  0  0  0  0  0  0  0  0  0  0
    2.4399   -0.9036   -0.4404 H   0  0  0  0  0  0  0  0  0  0  0  0
    2.6542    0.5473   -1.5343 H   0  0  0  0  0  0  0  0  0  0  0  0
    5.4198   -0.4673    1.3300 H   0  0  0  0  0  0  0  0  0  0  0  0
  1  2  1  0
  2  3  1  0
  3  4  1  0
  4  5  1  0
  5  6  1  0
  6  7  2  0
  6  8  2  0
  6  9  1  0
  9 10  1  0
 10 11  2  0
 10 12  1  0
  1 13  1  0
  1 14  1  0
  1 15  1  0
  2 16  1  0
  3 17  1  0
  3 18  1  0
  4 19  1  0
  4 20  1  0
  5 21  1  0
  9 22  1  0
  9 23  1  0
 12 24  1  0
M  END
$$$$

     RDKit          3D

 24 23  0  0  0  0  0  0  0  0999 V2000
   -3.8422   -0.5949    0.8946 C   0  0  0  0  0  0  0  0  0  0  0  0
   -2.4358   -0.7549    0.5169 N   0  0  0  0  0  0  0  0  0  0  0  0
   -2.2110    0.2088   -0.5289 C   0  0  0  0  0  0  0  0  0  0  0  0
   -0.7401    0.3907   -0.8781 C   0  0  0  0  0  0  0  0  0  0  0  0
    0.0024    0.8208    0.2771 N   0  0  0  0  0  0  0  0  0  0  0  0
    1.6697    1.0794    0.0050 S   0  0  0  0  0  6  0  0  0  0  0  0
    2.2996    1.6017    1.2558 O   0  0  0  0  0  0  0  0  0  0  0  0
    1.8921    2.0734   -1.1306 O   0  0  0  0  0  0  0  0  0  0  0  0
    2.4032   -0.4494   -0.4959 C   0  0  0  0  0  0  0  0  0  0  0  0
    3.8511   -0.3215   -0.7326 C   0  0  0  0  0  0  0  0  0  0  0  0
    4.4302    0.7609   -0.5589 O   0  0  0  0  0  0  0  0  0  0  0  0
    4.5747   -1.4183   -1.1507 O   0  0  0  0  0  0  0  0  0  0  0  0
   -4.4125   -0.3712   -0.0093 H   0  0  0  0  0  0  0  0  0  0  0  0
   -3.8370    0.3156    1.5434 H   0  0  0  0  0  0  0  0  0  0  0  0
   -4.2261   -1.4119    1.4882 H   0  0  0  0  0  0  0  0  0  0  0  0
   -2.2916   -1.7472    0.1762 H   0  0  0  0  0  0  0  0  0  0  0  0
   -2.7987   -0.1322   -1.4107 H   0  0  0  0  0  0  0  0  0  0  0  0
   -2.6502    1.1716   -0.1718 H   0  0  0  0  0  0  0  0  0  0  0  0
   -0.3507   -0.5897   -1.1961 H   0  0  0  0  0  0  0  0  0  0  0  0
   -0.6180    1.1279   -1.7046 H   0  0  0  0  0  0  0  0  0  0  0  0
   -0.4102    1.7475    0.5999 H   0  0  0  0  0  0  0  0  0  0  0  0
    2.2496   -1.2229    0.2658 H   0  0  0  0  0  0  0  0  0  0  0  0
    1.8869   -0.7362   -1.4630 H   0  0  0  0  0  0  0  0  0  0  0  0
    5.5646   -1.5478   -0.9404 H   0  0  0  0  0  0  0  0  0  0  0  0
  1  2  1  0
  2  3  1  0
  3  4  1  0
  4  5  1  0
  5  6  1  0
  6  7  2  0
  6  8  2  0
  6  9  1  0
  9 10  1  0
 10 11  2  0
 10 12  1  0
  1 13  1  0
  1 14  1  0
  1 15  1  0
  2 16  1  0
  3 17  1  0
  3 18  1  0
  4 19  1  0
  4 20  1  0
  5 21  1  0
  9 22  1  0
  9 23  1  0
 12 24  1  0
M  END
$$$$

     RDKit          3D

 24 23  0  0  0  0  0  0  0  0999 V2000
    3.8787    0.8663   -0.5247 C   0  0  0  0  0  0  0  0  0  0  0  0
    2.5605    0.5548   -1.0073 N   0  0  0  0  0  0  0  0  0  0  0  0
    1.8160   -0.0994    0.0446 C   0  0  0  0  0  0  0  0  0  0  0  0
    0.4063   -0.4098   -0.4634 C   0  0  0  0  0  0  0  0  0  0  0  0
   -0.3374   -1.0471    0.5853 N   0  0  0  0  0  0  0  0  0  0  0  0
   -1.9237   -1.4653    0.1884 S   0  0  0  0  0  6  0  0  0  0  0  0
   -1.9147   -2.4262   -0.9947 O   0  0  0  0  0  0  0  0  0  0  0  0
   -2.5254   -2.2678    1.3271 O   0  0  0  0  0  0  0  0  0  0  0  0
   -2.9821   -0.1217   -0.2419 C   0  0  0  0  0  0  0  0  0  0  0  0
   -3.1620    0.8900    0.7851 C   0  0  0  0  0  0  0  0  0  0  0  0
   -3.8415    0.6408    1.8168 O   0  0  0  0  0  0  0  0  0  0  0  0
   -2.6086    2.1483    0.6896 O   0  0  0  0  0  0  0  0  0  0  0  0
    3.8801    1.0926    0.5625 H   0  0  0  0  0  0  0  0  0  0  0  0
    4.2052    1.7758   -1.1142 H   0  0  0  0  0  0  0  0  0  0  0  0
    4.5324    0.0149   -0.7680 H   0  0  0  0  0  0  0  0  0  0  0  0
    2.5603    0.0742   -1.9109 H   0  0  0  0  0  0  0  0  0  0  0  0
    1.6932    0.6115    0.8952 H   0  0  0  0  0  0  0  0  0  0  0  0
    2.3155   -1.0555    0.3535 H   0  0  0  0  0  0  0  0  0  0  0  0
    0.4851   -1.0377   -1.3793 H   0  0  0  0  0  0  0  0  0  0  0  0
   -0.0524    0.5743   -0.6606 H   0  0  0  0  0  0  0  0  0  0  0  0
    0.1769   -1.8860    0.9063 H   0  0  0  0  0  0  0  0  0  0  0  0
   -2.5663    0.3026   -1.2032 H   0  0  0  0  0  0  0  0  0  0  0  0
   -3.9588   -0.5946   -0.5663 H   0  0  0  0  0  0  0  0  0  0  0  0
   -2.6373    2.8651    1.3922 H   0  0  0  0  0  0  0  0  0  0  0  0
  1  2  1  0
  2  3  1  0
  3  4  1  0
  4  5  1  0
  5  6  1  0
  6  7  2  0
  6  8  2  0
  6  9  1  0
  9 10  1  0
 10 11  2  0
 10 12  1  0
  1 13  1  0
  1 14  1  0
  1 15  1  0
  2 16  1  0
  3 17  1  0
  3 18  1  0
  4 19  1  0
  4 20  1  0
  5 21  1  0
  9 22  1  0
  9 23  1  0
 12 24  1  0
M  END
$$$$
