
     RDKit          3D

 21 21  0  0  0  0  0  0  0  0999 V2000
    3.8449    0.6522   -0.1423 C   0  0  0  0  0  0  0  0  0  0  0  0
    2.8305    0.2267    0.8229 N   0  0  0  0  0  0  0  0  0  0  0  0
    1.4807    0.1170    0.4387 C   0  0  0  0  0  0  0  0  0  0  0  0
    1.1175    0.3810   -0.7374 O   0  0  0  0  0  0  0  0  0  0  0  0
    0.4279   -0.3196    1.4222 C   0  0  0  0  0  0  0  0  0  0  0  0
   -0.8705   -0.3569    0.8033 N   0  0  0  0  0  0  0  0  0  0  0  0
   -1.7238    0.6123    0.7420 O   0  0  0  0  0  0  0  0  0  0  0  0
   -2.8127    0.2745    0.1163 C   0  0  0  0  0  0  0  0  0  0  0  0
   -3.9476    1.0940   -0.1284 N   0  0  0  0  0  0  0  0  0  0  0  0
   -2.6359   -1.0424   -0.2591 C   0  0  0  0  0  0  0  0  0  0  0  0
   -1.4078   -1.4309    0.1790 C   0  0  0  0  0  0  0  0  0  0  0  0
   -0.8727   -2.5780    0.0298 O   0  0  0  0  0  0  0  0  0  0  0  0
    4.3551   -0.2313   -0.5723 H   0  0  0  0  0  0  0  0  0  0  0  0
    3.4122    1.2423   -0.9504 H   0  0  0  0  0  0  0  0  0  0  0  0
    4.6104    1.2489    0.3902 H   0  0  0  0  0  0  0  0  0  0  0  0
    3.0716   -0.0049    1.8094 H   0  0  0  0  0  0  0  0  0  0  0  0
    0.4546    0.3219    2.3199 H   0  0  0  0  0  0  0  0  0  0  0  0
    0.7347   -1.3585    1.7294 H   0  0  0  0  0  0  0  0  0  0  0  0
   -4.6050    1.3696    0.6321 H   0  0  0  0  0  0  0  0  0  0  0  0
   -4.1054    1.4161   -1.1048 H   0  0  0  0  0  0  0  0  0  0  0  0
   -3.3586   -1.6339   -0.8021 H   0  0  0  0  0  0  0  0  0  0  0  0
  1  2  1  0
  2  3  1  0
  3  4  2  0
  3  5  1  0
  5  6  1  0
  6  7  1  0
  7  8  1  0
  8  9  1  0
  8 10  2  0
 10 11  1  0
 11 12  2  0
 11  6  1  0
  1 13  1  0
  1 14  1  0
  1 15  1  0
  2 16  1  0
  5 17  1  0
  5 18  1  0
  9 19  1  0
  9 20  1  0
 10 21  1  0
M  END
$$$$

     RDKit          3D

 21 21  0  0  0  0  0  0  0  0999 V2000
   -3.0152    1.3698    0.2622 C   0  0  0  0  0  0  0  0  0  0  0  0
   -1.8161    0.6023    0.1094 N   0  0  0  0  0  0  0  0  0  0  0  0
   -1.8515   -0.7238   -0.3845 C   0  0  0  0  0  0  0  0  0  0  0  0
   -2.9570   -1.2263   -0.6908 O   0  0  0  0  0  0  0  0  0  0  0  0
   -0.6469   -1.5625   -0.5630 C   0  0  0  0  0  0  0  0  0  0  0  0
    0.5667   -0.9204   -0.1933 N   0  0  0  0  0  0  0  0  0  0  0  0
    1.3539   -0.2095   -0.9295 O   0  0  0  0  0  0  0  0  0  0  0  0
    2.3821    0.2362   -0.2904 C   0  0  0  0  0  0  0  0  0  0  0  0
    3.4689    1.0437   -0.7300 N   0  0  0  0  0  0  0  0  0  0  0  0
    2.2698   -0.2244    1.0048 C   0  0  0  0  0  0  0  0  0  0  0  0
    1.1071   -0.9553    1.0343 C   0  0  0  0  0  0  0  0  0  0  0  0
    0.6747   -1.5391    2.0793 O   0  0  0  0  0  0  0  0  0  0  0  0
   -3.7785    1.1745   -0.5117 H   0  0  0  0  0  0  0  0  0  0  0  0
   -3.4975    1.2527    1.2450 H   0  0  0  0  0  0  0  0  0  0  0  0
   -2.7753    2.4648    0.1729 H   0  0  0  0  0  0  0  0  0  0  0  0
   -0.8727    0.9856    0.3539 H   0  0  0  0  0  0  0  0  0  0  0  0
   -0.7819   -2.4789    0.0579 H   0  0  0  0  0  0  0  0  0  0  0  0
   -0.5866   -1.9233   -1.6133 H   0  0  0  0  0  0  0  0  0  0  0  0
    4.4172    0.6194   -0.8263 H   0  0  0  0  0  0  0  0  0  0  0  0
    3.3809    2.0546   -0.9685 H   0  0  0  0  0  0  0  0  0  0  0  0
    2.9579   -0.0399    1.8094 H   0  0  0  0  0  0  0  0  0  0  0  0
  1  2  1  0
  2  3  1  0
  3  4  2  0
  3  5  1  0
  5  6  1  0
  6  7  1  0
  7  8  1  0
  8  9  1  0
  8 10  2  0
 10 11  1  0
 11 12  2  0
 11  6  1  0
  1 13  1  0
  1 14  1  0
  1 15  1  0
  2 16  1  0
  5 17  1  0
  5 18  1  0
  9 19  1  0
  9 20  1  0
 10 21  1  0
M  END
$$$$

     RDKit          3D

 21 21  0  0  0  0  0  0  0  0999 V2000
    3.2700    0.7567    0.6268 C   0  0  0  0  0  0  0  0  0  0  0  0
    2.0956   -0.1154    0.5890 N   0  0  0  0  0  0  0  0  0  0  0  0
    1.6504   -0.6977   -0.6205 C   0  0  0  0  0  0  0  0  0  0  0  0
    2.3162   -0.4353   -1.6747 O   0  0  0  0  0  0  0  0  0  0  0  0
    0.4425   -1.5900   -0.6912 C   0  0  0  0  0  0  0  0  0  0  0  0
   -0.7364   -0.7787   -0.3275 N   0  0  0  0  0  0  0  0  0  0  0  0
   -1.4473   -0.0318   -1.0838 O   0  0  0  0  0  0  0  0  0  0  0  0
   -2.4126    0.5881   -0.4538 C   0  0  0  0  0  0  0  0  0  0  0  0
   -3.3772    1.4949   -1.0211 N   0  0  0  0  0  0  0  0  0  0  0  0
   -2.3268    0.2041    0.8675 C   0  0  0  0  0  0  0  0  0  0  0  0
   -1.2515   -0.6644    0.9102 C   0  0  0  0  0  0  0  0  0  0  0  0
   -0.8641   -1.2313    1.9743 O   0  0  0  0  0  0  0  0  0  0  0  0
    3.5159    1.0296   -0.4286 H   0  0  0  0  0  0  0  0  0  0  0  0
    2.9446    1.6637    1.2137 H   0  0  0  0  0  0  0  0  0  0  0  0
    4.0847    0.2296    1.1457 H   0  0  0  0  0  0  0  0  0  0  0  0
    1.5994   -0.2896    1.4870 H   0  0  0  0  0  0  0  0  0  0  0  0
    0.5625   -2.4207    0.0278 H   0  0  0  0  0  0  0  0  0  0  0  0
    0.3570   -1.9940   -1.7026 H   0  0  0  0  0  0  0  0  0  0  0  0
   -3.0687    2.4679   -1.3113 H   0  0  0  0  0  0  0  0  0  0  0  0
   -4.3664    1.2684   -1.1731 H   0  0  0  0  0  0  0  0  0  0  0  0
   -2.9878    0.5458    1.6463 H   0  0  0  0  0  0  0  0  0  0  0  0
  1  2  1  0
  2  3  1  0
  3  4  2  0
  3  5  1  0
  5  6  1  0
  6  7  1  0
  7  8  1  0
  8  9  1  0
  8 10  2  0
 10 11  1  0
 11 12  2  0
 11  6  1  0
  1 13  1  0
  1 14  1  0
  1 15  1  0
  2 16  1  0
  5 17  1  0
  5 18  1  0
  9 19  1  0
  9 20  1  0
 10 21  1  0
M  END
$$$$

     RDKit          3D

 21 21  0  0  0  0  0  0  0  0999 V2000
   -3.8261    0.3348   -1.3587 C   0  0  0  0  0  0  0  0  0  0  0  0
   -2.8821    0.0346   -0.3238 N   0  0  0  0  0  0  0  0  0  0  0  0
   -1.4704    0.0562   -0.5094 C   0  0  0  0  0  0  0  0  0  0  0  0
   -1.0268    0.3522   -1.6329 O   0  0  0  0  0  0  0  0  0  0  0  0
   -0.6249   -0.2757    0.6495 C   0  0  0  0  0  0  0  0  0  0  0  0
    0.7806   -0.2259    0.3613 N   0  0  0  0  0  0  0  0  0  0  0  0
    1.6120    0.7779    0.4612 O   0  0  0  0  0  0  0  0  0  0  0  0
    2.8140    0.4663    0.1166 C   0  0  0  0  0  0  0  0  0  0  0  0
    4.0005    1.2559    0.0808 N   0  0  0  0  0  0  0  0  0  0  0  0
    2.8010   -0.8654   -0.2501 C   0  0  0  0  0  0  0  0  0  0  0  0
    1.4948   -1.2752   -0.0833 C   0  0  0  0  0  0  0  0  0  0  0  0
    1.1061   -2.4461   -0.3246 O   0  0  0  0  0  0  0  0  0  0  0  0
   -4.2791   -0.6114   -1.7726 H   0  0  0  0  0  0  0  0  0  0  0  0
   -4.6655    0.9014   -0.9053 H   0  0  0  0  0  0  0  0  0  0  0  0
   -3.4005    0.9654   -2.1680 H   0  0  0  0  0  0  0  0  0  0  0  0
   -3.2820   -0.2153    0.6264 H   0  0  0  0  0  0  0  0  0  0  0  0
   -0.8226    0.4244    1.4983 H   0  0  0  0  0  0  0  0  0  0  0  0
   -0.8770   -1.3052    0.9737 H   0  0  0  0  0  0  0  0  0  0  0  0
    4.7255    1.1427    0.8302 H   0  0  0  0  0  0  0  0  0  0  0  0
    4.1676    1.9514   -0.6808 H   0  0  0  0  0  0  0  0  0  0  0  0
    3.6547   -1.4430   -0.5938 H   0  0  0  0  0  0  0  0  0  0  0  0
  1  2  1  0
  2  3  1  0
  3  4  2  0
  3  5  1  0
  5  6  1  0
  6  7  1  0
  7  8  1  0
  8  9  1  0
  8 10  2  0
 10 11  1  0
 11 12  2  0
 11  6  1  0
  1 13  1  0
  1 14  1  0
  1 15  1  0
  2 16  1  0
  5 17  1  0
  5 18  1  0
  9 19  1  0
  9 20  1  0
 10 21  1  0
M  END
$$$$

     RDKit          3D

 21 21  0  0  0  0  0  0  0  0999 V2000
   -3.8702   -0.4709    0.6513 C   0  0  0  0  0  0  0  0  0  0  0  0
   -2.8332   -0.3229   -0.3680 N   0  0  0  0  0  0  0  0  0  0  0  0
   -1.4697   -0.1108   -0.0323 C   0  0  0  0  0  0  0  0  0  0  0  0
   -1.1571   -0.0503    1.1756 O   0  0  0  0  0  0  0  0  0  0  0  0
   -0.4757    0.0298   -1.1165 C   0  0  0  0  0  0  0  0  0  0  0  0
    0.8698    0.2416   -0.5579 N   0  0  0  0  0  0  0  0  0  0  0  0
    1.7130   -0.6997   -0.2634 O   0  0  0  0  0  0  0  0  0  0  0  0
    2.8375   -0.2322    0.2185 C   0  0  0  0  0  0  0  0  0  0  0  0
    3.9896   -0.9327    0.6513 N   0  0  0  0  0  0  0  0  0  0  0  0
    2.6742    1.1584    0.2240 C   0  0  0  0  0  0  0  0  0  0  0  0
    1.4220    1.4305   -0.2716 C   0  0  0  0  0  0  0  0  0  0  0  0
    0.8944    2.5549   -0.4282 O   0  0  0  0  0  0  0  0  0  0  0  0
   -4.7939    0.0487    0.3713 H   0  0  0  0  0  0  0  0  0  0  0  0
   -3.5343   -0.1635    1.6455 H   0  0  0  0  0  0  0  0  0  0  0  0
   -4.1121   -1.5669    0.6619 H   0  0  0  0  0  0  0  0  0  0  0  0
   -3.1754   -0.3857   -1.3594 H   0  0  0  0  0  0  0  0  0  0  0  0
   -0.5135   -0.8985   -1.7250 H   0  0  0  0  0  0  0  0  0  0  0  0
   -0.7239    0.8646   -1.8107 H   0  0  0  0  0  0  0  0  0  0  0  0
    4.9113   -0.6479    0.2841 H   0  0  0  0  0  0  0  0  0  0  0  0
    3.9118   -1.7108    1.3188 H   0  0  0  0  0  0  0  0  0  0  0  0
    3.4355    1.8642    0.5704 H   0  0  0  0  0  0  0  0  0  0  0  0
  1  2  1  0
  2  3  1  0
  3  4  2  0
  3  5  1  0
  5  6  1  0
  6  7  1  0
  7  8  1  0
  8  9  1  0
  8 10  2  0
 10 11  1  0
 11 12  2  0
 11  6  1  0
  1 13  1  0
  1 14  1  0
  1 15  1  0
  2 16  1  0
  5 17  1  0
  5 18  1  0
  9 19  1  0
  9 20  1  0
 10 21  1  0
M  END
$$$$

     RDKit          3D

 21 21  0  0  0  0  0  0  0  0999 V2000
    3.7437    0.8734   -0.5827 C   0  0  0  0  0  0  0  0  0  0  0  0
    2.8908   -0.0907    0.0650 N   0  0  0  0  0  0  0  0  0  0  0  0
    1.4756   -0.0065   -0.0251 C   0  0  0  0  0  0  0  0  0  0  0  0
    1.0090    0.9492   -0.6966 O   0  0  0  0  0  0  0  0  0  0  0  0
    0.5693   -0.9847    0.6312 C   0  0  0  0  0  0  0  0  0  0  0  0
   -0.8013   -0.6096    0.3410 N   0  0  0  0  0  0  0  0  0  0  0  0
   -1.5677    0.1759    1.0225 O   0  0  0  0  0  0  0  0  0  0  0  0
   -2.7484    0.2992    0.4796 C   0  0  0  0  0  0  0  0  0  0  0  0
   -3.8523    1.0725    0.9364 N   0  0  0  0  0  0  0  0  0  0  0  0
   -2.7711   -0.4816   -0.6787 C   0  0  0  0  0  0  0  0  0  0  0  0
   -1.5165   -1.0452   -0.7359 C   0  0  0  0  0  0  0  0  0  0  0  0
   -1.0672   -1.8343   -1.6171 O   0  0  0  0  0  0  0  0  0  0  0  0
    4.2685    1.5244    0.1467 H   0  0  0  0  0  0  0  0  0  0  0  0
    4.5312    0.3779   -1.1797 H   0  0  0  0  0  0  0  0  0  0  0  0
    3.1524    1.5435   -1.2417 H   0  0  0  0  0  0  0  0  0  0  0  0
    3.2949   -0.8678    0.6116 H   0  0  0  0  0  0  0  0  0  0  0  0
    0.7114   -0.9769    1.7408 H   0  0  0  0  0  0  0  0  0  0  0  0
    0.7361   -2.0126    0.2265 H   0  0  0  0  0  0  0  0  0  0  0  0
   -4.7516    0.6172    1.1471 H   0  0  0  0  0  0  0  0  0  0  0  0
   -3.7241    2.0974    1.0491 H   0  0  0  0  0  0  0  0  0  0  0  0
   -3.5827   -0.6207   -1.3801 H   0  0  0  0  0  0  0  0  0  0  0  0
  1  2  1  0
  2  3  1  0
  3  4  2  0
  3  5  1  0
  5  6  1  0
  6  7  1  0
  7  8  1  0
  8  9  1  0
  8 10  2  0
 10 11  1  0
 11 12  2  0
 11  6  1  0
  1 13  1  0
  1 14  1  0
  1 15  1  0
  2 16  1  0
  5 17  1  0
  5 18  1  0
  9 19  1  0
  9 20  1  0
 10 21  1  0
M  END
$$$$

     RDKit          3D

 21 21  0  0  0  0  0  0  0  0999 V2000
    3.2361    0.3522    0.4788 C   0  0  0  0  0  0  0  0  0  0  0  0
    1.8550    0.0548    0.1169 N   0  0  0  0  0  0  0  0  0  0  0  0
    1.6170   -0.9575   -0.8526 C   0  0  0  0  0  0  0  0  0  0  0  0
    2.5936   -1.5625   -1.3662 O   0  0  0  0  0  0  0  0  0  0  0  0
    0.2655   -1.3567   -1.3088 C   0  0  0  0  0  0  0  0  0  0  0  0
   -0.7782   -0.5946   -0.6508 N   0  0  0  0  0  0  0  0  0  0  0  0
   -1.3019    0.5107   -1.0255 O   0  0  0  0  0  0  0  0  0  0  0  0
   -2.2151    0.9538   -0.2313 C   0  0  0  0  0  0  0  0  0  0  0  0
   -2.9915    2.1435   -0.3491 N   0  0  0  0  0  0  0  0  0  0  0  0
   -2.3129    0.0347    0.7965 C   0  0  0  0  0  0  0  0  0  0  0  0
   -1.3932   -0.9373    0.5096 C   0  0  0  0  0  0  0  0  0  0  0  0
   -1.1920   -1.9454    1.2225 O   0  0  0  0  0  0  0  0  0  0  0  0
    3.6368   -0.6074    0.9097 H   0  0  0  0  0  0  0  0  0  0  0  0
    3.8357    0.5722   -0.4039 H   0  0  0  0  0  0  0  0  0  0  0  0
    3.3085    1.1542    1.2162 H   0  0  0  0  0  0  0  0  0  0  0  0
    1.0351    0.5347    0.5217 H   0  0  0  0  0  0  0  0  0  0  0  0
    0.1443   -2.4345   -1.0379 H   0  0  0  0  0  0  0  0  0  0  0  0
    0.2081   -1.2286   -2.4138 H   0  0  0  0  0  0  0  0  0  0  0  0
   -3.5987    2.4740    0.4076 H   0  0  0  0  0  0  0  0  0  0  0  0
   -2.9487    2.7027   -1.2266 H   0  0  0  0  0  0  0  0  0  0  0  0
   -3.0035    0.1369    1.6243 H   0  0  0  0  0  0  0  0  0  0  0  0
  1  2  1  0
  2  3  1  0
  3  4  2  0
  3  5  1  0
  5  6  1  0
  6  7  1  0
  7  8  1  0
  8  9  1  0
  8 10  2  0
 10 11  1  0
 11 12  2  0
 11  6  1  0
  1 13  1  0
  1 14  1  0
  1 15  1  0
  2 16  1  0
  5 17  1  0
  5 18  1  0
  9 19  1  0
  9 20  1  0
 10 21  1  0
M  END
$$$$

     RDKit          3D

 21 21  0  0  0  0  0  0  0  0999 V2000
   -3.8638    0.0989    1.0514 C   0  0  0  0  0  0  0  0  0  0  0  0
   -2.8635   -0.1186    0.0270 N   0  0  0  0  0  0  0  0  0  0  0  0
   -1.4824   -0.0717    0.3134 C   0  0  0  0  0  0  0  0  0  0  0  0
   -1.1193    0.1622    1.4735 O   0  0  0  0  0  0  0  0  0  0  0  0
   -0.5423   -0.3112   -0.8205 C   0  0  0  0  0  0  0  0  0  0  0  0
    0.8499   -0.2269   -0.3516 N   0  0  0  0  0  0  0  0  0  0  0  0
    1.5705    0.8326   -0.3194 O   0  0  0  0  0  0  0  0  0  0  0  0
    2.7686    0.6222    0.1427 C   0  0  0  0  0  0  0  0  0  0  0  0
    3.8570    1.5186    0.3372 N   0  0  0  0  0  0  0  0  0  0  0  0
    2.8452   -0.7246    0.4485 C   0  0  0  0  0  0  0  0  0  0  0  0
    1.6058   -1.2334    0.1210 C   0  0  0  0  0  0  0  0  0  0  0  0
    1.2517   -2.4237    0.2439 O   0  0  0  0  0  0  0  0  0  0  0  0
   -4.7329    0.6785    0.6734 H   0  0  0  0  0  0  0  0  0  0  0  0
   -3.4488    0.6955    1.9044 H   0  0  0  0  0  0  0  0  0  0  0  0
   -4.2332   -0.8872    1.4079 H   0  0  0  0  0  0  0  0  0  0  0  0
   -3.2416   -0.3137   -0.9435 H   0  0  0  0  0  0  0  0  0  0  0  0
   -0.7161    0.5198   -1.5408 H   0  0  0  0  0  0  0  0  0  0  0  0
   -0.7309   -1.2546   -1.3382 H   0  0  0  0  0  0  0  0  0  0  0  0
    4.0047    2.3376   -0.2995 H   0  0  0  0  0  0  0  0  0  0  0  0
    4.5159    1.3751    1.1072 H   0  0  0  0  0  0  0  0  0  0  0  0
    3.7055   -1.2753    0.8631 H   0  0  0  0  0  0  0  0  0  0  0  0
  1  2  1  0
  2  3  1  0
  3  4  2  0
  3  5  1  0
  5  6  1  0
  6  7  1  0
  7  8  1  0
  8  9  1  0
  8 10  2  0
 10 11  1  0
 11 12  2  0
 11  6  1  0
  1 13  1  0
  1 14  1  0
  1 15  1  0
  2 16  1  0
  5 17  1  0
  5 18  1  0
  9 19  1  0
  9 20  1  0
 10 21  1  0
M  END
$$$$
