
     RDKit          3D

 21 21  0  0  0  0  0  0  0  0999 V2000
    3.7778    0.4031   -0.4760 N   0  0  0  0  0  0  0  0  0  0  0  0
    2.3743    0.3763   -0.5187 C   0  0  0  0  0  0  0  0  0  0  0  0
    1.7659    0.9106   -1.4979 O   0  0  0  0  0  0  0  0  0  0  0  0
    1.6064   -0.2633    0.5578 C   0  0  0  0  0  0  0  0  0  0  0  0
    0.1731   -0.1636    0.2907 N   0  0  0  0  0  0  0  0  0  0  0  0
   -0.6917    0.9228    0.7212 C   0  0  0  0  0  0  0  0  0  0  0  0
   -1.9318    0.8007   -0.0955 C   0  0  0  0  0  0  0  0  0  0  0  0
   -2.0220   -0.6305   -0.3416 N   0  0  0  0  0  0  0  0  0  0  0  0
   -3.1682   -1.4298   -0.4760 N   0  0  0  0  0  0  0  0  0  0  0  0
   -0.6627   -1.0700   -0.4210 C   0  0  0  0  0  0  0  0  0  0  0  0
   -0.2488   -2.1028   -1.0263 O   0  0  0  0  0  0  0  0  0  0  0  0
    4.3221   -0.4868   -0.3314 H   0  0  0  0  0  0  0  0  0  0  0  0
    4.3076    1.2945   -0.5852 H   0  0  0  0  0  0  0  0  0  0  0  0
    1.9045   -1.3527    0.5623 H   0  0  0  0  0  0  0  0  0  0  0  0
    1.8404    0.1104    1.5663 H   0  0  0  0  0  0  0  0  0  0  0  0
   -0.2034    1.9203    0.5290 H   0  0  0  0  0  0  0  0  0  0  0  0
   -0.9663    0.8097    1.7991 H   0  0  0  0  0  0  0  0  0  0  0  0
   -2.8456    1.1484    0.4014 H   0  0  0  0  0  0  0  0  0  0  0  0
   -1.8440    1.3789   -1.0452 H   0  0  0  0  0  0  0  0  0  0  0  0
   -3.7069   -1.4601    0.4411 H   0  0  0  0  0  0  0  0  0  0  0  0
   -3.7810   -1.1162   -1.2630 H   0  0  0  0  0  0  0  0  0  0  0  0
  1  2  1  0
  2  3  2  0
  2  4  1  0
  4  5  1  0
  5  6  1  0
  6  7  1  0
  7  8  1  0
  8  9  1  0
  8 10  1  0
 10 11  2  0
 10  5  1  0
  1 12  1  0
  1 13  1  0
  4 14  1  0
  4 15  1  0
  6 16  1  0
  6 17  1  0
  7 18  1  0
  7 19  1  0
  9 20  1  0
  9 21  1  0
M  END
$$$$

     RDKit          3D

 21 21  0  0  0  0  0  0  0  0999 V2000
    3.7811    0.2883    0.7289 N   0  0  0  0  0  0  0  0  0  0  0  0
    2.3768    0.4744    0.6241 C   0  0  0  0  0  0  0  0  0  0  0  0
    1.8684    1.4221    1.2667 O   0  0  0  0  0  0  0  0  0  0  0  0
    1.5463   -0.4214   -0.2154 C   0  0  0  0  0  0  0  0  0  0  0  0
    0.1589   -0.0791   -0.1966 N   0  0  0  0  0  0  0  0  0  0  0  0
   -0.5553    0.8255   -1.0766 C   0  0  0  0  0  0  0  0  0  0  0  0
   -1.9102    0.1099   -1.1739 C   0  0  0  0  0  0  0  0  0  0  0  0
   -2.1197   -0.2181    0.2373 N   0  0  0  0  0  0  0  0  0  0  0  0
   -3.3123   -0.1906    0.9458 N   0  0  0  0  0  0  0  0  0  0  0  0
   -0.8191   -0.5708    0.7120 C   0  0  0  0  0  0  0  0  0  0  0  0
   -0.5965   -1.2146    1.7688 O   0  0  0  0  0  0  0  0  0  0  0  0
    4.2696   -0.0140    1.5838 H   0  0  0  0  0  0  0  0  0  0  0  0
    4.3854    0.4680   -0.1207 H   0  0  0  0  0  0  0  0  0  0  0  0
    1.9314   -0.3135   -1.2624 H   0  0  0  0  0  0  0  0  0  0  0  0
    1.7578   -1.4674    0.0708 H   0  0  0  0  0  0  0  0  0  0  0  0
   -0.7388    1.7805   -0.5513 H   0  0  0  0  0  0  0  0  0  0  0  0
   -0.1197    0.9152   -2.0665 H   0  0  0  0  0  0  0  0  0  0  0  0
   -1.8137   -0.8490   -1.7297 H   0  0  0  0  0  0  0  0  0  0  0  0
   -2.6895    0.7706   -1.5622 H   0  0  0  0  0  0  0  0  0  0  0  0
   -4.0747    0.1026    0.2882 H   0  0  0  0  0  0  0  0  0  0  0  0
   -3.3261    0.4891    1.7290 H   0  0  0  0  0  0  0  0  0  0  0  0
  1  2  1  0
  2  3  2  0
  2  4  1  0
  4  5  1  0
  5  6  1  0
  6  7  1  0
  7  8  1  0
  8  9  1  0
  8 10  1  0
 10 11  2  0
 10  5  1  0
  1 12  1  0
  1 13  1  0
  4 14  1  0
  4 15  1  0
  6 16  1  0
  6 17  1  0
  7 18  1  0
  7 19  1  0
  9 20  1  0
  9 21  1  0
M  END
$$$$

     RDKit          3D

 21 21  0  0  0  0  0  0  0  0999 V2000
    3.7874   -0.2645    0.2339 N   0  0  0  0  0  0  0  0  0  0  0  0
    2.4026   -0.4720    0.1214 C   0  0  0  0  0  0  0  0  0  0  0  0
    1.9238   -1.6239    0.1813 O   0  0  0  0  0  0  0  0  0  0  0  0
    1.4855    0.6683   -0.0700 C   0  0  0  0  0  0  0  0  0  0  0  0
    0.1180    0.2513   -0.1617 N   0  0  0  0  0  0  0  0  0  0  0  0
   -0.5798   -0.1004   -1.3697 C   0  0  0  0  0  0  0  0  0  0  0  0
   -2.0007    0.3129   -1.0443 C   0  0  0  0  0  0  0  0  0  0  0  0
   -2.1325   -0.0060    0.3512 N   0  0  0  0  0  0  0  0  0  0  0  0
   -3.2330   -0.3556    1.1187 N   0  0  0  0  0  0  0  0  0  0  0  0
   -0.8130    0.1016    0.8973 C   0  0  0  0  0  0  0  0  0  0  0  0
   -0.5128    0.0696    2.1257 O   0  0  0  0  0  0  0  0  0  0  0  0
    4.3737   -0.3957   -0.6399 H   0  0  0  0  0  0  0  0  0  0  0  0
    4.3010    0.0051    1.0861 H   0  0  0  0  0  0  0  0  0  0  0  0
    1.5455    1.3788    0.8039 H   0  0  0  0  0  0  0  0  0  0  0  0
    1.7938    1.2738   -0.9682 H   0  0  0  0  0  0  0  0  0  0  0  0
   -0.1862    0.3976   -2.2685 H   0  0  0  0  0  0  0  0  0  0  0  0
   -0.5820   -1.2159   -1.5164 H   0  0  0  0  0  0  0  0  0  0  0  0
   -2.1322    1.4187   -1.1854 H   0  0  0  0  0  0  0  0  0  0  0  0
   -2.7482   -0.2583   -1.6606 H   0  0  0  0  0  0  0  0  0  0  0  0
   -3.3393    0.1610    1.9936 H   0  0  0  0  0  0  0  0  0  0  0  0
   -3.4716   -1.3465    1.1234 H   0  0  0  0  0  0  0  0  0  0  0  0
  1  2  1  0
  2  3  2  0
  2  4  1  0
  4  5  1  0
  5  6  1  0
  6  7  1  0
  7  8  1  0
  8  9  1  0
  8 10  1  0
 10 11  2  0
 10  5  1  0
  1 12  1  0
  1 13  1  0
  4 14  1  0
  4 15  1  0
  6 16  1  0
  6 17  1  0
  7 18  1  0
  7 19  1  0
  9 20  1  0
  9 21  1  0
M  END
$$$$

     RDKit          3D

 21 21  0  0  0  0  0  0  0  0999 V2000
    3.7284    0.2781   -0.5576 N   0  0  0  0  0  0  0  0  0  0  0  0
    2.3210    0.0616   -0.6106 C   0  0  0  0  0  0  0  0  0  0  0  0
    1.8379   -0.3652   -1.6702 O   0  0  0  0  0  0  0  0  0  0  0  0
    1.5470    0.3676    0.6162 C   0  0  0  0  0  0  0  0  0  0  0  0
    0.1373    0.1125    0.4501 N   0  0  0  0  0  0  0  0  0  0  0  0
   -0.5008   -1.1516    0.7357 C   0  0  0  0  0  0  0  0  0  0  0  0
   -1.7716   -1.1564   -0.0851 C   0  0  0  0  0  0  0  0  0  0  0  0
   -2.1359    0.2595   -0.0420 N   0  0  0  0  0  0  0  0  0  0  0  0
   -3.4510    0.7594   -0.0437 N   0  0  0  0  0  0  0  0  0  0  0  0
   -0.9061    0.9678   -0.0005 C   0  0  0  0  0  0  0  0  0  0  0  0
   -0.8056    2.1769   -0.3255 O   0  0  0  0  0  0  0  0  0  0  0  0
    4.1753    1.1882   -0.7873 H   0  0  0  0  0  0  0  0  0  0  0  0
    4.3256   -0.5361   -0.2696 H   0  0  0  0  0  0  0  0  0  0  0  0
    1.6894    1.4376    0.9337 H   0  0  0  0  0  0  0  0  0  0  0  0
    1.9221   -0.2617    1.4550 H   0  0  0  0  0  0  0  0  0  0  0  0
   -0.8370   -1.1484    1.8133 H   0  0  0  0  0  0  0  0  0  0  0  0
    0.1430   -2.0252    0.5213 H   0  0  0  0  0  0  0  0  0  0  0  0
   -2.5156   -1.7776    0.4420 H   0  0  0  0  0  0  0  0  0  0  0  0
   -1.6094   -1.4978   -1.1252 H   0  0  0  0  0  0  0  0  0  0  0  0
   -3.8796    0.5180   -0.9615 H   0  0  0  0  0  0  0  0  0  0  0  0
   -3.4142    1.7929    0.0624 H   0  0  0  0  0  0  0  0  0  0  0  0
  1  2  1  0
  2  3  2  0
  2  4  1  0
  4  5  1  0
  5  6  1  0
  6  7  1  0
  7  8  1  0
  8  9  1  0
  8 10  1  0
 10 11  2  0
 10  5  1  0
  1 12  1  0
  1 13  1  0
  4 14  1  0
  4 15  1  0
  6 16  1  0
  6 17  1  0
  7 18  1  0
  7 19  1  0
  9 20  1  0
  9 21  1  0
M  END
$$$$

     RDKit          3D

 21 21  0  0  0  0  0  0  0  0999 V2000
    3.7703   -0.5952   -0.4091 N   0  0  0  0  0  0  0  0  0  0  0  0
    2.3572   -0.7020   -0.3162 C   0  0  0  0  0  0  0  0  0  0  0  0
    1.8322   -1.7804   -0.6343 O   0  0  0  0  0  0  0  0  0  0  0  0
    1.5768    0.4608    0.1498 C   0  0  0  0  0  0  0  0  0  0  0  0
    0.1615    0.1501    0.1736 N   0  0  0  0  0  0  0  0  0  0  0  0
   -0.5982   -0.4081    1.2766 C   0  0  0  0  0  0  0  0  0  0  0  0
   -1.9348    0.2936    1.0971 C   0  0  0  0  0  0  0  0  0  0  0  0
   -2.0996    0.2028   -0.3411 N   0  0  0  0  0  0  0  0  0  0  0  0
   -3.2929    0.0310   -1.0519 N   0  0  0  0  0  0  0  0  0  0  0  0
   -0.7884    0.3254   -0.8798 C   0  0  0  0  0  0  0  0  0  0  0  0
   -0.4940    0.5506   -2.0812 O   0  0  0  0  0  0  0  0  0  0  0  0
    4.2344    0.1121   -0.9924 H   0  0  0  0  0  0  0  0  0  0  0  0
    4.3432   -1.2678    0.1419 H   0  0  0  0  0  0  0  0  0  0  0  0
    1.8852    0.8350    1.1407 H   0  0  0  0  0  0  0  0  0  0  0  0
    1.7951    1.3004   -0.5674 H   0  0  0  0  0  0  0  0  0  0  0  0
   -0.1784   -0.1594    2.2554 H   0  0  0  0  0  0  0  0  0  0  0  0
   -0.7111   -1.5116    1.1235 H   0  0  0  0  0  0  0  0  0  0  0  0
   -2.7471   -0.2007    1.6494 H   0  0  0  0  0  0  0  0  0  0  0  0
   -1.7913    1.3585    1.3575 H   0  0  0  0  0  0  0  0  0  0  0  0
   -3.2299    0.6542   -1.8895 H   0  0  0  0  0  0  0  0  0  0  0  0
   -4.0900    0.3507   -0.4585 H   0  0  0  0  0  0  0  0  0  0  0  0
  1  2  1  0
  2  3  2  0
  2  4  1  0
  4  5  1  0
  5  6  1  0
  6  7  1  0
  7  8  1  0
  8  9  1  0
  8 10  1  0
 10 11  2  0
 10  5  1  0
  1 12  1  0
  1 13  1  0
  4 14  1  0
  4 15  1  0
  6 16  1  0
  6 17  1  0
  7 18  1  0
  7 19  1  0
  9 20  1  0
  9 21  1  0
M  END
$$$$

     RDKit          3D

 21 21  0  0  0  0  0  0  0  0999 V2000
    2.6354    0.7993    0.2883 N   0  0  0  0  0  0  0  0  0  0  0  0
    2.6578   -0.4303   -0.3980 C   0  0  0  0  0  0  0  0  0  0  0  0
    3.7678   -0.9324   -0.7192 O   0  0  0  0  0  0  0  0  0  0  0  0
    1.4440   -1.1948   -0.7791 C   0  0  0  0  0  0  0  0  0  0  0  0
    0.2306   -0.5386   -0.3681 N   0  0  0  0  0  0  0  0  0  0  0  0
   -0.4789   -0.6947    0.8897 C   0  0  0  0  0  0  0  0  0  0  0  0
   -1.9117   -0.4695    0.4458 C   0  0  0  0  0  0  0  0  0  0  0  0
   -1.7562    0.6626   -0.4497 N   0  0  0  0  0  0  0  0  0  0  0  0
   -2.5821    1.7687   -0.6451 N   0  0  0  0  0  0  0  0  0  0  0  0
   -0.5142    0.4040   -1.1328 C   0  0  0  0  0  0  0  0  0  0  0  0
   -0.1917    0.9537   -2.2304 O   0  0  0  0  0  0  0  0  0  0  0  0
    1.8350    1.4556    0.2439 H   0  0  0  0  0  0  0  0  0  0  0  0
    3.4543    1.0744    0.8711 H   0  0  0  0  0  0  0  0  0  0  0  0
    1.4855   -2.1941   -0.2996 H   0  0  0  0  0  0  0  0  0  0  0  0
    1.5032   -1.3516   -1.8763 H   0  0  0  0  0  0  0  0  0  0  0  0
   -0.3210   -1.7110    1.3044 H   0  0  0  0  0  0  0  0  0  0  0  0
   -0.2284    0.1073    1.6076 H   0  0  0  0  0  0  0  0  0  0  0  0
   -2.5764   -0.2341    1.2985 H   0  0  0  0  0  0  0  0  0  0  0  0
   -2.2661   -1.3154   -0.1609 H   0  0  0  0  0  0  0  0  0  0  0  0
   -3.5296    1.4558   -0.9757 H   0  0  0  0  0  0  0  0  0  0  0  0
   -2.6573    2.3853    0.1871 H   0  0  0  0  0  0  0  0  0  0  0  0
  1  2  1  0
  2  3  2  0
  2  4  1  0
  4  5  1  0
  5  6  1  0
  6  7  1  0
  7  8  1  0
  8  9  1  0
  8 10  1  0
 10 11  2  0
 10  5  1  0
  1 12  1  0
  1 13  1  0
  4 14  1  0
  4 15  1  0
  6 16  1  0
  6 17  1  0
  7 18  1  0
  7 19  1  0
  9 20  1  0
  9 21  1  0
M  END
$$$$

     RDKit          3D

 21 21  0  0  0  0  0  0  0  0999 V2000
    2.3250    0.5639   -0.8779 N   0  0  0  0  0  0  0  0  0  0  0  0
    2.6328   -0.1744    0.2938 C   0  0  0  0  0  0  0  0  0  0  0  0
    3.8294   -0.3723    0.6244 O   0  0  0  0  0  0  0  0  0  0  0  0
    1.5397   -0.7235    1.1458 C   0  0  0  0  0  0  0  0  0  0  0  0
    0.2427   -0.3864    0.5937 N   0  0  0  0  0  0  0  0  0  0  0  0
   -0.4416   -1.2580   -0.3674 C   0  0  0  0  0  0  0  0  0  0  0  0
   -1.6657   -0.5171   -0.7856 C   0  0  0  0  0  0  0  0  0  0  0  0
   -1.7255    0.6967    0.0081 N   0  0  0  0  0  0  0  0  0  0  0  0
   -2.7145    1.6166   -0.0384 N   0  0  0  0  0  0  0  0  0  0  0  0
   -0.5689    0.7482    0.8378 C   0  0  0  0  0  0  0  0  0  0  0  0
   -0.2740    1.6451    1.6731 O   0  0  0  0  0  0  0  0  0  0  0  0
    1.9658    0.0965   -1.7393 H   0  0  0  0  0  0  0  0  0  0  0  0
    2.4499    1.6064   -0.9131 H   0  0  0  0  0  0  0  0  0  0  0  0
    1.5967   -0.2606    2.1719 H   0  0  0  0  0  0  0  0  0  0  0  0
    1.6955   -1.8210    1.2001 H   0  0  0  0  0  0  0  0  0  0  0  0
   -0.6434   -2.2084    0.1666 H   0  0  0  0  0  0  0  0  0  0  0  0
    0.2534   -1.4932   -1.1871 H   0  0  0  0  0  0  0  0  0  0  0  0
   -2.5585   -1.1715   -0.5840 H   0  0  0  0  0  0  0  0  0  0  0  0
   -1.5909   -0.2583   -1.8686 H   0  0  0  0  0  0  0  0  0  0  0  0
   -2.7884    2.2137   -0.8629 H   0  0  0  0  0  0  0  0  0  0  0  0
   -3.5596    1.4575    0.5089 H   0  0  0  0  0  0  0  0  0  0  0  0
  1  2  1  0
  2  3  2  0
  2  4  1  0
  4  5  1  0
  5  6  1  0
  6  7  1  0
  7  8  1  0
  8  9  1  0
  8 10  1  0
 10 11  2  0
 10  5  1  0
  1 12  1  0
  1 13  1  0
  4 14  1  0
  4 15  1  0
  6 16  1  0
  6 17  1  0
  7 18  1  0
  7 19  1  0
  9 20  1  0
  9 21  1  0
M  END
$$$$

     RDKit          3D

 21 21  0  0  0  0  0  0  0  0999 V2000
    2.1969    1.1484    0.1145 N   0  0  0  0  0  0  0  0  0  0  0  0
    2.5011   -0.0216   -0.6181 C   0  0  0  0  0  0  0  0  0  0  0  0
    3.6704   -0.2187   -1.0676 O   0  0  0  0  0  0  0  0  0  0  0  0
    1.5031   -1.0788   -0.9087 C   0  0  0  0  0  0  0  0  0  0  0  0
    0.2064   -0.7794   -0.3659 N   0  0  0  0  0  0  0  0  0  0  0  0
   -0.3574   -1.1058    0.9308 C   0  0  0  0  0  0  0  0  0  0  0  0
   -1.1935    0.0950    1.2273 C   0  0  0  0  0  0  0  0  0  0  0  0
   -1.7844    0.3785   -0.0817 N   0  0  0  0  0  0  0  0  0  0  0  0
   -3.0278    0.9597   -0.3117 N   0  0  0  0  0  0  0  0  0  0  0  0
   -0.8304   -0.0604   -1.0464 C   0  0  0  0  0  0  0  0  0  0  0  0
   -0.8960    0.1543   -2.2987 O   0  0  0  0  0  0  0  0  0  0  0  0
    2.3246    2.1012   -0.2644 H   0  0  0  0  0  0  0  0  0  0  0  0
    1.8293    1.0408    1.0750 H   0  0  0  0  0  0  0  0  0  0  0  0
    1.3576   -1.2174   -2.0179 H   0  0  0  0  0  0  0  0  0  0  0  0
    1.8724   -2.0350   -0.4887 H   0  0  0  0  0  0  0  0  0  0  0  0
   -1.0440   -1.9699    0.7803 H   0  0  0  0  0  0  0  0  0  0  0  0
    0.4209   -1.3095    1.6956 H   0  0  0  0  0  0  0  0  0  0  0  0
   -0.5282    0.9338    1.5109 H   0  0  0  0  0  0  0  0  0  0  0  0
   -1.9657   -0.0756    1.9982 H   0  0  0  0  0  0  0  0  0  0  0  0
   -2.9718    1.5326   -1.1694 H   0  0  0  0  0  0  0  0  0  0  0  0
   -3.2837    1.5277    0.5126 H   0  0  0  0  0  0  0  0  0  0  0  0
  1  2  1  0
  2  3  2  0
  2  4  1  0
  4  5  1  0
  5  6  1  0
  6  7  1  0
  7  8  1  0
  8  9  1  0
  8 10  1  0
 10 11  2  0
 10  5  1  0
  1 12  1  0
  1 13  1  0
  4 14  1  0
  4 15  1  0
  6 16  1  0
  6 17  1  0
  7 18  1  0
  7 19  1  0
  9 20  1  0
  9 21  1  0
M  END
$$$$
