
     RDKit          3D

 20 20  0  0  0  0  0  0  0  0999 V2000
    2.1548    1.4732    1.7497 O   0  0  0  0  0  0  0  0  0  0  0  0
    2.1363    1.5437    0.5039 C   0  0  0  0  0  0  0  0  0  0  0  0
    1.2871    0.7325   -0.2957 N   0  0  0  0  0  0  0  0  0  0  0  0
    0.3992   -0.2174    0.2896 C   0  0  2  0  0  0  0  0  0  0  0  0
    0.6595   -1.6036   -0.2956 C   0  0  0  0  0  0  0  0  0  0  0  0
   -0.7275   -2.1700   -0.3979 C   0  0  0  0  0  0  0  0  0  0  0  0
   -1.5863   -1.2546    0.2116 O   0  0  0  0  0  0  0  0  0  0  0  0
   -1.0420   -0.0326   -0.1793 C   0  0  1  0  0  0  0  0  0  0  0  0
   -1.6952    1.1197    0.4030 C   0  0  0  0  0  0  0  0  0  0  0  0
   -2.6609    0.9835    1.1846 O   0  0  0  0  0  0  0  0  0  0  0  0
   -1.2640    2.3955    0.1063 O   0  0  0  0  0  0  0  0  0  0  0  0
    2.8153    2.2709    0.0446 H   0  0  0  0  0  0  0  0  0  0  0  0
    1.3419    0.8624   -1.3266 H   0  0  0  0  0  0  0  0  0  0  0  0
    0.4532   -0.2411    1.3926 H   0  0  0  0  0  0  0  0  0  0  0  0
    1.0664   -1.4453   -1.3158 H   0  0  0  0  0  0  0  0  0  0  0  0
    1.3399   -2.1966    0.3376 H   0  0  0  0  0  0  0  0  0  0  0  0
   -1.0733   -2.2653   -1.4501 H   0  0  0  0  0  0  0  0  0  0  0  0
   -0.7851   -3.1752    0.1045 H   0  0  0  0  0  0  0  0  0  0  0  0
   -0.9947   -0.0136   -1.2930 H   0  0  0  0  0  0  0  0  0  0  0  0
   -1.8245    3.2337    0.2260 H   0  0  0  0  0  0  0  0  0  0  0  0
  1  2  2  0
  2  3  1  0
  3  4  1  0
  4  5  1  0
  5  6  1  0
  6  7  1  0
  7  8  1  0
  8  9  1  0
  9 10  2  0
  9 11  1  0
  8  4  1  0
  2 12  1  0
  3 13  1  0
  4 14  1  1
  5 15  1  0
  5 16  1  0
  6 17  1  0
  6 18  1  0
  8 19  1  6
 11 20  1  0
M  END
$$$$

     RDKit          3D

 20 20  0  0  0  0  0  0  0  0999 V2000
    1.9936   -2.3522   -0.1581 O   0  0  0  0  0  0  0  0  0  0  0  0
    2.0413   -1.5720    0.8273 C   0  0  0  0  0  0  0  0  0  0  0  0
    1.2578   -0.3923    0.8154 N   0  0  0  0  0  0  0  0  0  0  0  0
    0.4112   -0.0822   -0.3123 C   0  0  2  0  0  0  0  0  0  0  0  0
    0.8357    1.2647   -0.8663 C   0  0  0  0  0  0  0  0  0  0  0  0
   -0.4230    2.0810   -0.7318 C   0  0  0  0  0  0  0  0  0  0  0  0
   -1.4135    1.1106   -0.8782 O   0  0  0  0  0  0  0  0  0  0  0  0
   -1.0167    0.1859    0.0857 C   0  0  1  0  0  0  0  0  0  0  0  0
   -1.8865   -0.9792    0.0211 C   0  0  0  0  0  0  0  0  0  0  0  0
   -2.8178   -1.0391   -0.8102 O   0  0  0  0  0  0  0  0  0  0  0  0
   -1.6982   -2.0448    0.8808 O   0  0  0  0  0  0  0  0  0  0  0  0
    2.6833   -1.8076    1.6820 H   0  0  0  0  0  0  0  0  0  0  0  0
    1.3166    0.2381    1.6471 H   0  0  0  0  0  0  0  0  0  0  0  0
    0.4988   -0.8714   -1.0705 H   0  0  0  0  0  0  0  0  0  0  0  0
    1.0545    1.1629   -1.9405 H   0  0  0  0  0  0  0  0  0  0  0  0
    1.6659    1.7054   -0.2818 H   0  0  0  0  0  0  0  0  0  0  0  0
   -0.4813    2.4410    0.3095 H   0  0  0  0  0  0  0  0  0  0  0  0
   -0.4950    2.8879   -1.4788 H   0  0  0  0  0  0  0  0  0  0  0  0
   -1.0494    0.7061    1.0629 H   0  0  0  0  0  0  0  0  0  0  0  0
   -2.4772   -2.6429    1.1967 H   0  0  0  0  0  0  0  0  0  0  0  0
  1  2  2  0
  2  3  1  0
  3  4  1  0
  4  5  1  0
  5  6  1  0
  6  7  1  0
  7  8  1  0
  8  9  1  0
  9 10  2  0
  9 11  1  0
  8  4  1  0
  2 12  1  0
  3 13  1  0
  4 14  1  6
  5 15  1  0
  5 16  1  0
  6 17  1  0
  6 18  1  0
  8 19  1  1
 11 20  1  0
M  END
$$$$

     RDKit          3D

 20 20  0  0  0  0  0  0  0  0999 V2000
    2.5931    1.3143    0.6563 O   0  0  0  0  0  0  0  0  0  0  0  0
    2.6622    0.8081   -0.5022 C   0  0  0  0  0  0  0  0  0  0  0  0
    1.5824    0.0153   -0.9555 N   0  0  0  0  0  0  0  0  0  0  0  0
    0.4498   -0.1896   -0.0949 C   0  0  2  0  0  0  0  0  0  0  0  0
    0.1628   -1.6538    0.1633 C   0  0  0  0  0  0  0  0  0  0  0  0
   -1.3609   -1.6724    0.0682 C   0  0  0  0  0  0  0  0  0  0  0  0
   -1.6269   -0.7962   -0.9670 O   0  0  0  0  0  0  0  0  0  0  0  0
   -0.8074    0.2876   -0.7687 C   0  0  1  0  0  0  0  0  0  0  0  0
   -1.4807    1.3317    0.0368 C   0  0  0  0  0  0  0  0  0  0  0  0
   -2.6610    1.1198    0.4265 O   0  0  0  0  0  0  0  0  0  0  0  0
   -0.8537    2.5225    0.3694 O   0  0  0  0  0  0  0  0  0  0  0  0
    3.5492    1.0103   -1.0875 H   0  0  0  0  0  0  0  0  0  0  0  0
    1.6427   -0.3989   -1.9080 H   0  0  0  0  0  0  0  0  0  0  0  0
    0.5367    0.3097    0.8703 H   0  0  0  0  0  0  0  0  0  0  0  0
    0.6319   -2.2533   -0.6172 H   0  0  0  0  0  0  0  0  0  0  0  0
    0.4609   -1.9524    1.1921 H   0  0  0  0  0  0  0  0  0  0  0  0
   -1.7386   -2.6857   -0.1191 H   0  0  0  0  0  0  0  0  0  0  0  0
   -1.7552   -1.2242    1.0053 H   0  0  0  0  0  0  0  0  0  0  0  0
   -0.5838    0.7216   -1.7738 H   0  0  0  0  0  0  0  0  0  0  0  0
   -1.4034    3.3856    0.4800 H   0  0  0  0  0  0  0  0  0  0  0  0
  1  2  2  0
  2  3  1  0
  3  4  1  0
  4  5  1  0
  5  6  1  0
  6  7  1  0
  7  8  1  0
  8  9  1  0
  9 10  2  0
  9 11  1  0
  8  4  1  0
  2 12  1  0
  3 13  1  0
  4 14  1  1
  5 15  1  0
  5 16  1  0
  6 17  1  0
  6 18  1  0
  8 19  1  6
 11 20  1  0
M  END
$$$$

     RDKit          3D

 20 20  0  0  0  0  0  0  0  0999 V2000
   -0.5335    3.1056   -0.3939 O   0  0  0  0  0  0  0  0  0  0  0  0
   -0.7593    2.5618    0.7060 C   0  0  0  0  0  0  0  0  0  0  0  0
   -0.7108    1.1540    0.8860 N   0  0  0  0  0  0  0  0  0  0  0  0
   -0.3973    0.2725   -0.1947 C   0  0  2  0  0  0  0  0  0  0  0  0
   -1.5203   -0.7377   -0.4132 C   0  0  0  0  0  0  0  0  0  0  0  0
   -0.7486   -2.0322   -0.5900 C   0  0  0  0  0  0  0  0  0  0  0  0
    0.5821   -1.6370   -0.8615 O   0  0  0  0  0  0  0  0  0  0  0  0
    0.7484   -0.6659    0.1224 C   0  0  1  0  0  0  0  0  0  0  0  0
    2.0538   -0.0324    0.1105 C   0  0  0  0  0  0  0  0  0  0  0  0
    2.3106    0.8596    0.9574 O   0  0  0  0  0  0  0  0  0  0  0  0
    3.0449   -0.3640   -0.7977 O   0  0  0  0  0  0  0  0  0  0  0  0
   -1.0010    3.1804    1.5558 H   0  0  0  0  0  0  0  0  0  0  0  0
   -0.9135    0.7874    1.8403 H   0  0  0  0  0  0  0  0  0  0  0  0
   -0.2157    0.8482   -1.1166 H   0  0  0  0  0  0  0  0  0  0  0  0
   -2.1482   -0.4925   -1.2728 H   0  0  0  0  0  0  0  0  0  0  0  0
   -2.1002   -0.7983    0.5433 H   0  0  0  0  0  0  0  0  0  0  0  0
   -1.1548   -2.6669   -1.3827 H   0  0  0  0  0  0  0  0  0  0  0  0
   -0.6915   -2.5622    0.3941 H   0  0  0  0  0  0  0  0  0  0  0  0
    0.4993   -1.1436    1.0956 H   0  0  0  0  0  0  0  0  0  0  0  0
    3.6557    0.3630   -1.1883 H   0  0  0  0  0  0  0  0  0  0  0  0
  1  2  2  0
  2  3  1  0
  3  4  1  0
  4  5  1  0
  5  6  1  0
  6  7  1  0
  7  8  1  0
  8  9  1  0
  9 10  2  0
  9 11  1  0
  8  4  1  0
  2 12  1  0
  3 13  1  0
  4 14  1  6
  5 15  1  0
  5 16  1  0
  6 17  1  0
  6 18  1  0
  8 19  1  1
 11 20  1  0
M  END
$$$$

     RDKit          3D

 20 20  0  0  0  0  0  0  0  0999 V2000
   -1.7334   -1.9833    1.4314 O   0  0  0  0  0  0  0  0  0  0  0  0
   -2.1693   -1.7565    0.2656 C   0  0  0  0  0  0  0  0  0  0  0  0
   -1.5546   -0.7755   -0.5458 N   0  0  0  0  0  0  0  0  0  0  0  0
   -0.4399   -0.0455   -0.0367 C   0  0  2  0  0  0  0  0  0  0  0  0
   -0.8349    1.4382   -0.0460 C   0  0  0  0  0  0  0  0  0  0  0  0
    0.5319    2.0700   -0.2005 C   0  0  0  0  0  0  0  0  0  0  0  0
    1.2951    1.2201   -0.9503 O   0  0  0  0  0  0  0  0  0  0  0  0
    0.7550   -0.0346   -0.9257 C   0  0  1  0  0  0  0  0  0  0  0  0
    1.7843   -1.0075   -0.4725 C   0  0  0  0  0  0  0  0  0  0  0  0
    1.4883   -2.2270   -0.3800 O   0  0  0  0  0  0  0  0  0  0  0  0
    3.0747   -0.6168   -0.1437 O   0  0  0  0  0  0  0  0  0  0  0  0
   -3.0217   -2.3558   -0.0463 H   0  0  0  0  0  0  0  0  0  0  0  0
   -1.9213   -0.6017   -1.4945 H   0  0  0  0  0  0  0  0  0  0  0  0
   -0.1801   -0.3589    0.9951 H   0  0  0  0  0  0  0  0  0  0  0  0
   -1.4446    1.6184   -0.9385 H   0  0  0  0  0  0  0  0  0  0  0  0
   -1.3574    1.7316    0.8625 H   0  0  0  0  0  0  0  0  0  0  0  0
    1.0076    2.1543    0.8152 H   0  0  0  0  0  0  0  0  0  0  0  0
    0.5097    3.0747   -0.6238 H   0  0  0  0  0  0  0  0  0  0  0  0
    0.4701   -0.3106   -1.9623 H   0  0  0  0  0  0  0  0  0  0  0  0
    3.7406   -1.2337    0.3187 H   0  0  0  0  0  0  0  0  0  0  0  0
  1  2  2  0
  2  3  1  0
  3  4  1  0
  4  5  1  0
  5  6  1  0
  6  7  1  0
  7  8  1  0
  8  9  1  0
  9 10  2  0
  9 11  1  0
  8  4  1  0
  2 12  1  0
  3 13  1  0
  4 14  1  1
  5 15  1  0
  5 16  1  0
  6 17  1  0
  6 18  1  0
  8 19  1  6
 11 20  1  0
M  END
$$$$

     RDKit          3D

 20 20  0  0  0  0  0  0  0  0999 V2000
   -2.1683    1.9748   -0.9408 O   0  0  0  0  0  0  0  0  0  0  0  0
   -2.1338    1.7435    0.3081 C   0  0  0  0  0  0  0  0  0  0  0  0
   -1.2882    0.7077    0.7965 N   0  0  0  0  0  0  0  0  0  0  0  0
   -0.5065   -0.0392   -0.1196 C   0  0  2  0  0  0  0  0  0  0  0  0
   -0.7837   -1.5467   -0.0506 C   0  0  0  0  0  0  0  0  0  0  0  0
    0.5213   -2.0872   -0.6135 C   0  0  0  0  0  0  0  0  0  0  0  0
    1.4202   -1.0544   -0.6363 O   0  0  0  0  0  0  0  0  0  0  0  0
    0.9769   -0.0918    0.2691 C   0  0  1  0  0  0  0  0  0  0  0  0
    1.6323    1.1968    0.1126 C   0  0  0  0  0  0  0  0  0  0  0  0
    1.3098    2.1368    0.8757 O   0  0  0  0  0  0  0  0  0  0  0  0
    2.5904    1.4145   -0.8424 O   0  0  0  0  0  0  0  0  0  0  0  0
   -2.7540    2.3521    0.9303 H   0  0  0  0  0  0  0  0  0  0  0  0
   -1.2704    0.5324    1.8045 H   0  0  0  0  0  0  0  0  0  0  0  0
   -0.6223    0.2522   -1.1594 H   0  0  0  0  0  0  0  0  0  0  0  0
   -0.8450   -1.8064    1.0369 H   0  0  0  0  0  0  0  0  0  0  0  0
   -1.6593   -1.8372   -0.6204 H   0  0  0  0  0  0  0  0  0  0  0  0
    0.8874   -2.9533   -0.0377 H   0  0  0  0  0  0  0  0  0  0  0  0
    0.2890   -2.4787   -1.6466 H   0  0  0  0  0  0  0  0  0  0  0  0
    1.0711   -0.5403    1.2787 H   0  0  0  0  0  0  0  0  0  0  0  0
    3.3329    2.1243   -0.7451 H   0  0  0  0  0  0  0  0  0  0  0  0
  1  2  2  0
  2  3  1  0
  3  4  1  0
  4  5  1  0
  5  6  1  0
  6  7  1  0
  7  8  1  0
  8  9  1  0
  9 10  2  0
  9 11  1  0
  8  4  1  0
  2 12  1  0
  3 13  1  0
  4 14  1  6
  5 15  1  0
  5 16  1  0
  6 17  1  0
  6 18  1  0
  8 19  1  1
 11 20  1  0
M  END
$$$$

     RDKit          3D

 20 20  0  0  0  0  0  0  0  0999 V2000
   -2.8208   -1.3164    1.4468 O   0  0  0  0  0  0  0  0  0  0  0  0
   -2.8789   -1.0382    0.2294 C   0  0  0  0  0  0  0  0  0  0  0  0
   -1.7599   -0.4114   -0.3729 N   0  0  0  0  0  0  0  0  0  0  0  0
   -0.5455   -0.0839    0.3907 C   0  0  2  0  0  0  0  0  0  0  0  0
   -0.2163    1.3853    0.2586 C   0  0  0  0  0  0  0  0  0  0  0  0
    0.8383    1.4034   -0.8217 C   0  0  0  0  0  0  0  0  0  0  0  0
    0.8205    0.1424   -1.3941 O   0  0  0  0  0  0  0  0  0  0  0  0
    0.5982   -0.7143   -0.3416 C   0  0  1  0  0  0  0  0  0  0  0  0
    1.7987   -0.9214    0.4471 C   0  0  0  0  0  0  0  0  0  0  0  0
    1.7908   -1.6560    1.4565 O   0  0  0  0  0  0  0  0  0  0  0  0
    2.9727   -0.3006    0.0824 O   0  0  0  0  0  0  0  0  0  0  0  0
   -3.7749   -1.2810   -0.3297 H   0  0  0  0  0  0  0  0  0  0  0  0
   -1.8331   -0.1896   -1.3896 H   0  0  0  0  0  0  0  0  0  0  0  0
   -0.6371   -0.3829    1.4344 H   0  0  0  0  0  0  0  0  0  0  0  0
   -1.1052    1.9841   -0.0564 H   0  0  0  0  0  0  0  0  0  0  0  0
    0.2200    1.7946    1.2072 H   0  0  0  0  0  0  0  0  0  0  0  0
    1.8369    1.6622   -0.3803 H   0  0  0  0  0  0  0  0  0  0  0  0
    0.6280    2.2027   -1.5708 H   0  0  0  0  0  0  0  0  0  0  0  0
    0.2022   -1.6869   -0.7446 H   0  0  0  0  0  0  0  0  0  0  0  0
    3.8651   -0.5919    0.4487 H   0  0  0  0  0  0  0  0  0  0  0  0
  1  2  2  0
  2  3  1  0
  3  4  1  0
  4  5  1  0
  5  6  1  0
  6  7  1  0
  7  8  1  0
  8  9  1  0
  9 10  2  0
  9 11  1  0
  8  4  1  0
  2 12  1  0
  3 13  1  0
  4 14  1  1
  5 15  1  0
  5 16  1  0
  6 17  1  0
  6 18  1  0
  8 19  1  6
 11 20  1  0
M  END
$$$$

     RDKit          3D

 20 20  0  0  0  0  0  0  0  0999 V2000
   -2.7402    0.0597   -1.4067 O   0  0  0  0  0  0  0  0  0  0  0  0
   -2.6579    0.8402   -0.4053 C   0  0  0  0  0  0  0  0  0  0  0  0
   -1.5121    0.7154    0.4017 N   0  0  0  0  0  0  0  0  0  0  0  0
   -0.4590   -0.2192    0.1638 C   0  0  2  0  0  0  0  0  0  0  0  0
   -0.1585   -1.1192    1.3275 C   0  0  0  0  0  0  0  0  0  0  0  0
    1.2281   -1.5775    0.9017 C   0  0  0  0  0  0  0  0  0  0  0  0
    1.8495   -0.4471    0.4163 O   0  0  0  0  0  0  0  0  0  0  0  0
    0.9033    0.4557    0.0239 C   0  0  1  0  0  0  0  0  0  0  0  0
    1.1046    1.0121   -1.3165 C   0  0  0  0  0  0  0  0  0  0  0  0
    0.2741    1.8493   -1.7461 O   0  0  0  0  0  0  0  0  0  0  0  0
    2.1649    0.6458   -2.1042 O   0  0  0  0  0  0  0  0  0  0  0  0
   -3.3979    1.5642   -0.1579 H   0  0  0  0  0  0  0  0  0  0  0  0
   -1.4105    1.3407    1.2337 H   0  0  0  0  0  0  0  0  0  0  0  0
   -0.6122   -0.8538   -0.7217 H   0  0  0  0  0  0  0  0  0  0  0  0
   -0.0006   -0.5458    2.2766 H   0  0  0  0  0  0  0  0  0  0  0  0
   -0.8591   -1.9557    1.4371 H   0  0  0  0  0  0  0  0  0  0  0  0
    1.7731   -2.0610    1.7339 H   0  0  0  0  0  0  0  0  0  0  0  0
    1.0819   -2.2682    0.0409 H   0  0  0  0  0  0  0  0  0  0  0  0
    0.8841    1.3089    0.7416 H   0  0  0  0  0  0  0  0  0  0  0  0
    2.5447    1.2556   -2.8404 H   0  0  0  0  0  0  0  0  0  0  0  0
  1  2  2  0
  2  3  1  0
  3  4  1  0
  4  5  1  0
  5  6  1  0
  6  7  1  0
  7  8  1  0
  8  9  1  0
  9 10  2  0
  9 11  1  0
  8  4  1  0
  2 12  1  0
  3 13  1  0
  4 14  1  6
  5 15  1  0
  5 16  1  0
  6 17  1  0
  6 18  1  0
  8 19  1  1
 11 20  1  0
M  END
$$$$
