
     RDKit          3D

 21 22  0  0  0  0  0  0  0  0999 V2000
    0.0736    0.7633    2.1538 O   0  0  0  0  0  0  0  0  0  0  0  0
   -1.0704    0.3559    1.4672 C   0  0  2  0  0  0  0  0  0  0  0  0
   -0.6982   -0.9067    0.7079 C   0  0  0  0  0  0  0  0  0  0  0  0
   -0.0583   -0.3421   -0.4393 N   0  0  0  0  0  0  0  0  0  0  0  0
    1.1948   -0.6939   -0.9499 C   0  0  0  0  0  0  0  0  0  0  0  0
    1.8554   -0.1920   -2.0377 N   0  0  0  0  0  0  0  0  0  0  0  0
    3.0130   -0.7836   -2.1920 N   0  0  0  0  0  0  0  0  0  0  0  0
    3.1523   -1.6683   -1.2417 N   0  0  0  0  0  0  0  0  0  0  0  0
    2.0741   -1.6331   -0.4838 N   0  0  0  0  0  0  0  0  0  0  0  0
   -0.9671    0.6419   -0.9373 C   0  0  0  0  0  0  0  0  0  0  0  0
   -1.3371    1.3557    0.3591 C   0  0  1  0  0  0  0  0  0  0  0  0
   -2.6268    1.8299    0.3542 O   0  0  0  0  0  0  0  0  0  0  0  0
    0.6950    0.0014    2.2743 H   0  0  0  0  0  0  0  0  0  0  0  0
   -1.9466    0.2310    2.1097 H   0  0  0  0  0  0  0  0  0  0  0  0
   -0.0451   -1.5696    1.3011 H   0  0  0  0  0  0  0  0  0  0  0  0
   -1.6146   -1.4579    0.3742 H   0  0  0  0  0  0  0  0  0  0  0  0
    3.9979   -2.2846   -1.1351 H   0  0  0  0  0  0  0  0  0  0  0  0
   -0.4848    1.3456   -1.6540 H   0  0  0  0  0  0  0  0  0  0  0  0
   -1.8670    0.1625   -1.3936 H   0  0  0  0  0  0  0  0  0  0  0  0
   -0.6368    2.2275    0.4235 H   0  0  0  0  0  0  0  0  0  0  0  0
   -2.7034    2.6171    0.9393 H   0  0  0  0  0  0  0  0  0  0  0  0
  1  2  1  0
  2  3  1  0
  3  4  1  0
  4  5  1  0
  5  6  1  0
  6  7  2  0
  7  8  1  0
  8  9  1  0
  4 10  1  0
 10 11  1  0
 11 12  1  0
 11  2  1  0
  9  5  2  0
  1 13  1  0
  2 14  1  1
  3 15  1  0
  3 16  1  0
  8 17  1  0
 10 18  1  0
 10 19  1  0
 11 20  1  1
 12 21  1  0
M  END
$$$$

     RDKit          3D

 21 22  0  0  0  0  0  0  0  0999 V2000
   -2.8798   -1.1297   -0.1576 O   0  0  0  0  0  0  0  0  0  0  0  0
   -1.8985   -0.1862   -0.4938 C   0  0  2  0  0  0  0  0  0  0  0  0
   -0.5312   -0.8345   -0.6271 C   0  0  0  0  0  0  0  0  0  0  0  0
    0.3353   -0.1159    0.2853 N   0  0  0  0  0  0  0  0  0  0  0  0
    1.7550   -0.1171    0.2135 C   0  0  0  0  0  0  0  0  0  0  0  0
    2.6168    0.5285    1.0290 N   0  0  0  0  0  0  0  0  0  0  0  0
    3.8646    0.2934    0.6549 N   0  0  0  0  0  0  0  0  0  0  0  0
    3.7979   -0.5021   -0.3991 N   0  0  0  0  0  0  0  0  0  0  0  0
    2.5447   -0.7582   -0.6775 N   0  0  0  0  0  0  0  0  0  0  0  0
   -0.4393    0.5942    1.2671 C   0  0  0  0  0  0  0  0  0  0  0  0
   -1.8007    0.7958    0.6446 C   0  0  1  0  0  0  0  0  0  0  0  0
   -1.9204    2.1148    0.2146 O   0  0  0  0  0  0  0  0  0  0  0  0
   -2.5171   -1.8160    0.4735 H   0  0  0  0  0  0  0  0  0  0  0  0
   -2.1642    0.3068   -1.4330 H   0  0  0  0  0  0  0  0  0  0  0  0
   -0.5779   -1.9225   -0.3790 H   0  0  0  0  0  0  0  0  0  0  0  0
   -0.1509   -0.7277   -1.6631 H   0  0  0  0  0  0  0  0  0  0  0  0
    4.6742   -0.8339   -0.8833 H   0  0  0  0  0  0  0  0  0  0  0  0
    0.0699    1.5306    1.5043 H   0  0  0  0  0  0  0  0  0  0  0  0
   -0.5248   -0.0795    2.1577 H   0  0  0  0  0  0  0  0  0  0  0  0
   -2.5682    0.6342    1.4288 H   0  0  0  0  0  0  0  0  0  0  0  0
   -1.6853    2.2251   -0.7354 H   0  0  0  0  0  0  0  0  0  0  0  0
  1  2  1  0
  2  3  1  0
  3  4  1  0
  4  5  1  0
  5  6  1  0
  6  7  2  0
  7  8  1  0
  8  9  1  0
  4 10  1  0
 10 11  1  0
 11 12  1  0
 11  2  1  0
  9  5  2  0
  1 13  1  0
  2 14  1  6
  3 15  1  0
  3 16  1  0
  8 17  1  0
 10 18  1  0
 10 19  1  0
 11 20  1  1
 12 21  1  0
M  END
$$$$

     RDKit          3D

 21 22  0  0  0  0  0  0  0  0999 V2000
   -2.3680    1.9729   -0.1263 O   0  0  0  0  0  0  0  0  0  0  0  0
   -1.4410    1.0493    0.2899 C   0  0  2  0  0  0  0  0  0  0  0  0
   -0.2637    0.9327   -0.6897 C   0  0  0  0  0  0  0  0  0  0  0  0
    0.3965   -0.2396   -0.1499 N   0  0  0  0  0  0  0  0  0  0  0  0
    1.7974   -0.4696   -0.1588 C   0  0  0  0  0  0  0  0  0  0  0  0
    2.4418   -1.5643    0.3424 N   0  0  0  0  0  0  0  0  0  0  0  0
    3.7451   -1.3886    0.1351 N   0  0  0  0  0  0  0  0  0  0  0  0
    3.9583   -0.2446   -0.4688 N   0  0  0  0  0  0  0  0  0  0  0  0
    2.7763    0.3121   -0.6466 N   0  0  0  0  0  0  0  0  0  0  0  0
   -0.6091   -1.1290    0.3962 C   0  0  0  0  0  0  0  0  0  0  0  0
   -1.9367   -0.3800    0.2029 C   0  0  1  0  0  0  0  0  0  0  0  0
   -2.8408   -0.6891    1.2026 O   0  0  0  0  0  0  0  0  0  0  0  0
   -2.0748    2.8642    0.2003 H   0  0  0  0  0  0  0  0  0  0  0  0
   -1.0252    1.2311    1.2939 H   0  0  0  0  0  0  0  0  0  0  0  0
    0.3604    1.8321   -0.6785 H   0  0  0  0  0  0  0  0  0  0  0  0
   -0.7230    0.7120   -1.6768 H   0  0  0  0  0  0  0  0  0  0  0  0
    4.9165    0.1182   -0.7406 H   0  0  0  0  0  0  0  0  0  0  0  0
   -0.4876   -1.2603    1.4907 H   0  0  0  0  0  0  0  0  0  0  0  0
   -0.6568   -2.0882   -0.1569 H   0  0  0  0  0  0  0  0  0  0  0  0
   -2.2760   -0.6252   -0.8077 H   0  0  0  0  0  0  0  0  0  0  0  0
   -3.6896   -0.9459    0.7467 H   0  0  0  0  0  0  0  0  0  0  0  0
  1  2  1  0
  2  3  1  0
  3  4  1  0
  4  5  1  0
  5  6  1  0
  6  7  2  0
  7  8  1  0
  8  9  1  0
  4 10  1  0
 10 11  1  0
 11 12  1  0
 11  2  1  0
  9  5  2  0
  1 13  1  0
  2 14  1  1
  3 15  1  0
  3 16  1  0
  8 17  1  0
 10 18  1  0
 10 19  1  0
 11 20  1  6
 12 21  1  0
M  END
$$$$

     RDKit          3D

 21 22  0  0  0  0  0  0  0  0999 V2000
    1.3137    1.9871    0.7060 O   0  0  0  0  0  0  0  0  0  0  0  0
    1.6813    0.9032   -0.0751 C   0  0  2  0  0  0  0  0  0  0  0  0
    0.6374    0.5906   -1.1399 C   0  0  0  0  0  0  0  0  0  0  0  0
   -0.2727   -0.2517   -0.3924 N   0  0  0  0  0  0  0  0  0  0  0  0
   -1.6705   -0.0829   -0.3360 C   0  0  0  0  0  0  0  0  0  0  0  0
   -2.3992    0.8616   -0.9456 N   0  0  0  0  0  0  0  0  0  0  0  0
   -3.6879    0.6861   -0.6466 N   0  0  0  0  0  0  0  0  0  0  0  0
   -3.7930   -0.3574    0.1457 N   0  0  0  0  0  0  0  0  0  0  0  0
   -2.5870   -0.8289    0.3401 N   0  0  0  0  0  0  0  0  0  0  0  0
    0.5945   -1.2326    0.2265 C   0  0  0  0  0  0  0  0  0  0  0  0
    1.6916   -0.3542    0.7939 C   0  0  1  0  0  0  0  0  0  0  0  0
    2.8873   -1.0535    0.6369 O   0  0  0  0  0  0  0  0  0  0  0  0
    0.9579    2.7190    0.1360 H   0  0  0  0  0  0  0  0  0  0  0  0
    2.6648    1.0322   -0.5590 H   0  0  0  0  0  0  0  0  0  0  0  0
    1.1120   -0.0337   -1.9038 H   0  0  0  0  0  0  0  0  0  0  0  0
    0.1563    1.4995   -1.5354 H   0  0  0  0  0  0  0  0  0  0  0  0
   -4.6993   -0.7027    0.5215 H   0  0  0  0  0  0  0  0  0  0  0  0
    0.0899   -1.8353    0.9922 H   0  0  0  0  0  0  0  0  0  0  0  0
    1.0188   -1.8435   -0.6010 H   0  0  0  0  0  0  0  0  0  0  0  0
    1.4775   -0.1180    1.8526 H   0  0  0  0  0  0  0  0  0  0  0  0
    2.8266   -1.5852   -0.2105 H   0  0  0  0  0  0  0  0  0  0  0  0
  1  2  1  0
  2  3  1  0
  3  4  1  0
  4  5  1  0
  5  6  1  0
  6  7  2  0
  7  8  1  0
  8  9  1  0
  4 10  1  0
 10 11  1  0
 11 12  1  0
 11  2  1  0
  9  5  2  0
  1 13  1  0
  2 14  1  6
  3 15  1  0
  3 16  1  0
  8 17  1  0
 10 18  1  0
 10 19  1  0
 11 20  1  1
 12 21  1  0
M  END
$$$$

     RDKit          3D

 21 22  0  0  0  0  0  0  0  0999 V2000
   -2.3509   -0.4954    2.0758 O   0  0  0  0  0  0  0  0  0  0  0  0
   -1.7811   -0.5315    0.8083 C   0  0  2  0  0  0  0  0  0  0  0  0
   -0.3641   -1.0412    0.8273 C   0  0  0  0  0  0  0  0  0  0  0  0
    0.3799   -0.2128   -0.1114 N   0  0  0  0  0  0  0  0  0  0  0  0
    1.7921   -0.1776   -0.2448 C   0  0  0  0  0  0  0  0  0  0  0  0
    2.7185   -0.8741    0.4390 N   0  0  0  0  0  0  0  0  0  0  0  0
    3.9251   -0.5363   -0.0048 N   0  0  0  0  0  0  0  0  0  0  0  0
    3.7724    0.3745   -0.9705 N   0  0  0  0  0  0  0  0  0  0  0  0
    2.4583    0.5905   -1.1130 N   0  0  0  0  0  0  0  0  0  0  0  0
   -0.5810    0.5527   -0.8668 C   0  0  0  0  0  0  0  0  0  0  0  0
   -1.6127    0.8568    0.2302 C   0  0  1  0  0  0  0  0  0  0  0  0
   -2.7925    1.3460   -0.3115 O   0  0  0  0  0  0  0  0  0  0  0  0
   -2.3382   -1.4286    2.4127 H   0  0  0  0  0  0  0  0  0  0  0  0
   -2.4016   -1.0993    0.0755 H   0  0  0  0  0  0  0  0  0  0  0  0
   -0.3620   -2.0920    0.5225 H   0  0  0  0  0  0  0  0  0  0  0  0
    0.0613   -0.9712    1.8458 H   0  0  0  0  0  0  0  0  0  0  0  0
    4.5652    0.8106   -1.4915 H   0  0  0  0  0  0  0  0  0  0  0  0
   -0.1829    1.4541   -1.3208 H   0  0  0  0  0  0  0  0  0  0  0  0
   -1.0802   -0.1387   -1.5703 H   0  0  0  0  0  0  0  0  0  0  0  0
   -1.1952    1.5718    0.9755 H   0  0  0  0  0  0  0  0  0  0  0  0
   -2.6304    2.0417   -0.9739 H   0  0  0  0  0  0  0  0  0  0  0  0
  1  2  1  0
  2  3  1  0
  3  4  1  0
  4  5  1  0
  5  6  1  0
  6  7  2  0
  7  8  1  0
  8  9  1  0
  4 10  1  0
 10 11  1  0
 11 12  1  0
 11  2  1  0
  9  5  2  0
  1 13  1  0
  2 14  1  6
  3 15  1  0
  3 16  1  0
  8 17  1  0
 10 18  1  0
 10 19  1  0
 11 20  1  1
 12 21  1  0
M  END
$$$$

     RDKit          3D

 21 22  0  0  0  0  0  0  0  0999 V2000
   -1.9823   -2.2045   -0.8186 O   0  0  0  0  0  0  0  0  0  0  0  0
   -1.2884   -1.0185   -0.6409 C   0  0  2  0  0  0  0  0  0  0  0  0
   -0.0648   -1.2042    0.2341 C   0  0  0  0  0  0  0  0  0  0  0  0
    0.2855    0.1715    0.4854 N   0  0  0  0  0  0  0  0  0  0  0  0
    1.5952    0.6882    0.4418 C   0  0  0  0  0  0  0  0  0  0  0  0
    1.9754    1.9661    0.6686 N   0  0  0  0  0  0  0  0  0  0  0  0
    3.2786    2.0483    0.5336 N   0  0  0  0  0  0  0  0  0  0  0  0
    3.7638    0.8597    0.2245 N   0  0  0  0  0  0  0  0  0  0  0  0
    2.7357    0.0313    0.1689 N   0  0  0  0  0  0  0  0  0  0  0  0
   -0.9466    0.8563    0.7752 C   0  0  0  0  0  0  0  0  0  0  0  0
   -2.0574   -0.0116    0.1711 C   0  0  1  0  0  0  0  0  0  0  0  0
   -2.8704    0.7985   -0.6146 O   0  0  0  0  0  0  0  0  0  0  0  0
   -1.4814   -2.7844   -1.4246 H   0  0  0  0  0  0  0  0  0  0  0  0
   -0.9628   -0.5821   -1.6061 H   0  0  0  0  0  0  0  0  0  0  0  0
   -0.3987   -1.6546    1.1873 H   0  0  0  0  0  0  0  0  0  0  0  0
    0.7352   -1.7760   -0.2619 H   0  0  0  0  0  0  0  0  0  0  0  0
    4.7577    0.5915    0.0512 H   0  0  0  0  0  0  0  0  0  0  0  0
   -1.0690    0.8391    1.8856 H   0  0  0  0  0  0  0  0  0  0  0  0
   -0.9895    1.8889    0.4304 H   0  0  0  0  0  0  0  0  0  0  0  0
   -2.6206   -0.5176    0.9593 H   0  0  0  0  0  0  0  0  0  0  0  0
   -2.3953    1.0140   -1.4587 H   0  0  0  0  0  0  0  0  0  0  0  0
  1  2  1  0
  2  3  1  0
  3  4  1  0
  4  5  1  0
  5  6  1  0
  6  7  2  0
  7  8  1  0
  8  9  1  0
  4 10  1  0
 10 11  1  0
 11 12  1  0
 11  2  1  0
  9  5  2  0
  1 13  1  0
  2 14  1  6
  3 15  1  0
  3 16  1  0
  8 17  1  0
 10 18  1  0
 10 19  1  0
 11 20  1  1
 12 21  1  0
M  END
$$$$

     RDKit          3D

 21 22  0  0  0  0  0  0  0  0999 V2000
   -2.0215    0.7470   -1.8446 O   0  0  0  0  0  0  0  0  0  0  0  0
   -1.6647    0.9841   -0.5028 C   0  0  2  0  0  0  0  0  0  0  0  0
   -0.1869    1.1838   -0.4595 C   0  0  0  0  0  0  0  0  0  0  0  0
    0.3943   -0.0842   -0.0713 N   0  0  0  0  0  0  0  0  0  0  0  0
    1.7834   -0.3167    0.0642 C   0  0  0  0  0  0  0  0  0  0  0  0
    2.3992   -1.4704    0.4220 N   0  0  0  0  0  0  0  0  0  0  0  0
    3.6998   -1.2650    0.4289 N   0  0  0  0  0  0  0  0  0  0  0  0
    3.9618   -0.0146    0.0876 N   0  0  0  0  0  0  0  0  0  0  0  0
    2.7967    0.5615   -0.1340 N   0  0  0  0  0  0  0  0  0  0  0  0
   -0.6295   -1.0781    0.1588 C   0  0  0  0  0  0  0  0  0  0  0  0
   -1.9227   -0.3217    0.2500 C   0  0  1  0  0  0  0  0  0  0  0  0
   -2.2895   -0.0682    1.5642 O   0  0  0  0  0  0  0  0  0  0  0  0
   -2.2770   -0.1898   -2.0025 H   0  0  0  0  0  0  0  0  0  0  0  0
   -2.2315    1.8237   -0.0940 H   0  0  0  0  0  0  0  0  0  0  0  0
    0.2108    1.5477   -1.4249 H   0  0  0  0  0  0  0  0  0  0  0  0
    0.0814    1.9052    0.3639 H   0  0  0  0  0  0  0  0  0  0  0  0
    4.9289    0.3699    0.0270 H   0  0  0  0  0  0  0  0  0  0  0  0
   -0.6210   -1.7571   -0.7315 H   0  0  0  0  0  0  0  0  0  0  0  0
   -0.4217   -1.7094    1.0305 H   0  0  0  0  0  0  0  0  0  0  0  0
   -2.7376   -0.8863   -0.2220 H   0  0  0  0  0  0  0  0  0  0  0  0
   -3.2529    0.0387    1.6865 H   0  0  0  0  0  0  0  0  0  0  0  0
  1  2  1  0
  2  3  1  0
  3  4  1  0
  4  5  1  0
  5  6  1  0
  6  7  2  0
  7  8  1  0
  8  9  1  0
  4 10  1  0
 10 11  1  0
 11 12  1  0
 11  2  1  0
  9  5  2  0
  1 13  1  0
  2 14  1  1
  3 15  1  0
  3 16  1  0
  8 17  1  0
 10 18  1  0
 10 19  1  0
 11 20  1  6
 12 21  1  0
M  END
$$$$

     RDKit          3D

 21 22  0  0  0  0  0  0  0  0999 V2000
   -2.5844    1.6765    0.4012 O   0  0  0  0  0  0  0  0  0  0  0  0
   -1.5849    0.7199    0.5841 C   0  0  2  0  0  0  0  0  0  0  0  0
   -0.2905    1.1438   -0.0592 C   0  0  0  0  0  0  0  0  0  0  0  0
    0.4327   -0.0975   -0.1505 N   0  0  0  0  0  0  0  0  0  0  0  0
    1.8273   -0.2693   -0.0013 C   0  0  0  0  0  0  0  0  0  0  0  0
    2.5543   -1.4100   -0.0776 N   0  0  0  0  0  0  0  0  0  0  0  0
    3.8320   -1.1392    0.1219 N   0  0  0  0  0  0  0  0  0  0  0  0
    3.9665    0.1406    0.3264 N   0  0  0  0  0  0  0  0  0  0  0  0
    2.7641    0.6877    0.2562 N   0  0  0  0  0  0  0  0  0  0  0  0
   -0.5216   -1.1374   -0.4219 C   0  0  0  0  0  0  0  0  0  0  0  0
   -1.8934   -0.5478   -0.2066 C   0  0  1  0  0  0  0  0  0  0  0  0
   -2.7207   -1.4024    0.4813 O   0  0  0  0  0  0  0  0  0  0  0  0
   -2.2780    2.3306   -0.2960 H   0  0  0  0  0  0  0  0  0  0  0  0
   -1.4289    0.4804    1.6525 H   0  0  0  0  0  0  0  0  0  0  0  0
    0.2510    1.9205    0.5015 H   0  0  0  0  0  0  0  0  0  0  0  0
   -0.5374    1.4638   -1.0993 H   0  0  0  0  0  0  0  0  0  0  0  0
    4.8802    0.6356    0.5133 H   0  0  0  0  0  0  0  0  0  0  0  0
   -0.3958   -1.4120   -1.5094 H   0  0  0  0  0  0  0  0  0  0  0  0
   -0.3534   -2.0527    0.1707 H   0  0  0  0  0  0  0  0  0  0  0  0
   -2.3350   -0.2405   -1.1783 H   0  0  0  0  0  0  0  0  0  0  0  0
   -3.5841   -1.4907   -0.0090 H   0  0  0  0  0  0  0  0  0  0  0  0
  1  2  1  0
  2  3  1  0
  3  4  1  0
  4  5  1  0
  5  6  1  0
  6  7  2  0
  7  8  1  0
  8  9  1  0
  4 10  1  0
 10 11  1  0
 11 12  1  0
 11  2  1  0
  9  5  2  0
  1 13  1  0
  2 14  1  1
  3 15  1  0
  3 16  1  0
  8 17  1  0
 10 18  1  0
 10 19  1  0
 11 20  1  6
 12 21  1  0
M  END
$$$$
