
     RDKit          3D

 24 24  0  0  0  0  0  0  0  0999 V2000
    4.4647   -0.0007    0.3559 N   0  0  0  0  0  0  0  0  0  0  0  0
    3.3183    0.0934   -0.4840 C   0  0  0  0  0  0  0  0  0  0  0  0
    3.4039    0.0529   -1.7346 O   0  0  0  0  0  0  0  0  0  0  0  0
    2.0320    0.2377    0.0963 N   0  0  0  0  0  0  0  0  0  0  0  0
    0.9074    0.3292   -0.7572 C   0  0  0  0  0  0  0  0  0  0  0  0
    1.0633    0.2810   -2.0263 O   0  0  0  0  0  0  0  0  0  0  0  0
   -0.4171    0.4744   -0.2951 N   0  0  0  0  0  0  0  0  0  0  0  0
   -0.7733    0.5462    1.0900 C   0  0  0  0  0  0  0  0  0  0  0  0
   -1.7160   -0.5915    1.3867 C   0  0  0  0  0  0  0  0  0  0  0  0
   -2.8018   -0.7013    0.4808 N   0  0  0  0  0  0  0  0  0  0  0  0
   -2.5152   -0.5429   -0.8889 C   0  0  0  0  0  0  0  0  0  0  0  0
   -1.5518    0.5642   -1.2232 C   0  0  0  0  0  0  0  0  0  0  0  0
    4.6076   -0.8455    0.9346 H   0  0  0  0  0  0  0  0  0  0  0  0
    5.1564    0.7556    0.4000 H   0  0  0  0  0  0  0  0  0  0  0  0
    1.9112    0.2765    1.1422 H   0  0  0  0  0  0  0  0  0  0  0  0
    0.0344    0.5165    1.8097 H   0  0  0  0  0  0  0  0  0  0  0  0
   -1.3418    1.4833    1.2567 H   0  0  0  0  0  0  0  0  0  0  0  0
   -2.1430   -0.3860    2.4082 H   0  0  0  0  0  0  0  0  0  0  0  0
   -1.1964   -1.5728    1.4797 H   0  0  0  0  0  0  0  0  0  0  0  0
   -3.7188   -0.4073    0.8133 H   0  0  0  0  0  0  0  0  0  0  0  0
   -2.1100   -1.4733   -1.3636 H   0  0  0  0  0  0  0  0  0  0  0  0
   -3.4589   -0.3254   -1.4373 H   0  0  0  0  0  0  0  0  0  0  0  0
   -1.1435    0.3984   -2.2357 H   0  0  0  0  0  0  0  0  0  0  0  0
   -2.0115    1.5680   -1.2080 H   0  0  0  0  0  0  0  0  0  0  0  0
  1  2  1  0
  2  3  2  0
  2  4  1  0
  4  5  1  0
  5  6  2  0
  5  7  1  0
  7  8  1  0
  8  9  1  0
  9 10  1  0
 10 11  1  0
 11 12  1  0
 12  7  1  0
  1 13  1  0
  1 14  1  0
  4 15  1  0
  8 16  1  0
  8 17  1  0
  9 18  1  0
  9 19  1  0
 10 20  1  0
 11 21  1  0
 11 22  1  0
 12 23  1  0
 12 24  1  0
M  END
$$$$

     RDKit          3D

 24 24  0  0  0  0  0  0  0  0999 V2000
    4.3844    0.3212    0.7637 N   0  0  0  0  0  0  0  0  0  0  0  0
    3.3547    0.3355   -0.2055 C   0  0  0  0  0  0  0  0  0  0  0  0
    3.6118    0.6674   -1.4068 O   0  0  0  0  0  0  0  0  0  0  0  0
    2.0141   -0.0298    0.1844 N   0  0  0  0  0  0  0  0  0  0  0  0
    0.9816   -0.0223   -0.7578 C   0  0  0  0  0  0  0  0  0  0  0  0
    1.2936    0.3172   -1.9419 O   0  0  0  0  0  0  0  0  0  0  0  0
   -0.3534   -0.3649   -0.4616 N   0  0  0  0  0  0  0  0  0  0  0  0
   -0.8517   -0.7655    0.8166 C   0  0  0  0  0  0  0  0  0  0  0  0
   -1.8264    0.2881    1.3534 C   0  0  0  0  0  0  0  0  0  0  0  0
   -2.3581    0.9726    0.1982 N   0  0  0  0  0  0  0  0  0  0  0  0
   -2.6738   -0.0021   -0.8191 C   0  0  0  0  0  0  0  0  0  0  0  0
   -1.3559   -0.3166   -1.5430 C   0  0  0  0  0  0  0  0  0  0  0  0
    4.3350   -0.3401    1.5464 H   0  0  0  0  0  0  0  0  0  0  0  0
    5.1693    0.9855    0.6567 H   0  0  0  0  0  0  0  0  0  0  0  0
    1.8069   -0.3013    1.1697 H   0  0  0  0  0  0  0  0  0  0  0  0
   -1.3850   -1.7348    0.6787 H   0  0  0  0  0  0  0  0  0  0  0  0
   -0.0798   -0.9025    1.5654 H   0  0  0  0  0  0  0  0  0  0  0  0
   -1.3432    0.9726    2.0615 H   0  0  0  0  0  0  0  0  0  0  0  0
   -2.5978   -0.2782    1.9087 H   0  0  0  0  0  0  0  0  0  0  0  0
   -3.1531    1.5984    0.4246 H   0  0  0  0  0  0  0  0  0  0  0  0
   -3.4274    0.3435   -1.5278 H   0  0  0  0  0  0  0  0  0  0  0  0
   -2.9956   -0.9771   -0.3815 H   0  0  0  0  0  0  0  0  0  0  0  0
   -1.4060   -1.2932   -2.0621 H   0  0  0  0  0  0  0  0  0  0  0  0
   -1.1441    0.5264   -2.2211 H   0  0  0  0  0  0  0  0  0  0  0  0
  1  2  1  0
  2  3  2  0
  2  4  1  0
  4  5  1  0
  5  6  2  0
  5  7  1  0
  7  8  1  0
  8  9  1  0
  9 10  1  0
 10 11  1  0
 11 12  1  0
 12  7  1  0
  1 13  1  0
  1 14  1  0
  4 15  1  0
  8 16  1  0
  8 17  1  0
  9 18  1  0
  9 19  1  0
 10 20  1  0
 11 21  1  0
 11 22  1  0
 12 23  1  0
 12 24  1  0
M  END
$$$$

     RDKit          3D

 24 24  0  0  0  0  0  0  0  0999 V2000
    4.5344    0.0154   -0.2457 N   0  0  0  0  0  0  0  0  0  0  0  0
    3.3141   -0.1635   -0.9525 C   0  0  0  0  0  0  0  0  0  0  0  0
    3.3497   -0.4792   -2.1673 O   0  0  0  0  0  0  0  0  0  0  0  0
    2.0403    0.0036   -0.3285 N   0  0  0  0  0  0  0  0  0  0  0  0
    0.8174   -0.1725   -1.0249 C   0  0  0  0  0  0  0  0  0  0  0  0
    0.8515   -0.4883   -2.2400 O   0  0  0  0  0  0  0  0  0  0  0  0
   -0.4527   -0.0061   -0.4036 N   0  0  0  0  0  0  0  0  0  0  0  0
   -0.4669    0.3579    0.9968 C   0  0  0  0  0  0  0  0  0  0  0  0
   -1.7773    0.8875    1.4563 C   0  0  0  0  0  0  0  0  0  0  0  0
   -2.9282    0.2172    0.9633 N   0  0  0  0  0  0  0  0  0  0  0  0
   -2.7128   -0.7182   -0.0854 C   0  0  0  0  0  0  0  0  0  0  0  0
   -1.6999   -0.1780   -1.0830 C   0  0  0  0  0  0  0  0  0  0  0  0
    4.8295    0.9613    0.0379 H   0  0  0  0  0  0  0  0  0  0  0  0
    5.1436   -0.7906   -0.0047 H   0  0  0  0  0  0  0  0  0  0  0  0
    2.0480    0.2637    0.6729 H   0  0  0  0  0  0  0  0  0  0  0  0
   -0.0737   -0.4751    1.5976 H   0  0  0  0  0  0  0  0  0  0  0  0
    0.2869    1.1918    1.1156 H   0  0  0  0  0  0  0  0  0  0  0  0
   -1.7954    0.8117    2.5826 H   0  0  0  0  0  0  0  0  0  0  0  0
   -1.8421    1.9566    1.1601 H   0  0  0  0  0  0  0  0  0  0  0  0
   -3.5770   -0.1243    1.6772 H   0  0  0  0  0  0  0  0  0  0  0  0
   -3.6776   -0.8281   -0.6578 H   0  0  0  0  0  0  0  0  0  0  0  0
   -2.4434   -1.7174    0.2864 H   0  0  0  0  0  0  0  0  0  0  0  0
   -1.6549   -0.9113   -1.9230 H   0  0  0  0  0  0  0  0  0  0  0  0
   -2.1136    0.8025   -1.4304 H   0  0  0  0  0  0  0  0  0  0  0  0
  1  2  1  0
  2  3  2  0
  2  4  1  0
  4  5  1  0
  5  6  2  0
  5  7  1  0
  7  8  1  0
  8  9  1  0
  9 10  1  0
 10 11  1  0
 11 12  1  0
 12  7  1  0
  1 13  1  0
  1 14  1  0
  4 15  1  0
  8 16  1  0
  8 17  1  0
  9 18  1  0
  9 19  1  0
 10 20  1  0
 11 21  1  0
 11 22  1  0
 12 23  1  0
 12 24  1  0
M  END
$$$$

     RDKit          3D

 24 24  0  0  0  0  0  0  0  0999 V2000
    4.3997    0.7148   -0.6129 N   0  0  0  0  0  0  0  0  0  0  0  0
    3.3883   -0.1049   -0.0694 C   0  0  0  0  0  0  0  0  0  0  0  0
    3.7015   -1.0864    0.6864 O   0  0  0  0  0  0  0  0  0  0  0  0
    2.0026    0.1187   -0.3324 N   0  0  0  0  0  0  0  0  0  0  0  0
    0.9787   -0.6940    0.2050 C   0  0  0  0  0  0  0  0  0  0  0  0
    1.3497   -1.6526    0.9477 O   0  0  0  0  0  0  0  0  0  0  0  0
   -0.3960   -0.4732   -0.0550 N   0  0  0  0  0  0  0  0  0  0  0  0
   -1.4049   -1.3119    0.5028 C   0  0  0  0  0  0  0  0  0  0  0  0
   -2.5970   -0.5764    1.0192 C   0  0  0  0  0  0  0  0  0  0  0  0
   -2.7189    0.7591    0.4727 N   0  0  0  0  0  0  0  0  0  0  0  0
   -2.2766    0.8397   -0.9017 C   0  0  0  0  0  0  0  0  0  0  0  0
   -0.7656    0.6318   -0.9070 C   0  0  0  0  0  0  0  0  0  0  0  0
    5.2247    0.9431   -0.0368 H   0  0  0  0  0  0  0  0  0  0  0  0
    4.3371    1.0926   -1.5711 H   0  0  0  0  0  0  0  0  0  0  0  0
    1.7584    0.9257   -0.9529 H   0  0  0  0  0  0  0  0  0  0  0  0
   -1.7472   -2.1134   -0.2069 H   0  0  0  0  0  0  0  0  0  0  0  0
   -0.9811   -1.8930    1.3747 H   0  0  0  0  0  0  0  0  0  0  0  0
   -3.5217   -1.1242    0.7664 H   0  0  0  0  0  0  0  0  0  0  0  0
   -2.5571   -0.4691    2.1311 H   0  0  0  0  0  0  0  0  0  0  0  0
   -2.2040    1.4541    1.0646 H   0  0  0  0  0  0  0  0  0  0  0  0
   -2.4513    1.8731   -1.2450 H   0  0  0  0  0  0  0  0  0  0  0  0
   -2.7908    0.0710   -1.4907 H   0  0  0  0  0  0  0  0  0  0  0  0
   -0.3275    1.5863   -0.5443 H   0  0  0  0  0  0  0  0  0  0  0  0
   -0.4012    0.4893   -1.9497 H   0  0  0  0  0  0  0  0  0  0  0  0
  1  2  1  0
  2  3  2  0
  2  4  1  0
  4  5  1  0
  5  6  2  0
  5  7  1  0
  7  8  1  0
  8  9  1  0
  9 10  1  0
 10 11  1  0
 11 12  1  0
 12  7  1  0
  1 13  1  0
  1 14  1  0
  4 15  1  0
  8 16  1  0
  8 17  1  0
  9 18  1  0
  9 19  1  0
 10 20  1  0
 11 21  1  0
 11 22  1  0
 12 23  1  0
 12 24  1  0
M  END
$$$$

     RDKit          3D

 24 24  0  0  0  0  0  0  0  0999 V2000
    4.3660    0.9510   -0.8982 N   0  0  0  0  0  0  0  0  0  0  0  0
    3.4060    0.0277   -0.4024 C   0  0  0  0  0  0  0  0  0  0  0  0
    3.7840   -1.0663    0.1066 O   0  0  0  0  0  0  0  0  0  0  0  0
    2.0076    0.3022   -0.4625 N   0  0  0  0  0  0  0  0  0  0  0  0
    1.0615   -0.6486    0.0458 C   0  0  0  0  0  0  0  0  0  0  0  0
    1.4789   -1.7155    0.5397 O   0  0  0  0  0  0  0  0  0  0  0  0
   -0.3299   -0.3858   -0.0092 N   0  0  0  0  0  0  0  0  0  0  0  0
   -0.7649    0.8662   -0.5916 C   0  0  0  0  0  0  0  0  0  0  0  0
   -2.2409    0.7643   -0.8856 C   0  0  0  0  0  0  0  0  0  0  0  0
   -2.9934    0.3219    0.2405 N   0  0  0  0  0  0  0  0  0  0  0  0
   -2.5915   -0.8989    0.8184 C   0  0  0  0  0  0  0  0  0  0  0  0
   -1.2314   -1.3762    0.5160 C   0  0  0  0  0  0  0  0  0  0  0  0
    4.9827    0.7126   -1.6901 H   0  0  0  0  0  0  0  0  0  0  0  0
    4.4292    1.8757   -0.4389 H   0  0  0  0  0  0  0  0  0  0  0  0
    1.6942    1.1986   -0.8794 H   0  0  0  0  0  0  0  0  0  0  0  0
   -0.2424    1.0565   -1.5364 H   0  0  0  0  0  0  0  0  0  0  0  0
   -0.5820    1.6820    0.1131 H   0  0  0  0  0  0  0  0  0  0  0  0
   -2.5912    1.7765   -1.1691 H   0  0  0  0  0  0  0  0  0  0  0  0
   -2.3559    0.0195   -1.7003 H   0  0  0  0  0  0  0  0  0  0  0  0
   -3.2685    1.0782    0.9006 H   0  0  0  0  0  0  0  0  0  0  0  0
   -2.7427   -0.8259    1.9342 H   0  0  0  0  0  0  0  0  0  0  0  0
   -3.3219   -1.6959    0.4947 H   0  0  0  0  0  0  0  0  0  0  0  0
   -1.2058   -2.2517   -0.1874 H   0  0  0  0  0  0  0  0  0  0  0  0
   -0.7475   -1.7682    1.4594 H   0  0  0  0  0  0  0  0  0  0  0  0
  1  2  1  0
  2  3  2  0
  2  4  1  0
  4  5  1  0
  5  6  2  0
  5  7  1  0
  7  8  1  0
  8  9  1  0
  9 10  1  0
 10 11  1  0
 11 12  1  0
 12  7  1  0
  1 13  1  0
  1 14  1  0
  4 15  1  0
  8 16  1  0
  8 17  1  0
  9 18  1  0
  9 19  1  0
 10 20  1  0
 11 21  1  0
 11 22  1  0
 12 23  1  0
 12 24  1  0
M  END
$$$$

     RDKit          3D

 24 24  0  0  0  0  0  0  0  0999 V2000
    4.1119   -0.9741    1.5477 N   0  0  0  0  0  0  0  0  0  0  0  0
    3.3372   -0.5077    0.4625 C   0  0  0  0  0  0  0  0  0  0  0  0
    3.9216   -0.2841   -0.6257 O   0  0  0  0  0  0  0  0  0  0  0  0
    1.9268   -0.2961    0.5995 N   0  0  0  0  0  0  0  0  0  0  0  0
    1.1517    0.1726   -0.4931 C   0  0  0  0  0  0  0  0  0  0  0  0
    1.6781    0.4122   -1.5998 O   0  0  0  0  0  0  0  0  0  0  0  0
   -0.2345    0.3666   -0.3119 N   0  0  0  0  0  0  0  0  0  0  0  0
   -1.0222    0.8440   -1.4258 C   0  0  0  0  0  0  0  0  0  0  0  0
   -2.2520   -0.0162   -1.6516 C   0  0  0  0  0  0  0  0  0  0  0  0
   -2.8774   -0.4265   -0.4395 N   0  0  0  0  0  0  0  0  0  0  0  0
   -2.3889    0.2052    0.7437 C   0  0  0  0  0  0  0  0  0  0  0  0
   -0.9041    0.1118    0.9303 C   0  0  0  0  0  0  0  0  0  0  0  0
    4.7820   -0.3549    2.0526 H   0  0  0  0  0  0  0  0  0  0  0  0
    4.0458   -1.9538    1.8874 H   0  0  0  0  0  0  0  0  0  0  0  0
    1.4244   -0.4759    1.4940 H   0  0  0  0  0  0  0  0  0  0  0  0
   -0.4619    0.8504   -2.3740 H   0  0  0  0  0  0  0  0  0  0  0  0
   -1.3529    1.9007   -1.2596 H   0  0  0  0  0  0  0  0  0  0  0  0
   -2.0316   -0.8554   -2.3463 H   0  0  0  0  0  0  0  0  0  0  0  0
   -2.9794    0.6407   -2.2042 H   0  0  0  0  0  0  0  0  0  0  0  0
   -3.1126   -1.4169   -0.3604 H   0  0  0  0  0  0  0  0  0  0  0  0
   -2.6640    1.2769    0.7074 H   0  0  0  0  0  0  0  0  0  0  0  0
   -2.8856   -0.2485    1.6180 H   0  0  0  0  0  0  0  0  0  0  0  0
   -0.5930   -0.8345    1.4049 H   0  0  0  0  0  0  0  0  0  0  0  0
   -0.6194    0.9357    1.6436 H   0  0  0  0  0  0  0  0  0  0  0  0
  1  2  1  0
  2  3  2  0
  2  4  1  0
  4  5  1  0
  5  6  2  0
  5  7  1  0
  7  8  1  0
  8  9  1  0
  9 10  1  0
 10 11  1  0
 11 12  1  0
 12  7  1  0
  1 13  1  0
  1 14  1  0
  4 15  1  0
  8 16  1  0
  8 17  1  0
  9 18  1  0
  9 19  1  0
 10 20  1  0
 11 21  1  0
 11 22  1  0
 12 23  1  0
 12 24  1  0
M  END
$$$$

     RDKit          3D

 24 24  0  0  0  0  0  0  0  0999 V2000
    4.4524    0.2914   -0.7213 N   0  0  0  0  0  0  0  0  0  0  0  0
    3.2965   -0.5234   -0.7200 C   0  0  0  0  0  0  0  0  0  0  0  0
    3.3490   -1.7006   -1.1483 O   0  0  0  0  0  0  0  0  0  0  0  0
    2.0486    0.0062   -0.2217 N   0  0  0  0  0  0  0  0  0  0  0  0
    0.8789   -0.7941   -0.2118 C   0  0  0  0  0  0  0  0  0  0  0  0
    1.0299   -1.9782   -0.6666 O   0  0  0  0  0  0  0  0  0  0  0  0
   -0.3749   -0.3410    0.2605 N   0  0  0  0  0  0  0  0  0  0  0  0
   -0.6150    0.9759    0.7825 C   0  0  0  0  0  0  0  0  0  0  0  0
   -1.8285    1.5339    0.0537 C   0  0  0  0  0  0  0  0  0  0  0  0
   -2.9526    0.7076    0.3932 N   0  0  0  0  0  0  0  0  0  0  0  0
   -2.7903   -0.6221   -0.1633 C   0  0  0  0  0  0  0  0  0  0  0  0
   -1.4975   -1.2601    0.2203 C   0  0  0  0  0  0  0  0  0  0  0  0
    4.6372    1.0433   -0.0214 H   0  0  0  0  0  0  0  0  0  0  0  0
    5.1571    0.1088   -1.4874 H   0  0  0  0  0  0  0  0  0  0  0  0
    1.9888    0.9827    0.1376 H   0  0  0  0  0  0  0  0  0  0  0  0
    0.2005    1.6854    0.7107 H   0  0  0  0  0  0  0  0  0  0  0  0
   -0.9244    0.8438    1.8578 H   0  0  0  0  0  0  0  0  0  0  0  0
   -1.6421    1.4057   -1.0421 H   0  0  0  0  0  0  0  0  0  0  0  0
   -2.0178    2.5890    0.3171 H   0  0  0  0  0  0  0  0  0  0  0  0
   -3.0275    0.6396    1.4417 H   0  0  0  0  0  0  0  0  0  0  0  0
   -3.6138   -1.2661    0.2532 H   0  0  0  0  0  0  0  0  0  0  0  0
   -2.8872   -0.5453   -1.2578 H   0  0  0  0  0  0  0  0  0  0  0  0
   -1.5631   -1.6925    1.2621 H   0  0  0  0  0  0  0  0  0  0  0  0
   -1.3041   -2.0896   -0.4964 H   0  0  0  0  0  0  0  0  0  0  0  0
  1  2  1  0
  2  3  2  0
  2  4  1  0
  4  5  1  0
  5  6  2  0
  5  7  1  0
  7  8  1  0
  8  9  1  0
  9 10  1  0
 10 11  1  0
 11 12  1  0
 12  7  1  0
  1 13  1  0
  1 14  1  0
  4 15  1  0
  8 16  1  0
  8 17  1  0
  9 18  1  0
  9 19  1  0
 10 20  1  0
 11 21  1  0
 11 22  1  0
 12 23  1  0
 12 24  1  0
M  END
$$$$

     RDKit          3D

 24 24  0  0  0  0  0  0  0  0999 V2000
    4.4330   -0.8486    0.5932 N   0  0  0  0  0  0  0  0  0  0  0  0
    3.4444   -0.0530   -0.0352 C   0  0  0  0  0  0  0  0  0  0  0  0
    3.7592    0.8529   -0.8207 O   0  0  0  0  0  0  0  0  0  0  0  0
    2.0440   -0.2731    0.2202 N   0  0  0  0  0  0  0  0  0  0  0  0
    1.0507    0.5262   -0.4111 C   0  0  0  0  0  0  0  0  0  0  0  0
    1.4526    1.4204   -1.1909 O   0  0  0  0  0  0  0  0  0  0  0  0
   -0.3406    0.3592   -0.2014 N   0  0  0  0  0  0  0  0  0  0  0  0
   -1.2650    1.2062   -0.8764 C   0  0  0  0  0  0  0  0  0  0  0  0
   -2.6393    1.1694   -0.2462 C   0  0  0  0  0  0  0  0  0  0  0  0
   -3.0244   -0.1709   -0.0328 N   0  0  0  0  0  0  0  0  0  0  0  0
   -2.1846   -0.9968    0.7192 C   0  0  0  0  0  0  0  0  0  0  0  0
   -0.7341   -0.6948    0.7137 C   0  0  0  0  0  0  0  0  0  0  0  0
    4.2221   -1.7551    1.0705 H   0  0  0  0  0  0  0  0  0  0  0  0
    5.4147   -0.5345    0.5901 H   0  0  0  0  0  0  0  0  0  0  0  0
    1.7525   -1.0277    0.8760 H   0  0  0  0  0  0  0  0  0  0  0  0
   -1.3816    0.8107   -1.9212 H   0  0  0  0  0  0  0  0  0  0  0  0
   -0.9081    2.2593   -0.8854 H   0  0  0  0  0  0  0  0  0  0  0  0
   -3.3338    1.6377   -0.9756 H   0  0  0  0  0  0  0  0  0  0  0  0
   -2.6929    1.7733    0.6776 H   0  0  0  0  0  0  0  0  0  0  0  0
   -3.6723   -0.5921   -0.6913 H   0  0  0  0  0  0  0  0  0  0  0  0
   -2.5287   -0.9761    1.7956 H   0  0  0  0  0  0  0  0  0  0  0  0
   -2.3633   -2.0702    0.4123 H   0  0  0  0  0  0  0  0  0  0  0  0
   -0.1534   -1.6289    0.4691 H   0  0  0  0  0  0  0  0  0  0  0  0
   -0.3510   -0.3936    1.7255 H   0  0  0  0  0  0  0  0  0  0  0  0
  1  2  1  0
  2  3  2  0
  2  4  1  0
  4  5  1  0
  5  6  2  0
  5  7  1  0
  7  8  1  0
  8  9  1  0
  9 10  1  0
 10 11  1  0
 11 12  1  0
 12  7  1  0
  1 13  1  0
  1 14  1  0
  4 15  1  0
  8 16  1  0
  8 17  1  0
  9 18  1  0
  9 19  1  0
 10 20  1  0
 11 21  1  0
 11 22  1  0
 12 23  1  0
 12 24  1  0
M  END
$$$$
