
     RDKit          3D

 23 23  0  0  0  0  0  0  0  0999 V2000
    2.8569   -0.2460    0.6263 O   0  0  0  0  0  0  0  0  0  0  0  0
    1.9391    0.7116    0.1674 C   0  0  0  0  0  0  0  0  0  0  0  0
    0.5645    0.1010    0.2203 C   0  0  2  0  0  0  0  0  0  0  0  0
    0.2712   -0.2583    1.5310 O   0  0  0  0  0  0  0  0  0  0  0  0
    0.5073   -1.1904   -0.6040 C   0  0  0  0  0  0  0  0  0  0  0  0
   -0.7711   -1.8354   -0.2047 C   0  0  0  0  0  0  0  0  0  0  0  0
   -1.8438   -1.0980   -0.0121 C   0  0  0  0  0  0  0  0  0  0  0  0
   -1.8421    0.3691   -0.1762 C   0  0  1  0  0  0  0  0  0  0  0  0
   -2.4784    0.9730    0.9102 O   0  0  0  0  0  0  0  0  0  0  0  0
   -0.4967    0.9906   -0.3304 C   0  0  2  0  0  0  0  0  0  0  0  0
   -0.2039    1.2044   -1.6972 O   0  0  0  0  0  0  0  0  0  0  0  0
    3.7522    0.1101    0.7481 H   0  0  0  0  0  0  0  0  0  0  0  0
    1.9567    1.5470    0.8965 H   0  0  0  0  0  0  0  0  0  0  0  0
    2.1935    1.1009   -0.8258 H   0  0  0  0  0  0  0  0  0  0  0  0
    0.7761   -1.0295    1.8574 H   0  0  0  0  0  0  0  0  0  0  0  0
    1.3816   -1.8318   -0.3951 H   0  0  0  0  0  0  0  0  0  0  0  0
    0.4536   -0.9240   -1.6721 H   0  0  0  0  0  0  0  0  0  0  0  0
   -0.8440   -2.9177   -0.0655 H   0  0  0  0  0  0  0  0  0  0  0  0
   -2.7973   -1.5809    0.2868 H   0  0  0  0  0  0  0  0  0  0  0  0
   -2.4937    0.5956   -1.0623 H   0  0  0  0  0  0  0  0  0  0  0  0
   -1.7879    1.2046    1.5997 H   0  0  0  0  0  0  0  0  0  0  0  0
   -0.4125    1.9804    0.1773 H   0  0  0  0  0  0  0  0  0  0  0  0
   -0.6813    2.0239   -1.9754 H   0  0  0  0  0  0  0  0  0  0  0  0
  1  2  1  0
  2  3  1  0
  3  4  1  1
  3  5  1  0
  5  6  1  0
  6  7  2  0
  7  8  1  0
  8  9  1  0
  8 10  1  0
 10 11  1  0
 10  3  1  0
  1 12  1  0
  2 13  1  0
  2 14  1  0
  4 15  1  0
  5 16  1  0
  5 17  1  0
  6 18  1  0
  7 19  1  0
  8 20  1  6
  9 21  1  0
 10 22  1  1
 11 23  1  0
M  END
$$$$

     RDKit          3D

 23 23  0  0  0  0  0  0  0  0999 V2000
    2.4211    1.3391    0.6338 O   0  0  0  0  0  0  0  0  0  0  0  0
    1.5787    1.2166   -0.4714 C   0  0  0  0  0  0  0  0  0  0  0  0
    0.7522   -0.0361   -0.2937 C   0  0  2  0  0  0  0  0  0  0  0  0
    1.6251   -1.1354   -0.2098 O   0  0  0  0  0  0  0  0  0  0  0  0
   -0.1422   -0.3008   -1.4863 C   0  0  0  0  0  0  0  0  0  0  0  0
   -0.9822   -1.4771   -1.1388 C   0  0  0  0  0  0  0  0  0  0  0  0
   -1.6781   -1.4116   -0.0134 C   0  0  0  0  0  0  0  0  0  0  0  0
   -1.5234   -0.1353    0.7757 C   0  0  1  0  0  0  0  0  0  0  0  0
   -2.1006   -0.3073    2.0409 O   0  0  0  0  0  0  0  0  0  0  0  0
   -0.0523    0.1185    0.9590 C   0  0  2  0  0  0  0  0  0  0  0  0
    0.0687    1.4139    1.4961 O   0  0  0  0  0  0  0  0  0  0  0  0
    2.8493    0.4323    0.7413 H   0  0  0  0  0  0  0  0  0  0  0  0
    2.1568    1.2160   -1.4039 H   0  0  0  0  0  0  0  0  0  0  0  0
    0.9383    2.1226   -0.4748 H   0  0  0  0  0  0  0  0  0  0  0  0
    2.1182   -1.1461   -1.0727 H   0  0  0  0  0  0  0  0  0  0  0  0
    0.4884   -0.5764   -2.3647 H   0  0  0  0  0  0  0  0  0  0  0  0
   -0.7498    0.5925   -1.7338 H   0  0  0  0  0  0  0  0  0  0  0  0
   -1.0374   -2.3568   -1.7620 H   0  0  0  0  0  0  0  0  0  0  0  0
   -2.3181   -2.1908    0.3456 H   0  0  0  0  0  0  0  0  0  0  0  0
   -2.0631    0.6779    0.2887 H   0  0  0  0  0  0  0  0  0  0  0  0
   -2.1120    0.5746    2.4719 H   0  0  0  0  0  0  0  0  0  0  0  0
    0.3223   -0.6117    1.7158 H   0  0  0  0  0  0  0  0  0  0  0  0
   -0.5597    1.9812    0.9566 H   0  0  0  0  0  0  0  0  0  0  0  0
  1  2  1  0
  2  3  1  0
  3  4  1  1
  3  5  1  0
  5  6  1  0
  6  7  2  0
  7  8  1  0
  8  9  1  0
  8 10  1  0
 10 11  1  0
 10  3  1  0
  1 12  1  0
  2 13  1  0
  2 14  1  0
  4 15  1  0
  5 16  1  0
  5 17  1  0
  6 18  1  0
  7 19  1  0
  8 20  1  6
  9 21  1  0
 10 22  1  1
 11 23  1  0
M  END
$$$$

     RDKit          3D

 23 23  0  0  0  0  0  0  0  0999 V2000
    2.7052   -0.9930    0.3971 O   0  0  0  0  0  0  0  0  0  0  0  0
    1.7564   -0.4945   -0.4931 C   0  0  0  0  0  0  0  0  0  0  0  0
    0.6437    0.2402    0.2705 C   0  0  2  0  0  0  0  0  0  0  0  0
    1.3115    1.2826    0.9550 O   0  0  0  0  0  0  0  0  0  0  0  0
    0.0730   -0.6533    1.3082 C   0  0  0  0  0  0  0  0  0  0  0  0
   -1.2202   -1.2500    0.9956 C   0  0  0  0  0  0  0  0  0  0  0  0
   -2.0869   -0.6860    0.1748 C   0  0  0  0  0  0  0  0  0  0  0  0
   -1.7395    0.5994   -0.4547 C   0  0  1  0  0  0  0  0  0  0  0  0
   -2.2529    1.6894    0.2820 O   0  0  0  0  0  0  0  0  0  0  0  0
   -0.2956    0.7919   -0.7230 C   0  0  2  0  0  0  0  0  0  0  0  0
   -0.0365    0.2975   -2.0238 O   0  0  0  0  0  0  0  0  0  0  0  0
    3.6377   -0.7025    0.1551 H   0  0  0  0  0  0  0  0  0  0  0  0
    1.3337   -1.2799   -1.1472 H   0  0  0  0  0  0  0  0  0  0  0  0
    2.2892    0.2129   -1.1660 H   0  0  0  0  0  0  0  0  0  0  0  0
    2.1827    1.4784    0.5754 H   0  0  0  0  0  0  0  0  0  0  0  0
    0.8053   -1.4671    1.5078 H   0  0  0  0  0  0  0  0  0  0  0  0
   -0.0337   -0.1225    2.2988 H   0  0  0  0  0  0  0  0  0  0  0  0
   -1.4770   -2.1969    1.4594 H   0  0  0  0  0  0  0  0  0  0  0  0
   -3.0249   -1.1982   -0.0015 H   0  0  0  0  0  0  0  0  0  0  0  0
   -2.3017    0.6381   -1.4338 H   0  0  0  0  0  0  0  0  0  0  0  0
   -1.6471    2.4610    0.0725 H   0  0  0  0  0  0  0  0  0  0  0  0
   -0.1197    1.9045   -0.8215 H   0  0  0  0  0  0  0  0  0  0  0  0
   -0.5029   -0.5520   -2.1878 H   0  0  0  0  0  0  0  0  0  0  0  0
  1  2  1  0
  2  3  1  0
  3  4  1  1
  3  5  1  0
  5  6  1  0
  6  7  2  0
  7  8  1  0
  8  9  1  0
  8 10  1  0
 10 11  1  0
 10  3  1  0
  1 12  1  0
  2 13  1  0
  2 14  1  0
  4 15  1  0
  5 16  1  0
  5 17  1  0
  6 18  1  0
  7 19  1  0
  8 20  1  6
  9 21  1  0
 10 22  1  6
 11 23  1  0
M  END
$$$$

     RDKit          3D

 23 23  0  0  0  0  0  0  0  0999 V2000
   -2.7987    0.9467    0.3929 O   0  0  0  0  0  0  0  0  0  0  0  0
   -1.4571    1.2452    0.3152 C   0  0  0  0  0  0  0  0  0  0  0  0
   -0.7069    0.1453   -0.4123 C   0  0  2  0  0  0  0  0  0  0  0  0
   -1.3049    0.1025   -1.6980 O   0  0  0  0  0  0  0  0  0  0  0  0
   -0.8616   -1.1837    0.2493 C   0  0  0  0  0  0  0  0  0  0  0  0
    0.2076   -2.1660   -0.0628 C   0  0  0  0  0  0  0  0  0  0  0  0
    1.4595   -1.7244    0.0029 C   0  0  0  0  0  0  0  0  0  0  0  0
    1.6126   -0.2797    0.3869 C   0  0  1  0  0  0  0  0  0  0  0  0
    2.9284    0.1119    0.2750 O   0  0  0  0  0  0  0  0  0  0  0  0
    0.7295    0.4670   -0.6010 C   0  0  2  0  0  0  0  0  0  0  0  0
    1.0134    1.8244   -0.5197 O   0  0  0  0  0  0  0  0  0  0  0  0
   -3.3445    1.7603    0.3795 H   0  0  0  0  0  0  0  0  0  0  0  0
   -1.0865    1.3938    1.3487 H   0  0  0  0  0  0  0  0  0  0  0  0
   -1.2553    2.1844   -0.2408 H   0  0  0  0  0  0  0  0  0  0  0  0
   -1.4525    1.0444   -1.9722 H   0  0  0  0  0  0  0  0  0  0  0  0
   -1.8329   -1.6883   -0.0285 H   0  0  0  0  0  0  0  0  0  0  0  0
   -0.9069   -1.1114    1.3643 H   0  0  0  0  0  0  0  0  0  0  0  0
   -0.0044   -3.2153   -0.3380 H   0  0  0  0  0  0  0  0  0  0  0  0
    2.3060   -2.3267   -0.1963 H   0  0  0  0  0  0  0  0  0  0  0  0
    1.2895   -0.1305    1.4175 H   0  0  0  0  0  0  0  0  0  0  0  0
    3.3307    0.3260    1.1540 H   0  0  0  0  0  0  0  0  0  0  0  0
    1.0478    0.1156   -1.6063 H   0  0  0  0  0  0  0  0  0  0  0  0
    1.0875    2.1584    0.3899 H   0  0  0  0  0  0  0  0  0  0  0  0
  1  2  1  0
  2  3  1  0
  3  4  1  6
  3  5  1  0
  5  6  1  0
  6  7  2  0
  7  8  1  0
  8  9  1  0
  8 10  1  0
 10 11  1  0
 10  3  1  0
  1 12  1  0
  2 13  1  0
  2 14  1  0
  4 15  1  0
  5 16  1  0
  5 17  1  0
  6 18  1  0
  7 19  1  0
  8 20  1  1
  9 21  1  0
 10 22  1  6
 11 23  1  0
M  END
$$$$

     RDKit          3D

 23 23  0  0  0  0  0  0  0  0999 V2000
    2.8630    0.6205    0.0460 O   0  0  0  0  0  0  0  0  0  0  0  0
    2.0702   -0.5422    0.0395 C   0  0  0  0  0  0  0  0  0  0  0  0
    0.6399   -0.1646    0.3496 C   0  0  2  0  0  0  0  0  0  0  0  0
    0.6658    0.4351    1.6289 O   0  0  0  0  0  0  0  0  0  0  0  0
   -0.1979   -1.4066    0.4110 C   0  0  0  0  0  0  0  0  0  0  0  0
   -1.4680   -1.3187   -0.3192 C   0  0  0  0  0  0  0  0  0  0  0  0
   -2.0732   -0.1883   -0.6419 C   0  0  0  0  0  0  0  0  0  0  0  0
   -1.3734    1.0769   -0.2092 C   0  0  1  0  0  0  0  0  0  0  0  0
   -1.4296    1.1102    1.1819 O   0  0  0  0  0  0  0  0  0  0  0  0
    0.0954    0.8620   -0.5947 C   0  0  2  0  0  0  0  0  0  0  0  0
    0.1245    0.4464   -1.9192 O   0  0  0  0  0  0  0  0  0  0  0  0
    3.0990    0.8500    0.9858 H   0  0  0  0  0  0  0  0  0  0  0  0
    2.1822   -1.0824   -0.9082 H   0  0  0  0  0  0  0  0  0  0  0  0
    2.4076   -1.2166    0.8554 H   0  0  0  0  0  0  0  0  0  0  0  0
    0.9497    1.3885    1.4816 H   0  0  0  0  0  0  0  0  0  0  0  0
   -0.3984   -1.6705    1.4709 H   0  0  0  0  0  0  0  0  0  0  0  0
    0.3869   -2.2799    0.0046 H   0  0  0  0  0  0  0  0  0  0  0  0
   -1.9497   -2.2650   -0.6190 H   0  0  0  0  0  0  0  0  0  0  0  0
   -3.0073   -0.1695   -1.1800 H   0  0  0  0  0  0  0  0  0  0  0  0
   -1.7907    1.9639   -0.6917 H   0  0  0  0  0  0  0  0  0  0  0  0
   -2.1570    0.5517    1.5516 H   0  0  0  0  0  0  0  0  0  0  0  0
    0.6120    1.8201   -0.4557 H   0  0  0  0  0  0  0  0  0  0  0  0
   -0.2508    1.1790   -2.4680 H   0  0  0  0  0  0  0  0  0  0  0  0
  1  2  1  0
  2  3  1  0
  3  4  1  1
  3  5  1  0
  5  6  1  0
  6  7  2  0
  7  8  1  0
  8  9  1  0
  8 10  1  0
 10 11  1  0
 10  3  1  0
  1 12  1  0
  2 13  1  0
  2 14  1  0
  4 15  1  0
  5 16  1  0
  5 17  1  0
  6 18  1  0
  7 19  1  0
  8 20  1  6
  9 21  1  0
 10 22  1  6
 11 23  1  0
M  END
$$$$

     RDKit          3D

 23 23  0  0  0  0  0  0  0  0999 V2000
   -2.8375    0.6837    0.1534 O   0  0  0  0  0  0  0  0  0  0  0  0
   -1.8307   -0.0655   -0.4007 C   0  0  0  0  0  0  0  0  0  0  0  0
   -0.6502   -0.2496    0.5190 C   0  0  2  0  0  0  0  0  0  0  0  0
   -1.1102   -0.8987    1.6663 O   0  0  0  0  0  0  0  0  0  0  0  0
   -0.1316    1.0909    0.9543 C   0  0  0  0  0  0  0  0  0  0  0  0
    0.8189    1.7018    0.0287 C   0  0  0  0  0  0  0  0  0  0  0  0
    1.7365    0.9288   -0.5333 C   0  0  0  0  0  0  0  0  0  0  0  0
    1.7499   -0.4959   -0.1975 C   0  0  1  0  0  0  0  0  0  0  0  0
    2.3897   -0.6381    1.0483 O   0  0  0  0  0  0  0  0  0  0  0  0
    0.3921   -1.1261   -0.1070 C   0  0  2  0  0  0  0  0  0  0  0  0
   -0.0164   -1.4317   -1.4054 O   0  0  0  0  0  0  0  0  0  0  0  0
   -3.7373    0.4570   -0.1558 H   0  0  0  0  0  0  0  0  0  0  0  0
   -1.4738    0.4419   -1.3346 H   0  0  0  0  0  0  0  0  0  0  0  0
   -2.2627   -1.0257   -0.7336 H   0  0  0  0  0  0  0  0  0  0  0  0
   -1.8454   -0.3607    2.1027 H   0  0  0  0  0  0  0  0  0  0  0  0
   -1.0083    1.7520    1.0922 H   0  0  0  0  0  0  0  0  0  0  0  0
    0.3912    0.9697    1.9468 H   0  0  0  0  0  0  0  0  0  0  0  0
    0.7488    2.7730   -0.1743 H   0  0  0  0  0  0  0  0  0  0  0  0
    2.4638    1.3300   -1.2252 H   0  0  0  0  0  0  0  0  0  0  0  0
    2.3740   -1.0441   -0.9206 H   0  0  0  0  0  0  0  0  0  0  0  0
    2.6958   -1.5723    1.1375 H   0  0  0  0  0  0  0  0  0  0  0  0
    0.5112   -2.0932    0.4250 H   0  0  0  0  0  0  0  0  0  0  0  0
    0.6323   -1.1272   -2.0904 H   0  0  0  0  0  0  0  0  0  0  0  0
  1  2  1  0
  2  3  1  0
  3  4  1  1
  3  5  1  0
  5  6  1  0
  6  7  2  0
  7  8  1  0
  8  9  1  0
  8 10  1  0
 10 11  1  0
 10  3  1  0
  1 12  1  0
  2 13  1  0
  2 14  1  0
  4 15  1  0
  5 16  1  0
  5 17  1  0
  6 18  1  0
  7 19  1  0
  8 20  1  6
  9 21  1  0
 10 22  1  1
 11 23  1  0
M  END
$$$$

     RDKit          3D

 23 23  0  0  0  0  0  0  0  0999 V2000
    1.3345   -0.4406    1.6635 O   0  0  0  0  0  0  0  0  0  0  0  0
    1.8435   -0.3883    0.3789 C   0  0  0  0  0  0  0  0  0  0  0  0
    0.7638    0.0802   -0.6004 C   0  0  2  0  0  0  0  0  0  0  0  0
    1.4026    0.0914   -1.8639 O   0  0  0  0  0  0  0  0  0  0  0  0
    0.3860    1.4777   -0.2869 C   0  0  0  0  0  0  0  0  0  0  0  0
   -0.6851    1.6229    0.7152 C   0  0  0  0  0  0  0  0  0  0  0  0
   -1.5358    0.6462    0.8854 C   0  0  0  0  0  0  0  0  0  0  0  0
   -1.5346   -0.6341    0.1508 C   0  0  1  0  0  0  0  0  0  0  0  0
   -2.7046   -0.6367   -0.6459 O   0  0  0  0  0  0  0  0  0  0  0  0
   -0.3274   -0.9075   -0.6455 C   0  0  2  0  0  0  0  0  0  0  0  0
    0.2010   -2.1574   -0.2406 O   0  0  0  0  0  0  0  0  0  0  0  0
    2.0089   -0.8812    2.2393 H   0  0  0  0  0  0  0  0  0  0  0  0
    2.6604    0.3509    0.3472 H   0  0  0  0  0  0  0  0  0  0  0  0
    2.1859   -1.3917    0.0597 H   0  0  0  0  0  0  0  0  0  0  0  0
    0.9876    0.8000   -2.4292 H   0  0  0  0  0  0  0  0  0  0  0  0
    1.2928    1.9973    0.1409 H   0  0  0  0  0  0  0  0  0  0  0  0
    0.1539    2.0224   -1.2373 H   0  0  0  0  0  0  0  0  0  0  0  0
   -0.7819    2.5248    1.3149 H   0  0  0  0  0  0  0  0  0  0  0  0
   -2.3238    0.7765    1.6360 H   0  0  0  0  0  0  0  0  0  0  0  0
   -1.7304   -1.4395    0.9189 H   0  0  0  0  0  0  0  0  0  0  0  0
   -2.6520    0.0867   -1.3281 H   0  0  0  0  0  0  0  0  0  0  0  0
   -0.6440   -1.0843   -1.7157 H   0  0  0  0  0  0  0  0  0  0  0  0
   -0.3011   -2.5159    0.5428 H   0  0  0  0  0  0  0  0  0  0  0  0
  1  2  1  0
  2  3  1  0
  3  4  1  6
  3  5  1  0
  5  6  1  0
  6  7  2  0
  7  8  1  0
  8  9  1  0
  8 10  1  0
 10 11  1  0
 10  3  1  0
  1 12  1  0
  2 13  1  0
  2 14  1  0
  4 15  1  0
  5 16  1  0
  5 17  1  0
  6 18  1  0
  7 19  1  0
  8 20  1  1
  9 21  1  0
 10 22  1  6
 11 23  1  0
M  END
$$$$

     RDKit          3D

 23 23  0  0  0  0  0  0  0  0999 V2000
    2.8120   -0.0915   -0.9856 O   0  0  0  0  0  0  0  0  0  0  0  0
    2.0157   -0.5051    0.0742 C   0  0  0  0  0  0  0  0  0  0  0  0
    0.5718   -0.1449   -0.2136 C   0  0  2  0  0  0  0  0  0  0  0  0
    0.2323   -0.8241   -1.4064 O   0  0  0  0  0  0  0  0  0  0  0  0
    0.3975    1.3116   -0.4664 C   0  0  0  0  0  0  0  0  0  0  0  0
   -0.9562    1.8096   -0.1460 C   0  0  0  0  0  0  0  0  0  0  0  0
   -1.9486    1.0103    0.2212 C   0  0  0  0  0  0  0  0  0  0  0  0
   -1.7625   -0.4433    0.3346 C   0  0  1  0  0  0  0  0  0  0  0  0
   -1.9044   -1.1117   -0.8563 O   0  0  0  0  0  0  0  0  0  0  0  0
   -0.3552   -0.6890    0.8506 C   0  0  2  0  0  0  0  0  0  0  0  0
   -0.1672   -0.0875    2.0813 O   0  0  0  0  0  0  0  0  0  0  0  0
    2.9000   -0.8023   -1.6720 H   0  0  0  0  0  0  0  0  0  0  0  0
    2.1507   -1.5845    0.1871 H   0  0  0  0  0  0  0  0  0  0  0  0
    2.3568   -0.0197    1.0202 H   0  0  0  0  0  0  0  0  0  0  0  0
    0.5252   -1.7607   -1.3417 H   0  0  0  0  0  0  0  0  0  0  0  0
    1.1409    1.8866    0.1584 H   0  0  0  0  0  0  0  0  0  0  0  0
    0.6620    1.5347   -1.5383 H   0  0  0  0  0  0  0  0  0  0  0  0
   -1.1207    2.9052   -0.2245 H   0  0  0  0  0  0  0  0  0  0  0  0
   -2.9283    1.4679    0.4419 H   0  0  0  0  0  0  0  0  0  0  0  0
   -2.5286   -0.8334    1.0360 H   0  0  0  0  0  0  0  0  0  0  0  0
   -2.2539   -2.0304   -0.7232 H   0  0  0  0  0  0  0  0  0  0  0  0
   -0.1579   -1.7668    0.9584 H   0  0  0  0  0  0  0  0  0  0  0  0
    0.3188    0.7688    2.0414 H   0  0  0  0  0  0  0  0  0  0  0  0
  1  2  1  0
  2  3  1  0
  3  4  1  6
  3  5  1  0
  5  6  1  0
  6  7  2  0
  7  8  1  0
  8  9  1  0
  8 10  1  0
 10 11  1  0
 10  3  1  0
  1 12  1  0
  2 13  1  0
  2 14  1  0
  4 15  1  0
  5 16  1  0
  5 17  1  0
  6 18  1  0
  7 19  1  0
  8 20  1  1
  9 21  1  0
 10 22  1  1
 11 23  1  0
M  END
$$$$
