
     RDKit          3D

 23 23  0  0  0  0  0  0  0  0999 V2000
   -2.6286    1.0862    0.2734 C   0  0  0  0  0  0  0  0  0  0  0  0
   -1.9879   -0.4335    0.8694 S   0  0  0  0  0  6  0  0  0  0  0  0
   -1.8844   -0.4060    2.3593 O   0  0  0  0  0  0  0  0  0  0  0  0
   -2.9741   -1.5181    0.5047 O   0  0  0  0  0  0  0  0  0  0  0  0
   -0.4445   -0.8686    0.1701 C   0  0  1  0  0  0  0  0  0  0  0  0
   -0.4459   -0.9099   -1.3321 C   0  0  0  0  0  0  0  0  0  0  0  0
    0.9738   -1.0284   -1.6175 N   0  0  0  0  0  0  0  0  0  0  0  0
    1.6792   -0.3329   -0.5791 C   0  0  1  0  0  0  0  0  0  0  0  0
    2.5233    0.7414   -1.0972 C   0  0  0  0  0  0  0  0  0  0  0  0
    2.6109    1.0135   -2.3185 O   0  0  0  0  0  0  0  0  0  0  0  0
    3.2668    1.5030   -0.2098 O   0  0  0  0  0  0  0  0  0  0  0  0
    0.6377    0.1641    0.4115 C   0  0  0  0  0  0  0  0  0  0  0  0
   -3.3215    0.9545   -0.6023 H   0  0  0  0  0  0  0  0  0  0  0  0
   -3.2741    1.5229    1.0895 H   0  0  0  0  0  0  0  0  0  0  0  0
   -1.8745    1.8436    0.0477 H   0  0  0  0  0  0  0  0  0  0  0  0
   -0.0508   -1.8297    0.5543 H   0  0  0  0  0  0  0  0  0  0  0  0
   -1.0160   -1.7450   -1.7494 H   0  0  0  0  0  0  0  0  0  0  0  0
   -0.7625    0.0734   -1.7392 H   0  0  0  0  0  0  0  0  0  0  0  0
    1.2010   -2.0469   -1.5339 H   0  0  0  0  0  0  0  0  0  0  0  0
    2.3414   -1.0249    0.0153 H   0  0  0  0  0  0  0  0  0  0  0  0
    4.1671    1.9132   -0.4585 H   0  0  0  0  0  0  0  0  0  0  0  0
    0.2622    1.1455    0.0530 H   0  0  0  0  0  0  0  0  0  0  0  0
    1.0012    0.1828    1.4441 H   0  0  0  0  0  0  0  0  0  0  0  0
  1  2  1  0
  2  3  2  0
  2  4  2  0
  2  5  1  0
  5  6  1  0
  6  7  1  0
  7  8  1  0
  8  9  1  0
  9 10  2  0
  9 11  1  0
  8 12  1  0
 12  5  1  0
  1 13  1  0
  1 14  1  0
  1 15  1  0
  5 16  1  1
  6 17  1  0
  6 18  1  0
  7 19  1  0
  8 20  1  1
 11 21  1  0
 12 22  1  0
 12 23  1  0
M  END
$$$$

     RDKit          3D

 23 23  0  0  0  0  0  0  0  0999 V2000
   -3.1544    0.6425    0.7318 C   0  0  0  0  0  0  0  0  0  0  0  0
   -1.3840    0.7425    0.9455 S   0  0  0  0  0  6  0  0  0  0  0  0
   -1.0306    2.1365    1.3069 O   0  0  0  0  0  0  0  0  0  0  0  0
   -1.1021   -0.1989    2.1233 O   0  0  0  0  0  0  0  0  0  0  0  0
   -0.5823    0.1307   -0.4971 C   0  0  1  0  0  0  0  0  0  0  0  0
    0.5623    1.0887   -0.9046 C   0  0  0  0  0  0  0  0  0  0  0  0
    1.4114    0.1459   -1.5672 N   0  0  0  0  0  0  0  0  0  0  0  0
    1.5673   -0.9157   -0.6151 C   0  0  1  0  0  0  0  0  0  0  0  0
    2.2050   -0.3635    0.6187 C   0  0  0  0  0  0  0  0  0  0  0  0
    1.8757   -0.4088    1.7496 O   0  0  0  0  0  0  0  0  0  0  0  0
    3.4457    0.2879    0.3176 O   0  0  0  0  0  0  0  0  0  0  0  0
    0.0734   -1.1897   -0.3381 C   0  0  0  0  0  0  0  0  0  0  0  0
   -3.4691    1.2025   -0.1813 H   0  0  0  0  0  0  0  0  0  0  0  0
   -3.5974    1.0896    1.6576 H   0  0  0  0  0  0  0  0  0  0  0  0
   -3.4479   -0.3953    0.6108 H   0  0  0  0  0  0  0  0  0  0  0  0
   -1.2884    0.2453   -1.3623 H   0  0  0  0  0  0  0  0  0  0  0  0
    0.1930    1.8785   -1.5848 H   0  0  0  0  0  0  0  0  0  0  0  0
    1.1105    1.4889   -0.0454 H   0  0  0  0  0  0  0  0  0  0  0  0
    1.0271   -0.2165   -2.4781 H   0  0  0  0  0  0  0  0  0  0  0  0
    2.0884   -1.7997   -0.9266 H   0  0  0  0  0  0  0  0  0  0  0  0
    3.8894    0.9162    0.9789 H   0  0  0  0  0  0  0  0  0  0  0  0
   -0.2738   -1.8339   -1.1644 H   0  0  0  0  0  0  0  0  0  0  0  0
   -0.1192   -1.6591    0.6243 H   0  0  0  0  0  0  0  0  0  0  0  0
  1  2  1  0
  2  3  2  0
  2  4  2  0
  2  5  1  0
  5  6  1  0
  6  7  1  0
  7  8  1  0
  8  9  1  0
  9 10  2  0
  9 11  1  0
  8 12  1  0
 12  5  1  0
  1 13  1  0
  1 14  1  0
  1 15  1  0
  5 16  1  6
  6 17  1  0
  6 18  1  0
  7 19  1  0
  8 20  1  6
 11 21  1  0
 12 22  1  0
 12 23  1  0
M  END
$$$$

     RDKit          3D

 23 23  0  0  0  0  0  0  0  0999 V2000
   -2.3720   -1.1658   -1.7319 C   0  0  0  0  0  0  0  0  0  0  0  0
   -1.4551   -1.5999   -0.2951 S   0  0  0  0  0  6  0  0  0  0  0  0
   -2.4290   -2.1693    0.7118 O   0  0  0  0  0  0  0  0  0  0  0  0
   -0.4253   -2.6541   -0.5423 O   0  0  0  0  0  0  0  0  0  0  0  0
   -0.7542   -0.1490    0.4196 C   0  0  1  0  0  0  0  0  0  0  0  0
    0.0879   -0.4627    1.6401 C   0  0  0  0  0  0  0  0  0  0  0  0
    0.7844    0.7976    1.8305 N   0  0  0  0  0  0  0  0  0  0  0  0
    1.0354    1.3559    0.5391 C   0  0  1  0  0  0  0  0  0  0  0  0
    2.4764    1.2887    0.1942 C   0  0  0  0  0  0  0  0  0  0  0  0
    3.3471    0.7978    0.9581 O   0  0  0  0  0  0  0  0  0  0  0  0
    2.9128    1.7844   -1.0246 O   0  0  0  0  0  0  0  0  0  0  0  0
    0.2857    0.4920   -0.4714 C   0  0  0  0  0  0  0  0  0  0  0  0
   -3.0341   -2.0075   -2.0690 H   0  0  0  0  0  0  0  0  0  0  0  0
   -1.7172   -0.9427   -2.6114 H   0  0  0  0  0  0  0  0  0  0  0  0
   -2.9488   -0.2532   -1.5098 H   0  0  0  0  0  0  0  0  0  0  0  0
   -1.5127    0.5915    0.7194 H   0  0  0  0  0  0  0  0  0  0  0  0
    0.8605   -1.2214    1.4101 H   0  0  0  0  0  0  0  0  0  0  0  0
   -0.5254   -0.7319    2.5155 H   0  0  0  0  0  0  0  0  0  0  0  0
    0.0930    1.4286    2.3322 H   0  0  0  0  0  0  0  0  0  0  0  0
    0.6720    2.4203    0.4528 H   0  0  0  0  0  0  0  0  0  0  0  0
    3.8410    1.5427   -1.3466 H   0  0  0  0  0  0  0  0  0  0  0  0
   -0.1545    1.1522   -1.2426 H   0  0  0  0  0  0  0  0  0  0  0  0
    0.9321   -0.2942   -0.8787 H   0  0  0  0  0  0  0  0  0  0  0  0
  1  2  1  0
  2  3  2  0
  2  4  2  0
  2  5  1  0
  5  6  1  0
  6  7  1  0
  7  8  1  0
  8  9  1  0
  9 10  2  0
  9 11  1  0
  8 12  1  0
 12  5  1  0
  1 13  1  0
  1 14  1  0
  1 15  1  0
  5 16  1  1
  6 17  1  0
  6 18  1  0
  7 19  1  0
  8 20  1  1
 11 21  1  0
 12 22  1  0
 12 23  1  0
M  END
$$$$

     RDKit          3D

 23 23  0  0  0  0  0  0  0  0999 V2000
   -2.6544    0.9748   -0.9751 C   0  0  0  0  0  0  0  0  0  0  0  0
   -2.3166   -0.6089   -0.2195 S   0  0  0  0  0  6  0  0  0  0  0  0
   -3.2312   -0.7380    0.9713 O   0  0  0  0  0  0  0  0  0  0  0  0
   -2.6180   -1.7056   -1.2009 O   0  0  0  0  0  0  0  0  0  0  0  0
   -0.6594   -0.6464    0.3611 C   0  0  1  0  0  0  0  0  0  0  0  0
    0.2212   -1.5951   -0.4402 C   0  0  0  0  0  0  0  0  0  0  0  0
    1.5780   -1.1228   -0.2076 N   0  0  0  0  0  0  0  0  0  0  0  0
    1.5280    0.1118    0.4924 C   0  0  1  0  0  0  0  0  0  0  0  0
    2.5354    1.1770    0.0710 C   0  0  0  0  0  0  0  0  0  0  0  0
    2.2905    2.1918   -0.2557 O   0  0  0  0  0  0  0  0  0  0  0  0
    3.8224    0.6336    0.2400 O   0  0  0  0  0  0  0  0  0  0  0  0
    0.1059    0.6488    0.1135 C   0  0  0  0  0  0  0  0  0  0  0  0
   -2.3895    1.7329   -0.1984 H   0  0  0  0  0  0  0  0  0  0  0  0
   -3.7265    1.0304   -1.2192 H   0  0  0  0  0  0  0  0  0  0  0  0
   -1.9854    1.1090   -1.8295 H   0  0  0  0  0  0  0  0  0  0  0  0
   -0.5659   -0.8942    1.4252 H   0  0  0  0  0  0  0  0  0  0  0  0
    0.0098   -1.4499   -1.5341 H   0  0  0  0  0  0  0  0  0  0  0  0
    0.0591   -2.6505   -0.1665 H   0  0  0  0  0  0  0  0  0  0  0  0
    1.9345   -1.8524    0.5304 H   0  0  0  0  0  0  0  0  0  0  0  0
    1.5417    0.0244    1.5643 H   0  0  0  0  0  0  0  0  0  0  0  0
    4.6122    1.3034    0.1799 H   0  0  0  0  0  0  0  0  0  0  0  0
   -0.2160    1.4501    0.7616 H   0  0  0  0  0  0  0  0  0  0  0  0
    0.1242    0.8759   -0.9564 H   0  0  0  0  0  0  0  0  0  0  0  0
  1  2  1  0
  2  3  2  0
  2  4  2  0
  2  5  1  0
  5  6  1  0
  6  7  1  0
  7  8  1  0
  8  9  1  0
  9 10  2  0
  9 11  1  0
  8 12  1  0
 12  5  1  0
  1 13  1  0
  1 14  1  0
  1 15  1  0
  5 16  1  1
  6 17  1  0
  6 18  1  0
  7 19  1  0
  8 20  1  1
 11 21  1  0
 12 22  1  0
 12 23  1  0
M  END
$$$$

     RDKit          3D

 23 23  0  0  0  0  0  0  0  0999 V2000
    3.1758    0.8814    0.5873 C   0  0  0  0  0  0  0  0  0  0  0  0
    2.1944   -0.6114    0.3637 S   0  0  0  0  0  6  0  0  0  0  0  0
    2.9443   -1.5609   -0.4760 O   0  0  0  0  0  0  0  0  0  0  0  0
    1.9682   -1.1695    1.7546 O   0  0  0  0  0  0  0  0  0  0  0  0
    0.6788   -0.1190   -0.3300 C   0  0  1  0  0  0  0  0  0  0  0  0
   -0.1261   -1.3000   -0.8980 C   0  0  0  0  0  0  0  0  0  0  0  0
   -1.4563   -0.6816   -1.1736 N   0  0  0  0  0  0  0  0  0  0  0  0
   -1.5136    0.4619   -0.2581 C   0  0  1  0  0  0  0  0  0  0  0  0
   -2.8368    0.7452    0.1962 C   0  0  0  0  0  0  0  0  0  0  0  0
   -3.2434    1.9610    0.1082 O   0  0  0  0  0  0  0  0  0  0  0  0
   -3.7187   -0.1572    0.6459 O   0  0  0  0  0  0  0  0  0  0  0  0
   -0.3471    0.3998    0.6378 C   0  0  0  0  0  0  0  0  0  0  0  0
    4.1182    0.5540    1.0654 H   0  0  0  0  0  0  0  0  0  0  0  0
    2.6676    1.6413    1.1681 H   0  0  0  0  0  0  0  0  0  0  0  0
    3.4279    1.2283   -0.4618 H   0  0  0  0  0  0  0  0  0  0  0  0
    0.7886    0.5655   -1.1940 H   0  0  0  0  0  0  0  0  0  0  0  0
    0.2600   -1.6945   -1.8293 H   0  0  0  0  0  0  0  0  0  0  0  0
   -0.2729   -2.0225   -0.0851 H   0  0  0  0  0  0  0  0  0  0  0  0
   -2.1917   -1.3952   -0.8280 H   0  0  0  0  0  0  0  0  0  0  0  0
   -1.1939    1.3163   -1.0312 H   0  0  0  0  0  0  0  0  0  0  0  0
   -4.7307   -0.0772    0.4322 H   0  0  0  0  0  0  0  0  0  0  0  0
   -0.0471    1.3888    1.0564 H   0  0  0  0  0  0  0  0  0  0  0  0
   -0.5454   -0.3544    1.4389 H   0  0  0  0  0  0  0  0  0  0  0  0
  1  2  1  0
  2  3  2  0
  2  4  2  0
  2  5  1  0
  5  6  1  0
  6  7  1  0
  7  8  1  0
  8  9  1  0
  9 10  2  0
  9 11  1  0
  8 12  1  0
 12  5  1  0
  1 13  1  0
  1 14  1  0
  1 15  1  0
  5 16  1  6
  6 17  1  0
  6 18  1  0
  7 19  1  0
  8 20  1  6
 11 21  1  0
 12 22  1  0
 12 23  1  0
M  END
$$$$

     RDKit          3D

 23 23  0  0  0  0  0  0  0  0999 V2000
   -2.8204    1.5226    0.0650 C   0  0  0  0  0  0  0  0  0  0  0  0
   -2.1595   -0.0258    0.5885 S   0  0  0  0  0  6  0  0  0  0  0  0
   -2.7926   -0.3812    1.9076 O   0  0  0  0  0  0  0  0  0  0  0  0
   -2.5035   -1.0739   -0.4197 O   0  0  0  0  0  0  0  0  0  0  0  0
   -0.4117    0.0454    0.8466 C   0  0  1  0  0  0  0  0  0  0  0  0
    0.1890   -1.3046    1.1139 C   0  0  0  0  0  0  0  0  0  0  0  0
    1.4730   -1.3418    0.4467 N   0  0  0  0  0  0  0  0  0  0  0  0
    1.7268   -0.0100   -0.0487 C   0  0  1  0  0  0  0  0  0  0  0  0
    2.6298   -0.0067   -1.2218 C   0  0  0  0  0  0  0  0  0  0  0  0
    3.0983   -1.0453   -1.7010 O   0  0  0  0  0  0  0  0  0  0  0  0
    2.9549    1.2140   -1.7958 O   0  0  0  0  0  0  0  0  0  0  0  0
    0.3216    0.4414   -0.4310 C   0  0  0  0  0  0  0  0  0  0  0  0
   -2.9380    2.2438    0.9134 H   0  0  0  0  0  0  0  0  0  0  0  0
   -3.8509    1.3458   -0.3330 H   0  0  0  0  0  0  0  0  0  0  0  0
   -2.1981    1.9971   -0.7356 H   0  0  0  0  0  0  0  0  0  0  0  0
   -0.1246    0.7798    1.6174 H   0  0  0  0  0  0  0  0  0  0  0  0
   -0.5113   -2.0927    0.7240 H   0  0  0  0  0  0  0  0  0  0  0  0
    0.3310   -1.4699    2.2160 H   0  0  0  0  0  0  0  0  0  0  0  0
    1.3532   -1.9547   -0.4082 H   0  0  0  0  0  0  0  0  0  0  0  0
    2.1134    0.6699    0.7368 H   0  0  0  0  0  0  0  0  0  0  0  0
    3.8863    1.3636   -2.2138 H   0  0  0  0  0  0  0  0  0  0  0  0
   -0.0320   -0.1579   -1.2802 H   0  0  0  0  0  0  0  0  0  0  0  0
    0.2653    1.5322   -0.5872 H   0  0  0  0  0  0  0  0  0  0  0  0
  1  2  1  0
  2  3  2  0
  2  4  2  0
  2  5  1  0
  5  6  1  0
  6  7  1  0
  7  8  1  0
  8  9  1  0
  9 10  2  0
  9 11  1  0
  8 12  1  0
 12  5  1  0
  1 13  1  0
  1 14  1  0
  1 15  1  0
  5 16  1  1
  6 17  1  0
  6 18  1  0
  7 19  1  0
  8 20  1  1
 11 21  1  0
 12 22  1  0
 12 23  1  0
M  END
$$$$

     RDKit          3D

 23 23  0  0  0  0  0  0  0  0999 V2000
    3.0285   -0.0104    0.8056 C   0  0  0  0  0  0  0  0  0  0  0  0
    1.7681   -0.8155   -0.1699 S   0  0  0  0  0  6  0  0  0  0  0  0
    2.4603   -1.4530   -1.3405 O   0  0  0  0  0  0  0  0  0  0  0  0
    1.0885   -1.8886    0.6277 O   0  0  0  0  0  0  0  0  0  0  0  0
    0.5859    0.3778   -0.7677 C   0  0  1  0  0  0  0  0  0  0  0  0
   -0.4822   -0.4186   -1.5190 C   0  0  0  0  0  0  0  0  0  0  0  0
   -1.6998    0.3599   -1.3934 N   0  0  0  0  0  0  0  0  0  0  0  0
   -1.6680    0.8618   -0.0551 C   0  0  1  0  0  0  0  0  0  0  0  0
   -2.3436   -0.0932    0.8428 C   0  0  0  0  0  0  0  0  0  0  0  0
   -2.8367   -1.1558    0.3930 O   0  0  0  0  0  0  0  0  0  0  0  0
   -2.4623    0.1401    2.2131 O   0  0  0  0  0  0  0  0  0  0  0  0
   -0.2111    0.9806    0.3444 C   0  0  0  0  0  0  0  0  0  0  0  0
    3.7388   -0.7676    1.1491 H   0  0  0  0  0  0  0  0  0  0  0  0
    3.4771    0.7916    0.1939 H   0  0  0  0  0  0  0  0  0  0  0  0
    2.5718    0.4423    1.7200 H   0  0  0  0  0  0  0  0  0  0  0  0
    1.0665    1.1304   -1.3912 H   0  0  0  0  0  0  0  0  0  0  0  0
   -0.6264   -1.3559   -0.9077 H   0  0  0  0  0  0  0  0  0  0  0  0
   -0.1959   -0.6244   -2.5502 H   0  0  0  0  0  0  0  0  0  0  0  0
   -2.4992   -0.2955   -1.5385 H   0  0  0  0  0  0  0  0  0  0  0  0
   -2.1775    1.8469   -0.0232 H   0  0  0  0  0  0  0  0  0  0  0  0
   -2.5505   -0.6155    2.8939 H   0  0  0  0  0  0  0  0  0  0  0  0
   -0.0462    0.5013    1.3195 H   0  0  0  0  0  0  0  0  0  0  0  0
    0.0142    2.0613    0.4617 H   0  0  0  0  0  0  0  0  0  0  0  0
  1  2  1  0
  2  3  2  0
  2  4  2  0
  2  5  1  0
  5  6  1  0
  6  7  1  0
  7  8  1  0
  8  9  1  0
  9 10  2  0
  9 11  1  0
  8 12  1  0
 12  5  1  0
  1 13  1  0
  1 14  1  0
  1 15  1  0
  5 16  1  6
  6 17  1  0
  6 18  1  0
  7 19  1  0
  8 20  1  6
 11 21  1  0
 12 22  1  0
 12 23  1  0
M  END
$$$$

     RDKit          3D

 23 23  0  0  0  0  0  0  0  0999 V2000
    2.7929    0.6836   -0.2137 C   0  0  0  0  0  0  0  0  0  0  0  0
    1.6084    0.0540    0.9483 S   0  0  0  0  0  6  0  0  0  0  0  0
    2.3441   -0.6329    2.0615 O   0  0  0  0  0  0  0  0  0  0  0  0
    0.8721    1.2074    1.5243 O   0  0  0  0  0  0  0  0  0  0  0  0
    0.5353   -1.0979    0.1295 C   0  0  1  0  0  0  0  0  0  0  0  0
   -0.5155   -1.6422    1.0695 C   0  0  0  0  0  0  0  0  0  0  0  0
   -1.3616   -0.4589    1.2364 N   0  0  0  0  0  0  0  0  0  0  0  0
   -1.5783   -0.0632   -0.1573 C   0  0  1  0  0  0  0  0  0  0  0  0
   -1.9389    1.3665   -0.2550 C   0  0  0  0  0  0  0  0  0  0  0  0
   -2.0181    2.0419    0.7922 O   0  0  0  0  0  0  0  0  0  0  0  0
   -2.1809    1.9315   -1.4888 O   0  0  0  0  0  0  0  0  0  0  0  0
   -0.3362   -0.4244   -0.9013 C   0  0  0  0  0  0  0  0  0  0  0  0
    2.4045    1.5581   -0.7664 H   0  0  0  0  0  0  0  0  0  0  0  0
    3.7343    1.0207    0.2903 H   0  0  0  0  0  0  0  0  0  0  0  0
    3.0902   -0.0719   -0.9641 H   0  0  0  0  0  0  0  0  0  0  0  0
    1.1233   -1.9300   -0.2767 H   0  0  0  0  0  0  0  0  0  0  0  0
   -1.1156   -2.3838    0.5332 H   0  0  0  0  0  0  0  0  0  0  0  0
   -0.0969   -1.9922    2.0281 H   0  0  0  0  0  0  0  0  0  0  0  0
   -2.2870   -0.6903    1.6312 H   0  0  0  0  0  0  0  0  0  0  0  0
   -2.4767   -0.6332   -0.5377 H   0  0  0  0  0  0  0  0  0  0  0  0
   -2.1554    2.9475   -1.5504 H   0  0  0  0  0  0  0  0  0  0  0  0
   -0.6051   -1.2233   -1.6473 H   0  0  0  0  0  0  0  0  0  0  0  0
    0.1611    0.4331   -1.3877 H   0  0  0  0  0  0  0  0  0  0  0  0
  1  2  1  0
  2  3  2  0
  2  4  2  0
  2  5  1  0
  5  6  1  0
  6  7  1  0
  7  8  1  0
  8  9  1  0
  9 10  2  0
  9 11  1  0
  8 12  1  0
 12  5  1  0
  1 13  1  0
  1 14  1  0
  1 15  1  0
  5 16  1  6
  6 17  1  0
  6 18  1  0
  7 19  1  0
  8 20  1  6
 11 21  1  0
 12 22  1  0
 12 23  1  0
M  END
$$$$
