
     RDKit          3D

 19 19  0  0  0  0  0  0  0  0999 V2000
   -3.0206   -0.0586    0.4285 N   0  0  0  0  0  0  0  0  0  0  0  0
   -1.5955   -0.4224    0.4292 C   0  0  0  0  0  0  0  0  0  0  0  0
   -0.8455    0.7236   -0.1438 C   0  0  0  0  0  0  0  0  0  0  0  0
    0.6207    0.5623   -0.2343 C   0  0  1  0  0  0  0  0  0  0  0  0
    1.2735    0.3426    1.0415 N   0  0  0  0  0  0  0  0  0  0  0  0
    2.5593   -0.1892    0.6891 C   0  0  0  0  0  0  0  0  0  0  0  0
    3.5924   -0.1411    1.4407 O   0  0  0  0  0  0  0  0  0  0  0  0
    2.4655   -0.7634   -0.6195 N   0  0  0  0  0  0  0  0  0  0  0  0
    1.1013   -0.5598   -1.0304 C   0  0  0  0  0  0  0  0  0  0  0  0
    0.5212   -1.2616   -1.9114 O   0  0  0  0  0  0  0  0  0  0  0  0
   -3.1595    0.9453    0.2103 H   0  0  0  0  0  0  0  0  0  0  0  0
   -3.5518   -0.5953   -0.2875 H   0  0  0  0  0  0  0  0  0  0  0  0
   -1.5217   -1.3550   -0.1375 H   0  0  0  0  0  0  0  0  0  0  0  0
   -1.3430   -0.5693    1.5127 H   0  0  0  0  0  0  0  0  0  0  0  0
   -1.2472    0.9351   -1.1544 H   0  0  0  0  0  0  0  0  0  0  0  0
   -1.0638    1.6235    0.4669 H   0  0  0  0  0  0  0  0  0  0  0  0
    1.0524    1.4980   -0.6481 H   0  0  0  0  0  0  0  0  0  0  0  0
    0.9242    0.5173    2.0122 H   0  0  0  0  0  0  0  0  0  0  0  0
    3.2382   -1.2319   -1.1553 H   0  0  0  0  0  0  0  0  0  0  0  0
  1  2  1  0
  2  3  1  0
  3  4  1  0
  4  5  1  0
  5  6  1  0
  6  7  2  0
  6  8  1  0
  8  9  1  0
  9 10  2  0
  9  4  1  0
  1 11  1  0
  1 12  1  0
  2 13  1  0
  2 14  1  0
  3 15  1  0
  3 16  1  0
  4 17  1  6
  5 18  1  0
  8 19  1  0
M  END
$$$$

     RDKit          3D

 19 19  0  0  0  0  0  0  0  0999 V2000
    2.5140   -0.0182    0.7984 N   0  0  0  0  0  0  0  0  0  0  0  0
    1.7924   -0.6805   -0.2554 C   0  0  0  0  0  0  0  0  0  0  0  0
    0.6255    0.1874   -0.6529 C   0  0  0  0  0  0  0  0  0  0  0  0
   -0.3184    0.4322    0.5022 C   0  0  1  0  0  0  0  0  0  0  0  0
   -1.3905    1.2696    0.0083 N   0  0  0  0  0  0  0  0  0  0  0  0
   -2.5258    0.4517   -0.2147 C   0  0  0  0  0  0  0  0  0  0  0  0
   -3.5894    0.7722   -0.8072 O   0  0  0  0  0  0  0  0  0  0  0  0
   -2.2781   -0.8312    0.3498 N   0  0  0  0  0  0  0  0  0  0  0  0
   -0.9882   -0.8141    0.9252 C   0  0  0  0  0  0  0  0  0  0  0  0
   -0.4896   -1.7028    1.6698 O   0  0  0  0  0  0  0  0  0  0  0  0
    3.5485   -0.0893    0.6879 H   0  0  0  0  0  0  0  0  0  0  0  0
    2.1910    0.9658    0.9132 H   0  0  0  0  0  0  0  0  0  0  0  0
    2.4523   -0.7571   -1.1514 H   0  0  0  0  0  0  0  0  0  0  0  0
    1.4711   -1.6859    0.0874 H   0  0  0  0  0  0  0  0  0  0  0  0
    1.0265    1.1526   -1.0108 H   0  0  0  0  0  0  0  0  0  0  0  0
    0.0498   -0.2835   -1.4641 H   0  0  0  0  0  0  0  0  0  0  0  0
    0.1585    0.9589    1.3381 H   0  0  0  0  0  0  0  0  0  0  0  0
   -1.2970    2.2913   -0.1414 H   0  0  0  0  0  0  0  0  0  0  0  0
   -2.9527   -1.6192    0.3238 H   0  0  0  0  0  0  0  0  0  0  0  0
  1  2  1  0
  2  3  1  0
  3  4  1  0
  4  5  1  0
  5  6  1  0
  6  7  2  0
  6  8  1  0
  8  9  1  0
  9 10  2  0
  9  4  1  0
  1 11  1  0
  1 12  1  0
  2 13  1  0
  2 14  1  0
  3 15  1  0
  3 16  1  0
  4 17  1  1
  5 18  1  0
  8 19  1  0
M  END
$$$$

     RDKit          3D

 19 19  0  0  0  0  0  0  0  0999 V2000
    3.1483   -0.2521    0.3385 N   0  0  0  0  0  0  0  0  0  0  0  0
    1.9143    0.4035   -0.0630 C   0  0  0  0  0  0  0  0  0  0  0  0
    0.7573   -0.5329    0.0299 C   0  0  0  0  0  0  0  0  0  0  0  0
   -0.5596   -0.0034   -0.3471 C   0  0  1  0  0  0  0  0  0  0  0  0
   -1.5605   -1.0467   -0.1963 N   0  0  0  0  0  0  0  0  0  0  0  0
   -2.7990   -0.3450   -0.1375 C   0  0  0  0  0  0  0  0  0  0  0  0
   -3.9392   -0.8477   -0.4051 O   0  0  0  0  0  0  0  0  0  0  0  0
   -2.5343    1.0097    0.2715 N   0  0  0  0  0  0  0  0  0  0  0  0
   -1.1203    1.0747    0.4470 C   0  0  0  0  0  0  0  0  0  0  0  0
   -0.5948    1.9557    1.1826 O   0  0  0  0  0  0  0  0  0  0  0  0
    3.0525   -1.2696    0.1353 H   0  0  0  0  0  0  0  0  0  0  0  0
    3.9594    0.1306   -0.1951 H   0  0  0  0  0  0  0  0  0  0  0  0
    2.0882    0.8370   -1.0422 H   0  0  0  0  0  0  0  0  0  0  0  0
    1.7623    1.2345    0.6872 H   0  0  0  0  0  0  0  0  0  0  0  0
    0.9806   -1.4111   -0.6139 H   0  0  0  0  0  0  0  0  0  0  0  0
    0.7066   -0.9317    1.0693 H   0  0  0  0  0  0  0  0  0  0  0  0
   -0.5958    0.2987   -1.4250 H   0  0  0  0  0  0  0  0  0  0  0  0
   -1.4165   -2.0792   -0.1421 H   0  0  0  0  0  0  0  0  0  0  0  0
   -3.2494    1.7750    0.4063 H   0  0  0  0  0  0  0  0  0  0  0  0
  1  2  1  0
  2  3  1  0
  3  4  1  0
  4  5  1  0
  5  6  1  0
  6  7  2  0
  6  8  1  0
  8  9  1  0
  9 10  2  0
  9  4  1  0
  1 11  1  0
  1 12  1  0
  2 13  1  0
  2 14  1  0
  3 15  1  0
  3 16  1  0
  4 17  1  6
  5 18  1  0
  8 19  1  0
M  END
$$$$

     RDKit          3D

 19 19  0  0  0  0  0  0  0  0999 V2000
   -2.5434    0.4515    0.3870 N   0  0  0  0  0  0  0  0  0  0  0  0
   -1.8044   -0.4568   -0.4904 C   0  0  0  0  0  0  0  0  0  0  0  0
   -0.5198   -0.9061    0.1491 C   0  0  0  0  0  0  0  0  0  0  0  0
    0.3869    0.2893    0.4560 C   0  0  1  0  0  0  0  0  0  0  0  0
    1.6130   -0.1489    1.0673 N   0  0  0  0  0  0  0  0  0  0  0  0
    2.6254   -0.1120    0.0539 C   0  0  0  0  0  0  0  0  0  0  0  0
    3.7881   -0.5775    0.1674 O   0  0  0  0  0  0  0  0  0  0  0  0
    2.1364    0.5273   -1.1097 N   0  0  0  0  0  0  0  0  0  0  0  0
    0.7927    0.9004   -0.8262 C   0  0  0  0  0  0  0  0  0  0  0  0
    0.1004    1.6282   -1.5657 O   0  0  0  0  0  0  0  0  0  0  0  0
   -3.4509    0.0397    0.6784 H   0  0  0  0  0  0  0  0  0  0  0  0
   -2.6676    1.3860   -0.0599 H   0  0  0  0  0  0  0  0  0  0  0  0
   -1.6397    0.0690   -1.4465 H   0  0  0  0  0  0  0  0  0  0  0  0
   -2.4312   -1.3610   -0.6298 H   0  0  0  0  0  0  0  0  0  0  0  0
   -0.0235   -1.6094   -0.5317 H   0  0  0  0  0  0  0  0  0  0  0  0
   -0.7427   -1.3693    1.1308 H   0  0  0  0  0  0  0  0  0  0  0  0
   -0.1034    1.0118    1.1034 H   0  0  0  0  0  0  0  0  0  0  0  0
    1.8132   -0.4492    2.0384 H   0  0  0  0  0  0  0  0  0  0  0  0
    2.6705    0.6868   -1.9967 H   0  0  0  0  0  0  0  0  0  0  0  0
  1  2  1  0
  2  3  1  0
  3  4  1  0
  4  5  1  0
  5  6  1  0
  6  7  2  0
  6  8  1  0
  8  9  1  0
  9 10  2  0
  9  4  1  0
  1 11  1  0
  1 12  1  0
  2 13  1  0
  2 14  1  0
  3 15  1  0
  3 16  1  0
  4 17  1  1
  5 18  1  0
  8 19  1  0
M  END
$$$$

     RDKit          3D

 19 19  0  0  0  0  0  0  0  0999 V2000
    3.0538    0.1205   -0.7182 N   0  0  0  0  0  0  0  0  0  0  0  0
    1.8685   -0.2606    0.0612 C   0  0  0  0  0  0  0  0  0  0  0  0
    0.6757    0.5664   -0.3310 C   0  0  0  0  0  0  0  0  0  0  0  0
   -0.5053    0.1453    0.4866 C   0  0  1  0  0  0  0  0  0  0  0  0
   -1.6312    0.9856    0.0601 N   0  0  0  0  0  0  0  0  0  0  0  0
   -2.8021    0.2303    0.3302 C   0  0  0  0  0  0  0  0  0  0  0  0
   -3.9425    0.7697    0.4605 O   0  0  0  0  0  0  0  0  0  0  0  0
   -2.4300   -1.1289    0.4109 N   0  0  0  0  0  0  0  0  0  0  0  0
   -1.0062   -1.1999    0.1856 C   0  0  0  0  0  0  0  0  0  0  0  0
   -0.4418   -2.2522   -0.1880 O   0  0  0  0  0  0  0  0  0  0  0  0
    3.8693   -0.2157   -0.1577 H   0  0  0  0  0  0  0  0  0  0  0  0
    3.0678    1.1743   -0.6853 H   0  0  0  0  0  0  0  0  0  0  0  0
    2.0830   -0.0674    1.1294 H   0  0  0  0  0  0  0  0  0  0  0  0
    1.7004   -1.3396   -0.0456 H   0  0  0  0  0  0  0  0  0  0  0  0
    0.9119    1.6220   -0.0418 H   0  0  0  0  0  0  0  0  0  0  0  0
    0.4862    0.5267   -1.4201 H   0  0  0  0  0  0  0  0  0  0  0  0
   -0.2892    0.2959    1.5532 H   0  0  0  0  0  0  0  0  0  0  0  0
   -1.5792    1.9378   -0.3542 H   0  0  0  0  0  0  0  0  0  0  0  0
   -3.0892   -1.9101    0.6000 H   0  0  0  0  0  0  0  0  0  0  0  0
  1  2  1  0
  2  3  1  0
  3  4  1  0
  4  5  1  0
  5  6  1  0
  6  7  2  0
  6  8  1  0
  8  9  1  0
  9 10  2  0
  9  4  1  0
  1 11  1  0
  1 12  1  0
  2 13  1  0
  2 14  1  0
  3 15  1  0
  3 16  1  0
  4 17  1  1
  5 18  1  0
  8 19  1  0
M  END
$$$$

     RDKit          3D

 19 19  0  0  0  0  0  0  0  0999 V2000
    3.1784    0.1222    0.1529 N   0  0  0  0  0  0  0  0  0  0  0  0
    1.8270    0.6128   -0.1334 C   0  0  0  0  0  0  0  0  0  0  0  0
    0.8540   -0.5510   -0.2222 C   0  0  0  0  0  0  0  0  0  0  0  0
   -0.5203   -0.0503   -0.5154 C   0  0  1  0  0  0  0  0  0  0  0  0
   -1.4968   -1.1120   -0.6182 N   0  0  0  0  0  0  0  0  0  0  0  0
   -2.7761   -0.5331   -0.4071 C   0  0  0  0  0  0  0  0  0  0  0  0
   -3.9076   -0.9887   -0.7828 O   0  0  0  0  0  0  0  0  0  0  0  0
   -2.5423    0.6747    0.3178 N   0  0  0  0  0  0  0  0  0  0  0  0
   -1.1187    0.7942    0.5266 C   0  0  0  0  0  0  0  0  0  0  0  0
   -0.6286    1.4948    1.4313 O   0  0  0  0  0  0  0  0  0  0  0  0
    3.1344   -0.9102    0.2021 H   0  0  0  0  0  0  0  0  0  0  0  0
    3.5379    0.5819    1.0020 H   0  0  0  0  0  0  0  0  0  0  0  0
    1.8968    1.1598   -1.0918 H   0  0  0  0  0  0  0  0  0  0  0  0
    1.5450    1.3423    0.6397 H   0  0  0  0  0  0  0  0  0  0  0  0
    0.9054   -1.1552    0.7105 H   0  0  0  0  0  0  0  0  0  0  0  0
    1.1653   -1.2361   -1.0364 H   0  0  0  0  0  0  0  0  0  0  0  0
   -0.4922    0.5071   -1.4667 H   0  0  0  0  0  0  0  0  0  0  0  0
   -1.3108   -2.1123   -0.8097 H   0  0  0  0  0  0  0  0  0  0  0  0
   -3.2507    1.3589    0.6467 H   0  0  0  0  0  0  0  0  0  0  0  0
  1  2  1  0
  2  3  1  0
  3  4  1  0
  4  5  1  0
  5  6  1  0
  6  7  2  0
  6  8  1  0
  8  9  1  0
  9 10  2  0
  9  4  1  0
  1 11  1  0
  1 12  1  0
  2 13  1  0
  2 14  1  0
  3 15  1  0
  3 16  1  0
  4 17  1  6
  5 18  1  0
  8 19  1  0
M  END
$$$$

     RDKit          3D

 19 19  0  0  0  0  0  0  0  0999 V2000
    1.8078   -1.1269   -0.2741 N   0  0  0  0  0  0  0  0  0  0  0  0
    2.0042    0.2523    0.0067 C   0  0  0  0  0  0  0  0  0  0  0  0
    0.7141    0.8278    0.4965 C   0  0  0  0  0  0  0  0  0  0  0  0
   -0.4200    0.7204   -0.4942 C   0  0  1  0  0  0  0  0  0  0  0  0
   -0.7049   -0.6571   -0.8354 N   0  0  0  0  0  0  0  0  0  0  0  0
   -1.8261   -1.1270   -0.0835 C   0  0  0  0  0  0  0  0  0  0  0  0
   -2.2554   -2.3175    0.0163 O   0  0  0  0  0  0  0  0  0  0  0  0
   -2.4142   -0.0000    0.5663 N   0  0  0  0  0  0  0  0  0  0  0  0
   -1.6534    1.1348    0.2081 C   0  0  0  0  0  0  0  0  0  0  0  0
   -1.9697    2.3204    0.4463 O   0  0  0  0  0  0  0  0  0  0  0  0
    2.1552   -1.4741   -1.1709 H   0  0  0  0  0  0  0  0  0  0  0  0
    1.8460   -1.7659    0.5236 H   0  0  0  0  0  0  0  0  0  0  0  0
    2.4602    0.8200   -0.8162 H   0  0  0  0  0  0  0  0  0  0  0  0
    2.7254    0.3164    0.8604 H   0  0  0  0  0  0  0  0  0  0  0  0
    0.8081    1.8493    0.8891 H   0  0  0  0  0  0  0  0  0  0  0  0
    0.3990    0.1977    1.3807 H   0  0  0  0  0  0  0  0  0  0  0  0
   -0.2165    1.3287   -1.3898 H   0  0  0  0  0  0  0  0  0  0  0  0
   -0.2106   -1.2734   -1.5162 H   0  0  0  0  0  0  0  0  0  0  0  0
   -3.2491   -0.0258    1.1864 H   0  0  0  0  0  0  0  0  0  0  0  0
  1  2  1  0
  2  3  1  0
  3  4  1  0
  4  5  1  0
  5  6  1  0
  6  7  2  0
  6  8  1  0
  8  9  1  0
  9 10  2  0
  9  4  1  0
  1 11  1  0
  1 12  1  0
  2 13  1  0
  2 14  1  0
  3 15  1  0
  3 16  1  0
  4 17  1  6
  5 18  1  0
  8 19  1  0
M  END
$$$$

     RDKit          3D

 19 19  0  0  0  0  0  0  0  0999 V2000
   -3.0233   -0.0582    0.0788 N   0  0  0  0  0  0  0  0  0  0  0  0
   -1.5896   -0.2090    0.3350 C   0  0  0  0  0  0  0  0  0  0  0  0
   -0.8612    0.1694   -0.8840 C   0  0  0  0  0  0  0  0  0  0  0  0
    0.6091    0.0976   -0.8670 C   0  0  1  0  0  0  0  0  0  0  0  0
    1.1461    0.9776    0.1666 N   0  0  0  0  0  0  0  0  0  0  0  0
    2.4779    0.5212    0.3752 C   0  0  0  0  0  0  0  0  0  0  0  0
    3.4157    1.2170    0.8628 O   0  0  0  0  0  0  0  0  0  0  0  0
    2.5424   -0.8506   -0.0670 N   0  0  0  0  0  0  0  0  0  0  0  0
    1.2307   -1.1670   -0.5291 C   0  0  0  0  0  0  0  0  0  0  0  0
    0.8465   -2.3643   -0.5718 O   0  0  0  0  0  0  0  0  0  0  0  0
   -3.2033    0.3308   -0.8658 H   0  0  0  0  0  0  0  0  0  0  0  0
   -3.5002    0.5222    0.7721 H   0  0  0  0  0  0  0  0  0  0  0  0
   -1.3624    0.5423    1.1473 H   0  0  0  0  0  0  0  0  0  0  0  0
   -1.4465   -1.2223    0.7031 H   0  0  0  0  0  0  0  0  0  0  0  0
   -1.1596    1.1976   -1.1794 H   0  0  0  0  0  0  0  0  0  0  0  0
   -1.2310   -0.4840   -1.7297 H   0  0  0  0  0  0  0  0  0  0  0  0
    1.0444    0.4623   -1.8212 H   0  0  0  0  0  0  0  0  0  0  0  0
    0.6618    1.7713    0.6509 H   0  0  0  0  0  0  0  0  0  0  0  0
    3.4025   -1.4538   -0.0355 H   0  0  0  0  0  0  0  0  0  0  0  0
  1  2  1  0
  2  3  1  0
  3  4  1  0
  4  5  1  0
  5  6  1  0
  6  7  2  0
  6  8  1  0
  8  9  1  0
  9 10  2  0
  9  4  1  0
  1 11  1  0
  1 12  1  0
  2 13  1  0
  2 14  1  0
  3 15  1  0
  3 16  1  0
  4 17  1  6
  5 18  1  0
  8 19  1  0
M  END
$$$$
