
     RDKit          3D

 24 25  0  0  0  0  0  0  0  0999 V2000
   -2.2938    1.3254   -0.2226 C   0  0  0  0  0  0  0  0  0  0  0  0
   -1.2843    0.4292    0.3018 N   0  0  0  0  0  0  0  0  0  0  0  0
   -1.8933   -0.7536    0.6956 N   0  0  0  0  0  0  0  0  0  0  0  0
   -0.8790   -1.7813    0.6464 C   0  0  0  0  0  0  0  0  0  0  0  0
    0.2684   -1.2065   -0.1350 C   0  0  2  0  0  0  0  0  0  0  0  0
    1.4175   -1.0148    0.6811 N   0  0  0  0  0  0  0  0  0  0  0  0
    2.4267   -0.1768    0.1269 C   0  0  0  0  0  0  0  0  0  0  0  0
    1.9188    1.2411   -0.1113 C   0  0  0  0  0  0  0  0  0  0  0  0
    0.6920    1.0979   -0.9619 C   0  0  0  0  0  0  0  0  0  0  0  0
    0.5270    1.8793   -1.8928 O   0  0  0  0  0  0  0  0  0  0  0  0
   -0.3139    0.0486   -0.7087 C   0  0  2  0  0  0  0  0  0  0  0  0
   -2.7742    1.8056    0.6747 H   0  0  0  0  0  0  0  0  0  0  0  0
   -1.9000    2.1005   -0.8850 H   0  0  0  0  0  0  0  0  0  0  0  0
   -3.1139    0.7793   -0.7299 H   0  0  0  0  0  0  0  0  0  0  0  0
   -2.2651   -0.6654    1.6585 H   0  0  0  0  0  0  0  0  0  0  0  0
   -0.5749   -2.1303    1.6355 H   0  0  0  0  0  0  0  0  0  0  0  0
   -1.3178   -2.6267    0.0592 H   0  0  0  0  0  0  0  0  0  0  0  0
    0.5447   -1.8846   -0.9723 H   0  0  0  0  0  0  0  0  0  0  0  0
    1.2550   -0.9276    1.6878 H   0  0  0  0  0  0  0  0  0  0  0  0
    2.7040   -0.5677   -0.8816 H   0  0  0  0  0  0  0  0  0  0  0  0
    3.3196   -0.2006    0.7493 H   0  0  0  0  0  0  0  0  0  0  0  0
    2.7035    1.8103   -0.6347 H   0  0  0  0  0  0  0  0  0  0  0  0
    1.6708    1.6488    0.8850 H   0  0  0  0  0  0  0  0  0  0  0  0
   -0.8377   -0.2302   -1.6659 H   0  0  0  0  0  0  0  0  0  0  0  0
  1  2  1  0
  2  3  1  0
  3  4  1  0
  4  5  1  0
  5  6  1  0
  6  7  1  0
  7  8  1  0
  8  9  1  0
  9 10  2  0
  9 11  1  0
 11  2  1  0
 11  5  1  0
  1 12  1  0
  1 13  1  0
  1 14  1  0
  3 15  1  0
  4 16  1  0
  4 17  1  0
  5 18  1  6
  6 19  1  0
  7 20  1  0
  7 21  1  0
  8 22  1  0
  8 23  1  0
 11 24  1  6
M  END
$$$$

     RDKit          3D

 24 25  0  0  0  0  0  0  0  0999 V2000
   -2.6252   -1.0505    0.2305 C   0  0  0  0  0  0  0  0  0  0  0  0
   -1.5115   -0.5190   -0.4575 N   0  0  0  0  0  0  0  0  0  0  0  0
   -1.6436    0.7402   -0.9670 N   0  0  0  0  0  0  0  0  0  0  0  0
   -0.7028    1.6129   -0.3412 C   0  0  0  0  0  0  0  0  0  0  0  0
    0.0935    0.7510    0.6439 C   0  0  2  0  0  0  0  0  0  0  0  0
    1.4244    1.1331    0.6899 N   0  0  0  0  0  0  0  0  0  0  0  0
    2.4507    0.3032    0.2572 C   0  0  0  0  0  0  0  0  0  0  0  0
    2.1290   -0.8130   -0.6601 C   0  0  0  0  0  0  0  0  0  0  0  0
    0.7101   -1.1953   -0.7094 C   0  0  0  0  0  0  0  0  0  0  0  0
    0.3447   -1.9874   -1.5362 O   0  0  0  0  0  0  0  0  0  0  0  0
   -0.2537   -0.6212    0.2356 C   0  0  2  0  0  0  0  0  0  0  0  0
   -3.1462   -1.7827   -0.4318 H   0  0  0  0  0  0  0  0  0  0  0  0
   -2.3353   -1.6464    1.1444 H   0  0  0  0  0  0  0  0  0  0  0  0
   -3.3791   -0.3200    0.5520 H   0  0  0  0  0  0  0  0  0  0  0  0
   -2.6209    1.1044   -0.9681 H   0  0  0  0  0  0  0  0  0  0  0  0
   -1.2551    2.4176    0.1712 H   0  0  0  0  0  0  0  0  0  0  0  0
   -0.0269    2.1031   -1.0676 H   0  0  0  0  0  0  0  0  0  0  0  0
   -0.3905    0.9481    1.6460 H   0  0  0  0  0  0  0  0  0  0  0  0
    1.7036    1.6069    1.5965 H   0  0  0  0  0  0  0  0  0  0  0  0
    2.9909   -0.1214    1.1542 H   0  0  0  0  0  0  0  0  0  0  0  0
    3.2428    0.9359   -0.2449 H   0  0  0  0  0  0  0  0  0  0  0  0
    2.7031   -1.7462   -0.3819 H   0  0  0  0  0  0  0  0  0  0  0  0
    2.4499   -0.6011   -1.7102 H   0  0  0  0  0  0  0  0  0  0  0  0
   -0.3519   -1.2521    1.1544 H   0  0  0  0  0  0  0  0  0  0  0  0
  1  2  1  0
  2  3  1  0
  3  4  1  0
  4  5  1  0
  5  6  1  0
  6  7  1  0
  7  8  1  0
  8  9  1  0
  9 10  2  0
  9 11  1  0
 11  2  1  0
 11  5  1  0
  1 12  1  0
  1 13  1  0
  1 14  1  0
  3 15  1  0
  4 16  1  0
  4 17  1  0
  5 18  1  1
  6 19  1  0
  7 20  1  0
  7 21  1  0
  8 22  1  0
  8 23  1  0
 11 24  1  1
M  END
$$$$

     RDKit          3D

 24 25  0  0  0  0  0  0  0  0999 V2000
    2.5389    0.7394    0.7131 C   0  0  0  0  0  0  0  0  0  0  0  0
    1.6055    0.1383   -0.2253 N   0  0  0  0  0  0  0  0  0  0  0  0
    1.8562   -1.1963   -0.4328 N   0  0  0  0  0  0  0  0  0  0  0  0
    0.6086   -1.8936   -0.5432 C   0  0  0  0  0  0  0  0  0  0  0  0
   -0.4246   -1.0400    0.1286 C   0  0  2  0  0  0  0  0  0  0  0  0
   -1.6275   -0.8839   -0.6333 N   0  0  0  0  0  0  0  0  0  0  0  0
   -2.4443    0.1388    0.0163 C   0  0  0  0  0  0  0  0  0  0  0  0
   -1.8712    1.5166   -0.2573 C   0  0  0  0  0  0  0  0  0  0  0  0
   -0.4164    1.3619   -0.4599 C   0  0  0  0  0  0  0  0  0  0  0  0
    0.1909    2.0876   -1.2179 O   0  0  0  0  0  0  0  0  0  0  0  0
    0.2713    0.2765    0.3066 C   0  0  2  0  0  0  0  0  0  0  0  0
    3.2495    1.3367    0.1105 H   0  0  0  0  0  0  0  0  0  0  0  0
    1.9920    1.4724    1.3570 H   0  0  0  0  0  0  0  0  0  0  0  0
    3.0570   -0.0308    1.3006 H   0  0  0  0  0  0  0  0  0  0  0  0
    2.5307   -1.6187    0.2290 H   0  0  0  0  0  0  0  0  0  0  0  0
    0.6973   -2.8371    0.0411 H   0  0  0  0  0  0  0  0  0  0  0  0
    0.3295   -2.1523   -1.5825 H   0  0  0  0  0  0  0  0  0  0  0  0
   -0.7155   -1.4551    1.1267 H   0  0  0  0  0  0  0  0  0  0  0  0
   -1.4654   -0.6501   -1.6331 H   0  0  0  0  0  0  0  0  0  0  0  0
   -2.3451   -0.0485    1.1139 H   0  0  0  0  0  0  0  0  0  0  0  0
   -3.5003    0.0787   -0.2960 H   0  0  0  0  0  0  0  0  0  0  0  0
   -2.0242    2.1463    0.6316 H   0  0  0  0  0  0  0  0  0  0  0  0
   -2.3528    1.9475   -1.1648 H   0  0  0  0  0  0  0  0  0  0  0  0
    0.2595    0.5655    1.3711 H   0  0  0  0  0  0  0  0  0  0  0  0
  1  2  1  0
  2  3  1  0
  3  4  1  0
  4  5  1  0
  5  6  1  0
  6  7  1  0
  7  8  1  0
  8  9  1  0
  9 10  2  0
  9 11  1  0
 11  2  1  0
 11  5  1  0
  1 12  1  0
  1 13  1  0
  1 14  1  0
  3 15  1  0
  4 16  1  0
  4 17  1  0
  5 18  1  1
  6 19  1  0
  7 20  1  0
  7 21  1  0
  8 22  1  0
  8 23  1  0
 11 24  1  1
M  END
$$$$

     RDKit          3D

 24 25  0  0  0  0  0  0  0  0999 V2000
    2.2331   -1.5360    0.5181 C   0  0  0  0  0  0  0  0  0  0  0  0
    1.4809   -0.3945    0.3220 N   0  0  0  0  0  0  0  0  0  0  0  0
    1.9246    0.8182    0.6798 N   0  0  0  0  0  0  0  0  0  0  0  0
    1.1204    1.7925   -0.0033 C   0  0  0  0  0  0  0  0  0  0  0  0
   -0.0423    1.0632   -0.6109 C   0  0  2  0  0  0  0  0  0  0  0  0
   -1.2954    1.3583    0.0542 N   0  0  0  0  0  0  0  0  0  0  0  0
   -2.3273    0.5576   -0.5795 C   0  0  0  0  0  0  0  0  0  0  0  0
   -2.1593   -0.9226   -0.2291 C   0  0  0  0  0  0  0  0  0  0  0  0
   -0.7760   -1.0859    0.2645 C   0  0  0  0  0  0  0  0  0  0  0  0
   -0.5857   -1.7878    1.2433 O   0  0  0  0  0  0  0  0  0  0  0  0
    0.3298   -0.3931   -0.4447 C   0  0  2  0  0  0  0  0  0  0  0  0
    2.7778   -1.4993    1.4864 H   0  0  0  0  0  0  0  0  0  0  0  0
    2.9241   -1.7304   -0.3050 H   0  0  0  0  0  0  0  0  0  0  0  0
    1.5647   -2.4344    0.5931 H   0  0  0  0  0  0  0  0  0  0  0  0
    1.9077    0.9561    1.7026 H   0  0  0  0  0  0  0  0  0  0  0  0
    0.7875    2.5979    0.7018 H   0  0  0  0  0  0  0  0  0  0  0  0
    1.7575    2.2513   -0.7992 H   0  0  0  0  0  0  0  0  0  0  0  0
   -0.1662    1.2755   -1.6842 H   0  0  0  0  0  0  0  0  0  0  0  0
   -1.2178    1.2005    1.0718 H   0  0  0  0  0  0  0  0  0  0  0  0
   -2.1877    0.6550   -1.6716 H   0  0  0  0  0  0  0  0  0  0  0  0
   -3.3004    0.9105   -0.2315 H   0  0  0  0  0  0  0  0  0  0  0  0
   -2.9237   -1.2367    0.4967 H   0  0  0  0  0  0  0  0  0  0  0  0
   -2.2954   -1.5359   -1.1372 H   0  0  0  0  0  0  0  0  0  0  0  0
    0.4692   -0.8801   -1.4379 H   0  0  0  0  0  0  0  0  0  0  0  0
  1  2  1  0
  2  3  1  0
  3  4  1  0
  4  5  1  0
  5  6  1  0
  6  7  1  0
  7  8  1  0
  8  9  1  0
  9 10  2  0
  9 11  1  0
 11  2  1  0
 11  5  1  0
  1 12  1  0
  1 13  1  0
  1 14  1  0
  3 15  1  0
  4 16  1  0
  4 17  1  0
  5 18  1  6
  6 19  1  0
  7 20  1  0
  7 21  1  0
  8 22  1  0
  8 23  1  0
 11 24  1  6
M  END
$$$$

     RDKit          3D

 24 25  0  0  0  0  0  0  0  0999 V2000
    2.4527    1.3802   -0.0079 C   0  0  0  0  0  0  0  0  0  0  0  0
    1.3542    0.7144   -0.6455 N   0  0  0  0  0  0  0  0  0  0  0  0
    1.7122   -0.5020   -1.1737 N   0  0  0  0  0  0  0  0  0  0  0  0
    0.5991   -1.4118   -1.0245 C   0  0  0  0  0  0  0  0  0  0  0  0
    0.0675   -0.9713    0.3465 C   0  0  2  0  0  0  0  0  0  0  0  0
   -1.2534   -1.4306    0.5817 N   0  0  0  0  0  0  0  0  0  0  0  0
   -2.1687   -0.3839    0.9494 C   0  0  0  0  0  0  0  0  0  0  0  0
   -2.2765    0.5330   -0.2763 C   0  0  0  0  0  0  0  0  0  0  0  0
   -0.9418    1.1819   -0.3998 C   0  0  0  0  0  0  0  0  0  0  0  0
   -0.8142    2.2152   -1.0009 O   0  0  0  0  0  0  0  0  0  0  0  0
    0.2281    0.5075    0.2463 C   0  0  2  0  0  0  0  0  0  0  0  0
    2.5154    2.4297   -0.4044 H   0  0  0  0  0  0  0  0  0  0  0  0
    2.3423    1.4655    1.0848 H   0  0  0  0  0  0  0  0  0  0  0  0
    3.4162    0.8731   -0.2350 H   0  0  0  0  0  0  0  0  0  0  0  0
    2.5182   -0.9265   -0.6427 H   0  0  0  0  0  0  0  0  0  0  0  0
   -0.2151   -1.1931   -1.7398 H   0  0  0  0  0  0  0  0  0  0  0  0
    0.8792   -2.4586   -0.9457 H   0  0  0  0  0  0  0  0  0  0  0  0
    0.7307   -1.3633    1.1484 H   0  0  0  0  0  0  0  0  0  0  0  0
   -1.2752   -2.2169    1.2948 H   0  0  0  0  0  0  0  0  0  0  0  0
   -1.6579    0.2402    1.7290 H   0  0  0  0  0  0  0  0  0  0  0  0
   -3.1335   -0.7651    1.2709 H   0  0  0  0  0  0  0  0  0  0  0  0
   -2.3854   -0.1033   -1.2025 H   0  0  0  0  0  0  0  0  0  0  0  0
   -3.1047    1.2347   -0.1999 H   0  0  0  0  0  0  0  0  0  0  0  0
    0.4105    0.9508    1.2467 H   0  0  0  0  0  0  0  0  0  0  0  0
  1  2  1  0
  2  3  1  0
  3  4  1  0
  4  5  1  0
  5  6  1  0
  6  7  1  0
  7  8  1  0
  8  9  1  0
  9 10  2  0
  9 11  1  0
 11  2  1  0
 11  5  1  0
  1 12  1  0
  1 13  1  0
  1 14  1  0
  3 15  1  0
  4 16  1  0
  4 17  1  0
  5 18  1  1
  6 19  1  0
  7 20  1  0
  7 21  1  0
  8 22  1  0
  8 23  1  0
 11 24  1  1
M  END
$$$$

     RDKit          3D

 24 25  0  0  0  0  0  0  0  0999 V2000
   -2.4316    0.9623    0.1989 C   0  0  0  0  0  0  0  0  0  0  0  0
   -1.3171    0.0930    0.4588 N   0  0  0  0  0  0  0  0  0  0  0  0
   -1.7811   -1.2464    0.4086 N   0  0  0  0  0  0  0  0  0  0  0  0
   -0.5138   -1.9535    0.6100 C   0  0  0  0  0  0  0  0  0  0  0  0
    0.4730   -1.1604   -0.2419 C   0  0  2  0  0  0  0  0  0  0  0  0
    1.5723   -0.8045    0.6102 N   0  0  0  0  0  0  0  0  0  0  0  0
    2.4475    0.1496   -0.0128 C   0  0  0  0  0  0  0  0  0  0  0  0
    1.7065    1.4934    0.0053 C   0  0  0  0  0  0  0  0  0  0  0  0
    0.4402    1.2754   -0.7436 C   0  0  0  0  0  0  0  0  0  0  0  0
    0.0645    2.1633   -1.4880 O   0  0  0  0  0  0  0  0  0  0  0  0
   -0.3626    0.0611   -0.6284 C   0  0  2  0  0  0  0  0  0  0  0  0
   -2.1020    2.0235    0.2114 H   0  0  0  0  0  0  0  0  0  0  0  0
   -3.1412    0.8505    1.0447 H   0  0  0  0  0  0  0  0  0  0  0  0
   -2.9952    0.7003   -0.7151 H   0  0  0  0  0  0  0  0  0  0  0  0
   -2.0321   -1.4022   -0.5996 H   0  0  0  0  0  0  0  0  0  0  0  0
   -0.2879   -1.8376    1.6992 H   0  0  0  0  0  0  0  0  0  0  0  0
   -0.5787   -3.0075    0.3031 H   0  0  0  0  0  0  0  0  0  0  0  0
    0.7788   -1.7475   -1.1214 H   0  0  0  0  0  0  0  0  0  0  0  0
    1.2070   -0.4631    1.5157 H   0  0  0  0  0  0  0  0  0  0  0  0
    2.5616   -0.1446   -1.0861 H   0  0  0  0  0  0  0  0  0  0  0  0
    3.4061    0.2255    0.5200 H   0  0  0  0  0  0  0  0  0  0  0  0
    1.4349    1.7518    1.0570 H   0  0  0  0  0  0  0  0  0  0  0  0
    2.3649    2.2335   -0.4619 H   0  0  0  0  0  0  0  0  0  0  0  0
   -0.9141   -0.2159   -1.5443 H   0  0  0  0  0  0  0  0  0  0  0  0
  1  2  1  0
  2  3  1  0
  3  4  1  0
  4  5  1  0
  5  6  1  0
  6  7  1  0
  7  8  1  0
  8  9  1  0
  9 10  2  0
  9 11  1  0
 11  2  1  0
 11  5  1  0
  1 12  1  0
  1 13  1  0
  1 14  1  0
  3 15  1  0
  4 16  1  0
  4 17  1  0
  5 18  1  6
  6 19  1  0
  7 20  1  0
  7 21  1  0
  8 22  1  0
  8 23  1  0
 11 24  1  6
M  END
$$$$

     RDKit          3D

 24 25  0  0  0  0  0  0  0  0999 V2000
    2.5135   -1.1713   -0.2205 C   0  0  0  0  0  0  0  0  0  0  0  0
    1.5836   -0.1642    0.2166 N   0  0  0  0  0  0  0  0  0  0  0  0
    2.0151    1.1354   -0.0193 N   0  0  0  0  0  0  0  0  0  0  0  0
    0.8039    1.8996    0.2777 C   0  0  0  0  0  0  0  0  0  0  0  0
   -0.3282    1.0747   -0.2414 C   0  0  2  0  0  0  0  0  0  0  0  0
   -1.4472    0.9852    0.6690 N   0  0  0  0  0  0  0  0  0  0  0  0
   -2.4188    0.0736    0.0557 C   0  0  0  0  0  0  0  0  0  0  0  0
   -1.9434   -1.3546    0.2888 C   0  0  0  0  0  0  0  0  0  0  0  0
   -0.4798   -1.3055    0.4523 C   0  0  0  0  0  0  0  0  0  0  0  0
    0.0431   -2.0817    1.2334 O   0  0  0  0  0  0  0  0  0  0  0  0
    0.2796   -0.3068   -0.3490 C   0  0  2  0  0  0  0  0  0  0  0  0
    2.4105   -2.0313    0.4910 H   0  0  0  0  0  0  0  0  0  0  0  0
    2.2091   -1.5865   -1.2185 H   0  0  0  0  0  0  0  0  0  0  0  0
    3.5634   -0.8663   -0.1854 H   0  0  0  0  0  0  0  0  0  0  0  0
    2.3835    1.3066   -0.9578 H   0  0  0  0  0  0  0  0  0  0  0  0
    0.8351    2.8827   -0.2248 H   0  0  0  0  0  0  0  0  0  0  0  0
    0.7610    2.0453    1.3875 H   0  0  0  0  0  0  0  0  0  0  0  0
   -0.6860    1.4731   -1.1934 H   0  0  0  0  0  0  0  0  0  0  0  0
   -1.8990    1.9079    0.8544 H   0  0  0  0  0  0  0  0  0  0  0  0
   -2.3850    0.2388   -1.0302 H   0  0  0  0  0  0  0  0  0  0  0  0
   -3.4171    0.2055    0.4686 H   0  0  0  0  0  0  0  0  0  0  0  0
   -2.1916   -2.0239   -0.5421 H   0  0  0  0  0  0  0  0  0  0  0  0
   -2.4782   -1.7120    1.1957 H   0  0  0  0  0  0  0  0  0  0  0  0
    0.2728   -0.6240   -1.4083 H   0  0  0  0  0  0  0  0  0  0  0  0
  1  2  1  0
  2  3  1  0
  3  4  1  0
  4  5  1  0
  5  6  1  0
  6  7  1  0
  7  8  1  0
  8  9  1  0
  9 10  2  0
  9 11  1  0
 11  2  1  0
 11  5  1  0
  1 12  1  0
  1 13  1  0
  1 14  1  0
  3 15  1  0
  4 16  1  0
  4 17  1  0
  5 18  1  6
  6 19  1  0
  7 20  1  0
  7 21  1  0
  8 22  1  0
  8 23  1  0
 11 24  1  6
M  END
$$$$

     RDKit          3D

 24 25  0  0  0  0  0  0  0  0999 V2000
   -2.2662    1.5169    0.1765 C   0  0  0  0  0  0  0  0  0  0  0  0
   -1.6607    0.3554   -0.3524 N   0  0  0  0  0  0  0  0  0  0  0  0
   -2.0837   -0.8092    0.2224 N   0  0  0  0  0  0  0  0  0  0  0  0
   -0.9479   -1.6757    0.4031 C   0  0  0  0  0  0  0  0  0  0  0  0
    0.1714   -1.0854   -0.4238 C   0  0  2  0  0  0  0  0  0  0  0  0
    1.3806   -1.1675    0.3952 N   0  0  0  0  0  0  0  0  0  0  0  0
    2.4395   -0.3276   -0.1234 C   0  0  0  0  0  0  0  0  0  0  0  0
    2.0373    1.1193    0.0532 C   0  0  0  0  0  0  0  0  0  0  0  0
    0.5472    1.1866    0.2942 C   0  0  0  0  0  0  0  0  0  0  0  0
    0.1787    1.9115    1.1753 O   0  0  0  0  0  0  0  0  0  0  0  0
   -0.2869    0.3560   -0.5779 C   0  0  2  0  0  0  0  0  0  0  0  0
   -3.2913    1.6109   -0.2894 H   0  0  0  0  0  0  0  0  0  0  0  0
   -2.4827    1.3378    1.2642 H   0  0  0  0  0  0  0  0  0  0  0  0
   -1.7579    2.4575   -0.0171 H   0  0  0  0  0  0  0  0  0  0  0  0
   -2.8106   -1.3032   -0.3769 H   0  0  0  0  0  0  0  0  0  0  0  0
   -0.7051   -1.6683    1.4964 H   0  0  0  0  0  0  0  0  0  0  0  0
   -1.1350   -2.7241    0.1039 H   0  0  0  0  0  0  0  0  0  0  0  0
    0.2956   -1.5925   -1.3836 H   0  0  0  0  0  0  0  0  0  0  0  0
    1.6483   -2.1738    0.4146 H   0  0  0  0  0  0  0  0  0  0  0  0
    2.5803   -0.5893   -1.2043 H   0  0  0  0  0  0  0  0  0  0  0  0
    3.3555   -0.5788    0.4364 H   0  0  0  0  0  0  0  0  0  0  0  0
    2.2602    1.6271   -0.9133 H   0  0  0  0  0  0  0  0  0  0  0  0
    2.6106    1.5631    0.8633 H   0  0  0  0  0  0  0  0  0  0  0  0
   -0.0773    0.6534   -1.6365 H   0  0  0  0  0  0  0  0  0  0  0  0
  1  2  1  0
  2  3  1  0
  3  4  1  0
  4  5  1  0
  5  6  1  0
  6  7  1  0
  7  8  1  0
  8  9  1  0
  9 10  2  0
  9 11  1  0
 11  2  1  0
 11  5  1  0
  1 12  1  0
  1 13  1  0
  1 14  1  0
  3 15  1  0
  4 16  1  0
  4 17  1  0
  5 18  1  6
  6 19  1  0
  7 20  1  0
  7 21  1  0
  8 22  1  0
  8 23  1  0
 11 24  1  6
M  END
$$$$
