
     RDKit          3D

 26 27  0  0  0  0  0  0  0  0999 V2000
   -3.1784    0.9672    0.2019 C   0  0  0  0  0  0  0  0  0  0  0  0
   -1.8068    0.4488    0.1004 N   0  0  0  0  0  0  0  0  0  0  0  0
   -1.4247   -0.5815    1.0279 C   0  0  0  0  0  0  0  0  0  0  0  0
   -0.7666   -1.7624    0.3612 C   0  0  0  0  0  0  0  0  0  0  0  0
    0.6912   -1.5281    0.0612 C   0  0  0  0  0  0  0  0  0  0  0  0
    0.9234   -0.3001   -0.6694 N   0  0  0  0  0  0  0  0  0  0  0  0
    2.1675    0.3128   -0.3784 C   0  0  0  0  0  0  0  0  0  0  0  0
    2.5956    1.4613   -0.9386 N   0  0  0  0  0  0  0  0  0  0  0  0
    3.7862    1.6957   -0.4121 N   0  0  0  0  0  0  0  0  0  0  0  0
    4.0872    0.7311    0.4419 N   0  0  0  0  0  0  0  0  0  0  0  0
    3.1066   -0.1333    0.4812 N   0  0  0  0  0  0  0  0  0  0  0  0
    0.1073    0.3996   -1.6365 C   0  0  0  0  0  0  0  0  0  0  0  0
   -1.0245    1.0461   -0.9210 C   0  0  0  0  0  0  0  0  0  0  0  0
   -1.3370    2.2237   -1.2273 O   0  0  0  0  0  0  0  0  0  0  0  0
   -3.3910    1.0388    1.2796 H   0  0  0  0  0  0  0  0  0  0  0  0
   -3.8166    0.2006   -0.3021 H   0  0  0  0  0  0  0  0  0  0  0  0
   -3.2712    1.9284   -0.3225 H   0  0  0  0  0  0  0  0  0  0  0  0
   -2.3489   -0.9493    1.5171 H   0  0  0  0  0  0  0  0  0  0  0  0
   -0.7539   -0.2219    1.8255 H   0  0  0  0  0  0  0  0  0  0  0  0
   -0.7829   -2.5951    1.1242 H   0  0  0  0  0  0  0  0  0  0  0  0
   -1.2981   -2.0699   -0.5629 H   0  0  0  0  0  0  0  0  0  0  0  0
    1.0285   -2.3888   -0.5522 H   0  0  0  0  0  0  0  0  0  0  0  0
    1.2738   -1.5613    1.0046 H   0  0  0  0  0  0  0  0  0  0  0  0
    4.9961    0.7151    0.9811 H   0  0  0  0  0  0  0  0  0  0  0  0
    0.6856    1.1990   -2.1150 H   0  0  0  0  0  0  0  0  0  0  0  0
   -0.2484   -0.2763   -2.4490 H   0  0  0  0  0  0  0  0  0  0  0  0
  1  2  1  0
  2  3  1  0
  3  4  1  0
  4  5  1  0
  5  6  1  0
  6  7  1  0
  7  8  1  0
  8  9  2  0
  9 10  1  0
 10 11  1  0
  6 12  1  0
 12 13  1  0
 13 14  2  0
 13  2  1  0
 11  7  2  0
  1 15  1  0
  1 16  1  0
  1 17  1  0
  3 18  1  0
  3 19  1  0
  4 20  1  0
  4 21  1  0
  5 22  1  0
  5 23  1  0
 10 24  1  0
 12 25  1  0
 12 26  1  0
M  END
$$$$

     RDKit          3D

 26 27  0  0  0  0  0  0  0  0999 V2000
   -2.8843    1.5450    0.1895 C   0  0  0  0  0  0  0  0  0  0  0  0
   -1.8233    0.6540   -0.2300 N   0  0  0  0  0  0  0  0  0  0  0  0
   -2.0178   -0.7141    0.0925 C   0  0  0  0  0  0  0  0  0  0  0  0
   -0.7836   -1.4168    0.6028 C   0  0  0  0  0  0  0  0  0  0  0  0
    0.2229   -1.6702   -0.4964 C   0  0  0  0  0  0  0  0  0  0  0  0
    0.9333   -0.4385   -0.7156 N   0  0  0  0  0  0  0  0  0  0  0  0
    2.2270   -0.3170   -0.1462 C   0  0  0  0  0  0  0  0  0  0  0  0
    2.9013   -1.2165    0.5903 N   0  0  0  0  0  0  0  0  0  0  0  0
    4.0580   -0.6779    0.9032 N   0  0  0  0  0  0  0  0  0  0  0  0
    4.1805    0.5362    0.4080 N   0  0  0  0  0  0  0  0  0  0  0  0
    3.0541    0.7572   -0.2371 N   0  0  0  0  0  0  0  0  0  0  0  0
    0.4771    0.7022   -1.4569 C   0  0  0  0  0  0  0  0  0  0  0  0
   -0.7610    1.2942   -0.8968 C   0  0  0  0  0  0  0  0  0  0  0  0
   -0.8387    2.5390   -1.0578 O   0  0  0  0  0  0  0  0  0  0  0  0
   -3.3570    1.1380    1.0977 H   0  0  0  0  0  0  0  0  0  0  0  0
   -3.6033    1.6325   -0.6569 H   0  0  0  0  0  0  0  0  0  0  0  0
   -2.5116    2.5726    0.3754 H   0  0  0  0  0  0  0  0  0  0  0  0
   -2.4122   -1.3301   -0.7415 H   0  0  0  0  0  0  0  0  0  0  0  0
   -2.7718   -0.7908    0.9036 H   0  0  0  0  0  0  0  0  0  0  0  0
   -0.3093   -0.9114    1.4404 H   0  0  0  0  0  0  0  0  0  0  0  0
   -1.1240   -2.4241    0.9578 H   0  0  0  0  0  0  0  0  0  0  0  0
    0.8903   -2.4782   -0.1672 H   0  0  0  0  0  0  0  0  0  0  0  0
   -0.3442   -2.0120   -1.3882 H   0  0  0  0  0  0  0  0  0  0  0  0
    5.0118    1.1464    0.5309 H   0  0  0  0  0  0  0  0  0  0  0  0
    0.3221    0.4087   -2.5184 H   0  0  0  0  0  0  0  0  0  0  0  0
    1.2636    1.4714   -1.4455 H   0  0  0  0  0  0  0  0  0  0  0  0
  1  2  1  0
  2  3  1  0
  3  4  1  0
  4  5  1  0
  5  6  1  0
  6  7  1  0
  7  8  1  0
  8  9  2  0
  9 10  1  0
 10 11  1  0
  6 12  1  0
 12 13  1  0
 13 14  2  0
 13  2  1  0
 11  7  2  0
  1 15  1  0
  1 16  1  0
  1 17  1  0
  3 18  1  0
  3 19  1  0
  4 20  1  0
  4 21  1  0
  5 22  1  0
  5 23  1  0
 10 24  1  0
 12 25  1  0
 12 26  1  0
M  END
$$$$

     RDKit          3D

 26 27  0  0  0  0  0  0  0  0999 V2000
   -3.2193    1.1654    0.2883 C   0  0  0  0  0  0  0  0  0  0  0  0
   -1.9347    0.5643   -0.0181 N   0  0  0  0  0  0  0  0  0  0  0  0
   -2.0117   -0.8147   -0.3663 C   0  0  0  0  0  0  0  0  0  0  0  0
   -0.7055   -1.5457   -0.3178 C   0  0  0  0  0  0  0  0  0  0  0  0
    0.1320   -1.0918    0.8499 C   0  0  0  0  0  0  0  0  0  0  0  0
    0.9993   -0.0401    0.3613 N   0  0  0  0  0  0  0  0  0  0  0  0
    2.3789   -0.2853    0.3951 C   0  0  0  0  0  0  0  0  0  0  0  0
    2.9877   -1.4026    0.8366 N   0  0  0  0  0  0  0  0  0  0  0  0
    4.3144   -1.2757    0.7159 N   0  0  0  0  0  0  0  0  0  0  0  0
    4.5388   -0.0816    0.1999 N   0  0  0  0  0  0  0  0  0  0  0  0
    3.3661    0.5285    0.0013 N   0  0  0  0  0  0  0  0  0  0  0  0
    0.5818    1.2371   -0.1577 C   0  0  0  0  0  0  0  0  0  0  0  0
   -0.8581    1.4910    0.0955 C   0  0  0  0  0  0  0  0  0  0  0  0
   -1.1666    2.6568    0.4513 O   0  0  0  0  0  0  0  0  0  0  0  0
   -3.2712    2.2116   -0.1202 H   0  0  0  0  0  0  0  0  0  0  0  0
   -3.4270    1.2379    1.3582 H   0  0  0  0  0  0  0  0  0  0  0  0
   -4.0585    0.6258   -0.1960 H   0  0  0  0  0  0  0  0  0  0  0  0
   -2.5061   -0.9066   -1.3473 H   0  0  0  0  0  0  0  0  0  0  0  0
   -2.6963   -1.3082    0.3721 H   0  0  0  0  0  0  0  0  0  0  0  0
   -0.8739   -2.6389   -0.2312 H   0  0  0  0  0  0  0  0  0  0  0  0
   -0.1546   -1.3885   -1.2764 H   0  0  0  0  0  0  0  0  0  0  0  0
   -0.5703   -0.6529    1.6027 H   0  0  0  0  0  0  0  0  0  0  0  0
    0.7021   -1.9471    1.2638 H   0  0  0  0  0  0  0  0  0  0  0  0
    5.4992    0.2888   -0.0053 H   0  0  0  0  0  0  0  0  0  0  0  0
    1.1488    2.0138    0.3972 H   0  0  0  0  0  0  0  0  0  0  0  0
    0.8051    1.3589   -1.2397 H   0  0  0  0  0  0  0  0  0  0  0  0
  1  2  1  0
  2  3  1  0
  3  4  1  0
  4  5  1  0
  5  6  1  0
  6  7  1  0
  7  8  1  0
  8  9  2  0
  9 10  1  0
 10 11  1  0
  6 12  1  0
 12 13  1  0
 13 14  2  0
 13  2  1  0
 11  7  2  0
  1 15  1  0
  1 16  1  0
  1 17  1  0
  3 18  1  0
  3 19  1  0
  4 20  1  0
  4 21  1  0
  5 22  1  0
  5 23  1  0
 10 24  1  0
 12 25  1  0
 12 26  1  0
M  END
$$$$

     RDKit          3D

 26 27  0  0  0  0  0  0  0  0999 V2000
   -3.3784    1.0268    0.2243 C   0  0  0  0  0  0  0  0  0  0  0  0
   -2.0569    0.4857   -0.1059 N   0  0  0  0  0  0  0  0  0  0  0  0
   -2.0078   -0.7969   -0.7183 C   0  0  0  0  0  0  0  0  0  0  0  0
   -0.8222   -1.6299   -0.3420 C   0  0  0  0  0  0  0  0  0  0  0  0
    0.4271   -1.0879   -1.0022 C   0  0  0  0  0  0  0  0  0  0  0  0
    1.0139   -0.0546   -0.1857 N   0  0  0  0  0  0  0  0  0  0  0  0
    2.4433   -0.1409   -0.0530 C   0  0  0  0  0  0  0  0  0  0  0  0
    3.2585   -1.0625   -0.5991 N   0  0  0  0  0  0  0  0  0  0  0  0
    4.4872   -0.7679   -0.2222 N   0  0  0  0  0  0  0  0  0  0  0  0
    4.5081    0.3019    0.5433 N   0  0  0  0  0  0  0  0  0  0  0  0
    3.2470    0.6835    0.6439 N   0  0  0  0  0  0  0  0  0  0  0  0
    0.4343    1.0323    0.5102 C   0  0  0  0  0  0  0  0  0  0  0  0
   -0.9610    1.3227    0.2315 C   0  0  0  0  0  0  0  0  0  0  0  0
   -1.2484    2.5678    0.3060 O   0  0  0  0  0  0  0  0  0  0  0  0
   -3.6482    1.8828   -0.4106 H   0  0  0  0  0  0  0  0  0  0  0  0
   -3.3361    1.4158    1.2820 H   0  0  0  0  0  0  0  0  0  0  0  0
   -4.1155    0.2163    0.2329 H   0  0  0  0  0  0  0  0  0  0  0  0
   -2.0310   -0.7298   -1.8261 H   0  0  0  0  0  0  0  0  0  0  0  0
   -2.9276   -1.3583   -0.4323 H   0  0  0  0  0  0  0  0  0  0  0  0
   -0.9871   -2.6489   -0.7700 H   0  0  0  0  0  0  0  0  0  0  0  0
   -0.6517   -1.6774    0.7463 H   0  0  0  0  0  0  0  0  0  0  0  0
    1.1461   -1.9272   -1.1937 H   0  0  0  0  0  0  0  0  0  0  0  0
    0.2206   -0.6375   -1.9991 H   0  0  0  0  0  0  0  0  0  0  0  0
    5.3282    0.7767    0.9932 H   0  0  0  0  0  0  0  0  0  0  0  0
    1.0581    1.9462    0.2876 H   0  0  0  0  0  0  0  0  0  0  0  0
    0.5993    0.8616    1.6094 H   0  0  0  0  0  0  0  0  0  0  0  0
  1  2  1  0
  2  3  1  0
  3  4  1  0
  4  5  1  0
  5  6  1  0
  6  7  1  0
  7  8  1  0
  8  9  2  0
  9 10  1  0
 10 11  1  0
  6 12  1  0
 12 13  1  0
 13 14  2  0
 13  2  1  0
 11  7  2  0
  1 15  1  0
  1 16  1  0
  1 17  1  0
  3 18  1  0
  3 19  1  0
  4 20  1  0
  4 21  1  0
  5 22  1  0
  5 23  1  0
 10 24  1  0
 12 25  1  0
 12 26  1  0
M  END
$$$$

     RDKit          3D

 26 27  0  0  0  0  0  0  0  0999 V2000
   -3.4295    0.3824    0.6655 C   0  0  0  0  0  0  0  0  0  0  0  0
   -2.0814    0.1112    0.2031 N   0  0  0  0  0  0  0  0  0  0  0  0
   -1.8328    0.3363   -1.1871 C   0  0  0  0  0  0  0  0  0  0  0  0
   -0.6149   -0.3526   -1.7180 C   0  0  0  0  0  0  0  0  0  0  0  0
    0.6673    0.3016   -1.2047 C   0  0  0  0  0  0  0  0  0  0  0  0
    0.9989   -0.1833    0.1207 N   0  0  0  0  0  0  0  0  0  0  0  0
    2.3897   -0.0733    0.4176 C   0  0  0  0  0  0  0  0  0  0  0  0
    3.0300   -0.4354    1.5676 N   0  0  0  0  0  0  0  0  0  0  0  0
    4.3060   -0.1915    1.4886 N   0  0  0  0  0  0  0  0  0  0  0  0
    4.5374    0.3369    0.2856 N   0  0  0  0  0  0  0  0  0  0  0  0
    3.3867    0.4093   -0.3613 N   0  0  0  0  0  0  0  0  0  0  0  0
    0.2239   -0.7436    1.1796 C   0  0  0  0  0  0  0  0  0  0  0  0
   -1.1836   -0.3455    1.2046 C   0  0  0  0  0  0  0  0  0  0  0  0
   -1.7037   -0.4267    2.3585 O   0  0  0  0  0  0  0  0  0  0  0  0
   -4.0767   -0.5237    0.4798 H   0  0  0  0  0  0  0  0  0  0  0  0
   -3.8704    1.2746    0.1834 H   0  0  0  0  0  0  0  0  0  0  0  0
   -3.4529    0.5341    1.7682 H   0  0  0  0  0  0  0  0  0  0  0  0
   -2.7060   -0.0429   -1.7795 H   0  0  0  0  0  0  0  0  0  0  0  0
   -1.7598    1.4298   -1.4320 H   0  0  0  0  0  0  0  0  0  0  0  0
   -0.6499   -1.4231   -1.4480 H   0  0  0  0  0  0  0  0  0  0  0  0
   -0.6056   -0.2016   -2.8232 H   0  0  0  0  0  0  0  0  0  0  0  0
    0.5212    1.3821   -1.2570 H   0  0  0  0  0  0  0  0  0  0  0  0
    1.4673   -0.0272   -1.9094 H   0  0  0  0  0  0  0  0  0  0  0  0
    5.4655    0.6425   -0.0867 H   0  0  0  0  0  0  0  0  0  0  0  0
    0.6889   -0.4040    2.1465 H   0  0  0  0  0  0  0  0  0  0  0  0
    0.2845   -1.8556    1.1377 H   0  0  0  0  0  0  0  0  0  0  0  0
  1  2  1  0
  2  3  1  0
  3  4  1  0
  4  5  1  0
  5  6  1  0
  6  7  1  0
  7  8  1  0
  8  9  2  0
  9 10  1  0
 10 11  1  0
  6 12  1  0
 12 13  1  0
 13 14  2  0
 13  2  1  0
 11  7  2  0
  1 15  1  0
  1 16  1  0
  1 17  1  0
  3 18  1  0
  3 19  1  0
  4 20  1  0
  4 21  1  0
  5 22  1  0
  5 23  1  0
 10 24  1  0
 12 25  1  0
 12 26  1  0
M  END
$$$$

     RDKit          3D

 26 27  0  0  0  0  0  0  0  0999 V2000
   -3.3420    1.0142    0.1011 C   0  0  0  0  0  0  0  0  0  0  0  0
   -2.0392    0.4111    0.2716 N   0  0  0  0  0  0  0  0  0  0  0  0
   -1.9352   -1.0138    0.5029 C   0  0  0  0  0  0  0  0  0  0  0  0
   -0.8891   -1.5414   -0.4471 C   0  0  0  0  0  0  0  0  0  0  0  0
    0.4968   -1.4573    0.1030 C   0  0  0  0  0  0  0  0  0  0  0  0
    1.0205   -0.1101    0.1505 N   0  0  0  0  0  0  0  0  0  0  0  0
    2.4055   -0.0861    0.5158 C   0  0  0  0  0  0  0  0  0  0  0  0
    3.2194   -1.1391    0.8029 N   0  0  0  0  0  0  0  0  0  0  0  0
    4.4235   -0.7354    1.0946 N   0  0  0  0  0  0  0  0  0  0  0  0
    4.4014    0.5823    0.9995 N   0  0  0  0  0  0  0  0  0  0  0  0
    3.1955    0.9933    0.6520 N   0  0  0  0  0  0  0  0  0  0  0  0
    0.4689    1.1823   -0.0837 C   0  0  0  0  0  0  0  0  0  0  0  0
   -0.9607    1.3273    0.1888 C   0  0  0  0  0  0  0  0  0  0  0  0
   -1.3150    2.5186    0.3946 O   0  0  0  0  0  0  0  0  0  0  0  0
   -3.6789    1.0072   -0.9609 H   0  0  0  0  0  0  0  0  0  0  0  0
   -3.2791    2.0707    0.4534 H   0  0  0  0  0  0  0  0  0  0  0  0
   -4.1108    0.5339    0.7459 H   0  0  0  0  0  0  0  0  0  0  0  0
   -2.9112   -1.4725    0.3110 H   0  0  0  0  0  0  0  0  0  0  0  0
   -1.6849   -1.2078    1.5637 H   0  0  0  0  0  0  0  0  0  0  0  0
   -0.9765   -0.9881   -1.4050 H   0  0  0  0  0  0  0  0  0  0  0  0
   -1.1173   -2.6117   -0.6279 H   0  0  0  0  0  0  0  0  0  0  0  0
    1.1543   -2.0851   -0.5536 H   0  0  0  0  0  0  0  0  0  0  0  0
    0.5179   -1.8518    1.1389 H   0  0  0  0  0  0  0  0  0  0  0  0
    5.2564    1.1895    1.1849 H   0  0  0  0  0  0  0  0  0  0  0  0
    0.6779    1.5582   -1.1114 H   0  0  0  0  0  0  0  0  0  0  0  0
    1.0019    1.9117    0.5941 H   0  0  0  0  0  0  0  0  0  0  0  0
  1  2  1  0
  2  3  1  0
  3  4  1  0
  4  5  1  0
  5  6  1  0
  6  7  1  0
  7  8  1  0
  8  9  2  0
  9 10  1  0
 10 11  1  0
  6 12  1  0
 12 13  1  0
 13 14  2  0
 13  2  1  0
 11  7  2  0
  1 15  1  0
  1 16  1  0
  1 17  1  0
  3 18  1  0
  3 19  1  0
  4 20  1  0
  4 21  1  0
  5 22  1  0
  5 23  1  0
 10 24  1  0
 12 25  1  0
 12 26  1  0
M  END
$$$$

     RDKit          3D

 26 27  0  0  0  0  0  0  0  0999 V2000
   -2.7640    1.2620   -0.8351 C   0  0  0  0  0  0  0  0  0  0  0  0
   -1.6642    0.4677   -0.3072 N   0  0  0  0  0  0  0  0  0  0  0  0
   -1.1836   -0.6493   -1.1169 C   0  0  0  0  0  0  0  0  0  0  0  0
   -0.9128   -1.8287   -0.1916 C   0  0  0  0  0  0  0  0  0  0  0  0
    0.4954   -1.7583    0.3544 C   0  0  0  0  0  0  0  0  0  0  0  0
    0.8539   -0.4098    0.7486 N   0  0  0  0  0  0  0  0  0  0  0  0
    2.0596    0.0733    0.1814 C   0  0  0  0  0  0  0  0  0  0  0  0
    2.8800   -0.5705   -0.6589 N   0  0  0  0  0  0  0  0  0  0  0  0
    3.8780    0.2459   -0.9337 N   0  0  0  0  0  0  0  0  0  0  0  0
    3.7353    1.3812   -0.3094 N   0  0  0  0  0  0  0  0  0  0  0  0
    2.6030    1.2835    0.3895 N   0  0  0  0  0  0  0  0  0  0  0  0
    0.1233    0.4558    1.6333 C   0  0  0  0  0  0  0  0  0  0  0  0
   -1.1423    0.8520    0.9718 C   0  0  0  0  0  0  0  0  0  0  0  0
   -1.8965    1.6463    1.6035 O   0  0  0  0  0  0  0  0  0  0  0  0
   -3.3861    1.5438    0.0377 H   0  0  0  0  0  0  0  0  0  0  0  0
   -3.2879    0.6577   -1.5855 H   0  0  0  0  0  0  0  0  0  0  0  0
   -2.3219    2.1855   -1.2838 H   0  0  0  0  0  0  0  0  0  0  0  0
   -0.1948   -0.3800   -1.5755 H   0  0  0  0  0  0  0  0  0  0  0  0
   -1.9141   -0.9544   -1.8681 H   0  0  0  0  0  0  0  0  0  0  0  0
   -1.6768   -1.8076    0.5936 H   0  0  0  0  0  0  0  0  0  0  0  0
   -1.0086   -2.8049   -0.7428 H   0  0  0  0  0  0  0  0  0  0  0  0
    1.1636   -2.1146   -0.4561 H   0  0  0  0  0  0  0  0  0  0  0  0
    0.5639   -2.4153    1.2299 H   0  0  0  0  0  0  0  0  0  0  0  0
    4.3245    2.2375   -0.2968 H   0  0  0  0  0  0  0  0  0  0  0  0
    0.7091    1.3895    1.7808 H   0  0  0  0  0  0  0  0  0  0  0  0
   -0.0361    0.0118    2.6370 H   0  0  0  0  0  0  0  0  0  0  0  0
  1  2  1  0
  2  3  1  0
  3  4  1  0
  4  5  1  0
  5  6  1  0
  6  7  1  0
  7  8  1  0
  8  9  2  0
  9 10  1  0
 10 11  1  0
  6 12  1  0
 12 13  1  0
 13 14  2  0
 13  2  1  0
 11  7  2  0
  1 15  1  0
  1 16  1  0
  1 17  1  0
  3 18  1  0
  3 19  1  0
  4 20  1  0
  4 21  1  0
  5 22  1  0
  5 23  1  0
 10 24  1  0
 12 25  1  0
 12 26  1  0
M  END
$$$$

     RDKit          3D

 26 27  0  0  0  0  0  0  0  0999 V2000
   -2.9374    1.0146    0.8987 C   0  0  0  0  0  0  0  0  0  0  0  0
   -1.6883    0.4371    0.4039 N   0  0  0  0  0  0  0  0  0  0  0  0
   -1.4782   -0.9904    0.6265 C   0  0  0  0  0  0  0  0  0  0  0  0
   -0.9183   -1.6745   -0.5849 C   0  0  0  0  0  0  0  0  0  0  0  0
    0.5238   -1.4194   -0.8274 C   0  0  0  0  0  0  0  0  0  0  0  0
    0.9265   -0.0516   -0.7207 N   0  0  0  0  0  0  0  0  0  0  0  0
    2.1566    0.2413   -0.0592 C   0  0  0  0  0  0  0  0  0  0  0  0
    2.6906    1.4392    0.1356 N   0  0  0  0  0  0  0  0  0  0  0  0
    3.8189    1.2772    0.7794 N   0  0  0  0  0  0  0  0  0  0  0  0
    4.0007   -0.0116    0.9920 N   0  0  0  0  0  0  0  0  0  0  0  0
    2.9916   -0.6715    0.4856 N   0  0  0  0  0  0  0  0  0  0  0  0
    0.2315    1.1144   -1.2093 C   0  0  0  0  0  0  0  0  0  0  0  0
   -0.8626    1.4064   -0.2339 C   0  0  0  0  0  0  0  0  0  0  0  0
   -1.0905    2.6080    0.0638 O   0  0  0  0  0  0  0  0  0  0  0  0
   -3.6870    0.1932    0.9808 H   0  0  0  0  0  0  0  0  0  0  0  0
   -2.8001    1.5633    1.8413 H   0  0  0  0  0  0  0  0  0  0  0  0
   -3.3651    1.7198    0.1328 H   0  0  0  0  0  0  0  0  0  0  0  0
   -2.4872   -1.4156    0.8166 H   0  0  0  0  0  0  0  0  0  0  0  0
   -0.8622   -1.1932    1.5052 H   0  0  0  0  0  0  0  0  0  0  0  0
   -1.5690   -1.4597   -1.4734 H   0  0  0  0  0  0  0  0  0  0  0  0
   -1.0446   -2.7789   -0.4128 H   0  0  0  0  0  0  0  0  0  0  0  0
    0.7540   -1.7470   -1.8778 H   0  0  0  0  0  0  0  0  0  0  0  0
    1.1532   -2.0688   -0.1816 H   0  0  0  0  0  0  0  0  0  0  0  0
    4.8389   -0.4262    1.4957 H   0  0  0  0  0  0  0  0  0  0  0  0
    0.9046    1.9844   -1.3445 H   0  0  0  0  0  0  0  0  0  0  0  0
   -0.2004    0.9096   -2.2326 H   0  0  0  0  0  0  0  0  0  0  0  0
  1  2  1  0
  2  3  1  0
  3  4  1  0
  4  5  1  0
  5  6  1  0
  6  7  1  0
  7  8  1  0
  8  9  2  0
  9 10  1  0
 10 11  1  0
  6 12  1  0
 12 13  1  0
 13 14  2  0
 13  2  1  0
 11  7  2  0
  1 15  1  0
  1 16  1  0
  1 17  1  0
  3 18  1  0
  3 19  1  0
  4 20  1  0
  4 21  1  0
  5 22  1  0
  5 23  1  0
 10 24  1  0
 12 25  1  0
 12 26  1  0
M  END
$$$$
