
     RDKit          3D

 30 29  0  0  0  0  0  0  0  0999 V2000
   -3.8441   -0.7400    0.7539 C   0  0  0  0  0  0  0  0  0  0  0  0
   -2.4693   -1.1206    0.8391 N   0  0  0  0  0  0  0  0  0  0  0  0
   -1.6005   -0.1543    0.2000 C   0  0  0  0  0  0  0  0  0  0  0  0
   -1.7275    1.1555    0.9162 C   0  0  0  0  0  0  0  0  0  0  0  0
   -1.8795   -0.0541   -1.2903 C   0  0  0  0  0  0  0  0  0  0  0  0
   -0.1885   -0.5995    0.3333 C   0  0  0  0  0  0  0  0  0  0  0  0
    0.0846   -1.6759    0.9276 O   0  0  0  0  0  0  0  0  0  0  0  0
    0.8551    0.1784   -0.2043 N   0  0  0  0  0  0  0  0  0  0  0  0
    2.2567   -0.2170   -0.0992 C   0  0  1  0  0  0  0  0  0  0  0  0
    2.8731   -0.3609   -1.4542 C   0  0  0  0  0  0  0  0  0  0  0  0
    3.0041    0.8047    0.7064 C   0  0  0  0  0  0  0  0  0  0  0  0
    4.3895    0.6808    0.9655 N   0  0  0  0  0  0  0  0  0  0  0  0
    2.3881    1.7906    1.1600 O   0  0  0  0  0  0  0  0  0  0  0  0
   -4.0218    0.1759    0.1712 H   0  0  0  0  0  0  0  0  0  0  0  0
   -4.2736   -0.5515    1.7788 H   0  0  0  0  0  0  0  0  0  0  0  0
   -4.4269   -1.5737    0.2811 H   0  0  0  0  0  0  0  0  0  0  0  0
   -2.2746   -2.0569    0.4405 H   0  0  0  0  0  0  0  0  0  0  0  0
   -0.8109    1.7727    0.7694 H   0  0  0  0  0  0  0  0  0  0  0  0
   -2.6071    1.7610    0.5568 H   0  0  0  0  0  0  0  0  0  0  0  0
   -1.8210    0.9521    1.9973 H   0  0  0  0  0  0  0  0  0  0  0  0
   -2.9042    0.2453   -1.5282 H   0  0  0  0  0  0  0  0  0  0  0  0
   -1.7292   -1.1000   -1.6877 H   0  0  0  0  0  0  0  0  0  0  0  0
   -1.1154    0.6559   -1.6999 H   0  0  0  0  0  0  0  0  0  0  0  0
    0.6163    1.0776   -0.7000 H   0  0  0  0  0  0  0  0  0  0  0  0
    2.2778   -1.1746    0.4491 H   0  0  0  0  0  0  0  0  0  0  0  0
    3.7584   -1.0458   -1.3987 H   0  0  0  0  0  0  0  0  0  0  0  0
    2.1470   -0.7610   -2.1713 H   0  0  0  0  0  0  0  0  0  0  0  0
    3.2212    0.6487   -1.8135 H   0  0  0  0  0  0  0  0  0  0  0  0
    5.0024    0.1180    0.3612 H   0  0  0  0  0  0  0  0  0  0  0  0
    4.8197    1.1686    1.7920 H   0  0  0  0  0  0  0  0  0  0  0  0
  1  2  1  0
  2  3  1  0
  3  4  1  0
  3  5  1  0
  3  6  1  0
  6  7  2  0
  6  8  1  0
  8  9  1  0
  9 10  1  0
  9 11  1  0
 11 12  1  0
 11 13  2  0
  1 14  1  0
  1 15  1  0
  1 16  1  0
  2 17  1  0
  4 18  1  0
  4 19  1  0
  4 20  1  0
  5 21  1  0
  5 22  1  0
  5 23  1  0
  8 24  1  0
  9 25  1  1
 10 26  1  0
 10 27  1  0
 10 28  1  0
 12 29  1  0
 12 30  1  0
M  END
$$$$

     RDKit          3D

 30 29  0  0  0  0  0  0  0  0999 V2000
   -3.2786    1.3325    0.9550 C   0  0  0  0  0  0  0  0  0  0  0  0
   -1.9156    1.0368    0.7193 N   0  0  0  0  0  0  0  0  0  0  0  0
   -1.6077   -0.0251   -0.1996 C   0  0  0  0  0  0  0  0  0  0  0  0
   -2.2962    0.4382   -1.5675 C   0  0  0  0  0  0  0  0  0  0  0  0
   -2.1924   -1.3289    0.1660 C   0  0  0  0  0  0  0  0  0  0  0  0
   -0.2105    0.0260   -0.5270 C   0  0  0  0  0  0  0  0  0  0  0  0
    0.1689    0.2508   -1.7238 O   0  0  0  0  0  0  0  0  0  0  0  0
    0.8769   -0.1287    0.4144 N   0  0  0  0  0  0  0  0  0  0  0  0
    2.2306    0.0034    0.0181 C   0  0  1  0  0  0  0  0  0  0  0  0
    3.0918    0.6150    1.0691 C   0  0  0  0  0  0  0  0  0  0  0  0
    2.9132   -1.2373   -0.4435 C   0  0  0  0  0  0  0  0  0  0  0  0
    4.2474   -1.0478   -0.9795 N   0  0  0  0  0  0  0  0  0  0  0  0
    2.4361   -2.3846   -0.4270 O   0  0  0  0  0  0  0  0  0  0  0  0
   -3.8150    0.6944    1.6782 H   0  0  0  0  0  0  0  0  0  0  0  0
   -3.8941    1.4555    0.0694 H   0  0  0  0  0  0  0  0  0  0  0  0
   -3.3366    2.3775    1.4623 H   0  0  0  0  0  0  0  0  0  0  0  0
   -1.5067    0.6970    1.6501 H   0  0  0  0  0  0  0  0  0  0  0  0
   -1.8598    1.4133   -1.7016 H   0  0  0  0  0  0  0  0  0  0  0  0
   -1.8389   -0.2535   -2.2926 H   0  0  0  0  0  0  0  0  0  0  0  0
   -3.3451    0.3134   -1.5137 H   0  0  0  0  0  0  0  0  0  0  0  0
   -3.2541   -1.2069    0.5592 H   0  0  0  0  0  0  0  0  0  0  0  0
   -1.5778   -1.9142    0.8575 H   0  0  0  0  0  0  0  0  0  0  0  0
   -2.3201   -1.9950   -0.7855 H   0  0  0  0  0  0  0  0  0  0  0  0
    0.5508   -0.2659    1.3942 H   0  0  0  0  0  0  0  0  0  0  0  0
    2.3264    0.6610   -0.9100 H   0  0  0  0  0  0  0  0  0  0  0  0
    2.5125    1.2317    1.7787 H   0  0  0  0  0  0  0  0  0  0  0  0
    3.6551   -0.1674    1.6269 H   0  0  0  0  0  0  0  0  0  0  0  0
    3.8506    1.2822    0.5664 H   0  0  0  0  0  0  0  0  0  0  0  0
    4.3254   -0.4166   -1.8204 H   0  0  0  0  0  0  0  0  0  0  0  0
    5.0635   -1.4567   -0.5449 H   0  0  0  0  0  0  0  0  0  0  0  0
  1  2  1  0
  2  3  1  0
  3  4  1  0
  3  5  1  0
  3  6  1  0
  6  7  2  0
  6  8  1  0
  8  9  1  0
  9 10  1  0
  9 11  1  0
 11 12  1  0
 11 13  2  0
  1 14  1  0
  1 15  1  0
  1 16  1  0
  2 17  1  0
  4 18  1  0
  4 19  1  0
  4 20  1  0
  5 21  1  0
  5 22  1  0
  5 23  1  0
  8 24  1  0
  9 25  1  6
 10 26  1  0
 10 27  1  0
 10 28  1  0
 12 29  1  0
 12 30  1  0
M  END
$$$$

     RDKit          3D

 30 29  0  0  0  0  0  0  0  0999 V2000
   -3.7911    1.2022    0.1170 C   0  0  0  0  0  0  0  0  0  0  0  0
   -2.4418    1.2635    0.5562 N   0  0  0  0  0  0  0  0  0  0  0  0
   -1.5864    0.2248    0.0518 C   0  0  0  0  0  0  0  0  0  0  0  0
   -2.0216   -1.1522    0.4983 C   0  0  0  0  0  0  0  0  0  0  0  0
   -1.5735    0.2103   -1.4779 C   0  0  0  0  0  0  0  0  0  0  0  0
   -0.2010    0.5324    0.4695 C   0  0  0  0  0  0  0  0  0  0  0  0
    0.0604    1.5458    1.1402 O   0  0  0  0  0  0  0  0  0  0  0  0
    0.8263   -0.3478    0.0925 N   0  0  0  0  0  0  0  0  0  0  0  0
    2.2211   -0.1700    0.4296 C   0  0  1  0  0  0  0  0  0  0  0  0
    2.7494   -1.2599    1.3349 C   0  0  0  0  0  0  0  0  0  0  0  0
    3.0293   -0.0015   -0.7991 C   0  0  0  0  0  0  0  0  0  0  0  0
    4.4241    0.1979   -0.7956 N   0  0  0  0  0  0  0  0  0  0  0  0
    2.4634   -0.0328   -1.9442 O   0  0  0  0  0  0  0  0  0  0  0  0
   -4.4505    1.2320    1.0288 H   0  0  0  0  0  0  0  0  0  0  0  0
   -4.0459    0.3855   -0.5588 H   0  0  0  0  0  0  0  0  0  0  0  0
   -4.0246    2.1765   -0.4067 H   0  0  0  0  0  0  0  0  0  0  0  0
   -1.9682    2.1679    0.4792 H   0  0  0  0  0  0  0  0  0  0  0  0
   -1.5535   -1.8858   -0.1965 H   0  0  0  0  0  0  0  0  0  0  0  0
   -3.1208   -1.2091    0.3135 H   0  0  0  0  0  0  0  0  0  0  0  0
   -1.7439   -1.3951    1.5240 H   0  0  0  0  0  0  0  0  0  0  0  0
   -1.4754   -0.8371   -1.8207 H   0  0  0  0  0  0  0  0  0  0  0  0
   -2.5151    0.6169   -1.8841 H   0  0  0  0  0  0  0  0  0  0  0  0
   -0.7231    0.8205   -1.8577 H   0  0  0  0  0  0  0  0  0  0  0  0
    0.5873   -1.1920   -0.4686 H   0  0  0  0  0  0  0  0  0  0  0  0
    2.2885    0.7751    1.0103 H   0  0  0  0  0  0  0  0  0  0  0  0
    2.2567   -1.1099    2.3204 H   0  0  0  0  0  0  0  0  0  0  0  0
    2.6424   -2.2671    0.9344 H   0  0  0  0  0  0  0  0  0  0  0  0
    3.8249   -1.0361    1.4970 H   0  0  0  0  0  0  0  0  0  0  0  0
    5.0591   -0.6092   -0.8516 H   0  0  0  0  0  0  0  0  0  0  0  0
    4.8035    1.1544   -0.7363 H   0  0  0  0  0  0  0  0  0  0  0  0
  1  2  1  0
  2  3  1  0
  3  4  1  0
  3  5  1  0
  3  6  1  0
  6  7  2  0
  6  8  1  0
  8  9  1  0
  9 10  1  0
  9 11  1  0
 11 12  1  0
 11 13  2  0
  1 14  1  0
  1 15  1  0
  1 16  1  0
  2 17  1  0
  4 18  1  0
  4 19  1  0
  4 20  1  0
  5 21  1  0
  5 22  1  0
  5 23  1  0
  8 24  1  0
  9 25  1  1
 10 26  1  0
 10 27  1  0
 10 28  1  0
 12 29  1  0
 12 30  1  0
M  END
$$$$

     RDKit          3D

 30 29  0  0  0  0  0  0  0  0999 V2000
   -2.5575    1.6672   -0.9199 C   0  0  0  0  0  0  0  0  0  0  0  0
   -2.6375    0.2278   -1.0449 N   0  0  0  0  0  0  0  0  0  0  0  0
   -1.7645   -0.3653   -0.0522 C   0  0  0  0  0  0  0  0  0  0  0  0
   -2.3026    0.0470    1.3012 C   0  0  0  0  0  0  0  0  0  0  0  0
   -1.7896   -1.8811   -0.1743 C   0  0  0  0  0  0  0  0  0  0  0  0
   -0.3832    0.0977   -0.2828 C   0  0  0  0  0  0  0  0  0  0  0  0
   -0.1458    0.8817   -1.2326 O   0  0  0  0  0  0  0  0  0  0  0  0
    0.7212   -0.2968    0.5210 N   0  0  0  0  0  0  0  0  0  0  0  0
    2.0659    0.1931    0.2462 C   0  0  1  0  0  0  0  0  0  0  0  0
    2.5911    1.0370    1.3826 C   0  0  0  0  0  0  0  0  0  0  0  0
    2.9611   -0.9349   -0.0617 C   0  0  0  0  0  0  0  0  0  0  0  0
    4.3160   -0.6607   -0.3586 N   0  0  0  0  0  0  0  0  0  0  0  0
    2.5582   -2.1244   -0.0680 O   0  0  0  0  0  0  0  0  0  0  0  0
   -1.8621    2.0138   -0.1312 H   0  0  0  0  0  0  0  0  0  0  0  0
   -3.5660    2.0515   -0.6595 H   0  0  0  0  0  0  0  0  0  0  0  0
   -2.1977    2.1017   -1.8986 H   0  0  0  0  0  0  0  0  0  0  0  0
   -3.5805   -0.1565   -0.8961 H   0  0  0  0  0  0  0  0  0  0  0  0
   -1.5224    0.2155    2.0551 H   0  0  0  0  0  0  0  0  0  0  0  0
   -2.9376    0.9376    1.2195 H   0  0  0  0  0  0  0  0  0  0  0  0
   -2.9519   -0.8084    1.6512 H   0  0  0  0  0  0  0  0  0  0  0  0
   -0.7716   -2.2898   -0.0101 H   0  0  0  0  0  0  0  0  0  0  0  0
   -2.1008   -2.1887   -1.1925 H   0  0  0  0  0  0  0  0  0  0  0  0
   -2.4989   -2.3035    0.5603 H   0  0  0  0  0  0  0  0  0  0  0  0
    0.5367   -0.9402    1.3028 H   0  0  0  0  0  0  0  0  0  0  0  0
    2.0121    0.8702   -0.6470 H   0  0  0  0  0  0  0  0  0  0  0  0
    3.6930    1.1120    1.2360 H   0  0  0  0  0  0  0  0  0  0  0  0
    2.1716    2.0543    1.3270 H   0  0  0  0  0  0  0  0  0  0  0  0
    2.3393    0.5606    2.3351 H   0  0  0  0  0  0  0  0  0  0  0  0
    4.5743   -0.3937   -1.3233 H   0  0  0  0  0  0  0  0  0  0  0  0
    5.0300   -0.7248    0.3685 H   0  0  0  0  0  0  0  0  0  0  0  0
  1  2  1  0
  2  3  1  0
  3  4  1  0
  3  5  1  0
  3  6  1  0
  6  7  2  0
  6  8  1  0
  8  9  1  0
  9 10  1  0
  9 11  1  0
 11 12  1  0
 11 13  2  0
  1 14  1  0
  1 15  1  0
  1 16  1  0
  2 17  1  0
  4 18  1  0
  4 19  1  0
  4 20  1  0
  5 21  1  0
  5 22  1  0
  5 23  1  0
  8 24  1  0
  9 25  1  6
 10 26  1  0
 10 27  1  0
 10 28  1  0
 12 29  1  0
 12 30  1  0
M  END
$$$$

     RDKit          3D

 30 29  0  0  0  0  0  0  0  0999 V2000
   -2.5435    1.5143   -1.0521 C   0  0  0  0  0  0  0  0  0  0  0  0
   -1.4347    1.1577   -0.2007 N   0  0  0  0  0  0  0  0  0  0  0  0
   -1.6074   -0.1060    0.4460 C   0  0  0  0  0  0  0  0  0  0  0  0
   -2.4087    0.0457    1.7425 C   0  0  0  0  0  0  0  0  0  0  0  0
   -2.3071   -1.1035   -0.3727 C   0  0  0  0  0  0  0  0  0  0  0  0
   -0.2341   -0.6303    0.8172 C   0  0  0  0  0  0  0  0  0  0  0  0
    0.0248   -1.2178    1.8388 O   0  0  0  0  0  0  0  0  0  0  0  0
    0.7548   -0.3624   -0.1881 N   0  0  0  0  0  0  0  0  0  0  0  0
    2.1404   -0.7645   -0.0962 C   0  0  1  0  0  0  0  0  0  0  0  0
    2.7160   -0.8031   -1.4768 C   0  0  0  0  0  0  0  0  0  0  0  0
    2.8312    0.2743    0.7515 C   0  0  0  0  0  0  0  0  0  0  0  0
    4.1005    0.7744    0.4421 N   0  0  0  0  0  0  0  0  0  0  0  0
    2.2059    0.6629    1.7628 O   0  0  0  0  0  0  0  0  0  0  0  0
   -2.4202    0.8218   -1.9695 H   0  0  0  0  0  0  0  0  0  0  0  0
   -3.5292    1.4721   -0.6636 H   0  0  0  0  0  0  0  0  0  0  0  0
   -2.3119    2.4978   -1.4872 H   0  0  0  0  0  0  0  0  0  0  0  0
   -1.0734    1.9247    0.3636 H   0  0  0  0  0  0  0  0  0  0  0  0
   -1.8096   -0.4744    2.5635 H   0  0  0  0  0  0  0  0  0  0  0  0
   -2.5182    1.1024    2.0536 H   0  0  0  0  0  0  0  0  0  0  0  0
   -3.3784   -0.4546    1.7100 H   0  0  0  0  0  0  0  0  0  0  0  0
   -3.2117   -0.7034   -0.8944 H   0  0  0  0  0  0  0  0  0  0  0  0
   -1.6383   -1.6949   -1.0094 H   0  0  0  0  0  0  0  0  0  0  0  0
   -2.7579   -1.8581    0.3471 H   0  0  0  0  0  0  0  0  0  0  0  0
    0.4892    0.2370   -1.0023 H   0  0  0  0  0  0  0  0  0  0  0  0
    2.2184   -1.7505    0.3963 H   0  0  0  0  0  0  0  0  0  0  0  0
    2.2099   -1.6079   -2.0574 H   0  0  0  0  0  0  0  0  0  0  0  0
    3.7728   -1.0489   -1.4281 H   0  0  0  0  0  0  0  0  0  0  0  0
    2.5480    0.1602   -2.0232 H   0  0  0  0  0  0  0  0  0  0  0  0
    4.6900    1.1848    1.2158 H   0  0  0  0  0  0  0  0  0  0  0  0
    4.4825    0.7501   -0.5293 H   0  0  0  0  0  0  0  0  0  0  0  0
  1  2  1  0
  2  3  1  0
  3  4  1  0
  3  5  1  0
  3  6  1  0
  6  7  2  0
  6  8  1  0
  8  9  1  0
  9 10  1  0
  9 11  1  0
 11 12  1  0
 11 13  2  0
  1 14  1  0
  1 15  1  0
  1 16  1  0
  2 17  1  0
  4 18  1  0
  4 19  1  0
  4 20  1  0
  5 21  1  0
  5 22  1  0
  5 23  1  0
  8 24  1  0
  9 25  1  1
 10 26  1  0
 10 27  1  0
 10 28  1  0
 12 29  1  0
 12 30  1  0
M  END
$$$$

     RDKit          3D

 30 29  0  0  0  0  0  0  0  0999 V2000
   -3.0739   -0.4335    1.5209 C   0  0  0  0  0  0  0  0  0  0  0  0
   -2.9049   -0.4252    0.1086 N   0  0  0  0  0  0  0  0  0  0  0  0
   -1.7426    0.2558   -0.3731 C   0  0  0  0  0  0  0  0  0  0  0  0
   -1.7483    1.7309   -0.0397 C   0  0  0  0  0  0  0  0  0  0  0  0
   -1.7638    0.1639   -1.9006 C   0  0  0  0  0  0  0  0  0  0  0  0
   -0.5427   -0.4250    0.1704 C   0  0  0  0  0  0  0  0  0  0  0  0
   -0.6591   -1.4182    0.9210 O   0  0  0  0  0  0  0  0  0  0  0  0
    0.7560    0.0497   -0.1604 N   0  0  0  0  0  0  0  0  0  0  0  0
    1.9731   -0.5517    0.3242 C   0  0  1  0  0  0  0  0  0  0  0  0
    2.8434   -1.0628   -0.8270 C   0  0  0  0  0  0  0  0  0  0  0  0
    2.7613    0.4853    1.0194 C   0  0  0  0  0  0  0  0  0  0  0  0
    4.0153    0.1914    1.5987 N   0  0  0  0  0  0  0  0  0  0  0  0
    2.3116    1.6506    1.0990 O   0  0  0  0  0  0  0  0  0  0  0  0
   -2.2581    0.1109    2.0752 H   0  0  0  0  0  0  0  0  0  0  0  0
   -4.0645   -0.0531    1.8458 H   0  0  0  0  0  0  0  0  0  0  0  0
   -3.0105   -1.4789    1.8846 H   0  0  0  0  0  0  0  0  0  0  0  0
   -2.9925   -1.3931   -0.2615 H   0  0  0  0  0  0  0  0  0  0  0  0
   -1.9882    1.8887    1.0307 H   0  0  0  0  0  0  0  0  0  0  0  0
   -2.4736    2.2106   -0.7268 H   0  0  0  0  0  0  0  0  0  0  0  0
   -0.7468    2.1291   -0.3153 H   0  0  0  0  0  0  0  0  0  0  0  0
   -1.2062   -0.7563   -2.1722 H   0  0  0  0  0  0  0  0  0  0  0  0
   -1.3303    1.0670   -2.3615 H   0  0  0  0  0  0  0  0  0  0  0  0
   -2.8111    0.0064   -2.2391 H   0  0  0  0  0  0  0  0  0  0  0  0
    0.7922    0.8824   -0.7920 H   0  0  0  0  0  0  0  0  0  0  0  0
    1.7803   -1.4209    0.9875 H   0  0  0  0  0  0  0  0  0  0  0  0
    2.8497   -2.1848   -0.8448 H   0  0  0  0  0  0  0  0  0  0  0  0
    2.3674   -0.7120   -1.7668 H   0  0  0  0  0  0  0  0  0  0  0  0
    3.8625   -0.6673   -0.7795 H   0  0  0  0  0  0  0  0  0  0  0  0
    4.7341   -0.3934    1.1116 H   0  0  0  0  0  0  0  0  0  0  0  0
    4.2701    0.5537    2.5472 H   0  0  0  0  0  0  0  0  0  0  0  0
  1  2  1  0
  2  3  1  0
  3  4  1  0
  3  5  1  0
  3  6  1  0
  6  7  2  0
  6  8  1  0
  8  9  1  0
  9 10  1  0
  9 11  1  0
 11 12  1  0
 11 13  2  0
  1 14  1  0
  1 15  1  0
  1 16  1  0
  2 17  1  0
  4 18  1  0
  4 19  1  0
  4 20  1  0
  5 21  1  0
  5 22  1  0
  5 23  1  0
  8 24  1  0
  9 25  1  1
 10 26  1  0
 10 27  1  0
 10 28  1  0
 12 29  1  0
 12 30  1  0
M  END
$$$$

     RDKit          3D

 30 29  0  0  0  0  0  0  0  0999 V2000
   -2.7817   -1.5463   -0.3080 C   0  0  0  0  0  0  0  0  0  0  0  0
   -2.3192   -0.3200   -0.8736 N   0  0  0  0  0  0  0  0  0  0  0  0
   -1.4934    0.5318   -0.0900 C   0  0  0  0  0  0  0  0  0  0  0  0
   -2.3897    0.8025    1.1896 C   0  0  0  0  0  0  0  0  0  0  0  0
   -1.4330    1.8872   -0.7430 C   0  0  0  0  0  0  0  0  0  0  0  0
   -0.2549   -0.0360    0.3223 C   0  0  0  0  0  0  0  0  0  0  0  0
   -0.1949   -1.1777    0.8873 O   0  0  0  0  0  0  0  0  0  0  0  0
    1.0083    0.6274    0.1427 N   0  0  0  0  0  0  0  0  0  0  0  0
    2.2218    0.0544    0.5801 C   0  0  1  0  0  0  0  0  0  0  0  0
    2.2746   -1.3568    1.0675 C   0  0  0  0  0  0  0  0  0  0  0  0
    3.2561    0.3552   -0.3878 C   0  0  0  0  0  0  0  0  0  0  0  0
    3.3661   -0.2606   -1.6685 N   0  0  0  0  0  0  0  0  0  0  0  0
    4.1693    1.2369   -0.1178 O   0  0  0  0  0  0  0  0  0  0  0  0
   -3.0403   -2.2637   -1.1391 H   0  0  0  0  0  0  0  0  0  0  0  0
   -2.0966   -2.0797    0.3414 H   0  0  0  0  0  0  0  0  0  0  0  0
   -3.7750   -1.4465    0.2304 H   0  0  0  0  0  0  0  0  0  0  0  0
   -1.8893   -0.5523   -1.8081 H   0  0  0  0  0  0  0  0  0  0  0  0
   -3.3039    1.1961    0.7169 H   0  0  0  0  0  0  0  0  0  0  0  0
   -1.8502    1.5661    1.7536 H   0  0  0  0  0  0  0  0  0  0  0  0
   -2.5893   -0.1682    1.7041 H   0  0  0  0  0  0  0  0  0  0  0  0
   -0.6319    2.5541   -0.3903 H   0  0  0  0  0  0  0  0  0  0  0  0
   -1.4779    1.7521   -1.8404 H   0  0  0  0  0  0  0  0  0  0  0  0
   -2.3766    2.4643   -0.5113 H   0  0  0  0  0  0  0  0  0  0  0  0
    1.0429    1.6124   -0.2778 H   0  0  0  0  0  0  0  0  0  0  0  0
    2.5291    0.6288    1.5746 H   0  0  0  0  0  0  0  0  0  0  0  0
    3.3340   -1.4396    1.5338 H   0  0  0  0  0  0  0  0  0  0  0  0
    1.6786   -1.5234    2.0465 H   0  0  0  0  0  0  0  0  0  0  0  0
    2.2102   -2.1506    0.3615 H   0  0  0  0  0  0  0  0  0  0  0  0
    3.1111   -1.2491   -1.7808 H   0  0  0  0  0  0  0  0  0  0  0  0
    3.6955    0.3013   -2.5157 H   0  0  0  0  0  0  0  0  0  0  0  0
  1  2  1  0
  2  3  1  0
  3  4  1  0
  3  5  1  0
  3  6  1  0
  6  7  2  0
  6  8  1  0
  8  9  1  0
  9 10  1  0
  9 11  1  0
 11 12  1  0
 11 13  2  0
  1 14  1  0
  1 15  1  0
  1 16  1  0
  2 17  1  0
  4 18  1  0
  4 19  1  0
  4 20  1  0
  5 21  1  0
  5 22  1  0
  5 23  1  0
  8 24  1  0
  9 25  1  1
 10 26  1  0
 10 27  1  0
 10 28  1  0
 12 29  1  0
 12 30  1  0
M  END
$$$$

     RDKit          3D

 30 29  0  0  0  0  0  0  0  0999 V2000
   -3.9214   -0.2826   -0.1826 C   0  0  0  0  0  0  0  0  0  0  0  0
   -2.6355   -0.8454   -0.4945 N   0  0  0  0  0  0  0  0  0  0  0  0
   -1.5934    0.1056   -0.1609 C   0  0  0  0  0  0  0  0  0  0  0  0
   -1.7683    1.3392   -1.0122 C   0  0  0  0  0  0  0  0  0  0  0  0
   -1.6992    0.4013    1.3051 C   0  0  0  0  0  0  0  0  0  0  0  0
   -0.2608   -0.4834   -0.4286 C   0  0  0  0  0  0  0  0  0  0  0  0
   -0.1865   -1.6705   -0.8871 O   0  0  0  0  0  0  0  0  0  0  0  0
    0.9449    0.2146   -0.1979 N   0  0  0  0  0  0  0  0  0  0  0  0
    2.2045   -0.4341   -0.4866 C   0  0  1  0  0  0  0  0  0  0  0  0
    2.9308    0.3259   -1.5844 C   0  0  0  0  0  0  0  0  0  0  0  0
    3.0758   -0.4902    0.7126 C   0  0  0  0  0  0  0  0  0  0  0  0
    4.3521   -1.1011    0.5794 N   0  0  0  0  0  0  0  0  0  0  0  0
    2.7331   -0.0216    1.8379 O   0  0  0  0  0  0  0  0  0  0  0  0
   -4.6241   -1.1228    0.0076 H   0  0  0  0  0  0  0  0  0  0  0  0
   -4.2919    0.2950   -1.0350 H   0  0  0  0  0  0  0  0  0  0  0  0
   -3.9220    0.3469    0.7328 H   0  0  0  0  0  0  0  0  0  0  0  0
   -2.4898   -1.7755   -0.0530 H   0  0  0  0  0  0  0  0  0  0  0  0
   -1.4150    1.1875   -2.0484 H   0  0  0  0  0  0  0  0  0  0  0  0
   -1.1817    2.1607   -0.5235 H   0  0  0  0  0  0  0  0  0  0  0  0
   -2.8151    1.6975   -1.0587 H   0  0  0  0  0  0  0  0  0  0  0  0
   -2.2311   -0.4153    1.8423 H   0  0  0  0  0  0  0  0  0  0  0  0
   -2.2657    1.3625    1.4728 H   0  0  0  0  0  0  0  0  0  0  0  0
   -0.6875    0.5890    1.7191 H   0  0  0  0  0  0  0  0  0  0  0  0
    0.9209    1.1730    0.1713 H   0  0  0  0  0  0  0  0  0  0  0  0
    2.0330   -1.4446   -0.8682 H   0  0  0  0  0  0  0  0  0  0  0  0
    4.0092    0.2121   -1.4690 H   0  0  0  0  0  0  0  0  0  0  0  0
    2.6192    1.3937   -1.4968 H   0  0  0  0  0  0  0  0  0  0  0  0
    2.5362   -0.0330   -2.5603 H   0  0  0  0  0  0  0  0  0  0  0  0
    5.0984   -0.6931    0.0061 H   0  0  0  0  0  0  0  0  0  0  0  0
    4.5308   -1.9915    1.0817 H   0  0  0  0  0  0  0  0  0  0  0  0
  1  2  1  0
  2  3  1  0
  3  4  1  0
  3  5  1  0
  3  6  1  0
  6  7  2  0
  6  8  1  0
  8  9  1  0
  9 10  1  0
  9 11  1  0
 11 12  1  0
 11 13  2  0
  1 14  1  0
  1 15  1  0
  1 16  1  0
  2 17  1  0
  4 18  1  0
  4 19  1  0
  4 20  1  0
  5 21  1  0
  5 22  1  0
  5 23  1  0
  8 24  1  0
  9 25  1  6
 10 26  1  0
 10 27  1  0
 10 28  1  0
 12 29  1  0
 12 30  1  0
M  END
$$$$
