
     RDKit          3D

 24 24  0  0  0  0  0  0  0  0999 V2000
    2.9235    0.5181    0.3905 C   0  0  0  0  0  0  0  0  0  0  0  0
    1.8066    0.5633   -0.4208 O   0  0  0  0  0  0  0  0  0  0  0  0
    0.8330   -0.3449   -0.1033 C   0  0  2  0  0  0  0  0  0  0  0  0
    0.4785   -1.2547   -1.2573 C   0  0  0  0  0  0  0  0  0  0  0  0
   -0.5747   -2.1456   -0.7952 N   0  0  0  0  0  0  0  0  0  0  0  0
   -1.7916   -1.3861   -0.5386 C   0  0  0  0  0  0  0  0  0  0  0  0
   -1.5658   -0.3579    0.5276 C   0  0  0  0  0  0  0  0  0  0  0  0
   -0.3691    0.3853    0.2507 N   0  0  0  0  0  0  0  0  0  0  0  0
   -0.3861    1.8015    0.3281 C   0  0  0  0  0  0  0  0  0  0  0  0
   -1.5500    2.4993    0.6704 N   0  0  0  0  0  0  0  0  0  0  0  0
    0.6786    2.4556    0.0814 O   0  0  0  0  0  0  0  0  0  0  0  0
    3.3884   -0.4899    0.3230 H   0  0  0  0  0  0  0  0  0  0  0  0
    3.6600    1.2405   -0.0299 H   0  0  0  0  0  0  0  0  0  0  0  0
    2.7288    0.8376    1.4316 H   0  0  0  0  0  0  0  0  0  0  0  0
    1.0832   -0.9915    0.7665 H   0  0  0  0  0  0  0  0  0  0  0  0
    0.0808   -0.6711   -2.0954 H   0  0  0  0  0  0  0  0  0  0  0  0
    1.3582   -1.8693   -1.5062 H   0  0  0  0  0  0  0  0  0  0  0  0
   -0.3119   -2.6833    0.0482 H   0  0  0  0  0  0  0  0  0  0  0  0
   -2.5617   -2.1141   -0.2374 H   0  0  0  0  0  0  0  0  0  0  0  0
   -2.0563   -0.9003   -1.5037 H   0  0  0  0  0  0  0  0  0  0  0  0
   -1.4397   -0.8960    1.4987 H   0  0  0  0  0  0  0  0  0  0  0  0
   -2.4662    0.2950    0.5745 H   0  0  0  0  0  0  0  0  0  0  0  0
   -2.3005    2.6449   -0.0444 H   0  0  0  0  0  0  0  0  0  0  0  0
   -1.6461    2.8636    1.6413 H   0  0  0  0  0  0  0  0  0  0  0  0
  1  2  1  0
  2  3  1  0
  3  4  1  0
  4  5  1  0
  5  6  1  0
  6  7  1  0
  7  8  1  0
  8  9  1  0
  9 10  1  0
  9 11  2  0
  8  3  1  0
  1 12  1  0
  1 13  1  0
  1 14  1  0
  3 15  1  1
  4 16  1  0
  4 17  1  0
  5 18  1  0
  6 19  1  0
  6 20  1  0
  7 21  1  0
  7 22  1  0
 10 23  1  0
 10 24  1  0
M  END
$$$$

     RDKit          3D

 24 24  0  0  0  0  0  0  0  0999 V2000
    2.9895    0.3861    0.4213 C   0  0  0  0  0  0  0  0  0  0  0  0
    1.8934    0.3460   -0.4381 O   0  0  0  0  0  0  0  0  0  0  0  0
    0.8108   -0.3016    0.1044 C   0  0  2  0  0  0  0  0  0  0  0  0
    0.4874   -1.4940   -0.7919 C   0  0  0  0  0  0  0  0  0  0  0  0
   -0.5956   -2.1898   -0.2537 N   0  0  0  0  0  0  0  0  0  0  0  0
   -1.7809   -1.5152    0.0326 C   0  0  0  0  0  0  0  0  0  0  0  0
   -1.6851   -0.0651    0.3357 C   0  0  0  0  0  0  0  0  0  0  0  0
   -0.4019    0.5221    0.0885 N   0  0  0  0  0  0  0  0  0  0  0  0
   -0.2492    1.9087   -0.1793 C   0  0  0  0  0  0  0  0  0  0  0  0
   -1.4237    2.7215   -0.1975 N   0  0  0  0  0  0  0  0  0  0  0  0
    0.8647    2.4227   -0.3947 O   0  0  0  0  0  0  0  0  0  0  0  0
    3.3430   -0.6152    0.6981 H   0  0  0  0  0  0  0  0  0  0  0  0
    3.7954    0.9342   -0.1121 H   0  0  0  0  0  0  0  0  0  0  0  0
    2.7656    0.9915    1.3366 H   0  0  0  0  0  0  0  0  0  0  0  0
    0.9762   -0.6856    1.1264 H   0  0  0  0  0  0  0  0  0  0  0  0
    0.2023   -1.0551   -1.7833 H   0  0  0  0  0  0  0  0  0  0  0  0
    1.3639   -2.1560   -0.8875 H   0  0  0  0  0  0  0  0  0  0  0  0
   -0.4852   -3.1544    0.0343 H   0  0  0  0  0  0  0  0  0  0  0  0
   -2.5096   -1.6794   -0.8141 H   0  0  0  0  0  0  0  0  0  0  0  0
   -2.2858   -2.0113    0.9120 H   0  0  0  0  0  0  0  0  0  0  0  0
   -2.4376    0.5065   -0.2657 H   0  0  0  0  0  0  0  0  0  0  0  0
   -1.9493    0.1631    1.4084 H   0  0  0  0  0  0  0  0  0  0  0  0
   -1.8884    2.9016    0.7171 H   0  0  0  0  0  0  0  0  0  0  0  0
   -1.7999    3.1190   -1.0974 H   0  0  0  0  0  0  0  0  0  0  0  0
  1  2  1  0
  2  3  1  0
  3  4  1  0
  4  5  1  0
  5  6  1  0
  6  7  1  0
  7  8  1  0
  8  9  1  0
  9 10  1  0
  9 11  2  0
  8  3  1  0
  1 12  1  0
  1 13  1  0
  1 14  1  0
  3 15  1  1
  4 16  1  0
  4 17  1  0
  5 18  1  0
  6 19  1  0
  6 20  1  0
  7 21  1  0
  7 22  1  0
 10 23  1  0
 10 24  1  0
M  END
$$$$

     RDKit          3D

 24 24  0  0  0  0  0  0  0  0999 V2000
    2.6829   -1.3720    0.2582 C   0  0  0  0  0  0  0  0  0  0  0  0
    1.7420   -0.5275    0.8340 O   0  0  0  0  0  0  0  0  0  0  0  0
    0.9025   -0.0741   -0.1784 C   0  0  2  0  0  0  0  0  0  0  0  0
    1.0876    1.4488   -0.2484 C   0  0  0  0  0  0  0  0  0  0  0  0
   -0.1370    1.9853   -0.6604 N   0  0  0  0  0  0  0  0  0  0  0  0
   -1.1923    1.9862    0.2859 C   0  0  0  0  0  0  0  0  0  0  0  0
   -1.3608    0.5601    0.7827 C   0  0  0  0  0  0  0  0  0  0  0  0
   -0.4825   -0.3474    0.0548 N   0  0  0  0  0  0  0  0  0  0  0  0
   -1.0417   -1.5432   -0.4373 C   0  0  0  0  0  0  0  0  0  0  0  0
   -2.4059   -1.8688   -0.2374 N   0  0  0  0  0  0  0  0  0  0  0  0
   -0.3246   -2.3459   -1.0687 O   0  0  0  0  0  0  0  0  0  0  0  0
    3.2952   -0.8581   -0.5206 H   0  0  0  0  0  0  0  0  0  0  0  0
    3.4257   -1.6233    1.0616 H   0  0  0  0  0  0  0  0  0  0  0  0
    2.2282   -2.3181   -0.0929 H   0  0  0  0  0  0  0  0  0  0  0  0
    1.1825   -0.4989   -1.1652 H   0  0  0  0  0  0  0  0  0  0  0  0
    1.8928    1.7244   -0.9530 H   0  0  0  0  0  0  0  0  0  0  0  0
    1.3167    1.7953    0.8001 H   0  0  0  0  0  0  0  0  0  0  0  0
   -0.3578    2.0575   -1.6378 H   0  0  0  0  0  0  0  0  0  0  0  0
   -2.1103    2.3831   -0.1873 H   0  0  0  0  0  0  0  0  0  0  0  0
   -0.9422    2.6337    1.1504 H   0  0  0  0  0  0  0  0  0  0  0  0
   -2.4257    0.3005    0.6232 H   0  0  0  0  0  0  0  0  0  0  0  0
   -1.1430    0.4827    1.8656 H   0  0  0  0  0  0  0  0  0  0  0  0
   -3.0923   -1.8524   -1.0252 H   0  0  0  0  0  0  0  0  0  0  0  0
   -2.7398   -2.1280    0.6963 H   0  0  0  0  0  0  0  0  0  0  0  0
  1  2  1  0
  2  3  1  0
  3  4  1  0
  4  5  1  0
  5  6  1  0
  6  7  1  0
  7  8  1  0
  8  9  1  0
  9 10  1  0
  9 11  2  0
  8  3  1  0
  1 12  1  0
  1 13  1  0
  1 14  1  0
  3 15  1  6
  4 16  1  0
  4 17  1  0
  5 18  1  0
  6 19  1  0
  6 20  1  0
  7 21  1  0
  7 22  1  0
 10 23  1  0
 10 24  1  0
M  END
$$$$

     RDKit          3D

 24 24  0  0  0  0  0  0  0  0999 V2000
    2.7976    0.9589    0.2992 C   0  0  0  0  0  0  0  0  0  0  0  0
    1.7556    0.6699   -0.5764 O   0  0  0  0  0  0  0  0  0  0  0  0
    0.8461   -0.1374    0.0639 C   0  0  2  0  0  0  0  0  0  0  0  0
    0.6608   -1.4745   -0.6684 C   0  0  0  0  0  0  0  0  0  0  0  0
   -0.0893   -2.3017    0.2233 N   0  0  0  0  0  0  0  0  0  0  0  0
   -1.4049   -1.8214    0.5195 C   0  0  0  0  0  0  0  0  0  0  0  0
   -1.5635   -0.3552    0.6014 C   0  0  0  0  0  0  0  0  0  0  0  0
   -0.4856    0.4294    0.1186 N   0  0  0  0  0  0  0  0  0  0  0  0
   -0.6476    1.7699   -0.3232 C   0  0  0  0  0  0  0  0  0  0  0  0
   -1.9335    2.3512   -0.2825 N   0  0  0  0  0  0  0  0  0  0  0  0
    0.3075    2.4634   -0.7503 O   0  0  0  0  0  0  0  0  0  0  0  0
    2.4756    1.4757    1.2055 H   0  0  0  0  0  0  0  0  0  0  0  0
    3.5716    1.5666   -0.2341 H   0  0  0  0  0  0  0  0  0  0  0  0
    3.3010   -0.0168    0.5269 H   0  0  0  0  0  0  0  0  0  0  0  0
    1.1419   -0.3722    1.1142 H   0  0  0  0  0  0  0  0  0  0  0  0
    0.0762   -1.3183   -1.6075 H   0  0  0  0  0  0  0  0  0  0  0  0
    1.6115   -1.9573   -0.8957 H   0  0  0  0  0  0  0  0  0  0  0  0
    0.4888   -2.4081    1.1101 H   0  0  0  0  0  0  0  0  0  0  0  0
   -1.7336   -2.3339    1.4708 H   0  0  0  0  0  0  0  0  0  0  0  0
   -2.0877   -2.2168   -0.2680 H   0  0  0  0  0  0  0  0  0  0  0  0
   -2.5092   -0.0138    0.0939 H   0  0  0  0  0  0  0  0  0  0  0  0
   -1.7203   -0.0788    1.6844 H   0  0  0  0  0  0  0  0  0  0  0  0
   -2.7239    1.8460   -0.7495 H   0  0  0  0  0  0  0  0  0  0  0  0
   -2.1353    3.2749    0.1989 H   0  0  0  0  0  0  0  0  0  0  0  0
  1  2  1  0
  2  3  1  0
  3  4  1  0
  4  5  1  0
  5  6  1  0
  6  7  1  0
  7  8  1  0
  8  9  1  0
  9 10  1  0
  9 11  2  0
  8  3  1  0
  1 12  1  0
  1 13  1  0
  1 14  1  0
  3 15  1  1
  4 16  1  0
  4 17  1  0
  5 18  1  0
  6 19  1  0
  6 20  1  0
  7 21  1  0
  7 22  1  0
 10 23  1  0
 10 24  1  0
M  END
$$$$

     RDKit          3D

 24 24  0  0  0  0  0  0  0  0999 V2000
    2.9365    0.2464   -0.5251 C   0  0  0  0  0  0  0  0  0  0  0  0
    1.7065   -0.3725   -0.7633 O   0  0  0  0  0  0  0  0  0  0  0  0
    0.8575   -0.2527    0.3372 C   0  0  2  0  0  0  0  0  0  0  0  0
    0.4460   -1.6216    0.7873 C   0  0  0  0  0  0  0  0  0  0  0  0
   -0.9265   -1.8355    0.9850 N   0  0  0  0  0  0  0  0  0  0  0  0
   -1.8477   -1.2235    0.1199 C   0  0  0  0  0  0  0  0  0  0  0  0
   -1.2720   -0.2573   -0.8614 C   0  0  0  0  0  0  0  0  0  0  0  0
   -0.2882    0.5281   -0.1379 N   0  0  0  0  0  0  0  0  0  0  0  0
   -0.4213    1.9146    0.0881 C   0  0  0  0  0  0  0  0  0  0  0  0
   -1.5710    2.5611   -0.4182 N   0  0  0  0  0  0  0  0  0  0  0  0
    0.4758    2.5145    0.7228 O   0  0  0  0  0  0  0  0  0  0  0  0
    3.5707    0.1242   -1.4224 H   0  0  0  0  0  0  0  0  0  0  0  0
    2.7220    1.3161   -0.3143 H   0  0  0  0  0  0  0  0  0  0  0  0
    3.4327   -0.1946    0.3743 H   0  0  0  0  0  0  0  0  0  0  0  0
    1.4030    0.3120    1.1124 H   0  0  0  0  0  0  0  0  0  0  0  0
    0.9773   -1.8032    1.7670 H   0  0  0  0  0  0  0  0  0  0  0  0
    0.8552   -2.4179    0.1099 H   0  0  0  0  0  0  0  0  0  0  0  0
   -1.2529   -2.0077    1.9432 H   0  0  0  0  0  0  0  0  0  0  0  0
   -2.4377   -1.9927   -0.4516 H   0  0  0  0  0  0  0  0  0  0  0  0
   -2.5990   -0.6533    0.7398 H   0  0  0  0  0  0  0  0  0  0  0  0
   -0.7553   -0.8354   -1.6754 H   0  0  0  0  0  0  0  0  0  0  0  0
   -2.0592    0.3790   -1.3066 H   0  0  0  0  0  0  0  0  0  0  0  0
   -1.8234    2.4081   -1.4147 H   0  0  0  0  0  0  0  0  0  0  0  0
   -2.1289    3.1638    0.2036 H   0  0  0  0  0  0  0  0  0  0  0  0
  1  2  1  0
  2  3  1  0
  3  4  1  0
  4  5  1  0
  5  6  1  0
  6  7  1  0
  7  8  1  0
  8  9  1  0
  9 10  1  0
  9 11  2  0
  8  3  1  0
  1 12  1  0
  1 13  1  0
  1 14  1  0
  3 15  1  1
  4 16  1  0
  4 17  1  0
  5 18  1  0
  6 19  1  0
  6 20  1  0
  7 21  1  0
  7 22  1  0
 10 23  1  0
 10 24  1  0
M  END
$$$$

     RDKit          3D

 24 24  0  0  0  0  0  0  0  0999 V2000
    0.0361    2.8923    0.9693 C   0  0  0  0  0  0  0  0  0  0  0  0
   -0.1613    1.5710    1.1335 O   0  0  0  0  0  0  0  0  0  0  0  0
   -0.4269    0.8079    0.0233 C   0  0  2  0  0  0  0  0  0  0  0  0
   -1.7907    0.1673    0.0374 C   0  0  0  0  0  0  0  0  0  0  0  0
   -1.7129   -1.0270   -0.7808 N   0  0  0  0  0  0  0  0  0  0  0  0
   -1.0741   -2.0512    0.0390 C   0  0  0  0  0  0  0  0  0  0  0  0
    0.3287   -1.5696    0.3825 C   0  0  0  0  0  0  0  0  0  0  0  0
    0.5536   -0.2357   -0.1356 N   0  0  0  0  0  0  0  0  0  0  0  0
    1.7610    0.0269   -0.8074 C   0  0  0  0  0  0  0  0  0  0  0  0
    2.7831   -0.9168   -1.0151 N   0  0  0  0  0  0  0  0  0  0  0  0
    1.9478    1.1989   -1.2616 O   0  0  0  0  0  0  0  0  0  0  0  0
   -0.8007    3.4597    0.5243 H   0  0  0  0  0  0  0  0  0  0  0  0
    1.0097    3.0861    0.4798 H   0  0  0  0  0  0  0  0  0  0  0  0
    0.1540    3.3411    2.0008 H   0  0  0  0  0  0  0  0  0  0  0  0
   -0.4173    1.4818   -0.8582 H   0  0  0  0  0  0  0  0  0  0  0  0
   -2.0697   -0.1723    1.0654 H   0  0  0  0  0  0  0  0  0  0  0  0
   -2.5729    0.8072   -0.4038 H   0  0  0  0  0  0  0  0  0  0  0  0
   -2.6496   -1.3588   -1.0952 H   0  0  0  0  0  0  0  0  0  0  0  0
   -1.6609   -2.1344    0.9653 H   0  0  0  0  0  0  0  0  0  0  0  0
   -1.0741   -3.0296   -0.4756 H   0  0  0  0  0  0  0  0  0  0  0  0
    0.4678   -1.5599    1.4764 H   0  0  0  0  0  0  0  0  0  0  0  0
    1.0588   -2.2635   -0.0755 H   0  0  0  0  0  0  0  0  0  0  0  0
    3.0306   -1.1961   -1.9749 H   0  0  0  0  0  0  0  0  0  0  0  0
    3.2801   -1.3254   -0.2133 H   0  0  0  0  0  0  0  0  0  0  0  0
  1  2  1  0
  2  3  1  0
  3  4  1  0
  4  5  1  0
  5  6  1  0
  6  7  1  0
  7  8  1  0
  8  9  1  0
  9 10  1  0
  9 11  2  0
  8  3  1  0
  1 12  1  0
  1 13  1  0
  1 14  1  0
  3 15  1  6
  4 16  1  0
  4 17  1  0
  5 18  1  0
  6 19  1  0
  6 20  1  0
  7 21  1  0
  7 22  1  0
 10 23  1  0
 10 24  1  0
M  END
$$$$

     RDKit          3D

 24 24  0  0  0  0  0  0  0  0999 V2000
    2.8726   -0.5995   -0.7049 C   0  0  0  0  0  0  0  0  0  0  0  0
    1.5826   -0.3037   -1.1293 O   0  0  0  0  0  0  0  0  0  0  0  0
    0.6388   -0.5539   -0.1178 C   0  0  2  0  0  0  0  0  0  0  0  0
   -0.3111   -1.6001   -0.6970 C   0  0  0  0  0  0  0  0  0  0  0  0
   -1.3690   -1.9555    0.1954 N   0  0  0  0  0  0  0  0  0  0  0  0
   -1.7576   -0.9416    1.1299 C   0  0  0  0  0  0  0  0  0  0  0  0
   -1.5027    0.4605    0.6105 C   0  0  0  0  0  0  0  0  0  0  0  0
   -0.1571    0.6213    0.1297 N   0  0  0  0  0  0  0  0  0  0  0  0
    0.3445    1.9246   -0.0860 C   0  0  0  0  0  0  0  0  0  0  0  0
   -0.4583    3.0670    0.1643 N   0  0  0  0  0  0  0  0  0  0  0  0
    1.5446    2.0751   -0.5148 O   0  0  0  0  0  0  0  0  0  0  0  0
    3.5444   -0.3741   -1.5587 H   0  0  0  0  0  0  0  0  0  0  0  0
    2.9761   -1.7076   -0.5263 H   0  0  0  0  0  0  0  0  0  0  0  0
    3.2088   -0.0105    0.1525 H   0  0  0  0  0  0  0  0  0  0  0  0
    1.1415   -0.9331    0.7960 H   0  0  0  0  0  0  0  0  0  0  0  0
   -0.7376   -1.1300   -1.6223 H   0  0  0  0  0  0  0  0  0  0  0  0
    0.2847   -2.4723   -1.0218 H   0  0  0  0  0  0  0  0  0  0  0  0
   -2.2291   -2.2099   -0.3731 H   0  0  0  0  0  0  0  0  0  0  0  0
   -1.2448   -1.1113    2.1123 H   0  0  0  0  0  0  0  0  0  0  0  0
   -2.8505   -1.0093    1.3271 H   0  0  0  0  0  0  0  0  0  0  0  0
   -1.7631    1.1536    1.4398 H   0  0  0  0  0  0  0  0  0  0  0  0
   -2.2359    0.6203   -0.2250 H   0  0  0  0  0  0  0  0  0  0  0  0
   -1.2228    3.0334    0.8645 H   0  0  0  0  0  0  0  0  0  0  0  0
   -0.2990    3.9563   -0.3449 H   0  0  0  0  0  0  0  0  0  0  0  0
  1  2  1  0
  2  3  1  0
  3  4  1  0
  4  5  1  0
  5  6  1  0
  6  7  1  0
  7  8  1  0
  8  9  1  0
  9 10  1  0
  9 11  2  0
  8  3  1  0
  1 12  1  0
  1 13  1  0
  1 14  1  0
  3 15  1  1
  4 16  1  0
  4 17  1  0
  5 18  1  0
  6 19  1  0
  6 20  1  0
  7 21  1  0
  7 22  1  0
 10 23  1  0
 10 24  1  0
M  END
$$$$

     RDKit          3D

 24 24  0  0  0  0  0  0  0  0999 V2000
    2.7038   -1.2033   -0.5175 C   0  0  0  0  0  0  0  0  0  0  0  0
    1.6730   -1.0073    0.3768 O   0  0  0  0  0  0  0  0  0  0  0  0
    0.8164   -0.0022   -0.0106 C   0  0  2  0  0  0  0  0  0  0  0  0
    0.8522    1.1122    1.0477 C   0  0  0  0  0  0  0  0  0  0  0  0
    0.2194    2.2645    0.4541 N   0  0  0  0  0  0  0  0  0  0  0  0
   -0.9308    1.9585   -0.3355 C   0  0  0  0  0  0  0  0  0  0  0  0
   -1.5658    0.6369    0.0908 C   0  0  0  0  0  0  0  0  0  0  0  0
   -0.5758   -0.4336   -0.0649 N   0  0  0  0  0  0  0  0  0  0  0  0
   -0.9493   -1.7768   -0.2525 C   0  0  0  0  0  0  0  0  0  0  0  0
   -2.3334   -2.0900   -0.2901 N   0  0  0  0  0  0  0  0  0  0  0  0
   -0.0461   -2.6314   -0.3772 O   0  0  0  0  0  0  0  0  0  0  0  0
    2.3817   -1.4789   -1.5318 H   0  0  0  0  0  0  0  0  0  0  0  0
    3.3543   -2.0099   -0.1022 H   0  0  0  0  0  0  0  0  0  0  0  0
    3.3417   -0.2789   -0.5383 H   0  0  0  0  0  0  0  0  0  0  0  0
    1.1479    0.4331   -0.9671 H   0  0  0  0  0  0  0  0  0  0  0  0
    1.8749    1.3433    1.3483 H   0  0  0  0  0  0  0  0  0  0  0  0
    0.3003    0.7564    1.9509 H   0  0  0  0  0  0  0  0  0  0  0  0
    0.0277    2.9649    1.2168 H   0  0  0  0  0  0  0  0  0  0  0  0
   -1.7017    2.7391   -0.1455 H   0  0  0  0  0  0  0  0  0  0  0  0
   -0.6520    1.9234   -1.4121 H   0  0  0  0  0  0  0  0  0  0  0  0
   -1.8219    0.7236    1.1470 H   0  0  0  0  0  0  0  0  0  0  0  0
   -2.4757    0.4530   -0.4902 H   0  0  0  0  0  0  0  0  0  0  0  0
   -2.9149   -1.8889    0.5578 H   0  0  0  0  0  0  0  0  0  0  0  0
   -2.7258   -2.5077   -1.1549 H   0  0  0  0  0  0  0  0  0  0  0  0
  1  2  1  0
  2  3  1  0
  3  4  1  0
  4  5  1  0
  5  6  1  0
  6  7  1  0
  7  8  1  0
  8  9  1  0
  9 10  1  0
  9 11  2  0
  8  3  1  0
  1 12  1  0
  1 13  1  0
  1 14  1  0
  3 15  1  6
  4 16  1  0
  4 17  1  0
  5 18  1  0
  6 19  1  0
  6 20  1  0
  7 21  1  0
  7 22  1  0
 10 23  1  0
 10 24  1  0
M  END
$$$$
