
     RDKit          3D

 25 25  0  0  0  0  0  0  0  0999 V2000
   -2.8096    0.5671   -1.3456 C   0  0  0  0  0  0  0  0  0  0  0  0
   -2.0392   -0.5409   -1.1597 O   0  0  0  0  0  0  0  0  0  0  0  0
   -1.7059   -0.8490    0.1214 C   0  0  0  0  0  0  0  0  0  0  0  0
   -0.9273    0.1974    0.8540 C   0  0  1  0  0  0  0  0  0  0  0  0
   -0.6500   -0.2842    2.2020 N   0  0  0  0  0  0  0  0  0  0  0  0
    0.3399    0.6058    0.1649 C   0  0  0  0  0  0  0  0  0  0  0  0
    1.3133   -0.4591   -0.0476 C   0  0  0  0  0  0  0  0  0  0  0  0
    1.2528   -1.7568    0.2860 N   0  0  0  0  0  0  0  0  0  0  0  0
    2.3656   -2.3558   -0.1023 N   0  0  0  0  0  0  0  0  0  0  0  0
    3.1242   -1.4456   -0.6767 N   0  0  0  0  0  0  0  0  0  0  0  0
    2.4993   -0.2817   -0.6530 N   0  0  0  0  0  0  0  0  0  0  0  0
    3.0569    0.9315   -1.2031 C   0  0  0  0  0  0  0  0  0  0  0  0
   -2.2721    1.4523   -0.9503 H   0  0  0  0  0  0  0  0  0  0  0  0
   -2.9048    0.7378   -2.4461 H   0  0  0  0  0  0  0  0  0  0  0  0
   -3.8427    0.4887   -0.9636 H   0  0  0  0  0  0  0  0  0  0  0  0
   -1.1052   -1.7799    0.1182 H   0  0  0  0  0  0  0  0  0  0  0  0
   -2.6294   -1.1138    0.7107 H   0  0  0  0  0  0  0  0  0  0  0  0
   -1.5175    1.1415    1.0028 H   0  0  0  0  0  0  0  0  0  0  0  0
   -1.5706   -0.2200    2.7197 H   0  0  0  0  0  0  0  0  0  0  0  0
   -0.4327   -1.3094    2.1581 H   0  0  0  0  0  0  0  0  0  0  0  0
    0.0973    1.1085   -0.7921 H   0  0  0  0  0  0  0  0  0  0  0  0
    0.8076    1.3996    0.8161 H   0  0  0  0  0  0  0  0  0  0  0  0
    4.1508    0.9586   -1.0293 H   0  0  0  0  0  0  0  0  0  0  0  0
    2.6171    1.7744   -0.6631 H   0  0  0  0  0  0  0  0  0  0  0  0
    2.7822    1.0331   -2.2744 H   0  0  0  0  0  0  0  0  0  0  0  0
  1  2  1  0
  2  3  1  0
  3  4  1  0
  4  5  1  0
  4  6  1  0
  6  7  1  0
  7  8  2  0
  8  9  1  0
  9 10  2  0
 10 11  1  0
 11 12  1  0
 11  7  1  0
  1 13  1  0
  1 14  1  0
  1 15  1  0
  3 16  1  0
  3 17  1  0
  4 18  1  1
  5 19  1  0
  5 20  1  0
  6 21  1  0
  6 22  1  0
 12 23  1  0
 12 24  1  0
 12 25  1  0
M  END
$$$$

     RDKit          3D

 25 25  0  0  0  0  0  0  0  0999 V2000
    4.0490    0.4542   -0.1385 C   0  0  0  0  0  0  0  0  0  0  0  0
    2.8831   -0.0323    0.4429 O   0  0  0  0  0  0  0  0  0  0  0  0
    1.8607    0.0384   -0.4772 C   0  0  0  0  0  0  0  0  0  0  0  0
    0.5539   -0.4770    0.0887 C   0  0  1  0  0  0  0  0  0  0  0  0
    0.1820    0.3016    1.2260 N   0  0  0  0  0  0  0  0  0  0  0  0
   -0.5195   -0.4917   -0.9840 C   0  0  0  0  0  0  0  0  0  0  0  0
   -1.7979   -0.9883   -0.4593 C   0  0  0  0  0  0  0  0  0  0  0  0
   -2.2227   -2.2821   -0.4389 N   0  0  0  0  0  0  0  0  0  0  0  0
   -3.4070   -2.2818    0.1099 N   0  0  0  0  0  0  0  0  0  0  0  0
   -3.7690   -1.0689    0.4431 N   0  0  0  0  0  0  0  0  0  0  0  0
   -2.7765   -0.2518    0.0946 N   0  0  0  0  0  0  0  0  0  0  0  0
   -2.8302    1.1749    0.3141 C   0  0  0  0  0  0  0  0  0  0  0  0
    4.2680   -0.1912   -1.0295 H   0  0  0  0  0  0  0  0  0  0  0  0
    3.9720    1.5295   -0.4216 H   0  0  0  0  0  0  0  0  0  0  0  0
    4.8999    0.2891    0.5566 H   0  0  0  0  0  0  0  0  0  0  0  0
    2.1217   -0.6437   -1.3320 H   0  0  0  0  0  0  0  0  0  0  0  0
    1.6768    1.0787   -0.8478 H   0  0  0  0  0  0  0  0  0  0  0  0
    0.7232   -1.5273    0.4152 H   0  0  0  0  0  0  0  0  0  0  0  0
   -0.6269   -0.0537    1.7473 H   0  0  0  0  0  0  0  0  0  0  0  0
    0.1587    1.3091    1.0199 H   0  0  0  0  0  0  0  0  0  0  0  0
   -0.6191    0.5411   -1.3840 H   0  0  0  0  0  0  0  0  0  0  0  0
   -0.1747   -1.1231   -1.8247 H   0  0  0  0  0  0  0  0  0  0  0  0
   -3.7207    1.6413   -0.1830 H   0  0  0  0  0  0  0  0  0  0  0  0
   -2.9458    1.3763    1.4110 H   0  0  0  0  0  0  0  0  0  0  0  0
   -1.9391    1.6788   -0.0856 H   0  0  0  0  0  0  0  0  0  0  0  0
  1  2  1  0
  2  3  1  0
  3  4  1  0
  4  5  1  0
  4  6  1  0
  6  7  1  0
  7  8  2  0
  8  9  1  0
  9 10  2  0
 10 11  1  0
 11 12  1  0
 11  7  1  0
  1 13  1  0
  1 14  1  0
  1 15  1  0
  3 16  1  0
  3 17  1  0
  4 18  1  1
  5 19  1  0
  5 20  1  0
  6 21  1  0
  6 22  1  0
 12 23  1  0
 12 24  1  0
 12 25  1  0
M  END
$$$$

     RDKit          3D

 25 25  0  0  0  0  0  0  0  0999 V2000
    3.7689    0.1987    0.6972 C   0  0  0  0  0  0  0  0  0  0  0  0
    2.5151   -0.3347    0.5087 O   0  0  0  0  0  0  0  0  0  0  0  0
    1.7638    0.4236   -0.3852 C   0  0  0  0  0  0  0  0  0  0  0  0
    0.3960   -0.1321   -0.6099 C   0  0  1  0  0  0  0  0  0  0  0  0
    0.4456   -1.4754   -1.1493 N   0  0  0  0  0  0  0  0  0  0  0  0
   -0.4591   -0.0961    0.6386 C   0  0  0  0  0  0  0  0  0  0  0  0
   -1.7785   -0.6656    0.3006 C   0  0  0  0  0  0  0  0  0  0  0  0
   -2.1993   -1.9340    0.3652 N   0  0  0  0  0  0  0  0  0  0  0  0
   -3.4588   -2.0026   -0.0328 N   0  0  0  0  0  0  0  0  0  0  0  0
   -3.8443   -0.7779   -0.3523 N   0  0  0  0  0  0  0  0  0  0  0  0
   -2.8320    0.0559   -0.1559 N   0  0  0  0  0  0  0  0  0  0  0  0
   -2.8405    1.4905   -0.3863 C   0  0  0  0  0  0  0  0  0  0  0  0
    4.3280   -0.4324    1.4108 H   0  0  0  0  0  0  0  0  0  0  0  0
    3.7687    1.2279    1.0793 H   0  0  0  0  0  0  0  0  0  0  0  0
    4.3755    0.2102   -0.2496 H   0  0  0  0  0  0  0  0  0  0  0  0
    1.6691    1.4319    0.0384 H   0  0  0  0  0  0  0  0  0  0  0  0
    2.2706    0.4807   -1.3725 H   0  0  0  0  0  0  0  0  0  0  0  0
   -0.1074    0.5043   -1.3663 H   0  0  0  0  0  0  0  0  0  0  0  0
    1.4025   -1.7513   -1.4600 H   0  0  0  0  0  0  0  0  0  0  0  0
   -0.0215   -2.1782   -0.5633 H   0  0  0  0  0  0  0  0  0  0  0  0
   -0.5515    0.9472    0.9593 H   0  0  0  0  0  0  0  0  0  0  0  0
    0.0154   -0.7034    1.4601 H   0  0  0  0  0  0  0  0  0  0  0  0
   -3.4735    1.9885    0.3899 H   0  0  0  0  0  0  0  0  0  0  0  0
   -1.8196    1.8789   -0.3937 H   0  0  0  0  0  0  0  0  0  0  0  0
   -3.3331    1.6455   -1.3833 H   0  0  0  0  0  0  0  0  0  0  0  0
  1  2  1  0
  2  3  1  0
  3  4  1  0
  4  5  1  0
  4  6  1  0
  6  7  1  0
  7  8  2  0
  8  9  1  0
  9 10  2  0
 10 11  1  0
 11 12  1  0
 11  7  1  0
  1 13  1  0
  1 14  1  0
  1 15  1  0
  3 16  1  0
  3 17  1  0
  4 18  1  6
  5 19  1  0
  5 20  1  0
  6 21  1  0
  6 22  1  0
 12 23  1  0
 12 24  1  0
 12 25  1  0
M  END
$$$$

     RDKit          3D

 25 25  0  0  0  0  0  0  0  0999 V2000
   -3.7082   -0.0352    0.3984 C   0  0  0  0  0  0  0  0  0  0  0  0
   -2.8330    0.9672    0.1360 O   0  0  0  0  0  0  0  0  0  0  0  0
   -1.5625    0.6611   -0.2338 C   0  0  0  0  0  0  0  0  0  0  0  0
   -0.7485   -0.1318    0.7453 C   0  0  1  0  0  0  0  0  0  0  0  0
   -1.3155   -1.4392    1.0578 N   0  0  0  0  0  0  0  0  0  0  0  0
    0.6426   -0.3951    0.2798 C   0  0  0  0  0  0  0  0  0  0  0  0
    1.4761    0.7751    0.0200 C   0  0  0  0  0  0  0  0  0  0  0  0
    1.2422    2.0941    0.1267 N   0  0  0  0  0  0  0  0  0  0  0  0
    2.3343    2.7469   -0.2320 N   0  0  0  0  0  0  0  0  0  0  0  0
    3.2482    1.8701   -0.5612 N   0  0  0  0  0  0  0  0  0  0  0  0
    2.7527    0.6630   -0.4172 N   0  0  0  0  0  0  0  0  0  0  0  0
    3.4697   -0.5928   -0.6871 C   0  0  0  0  0  0  0  0  0  0  0  0
   -4.6930    0.4695    0.6625 H   0  0  0  0  0  0  0  0  0  0  0  0
   -3.4977   -0.6634    1.2871 H   0  0  0  0  0  0  0  0  0  0  0  0
   -3.9057   -0.7271   -0.4423 H   0  0  0  0  0  0  0  0  0  0  0  0
   -1.0235    1.6521   -0.3318 H   0  0  0  0  0  0  0  0  0  0  0  0
   -1.4871    0.2415   -1.2729 H   0  0  0  0  0  0  0  0  0  0  0  0
   -0.7038    0.5000    1.6795 H   0  0  0  0  0  0  0  0  0  0  0  0
   -0.5623   -2.0004    1.4966 H   0  0  0  0  0  0  0  0  0  0  0  0
   -1.7266   -1.9081    0.2529 H   0  0  0  0  0  0  0  0  0  0  0  0
    1.1509   -0.9792    1.1039 H   0  0  0  0  0  0  0  0  0  0  0  0
    0.5980   -1.1072   -0.5711 H   0  0  0  0  0  0  0  0  0  0  0  0
    3.4395   -1.1769    0.2456 H   0  0  0  0  0  0  0  0  0  0  0  0
    2.9247   -1.1154   -1.5049 H   0  0  0  0  0  0  0  0  0  0  0  0
    4.4886   -0.3687   -0.9898 H   0  0  0  0  0  0  0  0  0  0  0  0
  1  2  1  0
  2  3  1  0
  3  4  1  0
  4  5  1  0
  4  6  1  0
  6  7  1  0
  7  8  2  0
  8  9  1  0
  9 10  2  0
 10 11  1  0
 11 12  1  0
 11  7  1  0
  1 13  1  0
  1 14  1  0
  1 15  1  0
  3 16  1  0
  3 17  1  0
  4 18  1  1
  5 19  1  0
  5 20  1  0
  6 21  1  0
  6 22  1  0
 12 23  1  0
 12 24  1  0
 12 25  1  0
M  END
$$$$

     RDKit          3D

 25 25  0  0  0  0  0  0  0  0999 V2000
    2.6331    1.1956    0.6629 C   0  0  0  0  0  0  0  0  0  0  0  0
    2.9864    0.0031    0.1347 O   0  0  0  0  0  0  0  0  0  0  0  0
    2.2221   -0.6443   -0.7536 C   0  0  0  0  0  0  0  0  0  0  0  0
    0.8267   -0.9843   -0.3691 C   0  0  1  0  0  0  0  0  0  0  0  0
    0.8240   -1.7478    0.8456 N   0  0  0  0  0  0  0  0  0  0  0  0
   -0.1943    0.0861   -0.4368 C   0  0  0  0  0  0  0  0  0  0  0  0
   -1.5002   -0.4862   -0.0068 C   0  0  0  0  0  0  0  0  0  0  0  0
   -1.7365   -1.7436    0.3780 N   0  0  0  0  0  0  0  0  0  0  0  0
   -3.0274   -1.8187    0.6726 N   0  0  0  0  0  0  0  0  0  0  0  0
   -3.5870   -0.6527    0.4815 N   0  0  0  0  0  0  0  0  0  0  0  0
   -2.6662    0.1782    0.0646 N   0  0  0  0  0  0  0  0  0  0  0  0
   -2.8198    1.5892   -0.2781 C   0  0  0  0  0  0  0  0  0  0  0  0
    3.4929    1.5411    1.3119 H   0  0  0  0  0  0  0  0  0  0  0  0
    1.8470    0.9835    1.4540 H   0  0  0  0  0  0  0  0  0  0  0  0
    2.2930    1.9781   -0.0037 H   0  0  0  0  0  0  0  0  0  0  0  0
    2.7021   -1.6355   -1.0476 H   0  0  0  0  0  0  0  0  0  0  0  0
    2.1301   -0.0685   -1.7333 H   0  0  0  0  0  0  0  0  0  0  0  0
    0.4375   -1.7646   -1.1621 H   0  0  0  0  0  0  0  0  0  0  0  0
    0.2604   -1.2960    1.5929 H   0  0  0  0  0  0  0  0  0  0  0  0
    1.8097   -1.9409    1.1588 H   0  0  0  0  0  0  0  0  0  0  0  0
    0.0250    0.9741    0.1461 H   0  0  0  0  0  0  0  0  0  0  0  0
   -0.2649    0.4380   -1.5098 H   0  0  0  0  0  0  0  0  0  0  0  0
   -2.1477    2.2198    0.3298 H   0  0  0  0  0  0  0  0  0  0  0  0
   -2.6585    1.7253   -1.3611 H   0  0  0  0  0  0  0  0  0  0  0  0
   -3.8876    1.8710   -0.0597 H   0  0  0  0  0  0  0  0  0  0  0  0
  1  2  1  0
  2  3  1  0
  3  4  1  0
  4  5  1  0
  4  6  1  0
  6  7  1  0
  7  8  2  0
  8  9  1  0
  9 10  2  0
 10 11  1  0
 11 12  1  0
 11  7  1  0
  1 13  1  0
  1 14  1  0
  1 15  1  0
  3 16  1  0
  3 17  1  0
  4 18  1  6
  5 19  1  0
  5 20  1  0
  6 21  1  0
  6 22  1  0
 12 23  1  0
 12 24  1  0
 12 25  1  0
M  END
$$$$

     RDKit          3D

 25 25  0  0  0  0  0  0  0  0999 V2000
    3.9763    0.5107    0.1466 C   0  0  0  0  0  0  0  0  0  0  0  0
    2.7149    0.1547    0.6200 O   0  0  0  0  0  0  0  0  0  0  0  0
    1.8305   -0.1123   -0.4204 C   0  0  0  0  0  0  0  0  0  0  0  0
    0.5080   -0.4836    0.2149 C   0  0  1  0  0  0  0  0  0  0  0  0
    0.1130    0.6914    1.0069 N   0  0  0  0  0  0  0  0  0  0  0  0
   -0.5617   -0.7309   -0.8276 C   0  0  0  0  0  0  0  0  0  0  0  0
   -1.8556   -1.0928   -0.2433 C   0  0  0  0  0  0  0  0  0  0  0  0
   -2.2691   -2.3387    0.0336 N   0  0  0  0  0  0  0  0  0  0  0  0
   -3.4639   -2.3171    0.5446 N   0  0  0  0  0  0  0  0  0  0  0  0
   -3.8363   -1.0555    0.6038 N   0  0  0  0  0  0  0  0  0  0  0  0
   -2.8673   -0.2918    0.1270 N   0  0  0  0  0  0  0  0  0  0  0  0
   -2.9474    1.1458    0.0466 C   0  0  0  0  0  0  0  0  0  0  0  0
    4.3882   -0.3414   -0.4686 H   0  0  0  0  0  0  0  0  0  0  0  0
    4.7037    0.6537    0.9612 H   0  0  0  0  0  0  0  0  0  0  0  0
    3.9041    1.4199   -0.4530 H   0  0  0  0  0  0  0  0  0  0  0  0
    1.6939    0.8531   -0.9654 H   0  0  0  0  0  0  0  0  0  0  0  0
    2.2172   -0.9103   -1.0757 H   0  0  0  0  0  0  0  0  0  0  0  0
    0.6898   -1.3545    0.8506 H   0  0  0  0  0  0  0  0  0  0  0  0
   -0.0933    1.4997    0.4172 H   0  0  0  0  0  0  0  0  0  0  0  0
    0.9679    0.9288    1.5755 H   0  0  0  0  0  0  0  0  0  0  0  0
   -0.6407    0.0995   -1.5349 H   0  0  0  0  0  0  0  0  0  0  0  0
   -0.1899   -1.6098   -1.4326 H   0  0  0  0  0  0  0  0  0  0  0  0
   -2.5142    1.6607    0.9250 H   0  0  0  0  0  0  0  0  0  0  0  0
   -2.4578    1.5548   -0.8629 H   0  0  0  0  0  0  0  0  0  0  0  0
   -4.0104    1.4658   -0.0049 H   0  0  0  0  0  0  0  0  0  0  0  0
  1  2  1  0
  2  3  1  0
  3  4  1  0
  4  5  1  0
  4  6  1  0
  6  7  1  0
  7  8  2  0
  8  9  1  0
  9 10  2  0
 10 11  1  0
 11 12  1  0
 11  7  1  0
  1 13  1  0
  1 14  1  0
  1 15  1  0
  3 16  1  0
  3 17  1  0
  4 18  1  1
  5 19  1  0
  5 20  1  0
  6 21  1  0
  6 22  1  0
 12 23  1  0
 12 24  1  0
 12 25  1  0
M  END
$$$$

     RDKit          3D

 25 25  0  0  0  0  0  0  0  0999 V2000
   -3.6034    0.5576    0.0555 C   0  0  0  0  0  0  0  0  0  0  0  0
   -3.1413   -0.7337    0.0020 O   0  0  0  0  0  0  0  0  0  0  0  0
   -1.9029   -0.8986   -0.5590 C   0  0  0  0  0  0  0  0  0  0  0  0
   -0.8715   -0.1317    0.2166 C   0  0  1  0  0  0  0  0  0  0  0  0
   -0.8283   -0.5932    1.5822 N   0  0  0  0  0  0  0  0  0  0  0  0
    0.5137   -0.2914   -0.4028 C   0  0  0  0  0  0  0  0  0  0  0  0
    1.4832    0.4884    0.4086 C   0  0  0  0  0  0  0  0  0  0  0  0
    1.2386    1.2286    1.5119 N   0  0  0  0  0  0  0  0  0  0  0  0
    2.3872    1.7460    1.9055 N   0  0  0  0  0  0  0  0  0  0  0  0
    3.3400    1.3452    1.0733 N   0  0  0  0  0  0  0  0  0  0  0  0
    2.7968    0.5749    0.1534 N   0  0  0  0  0  0  0  0  0  0  0  0
    3.4938   -0.0551   -0.9258 C   0  0  0  0  0  0  0  0  0  0  0  0
   -3.6526    0.9429   -0.9840 H   0  0  0  0  0  0  0  0  0  0  0  0
   -3.0735    1.2113    0.7641 H   0  0  0  0  0  0  0  0  0  0  0  0
   -4.6593    0.5026    0.4409 H   0  0  0  0  0  0  0  0  0  0  0  0
   -1.8837   -0.5862   -1.6391 H   0  0  0  0  0  0  0  0  0  0  0  0
   -1.6161   -1.9660   -0.5663 H   0  0  0  0  0  0  0  0  0  0  0  0
   -1.1497    0.9389    0.2107 H   0  0  0  0  0  0  0  0  0  0  0  0
   -1.4818   -1.4122    1.7039 H   0  0  0  0  0  0  0  0  0  0  0  0
    0.1441   -0.8562    1.8583 H   0  0  0  0  0  0  0  0  0  0  0  0
    0.5218    0.0505   -1.4516 H   0  0  0  0  0  0  0  0  0  0  0  0
    0.8053   -1.3691   -0.3106 H   0  0  0  0  0  0  0  0  0  0  0  0
    4.2447   -0.7888   -0.5124 H   0  0  0  0  0  0  0  0  0  0  0  0
    4.0853    0.6818   -1.4905 H   0  0  0  0  0  0  0  0  0  0  0  0
    2.8098   -0.5863   -1.6124 H   0  0  0  0  0  0  0  0  0  0  0  0
  1  2  1  0
  2  3  1  0
  3  4  1  0
  4  5  1  0
  4  6  1  0
  6  7  1  0
  7  8  2  0
  8  9  1  0
  9 10  2  0
 10 11  1  0
 11 12  1  0
 11  7  1  0
  1 13  1  0
  1 14  1  0
  1 15  1  0
  3 16  1  0
  3 17  1  0
  4 18  1  1
  5 19  1  0
  5 20  1  0
  6 21  1  0
  6 22  1  0
 12 23  1  0
 12 24  1  0
 12 25  1  0
M  END
$$$$

     RDKit          3D

 25 25  0  0  0  0  0  0  0  0999 V2000
    2.7488    1.7028    0.1505 C   0  0  0  0  0  0  0  0  0  0  0  0
    1.9445    0.5925    0.4481 O   0  0  0  0  0  0  0  0  0  0  0  0
    1.6546   -0.1088   -0.7325 C   0  0  0  0  0  0  0  0  0  0  0  0
    0.7898   -1.3059   -0.4254 C   0  0  1  0  0  0  0  0  0  0  0  0
    1.5386   -2.1607    0.4954 N   0  0  0  0  0  0  0  0  0  0  0  0
   -0.4902   -0.8897    0.2319 C   0  0  0  0  0  0  0  0  0  0  0  0
   -1.3251    0.0119   -0.5952 C   0  0  0  0  0  0  0  0  0  0  0  0
   -1.1464    0.5000   -1.8229 N   0  0  0  0  0  0  0  0  0  0  0  0
   -2.1672    1.2756   -2.1597 N   0  0  0  0  0  0  0  0  0  0  0  0
   -3.0066    1.2850   -1.1407 N   0  0  0  0  0  0  0  0  0  0  0  0
   -2.5168    0.5242   -0.1776 N   0  0  0  0  0  0  0  0  0  0  0  0
   -3.1102    0.2483    1.1253 C   0  0  0  0  0  0  0  0  0  0  0  0
    3.6929    1.3514   -0.3158 H   0  0  0  0  0  0  0  0  0  0  0  0
    2.1758    2.3605   -0.5306 H   0  0  0  0  0  0  0  0  0  0  0  0
    2.9861    2.2538    1.0805 H   0  0  0  0  0  0  0  0  0  0  0  0
    2.6315   -0.4637   -1.1786 H   0  0  0  0  0  0  0  0  0  0  0  0
    1.1512    0.5872   -1.4175 H   0  0  0  0  0  0  0  0  0  0  0  0
    0.6042   -1.8702   -1.3530 H   0  0  0  0  0  0  0  0  0  0  0  0
    0.8948   -2.7774    1.0415 H   0  0  0  0  0  0  0  0  0  0  0  0
    2.0526   -1.5719    1.1882 H   0  0  0  0  0  0  0  0  0  0  0  0
   -0.2997   -0.4093    1.2243 H   0  0  0  0  0  0  0  0  0  0  0  0
   -1.1331   -1.7954    0.4308 H   0  0  0  0  0  0  0  0  0  0  0  0
   -2.4480    0.7304    1.8853 H   0  0  0  0  0  0  0  0  0  0  0  0
   -4.0801    0.7590    1.1954 H   0  0  0  0  0  0  0  0  0  0  0  0
   -3.1417   -0.8296    1.3528 H   0  0  0  0  0  0  0  0  0  0  0  0
  1  2  1  0
  2  3  1  0
  3  4  1  0
  4  5  1  0
  4  6  1  0
  6  7  1  0
  7  8  2  0
  8  9  1  0
  9 10  2  0
 10 11  1  0
 11 12  1  0
 11  7  1  0
  1 13  1  0
  1 14  1  0
  1 15  1  0
  3 16  1  0
  3 17  1  0
  4 18  1  6
  5 19  1  0
  5 20  1  0
  6 21  1  0
  6 22  1  0
 12 23  1  0
 12 24  1  0
 12 25  1  0
M  END
$$$$
