
     RDKit          3D

 27 27  0  0  0  0  0  0  0  0999 V2000
    3.7507    1.1538    0.4051 C   0  0  0  0  0  0  0  0  0  0  0  0
    3.3724   -0.1047   -0.3422 C   0  0  0  0  0  0  0  0  0  0  0  0
    2.0283   -0.0883   -0.7785 O   0  0  0  0  0  0  0  0  0  0  0  0
    0.9515    0.0208    0.1149 C   0  0  0  0  0  0  0  0  0  0  0  0
    1.2967    0.1011    1.3210 O   0  0  0  0  0  0  0  0  0  0  0  0
   -0.4282    0.0419   -0.2754 C   0  0  1  0  0  0  0  0  0  0  0  0
   -0.8360   -0.8723   -1.4211 C   0  0  0  0  0  0  0  0  0  0  0  0
   -2.3006   -0.8748   -1.3996 N   0  0  0  0  0  0  0  0  0  0  0  0
   -2.8622    0.3848   -0.9702 C   0  0  0  0  0  0  0  0  0  0  0  0
   -2.6775    0.4945    0.5461 C   0  0  0  0  0  0  0  0  0  0  0  0
   -1.3704   -0.1728    0.7705 N   0  0  0  0  0  0  0  0  0  0  0  0
   -1.2132   -0.9356    1.9142 C   0  0  0  0  0  0  0  0  0  0  0  0
   -0.2135   -1.5976    2.2722 O   0  0  0  0  0  0  0  0  0  0  0  0
    3.1709    2.0355    0.0706 H   0  0  0  0  0  0  0  0  0  0  0  0
    4.8248    1.3991    0.1921 H   0  0  0  0  0  0  0  0  0  0  0  0
    3.6733    1.0141    1.5036 H   0  0  0  0  0  0  0  0  0  0  0  0
    4.0065   -0.1992   -1.2368 H   0  0  0  0  0  0  0  0  0  0  0  0
    3.5980   -0.9585    0.3148 H   0  0  0  0  0  0  0  0  0  0  0  0
   -0.6015    1.0882   -0.7207 H   0  0  0  0  0  0  0  0  0  0  0  0
   -0.4526   -1.8896   -1.2614 H   0  0  0  0  0  0  0  0  0  0  0  0
   -0.5239   -0.4212   -2.3703 H   0  0  0  0  0  0  0  0  0  0  0  0
   -2.6232   -1.5995   -0.7192 H   0  0  0  0  0  0  0  0  0  0  0  0
   -2.4761    1.2563   -1.5037 H   0  0  0  0  0  0  0  0  0  0  0  0
   -3.9465    0.3301   -1.1558 H   0  0  0  0  0  0  0  0  0  0  0  0
   -2.6611    1.5342    0.8940 H   0  0  0  0  0  0  0  0  0  0  0  0
   -3.4359   -0.1396    1.0081 H   0  0  0  0  0  0  0  0  0  0  0  0
   -2.0506   -1.0007    2.6374 H   0  0  0  0  0  0  0  0  0  0  0  0
  1  2  1  0
  2  3  1  0
  3  4  1  0
  4  5  2  0
  4  6  1  0
  6  7  1  0
  7  8  1  0
  8  9  1  0
  9 10  1  0
 10 11  1  0
 11 12  1  0
 12 13  2  0
 11  6  1  0
  1 14  1  0
  1 15  1  0
  1 16  1  0
  2 17  1  0
  2 18  1  0
  6 19  1  6
  7 20  1  0
  7 21  1  0
  8 22  1  0
  9 23  1  0
  9 24  1  0
 10 25  1  0
 10 26  1  0
 12 27  1  0
M  END
$$$$

     RDKit          3D

 27 27  0  0  0  0  0  0  0  0999 V2000
    3.7891   -0.4125   -0.2849 C   0  0  0  0  0  0  0  0  0  0  0  0
    2.6900    0.3065   -1.0080 C   0  0  0  0  0  0  0  0  0  0  0  0
    1.4056   -0.0443   -0.6200 O   0  0  0  0  0  0  0  0  0  0  0  0
    0.8729    0.0813    0.6417 C   0  0  0  0  0  0  0  0  0  0  0  0
    1.6376    0.5627    1.5178 O   0  0  0  0  0  0  0  0  0  0  0  0
   -0.5066   -0.3059    1.0164 C   0  0  1  0  0  0  0  0  0  0  0  0
   -1.2731    0.8276    1.6610 C   0  0  0  0  0  0  0  0  0  0  0  0
   -1.6991    1.8068    0.6593 N   0  0  0  0  0  0  0  0  0  0  0  0
   -2.7067    1.1432   -0.1447 C   0  0  0  0  0  0  0  0  0  0  0  0
   -2.1542   -0.0386   -0.9032 C   0  0  0  0  0  0  0  0  0  0  0  0
   -1.2552   -0.8393   -0.0927 N   0  0  0  0  0  0  0  0  0  0  0  0
   -1.1207   -2.2173   -0.4266 C   0  0  0  0  0  0  0  0  0  0  0  0
   -0.3592   -2.9871    0.2266 O   0  0  0  0  0  0  0  0  0  0  0  0
    4.7550   -0.1059   -0.7381 H   0  0  0  0  0  0  0  0  0  0  0  0
    3.8199   -0.0199    0.7680 H   0  0  0  0  0  0  0  0  0  0  0  0
    3.7278   -1.4973   -0.3269 H   0  0  0  0  0  0  0  0  0  0  0  0
    2.8293    1.3888   -0.8935 H   0  0  0  0  0  0  0  0  0  0  0  0
    2.7894    0.0909   -2.1008 H   0  0  0  0  0  0  0  0  0  0  0  0
   -0.4317   -1.1032    1.7857 H   0  0  0  0  0  0  0  0  0  0  0  0
   -0.6882    1.2778    2.4675 H   0  0  0  0  0  0  0  0  0  0  0  0
   -2.2058    0.3909    2.0786 H   0  0  0  0  0  0  0  0  0  0  0  0
   -0.8976    2.0180    0.0239 H   0  0  0  0  0  0  0  0  0  0  0  0
   -3.5602    0.8479    0.4839 H   0  0  0  0  0  0  0  0  0  0  0  0
   -3.0899    1.8588   -0.9040 H   0  0  0  0  0  0  0  0  0  0  0  0
   -1.6856    0.3100   -1.8418 H   0  0  0  0  0  0  0  0  0  0  0  0
   -3.0269   -0.6644   -1.1959 H   0  0  0  0  0  0  0  0  0  0  0  0
   -1.6559   -2.6757   -1.2473 H   0  0  0  0  0  0  0  0  0  0  0  0
  1  2  1  0
  2  3  1  0
  3  4  1  0
  4  5  2  0
  4  6  1  0
  6  7  1  0
  7  8  1  0
  8  9  1  0
  9 10  1  0
 10 11  1  0
 11 12  1  0
 12 13  2  0
 11  6  1  0
  1 14  1  0
  1 15  1  0
  1 16  1  0
  2 17  1  0
  2 18  1  0
  6 19  1  1
  7 20  1  0
  7 21  1  0
  8 22  1  0
  9 23  1  0
  9 24  1  0
 10 25  1  0
 10 26  1  0
 12 27  1  0
M  END
$$$$

     RDKit          3D

 27 27  0  0  0  0  0  0  0  0999 V2000
    4.3370   -0.0198    0.2355 C   0  0  0  0  0  0  0  0  0  0  0  0
    3.1940   -0.7694   -0.4555 C   0  0  0  0  0  0  0  0  0  0  0  0
    1.9964   -0.2414    0.0907 O   0  0  0  0  0  0  0  0  0  0  0  0
    0.7391   -0.6506   -0.2676 C   0  0  0  0  0  0  0  0  0  0  0  0
    0.6102   -1.5487   -1.1322 O   0  0  0  0  0  0  0  0  0  0  0  0
   -0.4851   -0.0645    0.3356 C   0  0  1  0  0  0  0  0  0  0  0  0
   -0.4895    1.4162   -0.0140 C   0  0  0  0  0  0  0  0  0  0  0  0
   -1.7458    1.9409    0.5448 N   0  0  0  0  0  0  0  0  0  0  0  0
   -2.7929    1.5401   -0.3402 C   0  0  0  0  0  0  0  0  0  0  0  0
   -2.8011    0.0982   -0.7038 C   0  0  0  0  0  0  0  0  0  0  0  0
   -1.6764   -0.6509   -0.1953 N   0  0  0  0  0  0  0  0  0  0  0  0
   -1.7706   -2.0727   -0.2296 C   0  0  0  0  0  0  0  0  0  0  0  0
   -2.7865   -2.6813   -0.6816 O   0  0  0  0  0  0  0  0  0  0  0  0
    4.0538    1.0617    0.2491 H   0  0  0  0  0  0  0  0  0  0  0  0
    4.3589   -0.3915    1.2777 H   0  0  0  0  0  0  0  0  0  0  0  0
    5.2954   -0.1601   -0.2915 H   0  0  0  0  0  0  0  0  0  0  0  0
    3.2065   -0.5904   -1.5526 H   0  0  0  0  0  0  0  0  0  0  0  0
    3.2468   -1.8373   -0.2313 H   0  0  0  0  0  0  0  0  0  0  0  0
   -0.4339   -0.1688    1.4373 H   0  0  0  0  0  0  0  0  0  0  0  0
   -0.5418    1.5355   -1.1080 H   0  0  0  0  0  0  0  0  0  0  0  0
    0.3862    1.9426    0.3783 H   0  0  0  0  0  0  0  0  0  0  0  0
   -1.8736    1.5013    1.4902 H   0  0  0  0  0  0  0  0  0  0  0  0
   -3.7685    1.7966    0.1681 H   0  0  0  0  0  0  0  0  0  0  0  0
   -2.7325    2.2141   -1.2432 H   0  0  0  0  0  0  0  0  0  0  0  0
   -2.8229   -0.0734   -1.8166 H   0  0  0  0  0  0  0  0  0  0  0  0
   -3.7294   -0.4091   -0.3144 H   0  0  0  0  0  0  0  0  0  0  0  0
   -0.9737   -2.7172    0.1313 H   0  0  0  0  0  0  0  0  0  0  0  0
  1  2  1  0
  2  3  1  0
  3  4  1  0
  4  5  2  0
  4  6  1  0
  6  7  1  0
  7  8  1  0
  8  9  1  0
  9 10  1  0
 10 11  1  0
 11 12  1  0
 12 13  2  0
 11  6  1  0
  1 14  1  0
  1 15  1  0
  1 16  1  0
  2 17  1  0
  2 18  1  0
  6 19  1  1
  7 20  1  0
  7 21  1  0
  8 22  1  0
  9 23  1  0
  9 24  1  0
 10 25  1  0
 10 26  1  0
 12 27  1  0
M  END
$$$$

     RDKit          3D

 27 27  0  0  0  0  0  0  0  0999 V2000
    3.7828    0.7562    0.1198 C   0  0  0  0  0  0  0  0  0  0  0  0
    3.2575   -0.6609    0.2397 C   0  0  0  0  0  0  0  0  0  0  0  0
    1.9898   -0.7361   -0.4047 O   0  0  0  0  0  0  0  0  0  0  0  0
    0.9145    0.0406    0.0005 C   0  0  0  0  0  0  0  0  0  0  0  0
    1.1014    0.8136    0.9584 O   0  0  0  0  0  0  0  0  0  0  0  0
   -0.4181   -0.0602   -0.7015 C   0  0  1  0  0  0  0  0  0  0  0  0
   -0.8291   -1.4872   -0.6635 C   0  0  0  0  0  0  0  0  0  0  0  0
   -2.2333   -1.6491   -0.8978 N   0  0  0  0  0  0  0  0  0  0  0  0
   -2.9393   -1.0502    0.2257 C   0  0  0  0  0  0  0  0  0  0  0  0
   -2.7090    0.4177    0.1824 C   0  0  0  0  0  0  0  0  0  0  0  0
   -1.3713    0.8330   -0.1453 N   0  0  0  0  0  0  0  0  0  0  0  0
   -1.0202    2.1774    0.1001 C   0  0  0  0  0  0  0  0  0  0  0  0
   -1.8439    2.9719    0.5870 O   0  0  0  0  0  0  0  0  0  0  0  0
    3.3617    1.4401    0.8672 H   0  0  0  0  0  0  0  0  0  0  0  0
    4.8749    0.7172    0.2755 H   0  0  0  0  0  0  0  0  0  0  0  0
    3.6116    1.1247   -0.9117 H   0  0  0  0  0  0  0  0  0  0  0  0
    3.9702   -1.3127   -0.3009 H   0  0  0  0  0  0  0  0  0  0  0  0
    3.2216   -0.9747    1.2892 H   0  0  0  0  0  0  0  0  0  0  0  0
   -0.2466    0.2123   -1.7692 H   0  0  0  0  0  0  0  0  0  0  0  0
   -0.5823   -1.9795    0.3097 H   0  0  0  0  0  0  0  0  0  0  0  0
   -0.2984   -2.0755   -1.4611 H   0  0  0  0  0  0  0  0  0  0  0  0
   -2.5378   -1.1074   -1.7474 H   0  0  0  0  0  0  0  0  0  0  0  0
   -2.6111   -1.4754    1.1933 H   0  0  0  0  0  0  0  0  0  0  0  0
   -4.0259   -1.2397    0.1100 H   0  0  0  0  0  0  0  0  0  0  0  0
   -3.0036    0.9009    1.1589 H   0  0  0  0  0  0  0  0  0  0  0  0
   -3.3808    0.8809   -0.6003 H   0  0  0  0  0  0  0  0  0  0  0  0
   -0.0351    2.5222   -0.1339 H   0  0  0  0  0  0  0  0  0  0  0  0
  1  2  1  0
  2  3  1  0
  3  4  1  0
  4  5  2  0
  4  6  1  0
  6  7  1  0
  7  8  1  0
  8  9  1  0
  9 10  1  0
 10 11  1  0
 11 12  1  0
 12 13  2  0
 11  6  1  0
  1 14  1  0
  1 15  1  0
  1 16  1  0
  2 17  1  0
  2 18  1  0
  6 19  1  6
  7 20  1  0
  7 21  1  0
  8 22  1  0
  9 23  1  0
  9 24  1  0
 10 25  1  0
 10 26  1  0
 12 27  1  0
M  END
$$$$

     RDKit          3D

 27 27  0  0  0  0  0  0  0  0999 V2000
    3.8157   -0.6261    0.3549 C   0  0  0  0  0  0  0  0  0  0  0  0
    3.0657   -0.4095   -0.9350 C   0  0  0  0  0  0  0  0  0  0  0  0
    1.9120    0.3592   -0.7776 O   0  0  0  0  0  0  0  0  0  0  0  0
    0.8441    0.0162    0.0372 C   0  0  0  0  0  0  0  0  0  0  0  0
    0.9333   -1.0606    0.6707 O   0  0  0  0  0  0  0  0  0  0  0  0
   -0.3658    0.8346    0.1944 C   0  0  1  0  0  0  0  0  0  0  0  0
   -1.0408    1.1468   -1.1174 C   0  0  0  0  0  0  0  0  0  0  0  0
   -2.4672    0.9116   -1.0849 N   0  0  0  0  0  0  0  0  0  0  0  0
   -2.7610   -0.4637   -0.7200 C   0  0  0  0  0  0  0  0  0  0  0  0
   -2.2551   -0.7879    0.6549 C   0  0  0  0  0  0  0  0  0  0  0  0
   -1.2607    0.1652    1.1196 N   0  0  0  0  0  0  0  0  0  0  0  0
   -1.1635    0.4456    2.4998 C   0  0  0  0  0  0  0  0  0  0  0  0
   -1.9303   -0.1270    3.2996 O   0  0  0  0  0  0  0  0  0  0  0  0
    3.8824    0.2869    0.9754 H   0  0  0  0  0  0  0  0  0  0  0  0
    4.8668   -0.8869    0.0713 H   0  0  0  0  0  0  0  0  0  0  0  0
    3.4438   -1.5022    0.9295 H   0  0  0  0  0  0  0  0  0  0  0  0
    2.8787   -1.4051   -1.3820 H   0  0  0  0  0  0  0  0  0  0  0  0
    3.7457    0.1355   -1.6236 H   0  0  0  0  0  0  0  0  0  0  0  0
   -0.0357    1.8065    0.6631 H   0  0  0  0  0  0  0  0  0  0  0  0
   -0.6347    0.5536   -1.9576 H   0  0  0  0  0  0  0  0  0  0  0  0
   -0.8910    2.2132   -1.3829 H   0  0  0  0  0  0  0  0  0  0  0  0
   -2.9472    1.5443   -0.4089 H   0  0  0  0  0  0  0  0  0  0  0  0
   -3.8576   -0.5950   -0.8162 H   0  0  0  0  0  0  0  0  0  0  0  0
   -2.2921   -1.1311   -1.4996 H   0  0  0  0  0  0  0  0  0  0  0  0
   -1.9022   -1.8359    0.7179 H   0  0  0  0  0  0  0  0  0  0  0  0
   -3.1433   -0.7312    1.3474 H   0  0  0  0  0  0  0  0  0  0  0  0
   -0.4400    1.1431    2.8657 H   0  0  0  0  0  0  0  0  0  0  0  0
  1  2  1  0
  2  3  1  0
  3  4  1  0
  4  5  2  0
  4  6  1  0
  6  7  1  0
  7  8  1  0
  8  9  1  0
  9 10  1  0
 10 11  1  0
 11 12  1  0
 12 13  2  0
 11  6  1  0
  1 14  1  0
  1 15  1  0
  1 16  1  0
  2 17  1  0
  2 18  1  0
  6 19  1  1
  7 20  1  0
  7 21  1  0
  8 22  1  0
  9 23  1  0
  9 24  1  0
 10 25  1  0
 10 26  1  0
 12 27  1  0
M  END
$$$$

     RDKit          3D

 27 27  0  0  0  0  0  0  0  0999 V2000
    3.6538    0.1561    0.4930 C   0  0  0  0  0  0  0  0  0  0  0  0
    2.6097   -0.7960    1.0118 C   0  0  0  0  0  0  0  0  0  0  0  0
    1.3121   -0.2348    0.7542 O   0  0  0  0  0  0  0  0  0  0  0  0
    0.9000    0.0423   -0.5399 C   0  0  0  0  0  0  0  0  0  0  0  0
    1.7169   -0.2231   -1.4581 O   0  0  0  0  0  0  0  0  0  0  0  0
   -0.4169    0.6198   -0.8953 C   0  0  1  0  0  0  0  0  0  0  0  0
   -1.1445   -0.3307   -1.8176 C   0  0  0  0  0  0  0  0  0  0  0  0
   -1.7375   -1.4404   -1.1376 N   0  0  0  0  0  0  0  0  0  0  0  0
   -2.7090   -0.9539   -0.1731 C   0  0  0  0  0  0  0  0  0  0  0  0
   -1.8959   -0.2322    0.9087 C   0  0  0  0  0  0  0  0  0  0  0  0
   -1.2422    0.8696    0.2555 N   0  0  0  0  0  0  0  0  0  0  0  0
   -1.4116    2.1809    0.7425 C   0  0  0  0  0  0  0  0  0  0  0  0
   -0.8292    3.1587    0.1599 O   0  0  0  0  0  0  0  0  0  0  0  0
    4.2234    0.5904    1.3425 H   0  0  0  0  0  0  0  0  0  0  0  0
    4.3472   -0.3740   -0.1820 H   0  0  0  0  0  0  0  0  0  0  0  0
    3.1725    0.9687   -0.0752 H   0  0  0  0  0  0  0  0  0  0  0  0
    2.7256   -1.7574    0.4817 H   0  0  0  0  0  0  0  0  0  0  0  0
    2.7529   -0.9782    2.0871 H   0  0  0  0  0  0  0  0  0  0  0  0
   -0.2936    1.5760   -1.4845 H   0  0  0  0  0  0  0  0  0  0  0  0
   -1.9222    0.2381   -2.3510 H   0  0  0  0  0  0  0  0  0  0  0  0
   -0.3768   -0.7512   -2.5295 H   0  0  0  0  0  0  0  0  0  0  0  0
   -1.0424   -2.0575   -0.6832 H   0  0  0  0  0  0  0  0  0  0  0  0
   -3.3422   -1.7429    0.2419 H   0  0  0  0  0  0  0  0  0  0  0  0
   -3.3152   -0.1840   -0.7097 H   0  0  0  0  0  0  0  0  0  0  0  0
   -1.1433   -0.9332    1.3341 H   0  0  0  0  0  0  0  0  0  0  0  0
   -2.5831    0.1376    1.6776 H   0  0  0  0  0  0  0  0  0  0  0  0
   -2.0085    2.4513    1.5928 H   0  0  0  0  0  0  0  0  0  0  0  0
  1  2  1  0
  2  3  1  0
  3  4  1  0
  4  5  2  0
  4  6  1  0
  6  7  1  0
  7  8  1  0
  8  9  1  0
  9 10  1  0
 10 11  1  0
 11 12  1  0
 12 13  2  0
 11  6  1  0
  1 14  1  0
  1 15  1  0
  1 16  1  0
  2 17  1  0
  2 18  1  0
  6 19  1  6
  7 20  1  0
  7 21  1  0
  8 22  1  0
  9 23  1  0
  9 24  1  0
 10 25  1  0
 10 26  1  0
 12 27  1  0
M  END
$$$$

     RDKit          3D

 27 27  0  0  0  0  0  0  0  0999 V2000
    3.7170    0.3149   -0.6364 C   0  0  0  0  0  0  0  0  0  0  0  0
    3.1318    0.3150    0.7550 C   0  0  0  0  0  0  0  0  0  0  0  0
    1.9174   -0.4304    0.8218 O   0  0  0  0  0  0  0  0  0  0  0  0
    0.8107   -0.0968    0.0624 C   0  0  0  0  0  0  0  0  0  0  0  0
    0.8962    0.8936   -0.7020 O   0  0  0  0  0  0  0  0  0  0  0  0
   -0.4520   -0.8984    0.1533 C   0  0  1  0  0  0  0  0  0  0  0  0
   -0.9589   -0.9047    1.5986 C   0  0  0  0  0  0  0  0  0  0  0  0
   -1.4905    0.3949    1.9621 N   0  0  0  0  0  0  0  0  0  0  0  0
   -2.6785    0.6127    1.1391 C   0  0  0  0  0  0  0  0  0  0  0  0
   -2.2513    0.7786   -0.2914 C   0  0  0  0  0  0  0  0  0  0  0  0
   -1.4441   -0.3406   -0.7370 N   0  0  0  0  0  0  0  0  0  0  0  0
   -1.6183   -0.8890   -2.0300 C   0  0  0  0  0  0  0  0  0  0  0  0
   -2.4754   -0.3991   -2.7852 O   0  0  0  0  0  0  0  0  0  0  0  0
    2.9692   -0.1719   -1.3173 H   0  0  0  0  0  0  0  0  0  0  0  0
    3.8047    1.3721   -0.9894 H   0  0  0  0  0  0  0  0  0  0  0  0
    4.6799   -0.2009   -0.6910 H   0  0  0  0  0  0  0  0  0  0  0  0
    3.8419   -0.1789    1.4468 H   0  0  0  0  0  0  0  0  0  0  0  0
    2.9644    1.3520    1.1156 H   0  0  0  0  0  0  0  0  0  0  0  0
   -0.2136   -1.9554   -0.0836 H   0  0  0  0  0  0  0  0  0  0  0  0
   -1.7802   -1.6454    1.6562 H   0  0  0  0  0  0  0  0  0  0  0  0
   -0.0900   -1.1492    2.2268 H   0  0  0  0  0  0  0  0  0  0  0  0
   -0.8206    1.1512    1.7025 H   0  0  0  0  0  0  0  0  0  0  0  0
   -3.3233   -0.2869    1.2251 H   0  0  0  0  0  0  0  0  0  0  0  0
   -3.2453    1.4953    1.4512 H   0  0  0  0  0  0  0  0  0  0  0  0
   -3.1629    0.8395   -0.9159 H   0  0  0  0  0  0  0  0  0  0  0  0
   -1.7219    1.7444   -0.4000 H   0  0  0  0  0  0  0  0  0  0  0  0
   -1.0064   -1.7165   -2.3309 H   0  0  0  0  0  0  0  0  0  0  0  0
  1  2  1  0
  2  3  1  0
  3  4  1  0
  4  5  2  0
  4  6  1  0
  6  7  1  0
  7  8  1  0
  8  9  1  0
  9 10  1  0
 10 11  1  0
 11 12  1  0
 12 13  2  0
 11  6  1  0
  1 14  1  0
  1 15  1  0
  1 16  1  0
  2 17  1  0
  2 18  1  0
  6 19  1  6
  7 20  1  0
  7 21  1  0
  8 22  1  0
  9 23  1  0
  9 24  1  0
 10 25  1  0
 10 26  1  0
 12 27  1  0
M  END
$$$$

     RDKit          3D

 27 27  0  0  0  0  0  0  0  0999 V2000
    3.8875   -0.0064   -0.3449 C   0  0  0  0  0  0  0  0  0  0  0  0
    3.1136   -0.5483    0.8368 C   0  0  0  0  0  0  0  0  0  0  0  0
    1.8051   -0.9349    0.4932 O   0  0  0  0  0  0  0  0  0  0  0  0
    0.8449   -0.1018   -0.0289 C   0  0  0  0  0  0  0  0  0  0  0  0
    1.1466    1.1027   -0.2193 O   0  0  0  0  0  0  0  0  0  0  0  0
   -0.5327   -0.5727   -0.3752 C   0  0  1  0  0  0  0  0  0  0  0  0
   -1.1042   -1.2205    0.8564 C   0  0  0  0  0  0  0  0  0  0  0  0
   -1.8531   -0.3106    1.6855 N   0  0  0  0  0  0  0  0  0  0  0  0
   -2.8059    0.4823    0.9555 C   0  0  0  0  0  0  0  0  0  0  0  0
   -1.9945    1.3813    0.0184 C   0  0  0  0  0  0  0  0  0  0  0  0
   -1.3397    0.4810   -0.8986 N   0  0  0  0  0  0  0  0  0  0  0  0
   -1.5247    0.6799   -2.2840 C   0  0  0  0  0  0  0  0  0  0  0  0
   -2.2346    1.6062   -2.7588 O   0  0  0  0  0  0  0  0  0  0  0  0
    4.9074    0.2533    0.0566 H   0  0  0  0  0  0  0  0  0  0  0  0
    4.0140   -0.7903   -1.1247 H   0  0  0  0  0  0  0  0  0  0  0  0
    3.4193    0.9049   -0.7280 H   0  0  0  0  0  0  0  0  0  0  0  0
    3.1571    0.1602    1.6716 H   0  0  0  0  0  0  0  0  0  0  0  0
    3.6473   -1.4759    1.1680 H   0  0  0  0  0  0  0  0  0  0  0  0
   -0.4165   -1.3987   -1.1371 H   0  0  0  0  0  0  0  0  0  0  0  0
   -1.7592   -2.0934    0.6055 H   0  0  0  0  0  0  0  0  0  0  0  0
   -0.2718   -1.6189    1.4719 H   0  0  0  0  0  0  0  0  0  0  0  0
   -2.3774   -0.8829    2.3863 H   0  0  0  0  0  0  0  0  0  0  0  0
   -3.3723    1.0814    1.6867 H   0  0  0  0  0  0  0  0  0  0  0  0
   -3.4174   -0.1626    0.3178 H   0  0  0  0  0  0  0  0  0  0  0  0
   -2.6707    2.0977   -0.4721 H   0  0  0  0  0  0  0  0  0  0  0  0
   -1.2499    1.9023    0.6851 H   0  0  0  0  0  0  0  0  0  0  0  0
   -1.0184   -0.0151   -2.9593 H   0  0  0  0  0  0  0  0  0  0  0  0
  1  2  1  0
  2  3  1  0
  3  4  1  0
  4  5  2  0
  4  6  1  0
  6  7  1  0
  7  8  1  0
  8  9  1  0
  9 10  1  0
 10 11  1  0
 11 12  1  0
 12 13  2  0
 11  6  1  0
  1 14  1  0
  1 15  1  0
  1 16  1  0
  2 17  1  0
  2 18  1  0
  6 19  1  6
  7 20  1  0
  7 21  1  0
  8 22  1  0
  9 23  1  0
  9 24  1  0
 10 25  1  0
 10 26  1  0
 12 27  1  0
M  END
$$$$
