
     RDKit          3D

 23 23  0  0  0  0  0  0  0  0999 V2000
   -4.6694    0.0041   -0.8039 C   0  0  0  0  0  0  0  0  0  0  0  0
   -3.3850   -0.7689   -0.3941 C   0  0  0  0  0  0  0  0  0  0  0  0
   -3.2728   -2.2080    0.3219 S   0  0  0  0  0  4  0  0  0  0  0  0
   -1.5040   -2.4109   -0.1304 C   0  0  0  0  0  0  0  0  0  0  0  0
   -1.0628   -1.1668   -0.1473 C   0  0  0  0  0  0  0  0  0  0  0  0
    0.3215   -0.8369    0.2634 C   0  0  0  0  0  0  0  0  0  0  0  0
    1.1240   -1.7217    0.6407 O   0  0  0  0  0  0  0  0  0  0  0  0
    0.8004    0.4979    0.2476 N   0  0  0  0  0  0  0  0  0  0  0  0
    2.1404    0.8811    0.6363 C   0  0  0  0  0  0  0  0  0  0  0  0
    3.2109    0.2295   -0.2065 C   0  0  0  0  0  0  0  0  0  0  0  0
    4.4913    0.7271    0.3216 N   0  0  0  0  0  0  0  0  0  0  0  0
   -2.0772   -0.3210   -0.5887 N   0  0  0  0  0  0  0  0  0  0  0  0
   -4.4046    1.0876   -0.8480 H   0  0  0  0  0  0  0  0  0  0  0  0
   -4.9076   -0.4259   -1.7865 H   0  0  0  0  0  0  0  0  0  0  0  0
   -5.4377   -0.1672   -0.0338 H   0  0  0  0  0  0  0  0  0  0  0  0
    0.1178    1.2273   -0.0701 H   0  0  0  0  0  0  0  0  0  0  0  0
    2.3472    0.6463    1.6998 H   0  0  0  0  0  0  0  0  0  0  0  0
    2.2090    1.9835    0.5520 H   0  0  0  0  0  0  0  0  0  0  0  0
    3.1205    0.4976   -1.2741 H   0  0  0  0  0  0  0  0  0  0  0  0
    3.1825   -0.8655   -0.0369 H   0  0  0  0  0  0  0  0  0  0  0  0
    5.1765    0.8222   -0.4630 H   0  0  0  0  0  0  0  0  0  0  0  0
    4.3487    1.6717    0.7136 H   0  0  0  0  0  0  0  0  0  0  0  0
   -1.8696    0.6170   -1.0500 H   0  0  0  0  0  0  0  0  0  0  0  0
  1  2  1  0
  2  3  2  0
  3  4  2  0
  4  5  2  0
  5  6  1  0
  6  7  2  0
  6  8  1  0
  8  9  1  0
  9 10  1  0
 10 11  1  0
  5 12  1  0
 12  2  1  0
  1 13  1  0
  1 14  1  0
  1 15  1  0
  8 16  1  0
  9 17  1  0
  9 18  1  0
 10 19  1  0
 10 20  1  0
 11 21  1  0
 11 22  1  0
 12 23  1  0
M  END
$$$$

     RDKit          3D

 23 23  0  0  0  0  0  0  0  0999 V2000
    4.0058   -1.3997   -0.4967 C   0  0  0  0  0  0  0  0  0  0  0  0
    3.1337   -0.2634   -0.4070 C   0  0  0  0  0  0  0  0  0  0  0  0
    3.3312    1.2518   -1.2460 S   0  0  0  0  0  4  0  0  0  0  0  0
    2.3464    2.2035    0.0051 C   0  0  0  0  0  0  0  0  0  0  0  0
    1.3642    1.2477    0.1336 C   0  0  0  0  0  0  0  0  0  0  0  0
   -0.0661    1.5989    0.0541 C   0  0  0  0  0  0  0  0  0  0  0  0
   -0.3877    2.7925   -0.1364 O   0  0  0  0  0  0  0  0  0  0  0  0
   -1.0444    0.5825    0.1942 N   0  0  0  0  0  0  0  0  0  0  0  0
   -2.4212    0.9546    0.1124 C   0  0  0  0  0  0  0  0  0  0  0  0
   -3.3545   -0.2227    0.2783 C   0  0  0  0  0  0  0  0  0  0  0  0
   -3.1633   -1.2315   -0.7140 N   0  0  0  0  0  0  0  0  0  0  0  0
    1.9078   -0.0068    0.3373 N   0  0  0  0  0  0  0  0  0  0  0  0
    4.7694   -1.4624    0.3254 H   0  0  0  0  0  0  0  0  0  0  0  0
    3.3857   -2.3319   -0.3912 H   0  0  0  0  0  0  0  0  0  0  0  0
    4.4925   -1.4588   -1.4931 H   0  0  0  0  0  0  0  0  0  0  0  0
   -0.7167   -0.4006    0.3522 H   0  0  0  0  0  0  0  0  0  0  0  0
   -2.6283    1.7433    0.8603 H   0  0  0  0  0  0  0  0  0  0  0  0
   -2.5906    1.3732   -0.9129 H   0  0  0  0  0  0  0  0  0  0  0  0
   -4.4028    0.1344    0.2145 H   0  0  0  0  0  0  0  0  0  0  0  0
   -3.2409   -0.6526    1.3078 H   0  0  0  0  0  0  0  0  0  0  0  0
   -3.9423   -1.9201   -0.6304 H   0  0  0  0  0  0  0  0  0  0  0  0
   -2.2710   -1.7493   -0.6067 H   0  0  0  0  0  0  0  0  0  0  0  0
    1.4932   -0.7825    0.9913 H   0  0  0  0  0  0  0  0  0  0  0  0
  1  2  1  0
  2  3  2  0
  3  4  2  0
  4  5  2  0
  5  6  1  0
  6  7  2  0
  6  8  1  0
  8  9  1  0
  9 10  1  0
 10 11  1  0
  5 12  1  0
 12  2  1  0
  1 13  1  0
  1 14  1  0
  1 15  1  0
  8 16  1  0
  9 17  1  0
  9 18  1  0
 10 19  1  0
 10 20  1  0
 11 21  1  0
 11 22  1  0
 12 23  1  0
M  END
$$$$

     RDKit          3D

 23 23  0  0  0  0  0  0  0  0999 V2000
    4.8485   -0.1941    0.2156 C   0  0  0  0  0  0  0  0  0  0  0  0
    3.4090    0.0076   -0.2708 C   0  0  0  0  0  0  0  0  0  0  0  0
    3.0478    0.5715   -1.7638 S   0  0  0  0  0  4  0  0  0  0  0  0
    1.3032    0.0357   -1.6272 C   0  0  0  0  0  0  0  0  0  0  0  0
    1.0664    0.0638   -0.3337 C   0  0  0  0  0  0  0  0  0  0  0  0
   -0.2658    0.3702    0.1814 C   0  0  0  0  0  0  0  0  0  0  0  0
   -0.4153    0.3777    1.4274 O   0  0  0  0  0  0  0  0  0  0  0  0
   -1.3811    0.6553   -0.6512 N   0  0  0  0  0  0  0  0  0  0  0  0
   -2.6953    0.9577   -0.1502 C   0  0  0  0  0  0  0  0  0  0  0  0
   -3.2881   -0.1476    0.6779 C   0  0  0  0  0  0  0  0  0  0  0  0
   -3.4052   -1.3694   -0.1118 N   0  0  0  0  0  0  0  0  0  0  0  0
    2.2273   -0.2298    0.4073 N   0  0  0  0  0  0  0  0  0  0  0  0
    5.3201   -0.9255   -0.4672 H   0  0  0  0  0  0  0  0  0  0  0  0
    5.3276    0.8034    0.1790 H   0  0  0  0  0  0  0  0  0  0  0  0
    4.8487   -0.5921    1.2271 H   0  0  0  0  0  0  0  0  0  0  0  0
   -1.1842    0.6315   -1.6784 H   0  0  0  0  0  0  0  0  0  0  0  0
   -3.3703    1.1176   -1.0146 H   0  0  0  0  0  0  0  0  0  0  0  0
   -2.7251    1.8983    0.4425 H   0  0  0  0  0  0  0  0  0  0  0  0
   -4.3256    0.1356    0.9512 H   0  0  0  0  0  0  0  0  0  0  0  0
   -2.7421   -0.3653    1.5942 H   0  0  0  0  0  0  0  0  0  0  0  0
   -3.6888   -1.1822   -1.0886 H   0  0  0  0  0  0  0  0  0  0  0  0
   -4.0876   -2.0195    0.3422 H   0  0  0  0  0  0  0  0  0  0  0  0
    2.1761   -0.6003    1.3985 H   0  0  0  0  0  0  0  0  0  0  0  0
  1  2  1  0
  2  3  2  0
  3  4  2  0
  4  5  2  0
  5  6  1  0
  6  7  2  0
  6  8  1  0
  8  9  1  0
  9 10  1  0
 10 11  1  0
  5 12  1  0
 12  2  1  0
  1 13  1  0
  1 14  1  0
  1 15  1  0
  8 16  1  0
  9 17  1  0
  9 18  1  0
 10 19  1  0
 10 20  1  0
 11 21  1  0
 11 22  1  0
 12 23  1  0
M  END
$$$$

     RDKit          3D

 23 23  0  0  0  0  0  0  0  0999 V2000
    4.5698    0.0751    0.4957 C   0  0  0  0  0  0  0  0  0  0  0  0
    3.2672   -0.5031    0.0036 C   0  0  0  0  0  0  0  0  0  0  0  0
    3.1522   -1.6574   -1.1979 S   0  0  0  0  0  4  0  0  0  0  0  0
    1.4618   -2.1079   -0.7293 C   0  0  0  0  0  0  0  0  0  0  0  0
    0.9928   -0.9873   -0.3049 C   0  0  0  0  0  0  0  0  0  0  0  0
   -0.3830   -0.5473   -0.5168 C   0  0  0  0  0  0  0  0  0  0  0  0
   -1.1628   -1.2778   -1.1396 O   0  0  0  0  0  0  0  0  0  0  0  0
   -0.8598    0.6995   -0.0289 N   0  0  0  0  0  0  0  0  0  0  0  0
   -2.1563    1.2457   -0.1557 C   0  0  0  0  0  0  0  0  0  0  0  0
   -3.2919    0.5045    0.4517 C   0  0  0  0  0  0  0  0  0  0  0  0
   -3.4929   -0.8254   -0.0690 N   0  0  0  0  0  0  0  0  0  0  0  0
    1.9773   -0.2424    0.3902 N   0  0  0  0  0  0  0  0  0  0  0  0
    5.2998    0.1127   -0.3335 H   0  0  0  0  0  0  0  0  0  0  0  0
    4.9172   -0.5178    1.3602 H   0  0  0  0  0  0  0  0  0  0  0  0
    4.3376    1.1282    0.7540 H   0  0  0  0  0  0  0  0  0  0  0  0
   -0.1225    1.2621    0.4904 H   0  0  0  0  0  0  0  0  0  0  0  0
   -2.4476    1.4056   -1.2465 H   0  0  0  0  0  0  0  0  0  0  0  0
   -2.1353    2.3100    0.2263 H   0  0  0  0  0  0  0  0  0  0  0  0
   -3.2936    0.5285    1.5634 H   0  0  0  0  0  0  0  0  0  0  0  0
   -4.2288    1.0791    0.1796 H   0  0  0  0  0  0  0  0  0  0  0  0
   -4.0167   -0.7451   -0.9664 H   0  0  0  0  0  0  0  0  0  0  0  0
   -4.0882   -1.3949    0.5717 H   0  0  0  0  0  0  0  0  0  0  0  0
    1.7037    0.4555    1.1463 H   0  0  0  0  0  0  0  0  0  0  0  0
  1  2  1  0
  2  3  2  0
  3  4  2  0
  4  5  2  0
  5  6  1  0
  6  7  2  0
  6  8  1  0
  8  9  1  0
  9 10  1  0
 10 11  1  0
  5 12  1  0
 12  2  1  0
  1 13  1  0
  1 14  1  0
  1 15  1  0
  8 16  1  0
  9 17  1  0
  9 18  1  0
 10 19  1  0
 10 20  1  0
 11 21  1  0
 11 22  1  0
 12 23  1  0
M  END
$$$$

     RDKit          3D

 23 23  0  0  0  0  0  0  0  0999 V2000
    4.2481    0.9315   -0.3239 C   0  0  0  0  0  0  0  0  0  0  0  0
    3.1384   -0.0350   -0.0707 C   0  0  0  0  0  0  0  0  0  0  0  0
    3.3076   -1.2730    1.2443 S   0  0  0  0  0  4  0  0  0  0  0  0
    2.0663   -2.2722    0.3803 C   0  0  0  0  0  0  0  0  0  0  0  0
    1.2038   -1.3428    0.0110 C   0  0  0  0  0  0  0  0  0  0  0  0
   -0.2261   -1.4832    0.2413 C   0  0  0  0  0  0  0  0  0  0  0  0
   -0.6767   -2.5052    0.8040 O   0  0  0  0  0  0  0  0  0  0  0  0
   -1.1658   -0.4886   -0.1521 N   0  0  0  0  0  0  0  0  0  0  0  0
   -2.5761   -0.6980    0.1106 C   0  0  0  0  0  0  0  0  0  0  0  0
   -3.2984    0.5346   -0.4264 C   0  0  0  0  0  0  0  0  0  0  0  0
   -2.8324    1.7207    0.2366 N   0  0  0  0  0  0  0  0  0  0  0  0
    1.9036   -0.2697   -0.6052 N   0  0  0  0  0  0  0  0  0  0  0  0
    4.3428    1.0397   -1.4230 H   0  0  0  0  0  0  0  0  0  0  0  0
    5.2067    0.6028    0.0712 H   0  0  0  0  0  0  0  0  0  0  0  0
    3.9935    1.8911    0.1635 H   0  0  0  0  0  0  0  0  0  0  0  0
   -0.7774    0.3559   -0.6188 H   0  0  0  0  0  0  0  0  0  0  0  0
   -2.7645   -0.7859    1.2144 H   0  0  0  0  0  0  0  0  0  0  0  0
   -2.9634   -1.5935   -0.4050 H   0  0  0  0  0  0  0  0  0  0  0  0
   -4.3968    0.4276   -0.3731 H   0  0  0  0  0  0  0  0  0  0  0  0
   -2.9810    0.6178   -1.4971 H   0  0  0  0  0  0  0  0  0  0  0  0
   -3.0824    2.5379   -0.3659 H   0  0  0  0  0  0  0  0  0  0  0  0
   -3.1559    1.8119    1.2147 H   0  0  0  0  0  0  0  0  0  0  0  0
    1.4860    0.2758   -1.3968 H   0  0  0  0  0  0  0  0  0  0  0  0
  1  2  1  0
  2  3  2  0
  3  4  2  0
  4  5  2  0
  5  6  1  0
  6  7  2  0
  6  8  1  0
  8  9  1  0
  9 10  1  0
 10 11  1  0
  5 12  1  0
 12  2  1  0
  1 13  1  0
  1 14  1  0
  1 15  1  0
  8 16  1  0
  9 17  1  0
  9 18  1  0
 10 19  1  0
 10 20  1  0
 11 21  1  0
 11 22  1  0
 12 23  1  0
M  END
$$$$

     RDKit          3D

 23 23  0  0  0  0  0  0  0  0999 V2000
   -4.6046    0.3889   -0.5865 C   0  0  0  0  0  0  0  0  0  0  0  0
   -3.4086   -0.0717    0.2301 C   0  0  0  0  0  0  0  0  0  0  0  0
   -3.3788   -0.5144    1.7958 S   0  0  0  0  0  4  0  0  0  0  0  0
   -1.8003   -1.4298    1.6232 C   0  0  0  0  0  0  0  0  0  0  0  0
   -1.1875   -0.6401    0.7175 C   0  0  0  0  0  0  0  0  0  0  0  0
    0.2309   -0.3592    0.8181 C   0  0  0  0  0  0  0  0  0  0  0  0
    0.9265   -0.8388    1.7442 O   0  0  0  0  0  0  0  0  0  0  0  0
    0.8698    0.4743   -0.1406 N   0  0  0  0  0  0  0  0  0  0  0  0
    2.2781    0.7994   -0.1068 C   0  0  0  0  0  0  0  0  0  0  0  0
    3.1362   -0.4623   -0.2045 C   0  0  0  0  0  0  0  0  0  0  0  0
    4.5167   -0.0291   -0.1628 N   0  0  0  0  0  0  0  0  0  0  0  0
   -2.1024   -0.1963   -0.2351 N   0  0  0  0  0  0  0  0  0  0  0  0
   -4.5612    1.4895   -0.7235 H   0  0  0  0  0  0  0  0  0  0  0  0
   -5.5196    0.1577   -0.0025 H   0  0  0  0  0  0  0  0  0  0  0  0
   -4.6182   -0.1627   -1.5353 H   0  0  0  0  0  0  0  0  0  0  0  0
    0.2414    0.8574   -0.9055 H   0  0  0  0  0  0  0  0  0  0  0  0
    2.5224    1.3319    0.8385 H   0  0  0  0  0  0  0  0  0  0  0  0
    2.5021    1.4694   -0.9598 H   0  0  0  0  0  0  0  0  0  0  0  0
    2.9806   -1.1159    0.6722 H   0  0  0  0  0  0  0  0  0  0  0  0
    2.8741   -1.0175   -1.1181 H   0  0  0  0  0  0  0  0  0  0  0  0
    5.1945   -0.8187   -0.1198 H   0  0  0  0  0  0  0  0  0  0  0  0
    4.7320    0.6588   -0.9197 H   0  0  0  0  0  0  0  0  0  0  0  0
   -1.8241    0.0292   -1.2378 H   0  0  0  0  0  0  0  0  0  0  0  0
  1  2  1  0
  2  3  2  0
  3  4  2  0
  4  5  2  0
  5  6  1  0
  6  7  2  0
  6  8  1  0
  8  9  1  0
  9 10  1  0
 10 11  1  0
  5 12  1  0
 12  2  1  0
  1 13  1  0
  1 14  1  0
  1 15  1  0
  8 16  1  0
  9 17  1  0
  9 18  1  0
 10 19  1  0
 10 20  1  0
 11 21  1  0
 11 22  1  0
 12 23  1  0
M  END
$$$$

     RDKit          3D

 23 23  0  0  0  0  0  0  0  0999 V2000
   -4.8399   -0.6602   -0.8007 C   0  0  0  0  0  0  0  0  0  0  0  0
   -3.4706   -0.0666   -0.7083 C   0  0  0  0  0  0  0  0  0  0  0  0
   -3.1473    1.5210   -0.9341 S   0  0  0  0  0  4  0  0  0  0  0  0
   -1.3651    1.2727   -1.0230 C   0  0  0  0  0  0  0  0  0  0  0  0
   -1.1408    0.1615   -0.4159 C   0  0  0  0  0  0  0  0  0  0  0  0
    0.1448   -0.1569    0.2260 C   0  0  0  0  0  0  0  0  0  0  0  0
    0.3272   -1.2622    0.8144 O   0  0  0  0  0  0  0  0  0  0  0  0
    1.2305    0.7527    0.2153 N   0  0  0  0  0  0  0  0  0  0  0  0
    2.5154    0.5528    0.7972 C   0  0  0  0  0  0  0  0  0  0  0  0
    3.1837   -0.6381    0.1560 C   0  0  0  0  0  0  0  0  0  0  0  0
    4.4890   -0.7902    0.7820 N   0  0  0  0  0  0  0  0  0  0  0  0
   -2.2324   -0.7200   -0.4205 N   0  0  0  0  0  0  0  0  0  0  0  0
   -5.5293   -0.0767   -0.1449 H   0  0  0  0  0  0  0  0  0  0  0  0
   -4.7601   -1.6902   -0.3619 H   0  0  0  0  0  0  0  0  0  0  0  0
   -5.1817   -0.7183   -1.8381 H   0  0  0  0  0  0  0  0  0  0  0  0
    1.0253    1.6701   -0.2901 H   0  0  0  0  0  0  0  0  0  0  0  0
    3.1335    1.4729    0.6702 H   0  0  0  0  0  0  0  0  0  0  0  0
    2.4844    0.3358    1.8870 H   0  0  0  0  0  0  0  0  0  0  0  0
    3.2834   -0.4802   -0.9321 H   0  0  0  0  0  0  0  0  0  0  0  0
    2.5465   -1.5217    0.3309 H   0  0  0  0  0  0  0  0  0  0  0  0
    5.1416   -0.0831    0.4056 H   0  0  0  0  0  0  0  0  0  0  0  0
    4.3556   -0.6855    1.8239 H   0  0  0  0  0  0  0  0  0  0  0  0
   -2.1937   -1.7498   -0.2390 H   0  0  0  0  0  0  0  0  0  0  0  0
  1  2  1  0
  2  3  2  0
  3  4  2  0
  4  5  2  0
  5  6  1  0
  6  7  2  0
  6  8  1  0
  8  9  1  0
  9 10  1  0
 10 11  1  0
  5 12  1  0
 12  2  1  0
  1 13  1  0
  1 14  1  0
  1 15  1  0
  8 16  1  0
  9 17  1  0
  9 18  1  0
 10 19  1  0
 10 20  1  0
 11 21  1  0
 11 22  1  0
 12 23  1  0
M  END
$$$$

     RDKit          3D

 23 23  0  0  0  0  0  0  0  0999 V2000
    4.5866    0.4029   -0.0656 C   0  0  0  0  0  0  0  0  0  0  0  0
    3.3658   -0.3196    0.4482 C   0  0  0  0  0  0  0  0  0  0  0  0
    3.3144   -1.3966    1.6813 S   0  0  0  0  0  4  0  0  0  0  0  0
    1.6852   -2.0622    1.1746 C   0  0  0  0  0  0  0  0  0  0  0  0
    1.1337   -1.0076    0.6548 C   0  0  0  0  0  0  0  0  0  0  0  0
   -0.3104   -0.7328    0.7964 C   0  0  0  0  0  0  0  0  0  0  0  0
   -1.0784   -1.5045    1.4267 O   0  0  0  0  0  0  0  0  0  0  0  0
   -0.8683    0.4296    0.2125 N   0  0  0  0  0  0  0  0  0  0  0  0
   -2.2646    0.8105    0.2781 C   0  0  0  0  0  0  0  0  0  0  0  0
   -3.1283   -0.2366   -0.3526 C   0  0  0  0  0  0  0  0  0  0  0  0
   -4.5252    0.1581   -0.2833 N   0  0  0  0  0  0  0  0  0  0  0  0
    2.0581   -0.2095   -0.0248 N   0  0  0  0  0  0  0  0  0  0  0  0
    5.0830    0.9539    0.7658 H   0  0  0  0  0  0  0  0  0  0  0  0
    4.2749    1.1168   -0.8260 H   0  0  0  0  0  0  0  0  0  0  0  0
    5.3124   -0.3205   -0.4922 H   0  0  0  0  0  0  0  0  0  0  0  0
   -0.1836    1.0528   -0.3088 H   0  0  0  0  0  0  0  0  0  0  0  0
   -2.5535    0.8558    1.3568 H   0  0  0  0  0  0  0  0  0  0  0  0
   -2.3965    1.8164   -0.1705 H   0  0  0  0  0  0  0  0  0  0  0  0
   -3.0117   -1.1925    0.1900 H   0  0  0  0  0  0  0  0  0  0  0  0
   -2.8099   -0.4347   -1.4074 H   0  0  0  0  0  0  0  0  0  0  0  0
   -4.6196    1.0111    0.2874 H   0  0  0  0  0  0  0  0  0  0  0  0
   -4.8560    0.3831   -1.2378 H   0  0  0  0  0  0  0  0  0  0  0  0
    1.7917    0.4261   -0.8310 H   0  0  0  0  0  0  0  0  0  0  0  0
  1  2  1  0
  2  3  2  0
  3  4  2  0
  4  5  2  0
  5  6  1  0
  6  7  2  0
  6  8  1  0
  8  9  1  0
  9 10  1  0
 10 11  1  0
  5 12  1  0
 12  2  1  0
  1 13  1  0
  1 14  1  0
  1 15  1  0
  8 16  1  0
  9 17  1  0
  9 18  1  0
 10 19  1  0
 10 20  1  0
 11 21  1  0
 11 22  1  0
 12 23  1  0
M  END
$$$$
