
     RDKit          3D

 22 23  0  0  0  0  0  0  0  0999 V2000
    4.8200    0.4045   -0.3288 C   0  0  0  0  0  0  0  0  0  0  0  0
    3.4634   -0.1069   -0.2611 N   0  0  0  0  0  0  0  0  0  0  0  0
    3.0875   -1.3759   -0.3092 N   0  0  0  0  0  0  0  0  0  0  0  0
    1.7740   -1.4846   -0.2207 N   0  0  0  0  0  0  0  0  0  0  0  0
    1.2813   -0.2377   -0.1112 C   0  0  0  0  0  0  0  0  0  0  0  0
   -0.1406    0.1403    0.0138 C   0  0  0  0  0  0  0  0  0  0  0  0
   -0.5648    1.3471    0.1161 N   0  0  0  0  0  0  0  0  0  0  0  0
   -1.9091    1.4363    0.2185 O   0  0  0  0  0  0  0  0  0  0  0  0
   -2.4314    0.1438    0.5005 C   0  0  1  0  0  0  0  0  0  0  0  0
   -3.6591   -0.0145   -0.4066 C   0  0  0  0  0  0  0  0  0  0  0  0
   -4.5380    1.0089   -0.0576 O   0  0  0  0  0  0  0  0  0  0  0  0
   -1.3039   -0.7558    0.0442 C   0  0  0  0  0  0  0  0  0  0  0  0
    2.3329    0.5935   -0.1379 N   0  0  0  0  0  0  0  0  0  0  0  0
    5.4251   -0.2226   -1.0125 H   0  0  0  0  0  0  0  0  0  0  0  0
    4.8286    1.4622   -0.6654 H   0  0  0  0  0  0  0  0  0  0  0  0
    5.2379    0.3984    0.7025 H   0  0  0  0  0  0  0  0  0  0  0  0
   -2.7109    0.0104    1.5449 H   0  0  0  0  0  0  0  0  0  0  0  0
   -3.3689    0.0712   -1.4590 H   0  0  0  0  0  0  0  0  0  0  0  0
   -4.1689   -0.9697   -0.1535 H   0  0  0  0  0  0  0  0  0  0  0  0
   -4.7537    0.9722    0.8986 H   0  0  0  0  0  0  0  0  0  0  0  0
   -1.1754   -1.5866    0.7688 H   0  0  0  0  0  0  0  0  0  0  0  0
   -1.5260   -1.2343   -0.9334 H   0  0  0  0  0  0  0  0  0  0  0  0
  1  2  1  0
  2  3  1  0
  3  4  2  0
  4  5  1  0
  5  6  1  0
  6  7  2  0
  7  8  1  0
  8  9  1  0
  9 10  1  0
 10 11  1  0
  9 12  1  0
  5 13  2  0
 13  2  1  0
 12  6  1  0
  1 14  1  0
  1 15  1  0
  1 16  1  0
  9 17  1  1
 10 18  1  0
 10 19  1  0
 11 20  1  0
 12 21  1  0
 12 22  1  0
M  END
$$$$

     RDKit          3D

 22 23  0  0  0  0  0  0  0  0999 V2000
    4.8201   -0.0747   -0.0398 C   0  0  0  0  0  0  0  0  0  0  0  0
    3.4058   -0.2363   -0.3493 N   0  0  0  0  0  0  0  0  0  0  0  0
    2.8830   -0.8349   -1.4029 N   0  0  0  0  0  0  0  0  0  0  0  0
    1.5787   -0.8014   -1.3704 N   0  0  0  0  0  0  0  0  0  0  0  0
    1.2114   -0.1464   -0.2361 C   0  0  0  0  0  0  0  0  0  0  0  0
   -0.1474    0.1294    0.2177 C   0  0  0  0  0  0  0  0  0  0  0  0
   -0.4712    0.7495    1.2922 N   0  0  0  0  0  0  0  0  0  0  0  0
   -1.8401    0.8360    1.4158 O   0  0  0  0  0  0  0  0  0  0  0  0
   -2.3886   -0.2252    0.6561 C   0  0  1  0  0  0  0  0  0  0  0  0
   -3.7753    0.0789    0.1480 C   0  0  0  0  0  0  0  0  0  0  0  0
   -3.8217    1.1840   -0.6660 O   0  0  0  0  0  0  0  0  0  0  0  0
   -1.3814   -0.2689   -0.5008 C   0  0  0  0  0  0  0  0  0  0  0  0
    2.3743    0.1819    0.3591 N   0  0  0  0  0  0  0  0  0  0  0  0
    5.1699    0.9584   -0.2173 H   0  0  0  0  0  0  0  0  0  0  0  0
    5.4008   -0.7490   -0.6813 H   0  0  0  0  0  0  0  0  0  0  0  0
    5.0010   -0.2822    1.0521 H   0  0  0  0  0  0  0  0  0  0  0  0
   -2.3170   -1.1874    1.1629 H   0  0  0  0  0  0  0  0  0  0  0  0
   -4.4095    0.2619    1.0418 H   0  0  0  0  0  0  0  0  0  0  0  0
   -4.1573   -0.8479   -0.3214 H   0  0  0  0  0  0  0  0  0  0  0  0
   -4.1905    1.9925   -0.1929 H   0  0  0  0  0  0  0  0  0  0  0  0
   -1.6206    0.5349   -1.2288 H   0  0  0  0  0  0  0  0  0  0  0  0
   -1.3244   -1.2533   -0.9641 H   0  0  0  0  0  0  0  0  0  0  0  0
  1  2  1  0
  2  3  1  0
  3  4  2  0
  4  5  1  0
  5  6  1  0
  6  7  2  0
  7  8  1  0
  8  9  1  0
  9 10  1  0
 10 11  1  0
  9 12  1  0
  5 13  2  0
 13  2  1  0
 12  6  1  0
  1 14  1  0
  1 15  1  0
  1 16  1  0
  9 17  1  1
 10 18  1  0
 10 19  1  0
 11 20  1  0
 12 21  1  0
 12 22  1  0
M  END
$$$$

     RDKit          3D

 22 23  0  0  0  0  0  0  0  0999 V2000
    4.5876   -0.2305   -0.6252 C   0  0  0  0  0  0  0  0  0  0  0  0
    3.3513   -0.2429    0.1260 N   0  0  0  0  0  0  0  0  0  0  0  0
    3.2368   -0.4743    1.4241 N   0  0  0  0  0  0  0  0  0  0  0  0
    1.9380   -0.4014    1.7547 N   0  0  0  0  0  0  0  0  0  0  0  0
    1.2290   -0.1205    0.6488 C   0  0  0  0  0  0  0  0  0  0  0  0
   -0.2177    0.0402    0.5930 C   0  0  0  0  0  0  0  0  0  0  0  0
   -1.0333   -0.0613    1.5867 N   0  0  0  0  0  0  0  0  0  0  0  0
   -2.3214    0.1405    1.2235 O   0  0  0  0  0  0  0  0  0  0  0  0
   -2.3997   -0.1861   -0.1595 C   0  0  1  0  0  0  0  0  0  0  0  0
   -3.5362    0.5469   -0.8235 C   0  0  0  0  0  0  0  0  0  0  0  0
   -4.7100    0.1593   -0.1772 O   0  0  0  0  0  0  0  0  0  0  0  0
   -1.0433    0.3547   -0.6284 C   0  0  0  0  0  0  0  0  0  0  0  0
    2.1322   -0.0292   -0.3391 N   0  0  0  0  0  0  0  0  0  0  0  0
    4.4744    0.5616   -1.4081 H   0  0  0  0  0  0  0  0  0  0  0  0
    5.4402    0.1237    0.0174 H   0  0  0  0  0  0  0  0  0  0  0  0
    4.8378   -1.2201   -1.0596 H   0  0  0  0  0  0  0  0  0  0  0  0
   -2.4238   -1.2782   -0.3241 H   0  0  0  0  0  0  0  0  0  0  0  0
   -3.3804    1.6224   -0.6772 H   0  0  0  0  0  0  0  0  0  0  0  0
   -3.6170    0.2279   -1.8641 H   0  0  0  0  0  0  0  0  0  0  0  0
   -4.7916   -0.8277   -0.1205 H   0  0  0  0  0  0  0  0  0  0  0  0
   -0.6778   -0.1602   -1.5159 H   0  0  0  0  0  0  0  0  0  0  0  0
   -1.0751    1.4554   -0.7070 H   0  0  0  0  0  0  0  0  0  0  0  0
  1  2  1  0
  2  3  1  0
  3  4  2  0
  4  5  1  0
  5  6  1  0
  6  7  2  0
  7  8  1  0
  8  9  1  0
  9 10  1  0
 10 11  1  0
  9 12  1  0
  5 13  2  0
 13  2  1  0
 12  6  1  0
  1 14  1  0
  1 15  1  0
  1 16  1  0
  9 17  1  1
 10 18  1  0
 10 19  1  0
 11 20  1  0
 12 21  1  0
 12 22  1  0
M  END
$$$$

     RDKit          3D

 22 23  0  0  0  0  0  0  0  0999 V2000
    4.3309    0.6626   -0.4967 C   0  0  0  0  0  0  0  0  0  0  0  0
    3.1284    0.2587    0.2132 N   0  0  0  0  0  0  0  0  0  0  0  0
    3.1045    0.0460    1.5115 N   0  0  0  0  0  0  0  0  0  0  0  0
    1.8942   -0.3070    1.8902 N   0  0  0  0  0  0  0  0  0  0  0  0
    1.1231   -0.3181    0.7900 C   0  0  0  0  0  0  0  0  0  0  0  0
   -0.3028   -0.6546    0.7382 C   0  0  0  0  0  0  0  0  0  0  0  0
   -1.0364   -0.9893    1.7255 N   0  0  0  0  0  0  0  0  0  0  0  0
   -2.3263   -1.2379    1.3280 O   0  0  0  0  0  0  0  0  0  0  0  0
   -2.5110   -0.8670   -0.0143 C   0  0  1  0  0  0  0  0  0  0  0  0
   -3.3574    0.3743   -0.0594 C   0  0  0  0  0  0  0  0  0  0  0  0
   -2.7201    1.4133    0.6323 O   0  0  0  0  0  0  0  0  0  0  0  0
   -1.1174   -0.6540   -0.5014 C   0  0  0  0  0  0  0  0  0  0  0  0
    1.9176    0.0361   -0.2268 N   0  0  0  0  0  0  0  0  0  0  0  0
    5.1253   -0.0638   -0.1973 H   0  0  0  0  0  0  0  0  0  0  0  0
    4.6615    1.6524   -0.1336 H   0  0  0  0  0  0  0  0  0  0  0  0
    4.2142    0.6792   -1.5812 H   0  0  0  0  0  0  0  0  0  0  0  0
   -3.0496   -1.6642   -0.5944 H   0  0  0  0  0  0  0  0  0  0  0  0
   -3.5610    0.6812   -1.1238 H   0  0  0  0  0  0  0  0  0  0  0  0
   -4.3208    0.1673    0.4124 H   0  0  0  0  0  0  0  0  0  0  0  0
   -3.4451    2.0289    0.9325 H   0  0  0  0  0  0  0  0  0  0  0  0
   -0.7926   -1.5239   -1.1108 H   0  0  0  0  0  0  0  0  0  0  0  0
   -0.9588    0.2800   -1.0596 H   0  0  0  0  0  0  0  0  0  0  0  0
  1  2  1  0
  2  3  1  0
  3  4  2  0
  4  5  1  0
  5  6  1  0
  6  7  2  0
  7  8  1  0
  8  9  1  0
  9 10  1  0
 10 11  1  0
  9 12  1  0
  5 13  2  0
 13  2  1  0
 12  6  1  0
  1 14  1  0
  1 15  1  0
  1 16  1  0
  9 17  1  6
 10 18  1  0
 10 19  1  0
 11 20  1  0
 12 21  1  0
 12 22  1  0
M  END
$$$$

     RDKit          3D

 22 23  0  0  0  0  0  0  0  0999 V2000
    4.3260   -0.8814    0.0491 C   0  0  0  0  0  0  0  0  0  0  0  0
    3.2482    0.0577   -0.0274 N   0  0  0  0  0  0  0  0  0  0  0  0
    3.2651    1.3677   -0.1336 N   0  0  0  0  0  0  0  0  0  0  0  0
    2.0190    1.8623   -0.1742 N   0  0  0  0  0  0  0  0  0  0  0  0
    1.2098    0.8137   -0.0894 C   0  0  0  0  0  0  0  0  0  0  0  0
   -0.2612    0.8450   -0.0924 C   0  0  0  0  0  0  0  0  0  0  0  0
   -0.9976    1.8978   -0.1781 N   0  0  0  0  0  0  0  0  0  0  0  0
   -2.3463    1.5763   -0.1519 O   0  0  0  0  0  0  0  0  0  0  0  0
   -2.4590    0.2990    0.4645 C   0  0  1  0  0  0  0  0  0  0  0  0
   -3.5978   -0.5024   -0.1270 C   0  0  0  0  0  0  0  0  0  0  0  0
   -3.3322   -0.6597   -1.4785 O   0  0  0  0  0  0  0  0  0  0  0  0
   -1.1679   -0.3266   -0.0026 C   0  0  0  0  0  0  0  0  0  0  0  0
    1.9525   -0.2938    0.0007 N   0  0  0  0  0  0  0  0  0  0  0  0
    5.1384   -0.4929   -0.6315 H   0  0  0  0  0  0  0  0  0  0  0  0
    4.0403   -1.8892   -0.2591 H   0  0  0  0  0  0  0  0  0  0  0  0
    4.7482   -0.9130    1.0859 H   0  0  0  0  0  0  0  0  0  0  0  0
   -2.4628    0.3399    1.5525 H   0  0  0  0  0  0  0  0  0  0  0  0
   -4.5414    0.0217    0.0737 H   0  0  0  0  0  0  0  0  0  0  0  0
   -3.5600   -1.5061    0.3439 H   0  0  0  0  0  0  0  0  0  0  0  0
   -3.1138    0.2386   -1.8688 H   0  0  0  0  0  0  0  0  0  0  0  0
   -1.3263   -0.7584   -1.0128 H   0  0  0  0  0  0  0  0  0  0  0  0
   -0.7812   -1.0961    0.6991 H   0  0  0  0  0  0  0  0  0  0  0  0
  1  2  1  0
  2  3  1  0
  3  4  2  0
  4  5  1  0
  5  6  1  0
  6  7  2  0
  7  8  1  0
  8  9  1  0
  9 10  1  0
 10 11  1  0
  9 12  1  0
  5 13  2  0
 13  2  1  0
 12  6  1  0
  1 14  1  0
  1 15  1  0
  1 16  1  0
  9 17  1  1
 10 18  1  0
 10 19  1  0
 11 20  1  0
 12 21  1  0
 12 22  1  0
M  END
$$$$

     RDKit          3D

 22 23  0  0  0  0  0  0  0  0999 V2000
    4.5143    0.0306   -0.8197 C   0  0  0  0  0  0  0  0  0  0  0  0
    3.2676    0.4567   -0.2032 N   0  0  0  0  0  0  0  0  0  0  0  0
    3.1677    1.4471    0.6868 N   0  0  0  0  0  0  0  0  0  0  0  0
    1.8941    1.5709    1.0428 N   0  0  0  0  0  0  0  0  0  0  0  0
    1.1674    0.6551    0.3788 C   0  0  0  0  0  0  0  0  0  0  0  0
   -0.2737    0.4583    0.4854 C   0  0  0  0  0  0  0  0  0  0  0  0
   -1.0749    1.1319    1.2332 N   0  0  0  0  0  0  0  0  0  0  0  0
   -2.3626    0.6775    1.0837 O   0  0  0  0  0  0  0  0  0  0  0  0
   -2.3662   -0.5490    0.3947 C   0  0  1  0  0  0  0  0  0  0  0  0
   -3.4234   -0.5400   -0.7001 C   0  0  0  0  0  0  0  0  0  0  0  0
   -4.6784   -0.3340   -0.1150 O   0  0  0  0  0  0  0  0  0  0  0  0
   -1.0090   -0.5767   -0.2819 C   0  0  0  0  0  0  0  0  0  0  0  0
    2.0503   -0.0138   -0.3806 N   0  0  0  0  0  0  0  0  0  0  0  0
    5.1724   -0.3760   -0.0187 H   0  0  0  0  0  0  0  0  0  0  0  0
    4.2948   -0.7292   -1.5891 H   0  0  0  0  0  0  0  0  0  0  0  0
    4.9632    0.9228   -1.2815 H   0  0  0  0  0  0  0  0  0  0  0  0
   -2.5068   -1.4259    1.0532 H   0  0  0  0  0  0  0  0  0  0  0  0
   -3.2390    0.2762   -1.4066 H   0  0  0  0  0  0  0  0  0  0  0  0
   -3.4131   -1.5047   -1.2292 H   0  0  0  0  0  0  0  0  0  0  0  0
   -4.5285    0.2017    0.7041 H   0  0  0  0  0  0  0  0  0  0  0  0
   -0.5448   -1.5715   -0.2100 H   0  0  0  0  0  0  0  0  0  0  0  0
   -1.0715   -0.2081   -1.3378 H   0  0  0  0  0  0  0  0  0  0  0  0
  1  2  1  0
  2  3  1  0
  3  4  2  0
  4  5  1  0
  5  6  1  0
  6  7  2  0
  7  8  1  0
  8  9  1  0
  9 10  1  0
 10 11  1  0
  9 12  1  0
  5 13  2  0
 13  2  1  0
 12  6  1  0
  1 14  1  0
  1 15  1  0
  1 16  1  0
  9 17  1  1
 10 18  1  0
 10 19  1  0
 11 20  1  0
 12 21  1  0
 12 22  1  0
M  END
$$$$

     RDKit          3D

 22 23  0  0  0  0  0  0  0  0999 V2000
    4.3996    1.0450   -0.2901 C   0  0  0  0  0  0  0  0  0  0  0  0
    3.1490    0.3133   -0.3697 N   0  0  0  0  0  0  0  0  0  0  0  0
    2.8939   -0.7526   -1.1038 N   0  0  0  0  0  0  0  0  0  0  0  0
    1.6284   -1.1376   -0.9060 N   0  0  0  0  0  0  0  0  0  0  0  0
    1.0737   -0.2953   -0.0276 C   0  0  0  0  0  0  0  0  0  0  0  0
   -0.2984   -0.3654    0.4588 C   0  0  0  0  0  0  0  0  0  0  0  0
   -0.8534    0.4527    1.3184 N   0  0  0  0  0  0  0  0  0  0  0  0
   -2.1565    0.1029    1.5585 O   0  0  0  0  0  0  0  0  0  0  0  0
   -2.5989   -0.6151    0.4213 C   0  0  1  0  0  0  0  0  0  0  0  0
   -2.8625    0.3817   -0.6860 C   0  0  0  0  0  0  0  0  0  0  0  0
   -3.8265    1.2918   -0.3143 O   0  0  0  0  0  0  0  0  0  0  0  0
   -1.3128   -1.3746    0.0686 C   0  0  0  0  0  0  0  0  0  0  0  0
    2.0225    0.5980    0.2976 N   0  0  0  0  0  0  0  0  0  0  0  0
    4.2860    1.8867    0.4186 H   0  0  0  0  0  0  0  0  0  0  0  0
    4.6050    1.4919   -1.2825 H   0  0  0  0  0  0  0  0  0  0  0  0
    5.2132    0.3790    0.0672 H   0  0  0  0  0  0  0  0  0  0  0  0
   -3.4294   -1.2878    0.6069 H   0  0  0  0  0  0  0  0  0  0  0  0
   -3.2085   -0.1703   -1.6070 H   0  0  0  0  0  0  0  0  0  0  0  0
   -1.9341    0.9147   -0.9706 H   0  0  0  0  0  0  0  0  0  0  0  0
   -4.2485    1.0111    0.5507 H   0  0  0  0  0  0  0  0  0  0  0  0
   -1.2807   -1.6564   -0.9816 H   0  0  0  0  0  0  0  0  0  0  0  0
   -1.2609   -2.2137    0.7783 H   0  0  0  0  0  0  0  0  0  0  0  0
  1  2  1  0
  2  3  1  0
  3  4  2  0
  4  5  1  0
  5  6  1  0
  6  7  2  0
  7  8  1  0
  8  9  1  0
  9 10  1  0
 10 11  1  0
  9 12  1  0
  5 13  2  0
 13  2  1  0
 12  6  1  0
  1 14  1  0
  1 15  1  0
  1 16  1  0
  9 17  1  1
 10 18  1  0
 10 19  1  0
 11 20  1  0
 12 21  1  0
 12 22  1  0
M  END
$$$$

     RDKit          3D

 22 23  0  0  0  0  0  0  0  0999 V2000
    4.7847    0.3926   -0.1965 C   0  0  0  0  0  0  0  0  0  0  0  0
    3.4466   -0.1281    0.0036 N   0  0  0  0  0  0  0  0  0  0  0  0
    3.0889   -1.2854    0.5308 N   0  0  0  0  0  0  0  0  0  0  0  0
    1.7493   -1.3687    0.5274 N   0  0  0  0  0  0  0  0  0  0  0  0
    1.2585   -0.2392   -0.0135 C   0  0  0  0  0  0  0  0  0  0  0  0
   -0.1538    0.0773   -0.2053 C   0  0  0  0  0  0  0  0  0  0  0  0
   -0.6035    1.1668   -0.7264 N   0  0  0  0  0  0  0  0  0  0  0  0
   -1.9629    1.1900   -0.7802 O   0  0  0  0  0  0  0  0  0  0  0  0
   -2.4203    0.2869    0.2079 C   0  0  1  0  0  0  0  0  0  0  0  0
   -3.7652   -0.2618   -0.2048 C   0  0  0  0  0  0  0  0  0  0  0  0
   -4.6303    0.8275   -0.3207 O   0  0  0  0  0  0  0  0  0  0  0  0
   -1.3355   -0.7684    0.1533 C   0  0  0  0  0  0  0  0  0  0  0  0
    2.3284    0.5003   -0.3240 N   0  0  0  0  0  0  0  0  0  0  0  0
    4.8193    1.0942   -1.0673 H   0  0  0  0  0  0  0  0  0  0  0  0
    5.4893   -0.4251   -0.4470 H   0  0  0  0  0  0  0  0  0  0  0  0
    5.0946    0.9741    0.6912 H   0  0  0  0  0  0  0  0  0  0  0  0
   -2.4313    0.7775    1.1866 H   0  0  0  0  0  0  0  0  0  0  0  0
   -3.6523   -0.6718   -1.2367 H   0  0  0  0  0  0  0  0  0  0  0  0
   -4.1361   -1.0423    0.4577 H   0  0  0  0  0  0  0  0  0  0  0  0
   -4.2596    1.6416    0.1344 H   0  0  0  0  0  0  0  0  0  0  0  0
   -1.1748   -1.1957    1.1637 H   0  0  0  0  0  0  0  0  0  0  0  0
   -1.5338   -1.5426   -0.5978 H   0  0  0  0  0  0  0  0  0  0  0  0
  1  2  1  0
  2  3  1  0
  3  4  2  0
  4  5  1  0
  5  6  1  0
  6  7  2  0
  7  8  1  0
  8  9  1  0
  9 10  1  0
 10 11  1  0
  9 12  1  0
  5 13  2  0
 13  2  1  0
 12  6  1  0
  1 14  1  0
  1 15  1  0
  1 16  1  0
  9 17  1  1
 10 18  1  0
 10 19  1  0
 11 20  1  0
 12 21  1  0
 12 22  1  0
M  END
$$$$
