
     RDKit          3D

 29 29  0  0  0  0  0  0  0  0999 V2000
    4.4494    0.8059    0.9185 C   0  0  0  0  0  0  0  0  0  0  0  0
    3.0722    0.4719    0.5767 N   0  0  0  0  0  0  0  0  0  0  0  0
    2.7496   -0.8555    0.1587 C   0  0  0  0  0  0  0  0  0  0  0  0
    3.6798   -1.7038    0.0990 O   0  0  0  0  0  0  0  0  0  0  0  0
    1.3695   -1.2124   -0.1898 C   0  0  0  0  0  0  0  0  0  0  0  0
    0.5357   -0.1082   -0.0434 O   0  0  0  0  0  0  0  0  0  0  0  0
   -0.7880   -0.4088   -0.3662 C   0  0  2  0  0  0  0  0  0  0  0  0
   -1.2587    0.4510   -1.4789 C   0  0  0  0  0  0  0  0  0  0  0  0
   -2.4924    0.9604   -1.4322 O   0  0  0  0  0  0  0  0  0  0  0  0
   -3.1366    1.1287   -0.2728 C   0  0  0  0  0  0  0  0  0  0  0  0
   -2.3404    1.0038    0.9764 C   0  0  0  0  0  0  0  0  0  0  0  0
   -1.5867   -0.2968    0.9027 C   0  0  1  0  0  0  0  0  0  0  0  0
   -2.5347   -1.4127    1.0307 N   0  0  0  0  0  0  0  0  0  0  0  0
    4.7705    1.6790    0.3147 H   0  0  0  0  0  0  0  0  0  0  0  0
    4.5855    0.9755    1.9983 H   0  0  0  0  0  0  0  0  0  0  0  0
    5.1065   -0.0378    0.6262 H   0  0  0  0  0  0  0  0  0  0  0  0
    2.3118    1.1774    0.6287 H   0  0  0  0  0  0  0  0  0  0  0  0
    1.3125   -1.5050   -1.2720 H   0  0  0  0  0  0  0  0  0  0  0  0
    1.0104   -2.0161    0.4740 H   0  0  0  0  0  0  0  0  0  0  0  0
   -0.8089   -1.4829   -0.6604 H   0  0  0  0  0  0  0  0  0  0  0  0
   -1.1530   -0.1395   -2.4380 H   0  0  0  0  0  0  0  0  0  0  0  0
   -0.5289    1.2983   -1.6190 H   0  0  0  0  0  0  0  0  0  0  0  0
   -3.9922    0.4176   -0.2073 H   0  0  0  0  0  0  0  0  0  0  0  0
   -3.6126    2.1533   -0.2617 H   0  0  0  0  0  0  0  0  0  0  0  0
   -3.0710    0.8999    1.8305 H   0  0  0  0  0  0  0  0  0  0  0  0
   -1.6338    1.8332    1.1606 H   0  0  0  0  0  0  0  0  0  0  0  0
   -0.9411   -0.3551    1.8066 H   0  0  0  0  0  0  0  0  0  0  0  0
   -3.1011   -1.4265    0.1422 H   0  0  0  0  0  0  0  0  0  0  0  0
   -1.9733   -2.2949    1.1187 H   0  0  0  0  0  0  0  0  0  0  0  0
  1  2  1  0
  2  3  1  0
  3  4  2  0
  3  5  1  0
  5  6  1  0
  6  7  1  0
  7  8  1  0
  8  9  1  0
  9 10  1  0
 10 11  1  0
 11 12  1  0
 12 13  1  0
 12  7  1  0
  1 14  1  0
  1 15  1  0
  1 16  1  0
  2 17  1  0
  5 18  1  0
  5 19  1  0
  7 20  1  6
  8 21  1  0
  8 22  1  0
 10 23  1  0
 10 24  1  0
 11 25  1  0
 11 26  1  0
 12 27  1  1
 13 28  1  0
 13 29  1  0
M  END
$$$$

     RDKit          3D

 29 29  0  0  0  0  0  0  0  0999 V2000
    5.1367    0.2926    0.8168 C   0  0  0  0  0  0  0  0  0  0  0  0
    3.8672    0.6899    0.2471 N   0  0  0  0  0  0  0  0  0  0  0  0
    2.6362    0.1119    0.6495 C   0  0  0  0  0  0  0  0  0  0  0  0
    2.6356   -0.7788    1.5321 O   0  0  0  0  0  0  0  0  0  0  0  0
    1.3551    0.5463    0.0413 C   0  0  0  0  0  0  0  0  0  0  0  0
    0.3015   -0.1646    0.5997 O   0  0  0  0  0  0  0  0  0  0  0  0
   -0.9247    0.1660    0.1023 C   0  0  2  0  0  0  0  0  0  0  0  0
   -1.7232    0.8024    1.2473 C   0  0  0  0  0  0  0  0  0  0  0  0
   -2.9603    1.2427    0.8038 O   0  0  0  0  0  0  0  0  0  0  0  0
   -3.7444    0.1660    0.3697 C   0  0  0  0  0  0  0  0  0  0  0  0
   -3.0675   -0.3920   -0.8820 C   0  0  0  0  0  0  0  0  0  0  0  0
   -1.7441   -0.9798   -0.3912 C   0  0  1  0  0  0  0  0  0  0  0  0
   -1.0932   -1.7654   -1.4075 N   0  0  0  0  0  0  0  0  0  0  0  0
    5.9556    0.6889    0.1952 H   0  0  0  0  0  0  0  0  0  0  0  0
    5.2045   -0.7977    0.8931 H   0  0  0  0  0  0  0  0  0  0  0  0
    5.1863    0.7088    1.8306 H   0  0  0  0  0  0  0  0  0  0  0  0
    3.8350    1.4303   -0.4912 H   0  0  0  0  0  0  0  0  0  0  0  0
    1.4057    0.2166   -1.0373 H   0  0  0  0  0  0  0  0  0  0  0  0
    1.2780    1.6272    0.1460 H   0  0  0  0  0  0  0  0  0  0  0  0
   -0.8772    0.9702   -0.6879 H   0  0  0  0  0  0  0  0  0  0  0  0
   -1.8943    0.0551    2.0395 H   0  0  0  0  0  0  0  0  0  0  0  0
   -1.1704    1.6510    1.6738 H   0  0  0  0  0  0  0  0  0  0  0  0
   -4.7601    0.5217    0.1757 H   0  0  0  0  0  0  0  0  0  0  0  0
   -3.7131   -0.6412    1.1204 H   0  0  0  0  0  0  0  0  0  0  0  0
   -2.8223    0.4909   -1.5059 H   0  0  0  0  0  0  0  0  0  0  0  0
   -3.6907   -1.1283   -1.3936 H   0  0  0  0  0  0  0  0  0  0  0  0
   -1.9970   -1.6356    0.4707 H   0  0  0  0  0  0  0  0  0  0  0  0
   -1.1272   -1.3634   -2.3483 H   0  0  0  0  0  0  0  0  0  0  0  0
   -1.4876   -2.7319   -1.4519 H   0  0  0  0  0  0  0  0  0  0  0  0
  1  2  1  0
  2  3  1  0
  3  4  2  0
  3  5  1  0
  5  6  1  0
  6  7  1  0
  7  8  1  0
  8  9  1  0
  9 10  1  0
 10 11  1  0
 11 12  1  0
 12 13  1  0
 12  7  1  0
  1 14  1  0
  1 15  1  0
  1 16  1  0
  2 17  1  0
  5 18  1  0
  5 19  1  0
  7 20  1  6
  8 21  1  0
  8 22  1  0
 10 23  1  0
 10 24  1  0
 11 25  1  0
 11 26  1  0
 12 27  1  1
 13 28  1  0
 13 29  1  0
M  END
$$$$

     RDKit          3D

 29 29  0  0  0  0  0  0  0  0999 V2000
    5.1894   -0.0704    0.0872 C   0  0  0  0  0  0  0  0  0  0  0  0
    3.8862    0.4598    0.4542 N   0  0  0  0  0  0  0  0  0  0  0  0
    2.6906   -0.2349    0.1310 C   0  0  0  0  0  0  0  0  0  0  0  0
    2.7207   -1.3354   -0.4856 O   0  0  0  0  0  0  0  0  0  0  0  0
    1.3494    0.3190    0.5132 C   0  0  0  0  0  0  0  0  0  0  0  0
    0.3273   -0.5268    0.0961 O   0  0  0  0  0  0  0  0  0  0  0  0
   -0.8805    0.0135    0.4636 C   0  0  2  0  0  0  0  0  0  0  0  0
   -1.6142   -0.8711    1.4711 C   0  0  0  0  0  0  0  0  0  0  0  0
   -2.4199   -1.8055    0.8605 O   0  0  0  0  0  0  0  0  0  0  0  0
   -3.4978   -1.2775    0.1967 C   0  0  0  0  0  0  0  0  0  0  0  0
   -3.2263    0.1918   -0.1287 C   0  0  0  0  0  0  0  0  0  0  0  0
   -1.8167    0.2413   -0.6816 C   0  0  1  0  0  0  0  0  0  0  0  0
   -1.5674    1.4707   -1.3925 N   0  0  0  0  0  0  0  0  0  0  0  0
    5.8419    0.7911   -0.1327 H   0  0  0  0  0  0  0  0  0  0  0  0
    5.0385   -0.7060   -0.8010 H   0  0  0  0  0  0  0  0  0  0  0  0
    5.5646   -0.6322    0.9729 H   0  0  0  0  0  0  0  0  0  0  0  0
    3.7982    1.3657    0.9652 H   0  0  0  0  0  0  0  0  0  0  0  0
    1.2995    1.3239    0.0532 H   0  0  0  0  0  0  0  0  0  0  0  0
    1.3387    0.4791    1.6174 H   0  0  0  0  0  0  0  0  0  0  0  0
   -0.7349    0.9946    1.0038 H   0  0  0  0  0  0  0  0  0  0  0  0
   -0.8288   -1.4492    2.0370 H   0  0  0  0  0  0  0  0  0  0  0  0
   -2.1688   -0.2938    2.2133 H   0  0  0  0  0  0  0  0  0  0  0  0
   -4.4623   -1.4300    0.6814 H   0  0  0  0  0  0  0  0  0  0  0  0
   -3.5389   -1.7860   -0.8110 H   0  0  0  0  0  0  0  0  0  0  0  0
   -3.9633    0.5792   -0.8587 H   0  0  0  0  0  0  0  0  0  0  0  0
   -3.2675    0.7361    0.8374 H   0  0  0  0  0  0  0  0  0  0  0  0
   -1.7107   -0.6107   -1.4032 H   0  0  0  0  0  0  0  0  0  0  0  0
   -2.4505    1.9591   -1.6682 H   0  0  0  0  0  0  0  0  0  0  0  0
   -0.8964    2.1048   -0.9115 H   0  0  0  0  0  0  0  0  0  0  0  0
  1  2  1  0
  2  3  1  0
  3  4  2  0
  3  5  1  0
  5  6  1  0
  6  7  1  0
  7  8  1  0
  8  9  1  0
  9 10  1  0
 10 11  1  0
 11 12  1  0
 12 13  1  0
 12  7  1  0
  1 14  1  0
  1 15  1  0
  1 16  1  0
  2 17  1  0
  5 18  1  0
  5 19  1  0
  7 20  1  1
  8 21  1  0
  8 22  1  0
 10 23  1  0
 10 24  1  0
 11 25  1  0
 11 26  1  0
 12 27  1  6
 13 28  1  0
 13 29  1  0
M  END
$$$$

     RDKit          3D

 29 29  0  0  0  0  0  0  0  0999 V2000
    4.9034    0.8567   -0.6497 C   0  0  0  0  0  0  0  0  0  0  0  0
    3.8113    0.1413   -0.0491 N   0  0  0  0  0  0  0  0  0  0  0  0
    2.4558    0.3175   -0.4247 C   0  0  0  0  0  0  0  0  0  0  0  0
    2.2051    1.1555   -1.3425 O   0  0  0  0  0  0  0  0  0  0  0  0
    1.3558   -0.4435    0.2230 C   0  0  0  0  0  0  0  0  0  0  0  0
    0.1170   -0.0987   -0.3139 O   0  0  0  0  0  0  0  0  0  0  0  0
   -0.9224   -0.7983    0.2774 C   0  0  2  0  0  0  0  0  0  0  0  0
   -1.6699   -1.5004   -0.8664 C   0  0  0  0  0  0  0  0  0  0  0  0
   -1.7288   -0.5966   -1.8897 O   0  0  0  0  0  0  0  0  0  0  0  0
   -2.4135    0.5467   -1.6552 C   0  0  0  0  0  0  0  0  0  0  0  0
   -2.3210    1.1461   -0.3115 C   0  0  0  0  0  0  0  0  0  0  0  0
   -1.9507    0.2123    0.8000 C   0  0  1  0  0  0  0  0  0  0  0  0
   -3.1065   -0.4879    1.3071 N   0  0  0  0  0  0  0  0  0  0  0  0
    5.6510    1.1500    0.1170 H   0  0  0  0  0  0  0  0  0  0  0  0
    4.4777    1.8108   -1.0584 H   0  0  0  0  0  0  0  0  0  0  0  0
    5.3442    0.2774   -1.4849 H   0  0  0  0  0  0  0  0  0  0  0  0
    4.0194   -0.5502    0.7085 H   0  0  0  0  0  0  0  0  0  0  0  0
    1.3997   -0.2099    1.3049 H   0  0  0  0  0  0  0  0  0  0  0  0
    1.5462   -1.5364    0.1111 H   0  0  0  0  0  0  0  0  0  0  0  0
   -0.6213   -1.4959    1.0544 H   0  0  0  0  0  0  0  0  0  0  0  0
   -2.6707   -1.8270   -0.5304 H   0  0  0  0  0  0  0  0  0  0  0  0
   -1.0701   -2.3582   -1.1730 H   0  0  0  0  0  0  0  0  0  0  0  0
   -3.4927    0.3816   -1.9453 H   0  0  0  0  0  0  0  0  0  0  0  0
   -2.0556    1.3162   -2.4027 H   0  0  0  0  0  0  0  0  0  0  0  0
   -1.5747    1.9916   -0.2837 H   0  0  0  0  0  0  0  0  0  0  0  0
   -3.2931    1.6169   -0.0465 H   0  0  0  0  0  0  0  0  0  0  0  0
   -1.4808    0.7483    1.6460 H   0  0  0  0  0  0  0  0  0  0  0  0
   -3.9790   -0.2903    0.7917 H   0  0  0  0  0  0  0  0  0  0  0  0
   -2.9358   -1.4759    1.5239 H   0  0  0  0  0  0  0  0  0  0  0  0
  1  2  1  0
  2  3  1  0
  3  4  2  0
  3  5  1  0
  5  6  1  0
  6  7  1  0
  7  8  1  0
  8  9  1  0
  9 10  1  0
 10 11  1  0
 11 12  1  0
 12 13  1  0
 12  7  1  0
  1 14  1  0
  1 15  1  0
  1 16  1  0
  2 17  1  0
  5 18  1  0
  5 19  1  0
  7 20  1  1
  8 21  1  0
  8 22  1  0
 10 23  1  0
 10 24  1  0
 11 25  1  0
 11 26  1  0
 12 27  1  1
 13 28  1  0
 13 29  1  0
M  END
$$$$

     RDKit          3D

 29 29  0  0  0  0  0  0  0  0999 V2000
    5.0519    0.6129    0.2198 C   0  0  0  0  0  0  0  0  0  0  0  0
    3.8223    0.0494    0.7388 N   0  0  0  0  0  0  0  0  0  0  0  0
    2.6063    0.2499    0.0315 C   0  0  0  0  0  0  0  0  0  0  0  0
    2.6433    0.9179   -1.0328 O   0  0  0  0  0  0  0  0  0  0  0  0
    1.3282   -0.2967    0.5079 C   0  0  0  0  0  0  0  0  0  0  0  0
    0.2960    0.0362   -0.3546 O   0  0  0  0  0  0  0  0  0  0  0  0
   -0.8950   -0.4890    0.1147 C   0  0  2  0  0  0  0  0  0  0  0  0
   -1.5203   -1.4719   -0.8275 C   0  0  0  0  0  0  0  0  0  0  0  0
   -2.3443   -0.9509   -1.7719 O   0  0  0  0  0  0  0  0  0  0  0  0
   -3.2167    0.0158   -1.3756 C   0  0  0  0  0  0  0  0  0  0  0  0
   -3.2222    0.1741    0.1353 C   0  0  0  0  0  0  0  0  0  0  0  0
   -1.8217    0.6469    0.4817 C   0  0  1  0  0  0  0  0  0  0  0  0
   -1.7010    1.0480    1.8501 N   0  0  0  0  0  0  0  0  0  0  0  0
    5.0640    1.7187    0.3992 H   0  0  0  0  0  0  0  0  0  0  0  0
    5.9430    0.1969    0.6989 H   0  0  0  0  0  0  0  0  0  0  0  0
    5.1061    0.4612   -0.8774 H   0  0  0  0  0  0  0  0  0  0  0  0
    3.8129   -0.5101    1.6370 H   0  0  0  0  0  0  0  0  0  0  0  0
    1.0546    0.1150    1.5182 H   0  0  0  0  0  0  0  0  0  0  0  0
    1.4063   -1.4019    0.6420 H   0  0  0  0  0  0  0  0  0  0  0  0
   -0.6770   -1.0306    1.0562 H   0  0  0  0  0  0  0  0  0  0  0  0
   -0.6791   -1.9919   -1.3594 H   0  0  0  0  0  0  0  0  0  0  0  0
   -2.0444   -2.2752   -0.2643 H   0  0  0  0  0  0  0  0  0  0  0  0
   -2.8412    0.9985   -1.7804 H   0  0  0  0  0  0  0  0  0  0  0  0
   -4.2594   -0.1293   -1.7521 H   0  0  0  0  0  0  0  0  0  0  0  0
   -3.3124   -0.8556    0.5499 H   0  0  0  0  0  0  0  0  0  0  0  0
   -4.0029    0.8540    0.4819 H   0  0  0  0  0  0  0  0  0  0  0  0
   -1.5638    1.5102   -0.1743 H   0  0  0  0  0  0  0  0  0  0  0  0
   -1.4461    0.2711    2.4897 H   0  0  0  0  0  0  0  0  0  0  0  0
   -2.5873    1.5267    2.1230 H   0  0  0  0  0  0  0  0  0  0  0  0
  1  2  1  0
  2  3  1  0
  3  4  2  0
  3  5  1  0
  5  6  1  0
  6  7  1  0
  7  8  1  0
  8  9  1  0
  9 10  1  0
 10 11  1  0
 11 12  1  0
 12 13  1  0
 12  7  1  0
  1 14  1  0
  1 15  1  0
  1 16  1  0
  2 17  1  0
  5 18  1  0
  5 19  1  0
  7 20  1  1
  8 21  1  0
  8 22  1  0
 10 23  1  0
 10 24  1  0
 11 25  1  0
 11 26  1  0
 12 27  1  6
 13 28  1  0
 13 29  1  0
M  END
$$$$

     RDKit          3D

 29 29  0  0  0  0  0  0  0  0999 V2000
    4.0863    1.1894    1.2348 C   0  0  0  0  0  0  0  0  0  0  0  0
    3.5450    0.1913    0.3429 N   0  0  0  0  0  0  0  0  0  0  0  0
    2.1521    0.2202   -0.0659 C   0  0  0  0  0  0  0  0  0  0  0  0
    1.4584    1.1396    0.3877 O   0  0  0  0  0  0  0  0  0  0  0  0
    1.6147   -0.7937   -0.9680 C   0  0  0  0  0  0  0  0  0  0  0  0
    0.3422   -0.6397   -1.3081 O   0  0  0  0  0  0  0  0  0  0  0  0
   -0.6909   -0.5754   -0.4745 C   0  0  2  0  0  0  0  0  0  0  0  0
   -1.4631   -1.9326   -0.4092 C   0  0  0  0  0  0  0  0  0  0  0  0
   -2.3379   -1.7768    0.6598 O   0  0  0  0  0  0  0  0  0  0  0  0
   -3.3135   -0.8118    0.4504 C   0  0  0  0  0  0  0  0  0  0  0  0
   -2.5951    0.5466    0.4930 C   0  0  0  0  0  0  0  0  0  0  0  0
   -1.6906    0.5052   -0.7530 C   0  0  1  0  0  0  0  0  0  0  0  0
   -1.1260    1.7818   -0.9565 N   0  0  0  0  0  0  0  0  0  0  0  0
    4.4971    2.0733    0.6944 H   0  0  0  0  0  0  0  0  0  0  0  0
    4.9589    0.7185    1.7468 H   0  0  0  0  0  0  0  0  0  0  0  0
    3.3629    1.4876    2.0220 H   0  0  0  0  0  0  0  0  0  0  0  0
    4.0941   -0.5948   -0.0585 H   0  0  0  0  0  0  0  0  0  0  0  0
    1.9112   -1.8352   -0.6624 H   0  0  0  0  0  0  0  0  0  0  0  0
    2.2269   -0.6735   -1.9312 H   0  0  0  0  0  0  0  0  0  0  0  0
   -0.3438   -0.4974    0.5738 H   0  0  0  0  0  0  0  0  0  0  0  0
   -0.7038   -2.6698   -0.1242 H   0  0  0  0  0  0  0  0  0  0  0  0
   -2.0361   -2.1205   -1.3041 H   0  0  0  0  0  0  0  0  0  0  0  0
   -4.0574   -0.8748    1.2406 H   0  0  0  0  0  0  0  0  0  0  0  0
   -3.7440   -0.8702   -0.5787 H   0  0  0  0  0  0  0  0  0  0  0  0
   -3.2907    1.3832    0.4664 H   0  0  0  0  0  0  0  0  0  0  0  0
   -1.9444    0.5120    1.3901 H   0  0  0  0  0  0  0  0  0  0  0  0
   -2.3477    0.2422   -1.6277 H   0  0  0  0  0  0  0  0  0  0  0  0
   -0.9911    2.3339   -0.0811 H   0  0  0  0  0  0  0  0  0  0  0  0
   -1.5737    2.3415   -1.7158 H   0  0  0  0  0  0  0  0  0  0  0  0
  1  2  1  0
  2  3  1  0
  3  4  2  0
  3  5  1  0
  5  6  1  0
  6  7  1  0
  7  8  1  0
  8  9  1  0
  9 10  1  0
 10 11  1  0
 11 12  1  0
 12 13  1  0
 12  7  1  0
  1 14  1  0
  1 15  1  0
  1 16  1  0
  2 17  1  0
  5 18  1  0
  5 19  1  0
  7 20  1  1
  8 21  1  0
  8 22  1  0
 10 23  1  0
 10 24  1  0
 11 25  1  0
 11 26  1  0
 12 27  1  6
 13 28  1  0
 13 29  1  0
M  END
$$$$

     RDKit          3D

 29 29  0  0  0  0  0  0  0  0999 V2000
    4.5796    0.3758   -1.0107 C   0  0  0  0  0  0  0  0  0  0  0  0
    3.1554    0.1556   -0.7169 N   0  0  0  0  0  0  0  0  0  0  0  0
    2.7629   -0.4587    0.5046 C   0  0  0  0  0  0  0  0  0  0  0  0
    3.6828   -0.7920    1.2944 O   0  0  0  0  0  0  0  0  0  0  0  0
    1.3383   -0.7117    0.8658 C   0  0  0  0  0  0  0  0  0  0  0  0
    0.4640   -0.2882   -0.1044 O   0  0  0  0  0  0  0  0  0  0  0  0
   -0.8236   -0.5611    0.3133 C   0  0  2  0  0  0  0  0  0  0  0  0
   -1.5857   -1.4442   -0.6329 C   0  0  0  0  0  0  0  0  0  0  0  0
   -2.1639   -0.7418   -1.6817 O   0  0  0  0  0  0  0  0  0  0  0  0
   -3.1055    0.1750   -1.2895 C   0  0  0  0  0  0  0  0  0  0  0  0
   -3.0095    0.5373    0.1844 C   0  0  0  0  0  0  0  0  0  0  0  0
   -1.5393    0.7715    0.4699 C   0  0  1  0  0  0  0  0  0  0  0  0
   -1.3038    1.3274    1.7656 N   0  0  0  0  0  0  0  0  0  0  0  0
    5.0751    0.6924   -0.0470 H   0  0  0  0  0  0  0  0  0  0  0  0
    5.0257   -0.5954   -1.2782 H   0  0  0  0  0  0  0  0  0  0  0  0
    4.7127    1.1387   -1.7858 H   0  0  0  0  0  0  0  0  0  0  0  0
    2.4020    0.4317   -1.3701 H   0  0  0  0  0  0  0  0  0  0  0  0
    1.0929   -0.3311    1.8793 H   0  0  0  0  0  0  0  0  0  0  0  0
    1.2356   -1.8299    0.9380 H   0  0  0  0  0  0  0  0  0  0  0  0
   -0.8396   -1.0474    1.3132 H   0  0  0  0  0  0  0  0  0  0  0  0
   -2.3736   -1.9699   -0.0662 H   0  0  0  0  0  0  0  0  0  0  0  0
   -0.8869   -2.1788   -1.0802 H   0  0  0  0  0  0  0  0  0  0  0  0
   -2.8975    1.1270   -1.8481 H   0  0  0  0  0  0  0  0  0  0  0  0
   -4.1358   -0.1355   -1.5673 H   0  0  0  0  0  0  0  0  0  0  0  0
   -3.4399   -0.2483    0.8348 H   0  0  0  0  0  0  0  0  0  0  0  0
   -3.5661    1.4858    0.3196 H   0  0  0  0  0  0  0  0  0  0  0  0
   -1.1765    1.4910   -0.2988 H   0  0  0  0  0  0  0  0  0  0  0  0
   -0.5294    2.0180    1.8094 H   0  0  0  0  0  0  0  0  0  0  0  0
   -2.1503    1.6068    2.2855 H   0  0  0  0  0  0  0  0  0  0  0  0
  1  2  1  0
  2  3  1  0
  3  4  2  0
  3  5  1  0
  5  6  1  0
  6  7  1  0
  7  8  1  0
  8  9  1  0
  9 10  1  0
 10 11  1  0
 11 12  1  0
 12 13  1  0
 12  7  1  0
  1 14  1  0
  1 15  1  0
  1 16  1  0
  2 17  1  0
  5 18  1  0
  5 19  1  0
  7 20  1  1
  8 21  1  0
  8 22  1  0
 10 23  1  0
 10 24  1  0
 11 25  1  0
 11 26  1  0
 12 27  1  6
 13 28  1  0
 13 29  1  0
M  END
$$$$

     RDKit          3D

 29 29  0  0  0  0  0  0  0  0999 V2000
    4.4695    0.5619   -0.2866 C   0  0  0  0  0  0  0  0  0  0  0  0
    3.5416   -0.4751    0.1699 N   0  0  0  0  0  0  0  0  0  0  0  0
    2.2183   -0.1059    0.5338 C   0  0  0  0  0  0  0  0  0  0  0  0
    1.8816    1.1018    0.4534 O   0  0  0  0  0  0  0  0  0  0  0  0
    1.2588   -1.1355    0.9993 C   0  0  0  0  0  0  0  0  0  0  0  0
    0.0175   -0.6466    1.3161 O   0  0  0  0  0  0  0  0  0  0  0  0
   -0.6601   -0.0228    0.2949 C   0  0  2  0  0  0  0  0  0  0  0  0
   -1.0309    1.4110    0.5929 C   0  0  0  0  0  0  0  0  0  0  0  0
   -2.3931    1.5914    0.7709 O   0  0  0  0  0  0  0  0  0  0  0  0
   -3.1151    1.3788   -0.4027 C   0  0  0  0  0  0  0  0  0  0  0  0
   -2.6039    0.1328   -1.1309 C   0  0  0  0  0  0  0  0  0  0  0  0
   -1.9800   -0.7162   -0.0238 C   0  0  1  0  0  0  0  0  0  0  0  0
   -1.8029   -2.0829   -0.4182 N   0  0  0  0  0  0  0  0  0  0  0  0
    5.1003    0.1881   -1.1363 H   0  0  0  0  0  0  0  0  0  0  0  0
    3.8964    1.4483   -0.6009 H   0  0  0  0  0  0  0  0  0  0  0  0
    5.1306    0.8212    0.5550 H   0  0  0  0  0  0  0  0  0  0  0  0
    3.8973   -1.4582    0.2093 H   0  0  0  0  0  0  0  0  0  0  0  0
    1.1918   -1.9396    0.2146 H   0  0  0  0  0  0  0  0  0  0  0  0
    1.6561   -1.6311    1.9186 H   0  0  0  0  0  0  0  0  0  0  0  0
   -0.0168   -0.0434   -0.6234 H   0  0  0  0  0  0  0  0  0  0  0  0
   -0.5968    2.1194   -0.1394 H   0  0  0  0  0  0  0  0  0  0  0  0
   -0.5596    1.6601    1.5826 H   0  0  0  0  0  0  0  0  0  0  0  0
   -4.1643    1.1873   -0.1018 H   0  0  0  0  0  0  0  0  0  0  0  0
   -3.1067    2.2671   -1.0490 H   0  0  0  0  0  0  0  0  0  0  0  0
   -1.7779    0.4434   -1.8028 H   0  0  0  0  0  0  0  0  0  0  0  0
   -3.3876   -0.3898   -1.6737 H   0  0  0  0  0  0  0  0  0  0  0  0
   -2.6677   -0.6431    0.8427 H   0  0  0  0  0  0  0  0  0  0  0  0
   -2.2367   -2.7128    0.3015 H   0  0  0  0  0  0  0  0  0  0  0  0
   -2.1598   -2.3095   -1.3659 H   0  0  0  0  0  0  0  0  0  0  0  0
  1  2  1  0
  2  3  1  0
  3  4  2  0
  3  5  1  0
  5  6  1  0
  6  7  1  0
  7  8  1  0
  8  9  1  0
  9 10  1  0
 10 11  1  0
 11 12  1  0
 12 13  1  0
 12  7  1  0
  1 14  1  0
  1 15  1  0
  1 16  1  0
  2 17  1  0
  5 18  1  0
  5 19  1  0
  7 20  1  6
  8 21  1  0
  8 22  1  0
 10 23  1  0
 10 24  1  0
 11 25  1  0
 11 26  1  0
 12 27  1  1
 13 28  1  0
 13 29  1  0
M  END
$$$$
