
     RDKit          3D

 27 28  0  0  0  0  0  0  0  0999 V2000
   -0.7761    1.8464    0.1237 N   0  0  0  0  0  0  0  0  0  0  0  0
   -1.0354    0.5504    0.6538 C   0  0  1  0  0  0  0  0  0  0  0  0
   -2.5241    0.2901    0.5755 C   0  0  0  0  0  0  0  0  0  0  0  0
   -2.8759   -0.6374   -0.5560 C   0  0  0  0  0  0  0  0  0  0  0  0
   -2.0851   -0.2906   -1.6507 O   0  0  0  0  0  0  0  0  0  0  0  0
   -0.7677   -0.7168   -1.4921 C   0  0  0  0  0  0  0  0  0  0  0  0
   -0.2740   -0.5424   -0.0868 C   0  0  1  0  0  0  0  0  0  0  0  0
    1.1391   -0.3310    0.0239 N   0  0  0  0  0  0  0  0  0  0  0  0
    2.0956   -1.1351    0.7274 C   0  0  0  0  0  0  0  0  0  0  0  0
    1.9110   -2.3042    1.1529 O   0  0  0  0  0  0  0  0  0  0  0  0
    3.3634   -0.3830    0.8893 C   0  0  0  0  0  0  0  0  0  0  0  0
    3.2977    0.5617   -0.1886 N   0  0  0  0  0  0  0  0  0  0  0  0
    1.9245    0.7227   -0.5382 C   0  0  0  0  0  0  0  0  0  0  0  0
    1.5081    1.6847   -1.2515 O   0  0  0  0  0  0  0  0  0  0  0  0
   -0.2111    2.4430    0.7699 H   0  0  0  0  0  0  0  0  0  0  0  0
   -1.6171    2.3253   -0.2444 H   0  0  0  0  0  0  0  0  0  0  0  0
   -0.7376    0.4726    1.7232 H   0  0  0  0  0  0  0  0  0  0  0  0
   -2.9002   -0.1721    1.5078 H   0  0  0  0  0  0  0  0  0  0  0  0
   -3.0864    1.2360    0.4341 H   0  0  0  0  0  0  0  0  0  0  0  0
   -2.7557   -1.7117   -0.2888 H   0  0  0  0  0  0  0  0  0  0  0  0
   -3.9376   -0.4836   -0.8320 H   0  0  0  0  0  0  0  0  0  0  0  0
   -0.7723   -1.8149   -1.7512 H   0  0  0  0  0  0  0  0  0  0  0  0
   -0.1589   -0.2195   -2.2544 H   0  0  0  0  0  0  0  0  0  0  0  0
   -0.5231   -1.4823    0.4890 H   0  0  0  0  0  0  0  0  0  0  0  0
    3.3988    0.0924    1.8946 H   0  0  0  0  0  0  0  0  0  0  0  0
    4.2542   -1.0290    0.7830 H   0  0  0  0  0  0  0  0  0  0  0  0
    4.1459    1.0283   -0.6137 H   0  0  0  0  0  0  0  0  0  0  0  0
  1  2  1  0
  2  3  1  0
  3  4  1  0
  4  5  1  0
  5  6  1  0
  6  7  1  0
  7  8  1  0
  8  9  1  0
  9 10  2  0
  9 11  1  0
 11 12  1  0
 12 13  1  0
 13 14  2  0
  7  2  1  0
 13  8  1  0
  1 15  1  0
  1 16  1  0
  2 17  1  1
  3 18  1  0
  3 19  1  0
  4 20  1  0
  4 21  1  0
  6 22  1  0
  6 23  1  0
  7 24  1  1
 11 25  1  0
 11 26  1  0
 12 27  1  0
M  END
$$$$

     RDKit          3D

 27 28  0  0  0  0  0  0  0  0999 V2000
   -0.6605    1.4231   -1.1338 N   0  0  0  0  0  0  0  0  0  0  0  0
   -1.2675    0.7652   -0.0150 C   0  0  1  0  0  0  0  0  0  0  0  0
   -2.2225   -0.2834   -0.5432 C   0  0  0  0  0  0  0  0  0  0  0  0
   -2.8050   -1.1231    0.5670 C   0  0  0  0  0  0  0  0  0  0  0  0
   -1.8581   -1.6444    1.4138 O   0  0  0  0  0  0  0  0  0  0  0  0
   -0.5594   -1.3963    1.0525 C   0  0  0  0  0  0  0  0  0  0  0  0
   -0.2698    0.1005    0.8951 C   0  0  1  0  0  0  0  0  0  0  0  0
    1.0700    0.2459    0.4199 N   0  0  0  0  0  0  0  0  0  0  0  0
    1.5646   -0.2068   -0.8255 C   0  0  0  0  0  0  0  0  0  0  0  0
    0.9242   -0.6246   -1.8146 O   0  0  0  0  0  0  0  0  0  0  0  0
    3.0607   -0.1228   -0.8267 C   0  0  0  0  0  0  0  0  0  0  0  0
    3.3302    0.7918    0.2532 N   0  0  0  0  0  0  0  0  0  0  0  0
    2.1583    0.8602    1.0822 C   0  0  0  0  0  0  0  0  0  0  0  0
    2.1841    1.4056    2.2196 O   0  0  0  0  0  0  0  0  0  0  0  0
   -0.3572    2.3738   -0.8293 H   0  0  0  0  0  0  0  0  0  0  0  0
   -1.2853    1.5340   -1.9420 H   0  0  0  0  0  0  0  0  0  0  0  0
   -1.8953    1.5222    0.5234 H   0  0  0  0  0  0  0  0  0  0  0  0
   -3.0825    0.2821   -0.9895 H   0  0  0  0  0  0  0  0  0  0  0  0
   -1.7723   -0.8921   -1.3453 H   0  0  0  0  0  0  0  0  0  0  0  0
   -3.4454   -0.4250    1.1784 H   0  0  0  0  0  0  0  0  0  0  0  0
   -3.4365   -1.8919    0.1188 H   0  0  0  0  0  0  0  0  0  0  0  0
   -0.2300   -1.8937    0.1348 H   0  0  0  0  0  0  0  0  0  0  0  0
    0.0868   -1.7155    1.9186 H   0  0  0  0  0  0  0  0  0  0  0  0
   -0.4093    0.5395    1.9045 H   0  0  0  0  0  0  0  0  0  0  0  0
    3.4878   -1.1370   -0.5763 H   0  0  0  0  0  0  0  0  0  0  0  0
    3.4515    0.2181   -1.8007 H   0  0  0  0  0  0  0  0  0  0  0  0
    4.2383    1.2945    0.3695 H   0  0  0  0  0  0  0  0  0  0  0  0
  1  2  1  0
  2  3  1  0
  3  4  1  0
  4  5  1  0
  5  6  1  0
  6  7  1  0
  7  8  1  0
  8  9  1  0
  9 10  2  0
  9 11  1  0
 11 12  1  0
 12 13  1  0
 13 14  2  0
  7  2  1  0
 13  8  1  0
  1 15  1  0
  1 16  1  0
  2 17  1  1
  3 18  1  0
  3 19  1  0
  4 20  1  0
  4 21  1  0
  6 22  1  0
  6 23  1  0
  7 24  1  1
 11 25  1  0
 11 26  1  0
 12 27  1  0
M  END
$$$$

     RDKit          3D

 27 28  0  0  0  0  0  0  0  0999 V2000
   -0.6121   -1.7672    0.6694 N   0  0  0  0  0  0  0  0  0  0  0  0
   -1.2355   -0.7590   -0.1296 C   0  0  1  0  0  0  0  0  0  0  0  0
   -2.2309   -0.0109    0.7407 C   0  0  0  0  0  0  0  0  0  0  0  0
   -2.8329    1.1726    0.0421 C   0  0  0  0  0  0  0  0  0  0  0  0
   -1.9709    1.7985   -0.8379 O   0  0  0  0  0  0  0  0  0  0  0  0
   -0.6742    1.6033   -0.3575 C   0  0  0  0  0  0  0  0  0  0  0  0
   -0.2778    0.1885   -0.7878 C   0  0  1  0  0  0  0  0  0  0  0  0
    1.1034   -0.0729   -0.4283 N   0  0  0  0  0  0  0  0  0  0  0  0
    2.1927   -0.3802   -1.2871 C   0  0  0  0  0  0  0  0  0  0  0  0
    2.0690   -0.6768   -2.5214 O   0  0  0  0  0  0  0  0  0  0  0  0
    3.4593   -0.2972   -0.5160 C   0  0  0  0  0  0  0  0  0  0  0  0
    3.0228   -0.3672    0.8477 N   0  0  0  0  0  0  0  0  0  0  0  0
    1.6376   -0.0698    0.8849 C   0  0  0  0  0  0  0  0  0  0  0  0
    0.9445    0.1678    1.9055 O   0  0  0  0  0  0  0  0  0  0  0  0
   -0.5054   -2.6668    0.1190 H   0  0  0  0  0  0  0  0  0  0  0  0
   -1.1833   -1.9952    1.4995 H   0  0  0  0  0  0  0  0  0  0  0  0
   -1.8624   -1.2946   -0.9008 H   0  0  0  0  0  0  0  0  0  0  0  0
   -3.0721   -0.7398    0.9192 H   0  0  0  0  0  0  0  0  0  0  0  0
   -1.8227    0.2246    1.7273 H   0  0  0  0  0  0  0  0  0  0  0  0
   -3.1509    1.9256    0.7995 H   0  0  0  0  0  0  0  0  0  0  0  0
   -3.7478    0.8870   -0.5422 H   0  0  0  0  0  0  0  0  0  0  0  0
   -0.6065    1.6804    0.7383 H   0  0  0  0  0  0  0  0  0  0  0  0
    0.0498    2.3037   -0.8320 H   0  0  0  0  0  0  0  0  0  0  0  0
   -0.4065    0.1184   -1.8858 H   0  0  0  0  0  0  0  0  0  0  0  0
    4.1809   -1.0918   -0.7988 H   0  0  0  0  0  0  0  0  0  0  0  0
    3.9041    0.7169   -0.7321 H   0  0  0  0  0  0  0  0  0  0  0  0
    3.6278   -0.5978    1.6643 H   0  0  0  0  0  0  0  0  0  0  0  0
  1  2  1  0
  2  3  1  0
  3  4  1  0
  4  5  1  0
  5  6  1  0
  6  7  1  0
  7  8  1  0
  8  9  1  0
  9 10  2  0
  9 11  1  0
 11 12  1  0
 12 13  1  0
 13 14  2  0
  7  2  1  0
 13  8  1  0
  1 15  1  0
  1 16  1  0
  2 17  1  6
  3 18  1  0
  3 19  1  0
  4 20  1  0
  4 21  1  0
  6 22  1  0
  6 23  1  0
  7 24  1  6
 11 25  1  0
 11 26  1  0
 12 27  1  0
M  END
$$$$

     RDKit          3D

 27 28  0  0  0  0  0  0  0  0999 V2000
   -0.5218   -1.3300   -1.6403 N   0  0  0  0  0  0  0  0  0  0  0  0
   -1.2628   -0.3277   -0.9289 C   0  0  1  0  0  0  0  0  0  0  0  0
   -2.1094   -1.0261    0.1064 C   0  0  0  0  0  0  0  0  0  0  0  0
   -2.4604   -0.1810    1.2862 C   0  0  0  0  0  0  0  0  0  0  0  0
   -1.2983    0.4242    1.7613 O   0  0  0  0  0  0  0  0  0  0  0  0
   -1.0041    1.4432    0.8418 C   0  0  0  0  0  0  0  0  0  0  0  0
   -0.4163    0.7839   -0.4033 C   0  0  1  0  0  0  0  0  0  0  0  0
    0.9738    0.4528   -0.2182 N   0  0  0  0  0  0  0  0  0  0  0  0
    1.4859   -0.5219    0.6730 C   0  0  0  0  0  0  0  0  0  0  0  0
    0.8404   -1.3527    1.3366 O   0  0  0  0  0  0  0  0  0  0  0  0
    2.9795   -0.4358    0.7311 C   0  0  0  0  0  0  0  0  0  0  0  0
    3.3003    0.3946   -0.3901 N   0  0  0  0  0  0  0  0  0  0  0  0
    2.1148    1.0043   -0.8626 C   0  0  0  0  0  0  0  0  0  0  0  0
    2.0830    1.9270   -1.7505 O   0  0  0  0  0  0  0  0  0  0  0  0
    0.4674   -1.4139   -1.3850 H   0  0  0  0  0  0  0  0  0  0  0  0
   -0.5959   -1.2153   -2.6750 H   0  0  0  0  0  0  0  0  0  0  0  0
   -2.0033    0.0860   -1.6799 H   0  0  0  0  0  0  0  0  0  0  0  0
   -3.0946   -1.3505   -0.3472 H   0  0  0  0  0  0  0  0  0  0  0  0
   -1.6594   -2.0111    0.4254 H   0  0  0  0  0  0  0  0  0  0  0  0
   -2.9175   -0.8144    2.0482 H   0  0  0  0  0  0  0  0  0  0  0  0
   -3.1748    0.6150    0.9379 H   0  0  0  0  0  0  0  0  0  0  0  0
   -0.2591    2.1408    1.2359 H   0  0  0  0  0  0  0  0  0  0  0  0
   -1.9561    1.9037    0.5400 H   0  0  0  0  0  0  0  0  0  0  0  0
   -0.4408    1.6032   -1.1844 H   0  0  0  0  0  0  0  0  0  0  0  0
    3.2125    0.0710    1.7127 H   0  0  0  0  0  0  0  0  0  0  0  0
    3.4602   -1.4238    0.6558 H   0  0  0  0  0  0  0  0  0  0  0  0
    4.2568    0.5545   -0.8270 H   0  0  0  0  0  0  0  0  0  0  0  0
  1  2  1  0
  2  3  1  0
  3  4  1  0
  4  5  1  0
  5  6  1  0
  6  7  1  0
  7  8  1  0
  8  9  1  0
  9 10  2  0
  9 11  1  0
 11 12  1  0
 12 13  1  0
 13 14  2  0
  7  2  1  0
 13  8  1  0
  1 15  1  0
  1 16  1  0
  2 17  1  6
  3 18  1  0
  3 19  1  0
  4 20  1  0
  4 21  1  0
  6 22  1  0
  6 23  1  0
  7 24  1  6
 11 25  1  0
 11 26  1  0
 12 27  1  0
M  END
$$$$

     RDKit          3D

 27 28  0  0  0  0  0  0  0  0999 V2000
    0.2868    1.7117    0.8021 N   0  0  0  0  0  0  0  0  0  0  0  0
    1.1967    0.9031    0.0117 C   0  0  1  0  0  0  0  0  0  0  0  0
    2.1590    0.2460    0.9490 C   0  0  0  0  0  0  0  0  0  0  0  0
    2.8808   -0.9303    0.3514 C   0  0  0  0  0  0  0  0  0  0  0  0
    2.2803   -1.3691   -0.8328 O   0  0  0  0  0  0  0  0  0  0  0  0
    0.9148   -1.4477   -0.5625 C   0  0  0  0  0  0  0  0  0  0  0  0
    0.3462   -0.0764   -0.7700 C   0  0  1  0  0  0  0  0  0  0  0  0
   -1.0477    0.0159   -0.4237 N   0  0  0  0  0  0  0  0  0  0  0  0
   -1.6649   -0.2208    0.8502 C   0  0  0  0  0  0  0  0  0  0  0  0
   -1.0574   -0.3007    1.9328 O   0  0  0  0  0  0  0  0  0  0  0  0
   -3.1326   -0.3538    0.6677 C   0  0  0  0  0  0  0  0  0  0  0  0
   -3.3232    0.3488   -0.5849 N   0  0  0  0  0  0  0  0  0  0  0  0
   -2.1005    0.3707   -1.3075 C   0  0  0  0  0  0  0  0  0  0  0  0
   -1.9883    0.6639   -2.5479 O   0  0  0  0  0  0  0  0  0  0  0  0
    0.8317    2.0595    1.6262 H   0  0  0  0  0  0  0  0  0  0  0  0
   -0.0380    2.5327    0.2250 H   0  0  0  0  0  0  0  0  0  0  0  0
    1.7207    1.6281   -0.6747 H   0  0  0  0  0  0  0  0  0  0  0  0
    1.6779   -0.0258    1.9109 H   0  0  0  0  0  0  0  0  0  0  0  0
    2.9344    1.0109    1.2141 H   0  0  0  0  0  0  0  0  0  0  0  0
    2.8305   -1.7863    1.0566 H   0  0  0  0  0  0  0  0  0  0  0  0
    3.9589   -0.7195    0.1949 H   0  0  0  0  0  0  0  0  0  0  0  0
    0.4591   -2.2231   -1.1938 H   0  0  0  0  0  0  0  0  0  0  0  0
    0.7666   -1.7015    0.5259 H   0  0  0  0  0  0  0  0  0  0  0  0
    0.4588    0.1713   -1.8429 H   0  0  0  0  0  0  0  0  0  0  0  0
   -3.6946    0.1229    1.4860 H   0  0  0  0  0  0  0  0  0  0  0  0
   -3.4199   -1.4132    0.4970 H   0  0  0  0  0  0  0  0  0  0  0  0
   -4.2361    0.7828   -0.9163 H   0  0  0  0  0  0  0  0  0  0  0  0
  1  2  1  0
  2  3  1  0
  3  4  1  0
  4  5  1  0
  5  6  1  0
  6  7  1  0
  7  8  1  0
  8  9  1  0
  9 10  2  0
  9 11  1  0
 11 12  1  0
 12 13  1  0
 13 14  2  0
  7  2  1  0
 13  8  1  0
  1 15  1  0
  1 16  1  0
  2 17  1  6
  3 18  1  0
  3 19  1  0
  4 20  1  0
  4 21  1  0
  6 22  1  0
  6 23  1  0
  7 24  1  6
 11 25  1  0
 11 26  1  0
 12 27  1  0
M  END
$$$$

     RDKit          3D

 27 28  0  0  0  0  0  0  0  0999 V2000
   -0.4249   -1.8375   -0.4809 N   0  0  0  0  0  0  0  0  0  0  0  0
   -1.2270   -0.6261   -0.4963 C   0  0  1  0  0  0  0  0  0  0  0  0
   -2.2203   -0.6264    0.6670 C   0  0  0  0  0  0  0  0  0  0  0  0
   -2.8794    0.7483    0.5616 C   0  0  0  0  0  0  0  0  0  0  0  0
   -1.9963    1.6635    1.0504 O   0  0  0  0  0  0  0  0  0  0  0  0
   -0.7085    1.5552    0.6517 C   0  0  0  0  0  0  0  0  0  0  0  0
   -0.3967    0.6171   -0.4467 C   0  0  1  0  0  0  0  0  0  0  0  0
    1.0120    0.2691   -0.3768 N   0  0  0  0  0  0  0  0  0  0  0  0
    1.6582   -0.4292    0.6993 C   0  0  0  0  0  0  0  0  0  0  0  0
    1.0933   -1.0282    1.6439 O   0  0  0  0  0  0  0  0  0  0  0  0
    3.1298   -0.3394    0.5311 C   0  0  0  0  0  0  0  0  0  0  0  0
    3.2960    0.0097   -0.8538 N   0  0  0  0  0  0  0  0  0  0  0  0
    2.0530    0.5203   -1.3100 C   0  0  0  0  0  0  0  0  0  0  0  0
    1.8489    1.1329   -2.4097 O   0  0  0  0  0  0  0  0  0  0  0  0
   -0.0751   -1.9623   -1.4628 H   0  0  0  0  0  0  0  0  0  0  0  0
   -1.0915   -2.6248   -0.3131 H   0  0  0  0  0  0  0  0  0  0  0  0
   -1.8563   -0.6797   -1.4118 H   0  0  0  0  0  0  0  0  0  0  0  0
   -2.9939   -1.4139    0.5289 H   0  0  0  0  0  0  0  0  0  0  0  0
   -1.6923   -0.7498    1.6286 H   0  0  0  0  0  0  0  0  0  0  0  0
   -3.0561    0.9770   -0.5193 H   0  0  0  0  0  0  0  0  0  0  0  0
   -3.8277    0.7871    1.1196 H   0  0  0  0  0  0  0  0  0  0  0  0
   -0.0793    1.3275    1.5567 H   0  0  0  0  0  0  0  0  0  0  0  0
   -0.3590    2.5841    0.3388 H   0  0  0  0  0  0  0  0  0  0  0  0
   -0.5363    1.1488   -1.4172 H   0  0  0  0  0  0  0  0  0  0  0  0
    3.5871    0.4087    1.2278 H   0  0  0  0  0  0  0  0  0  0  0  0
    3.5765   -1.3512    0.7522 H   0  0  0  0  0  0  0  0  0  0  0  0
    4.1659   -0.0807   -1.4592 H   0  0  0  0  0  0  0  0  0  0  0  0
  1  2  1  0
  2  3  1  0
  3  4  1  0
  4  5  1  0
  5  6  1  0
  6  7  1  0
  7  8  1  0
  8  9  1  0
  9 10  2  0
  9 11  1  0
 11 12  1  0
 12 13  1  0
 13 14  2  0
  7  2  1  0
 13  8  1  0
  1 15  1  0
  1 16  1  0
  2 17  1  6
  3 18  1  0
  3 19  1  0
  4 20  1  0
  4 21  1  0
  6 22  1  0
  6 23  1  0
  7 24  1  6
 11 25  1  0
 11 26  1  0
 12 27  1  0
M  END
$$$$

     RDKit          3D

 27 28  0  0  0  0  0  0  0  0999 V2000
   -0.4795   -1.9014    0.2783 N   0  0  0  0  0  0  0  0  0  0  0  0
   -1.1371   -0.7158   -0.2259 C   0  0  1  0  0  0  0  0  0  0  0  0
   -2.2715   -0.3729    0.7168 C   0  0  0  0  0  0  0  0  0  0  0  0
   -2.9256    0.9339    0.3971 C   0  0  0  0  0  0  0  0  0  0  0  0
   -2.1230    1.7645   -0.3945 O   0  0  0  0  0  0  0  0  0  0  0  0
   -0.8292    1.6776    0.1506 C   0  0  0  0  0  0  0  0  0  0  0  0
   -0.2117    0.4239   -0.4822 C   0  0  1  0  0  0  0  0  0  0  0  0
    1.1281    0.2054   -0.0097 N   0  0  0  0  0  0  0  0  0  0  0  0
    2.3322    0.2633   -0.7632 C   0  0  0  0  0  0  0  0  0  0  0  0
    2.4704    0.7727   -1.9053 O   0  0  0  0  0  0  0  0  0  0  0  0
    3.4381   -0.3830    0.0132 C   0  0  0  0  0  0  0  0  0  0  0  0
    2.9461   -0.2506    1.3709 N   0  0  0  0  0  0  0  0  0  0  0  0
    1.5289   -0.1152    1.3148 C   0  0  0  0  0  0  0  0  0  0  0  0
    0.7561   -0.2586    2.2907 O   0  0  0  0  0  0  0  0  0  0  0  0
   -1.2212   -2.6262    0.4057 H   0  0  0  0  0  0  0  0  0  0  0  0
    0.1285   -2.2727   -0.5057 H   0  0  0  0  0  0  0  0  0  0  0  0
   -1.6258   -1.0154   -1.1922 H   0  0  0  0  0  0  0  0  0  0  0  0
   -1.9446   -0.3722    1.7856 H   0  0  0  0  0  0  0  0  0  0  0  0
   -3.0419   -1.1775    0.5740 H   0  0  0  0  0  0  0  0  0  0  0  0
   -3.1690    1.4898    1.3495 H   0  0  0  0  0  0  0  0  0  0  0  0
   -3.8865    0.7902   -0.1423 H   0  0  0  0  0  0  0  0  0  0  0  0
   -0.2127    2.5440   -0.1103 H   0  0  0  0  0  0  0  0  0  0  0  0
   -0.9304    1.5410    1.2371 H   0  0  0  0  0  0  0  0  0  0  0  0
   -0.1658    0.6575   -1.5829 H   0  0  0  0  0  0  0  0  0  0  0  0
    3.5070   -1.4742   -0.2536 H   0  0  0  0  0  0  0  0  0  0  0  0
    4.4034    0.1254   -0.1320 H   0  0  0  0  0  0  0  0  0  0  0  0
    3.5367   -0.2535    2.2560 H   0  0  0  0  0  0  0  0  0  0  0  0
  1  2  1  0
  2  3  1  0
  3  4  1  0
  4  5  1  0
  5  6  1  0
  6  7  1  0
  7  8  1  0
  8  9  1  0
  9 10  2  0
  9 11  1  0
 11 12  1  0
 12 13  1  0
 13 14  2  0
  7  2  1  0
 13  8  1  0
  1 15  1  0
  1 16  1  0
  2 17  1  6
  3 18  1  0
  3 19  1  0
  4 20  1  0
  4 21  1  0
  6 22  1  0
  6 23  1  0
  7 24  1  6
 11 25  1  0
 11 26  1  0
 12 27  1  0
M  END
$$$$

     RDKit          3D

 27 28  0  0  0  0  0  0  0  0999 V2000
   -0.5279   -1.7821    0.0162 N   0  0  0  0  0  0  0  0  0  0  0  0
   -1.2536   -0.6257   -0.5353 C   0  0  1  0  0  0  0  0  0  0  0  0
   -2.4517   -0.4100    0.3138 C   0  0  0  0  0  0  0  0  0  0  0  0
   -2.6839    1.0163    0.7186 C   0  0  0  0  0  0  0  0  0  0  0  0
   -1.4561    1.4563    1.2687 O   0  0  0  0  0  0  0  0  0  0  0  0
   -0.6350    1.7025    0.1977 C   0  0  0  0  0  0  0  0  0  0  0  0
   -0.3292    0.5299   -0.6575 C   0  0  1  0  0  0  0  0  0  0  0  0
    1.0671    0.1509   -0.4060 N   0  0  0  0  0  0  0  0  0  0  0  0
    1.5942   -0.3504    0.8234 C   0  0  0  0  0  0  0  0  0  0  0  0
    0.9618   -0.5669    1.8798 O   0  0  0  0  0  0  0  0  0  0  0  0
    3.0575   -0.5966    0.6910 C   0  0  0  0  0  0  0  0  0  0  0  0
    3.3573   -0.2552   -0.6761 N   0  0  0  0  0  0  0  0  0  0  0  0
    2.1644    0.1988   -1.3031 C   0  0  0  0  0  0  0  0  0  0  0  0
    2.1052    0.5878   -2.4944 O   0  0  0  0  0  0  0  0  0  0  0  0
    0.0594   -2.2374   -0.7260 H   0  0  0  0  0  0  0  0  0  0  0  0
   -1.2946   -2.4876    0.2252 H   0  0  0  0  0  0  0  0  0  0  0  0
   -1.6181   -0.9891   -1.5415 H   0  0  0  0  0  0  0  0  0  0  0  0
   -2.4078   -1.0061    1.2726 H   0  0  0  0  0  0  0  0  0  0  0  0
   -3.4068   -0.7624   -0.1734 H   0  0  0  0  0  0  0  0  0  0  0  0
   -3.4368    1.0523    1.5198 H   0  0  0  0  0  0  0  0  0  0  0  0
   -2.9315    1.6586   -0.1530 H   0  0  0  0  0  0  0  0  0  0  0  0
   -1.1123    2.5354   -0.3963 H   0  0  0  0  0  0  0  0  0  0  0  0
    0.3038    2.1752    0.6122 H   0  0  0  0  0  0  0  0  0  0  0  0
   -0.3688    0.8777   -1.7315 H   0  0  0  0  0  0  0  0  0  0  0  0
    3.5775    0.1003    1.4102 H   0  0  0  0  0  0  0  0  0  0  0  0
    3.3445   -1.6255    0.9340 H   0  0  0  0  0  0  0  0  0  0  0  0
    4.3213   -0.3472   -1.0893 H   0  0  0  0  0  0  0  0  0  0  0  0
  1  2  1  0
  2  3  1  0
  3  4  1  0
  4  5  1  0
  5  6  1  0
  6  7  1  0
  7  8  1  0
  8  9  1  0
  9 10  2  0
  9 11  1  0
 11 12  1  0
 12 13  1  0
 13 14  2  0
  7  2  1  0
 13  8  1  0
  1 15  1  0
  1 16  1  0
  2 17  1  6
  3 18  1  0
  3 19  1  0
  4 20  1  0
  4 21  1  0
  6 22  1  0
  6 23  1  0
  7 24  1  6
 11 25  1  0
 11 26  1  0
 12 27  1  0
M  END
$$$$
