
     RDKit          3D

 23 22  0  0  0  0  0  0  0  0999 V2000
   -2.1381   -2.6964    1.6302 B   0  0  0  0  0  4  0  0  0  0  0  0
   -1.5791   -1.4812    0.9685 O   0  0  0  0  0  0  0  0  0  0  0  0
   -0.4056   -1.4963    0.2345 C   0  0  0  0  0  0  0  0  0  0  0  0
    0.2059   -2.5849    0.1278 O   0  0  0  0  0  0  0  0  0  0  0  0
    0.1202   -0.2913   -0.4037 C   0  0  0  0  0  0  0  0  0  0  0  0
   -0.6826    0.8516   -0.1904 O   0  0  0  0  0  0  0  0  0  0  0  0
   -1.2727    1.5834   -1.2004 C   0  0  0  0  0  0  0  0  0  0  0  0
   -2.1173    2.7895   -0.9352 C   0  0  0  0  0  0  0  0  0  0  0  0
   -1.0809    1.2062   -2.3771 O   0  0  0  0  0  0  0  0  0  0  0  0
    1.4255    0.0327    0.0099 O   0  0  0  0  0  0  0  0  0  0  0  0
    2.4728    0.1347   -0.8807 C   0  0  0  0  0  0  0  0  0  0  0  0
    3.8397    0.4794   -0.4058 C   0  0  0  0  0  0  0  0  0  0  0  0
    2.2660   -0.0664   -2.1047 O   0  0  0  0  0  0  0  0  0  0  0  0
   -3.3397   -2.6423    1.6872 H   0  0  0  0  0  0  0  0  0  0  0  0
   -1.6650   -2.7471    2.7200 H   0  0  0  0  0  0  0  0  0  0  0  0
   -1.7844   -3.6503    1.0160 H   0  0  0  0  0  0  0  0  0  0  0  0
    0.1460   -0.4310   -1.5244 H   0  0  0  0  0  0  0  0  0  0  0  0
   -2.9590    2.7990   -1.6581 H   0  0  0  0  0  0  0  0  0  0  0  0
   -2.4801    2.7757    0.1200 H   0  0  0  0  0  0  0  0  0  0  0  0
   -1.5463    3.7284   -1.1064 H   0  0  0  0  0  0  0  0  0  0  0  0
    3.7964    1.1935    0.4467 H   0  0  0  0  0  0  0  0  0  0  0  0
    4.4261    0.9772   -1.2182 H   0  0  0  0  0  0  0  0  0  0  0  0
    4.3522   -0.4641   -0.1534 H   0  0  0  0  0  0  0  0  0  0  0  0
  1  2  1  0
  2  3  1  0
  3  4  2  0
  3  5  1  0
  5  6  1  0
  6  7  1  0
  7  8  1  0
  7  9  2  0
  5 10  1  0
 10 11  1  0
 11 12  1  0
 11 13  2  0
  1 14  1  0
  1 15  1  0
  1 16  1  0
  5 17  1  0
  8 18  1  0
  8 19  1  0
  8 20  1  0
 12 21  1  0
 12 22  1  0
 12 23  1  0
M  CHG  1   1  -1
M  END
$$$$

     RDKit          3D

 23 22  0  0  0  0  0  0  0  0999 V2000
   -2.2256   -3.1448   -0.3601 B   0  0  0  0  0  4  0  0  0  0  0  0
   -1.1644   -2.1662   -0.0229 O   0  0  0  0  0  0  0  0  0  0  0  0
   -1.2304   -0.8152   -0.2987 C   0  0  0  0  0  0  0  0  0  0  0  0
   -2.2491   -0.3797   -0.8706 O   0  0  0  0  0  0  0  0  0  0  0  0
   -0.1341    0.0999    0.0669 C   0  0  0  0  0  0  0  0  0  0  0  0
   -0.4765    1.3946   -0.3326 O   0  0  0  0  0  0  0  0  0  0  0  0
   -0.6161    2.4738    0.4957 C   0  0  0  0  0  0  0  0  0  0  0  0
   -0.9869    3.7731   -0.1224 C   0  0  0  0  0  0  0  0  0  0  0  0
   -0.4319    2.3345    1.7128 O   0  0  0  0  0  0  0  0  0  0  0  0
    1.1224   -0.3158   -0.4293 O   0  0  0  0  0  0  0  0  0  0  0  0
    2.2116   -0.5753    0.3631 C   0  0  0  0  0  0  0  0  0  0  0  0
    3.5319   -1.0120   -0.1577 C   0  0  0  0  0  0  0  0  0  0  0  0
    2.0345   -0.4195    1.6107 O   0  0  0  0  0  0  0  0  0  0  0  0
   -3.2109   -2.5953   -0.7989 H   0  0  0  0  0  0  0  0  0  0  0  0
   -1.8767   -3.9589   -1.1522 H   0  0  0  0  0  0  0  0  0  0  0  0
   -2.5822   -3.6478    0.6613 H   0  0  0  0  0  0  0  0  0  0  0  0
   -0.0054    0.1542    1.1903 H   0  0  0  0  0  0  0  0  0  0  0  0
   -0.2885    3.9703   -0.9587 H   0  0  0  0  0  0  0  0  0  0  0  0
   -2.0063    3.6906   -0.5630 H   0  0  0  0  0  0  0  0  0  0  0  0
   -1.0325    4.6001    0.6056 H   0  0  0  0  0  0  0  0  0  0  0  0
    3.5137   -2.1136   -0.2847 H   0  0  0  0  0  0  0  0  0  0  0  0
    3.7439   -0.5860   -1.1676 H   0  0  0  0  0  0  0  0  0  0  0  0
    4.3595   -0.7609    0.5096 H   0  0  0  0  0  0  0  0  0  0  0  0
  1  2  1  0
  2  3  1  0
  3  4  2  0
  3  5  1  0
  5  6  1  0
  6  7  1  0
  7  8  1  0
  7  9  2  0
  5 10  1  0
 10 11  1  0
 11 12  1  0
 11 13  2  0
  1 14  1  0
  1 15  1  0
  1 16  1  0
  5 17  1  0
  8 18  1  0
  8 19  1  0
  8 20  1  0
 12 21  1  0
 12 22  1  0
 12 23  1  0
M  CHG  1   1  -1
M  END
$$$$

     RDKit          3D

 23 22  0  0  0  0  0  0  0  0999 V2000
    3.7423   -0.4563   -0.8090 B   0  0  0  0  0  4  0  0  0  0  0  0
    2.3497    0.0133   -0.5103 O   0  0  0  0  0  0  0  0  0  0  0  0
    1.3706   -0.8210   -0.0010 C   0  0  0  0  0  0  0  0  0  0  0  0
    1.6906   -2.0127    0.2087 O   0  0  0  0  0  0  0  0  0  0  0  0
    0.0271   -0.2882    0.2667 C   0  0  0  0  0  0  0  0  0  0  0  0
   -0.0841    1.0872   -0.0531 O   0  0  0  0  0  0  0  0  0  0  0  0
   -0.4039    2.0643    0.8768 C   0  0  0  0  0  0  0  0  0  0  0  0
   -0.5158    3.5113    0.5159 C   0  0  0  0  0  0  0  0  0  0  0  0
   -0.5948    1.6470    2.0529 O   0  0  0  0  0  0  0  0  0  0  0  0
   -0.9742   -0.9344   -0.5155 O   0  0  0  0  0  0  0  0  0  0  0  0
   -2.0030   -1.6593    0.0659 C   0  0  0  0  0  0  0  0  0  0  0  0
   -3.0550   -2.3394   -0.7301 C   0  0  0  0  0  0  0  0  0  0  0  0
   -1.9975   -1.7107    1.3166 O   0  0  0  0  0  0  0  0  0  0  0  0
    3.6669   -1.6307   -1.0036 H   0  0  0  0  0  0  0  0  0  0  0  0
    4.4256   -0.3079    0.1577 H   0  0  0  0  0  0  0  0  0  0  0  0
    4.1906    0.0778   -1.7661 H   0  0  0  0  0  0  0  0  0  0  0  0
   -0.1767   -0.4749    1.3614 H   0  0  0  0  0  0  0  0  0  0  0  0
   -0.6827    4.0632    1.4671 H   0  0  0  0  0  0  0  0  0  0  0  0
    0.3919    3.8713   -0.0122 H   0  0  0  0  0  0  0  0  0  0  0  0
   -1.3751    3.7055   -0.1281 H   0  0  0  0  0  0  0  0  0  0  0  0
   -3.8895   -2.5729   -0.0450 H   0  0  0  0  0  0  0  0  0  0  0  0
   -3.4465   -1.5993   -1.4589 H   0  0  0  0  0  0  0  0  0  0  0  0
   -2.6562   -3.2331   -1.2571 H   0  0  0  0  0  0  0  0  0  0  0  0
  1  2  1  0
  2  3  1  0
  3  4  2  0
  3  5  1  0
  5  6  1  0
  6  7  1  0
  7  8  1  0
  7  9  2  0
  5 10  1  0
 10 11  1  0
 11 12  1  0
 11 13  2  0
  1 14  1  0
  1 15  1  0
  1 16  1  0
  5 17  1  0
  8 18  1  0
  8 19  1  0
  8 20  1  0
 12 21  1  0
 12 22  1  0
 12 23  1  0
M  CHG  1   1  -1
M  END
$$$$

     RDKit          3D

 23 22  0  0  0  0  0  0  0  0999 V2000
    0.4699    3.7939    0.7509 B   0  0  0  0  0  4  0  0  0  0  0  0
    0.6035    2.3242    0.5342 O   0  0  0  0  0  0  0  0  0  0  0  0
   -0.3767    1.5528   -0.0673 C   0  0  0  0  0  0  0  0  0  0  0  0
   -1.4229    2.1350   -0.4426 O   0  0  0  0  0  0  0  0  0  0  0  0
   -0.2292    0.0928   -0.2758 C   0  0  0  0  0  0  0  0  0  0  0  0
    1.0056   -0.3871    0.2065 O   0  0  0  0  0  0  0  0  0  0  0  0
    1.9466   -1.0265   -0.5913 C   0  0  0  0  0  0  0  0  0  0  0  0
    3.2475   -1.5226   -0.0430 C   0  0  0  0  0  0  0  0  0  0  0  0
    1.6552   -1.1714   -1.8040 O   0  0  0  0  0  0  0  0  0  0  0  0
   -1.2494   -0.6193    0.4154 O   0  0  0  0  0  0  0  0  0  0  0  0
   -2.0924   -1.4764   -0.2730 C   0  0  0  0  0  0  0  0  0  0  0  0
   -3.1807   -2.2458    0.4184 C   0  0  0  0  0  0  0  0  0  0  0  0
   -1.9112   -1.5883   -1.5134 O   0  0  0  0  0  0  0  0  0  0  0  0
    1.3913    4.3069    0.1682 H   0  0  0  0  0  0  0  0  0  0  0  0
    0.4981    4.0730    1.9072 H   0  0  0  0  0  0  0  0  0  0  0  0
   -0.5285    4.1797    0.2151 H   0  0  0  0  0  0  0  0  0  0  0  0
   -0.2472   -0.1572   -1.3768 H   0  0  0  0  0  0  0  0  0  0  0  0
    3.5140   -1.0082    0.8911 H   0  0  0  0  0  0  0  0  0  0  0  0
    3.1702   -2.6190    0.0848 H   0  0  0  0  0  0  0  0  0  0  0  0
    4.0187   -1.2907   -0.8344 H   0  0  0  0  0  0  0  0  0  0  0  0
   -3.1387   -3.2948    0.0047 H   0  0  0  0  0  0  0  0  0  0  0  0
   -4.1321   -1.7834    0.1284 H   0  0  0  0  0  0  0  0  0  0  0  0
   -3.0117   -2.2675    1.4967 H   0  0  0  0  0  0  0  0  0  0  0  0
  1  2  1  0
  2  3  1  0
  3  4  2  0
  3  5  1  0
  5  6  1  0
  6  7  1  0
  7  8  1  0
  7  9  2  0
  5 10  1  0
 10 11  1  0
 11 12  1  0
 11 13  2  0
  1 14  1  0
  1 15  1  0
  1 16  1  0
  5 17  1  0
  8 18  1  0
  8 19  1  0
  8 20  1  0
 12 21  1  0
 12 22  1  0
 12 23  1  0
M  CHG  1   1  -1
M  END
$$$$

     RDKit          3D

 23 22  0  0  0  0  0  0  0  0999 V2000
    3.7051    0.9035   -0.7708 B   0  0  0  0  0  4  0  0  0  0  0  0
    2.3159    0.8112   -0.2804 O   0  0  0  0  0  0  0  0  0  0  0  0
    1.4770   -0.2605   -0.4946 C   0  0  0  0  0  0  0  0  0  0  0  0
    1.9210   -1.2237   -1.1501 O   0  0  0  0  0  0  0  0  0  0  0  0
    0.1185   -0.2368    0.0423 C   0  0  0  0  0  0  0  0  0  0  0  0
   -0.6547   -1.3589   -0.2223 O   0  0  0  0  0  0  0  0  0  0  0  0
   -1.1996   -2.2135    0.7008 C   0  0  0  0  0  0  0  0  0  0  0  0
   -2.0221   -3.4006    0.3079 C   0  0  0  0  0  0  0  0  0  0  0  0
   -0.9681   -1.9423    1.9058 O   0  0  0  0  0  0  0  0  0  0  0  0
   -0.6251    0.8926   -0.4477 O   0  0  0  0  0  0  0  0  0  0  0  0
   -1.1055    1.8640    0.4124 C   0  0  0  0  0  0  0  0  0  0  0  0
   -1.8845    3.0503   -0.0861 C   0  0  0  0  0  0  0  0  0  0  0  0
   -0.8576    1.7056    1.6369 O   0  0  0  0  0  0  0  0  0  0  0  0
    3.7712    1.3620   -1.8634 H   0  0  0  0  0  0  0  0  0  0  0  0
    4.2065   -0.1740   -0.8026 H   0  0  0  0  0  0  0  0  0  0  0  0
    4.3955    1.5665   -0.0465 H   0  0  0  0  0  0  0  0  0  0  0  0
    0.2131   -0.1623    1.1662 H   0  0  0  0  0  0  0  0  0  0  0  0
   -2.4879   -3.2188   -0.7016 H   0  0  0  0  0  0  0  0  0  0  0  0
   -2.7571   -3.6749    1.0720 H   0  0  0  0  0  0  0  0  0  0  0  0
   -1.3510   -4.2711    0.1611 H   0  0  0  0  0  0  0  0  0  0  0  0
   -2.7674    3.1855    0.5841 H   0  0  0  0  0  0  0  0  0  0  0  0
   -2.1715    2.8346   -1.1317 H   0  0  0  0  0  0  0  0  0  0  0  0
   -1.2718    3.9617    0.0084 H   0  0  0  0  0  0  0  0  0  0  0  0
  1  2  1  0
  2  3  1  0
  3  4  2  0
  3  5  1  0
  5  6  1  0
  6  7  1  0
  7  8  1  0
  7  9  2  0
  5 10  1  0
 10 11  1  0
 11 12  1  0
 11 13  2  0
  1 14  1  0
  1 15  1  0
  1 16  1  0
  5 17  1  0
  8 18  1  0
  8 19  1  0
  8 20  1  0
 12 21  1  0
 12 22  1  0
 12 23  1  0
M  CHG  1   1  -1
M  END
$$$$

     RDKit          3D

 23 22  0  0  0  0  0  0  0  0999 V2000
   -1.4009    3.1865    1.2413 B   0  0  0  0  0  4  0  0  0  0  0  0
   -0.5250    2.0445    0.8469 O   0  0  0  0  0  0  0  0  0  0  0  0
   -0.9901    1.0761   -0.0153 C   0  0  0  0  0  0  0  0  0  0  0  0
   -2.1571    1.1710   -0.4607 O   0  0  0  0  0  0  0  0  0  0  0  0
   -0.1178   -0.0490   -0.3996 C   0  0  0  0  0  0  0  0  0  0  0  0
    1.1218    0.1176    0.2555 O   0  0  0  0  0  0  0  0  0  0  0  0
    2.3013    0.2193   -0.4547 C   0  0  0  0  0  0  0  0  0  0  0  0
    3.6208    0.3967    0.2422 C   0  0  0  0  0  0  0  0  0  0  0  0
    2.2166    0.1561   -1.7115 O   0  0  0  0  0  0  0  0  0  0  0  0
   -0.7733   -1.2383    0.0055 O   0  0  0  0  0  0  0  0  0  0  0  0
   -1.1701   -2.2318   -0.8682 C   0  0  0  0  0  0  0  0  0  0  0  0
   -1.8498   -3.4212   -0.2697 C   0  0  0  0  0  0  0  0  0  0  0  0
   -0.9488   -2.0928   -2.0772 O   0  0  0  0  0  0  0  0  0  0  0  0
   -1.9699    3.6469    0.2987 H   0  0  0  0  0  0  0  0  0  0  0  0
   -0.7339    3.9948    1.8106 H   0  0  0  0  0  0  0  0  0  0  0  0
   -2.1811    2.7560    2.0363 H   0  0  0  0  0  0  0  0  0  0  0  0
    0.0025   -0.0827   -1.5031 H   0  0  0  0  0  0  0  0  0  0  0  0
    3.7874    1.4864    0.3241 H   0  0  0  0  0  0  0  0  0  0  0  0
    3.4723    0.0203    1.2743 H   0  0  0  0  0  0  0  0  0  0  0  0
    4.4149   -0.1259   -0.3098 H   0  0  0  0  0  0  0  0  0  0  0  0
   -1.4217   -3.6170    0.7398 H   0  0  0  0  0  0  0  0  0  0  0  0
   -1.7910   -4.3061   -0.9240 H   0  0  0  0  0  0  0  0  0  0  0  0
   -2.9069   -3.1075   -0.0814 H   0  0  0  0  0  0  0  0  0  0  0  0
  1  2  1  0
  2  3  1  0
  3  4  2  0
  3  5  1  0
  5  6  1  0
  6  7  1  0
  7  8  1  0
  7  9  2  0
  5 10  1  0
 10 11  1  0
 11 12  1  0
 11 13  2  0
  1 14  1  0
  1 15  1  0
  1 16  1  0
  5 17  1  0
  8 18  1  0
  8 19  1  0
  8 20  1  0
 12 21  1  0
 12 22  1  0
 12 23  1  0
M  CHG  1   1  -1
M  END
$$$$

     RDKit          3D

 23 22  0  0  0  0  0  0  0  0999 V2000
   -3.1117   -2.1705   -0.4460 B   0  0  0  0  0  4  0  0  0  0  0  0
   -2.1374   -1.0707   -0.1635 O   0  0  0  0  0  0  0  0  0  0  0  0
   -0.7926   -1.2106   -0.4811 C   0  0  0  0  0  0  0  0  0  0  0  0
   -0.4331   -2.2917   -1.0114 O   0  0  0  0  0  0  0  0  0  0  0  0
    0.1912   -0.1197   -0.2041 C   0  0  0  0  0  0  0  0  0  0  0  0
   -0.4453    0.9917    0.3923 O   0  0  0  0  0  0  0  0  0  0  0  0
   -0.5374    2.2362   -0.2029 C   0  0  0  0  0  0  0  0  0  0  0  0
   -1.2254    3.3758    0.4807 C   0  0  0  0  0  0  0  0  0  0  0  0
   -0.0364    2.4048   -1.3282 O   0  0  0  0  0  0  0  0  0  0  0  0
    1.2816   -0.5821    0.5712 O   0  0  0  0  0  0  0  0  0  0  0  0
    2.5674   -0.5856    0.0824 C   0  0  0  0  0  0  0  0  0  0  0  0
    3.6951   -1.0772    0.9187 C   0  0  0  0  0  0  0  0  0  0  0  0
    2.7891   -0.1680   -1.0848 O   0  0  0  0  0  0  0  0  0  0  0  0
   -2.5557   -3.1590   -0.8024 H   0  0  0  0  0  0  0  0  0  0  0  0
   -3.7472   -2.3453    0.5471 H   0  0  0  0  0  0  0  0  0  0  0  0
   -3.7990   -1.7891   -1.3454 H   0  0  0  0  0  0  0  0  0  0  0  0
    0.5770    0.2045   -1.1931 H   0  0  0  0  0  0  0  0  0  0  0  0
   -1.4137    3.1688    1.5437 H   0  0  0  0  0  0  0  0  0  0  0  0
   -0.6028    4.3034    0.3618 H   0  0  0  0  0  0  0  0  0  0  0  0
   -2.1928    3.5987    0.0068 H   0  0  0  0  0  0  0  0  0  0  0  0
    4.2227   -0.2624    1.4463 H   0  0  0  0  0  0  0  0  0  0  0  0
    3.3244   -1.8213    1.6721 H   0  0  0  0  0  0  0  0  0  0  0  0
    4.3819   -1.6306    0.2400 H   0  0  0  0  0  0  0  0  0  0  0  0
  1  2  1  0
  2  3  1  0
  3  4  2  0
  3  5  1  0
  5  6  1  0
  6  7  1  0
  7  8  1  0
  7  9  2  0
  5 10  1  0
 10 11  1  0
 11 12  1  0
 11 13  2  0
  1 14  1  0
  1 15  1  0
  1 16  1  0
  5 17  1  0
  8 18  1  0
  8 19  1  0
  8 20  1  0
 12 21  1  0
 12 22  1  0
 12 23  1  0
M  CHG  1   1  -1
M  END
$$$$

     RDKit          3D

 23 22  0  0  0  0  0  0  0  0999 V2000
    0.7662    3.6799    0.3524 B   0  0  0  0  0  4  0  0  0  0  0  0
    0.7959    2.1859    0.2493 O   0  0  0  0  0  0  0  0  0  0  0  0
   -0.3122    1.5331   -0.2672 C   0  0  0  0  0  0  0  0  0  0  0  0
   -1.3017    2.2046   -0.6314 O   0  0  0  0  0  0  0  0  0  0  0  0
   -0.2631    0.0494   -0.3613 C   0  0  0  0  0  0  0  0  0  0  0  0
    0.9692   -0.4549    0.1182 O   0  0  0  0  0  0  0  0  0  0  0  0
    1.8767   -1.1428   -0.6452 C   0  0  0  0  0  0  0  0  0  0  0  0
    3.1565   -1.6526   -0.0978 C   0  0  0  0  0  0  0  0  0  0  0  0
    1.5930   -1.3404   -1.8624 O   0  0  0  0  0  0  0  0  0  0  0  0
   -1.2815   -0.5455    0.4210 O   0  0  0  0  0  0  0  0  0  0  0  0
   -2.2552   -1.3333   -0.1460 C   0  0  0  0  0  0  0  0  0  0  0  0
   -3.2907   -1.9239    0.7356 C   0  0  0  0  0  0  0  0  0  0  0  0
   -2.2994   -1.5692   -1.3743 O   0  0  0  0  0  0  0  0  0  0  0  0
    0.0025    4.1677   -0.4146 H   0  0  0  0  0  0  0  0  0  0  0  0
    1.8522    4.0917    0.1179 H   0  0  0  0  0  0  0  0  0  0  0  0
    0.4678    3.9304    1.4864 H   0  0  0  0  0  0  0  0  0  0  0  0
   -0.3662   -0.2047   -1.4472 H   0  0  0  0  0  0  0  0  0  0  0  0
    3.1078   -2.7616    0.0847 H   0  0  0  0  0  0  0  0  0  0  0  0
    3.4050   -1.1764    0.8626 H   0  0  0  0  0  0  0  0  0  0  0  0
    3.9429   -1.5210   -0.8718 H   0  0  0  0  0  0  0  0  0  0  0  0
   -2.8144   -2.1411    1.7300 H   0  0  0  0  0  0  0  0  0  0  0  0
   -3.6461   -2.8665    0.2690 H   0  0  0  0  0  0  0  0  0  0  0  0
   -4.1054   -1.2086    0.9211 H   0  0  0  0  0  0  0  0  0  0  0  0
  1  2  1  0
  2  3  1  0
  3  4  2  0
  3  5  1  0
  5  6  1  0
  6  7  1  0
  7  8  1  0
  7  9  2  0
  5 10  1  0
 10 11  1  0
 11 12  1  0
 11 13  2  0
  1 14  1  0
  1 15  1  0
  1 16  1  0
  5 17  1  0
  8 18  1  0
  8 19  1  0
  8 20  1  0
 12 21  1  0
 12 22  1  0
 12 23  1  0
M  CHG  1   1  -1
M  END
$$$$
