
     RDKit          3D

 31 31  0  0  0  0  0  0  0  0999 V2000
   -4.6876    0.3483    0.1431 C   0  0  0  0  0  0  0  0  0  0  0  0
   -3.2237    0.2292    0.1482 N   0  0  0  0  0  0  0  0  0  0  0  0
   -2.6729    1.2556   -0.6671 C   0  0  0  0  0  0  0  0  0  0  0  0
   -1.2320    1.2817   -0.8406 C   0  0  0  0  0  0  0  0  0  0  0  0
   -0.7247    2.2257   -1.5616 O   0  0  0  0  0  0  0  0  0  0  0  0
   -0.3218    0.3580   -0.2858 N   0  0  0  0  0  0  0  0  0  0  0  0
   -0.6543   -0.7852    0.5224 C   0  0  0  0  0  0  0  0  0  0  0  0
    0.5592   -1.7005    0.2897 C   0  0  0  0  0  0  0  0  0  0  0  0
    1.6818   -0.6964    0.4152 C   0  0  1  0  0  0  0  0  0  0  0  0
    2.9744   -1.2620   -0.1317 C   0  0  0  0  0  0  0  0  0  0  0  0
    4.0074   -0.2140    0.0317 C   0  0  0  0  0  0  0  0  0  0  0  0
    4.2808    0.6514   -1.0537 N   0  0  0  0  0  0  0  0  0  0  0  0
    4.6144   -0.1149    1.1187 O   0  0  0  0  0  0  0  0  0  0  0  0
    1.1491    0.4245   -0.4382 C   0  0  0  0  0  0  0  0  0  0  0  0
   -5.0793    0.1225    1.1447 H   0  0  0  0  0  0  0  0  0  0  0  0
   -5.0773   -0.3323   -0.6370 H   0  0  0  0  0  0  0  0  0  0  0  0
   -4.9088    1.4104   -0.0788 H   0  0  0  0  0  0  0  0  0  0  0  0
   -2.8791    0.2694    1.1485 H   0  0  0  0  0  0  0  0  0  0  0  0
   -3.0621    2.2323   -0.2476 H   0  0  0  0  0  0  0  0  0  0  0  0
   -3.1632    1.2039   -1.6835 H   0  0  0  0  0  0  0  0  0  0  0  0
   -0.6911   -0.5403    1.5955 H   0  0  0  0  0  0  0  0  0  0  0  0
   -1.5197   -1.3748    0.1491 H   0  0  0  0  0  0  0  0  0  0  0  0
    0.6094   -2.4848    1.0679 H   0  0  0  0  0  0  0  0  0  0  0  0
    0.5030   -2.0644   -0.7356 H   0  0  0  0  0  0  0  0  0  0  0  0
    1.7643   -0.3489    1.4449 H   0  0  0  0  0  0  0  0  0  0  0  0
    3.2423   -2.1402    0.4822 H   0  0  0  0  0  0  0  0  0  0  0  0
    2.8181   -1.5535   -1.1737 H   0  0  0  0  0  0  0  0  0  0  0  0
    4.9307    1.4567   -0.8971 H   0  0  0  0  0  0  0  0  0  0  0  0
    3.8465    0.4990   -2.0013 H   0  0  0  0  0  0  0  0  0  0  0  0
    1.4143    0.2212   -1.4905 H   0  0  0  0  0  0  0  0  0  0  0  0
    1.5017    1.4224   -0.1016 H   0  0  0  0  0  0  0  0  0  0  0  0
  1  2  1  0
  2  3  1  0
  3  4  1  0
  4  5  2  0
  4  6  1  0
  6  7  1  0
  7  8  1  0
  8  9  1  0
  9 10  1  0
 10 11  1  0
 11 12  1  0
 11 13  2  0
  9 14  1  0
 14  6  1  0
  1 15  1  0
  1 16  1  0
  1 17  1  0
  2 18  1  0
  3 19  1  0
  3 20  1  0
  7 21  1  0
  7 22  1  0
  8 23  1  0
  8 24  1  0
  9 25  1  1
 10 26  1  0
 10 27  1  0
 12 28  1  0
 12 29  1  0
 14 30  1  0
 14 31  1  0
M  END
$$$$

     RDKit          3D

 31 31  0  0  0  0  0  0  0  0999 V2000
   -4.1677   -0.0677    1.6467 C   0  0  0  0  0  0  0  0  0  0  0  0
   -2.8780    0.0985    0.9427 N   0  0  0  0  0  0  0  0  0  0  0  0
   -3.0421   -0.4956   -0.3325 C   0  0  0  0  0  0  0  0  0  0  0  0
   -1.8991   -0.5218   -1.2353 C   0  0  0  0  0  0  0  0  0  0  0  0
   -2.1812   -1.0726   -2.3861 O   0  0  0  0  0  0  0  0  0  0  0  0
   -0.5948   -0.0510   -1.0308 N   0  0  0  0  0  0  0  0  0  0  0  0
    0.4695   -0.1051   -2.0125 C   0  0  0  0  0  0  0  0  0  0  0  0
    1.7359   -0.2608   -1.1988 C   0  0  0  0  0  0  0  0  0  0  0  0
    1.3043   -0.1815    0.2379 C   0  0  1  0  0  0  0  0  0  0  0  0
    2.2998    0.5456    1.1041 C   0  0  0  0  0  0  0  0  0  0  0  0
    3.5861   -0.1728    1.0453 C   0  0  0  0  0  0  0  0  0  0  0  0
    4.6163    0.3167    0.2155 N   0  0  0  0  0  0  0  0  0  0  0  0
    3.7544   -1.2040    1.7270 O   0  0  0  0  0  0  0  0  0  0  0  0
   -0.0291    0.5509    0.1303 C   0  0  0  0  0  0  0  0  0  0  0  0
   -4.2575   -1.1068    2.0511 H   0  0  0  0  0  0  0  0  0  0  0  0
   -5.0223    0.0830    0.9675 H   0  0  0  0  0  0  0  0  0  0  0  0
   -4.1802    0.5937    2.5282 H   0  0  0  0  0  0  0  0  0  0  0  0
   -2.8347    1.1542    0.7773 H   0  0  0  0  0  0  0  0  0  0  0  0
   -3.8808    0.0613   -0.8442 H   0  0  0  0  0  0  0  0  0  0  0  0
   -3.4539   -1.5296   -0.2141 H   0  0  0  0  0  0  0  0  0  0  0  0
    0.3297   -0.9102   -2.7577 H   0  0  0  0  0  0  0  0  0  0  0  0
    0.5040    0.8963   -2.4963 H   0  0  0  0  0  0  0  0  0  0  0  0
    2.1907   -1.2672   -1.4157 H   0  0  0  0  0  0  0  0  0  0  0  0
    2.4634    0.5519   -1.4406 H   0  0  0  0  0  0  0  0  0  0  0  0
    1.0792   -1.1669    0.6414 H   0  0  0  0  0  0  0  0  0  0  0  0
    1.9831    0.5538    2.1626 H   0  0  0  0  0  0  0  0  0  0  0  0
    2.4426    1.5628    0.7038 H   0  0  0  0  0  0  0  0  0  0  0  0
    4.9787   -0.1942   -0.6216 H   0  0  0  0  0  0  0  0  0  0  0  0
    5.0702    1.2467    0.4186 H   0  0  0  0  0  0  0  0  0  0  0  0
    0.2123    1.6079   -0.1406 H   0  0  0  0  0  0  0  0  0  0  0  0
   -0.5989    0.4846    1.0578 H   0  0  0  0  0  0  0  0  0  0  0  0
  1  2  1  0
  2  3  1  0
  3  4  1  0
  4  5  2  0
  4  6  1  0
  6  7  1  0
  7  8  1  0
  8  9  1  0
  9 10  1  0
 10 11  1  0
 11 12  1  0
 11 13  2  0
  9 14  1  0
 14  6  1  0
  1 15  1  0
  1 16  1  0
  1 17  1  0
  2 18  1  0
  3 19  1  0
  3 20  1  0
  7 21  1  0
  7 22  1  0
  8 23  1  0
  8 24  1  0
  9 25  1  1
 10 26  1  0
 10 27  1  0
 12 28  1  0
 12 29  1  0
 14 30  1  0
 14 31  1  0
M  END
$$$$

     RDKit          3D

 31 31  0  0  0  0  0  0  0  0999 V2000
    5.0794   -0.7144   -0.3458 C   0  0  0  0  0  0  0  0  0  0  0  0
    4.0929    0.3129   -0.3869 N   0  0  0  0  0  0  0  0  0  0  0  0
    2.7616   -0.1158   -0.1341 C   0  0  0  0  0  0  0  0  0  0  0  0
    1.8569    1.0760   -0.2145 C   0  0  0  0  0  0  0  0  0  0  0  0
    2.3156    2.2167   -0.4703 O   0  0  0  0  0  0  0  0  0  0  0  0
    0.4704    0.9304   -0.0026 N   0  0  0  0  0  0  0  0  0  0  0  0
   -0.4910    2.0083   -0.0562 C   0  0  0  0  0  0  0  0  0  0  0  0
   -1.7896    1.2763   -0.3500 C   0  0  0  0  0  0  0  0  0  0  0  0
   -1.6495    0.0576    0.5023 C   0  0  1  0  0  0  0  0  0  0  0  0
   -2.5133   -1.0808    0.0754 C   0  0  0  0  0  0  0  0  0  0  0  0
   -3.9362   -0.6828    0.1344 C   0  0  0  0  0  0  0  0  0  0  0  0
   -4.9825   -1.5874   -0.2484 N   0  0  0  0  0  0  0  0  0  0  0  0
   -4.3046    0.4417    0.5134 O   0  0  0  0  0  0  0  0  0  0  0  0
   -0.1911   -0.3221    0.2997 C   0  0  0  0  0  0  0  0  0  0  0  0
    6.0842   -0.2130   -0.2554 H   0  0  0  0  0  0  0  0  0  0  0  0
    5.1354   -1.3464   -1.2422 H   0  0  0  0  0  0  0  0  0  0  0  0
    4.9534   -1.2869    0.5946 H   0  0  0  0  0  0  0  0  0  0  0  0
    4.2172    1.0358   -1.0982 H   0  0  0  0  0  0  0  0  0  0  0  0
    2.7288   -0.5859    0.8712 H   0  0  0  0  0  0  0  0  0  0  0  0
    2.3809   -0.8746   -0.8426 H   0  0  0  0  0  0  0  0  0  0  0  0
   -0.2731    2.7275   -0.8740 H   0  0  0  0  0  0  0  0  0  0  0  0
   -0.5942    2.5276    0.9177 H   0  0  0  0  0  0  0  0  0  0  0  0
   -1.7327    0.9409   -1.4170 H   0  0  0  0  0  0  0  0  0  0  0  0
   -2.6592    1.9030   -0.1669 H   0  0  0  0  0  0  0  0  0  0  0  0
   -1.8067    0.3092    1.5916 H   0  0  0  0  0  0  0  0  0  0  0  0
   -2.2214   -1.3633   -0.9670 H   0  0  0  0  0  0  0  0  0  0  0  0
   -2.3066   -1.9700    0.7040 H   0  0  0  0  0  0  0  0  0  0  0  0
   -5.1693   -1.7666   -1.2522 H   0  0  0  0  0  0  0  0  0  0  0  0
   -5.5235   -2.0367    0.5144 H   0  0  0  0  0  0  0  0  0  0  0  0
    0.2225   -0.8434    1.1646 H   0  0  0  0  0  0  0  0  0  0  0  0
   -0.1547   -0.9735   -0.6173 H   0  0  0  0  0  0  0  0  0  0  0  0
  1  2  1  0
  2  3  1  0
  3  4  1  0
  4  5  2  0
  4  6  1  0
  6  7  1  0
  7  8  1  0
  8  9  1  0
  9 10  1  0
 10 11  1  0
 11 12  1  0
 11 13  2  0
  9 14  1  0
 14  6  1  0
  1 15  1  0
  1 16  1  0
  1 17  1  0
  2 18  1  0
  3 19  1  0
  3 20  1  0
  7 21  1  0
  7 22  1  0
  8 23  1  0
  8 24  1  0
  9 25  1  1
 10 26  1  0
 10 27  1  0
 12 28  1  0
 12 29  1  0
 14 30  1  0
 14 31  1  0
M  END
$$$$

     RDKit          3D

 31 31  0  0  0  0  0  0  0  0999 V2000
   -5.1116    0.5248   -0.9081 C   0  0  0  0  0  0  0  0  0  0  0  0
   -4.2424   -0.1739    0.0500 N   0  0  0  0  0  0  0  0  0  0  0  0
   -2.8830    0.1871   -0.3189 C   0  0  0  0  0  0  0  0  0  0  0  0
   -1.9192   -0.4686    0.5913 C   0  0  0  0  0  0  0  0  0  0  0  0
   -2.3575   -1.2018    1.5030 O   0  0  0  0  0  0  0  0  0  0  0  0
   -0.5423   -0.2645    0.4253 N   0  0  0  0  0  0  0  0  0  0  0  0
    0.0759    0.5510   -0.5796 C   0  0  0  0  0  0  0  0  0  0  0  0
    1.4209   -0.0687   -0.8778 C   0  0  0  0  0  0  0  0  0  0  0  0
    1.7431   -0.7996    0.3940 C   0  0  1  0  0  0  0  0  0  0  0  0
    2.8416   -0.0868    1.1229 C   0  0  0  0  0  0  0  0  0  0  0  0
    4.0742   -0.0073    0.3108 C   0  0  0  0  0  0  0  0  0  0  0  0
    5.2030    0.6516    0.8930 N   0  0  0  0  0  0  0  0  0  0  0  0
    4.1702   -0.4846   -0.8462 O   0  0  0  0  0  0  0  0  0  0  0  0
    0.4990   -0.8351    1.2315 C   0  0  0  0  0  0  0  0  0  0  0  0
   -5.3125   -0.1030   -1.7942 H   0  0  0  0  0  0  0  0  0  0  0  0
   -6.0489    0.7542   -0.3450 H   0  0  0  0  0  0  0  0  0  0  0  0
   -4.6298    1.4663   -1.1745 H   0  0  0  0  0  0  0  0  0  0  0  0
   -4.3842   -1.2045   -0.0199 H   0  0  0  0  0  0  0  0  0  0  0  0
   -2.7571   -0.1454   -1.3731 H   0  0  0  0  0  0  0  0  0  0  0  0
   -2.7398    1.2773   -0.3231 H   0  0  0  0  0  0  0  0  0  0  0  0
    0.2662    1.5480   -0.1295 H   0  0  0  0  0  0  0  0  0  0  0  0
   -0.5384    0.6916   -1.4786 H   0  0  0  0  0  0  0  0  0  0  0  0
    2.1457    0.7307   -1.0832 H   0  0  0  0  0  0  0  0  0  0  0  0
    1.3816   -0.7384   -1.7564 H   0  0  0  0  0  0  0  0  0  0  0  0
    2.0312   -1.8490    0.1324 H   0  0  0  0  0  0  0  0  0  0  0  0
    2.4631    0.9344    1.3675 H   0  0  0  0  0  0  0  0  0  0  0  0
    3.0545   -0.6274    2.0766 H   0  0  0  0  0  0  0  0  0  0  0  0
    6.0079    0.0875    1.2737 H   0  0  0  0  0  0  0  0  0  0  0  0
    5.1967    1.6966    0.9248 H   0  0  0  0  0  0  0  0  0  0  0  0
    0.6439   -0.1799    2.1312 H   0  0  0  0  0  0  0  0  0  0  0  0
    0.2478   -1.8624    1.5705 H   0  0  0  0  0  0  0  0  0  0  0  0
  1  2  1  0
  2  3  1  0
  3  4  1  0
  4  5  2  0
  4  6  1  0
  6  7  1  0
  7  8  1  0
  8  9  1  0
  9 10  1  0
 10 11  1  0
 11 12  1  0
 11 13  2  0
  9 14  1  0
 14  6  1  0
  1 15  1  0
  1 16  1  0
  1 17  1  0
  2 18  1  0
  3 19  1  0
  3 20  1  0
  7 21  1  0
  7 22  1  0
  8 23  1  0
  8 24  1  0
  9 25  1  6
 10 26  1  0
 10 27  1  0
 12 28  1  0
 12 29  1  0
 14 30  1  0
 14 31  1  0
M  END
$$$$

     RDKit          3D

 31 31  0  0  0  0  0  0  0  0999 V2000
   -5.0050    0.8178   -0.5925 C   0  0  0  0  0  0  0  0  0  0  0  0
   -4.1897   -0.3092   -0.1342 N   0  0  0  0  0  0  0  0  0  0  0  0
   -2.8080    0.0508   -0.3807 C   0  0  0  0  0  0  0  0  0  0  0  0
   -1.8933   -1.0310    0.0511 C   0  0  0  0  0  0  0  0  0  0  0  0
   -2.3563   -2.0714    0.5482 O   0  0  0  0  0  0  0  0  0  0  0  0
   -0.5065   -0.8739   -0.1041 N   0  0  0  0  0  0  0  0  0  0  0  0
    0.5306   -1.8201    0.2592 C   0  0  0  0  0  0  0  0  0  0  0  0
    1.5477   -0.9342    0.9417 C   0  0  0  0  0  0  0  0  0  0  0  0
    1.4145    0.3688    0.2161 C   0  0  1  0  0  0  0  0  0  0  0  0
    2.6568    0.6699   -0.5890 C   0  0  0  0  0  0  0  0  0  0  0  0
    3.8447    0.7558    0.2839 C   0  0  0  0  0  0  0  0  0  0  0  0
    5.1320    1.0273   -0.2215 N   0  0  0  0  0  0  0  0  0  0  0  0
    3.6959    0.5794    1.5217 O   0  0  0  0  0  0  0  0  0  0  0  0
    0.2011    0.2766   -0.6657 C   0  0  0  0  0  0  0  0  0  0  0  0
   -4.5954    1.1273   -1.5575 H   0  0  0  0  0  0  0  0  0  0  0  0
   -6.0682    0.5527   -0.6246 H   0  0  0  0  0  0  0  0  0  0  0  0
   -4.7909    1.6469    0.1382 H   0  0  0  0  0  0  0  0  0  0  0  0
   -4.4182   -1.1415   -0.7157 H   0  0  0  0  0  0  0  0  0  0  0  0
   -2.7005    0.1851   -1.4888 H   0  0  0  0  0  0  0  0  0  0  0  0
   -2.6090    1.0093    0.1232 H   0  0  0  0  0  0  0  0  0  0  0  0
    0.1545   -2.6239    0.9214 H   0  0  0  0  0  0  0  0  0  0  0  0
    0.9874   -2.2166   -0.6743 H   0  0  0  0  0  0  0  0  0  0  0  0
    1.2908   -0.8604    2.0307 H   0  0  0  0  0  0  0  0  0  0  0  0
    2.5783   -1.3534    0.8113 H   0  0  0  0  0  0  0  0  0  0  0  0
    1.2699    1.2137    0.9371 H   0  0  0  0  0  0  0  0  0  0  0  0
    2.5045    1.6186   -1.1538 H   0  0  0  0  0  0  0  0  0  0  0  0
    2.8397   -0.1544   -1.3231 H   0  0  0  0  0  0  0  0  0  0  0  0
    5.9659    0.7609    0.3120 H   0  0  0  0  0  0  0  0  0  0  0  0
    5.2145    1.5064   -1.1528 H   0  0  0  0  0  0  0  0  0  0  0  0
    0.5209    0.0274   -1.7080 H   0  0  0  0  0  0  0  0  0  0  0  0
   -0.4084    1.1952   -0.6184 H   0  0  0  0  0  0  0  0  0  0  0  0
  1  2  1  0
  2  3  1  0
  3  4  1  0
  4  5  2  0
  4  6  1  0
  6  7  1  0
  7  8  1  0
  8  9  1  0
  9 10  1  0
 10 11  1  0
 11 12  1  0
 11 13  2  0
  9 14  1  0
 14  6  1  0
  1 15  1  0
  1 16  1  0
  1 17  1  0
  2 18  1  0
  3 19  1  0
  3 20  1  0
  7 21  1  0
  7 22  1  0
  8 23  1  0
  8 24  1  0
  9 25  1  1
 10 26  1  0
 10 27  1  0
 12 28  1  0
 12 29  1  0
 14 30  1  0
 14 31  1  0
M  END
$$$$

     RDKit          3D

 31 31  0  0  0  0  0  0  0  0999 V2000
    4.6235   -0.2656    0.5454 C   0  0  0  0  0  0  0  0  0  0  0  0
    3.8234    0.5902    1.3912 N   0  0  0  0  0  0  0  0  0  0  0  0
    2.4001    0.3628    1.2382 C   0  0  0  0  0  0  0  0  0  0  0  0
    1.9291    0.7979   -0.1089 C   0  0  0  0  0  0  0  0  0  0  0  0
    2.7012    1.2906   -0.9624 O   0  0  0  0  0  0  0  0  0  0  0  0
    0.5595    0.6423   -0.4181 N   0  0  0  0  0  0  0  0  0  0  0  0
   -0.0441    1.0174   -1.6817 C   0  0  0  0  0  0  0  0  0  0  0  0
   -1.4712    0.4530   -1.6144 C   0  0  0  0  0  0  0  0  0  0  0  0
   -1.7338    0.6207   -0.1394 C   0  0  1  0  0  0  0  0  0  0  0  0
   -3.0012    0.0345    0.3475 C   0  0  0  0  0  0  0  0  0  0  0  0
   -3.1787   -1.4014    0.1681 C   0  0  0  0  0  0  0  0  0  0  0  0
   -4.3589   -2.0402    0.6087 N   0  0  0  0  0  0  0  0  0  0  0  0
   -2.2874   -2.0840   -0.3784 O   0  0  0  0  0  0  0  0  0  0  0  0
   -0.4799    0.0840    0.4635 C   0  0  0  0  0  0  0  0  0  0  0  0
    5.3187   -0.8774    1.1561 H   0  0  0  0  0  0  0  0  0  0  0  0
    4.0062   -0.9760   -0.0522 H   0  0  0  0  0  0  0  0  0  0  0  0
    5.2834    0.3383   -0.1389 H   0  0  0  0  0  0  0  0  0  0  0  0
    4.0500    0.3951    2.4001 H   0  0  0  0  0  0  0  0  0  0  0  0
    1.9041    1.0250    1.9926 H   0  0  0  0  0  0  0  0  0  0  0  0
    2.1182   -0.7015    1.3560 H   0  0  0  0  0  0  0  0  0  0  0  0
    0.5029    0.6417   -2.5573 H   0  0  0  0  0  0  0  0  0  0  0  0
   -0.1465    2.1391   -1.6902 H   0  0  0  0  0  0  0  0  0  0  0  0
   -2.1637    1.0228   -2.2576 H   0  0  0  0  0  0  0  0  0  0  0  0
   -1.3581   -0.6127   -1.9246 H   0  0  0  0  0  0  0  0  0  0  0  0
   -1.7673    1.7171    0.0420 H   0  0  0  0  0  0  0  0  0  0  0  0
   -3.0718    0.2834    1.4459 H   0  0  0  0  0  0  0  0  0  0  0  0
   -3.8389    0.6310   -0.1126 H   0  0  0  0  0  0  0  0  0  0  0  0
   -5.1238   -1.5010    1.0885 H   0  0  0  0  0  0  0  0  0  0  0  0
   -4.5070   -3.0509    0.4732 H   0  0  0  0  0  0  0  0  0  0  0  0
   -0.3160    0.4293    1.5134 H   0  0  0  0  0  0  0  0  0  0  0  0
   -0.3721   -1.0056    0.3825 H   0  0  0  0  0  0  0  0  0  0  0  0
  1  2  1  0
  2  3  1  0
  3  4  1  0
  4  5  2  0
  4  6  1  0
  6  7  1  0
  7  8  1  0
  8  9  1  0
  9 10  1  0
 10 11  1  0
 11 12  1  0
 11 13  2  0
  9 14  1  0
 14  6  1  0
  1 15  1  0
  1 16  1  0
  1 17  1  0
  2 18  1  0
  3 19  1  0
  3 20  1  0
  7 21  1  0
  7 22  1  0
  8 23  1  0
  8 24  1  0
  9 25  1  6
 10 26  1  0
 10 27  1  0
 12 28  1  0
 12 29  1  0
 14 30  1  0
 14 31  1  0
M  END
$$$$

     RDKit          3D

 31 31  0  0  0  0  0  0  0  0999 V2000
   -3.3517    1.8148    0.5057 C   0  0  0  0  0  0  0  0  0  0  0  0
   -2.2460    0.8553    0.5752 N   0  0  0  0  0  0  0  0  0  0  0  0
   -2.7672   -0.4611    0.3813 C   0  0  0  0  0  0  0  0  0  0  0  0
   -1.8072   -1.5595    0.3441 C   0  0  0  0  0  0  0  0  0  0  0  0
   -2.2921   -2.7220    0.1908 O   0  0  0  0  0  0  0  0  0  0  0  0
   -0.4301   -1.4001    0.4632 N   0  0  0  0  0  0  0  0  0  0  0  0
    0.5022   -2.5468    0.4266 C   0  0  0  0  0  0  0  0  0  0  0  0
    1.6482   -1.9945   -0.4002 C   0  0  0  0  0  0  0  0  0  0  0  0
    1.7642   -0.6102    0.1488 C   0  0  1  0  0  0  0  0  0  0  0  0
    2.2906    0.3702   -0.8883 C   0  0  0  0  0  0  0  0  0  0  0  0
    2.3725    1.7099   -0.2564 C   0  0  0  0  0  0  0  0  0  0  0  0
    2.8390    2.7992   -1.0288 N   0  0  0  0  0  0  0  0  0  0  0  0
    2.0292    1.8559    0.9461 O   0  0  0  0  0  0  0  0  0  0  0  0
    0.4002   -0.2365    0.6263 C   0  0  0  0  0  0  0  0  0  0  0  0
   -3.7361    2.0456    1.5240 H   0  0  0  0  0  0  0  0  0  0  0  0
   -2.9854    2.7238   -0.0060 H   0  0  0  0  0  0  0  0  0  0  0  0
   -4.1797    1.3329   -0.0519 H   0  0  0  0  0  0  0  0  0  0  0  0
   -1.7574    0.9609    1.5058 H   0  0  0  0  0  0  0  0  0  0  0  0
   -3.2588   -0.4473   -0.6426 H   0  0  0  0  0  0  0  0  0  0  0  0
   -3.6194   -0.6774    1.0791 H   0  0  0  0  0  0  0  0  0  0  0  0
   -0.0076   -3.3620   -0.0894 H   0  0  0  0  0  0  0  0  0  0  0  0
    0.8827   -2.8080    1.4219 H   0  0  0  0  0  0  0  0  0  0  0  0
    1.3099   -1.9054   -1.4583 H   0  0  0  0  0  0  0  0  0  0  0  0
    2.5581   -2.6001   -0.3424 H   0  0  0  0  0  0  0  0  0  0  0  0
    2.4371   -0.5987    1.0485 H   0  0  0  0  0  0  0  0  0  0  0  0
    3.3422    0.0551   -1.1095 H   0  0  0  0  0  0  0  0  0  0  0  0
    1.6515    0.3747   -1.7801 H   0  0  0  0  0  0  0  0  0  0  0  0
    3.7281    2.6970   -1.5474 H   0  0  0  0  0  0  0  0  0  0  0  0
    2.2770    3.6676   -1.0532 H   0  0  0  0  0  0  0  0  0  0  0  0
    0.4148    0.1218    1.6835 H   0  0  0  0  0  0  0  0  0  0  0  0
   -0.0090    0.5449   -0.0575 H   0  0  0  0  0  0  0  0  0  0  0  0
  1  2  1  0
  2  3  1  0
  3  4  1  0
  4  5  2  0
  4  6  1  0
  6  7  1  0
  7  8  1  0
  8  9  1  0
  9 10  1  0
 10 11  1  0
 11 12  1  0
 11 13  2  0
  9 14  1  0
 14  6  1  0
  1 15  1  0
  1 16  1  0
  1 17  1  0
  2 18  1  0
  3 19  1  0
  3 20  1  0
  7 21  1  0
  7 22  1  0
  8 23  1  0
  8 24  1  0
  9 25  1  1
 10 26  1  0
 10 27  1  0
 12 28  1  0
 12 29  1  0
 14 30  1  0
 14 31  1  0
M  END
$$$$

     RDKit          3D

 31 31  0  0  0  0  0  0  0  0999 V2000
    4.1119    1.8986    0.1910 C   0  0  0  0  0  0  0  0  0  0  0  0
    3.7558    0.5432   -0.2527 N   0  0  0  0  0  0  0  0  0  0  0  0
    2.3361    0.4398   -0.1770 C   0  0  0  0  0  0  0  0  0  0  0  0
    1.7964   -0.8599   -0.5841 C   0  0  0  0  0  0  0  0  0  0  0  0
    2.5855   -1.7621   -0.9577 O   0  0  0  0  0  0  0  0  0  0  0  0
    0.3943   -1.0767   -0.5491 N   0  0  0  0  0  0  0  0  0  0  0  0
   -0.2793   -2.3292   -0.9263 C   0  0  0  0  0  0  0  0  0  0  0  0
   -1.5188   -2.2673   -0.0236 C   0  0  0  0  0  0  0  0  0  0  0  0
   -1.9334   -0.8218   -0.2586 C   0  0  1  0  0  0  0  0  0  0  0  0
   -2.9452   -0.3428    0.7508 C   0  0  0  0  0  0  0  0  0  0  0  0
   -3.2584    1.0639    0.4068 C   0  0  0  0  0  0  0  0  0  0  0  0
   -2.6703    2.1474    1.1046 N   0  0  0  0  0  0  0  0  0  0  0  0
   -4.0664    1.2754   -0.5291 O   0  0  0  0  0  0  0  0  0  0  0  0
   -0.6174   -0.1197   -0.1417 C   0  0  0  0  0  0  0  0  0  0  0  0
    3.3725    2.6195   -0.2256 H   0  0  0  0  0  0  0  0  0  0  0  0
    5.1152    2.1893   -0.1110 H   0  0  0  0  0  0  0  0  0  0  0  0
    3.9474    1.9203    1.2975 H   0  0  0  0  0  0  0  0  0  0  0  0
    4.1416    0.3539   -1.2089 H   0  0  0  0  0  0  0  0  0  0  0  0
    1.8093    1.2862   -0.7048 H   0  0  0  0  0  0  0  0  0  0  0  0
    2.0616    0.5797    0.9075 H   0  0  0  0  0  0  0  0  0  0  0  0
    0.3292   -3.2096   -0.7375 H   0  0  0  0  0  0  0  0  0  0  0  0
   -0.6576   -2.2410   -1.9681 H   0  0  0  0  0  0  0  0  0  0  0  0
   -2.2845   -2.9768   -0.3322 H   0  0  0  0  0  0  0  0  0  0  0  0
   -1.1603   -2.3746    1.0032 H   0  0  0  0  0  0  0  0  0  0  0  0
   -2.3056   -0.7630   -1.2954 H   0  0  0  0  0  0  0  0  0  0  0  0
   -2.4160   -0.3209    1.7408 H   0  0  0  0  0  0  0  0  0  0  0  0
   -3.8303   -0.9887    0.8070 H   0  0  0  0  0  0  0  0  0  0  0  0
   -2.5679    3.1068    0.6802 H   0  0  0  0  0  0  0  0  0  0  0  0
   -2.3069    2.0465    2.0789 H   0  0  0  0  0  0  0  0  0  0  0  0
   -0.3979    0.2489    0.8836 H   0  0  0  0  0  0  0  0  0  0  0  0
   -0.5406    0.7347   -0.8685 H   0  0  0  0  0  0  0  0  0  0  0  0
  1  2  1  0
  2  3  1  0
  3  4  1  0
  4  5  2  0
  4  6  1  0
  6  7  1  0
  7  8  1  0
  8  9  1  0
  9 10  1  0
 10 11  1  0
 11 12  1  0
 11 13  2  0
  9 14  1  0
 14  6  1  0
  1 15  1  0
  1 16  1  0
  1 17  1  0
  2 18  1  0
  3 19  1  0
  3 20  1  0
  7 21  1  0
  7 22  1  0
  8 23  1  0
  8 24  1  0
  9 25  1  6
 10 26  1  0
 10 27  1  0
 12 28  1  0
 12 29  1  0
 14 30  1  0
 14 31  1  0
M  END
$$$$
