
     RDKit          3D

 29 29  0  0  0  0  0  0  0  0999 V2000
    1.5148    0.3284   -1.2353 C   0  0  0  0  0  0  0  0  0  0  0  0
    1.3211    0.1159    0.2399 C   0  0  0  0  0  0  0  0  0  0  0  0
    2.5041    0.6531    0.9707 C   0  0  0  0  0  0  0  0  0  0  0  0
    2.6394    2.0349    0.8473 O   0  0  0  0  0  0  0  0  0  0  0  0
    1.3153   -1.3942    0.5052 C   0  0  0  0  0  0  0  0  0  0  0  0
    2.4938   -1.8876   -0.0154 O   0  0  0  0  0  0  0  0  0  0  0  0
    0.0618    0.6833    0.7273 N   0  0  0  0  0  0  0  0  0  0  0  0
   -1.0353    0.0418    0.1140 C   0  0  2  0  0  0  0  0  0  0  0  0
   -2.0804    1.0200   -0.4719 C   0  0  0  0  0  0  0  0  0  0  0  0
   -3.1007   -0.0197   -0.8934 C   0  0  0  0  0  0  0  0  0  0  0  0
   -3.1558   -0.8226    0.3389 N   0  0  0  0  0  0  0  0  0  0  0  0
   -1.9280   -0.6817    1.0253 C   0  0  0  0  0  0  0  0  0  0  0  0
   -1.6376   -1.0767    2.1787 O   0  0  0  0  0  0  0  0  0  0  0  0
    1.0153   -0.4103   -1.8609 H   0  0  0  0  0  0  0  0  0  0  0  0
    2.6076    0.2594   -1.4903 H   0  0  0  0  0  0  0  0  0  0  0  0
    1.1364    1.3195   -1.5466 H   0  0  0  0  0  0  0  0  0  0  0  0
    2.5242    0.3229    2.0127 H   0  0  0  0  0  0  0  0  0  0  0  0
    3.3988    0.2060    0.4780 H   0  0  0  0  0  0  0  0  0  0  0  0
    1.8365    2.5264    1.0978 H   0  0  0  0  0  0  0  0  0  0  0  0
    0.4149   -1.8947    0.1532 H   0  0  0  0  0  0  0  0  0  0  0  0
    1.3829   -1.5300    1.6127 H   0  0  0  0  0  0  0  0  0  0  0  0
    2.3101   -2.4864   -0.8051 H   0  0  0  0  0  0  0  0  0  0  0  0
    0.0555    1.6957    0.4435 H   0  0  0  0  0  0  0  0  0  0  0  0
   -0.7786   -0.5861   -0.7787 H   0  0  0  0  0  0  0  0  0  0  0  0
   -2.4312    1.6011    0.3723 H   0  0  0  0  0  0  0  0  0  0  0  0
   -1.6562    1.6017   -1.2872 H   0  0  0  0  0  0  0  0  0  0  0  0
   -2.6811   -0.6555   -1.6765 H   0  0  0  0  0  0  0  0  0  0  0  0
   -4.0734    0.4193   -1.1381 H   0  0  0  0  0  0  0  0  0  0  0  0
   -3.9743   -1.3839    0.6376 H   0  0  0  0  0  0  0  0  0  0  0  0
  1  2  1  0
  2  3  1  0
  3  4  1  0
  2  5  1  0
  5  6  1  0
  2  7  1  0
  7  8  1  0
  8  9  1  0
  9 10  1  0
 10 11  1  0
 11 12  1  0
 12 13  2  0
 12  8  1  0
  1 14  1  0
  1 15  1  0
  1 16  1  0
  3 17  1  0
  3 18  1  0
  4 19  1  0
  5 20  1  0
  5 21  1  0
  6 22  1  0
  7 23  1  0
  8 24  1  6
  9 25  1  0
  9 26  1  0
 10 27  1  0
 10 28  1  0
 11 29  1  0
M  END
$$$$

     RDKit          3D

 29 29  0  0  0  0  0  0  0  0999 V2000
   -1.7354   -1.4571    0.4183 C   0  0  0  0  0  0  0  0  0  0  0  0
   -1.2056   -0.0308    0.4158 C   0  0  0  0  0  0  0  0  0  0  0  0
   -1.5867    0.6694    1.6989 C   0  0  0  0  0  0  0  0  0  0  0  0
   -1.1156    2.0176    1.6726 O   0  0  0  0  0  0  0  0  0  0  0  0
   -2.0246    0.6265   -0.7052 C   0  0  0  0  0  0  0  0  0  0  0  0
   -1.7314   -0.0392   -1.9039 O   0  0  0  0  0  0  0  0  0  0  0  0
    0.1566   -0.0015    0.2933 N   0  0  0  0  0  0  0  0  0  0  0  0
    0.8823   -0.2887   -0.8745 C   0  0  2  0  0  0  0  0  0  0  0  0
    2.0906   -1.1334   -0.5491 C   0  0  0  0  0  0  0  0  0  0  0  0
    3.0339   -0.2402    0.2142 C   0  0  0  0  0  0  0  0  0  0  0  0
    2.4978    1.1246    0.0033 N   0  0  0  0  0  0  0  0  0  0  0  0
    1.6248    1.0392   -1.1404 C   0  0  0  0  0  0  0  0  0  0  0  0
    1.5252    1.8390   -2.0478 O   0  0  0  0  0  0  0  0  0  0  0  0
   -2.6627   -1.5783   -0.1694 H   0  0  0  0  0  0  0  0  0  0  0  0
   -1.9394   -1.7788    1.4846 H   0  0  0  0  0  0  0  0  0  0  0  0
   -1.0032   -2.1918    0.0557 H   0  0  0  0  0  0  0  0  0  0  0  0
   -2.6836    0.6458    1.8473 H   0  0  0  0  0  0  0  0  0  0  0  0
   -1.0452    0.1772    2.5156 H   0  0  0  0  0  0  0  0  0  0  0  0
   -0.8767    2.3382    0.7958 H   0  0  0  0  0  0  0  0  0  0  0  0
   -1.8634    1.6824   -0.8162 H   0  0  0  0  0  0  0  0  0  0  0  0
   -3.0768    0.4258   -0.4552 H   0  0  0  0  0  0  0  0  0  0  0  0
   -2.5396   -0.5752   -2.1932 H   0  0  0  0  0  0  0  0  0  0  0  0
    0.6223   -0.3585    1.1644 H   0  0  0  0  0  0  0  0  0  0  0  0
    0.3998   -0.6374   -1.7488 H   0  0  0  0  0  0  0  0  0  0  0  0
    1.7889   -1.9983    0.0652 H   0  0  0  0  0  0  0  0  0  0  0  0
    2.5656   -1.5170   -1.5026 H   0  0  0  0  0  0  0  0  0  0  0  0
    3.9944   -0.2270   -0.3885 H   0  0  0  0  0  0  0  0  0  0  0  0
    3.1753   -0.4937    1.2592 H   0  0  0  0  0  0  0  0  0  0  0  0
    2.7325    1.9611    0.5905 H   0  0  0  0  0  0  0  0  0  0  0  0
  1  2  1  0
  2  3  1  0
  3  4  1  0
  2  5  1  0
  5  6  1  0
  2  7  1  0
  7  8  1  0
  8  9  1  0
  9 10  1  0
 10 11  1  0
 11 12  1  0
 12 13  2  0
 12  8  1  0
  1 14  1  0
  1 15  1  0
  1 16  1  0
  3 17  1  0
  3 18  1  0
  4 19  1  0
  5 20  1  0
  5 21  1  0
  6 22  1  0
  7 23  1  0
  8 24  1  6
  9 25  1  0
  9 26  1  0
 10 27  1  0
 10 28  1  0
 11 29  1  0
M  END
$$$$

     RDKit          3D

 29 29  0  0  0  0  0  0  0  0999 V2000
    1.2739   -0.1325    1.4688 C   0  0  0  0  0  0  0  0  0  0  0  0
    1.2659    0.0462   -0.0246 C   0  0  0  0  0  0  0  0  0  0  0  0
    1.4387    1.5530   -0.2846 C   0  0  0  0  0  0  0  0  0  0  0  0
    2.5221    1.9604    0.4873 O   0  0  0  0  0  0  0  0  0  0  0  0
    2.5614   -0.6013   -0.5539 C   0  0  0  0  0  0  0  0  0  0  0  0
    2.4822   -1.9567   -0.3546 O   0  0  0  0  0  0  0  0  0  0  0  0
    0.2040   -0.5028   -0.7373 N   0  0  0  0  0  0  0  0  0  0  0  0
   -1.1119   -0.0774   -0.5324 C   0  0  2  0  0  0  0  0  0  0  0  0
   -1.7115   -0.3166    0.8348 C   0  0  0  0  0  0  0  0  0  0  0  0
   -3.1633    0.0931    0.5398 C   0  0  0  0  0  0  0  0  0  0  0  0
   -3.3563   -0.5263   -0.7573 N   0  0  0  0  0  0  0  0  0  0  0  0
   -2.1142   -0.7325   -1.4011 C   0  0  0  0  0  0  0  0  0  0  0  0
   -1.8906   -1.3332   -2.4693 O   0  0  0  0  0  0  0  0  0  0  0  0
    0.7193   -1.0180    1.8263 H   0  0  0  0  0  0  0  0  0  0  0  0
    0.9789    0.8180    1.9815 H   0  0  0  0  0  0  0  0  0  0  0  0
    2.3426   -0.2948    1.8010 H   0  0  0  0  0  0  0  0  0  0  0  0
    1.7152    1.7294   -1.3449 H   0  0  0  0  0  0  0  0  0  0  0  0
    0.5523    2.1157    0.0276 H   0  0  0  0  0  0  0  0  0  0  0  0
    2.6759    2.9339    0.4358 H   0  0  0  0  0  0  0  0  0  0  0  0
    3.3972   -0.2178    0.0821 H   0  0  0  0  0  0  0  0  0  0  0  0
    2.7099   -0.3148   -1.6052 H   0  0  0  0  0  0  0  0  0  0  0  0
    1.5740   -2.2629   -0.5145 H   0  0  0  0  0  0  0  0  0  0  0  0
    0.4137   -1.0010   -1.6169 H   0  0  0  0  0  0  0  0  0  0  0  0
   -1.1471    1.0291   -0.6771 H   0  0  0  0  0  0  0  0  0  0  0  0
   -1.2884    0.2764    1.6380 H   0  0  0  0  0  0  0  0  0  0  0  0
   -1.7412   -1.4179    1.0775 H   0  0  0  0  0  0  0  0  0  0  0  0
   -3.8433   -0.2811    1.3147 H   0  0  0  0  0  0  0  0  0  0  0  0
   -3.1511    1.2099    0.4671 H   0  0  0  0  0  0  0  0  0  0  0  0
   -4.3081   -0.7773   -1.1333 H   0  0  0  0  0  0  0  0  0  0  0  0
  1  2  1  0
  2  3  1  0
  3  4  1  0
  2  5  1  0
  5  6  1  0
  2  7  1  0
  7  8  1  0
  8  9  1  0
  9 10  1  0
 10 11  1  0
 11 12  1  0
 12 13  2  0
 12  8  1  0
  1 14  1  0
  1 15  1  0
  1 16  1  0
  3 17  1  0
  3 18  1  0
  4 19  1  0
  5 20  1  0
  5 21  1  0
  6 22  1  0
  7 23  1  0
  8 24  1  6
  9 25  1  0
  9 26  1  0
 10 27  1  0
 10 28  1  0
 11 29  1  0
M  END
$$$$

     RDKit          3D

 29 29  0  0  0  0  0  0  0  0999 V2000
   -1.7910   -0.0306    1.7928 C   0  0  0  0  0  0  0  0  0  0  0  0
   -1.2911    0.1404    0.3861 C   0  0  0  0  0  0  0  0  0  0  0  0
   -1.7369   -1.0680   -0.4057 C   0  0  0  0  0  0  0  0  0  0  0  0
   -1.1433   -2.2503    0.0029 O   0  0  0  0  0  0  0  0  0  0  0  0
   -1.9597    1.3419   -0.2679 C   0  0  0  0  0  0  0  0  0  0  0  0
   -1.4174    2.5391    0.1865 O   0  0  0  0  0  0  0  0  0  0  0  0
    0.1151    0.3276    0.3924 N   0  0  0  0  0  0  0  0  0  0  0  0
    0.9008   -0.3553   -0.5548 C   0  0  2  0  0  0  0  0  0  0  0  0
    1.9916   -1.1225    0.1534 C   0  0  0  0  0  0  0  0  0  0  0  0
    3.2878   -0.4164   -0.1898 C   0  0  0  0  0  0  0  0  0  0  0  0
    2.9105    0.8706   -0.7228 N   0  0  0  0  0  0  0  0  0  0  0  0
    1.6455    0.6775   -1.3604 C   0  0  0  0  0  0  0  0  0  0  0  0
    1.1946    1.2703   -2.3766 O   0  0  0  0  0  0  0  0  0  0  0  0
   -1.5779    0.9093    2.3361 H   0  0  0  0  0  0  0  0  0  0  0  0
   -1.1545   -0.8272    2.2595 H   0  0  0  0  0  0  0  0  0  0  0  0
   -2.8691   -0.3187    1.8209 H   0  0  0  0  0  0  0  0  0  0  0  0
   -1.6858   -0.8924   -1.4916 H   0  0  0  0  0  0  0  0  0  0  0  0
   -2.8340   -1.1954   -0.1740 H   0  0  0  0  0  0  0  0  0  0  0  0
   -1.2547   -2.9324   -0.7026 H   0  0  0  0  0  0  0  0  0  0  0  0
   -1.9886    1.2526   -1.3568 H   0  0  0  0  0  0  0  0  0  0  0  0
   -3.0224    1.3275    0.1340 H   0  0  0  0  0  0  0  0  0  0  0  0
   -2.0573    3.1569    0.5969 H   0  0  0  0  0  0  0  0  0  0  0  0
    0.3659    1.3227    0.5544 H   0  0  0  0  0  0  0  0  0  0  0  0
    0.3346   -0.9702   -1.2778 H   0  0  0  0  0  0  0  0  0  0  0  0
    1.8879   -1.0502    1.2651 H   0  0  0  0  0  0  0  0  0  0  0  0
    1.9843   -2.1798   -0.1265 H   0  0  0  0  0  0  0  0  0  0  0  0
    3.9514   -0.2751    0.6932 H   0  0  0  0  0  0  0  0  0  0  0  0
    3.8272   -1.0559   -0.9040 H   0  0  0  0  0  0  0  0  0  0  0  0
    3.3865    1.8040   -0.6632 H   0  0  0  0  0  0  0  0  0  0  0  0
  1  2  1  0
  2  3  1  0
  3  4  1  0
  2  5  1  0
  5  6  1  0
  2  7  1  0
  7  8  1  0
  8  9  1  0
  9 10  1  0
 10 11  1  0
 11 12  1  0
 12 13  2  0
 12  8  1  0
  1 14  1  0
  1 15  1  0
  1 16  1  0
  3 17  1  0
  3 18  1  0
  4 19  1  0
  5 20  1  0
  5 21  1  0
  6 22  1  0
  7 23  1  0
  8 24  1  6
  9 25  1  0
  9 26  1  0
 10 27  1  0
 10 28  1  0
 11 29  1  0
M  END
$$$$

     RDKit          3D

 29 29  0  0  0  0  0  0  0  0999 V2000
   -2.1403   -1.0638   -1.3137 C   0  0  0  0  0  0  0  0  0  0  0  0
   -1.2749   -0.2514   -0.3197 C   0  0  0  0  0  0  0  0  0  0  0  0
   -1.3208    1.1539   -0.8531 C   0  0  0  0  0  0  0  0  0  0  0  0
   -0.8804    1.1787   -2.1827 O   0  0  0  0  0  0  0  0  0  0  0  0
   -2.0150   -0.2475    0.9969 C   0  0  0  0  0  0  0  0  0  0  0  0
   -1.3022    0.3950    2.0039 O   0  0  0  0  0  0  0  0  0  0  0  0
   -0.0360   -0.8955   -0.3017 N   0  0  0  0  0  0  0  0  0  0  0  0
    0.9763   -0.5577    0.6009 C   0  0  2  0  0  0  0  0  0  0  0  0
    1.4707    0.8578    0.4138 C   0  0  0  0  0  0  0  0  0  0  0  0
    2.9890    0.7572    0.6442 C   0  0  0  0  0  0  0  0  0  0  0  0
    3.2346   -0.4972   -0.0704 N   0  0  0  0  0  0  0  0  0  0  0  0
    2.1804   -1.3575    0.2769 C   0  0  0  0  0  0  0  0  0  0  0  0
    2.2417   -2.6035    0.3092 O   0  0  0  0  0  0  0  0  0  0  0  0
   -3.1120   -0.5949   -1.4655 H   0  0  0  0  0  0  0  0  0  0  0  0
   -2.1620   -2.1039   -0.9712 H   0  0  0  0  0  0  0  0  0  0  0  0
   -1.5693   -1.0170   -2.2698 H   0  0  0  0  0  0  0  0  0  0  0  0
   -2.4280    1.3902   -0.9338 H   0  0  0  0  0  0  0  0  0  0  0  0
   -0.8662    1.9116   -0.2193 H   0  0  0  0  0  0  0  0  0  0  0  0
   -0.8333    2.0990   -2.5249 H   0  0  0  0  0  0  0  0  0  0  0  0
   -2.3325   -1.2669    1.2948 H   0  0  0  0  0  0  0  0  0  0  0  0
   -2.9586    0.3404    0.8298 H   0  0  0  0  0  0  0  0  0  0  0  0
   -1.8959    0.5860    2.7695 H   0  0  0  0  0  0  0  0  0  0  0  0
    0.1369   -1.6740   -0.9361 H   0  0  0  0  0  0  0  0  0  0  0  0
    0.6728   -0.7484    1.6558 H   0  0  0  0  0  0  0  0  0  0  0  0
    1.0472    1.5279    1.1543 H   0  0  0  0  0  0  0  0  0  0  0  0
    1.3599    1.1934   -0.6209 H   0  0  0  0  0  0  0  0  0  0  0  0
    3.2325    0.5757    1.6943 H   0  0  0  0  0  0  0  0  0  0  0  0
    3.5249    1.5834    0.1750 H   0  0  0  0  0  0  0  0  0  0  0  0
    4.0602   -0.6710   -0.7115 H   0  0  0  0  0  0  0  0  0  0  0  0
  1  2  1  0
  2  3  1  0
  3  4  1  0
  2  5  1  0
  5  6  1  0
  2  7  1  0
  7  8  1  0
  8  9  1  0
  9 10  1  0
 10 11  1  0
 11 12  1  0
 12 13  2  0
 12  8  1  0
  1 14  1  0
  1 15  1  0
  1 16  1  0
  3 17  1  0
  3 18  1  0
  4 19  1  0
  5 20  1  0
  5 21  1  0
  6 22  1  0
  7 23  1  0
  8 24  1  1
  9 25  1  0
  9 26  1  0
 10 27  1  0
 10 28  1  0
 11 29  1  0
M  END
$$$$

     RDKit          3D

 29 29  0  0  0  0  0  0  0  0999 V2000
   -1.5081   -1.5169    0.6567 C   0  0  0  0  0  0  0  0  0  0  0  0
   -1.0609   -0.1694    0.1431 C   0  0  0  0  0  0  0  0  0  0  0  0
   -2.2376    0.2152   -0.8259 C   0  0  0  0  0  0  0  0  0  0  0  0
   -3.4061    0.3213   -0.0832 O   0  0  0  0  0  0  0  0  0  0  0  0
   -1.0704    0.9261    1.1465 C   0  0  0  0  0  0  0  0  0  0  0  0
   -2.2751    0.9135    1.9065 O   0  0  0  0  0  0  0  0  0  0  0  0
    0.0530   -0.2555   -0.6766 N   0  0  0  0  0  0  0  0  0  0  0  0
    1.2915   -0.7489   -0.3356 C   0  0  2  0  0  0  0  0  0  0  0  0
    2.1483   -0.1282    0.6885 C   0  0  0  0  0  0  0  0  0  0  0  0
    2.6518    1.1204   -0.0548 C   0  0  0  0  0  0  0  0  0  0  0  0
    3.1068    0.4872   -1.2857 N   0  0  0  0  0  0  0  0  0  0  0  0
    2.1810   -0.5535   -1.5634 C   0  0  0  0  0  0  0  0  0  0  0  0
    2.1267   -1.1861   -2.6430 O   0  0  0  0  0  0  0  0  0  0  0  0
   -2.3078   -1.4137    1.4134 H   0  0  0  0  0  0  0  0  0  0  0  0
   -1.8949   -2.0975   -0.2044 H   0  0  0  0  0  0  0  0  0  0  0  0
   -0.6965   -2.1091    1.0928 H   0  0  0  0  0  0  0  0  0  0  0  0
   -2.0389    1.1813   -1.2924 H   0  0  0  0  0  0  0  0  0  0  0  0
   -2.3685   -0.6364   -1.5234 H   0  0  0  0  0  0  0  0  0  0  0  0
   -3.7426   -0.5526    0.2479 H   0  0  0  0  0  0  0  0  0  0  0  0
   -0.2888    0.9445    1.8917 H   0  0  0  0  0  0  0  0  0  0  0  0
   -1.1254    1.8918    0.5627 H   0  0  0  0  0  0  0  0  0  0  0  0
   -2.8419    1.6774    1.7304 H   0  0  0  0  0  0  0  0  0  0  0  0
   -0.0547    0.1333   -1.6442 H   0  0  0  0  0  0  0  0  0  0  0  0
    1.2864   -1.8885   -0.2605 H   0  0  0  0  0  0  0  0  0  0  0  0
    1.7830    0.0568    1.6739 H   0  0  0  0  0  0  0  0  0  0  0  0
    3.0862   -0.7779    0.7497 H   0  0  0  0  0  0  0  0  0  0  0  0
    3.4749    1.6073    0.4871 H   0  0  0  0  0  0  0  0  0  0  0  0
    1.7736    1.7652   -0.1959 H   0  0  0  0  0  0  0  0  0  0  0  0
    3.9552    0.7928   -1.8022 H   0  0  0  0  0  0  0  0  0  0  0  0
  1  2  1  0
  2  3  1  0
  3  4  1  0
  2  5  1  0
  5  6  1  0
  2  7  1  0
  7  8  1  0
  8  9  1  0
  9 10  1  0
 10 11  1  0
 11 12  1  0
 12 13  2  0
 12  8  1  0
  1 14  1  0
  1 15  1  0
  1 16  1  0
  3 17  1  0
  3 18  1  0
  4 19  1  0
  5 20  1  0
  5 21  1  0
  6 22  1  0
  7 23  1  0
  8 24  1  1
  9 25  1  0
  9 26  1  0
 10 27  1  0
 10 28  1  0
 11 29  1  0
M  END
$$$$

     RDKit          3D

 29 29  0  0  0  0  0  0  0  0999 V2000
   -1.7018    0.0982    1.5139 C   0  0  0  0  0  0  0  0  0  0  0  0
   -1.2113   -0.1473    0.0748 C   0  0  0  0  0  0  0  0  0  0  0  0
   -1.5243    1.0651   -0.7431 C   0  0  0  0  0  0  0  0  0  0  0  0
   -2.8944    1.4307   -0.5697 O   0  0  0  0  0  0  0  0  0  0  0  0
   -2.1839   -1.2307   -0.4405 C   0  0  0  0  0  0  0  0  0  0  0  0
   -2.1376   -2.3627    0.3254 O   0  0  0  0  0  0  0  0  0  0  0  0
    0.0637   -0.7017    0.0173 N   0  0  0  0  0  0  0  0  0  0  0  0
    1.2153   -0.0435    0.4462 C   0  0  2  0  0  0  0  0  0  0  0  0
    1.7053    1.1271   -0.3455 C   0  0  0  0  0  0  0  0  0  0  0  0
    3.0093    0.6590   -0.9903 C   0  0  0  0  0  0  0  0  0  0  0  0
    3.5402   -0.2343    0.0082 N   0  0  0  0  0  0  0  0  0  0  0  0
    2.3886   -0.9520    0.4846 C   0  0  0  0  0  0  0  0  0  0  0  0
    2.4805   -2.1640    0.8533 O   0  0  0  0  0  0  0  0  0  0  0  0
   -1.1484    0.8660    2.0370 H   0  0  0  0  0  0  0  0  0  0  0  0
   -1.6584   -0.8901    2.0315 H   0  0  0  0  0  0  0  0  0  0  0  0
   -2.7591    0.3957    1.4235 H   0  0  0  0  0  0  0  0  0  0  0  0
   -1.4029    0.9627   -1.8356 H   0  0  0  0  0  0  0  0  0  0  0  0
   -0.9897    1.9853   -0.4309 H   0  0  0  0  0  0  0  0  0  0  0  0
   -3.0139    2.0401    0.1720 H   0  0  0  0  0  0  0  0  0  0  0  0
   -1.9921   -1.3633   -1.5259 H   0  0  0  0  0  0  0  0  0  0  0  0
   -3.1980   -0.7554   -0.3746 H   0  0  0  0  0  0  0  0  0  0  0  0
   -1.6893   -3.1131   -0.1531 H   0  0  0  0  0  0  0  0  0  0  0  0
    0.0233   -1.7248    0.2507 H   0  0  0  0  0  0  0  0  0  0  0  0
    1.1279    0.3596    1.5116 H   0  0  0  0  0  0  0  0  0  0  0  0
    1.9856    1.9756    0.2913 H   0  0  0  0  0  0  0  0  0  0  0  0
    1.0485    1.3981   -1.2080 H   0  0  0  0  0  0  0  0  0  0  0  0
    2.7277    0.0933   -1.9059 H   0  0  0  0  0  0  0  0  0  0  0  0
    3.6484    1.5306   -1.2011 H   0  0  0  0  0  0  0  0  0  0  0  0
    4.5407   -0.3042    0.2830 H   0  0  0  0  0  0  0  0  0  0  0  0
  1  2  1  0
  2  3  1  0
  3  4  1  0
  2  5  1  0
  5  6  1  0
  2  7  1  0
  7  8  1  0
  8  9  1  0
  9 10  1  0
 10 11  1  0
 11 12  1  0
 12 13  2  0
 12  8  1  0
  1 14  1  0
  1 15  1  0
  1 16  1  0
  3 17  1  0
  3 18  1  0
  4 19  1  0
  5 20  1  0
  5 21  1  0
  6 22  1  0
  7 23  1  0
  8 24  1  1
  9 25  1  0
  9 26  1  0
 10 27  1  0
 10 28  1  0
 11 29  1  0
M  END
$$$$

     RDKit          3D

 29 29  0  0  0  0  0  0  0  0999 V2000
   -2.5280    0.5745   -0.6423 C   0  0  0  0  0  0  0  0  0  0  0  0
   -1.2076    0.2136    0.0861 C   0  0  0  0  0  0  0  0  0  0  0  0
   -1.5185   -1.1970    0.6102 C   0  0  0  0  0  0  0  0  0  0  0  0
   -1.9375   -2.0332   -0.4333 O   0  0  0  0  0  0  0  0  0  0  0  0
   -1.1856    1.0885    1.2898 C   0  0  0  0  0  0  0  0  0  0  0  0
   -2.2927    0.8218    2.1381 O   0  0  0  0  0  0  0  0  0  0  0  0
   -0.2330    0.3146   -0.8558 N   0  0  0  0  0  0  0  0  0  0  0  0
    1.1117    0.2237   -0.7792 C   0  0  2  0  0  0  0  0  0  0  0  0
    1.7413   -1.1037   -0.3263 C   0  0  0  0  0  0  0  0  0  0  0  0
    3.2181   -0.6975   -0.5384 C   0  0  0  0  0  0  0  0  0  0  0  0
    3.1730    0.5997    0.1688 N   0  0  0  0  0  0  0  0  0  0  0  0
    1.9135    1.2023   -0.0676 C   0  0  0  0  0  0  0  0  0  0  0  0
    1.6122    2.3438    0.2861 O   0  0  0  0  0  0  0  0  0  0  0  0
   -2.3358    1.5529   -1.1344 H   0  0  0  0  0  0  0  0  0  0  0  0
   -3.3773    0.5683    0.0351 H   0  0  0  0  0  0  0  0  0  0  0  0
   -2.6265   -0.1646   -1.4835 H   0  0  0  0  0  0  0  0  0  0  0  0
   -2.4189   -1.1050    1.2891 H   0  0  0  0  0  0  0  0  0  0  0  0
   -0.7297   -1.6126    1.2204 H   0  0  0  0  0  0  0  0  0  0  0  0
   -1.1887   -2.2310   -1.0529 H   0  0  0  0  0  0  0  0  0  0  0  0
   -1.1817    2.1600    1.1333 H   0  0  0  0  0  0  0  0  0  0  0  0
   -0.3016    0.8355    1.9487 H   0  0  0  0  0  0  0  0  0  0  0  0
   -3.0209    1.4895    1.9307 H   0  0  0  0  0  0  0  0  0  0  0  0
   -0.5952   -0.0022   -1.8014 H   0  0  0  0  0  0  0  0  0  0  0  0
    1.5152    0.2901   -1.8495 H   0  0  0  0  0  0  0  0  0  0  0  0
    1.6659   -1.2693    0.7495 H   0  0  0  0  0  0  0  0  0  0  0  0
    1.4710   -1.9367   -0.9751 H   0  0  0  0  0  0  0  0  0  0  0  0
    3.3804   -0.4711   -1.5999 H   0  0  0  0  0  0  0  0  0  0  0  0
    3.9009   -1.4051   -0.0776 H   0  0  0  0  0  0  0  0  0  0  0  0
    3.9758    0.9503    0.7313 H   0  0  0  0  0  0  0  0  0  0  0  0
  1  2  1  0
  2  3  1  0
  3  4  1  0
  2  5  1  0
  5  6  1  0
  2  7  1  0
  7  8  1  0
  8  9  1  0
  9 10  1  0
 10 11  1  0
 11 12  1  0
 12 13  2  0
 12  8  1  0
  1 14  1  0
  1 15  1  0
  1 16  1  0
  3 17  1  0
  3 18  1  0
  4 19  1  0
  5 20  1  0
  5 21  1  0
  6 22  1  0
  7 23  1  0
  8 24  1  6
  9 25  1  0
  9 26  1  0
 10 27  1  0
 10 28  1  0
 11 29  1  0
M  END
$$$$
