
     RDKit          3D

 17 17  0  0  0  0  0  0  0  0999 V2000
   -1.7564   -1.3483   -0.0183 C   0  0  0  0  0  0  0  0  0  0  0  0
   -1.1457    0.0034    0.0416 C   0  0  0  0  0  0  0  0  0  0  0  0
   -1.9054    1.2003    0.1374 N   0  0  0  0  0  0  0  0  0  0  0  0
    0.1926    0.1172    0.0043 C   0  0  0  0  0  0  0  0  0  0  0  0
    0.9753    1.2899    0.0479 N   0  0  0  0  0  0  0  0  0  0  0  0
    2.3390    0.9871   -0.0149 N   0  0  0  0  0  0  0  0  0  0  0  0
    2.4451   -0.4263   -0.1020 C   0  0  0  0  0  0  0  0  0  0  0  0
    3.5192   -1.0742   -0.1757 O   0  0  0  0  0  0  0  0  0  0  0  0
    1.1079   -0.9635   -0.0898 N   0  0  0  0  0  0  0  0  0  0  0  0
   -1.2810   -2.0618    0.6782 H   0  0  0  0  0  0  0  0  0  0  0  0
   -1.7561   -1.7765   -1.0409 H   0  0  0  0  0  0  0  0  0  0  0  0
   -2.8311   -1.2368    0.2618 H   0  0  0  0  0  0  0  0  0  0  0  0
   -2.1882    1.6421    1.0398 H   0  0  0  0  0  0  0  0  0  0  0  0
   -2.2007    1.6698   -0.7496 H   0  0  0  0  0  0  0  0  0  0  0  0
    0.5462    2.2584    0.1193 H   0  0  0  0  0  0  0  0  0  0  0  0
    3.1213    1.6753    0.0001 H   0  0  0  0  0  0  0  0  0  0  0  0
    0.8182   -1.9561   -0.1390 H   0  0  0  0  0  0  0  0  0  0  0  0
  1  2  1  0
  2  3  1  0
  2  4  2  0
  4  5  1  0
  5  6  1  0
  6  7  1  0
  7  8  2  0
  7  9  1  0
  9  4  1  0
  1 10  1  0
  1 11  1  0
  1 12  1  0
  3 13  1  0
  3 14  1  0
  5 15  1  0
  6 16  1  0
  9 17  1  0
M  END
$$$$

     RDKit          3D

 17 17  0  0  0  0  0  0  0  0999 V2000
   -1.9507   -1.0345   -0.1593 C   0  0  0  0  0  0  0  0  0  0  0  0
   -1.1009    0.1774   -0.0741 C   0  0  0  0  0  0  0  0  0  0  0  0
   -1.6802    1.4680   -0.0949 N   0  0  0  0  0  0  0  0  0  0  0  0
    0.2166    0.0330    0.0224 C   0  0  0  0  0  0  0  0  0  0  0  0
    1.1216    1.1525    0.1101 N   0  0  0  0  0  0  0  0  0  0  0  0
    2.4073    0.6292    0.1975 N   0  0  0  0  0  0  0  0  0  0  0  0
    2.3664   -0.7914    0.1694 C   0  0  0  0  0  0  0  0  0  0  0  0
    3.3288   -1.5755    0.2280 O   0  0  0  0  0  0  0  0  0  0  0  0
    0.9833   -1.1657    0.0589 N   0  0  0  0  0  0  0  0  0  0  0  0
   -1.3803   -1.9052   -0.4754 H   0  0  0  0  0  0  0  0  0  0  0  0
   -2.7323   -0.8576   -0.9526 H   0  0  0  0  0  0  0  0  0  0  0  0
   -2.4914   -1.2553    0.7719 H   0  0  0  0  0  0  0  0  0  0  0  0
   -1.1713    2.2952   -0.4621 H   0  0  0  0  0  0  0  0  0  0  0  0
   -2.6450    1.6018    0.2666 H   0  0  0  0  0  0  0  0  0  0  0  0
    0.8417    2.1716    0.1071 H   0  0  0  0  0  0  0  0  0  0  0  0
    3.2988    1.1878    0.2743 H   0  0  0  0  0  0  0  0  0  0  0  0
    0.5875   -2.1313    0.0121 H   0  0  0  0  0  0  0  0  0  0  0  0
  1  2  1  0
  2  3  1  0
  2  4  2  0
  4  5  1  0
  5  6  1  0
  6  7  1  0
  7  8  2  0
  7  9  1  0
  9  4  1  0
  1 10  1  0
  1 11  1  0
  1 12  1  0
  3 13  1  0
  3 14  1  0
  5 15  1  0
  6 16  1  0
  9 17  1  0
M  END
$$$$

     RDKit          3D

 17 17  0  0  0  0  0  0  0  0999 V2000
   -1.9001   -1.1640   -0.0166 C   0  0  0  0  0  0  0  0  0  0  0  0
   -1.1116    0.0826   -0.0250 C   0  0  0  0  0  0  0  0  0  0  0  0
   -1.8004    1.3220   -0.0469 N   0  0  0  0  0  0  0  0  0  0  0  0
    0.2071    0.0981   -0.0131 C   0  0  0  0  0  0  0  0  0  0  0  0
    1.0942    1.2311   -0.0192 N   0  0  0  0  0  0  0  0  0  0  0  0
    2.4168    0.7796   -0.0014 N   0  0  0  0  0  0  0  0  0  0  0  0
    2.4300   -0.6388    0.0165 C   0  0  0  0  0  0  0  0  0  0  0  0
    3.4310   -1.4021    0.0353 O   0  0  0  0  0  0  0  0  0  0  0  0
    1.0637   -1.0502    0.0092 N   0  0  0  0  0  0  0  0  0  0  0  0
   -1.3252   -2.0507   -0.3646 H   0  0  0  0  0  0  0  0  0  0  0  0
   -2.1583   -1.3846    1.0590 H   0  0  0  0  0  0  0  0  0  0  0  0
   -2.8743   -1.0615   -0.5307 H   0  0  0  0  0  0  0  0  0  0  0  0
   -2.7050    1.4872   -0.5399 H   0  0  0  0  0  0  0  0  0  0  0  0
   -1.3970    2.1423    0.4566 H   0  0  0  0  0  0  0  0  0  0  0  0
    0.7188    2.2030   -0.0349 H   0  0  0  0  0  0  0  0  0  0  0  0
    3.2319    1.4305   -0.0022 H   0  0  0  0  0  0  0  0  0  0  0  0
    0.6782   -2.0244    0.0179 H   0  0  0  0  0  0  0  0  0  0  0  0
  1  2  1  0
  2  3  1  0
  2  4  2  0
  4  5  1  0
  5  6  1  0
  6  7  1  0
  7  8  2  0
  7  9  1  0
  9  4  1  0
  1 10  1  0
  1 11  1  0
  1 12  1  0
  3 13  1  0
  3 14  1  0
  5 15  1  0
  6 16  1  0
  9 17  1  0
M  END
$$$$

     RDKit          3D

 17 17  0  0  0  0  0  0  0  0999 V2000
   -2.0120   -0.8945   -0.0753 C   0  0  0  0  0  0  0  0  0  0  0  0
   -1.1059    0.2513   -0.0012 C   0  0  0  0  0  0  0  0  0  0  0  0
   -1.5855    1.5779    0.0579 N   0  0  0  0  0  0  0  0  0  0  0  0
    0.2020    0.0542    0.0117 C   0  0  0  0  0  0  0  0  0  0  0  0
    1.2238    1.0713    0.0813 N   0  0  0  0  0  0  0  0  0  0  0  0
    2.4737    0.4521    0.0716 N   0  0  0  0  0  0  0  0  0  0  0  0
    2.3078   -0.9536   -0.0028 C   0  0  0  0  0  0  0  0  0  0  0  0
    3.1585   -1.8791   -0.0350 O   0  0  0  0  0  0  0  0  0  0  0  0
    0.8887   -1.1960   -0.0399 N   0  0  0  0  0  0  0  0  0  0  0  0
   -1.5377   -1.7890   -0.4996 H   0  0  0  0  0  0  0  0  0  0  0  0
   -2.8457   -0.6178   -0.7788 H   0  0  0  0  0  0  0  0  0  0  0  0
   -2.4268   -1.1613    0.9185 H   0  0  0  0  0  0  0  0  0  0  0  0
   -1.0321    2.3842    0.4264 H   0  0  0  0  0  0  0  0  0  0  0  0
   -2.5500    1.7901   -0.2821 H   0  0  0  0  0  0  0  0  0  0  0  0
    1.0032    2.1033    0.1299 H   0  0  0  0  0  0  0  0  0  0  0  0
    3.3891    0.9369    0.1123 H   0  0  0  0  0  0  0  0  0  0  0  0
    0.4489   -2.1298   -0.0951 H   0  0  0  0  0  0  0  0  0  0  0  0
  1  2  1  0
  2  3  1  0
  2  4  2  0
  4  5  1  0
  5  6  1  0
  6  7  1  0
  7  8  2  0
  7  9  1  0
  9  4  1  0
  1 10  1  0
  1 11  1  0
  1 12  1  0
  3 13  1  0
  3 14  1  0
  5 15  1  0
  6 16  1  0
  9 17  1  0
M  END
$$$$

     RDKit          3D

 17 17  0  0  0  0  0  0  0  0999 V2000
   -1.9815    0.9143   -0.3533 C   0  0  0  0  0  0  0  0  0  0  0  0
   -1.0952   -0.2257   -0.0176 C   0  0  0  0  0  0  0  0  0  0  0  0
   -1.6573   -1.5030    0.2494 N   0  0  0  0  0  0  0  0  0  0  0  0
    0.2104   -0.0347    0.0281 C   0  0  0  0  0  0  0  0  0  0  0  0
    1.1388   -1.0470    0.3361 N   0  0  0  0  0  0  0  0  0  0  0  0
    2.4205   -0.4756    0.2889 N   0  0  0  0  0  0  0  0  0  0  0  0
    2.3392    0.8964   -0.0460 C   0  0  0  0  0  0  0  0  0  0  0  0
    3.2764    1.7282   -0.1798 O   0  0  0  0  0  0  0  0  0  0  0  0
    0.9524    1.1707   -0.2090 N   0  0  0  0  0  0  0  0  0  0  0  0
   -1.4959    1.8842   -0.2792 H   0  0  0  0  0  0  0  0  0  0  0  0
   -2.8868    0.8294    0.3088 H   0  0  0  0  0  0  0  0  0  0  0  0
   -2.2684    0.7681   -1.4347 H   0  0  0  0  0  0  0  0  0  0  0  0
   -1.9614   -2.1113   -0.5287 H   0  0  0  0  0  0  0  0  0  0  0  0
   -1.7568   -1.8149    1.2528 H   0  0  0  0  0  0  0  0  0  0  0  0
    0.9265   -2.0437    0.5603 H   0  0  0  0  0  0  0  0  0  0  0  0
    3.3128   -1.0200    0.4821 H   0  0  0  0  0  0  0  0  0  0  0  0
    0.5262    2.0845   -0.4582 H   0  0  0  0  0  0  0  0  0  0  0  0
  1  2  1  0
  2  3  1  0
  2  4  2  0
  4  5  1  0
  5  6  1  0
  6  7  1  0
  7  8  2  0
  7  9  1  0
  9  4  1  0
  1 10  1  0
  1 11  1  0
  1 12  1  0
  3 13  1  0
  3 14  1  0
  5 15  1  0
  6 16  1  0
  9 17  1  0
M  END
$$$$

     RDKit          3D

 17 17  0  0  0  0  0  0  0  0999 V2000
   -1.9396   -1.0211    0.1228 C   0  0  0  0  0  0  0  0  0  0  0  0
   -1.0988    0.2260    0.0765 C   0  0  0  0  0  0  0  0  0  0  0  0
   -1.6754    1.5234    0.1253 N   0  0  0  0  0  0  0  0  0  0  0  0
    0.2273    0.0740   -0.0132 C   0  0  0  0  0  0  0  0  0  0  0  0
    1.1658    1.1449   -0.0674 N   0  0  0  0  0  0  0  0  0  0  0  0
    2.4177    0.5631   -0.1556 N   0  0  0  0  0  0  0  0  0  0  0  0
    2.3183   -0.8604   -0.1603 C   0  0  0  0  0  0  0  0  0  0  0  0
    3.2769   -1.6786   -0.2307 O   0  0  0  0  0  0  0  0  0  0  0  0
    0.9295   -1.1666   -0.0699 N   0  0  0  0  0  0  0  0  0  0  0  0
   -2.9803   -0.7932   -0.2477 H   0  0  0  0  0  0  0  0  0  0  0  0
   -2.0111   -1.4180    1.1374 H   0  0  0  0  0  0  0  0  0  0  0  0
   -1.5423   -1.7727   -0.5903 H   0  0  0  0  0  0  0  0  0  0  0  0
   -1.9137    1.8933    1.0717 H   0  0  0  0  0  0  0  0  0  0  0  0
   -1.8722    2.1169   -0.6982 H   0  0  0  0  0  0  0  0  0  0  0  0
    0.8911    2.1695   -0.0410 H   0  0  0  0  0  0  0  0  0  0  0  0
    3.3155    1.1139   -0.2112 H   0  0  0  0  0  0  0  0  0  0  0  0
    0.4913   -2.1144   -0.0482 H   0  0  0  0  0  0  0  0  0  0  0  0
  1  2  1  0
  2  3  1  0
  2  4  2  0
  4  5  1  0
  5  6  1  0
  6  7  1  0
  7  8  2  0
  7  9  1  0
  9  4  1  0
  1 10  1  0
  1 11  1  0
  1 12  1  0
  3 13  1  0
  3 14  1  0
  5 15  1  0
  6 16  1  0
  9 17  1  0
M  END
$$$$

     RDKit          3D

 17 17  0  0  0  0  0  0  0  0999 V2000
   -1.9682   -0.9732   -0.1744 C   0  0  0  0  0  0  0  0  0  0  0  0
   -1.1171    0.2287   -0.0744 C   0  0  0  0  0  0  0  0  0  0  0  0
   -1.6842    1.5264   -0.0732 N   0  0  0  0  0  0  0  0  0  0  0  0
    0.1918    0.0730    0.0145 C   0  0  0  0  0  0  0  0  0  0  0  0
    1.1962    1.0821    0.1192 N   0  0  0  0  0  0  0  0  0  0  0  0
    2.4749    0.5247    0.1930 N   0  0  0  0  0  0  0  0  0  0  0  0
    2.3291   -0.8888    0.1368 C   0  0  0  0  0  0  0  0  0  0  0  0
    3.2746   -1.7194    0.1778 O   0  0  0  0  0  0  0  0  0  0  0  0
    0.9361   -1.1564    0.0282 N   0  0  0  0  0  0  0  0  0  0  0  0
   -2.2811   -1.2871    0.8233 H   0  0  0  0  0  0  0  0  0  0  0  0
   -2.9056   -0.7232   -0.7488 H   0  0  0  0  0  0  0  0  0  0  0  0
   -1.4492   -1.8204   -0.6533 H   0  0  0  0  0  0  0  0  0  0  0  0
   -2.6847    1.7049    0.1919 H   0  0  0  0  0  0  0  0  0  0  0  0
   -1.1411    2.3846   -0.3359 H   0  0  0  0  0  0  0  0  0  0  0  0
    0.9513    2.1098    0.1349 H   0  0  0  0  0  0  0  0  0  0  0  0
    3.3735    1.0506    0.2745 H   0  0  0  0  0  0  0  0  0  0  0  0
    0.5038   -2.1165   -0.0339 H   0  0  0  0  0  0  0  0  0  0  0  0
  1  2  1  0
  2  3  1  0
  2  4  2  0
  4  5  1  0
  5  6  1  0
  6  7  1  0
  7  8  2  0
  7  9  1  0
  9  4  1  0
  1 10  1  0
  1 11  1  0
  1 12  1  0
  3 13  1  0
  3 14  1  0
  5 15  1  0
  6 16  1  0
  9 17  1  0
M  END
$$$$

     RDKit          3D

 17 17  0  0  0  0  0  0  0  0999 V2000
   -1.8310   -1.2427    0.0867 C   0  0  0  0  0  0  0  0  0  0  0  0
   -1.1329    0.0669    0.0778 C   0  0  0  0  0  0  0  0  0  0  0  0
   -1.8917    1.2599    0.1649 N   0  0  0  0  0  0  0  0  0  0  0  0
    0.1854    0.1103   -0.0109 C   0  0  0  0  0  0  0  0  0  0  0  0
    1.0175    1.2559   -0.0337 N   0  0  0  0  0  0  0  0  0  0  0  0
    2.3633    0.9166   -0.1356 N   0  0  0  0  0  0  0  0  0  0  0  0
    2.4113   -0.5043   -0.1809 C   0  0  0  0  0  0  0  0  0  0  0  0
    3.4050   -1.2727   -0.2714 O   0  0  0  0  0  0  0  0  0  0  0  0
    1.0807   -1.0044   -0.1049 N   0  0  0  0  0  0  0  0  0  0  0  0
   -2.9111   -1.1290    0.1454 H   0  0  0  0  0  0  0  0  0  0  0  0
   -1.5089   -1.8707    0.9616 H   0  0  0  0  0  0  0  0  0  0  0  0
   -1.4926   -1.7752   -0.8464 H   0  0  0  0  0  0  0  0  0  0  0  0
   -1.6784    1.9594    0.9287 H   0  0  0  0  0  0  0  0  0  0  0  0
   -2.6557    1.4564   -0.5128 H   0  0  0  0  0  0  0  0  0  0  0  0
    0.6935    2.2468    0.0177 H   0  0  0  0  0  0  0  0  0  0  0  0
    3.2200    1.5093   -0.1765 H   0  0  0  0  0  0  0  0  0  0  0  0
    0.7256   -1.9825   -0.1096 H   0  0  0  0  0  0  0  0  0  0  0  0
  1  2  1  0
  2  3  1  0
  2  4  2  0
  4  5  1  0
  5  6  1  0
  6  7  1  0
  7  8  2  0
  7  9  1  0
  9  4  1  0
  1 10  1  0
  1 11  1  0
  1 12  1  0
  3 13  1  0
  3 14  1  0
  5 15  1  0
  6 16  1  0
  9 17  1  0
M  END
$$$$
