
     RDKit          3D

 28 28  0  0  0  0  0  0  0  0999 V2000
   -1.7375    0.8803   -0.7815 C   0  0  0  0  0  0  0  0  0  0  0  0
   -1.5152    0.1175    0.5030 C   0  0  1  0  0  0  0  0  0  0  0  0
   -2.7362   -0.6945    0.7938 C   0  0  0  0  0  0  0  0  0  0  0  0
   -3.8602    0.3207    0.9164 N   0  0  0  0  0  0  0  0  0  0  0  0
   -0.2376   -0.3852    0.6301 N   0  0  0  0  0  0  0  0  0  0  0  0
    0.1773   -1.3139   -0.4034 C   0  0  0  0  0  0  0  0  0  0  0  0
    1.4637   -0.7407   -0.9857 C   0  0  0  0  0  0  0  0  0  0  0  0
    1.7230   -0.7510   -2.3176 N   0  0  0  0  0  0  0  0  0  0  0  0
    2.8671   -0.0484   -2.4570 N   0  0  0  0  0  0  0  0  0  0  0  0
    3.2651    0.3656   -1.2079 C   0  0  0  0  0  0  0  0  0  0  0  0
    4.3954    1.1242   -0.9124 O   0  0  0  0  0  0  0  0  0  0  0  0
    2.3670   -0.0865   -0.3263 N   0  0  0  0  0  0  0  0  0  0  0  0
    2.4063    0.1114    1.1188 C   0  0  0  0  0  0  0  0  0  0  0  0
   -2.3966    0.3190   -1.4552 H   0  0  0  0  0  0  0  0  0  0  0  0
   -2.1481    1.8498   -0.5695 H   0  0  0  0  0  0  0  0  0  0  0  0
   -0.7606    1.0612   -1.2962 H   0  0  0  0  0  0  0  0  0  0  0  0
   -1.5962    0.9524    1.3209 H   0  0  0  0  0  0  0  0  0  0  0  0
   -3.0448   -1.3216   -0.0913 H   0  0  0  0  0  0  0  0  0  0  0  0
   -2.7201   -1.2666    1.7345 H   0  0  0  0  0  0  0  0  0  0  0  0
   -4.0418    0.6479   -0.0732 H   0  0  0  0  0  0  0  0  0  0  0  0
   -3.4449    1.0968    1.5061 H   0  0  0  0  0  0  0  0  0  0  0  0
   -0.2075   -0.9725    1.5452 H   0  0  0  0  0  0  0  0  0  0  0  0
   -0.5221   -1.6263   -1.1340 H   0  0  0  0  0  0  0  0  0  0  0  0
    0.5913   -2.2261    0.1385 H   0  0  0  0  0  0  0  0  0  0  0  0
    4.3080    2.1330   -0.7437 H   0  0  0  0  0  0  0  0  0  0  0  0
    3.3330    0.6498    1.3816 H   0  0  0  0  0  0  0  0  0  0  0  0
    2.4813   -0.9022    1.6277 H   0  0  0  0  0  0  0  0  0  0  0  0
    1.5910    0.7060    1.5382 H   0  0  0  0  0  0  0  0  0  0  0  0
  1  2  1  0
  2  3  1  0
  3  4  1  0
  2  5  1  0
  5  6  1  0
  6  7  1  0
  7  8  2  0
  8  9  1  0
  9 10  2  0
 10 11  1  0
 10 12  1  0
 12 13  1  0
 12  7  1  0
  1 14  1  0
  1 15  1  0
  1 16  1  0
  2 17  1  1
  3 18  1  0
  3 19  1  0
  4 20  1  0
  4 21  1  0
  5 22  1  0
  6 23  1  0
  6 24  1  0
 11 25  1  0
 13 26  1  0
 13 27  1  0
 13 28  1  0
M  END
$$$$

     RDKit          3D

 28 28  0  0  0  0  0  0  0  0999 V2000
   -2.3563    1.9577    0.3733 C   0  0  0  0  0  0  0  0  0  0  0  0
   -2.0064    0.4890    0.2868 C   0  0  1  0  0  0  0  0  0  0  0  0
   -3.0405   -0.2568   -0.5498 C   0  0  0  0  0  0  0  0  0  0  0  0
   -2.6577   -1.6490   -0.5820 N   0  0  0  0  0  0  0  0  0  0  0  0
   -0.6985    0.3445   -0.2151 N   0  0  0  0  0  0  0  0  0  0  0  0
    0.3385    0.8108    0.6135 C   0  0  0  0  0  0  0  0  0  0  0  0
    1.6733    0.6781   -0.0753 C   0  0  0  0  0  0  0  0  0  0  0  0
    2.2175    1.6805   -0.7743 N   0  0  0  0  0  0  0  0  0  0  0  0
    3.3871    1.2810   -1.2754 N   0  0  0  0  0  0  0  0  0  0  0  0
    3.5493    0.0147   -0.8707 C   0  0  0  0  0  0  0  0  0  0  0  0
    4.6616   -0.7650   -1.1919 O   0  0  0  0  0  0  0  0  0  0  0  0
    2.4817   -0.3631   -0.1215 N   0  0  0  0  0  0  0  0  0  0  0  0
    2.3133   -1.6553    0.4800 C   0  0  0  0  0  0  0  0  0  0  0  0
   -1.4445    2.5385    0.5250 H   0  0  0  0  0  0  0  0  0  0  0  0
   -2.6837    2.2312   -0.6885 H   0  0  0  0  0  0  0  0  0  0  0  0
   -3.1733    2.1748    1.0912 H   0  0  0  0  0  0  0  0  0  0  0  0
   -2.1225    0.0702    1.3335 H   0  0  0  0  0  0  0  0  0  0  0  0
   -4.0411   -0.1629   -0.1244 H   0  0  0  0  0  0  0  0  0  0  0  0
   -2.9993    0.1340   -1.5988 H   0  0  0  0  0  0  0  0  0  0  0  0
   -2.2854   -1.9262   -1.5114 H   0  0  0  0  0  0  0  0  0  0  0  0
   -3.4903   -2.2620   -0.3792 H   0  0  0  0  0  0  0  0  0  0  0  0
   -0.5025   -0.5795   -0.6754 H   0  0  0  0  0  0  0  0  0  0  0  0
    0.1901    1.8229    0.9886 H   0  0  0  0  0  0  0  0  0  0  0  0
    0.3697    0.1653    1.5298 H   0  0  0  0  0  0  0  0  0  0  0  0
    5.4501   -0.7341   -0.5456 H   0  0  0  0  0  0  0  0  0  0  0  0
    2.2954   -2.4503   -0.3157 H   0  0  0  0  0  0  0  0  0  0  0  0
    3.1827   -1.8181    1.1793 H   0  0  0  0  0  0  0  0  0  0  0  0
    1.3919   -1.7709    1.0698 H   0  0  0  0  0  0  0  0  0  0  0  0
  1  2  1  0
  2  3  1  0
  3  4  1  0
  2  5  1  0
  5  6  1  0
  6  7  1  0
  7  8  2  0
  8  9  1  0
  9 10  2  0
 10 11  1  0
 10 12  1  0
 12 13  1  0
 12  7  1  0
  1 14  1  0
  1 15  1  0
  1 16  1  0
  2 17  1  1
  3 18  1  0
  3 19  1  0
  4 20  1  0
  4 21  1  0
  5 22  1  0
  6 23  1  0
  6 24  1  0
 11 25  1  0
 13 26  1  0
 13 27  1  0
 13 28  1  0
M  END
$$$$

     RDKit          3D

 28 28  0  0  0  0  0  0  0  0999 V2000
    2.5770   -1.5627   -0.3349 C   0  0  0  0  0  0  0  0  0  0  0  0
    1.7542   -0.5378    0.2931 C   0  0  1  0  0  0  0  0  0  0  0  0
    2.1182    0.9067   -0.1557 C   0  0  0  0  0  0  0  0  0  0  0  0
    3.4634    1.1906    0.1833 N   0  0  0  0  0  0  0  0  0  0  0  0
    0.3565   -0.6747    0.2090 N   0  0  0  0  0  0  0  0  0  0  0  0
   -0.2010   -0.7080   -1.1393 C   0  0  0  0  0  0  0  0  0  0  0  0
   -1.3489    0.2201   -1.0875 C   0  0  0  0  0  0  0  0  0  0  0  0
   -1.3568    1.4352   -1.7285 N   0  0  0  0  0  0  0  0  0  0  0  0
   -2.4200    2.0738   -1.3840 N   0  0  0  0  0  0  0  0  0  0  0  0
   -3.1192    1.2943   -0.5220 C   0  0  0  0  0  0  0  0  0  0  0  0
   -4.3324    1.7153    0.0359 O   0  0  0  0  0  0  0  0  0  0  0  0
   -2.4670    0.1572   -0.3417 N   0  0  0  0  0  0  0  0  0  0  0  0
   -2.9218   -0.9283    0.5269 C   0  0  0  0  0  0  0  0  0  0  0  0
    3.1308   -2.2075    0.3929 H   0  0  0  0  0  0  0  0  0  0  0  0
    2.0181   -2.1794   -1.0326 H   0  0  0  0  0  0  0  0  0  0  0  0
    3.3600   -1.0386   -0.9742 H   0  0  0  0  0  0  0  0  0  0  0  0
    1.9886   -0.4857    1.4132 H   0  0  0  0  0  0  0  0  0  0  0  0
    1.9698    0.9936   -1.2554 H   0  0  0  0  0  0  0  0  0  0  0  0
    1.3763    1.5747    0.3378 H   0  0  0  0  0  0  0  0  0  0  0  0
    3.8331    0.7404    1.0061 H   0  0  0  0  0  0  0  0  0  0  0  0
    4.1301    1.3568   -0.5636 H   0  0  0  0  0  0  0  0  0  0  0  0
   -0.2247   -0.3176    0.9397 H   0  0  0  0  0  0  0  0  0  0  0  0
   -0.5241   -1.7545   -1.3954 H   0  0  0  0  0  0  0  0  0  0  0  0
    0.5474   -0.3744   -1.8403 H   0  0  0  0  0  0  0  0  0  0  0  0
   -4.4031    2.6976    0.3464 H   0  0  0  0  0  0  0  0  0  0  0  0
   -3.9540   -1.2666    0.1810 H   0  0  0  0  0  0  0  0  0  0  0  0
   -2.2370   -1.7890    0.5659 H   0  0  0  0  0  0  0  0  0  0  0  0
   -3.1135   -0.5312    1.5761 H   0  0  0  0  0  0  0  0  0  0  0  0
  1  2  1  0
  2  3  1  0
  3  4  1  0
  2  5  1  0
  5  6  1  0
  6  7  1  0
  7  8  2  0
  8  9  1  0
  9 10  2  0
 10 11  1  0
 10 12  1  0
 12 13  1  0
 12  7  1  0
  1 14  1  0
  1 15  1  0
  1 16  1  0
  2 17  1  1
  3 18  1  0
  3 19  1  0
  4 20  1  0
  4 21  1  0
  5 22  1  0
  6 23  1  0
  6 24  1  0
 11 25  1  0
 13 26  1  0
 13 27  1  0
 13 28  1  0
M  END
$$$$

     RDKit          3D

 28 28  0  0  0  0  0  0  0  0999 V2000
   -2.4322   -0.4665   -1.1828 C   0  0  0  0  0  0  0  0  0  0  0  0
   -1.6933    0.5610   -0.3405 C   0  0  1  0  0  0  0  0  0  0  0  0
   -2.3584    0.6038    0.9951 C   0  0  0  0  0  0  0  0  0  0  0  0
   -3.7434    0.9918    0.8042 N   0  0  0  0  0  0  0  0  0  0  0  0
   -0.3215    0.2152   -0.3610 N   0  0  0  0  0  0  0  0  0  0  0  0
    0.0766   -1.0082    0.2190 C   0  0  0  0  0  0  0  0  0  0  0  0
    1.5473   -1.1736    0.0197 C   0  0  0  0  0  0  0  0  0  0  0  0
    2.1493   -2.2778   -0.4544 N   0  0  0  0  0  0  0  0  0  0  0  0
    3.4582   -2.0929   -0.5127 N   0  0  0  0  0  0  0  0  0  0  0  0
    3.7315   -0.8600   -0.0742 C   0  0  0  0  0  0  0  0  0  0  0  0
    4.9946   -0.2733    0.0257 O   0  0  0  0  0  0  0  0  0  0  0  0
    2.5386   -0.3041    0.2517 N   0  0  0  0  0  0  0  0  0  0  0  0
    2.3561    1.0401    0.7831 C   0  0  0  0  0  0  0  0  0  0  0  0
   -3.0451    0.0317   -1.9775 H   0  0  0  0  0  0  0  0  0  0  0  0
   -3.1176   -1.0994   -0.6025 H   0  0  0  0  0  0  0  0  0  0  0  0
   -1.7202   -1.1801   -1.6810 H   0  0  0  0  0  0  0  0  0  0  0  0
   -1.8295    1.5525   -0.8384 H   0  0  0  0  0  0  0  0  0  0  0  0
   -1.9357    1.2963    1.7271 H   0  0  0  0  0  0  0  0  0  0  0  0
   -2.3962   -0.4519    1.3859 H   0  0  0  0  0  0  0  0  0  0  0  0
   -4.2868    0.3506    0.2146 H   0  0  0  0  0  0  0  0  0  0  0  0
   -3.7564    1.9678    0.4362 H   0  0  0  0  0  0  0  0  0  0  0  0
    0.2361    0.5962   -1.1327 H   0  0  0  0  0  0  0  0  0  0  0  0
   -0.0493   -1.0488    1.3265 H   0  0  0  0  0  0  0  0  0  0  0  0
   -0.5103   -1.8351   -0.1847 H   0  0  0  0  0  0  0  0  0  0  0  0
    5.1361    0.6988   -0.2466 H   0  0  0  0  0  0  0  0  0  0  0  0
    3.2148    1.2937    1.4459 H   0  0  0  0  0  0  0  0  0  0  0  0
    1.4013    1.0783    1.3370 H   0  0  0  0  0  0  0  0  0  0  0  0
    2.3553    1.7938   -0.0461 H   0  0  0  0  0  0  0  0  0  0  0  0
  1  2  1  0
  2  3  1  0
  3  4  1  0
  2  5  1  0
  5  6  1  0
  6  7  1  0
  7  8  2  0
  8  9  1  0
  9 10  2  0
 10 11  1  0
 10 12  1  0
 12 13  1  0
 12  7  1  0
  1 14  1  0
  1 15  1  0
  1 16  1  0
  2 17  1  6
  3 18  1  0
  3 19  1  0
  4 20  1  0
  4 21  1  0
  5 22  1  0
  6 23  1  0
  6 24  1  0
 11 25  1  0
 13 26  1  0
 13 27  1  0
 13 28  1  0
M  END
$$$$

     RDKit          3D

 28 28  0  0  0  0  0  0  0  0999 V2000
   -2.9486    1.6946    0.5175 C   0  0  0  0  0  0  0  0  0  0  0  0
   -2.1680    0.3694    0.5611 C   0  0  1  0  0  0  0  0  0  0  0  0
   -2.9280   -0.5824   -0.3065 C   0  0  0  0  0  0  0  0  0  0  0  0
   -2.3651   -1.8985   -0.4042 N   0  0  0  0  0  0  0  0  0  0  0  0
   -0.8698    0.6659    0.1154 N   0  0  0  0  0  0  0  0  0  0  0  0
    0.2146   -0.1061    0.5749 C   0  0  0  0  0  0  0  0  0  0  0  0
    1.4646    0.4502   -0.0630 C   0  0  0  0  0  0  0  0  0  0  0  0
    1.5704    1.6494   -0.6696 N   0  0  0  0  0  0  0  0  0  0  0  0
    2.7974    1.8041   -1.1185 N   0  0  0  0  0  0  0  0  0  0  0  0
    3.4730    0.6885   -0.7913 C   0  0  0  0  0  0  0  0  0  0  0  0
    4.8170    0.5258   -1.1251 O   0  0  0  0  0  0  0  0  0  0  0  0
    2.6521   -0.1471   -0.1399 N   0  0  0  0  0  0  0  0  0  0  0  0
    3.0418   -1.4466    0.3611 C   0  0  0  0  0  0  0  0  0  0  0  0
   -3.8349    1.6427    1.1536 H   0  0  0  0  0  0  0  0  0  0  0  0
   -3.2879    1.7898   -0.5502 H   0  0  0  0  0  0  0  0  0  0  0  0
   -2.2836    2.5429    0.7379 H   0  0  0  0  0  0  0  0  0  0  0  0
   -2.1244    0.0565    1.6275 H   0  0  0  0  0  0  0  0  0  0  0  0
   -2.9534   -0.1374   -1.3394 H   0  0  0  0  0  0  0  0  0  0  0  0
   -3.9641   -0.6600    0.0844 H   0  0  0  0  0  0  0  0  0  0  0  0
   -1.7620   -2.0063   -1.2677 H   0  0  0  0  0  0  0  0  0  0  0  0
   -3.1720   -2.5721   -0.5569 H   0  0  0  0  0  0  0  0  0  0  0  0
   -0.7731    1.1060   -0.8121 H   0  0  0  0  0  0  0  0  0  0  0  0
    0.1188   -1.1850    0.4132 H   0  0  0  0  0  0  0  0  0  0  0  0
    0.3464    0.0830    1.6624 H   0  0  0  0  0  0  0  0  0  0  0  0
    5.5524    0.9800   -0.6022 H   0  0  0  0  0  0  0  0  0  0  0  0
    2.1380   -2.0861    0.4230 H   0  0  0  0  0  0  0  0  0  0  0  0
    3.7787   -1.8727   -0.3611 H   0  0  0  0  0  0  0  0  0  0  0  0
    3.4698   -1.3486    1.3696 H   0  0  0  0  0  0  0  0  0  0  0  0
  1  2  1  0
  2  3  1  0
  3  4  1  0
  2  5  1  0
  5  6  1  0
  6  7  1  0
  7  8  2  0
  8  9  1  0
  9 10  2  0
 10 11  1  0
 10 12  1  0
 12 13  1  0
 12  7  1  0
  1 14  1  0
  1 15  1  0
  1 16  1  0
  2 17  1  1
  3 18  1  0
  3 19  1  0
  4 20  1  0
  4 21  1  0
  5 22  1  0
  6 23  1  0
  6 24  1  0
 11 25  1  0
 13 26  1  0
 13 27  1  0
 13 28  1  0
M  END
$$$$

     RDKit          3D

 28 28  0  0  0  0  0  0  0  0999 V2000
   -2.3441    1.4758    0.5327 C   0  0  0  0  0  0  0  0  0  0  0  0
   -1.7132    0.1260    0.8021 C   0  0  1  0  0  0  0  0  0  0  0  0
   -2.4093   -0.8925   -0.0426 C   0  0  0  0  0  0  0  0  0  0  0  0
   -3.8233   -0.8645    0.3611 N   0  0  0  0  0  0  0  0  0  0  0  0
   -0.2769    0.1616    0.5963 N   0  0  0  0  0  0  0  0  0  0  0  0
    0.0726    0.4692   -0.7609 C   0  0  0  0  0  0  0  0  0  0  0  0
    1.4835    0.5177   -1.0758 C   0  0  0  0  0  0  0  0  0  0  0  0
    2.0047    1.2200   -2.1250 N   0  0  0  0  0  0  0  0  0  0  0  0
    3.3001    1.0506   -2.1321 N   0  0  0  0  0  0  0  0  0  0  0  0
    3.6664    0.2543   -1.1174 C   0  0  0  0  0  0  0  0  0  0  0  0
    4.9590   -0.1436   -0.8137 O   0  0  0  0  0  0  0  0  0  0  0  0
    2.5008   -0.0655   -0.4699 N   0  0  0  0  0  0  0  0  0  0  0  0
    2.5077   -0.9121    0.6701 C   0  0  0  0  0  0  0  0  0  0  0  0
   -2.7927    1.4903   -0.4659 H   0  0  0  0  0  0  0  0  0  0  0  0
   -1.5667    2.2552    0.6279 H   0  0  0  0  0  0  0  0  0  0  0  0
   -3.1428    1.6965    1.2855 H   0  0  0  0  0  0  0  0  0  0  0  0
   -1.8734   -0.1289    1.8701 H   0  0  0  0  0  0  0  0  0  0  0  0
   -1.9779   -1.8906    0.1085 H   0  0  0  0  0  0  0  0  0  0  0  0
   -2.4003   -0.5754   -1.1132 H   0  0  0  0  0  0  0  0  0  0  0  0
   -3.9352   -0.9557    1.3824 H   0  0  0  0  0  0  0  0  0  0  0  0
   -4.3171   -1.6748   -0.0769 H   0  0  0  0  0  0  0  0  0  0  0  0
    0.0858    0.9026    1.2466 H   0  0  0  0  0  0  0  0  0  0  0  0
   -0.4891    1.4016   -1.0479 H   0  0  0  0  0  0  0  0  0  0  0  0
   -0.3991   -0.3280   -1.4078 H   0  0  0  0  0  0  0  0  0  0  0  0
    5.1909   -0.9428   -0.2533 H   0  0  0  0  0  0  0  0  0  0  0  0
    2.4654   -1.9870    0.3255 H   0  0  0  0  0  0  0  0  0  0  0  0
    1.7354   -0.7968    1.4102 H   0  0  0  0  0  0  0  0  0  0  0  0
    3.4886   -0.8634    1.2286 H   0  0  0  0  0  0  0  0  0  0  0  0
  1  2  1  0
  2  3  1  0
  3  4  1  0
  2  5  1  0
  5  6  1  0
  6  7  1  0
  7  8  2  0
  8  9  1  0
  9 10  2  0
 10 11  1  0
 10 12  1  0
 12 13  1  0
 12  7  1  0
  1 14  1  0
  1 15  1  0
  1 16  1  0
  2 17  1  1
  3 18  1  0
  3 19  1  0
  4 20  1  0
  4 21  1  0
  5 22  1  0
  6 23  1  0
  6 24  1  0
 11 25  1  0
 13 26  1  0
 13 27  1  0
 13 28  1  0
M  END
$$$$

     RDKit          3D

 28 28  0  0  0  0  0  0  0  0999 V2000
    2.7581   -1.1155   -0.2853 C   0  0  0  0  0  0  0  0  0  0  0  0
    1.8659   -0.1047    0.2941 C   0  0  1  0  0  0  0  0  0  0  0  0
    2.4605    1.1428    0.8636 C   0  0  0  0  0  0  0  0  0  0  0  0
    3.2283    1.9075   -0.1175 N   0  0  0  0  0  0  0  0  0  0  0  0
    0.6914    0.1385   -0.4637 N   0  0  0  0  0  0  0  0  0  0  0  0
   -0.1539   -1.0453   -0.5877 C   0  0  0  0  0  0  0  0  0  0  0  0
   -1.4091   -0.7127    0.1598 C   0  0  0  0  0  0  0  0  0  0  0  0
   -1.3905   -0.8759    1.5238 N   0  0  0  0  0  0  0  0  0  0  0  0
   -2.5746   -0.5365    1.9482 N   0  0  0  0  0  0  0  0  0  0  0  0
   -3.3276   -0.1722    0.8905 C   0  0  0  0  0  0  0  0  0  0  0  0
   -4.6385    0.2458    0.9269 O   0  0  0  0  0  0  0  0  0  0  0  0
   -2.5810   -0.2865   -0.2277 N   0  0  0  0  0  0  0  0  0  0  0  0
   -3.0352    0.0121   -1.5630 C   0  0  0  0  0  0  0  0  0  0  0  0
    3.5095   -0.7501   -1.0336 H   0  0  0  0  0  0  0  0  0  0  0  0
    3.2352   -1.7460    0.4550 H   0  0  0  0  0  0  0  0  0  0  0  0
    2.1244   -1.8286   -0.9355 H   0  0  0  0  0  0  0  0  0  0  0  0
    1.4180   -0.6433    1.2583 H   0  0  0  0  0  0  0  0  0  0  0  0
    2.9929    1.0354    1.8210 H   0  0  0  0  0  0  0  0  0  0  0  0
    1.6101    1.8589    1.1149 H   0  0  0  0  0  0  0  0  0  0  0  0
    3.3959    2.8600    0.3252 H   0  0  0  0  0  0  0  0  0  0  0  0
    4.1727    1.4823   -0.2961 H   0  0  0  0  0  0  0  0  0  0  0  0
    0.1690    0.9622   -0.1991 H   0  0  0  0  0  0  0  0  0  0  0  0
   -0.3339   -1.2114   -1.6699 H   0  0  0  0  0  0  0  0  0  0  0  0
    0.2782   -1.9280   -0.1281 H   0  0  0  0  0  0  0  0  0  0  0  0
   -4.9383    0.9969    1.5745 H   0  0  0  0  0  0  0  0  0  0  0  0
   -2.2686    0.5349   -2.1435 H   0  0  0  0  0  0  0  0  0  0  0  0
   -3.9077    0.7064   -1.4578 H   0  0  0  0  0  0  0  0  0  0  0  0
   -3.3512   -0.9271   -2.0476 H   0  0  0  0  0  0  0  0  0  0  0  0
  1  2  1  0
  2  3  1  0
  3  4  1  0
  2  5  1  0
  5  6  1  0
  6  7  1  0
  7  8  2  0
  8  9  1  0
  9 10  2  0
 10 11  1  0
 10 12  1  0
 12 13  1  0
 12  7  1  0
  1 14  1  0
  1 15  1  0
  1 16  1  0
  2 17  1  1
  3 18  1  0
  3 19  1  0
  4 20  1  0
  4 21  1  0
  5 22  1  0
  6 23  1  0
  6 24  1  0
 11 25  1  0
 13 26  1  0
 13 27  1  0
 13 28  1  0
M  END
$$$$

     RDKit          3D

 28 28  0  0  0  0  0  0  0  0999 V2000
   -2.5372   -1.3600   -0.3396 C   0  0  0  0  0  0  0  0  0  0  0  0
   -1.8796   -0.0437   -0.0905 C   0  0  1  0  0  0  0  0  0  0  0  0
   -2.6490    0.7997    0.9023 C   0  0  0  0  0  0  0  0  0  0  0  0
   -3.9661    1.0585    0.4031 N   0  0  0  0  0  0  0  0  0  0  0  0
   -0.5056   -0.1537    0.3350 N   0  0  0  0  0  0  0  0  0  0  0  0
    0.3663   -0.7489   -0.6254 C   0  0  0  0  0  0  0  0  0  0  0  0
    1.7385   -0.7767   -0.0451 C   0  0  0  0  0  0  0  0  0  0  0  0
    2.1995   -1.7253    0.7635 N   0  0  0  0  0  0  0  0  0  0  0  0
    3.4553   -1.4476    1.0930 N   0  0  0  0  0  0  0  0  0  0  0  0
    3.7910   -0.2979    0.4766 C   0  0  0  0  0  0  0  0  0  0  0  0
    5.0476    0.3211    0.5821 O   0  0  0  0  0  0  0  0  0  0  0  0
    2.7320    0.1072   -0.2196 N   0  0  0  0  0  0  0  0  0  0  0  0
    2.6930    1.3148   -1.0247 C   0  0  0  0  0  0  0  0  0  0  0  0
   -3.0051   -1.3937   -1.3467 H   0  0  0  0  0  0  0  0  0  0  0  0
   -1.8039   -2.1832   -0.2649 H   0  0  0  0  0  0  0  0  0  0  0  0
   -3.3288   -1.5955    0.4202 H   0  0  0  0  0  0  0  0  0  0  0  0
   -1.8791    0.5212   -1.0477 H   0  0  0  0  0  0  0  0  0  0  0  0
   -2.6624    0.3196    1.9097 H   0  0  0  0  0  0  0  0  0  0  0  0
   -2.1064    1.7553    1.0101 H   0  0  0  0  0  0  0  0  0  0  0  0
   -4.5202    0.1924    0.2488 H   0  0  0  0  0  0  0  0  0  0  0  0
   -4.4604    1.7727    0.9679 H   0  0  0  0  0  0  0  0  0  0  0  0
   -0.4000   -0.5472    1.2819 H   0  0  0  0  0  0  0  0  0  0  0  0
    0.3655   -0.1634   -1.5642 H   0  0  0  0  0  0  0  0  0  0  0  0
    0.0752   -1.7733   -0.8709 H   0  0  0  0  0  0  0  0  0  0  0  0
    5.0656    1.2086    1.0686 H   0  0  0  0  0  0  0  0  0  0  0  0
    3.2866    2.1204   -0.5428 H   0  0  0  0  0  0  0  0  0  0  0  0
    1.6657    1.6520   -1.2380 H   0  0  0  0  0  0  0  0  0  0  0  0
    3.2220    1.0666   -1.9719 H   0  0  0  0  0  0  0  0  0  0  0  0
  1  2  1  0
  2  3  1  0
  3  4  1  0
  2  5  1  0
  5  6  1  0
  6  7  1  0
  7  8  2  0
  8  9  1  0
  9 10  2  0
 10 11  1  0
 10 12  1  0
 12 13  1  0
 12  7  1  0
  1 14  1  0
  1 15  1  0
  1 16  1  0
  2 17  1  6
  3 18  1  0
  3 19  1  0
  4 20  1  0
  4 21  1  0
  5 22  1  0
  6 23  1  0
  6 24  1  0
 11 25  1  0
 13 26  1  0
 13 27  1  0
 13 28  1  0
M  END
$$$$
