
     RDKit          3D

 25 26  0  0  0  0  0  0  0  0999 V2000
    2.7965   -0.9923    0.4446 O   0  0  0  0  0  0  0  0  0  0  0  0
    3.3998    0.0731    0.1744 C   0  0  0  0  0  0  0  0  0  0  0  0
    4.7822    0.0380   -0.0323 O   0  0  0  0  0  0  0  0  0  0  0  0
    2.6446    1.3455    0.0788 C   0  0  0  0  0  0  0  0  0  0  0  0
    1.2496    1.0887    0.3228 N   0  0  0  0  0  0  0  0  0  0  0  0
    0.5467    0.2047   -0.5327 C   0  0  0  0  0  0  0  0  0  0  0  0
    1.1599   -0.3355   -1.4897 O   0  0  0  0  0  0  0  0  0  0  0  0
   -0.8818   -0.1257   -0.3673 C   0  0  2  0  0  0  0  0  0  0  0  0
   -1.9208    0.9351   -0.4388 C   0  0  0  0  0  0  0  0  0  0  0  0
   -3.0775    0.4953    0.2753 N   0  0  0  0  0  0  0  0  0  0  0  0
   -2.7328   -0.6554    1.0490 C   0  0  0  0  0  0  0  0  0  0  0  0
   -1.3519   -1.0847    0.6439 C   0  0  1  0  0  0  0  0  0  0  0  0
   -1.2303   -1.5468   -0.7787 C   0  0  0  0  0  0  0  0  0  0  0  0
    5.2386   -0.7893   -0.3929 H   0  0  0  0  0  0  0  0  0  0  0  0
    2.7236    1.6643   -1.0020 H   0  0  0  0  0  0  0  0  0  0  0  0
    3.0589    2.1207    0.7457 H   0  0  0  0  0  0  0  0  0  0  0  0
    0.7042    1.5187    1.1062 H   0  0  0  0  0  0  0  0  0  0  0  0
   -1.5050    1.8470    0.0621 H   0  0  0  0  0  0  0  0  0  0  0  0
   -2.1450    1.2663   -1.4845 H   0  0  0  0  0  0  0  0  0  0  0  0
   -3.9099    0.3696   -0.3316 H   0  0  0  0  0  0  0  0  0  0  0  0
   -3.4253   -1.4910    0.7461 H   0  0  0  0  0  0  0  0  0  0  0  0
   -2.8493   -0.5122    2.1438 H   0  0  0  0  0  0  0  0  0  0  0  0
   -0.7027   -1.4954    1.4328 H   0  0  0  0  0  0  0  0  0  0  0  0
   -2.1412   -1.6819   -1.3956 H   0  0  0  0  0  0  0  0  0  0  0  0
   -0.4311   -2.2566   -0.9795 H   0  0  0  0  0  0  0  0  0  0  0  0
  1  2  2  0
  2  3  1  0
  2  4  1  0
  4  5  1  0
  5  6  1  0
  6  7  2  0
  8  6  1  1
  8  9  1  0
  9 10  1  0
 10 11  1  0
 11 12  1  0
 12 13  1  0
 12  8  1  0
 13  8  1  0
  3 14  1  0
  4 15  1  0
  4 16  1  0
  5 17  1  0
  9 18  1  0
  9 19  1  0
 10 20  1  0
 11 21  1  0
 11 22  1  0
 12 23  1  1
 13 24  1  0
 13 25  1  0
M  END
$$$$

     RDKit          3D

 25 26  0  0  0  0  0  0  0  0999 V2000
    3.0573   -0.9384    0.9421 O   0  0  0  0  0  0  0  0  0  0  0  0
    3.5290   -0.2628    0.0011 C   0  0  0  0  0  0  0  0  0  0  0  0
    4.8973   -0.0362   -0.0431 O   0  0  0  0  0  0  0  0  0  0  0  0
    2.7014    0.3077   -1.0684 C   0  0  0  0  0  0  0  0  0  0  0  0
    1.2941    0.0010   -0.9090 N   0  0  0  0  0  0  0  0  0  0  0  0
    0.5402    0.3945    0.2300 C   0  0  0  0  0  0  0  0  0  0  0  0
    1.1436    1.0414    1.1351 O   0  0  0  0  0  0  0  0  0  0  0  0
   -0.8800    0.1013    0.4216 C   0  0  2  0  0  0  0  0  0  0  0  0
   -1.3847   -1.3057    0.4631 C   0  0  0  0  0  0  0  0  0  0  0  0
   -2.8206   -1.1543    0.4701 N   0  0  0  0  0  0  0  0  0  0  0  0
   -3.0796   -0.0722   -0.4391 C   0  0  0  0  0  0  0  0  0  0  0  0
   -1.9608    0.8966   -0.1836 C   0  0  1  0  0  0  0  0  0  0  0  0
   -1.6440    1.1683    1.2311 C   0  0  0  0  0  0  0  0  0  0  0  0
    5.5711   -0.6944    0.3777 H   0  0  0  0  0  0  0  0  0  0  0  0
    2.8672    1.4194   -1.1022 H   0  0  0  0  0  0  0  0  0  0  0  0
    3.0107   -0.0666   -2.0656 H   0  0  0  0  0  0  0  0  0  0  0  0
    0.7514   -0.5387   -1.6434 H   0  0  0  0  0  0  0  0  0  0  0  0
   -1.0008   -1.8839    1.3287 H   0  0  0  0  0  0  0  0  0  0  0  0
   -1.1201   -1.8141   -0.4924 H   0  0  0  0  0  0  0  0  0  0  0  0
   -3.2222   -0.9722    1.4001 H   0  0  0  0  0  0  0  0  0  0  0  0
   -4.0863    0.3651   -0.2356 H   0  0  0  0  0  0  0  0  0  0  0  0
   -3.0966   -0.4520   -1.4824 H   0  0  0  0  0  0  0  0  0  0  0  0
   -1.7437    1.6726   -0.9342 H   0  0  0  0  0  0  0  0  0  0  0  0
   -2.2032    0.7229    2.0685 H   0  0  0  0  0  0  0  0  0  0  0  0
   -1.1207    2.1008    1.4532 H   0  0  0  0  0  0  0  0  0  0  0  0
  1  2  2  0
  2  3  1  0
  2  4  1  0
  4  5  1  0
  5  6  1  0
  6  7  2  0
  8  6  1  6
  8  9  1  0
  9 10  1  0
 10 11  1  0
 11 12  1  0
 12 13  1  0
 12  8  1  0
 13  8  1  0
  3 14  1  0
  4 15  1  0
  4 16  1  0
  5 17  1  0
  9 18  1  0
  9 19  1  0
 10 20  1  0
 11 21  1  0
 11 22  1  0
 12 23  1  6
 13 24  1  0
 13 25  1  0
M  END
$$$$

     RDKit          3D

 25 26  0  0  0  0  0  0  0  0999 V2000
    4.6922   -1.0955   -0.5170 O   0  0  0  0  0  0  0  0  0  0  0  0
    3.7097   -0.3547   -0.1290 C   0  0  0  0  0  0  0  0  0  0  0  0
    3.8075    0.9708   -0.4273 O   0  0  0  0  0  0  0  0  0  0  0  0
    2.5786   -0.9813    0.5539 C   0  0  0  0  0  0  0  0  0  0  0  0
    1.3237   -0.5558   -0.0684 N   0  0  0  0  0  0  0  0  0  0  0  0
    0.3921    0.2377    0.6638 C   0  0  0  0  0  0  0  0  0  0  0  0
    0.6930    0.6629    1.7849 O   0  0  0  0  0  0  0  0  0  0  0  0
   -0.9019    0.5587    0.0112 C   0  0  2  0  0  0  0  0  0  0  0  0
   -2.0074    1.1900    0.7782 C   0  0  0  0  0  0  0  0  0  0  0  0
   -3.2143    0.5142    0.3220 N   0  0  0  0  0  0  0  0  0  0  0  0
   -2.7950   -0.7815   -0.1298 C   0  0  0  0  0  0  0  0  0  0  0  0
   -1.4581   -0.6165   -0.7540 C   0  0  1  0  0  0  0  0  0  0  0  0
   -1.0418    0.5975   -1.4797 C   0  0  0  0  0  0  0  0  0  0  0  0
    4.5845    1.4795   -0.8023 H   0  0  0  0  0  0  0  0  0  0  0  0
    2.6411   -2.0999    0.2544 H   0  0  0  0  0  0  0  0  0  0  0  0
    2.5693   -0.9498    1.6407 H   0  0  0  0  0  0  0  0  0  0  0  0
    1.1332   -0.8586   -1.0335 H   0  0  0  0  0  0  0  0  0  0  0  0
   -2.0956    2.2473    0.4618 H   0  0  0  0  0  0  0  0  0  0  0  0
   -1.9083    1.1515    1.8769 H   0  0  0  0  0  0  0  0  0  0  0  0
   -3.6577    1.0150   -0.4694 H   0  0  0  0  0  0  0  0  0  0  0  0
   -3.5591   -1.2192   -0.8239 H   0  0  0  0  0  0  0  0  0  0  0  0
   -2.7256   -1.4324    0.7869 H   0  0  0  0  0  0  0  0  0  0  0  0
   -0.8548   -1.5437   -0.8310 H   0  0  0  0  0  0  0  0  0  0  0  0
   -0.0881    0.5745   -2.0261 H   0  0  0  0  0  0  0  0  0  0  0  0
   -1.8172    1.2895   -1.9059 H   0  0  0  0  0  0  0  0  0  0  0  0
  1  2  2  0
  2  3  1  0
  2  4  1  0
  4  5  1  0
  5  6  1  0
  6  7  2  0
  8  6  1  6
  8  9  1  0
  9 10  1  0
 10 11  1  0
 11 12  1  0
 12 13  1  0
 12  8  1  0
 13  8  1  0
  3 14  1  0
  4 15  1  0
  4 16  1  0
  5 17  1  0
  9 18  1  0
  9 19  1  0
 10 20  1  0
 11 21  1  0
 11 22  1  0
 12 23  1  6
 13 24  1  0
 13 25  1  0
M  END
$$$$

     RDKit          3D

 25 26  0  0  0  0  0  0  0  0999 V2000
    3.0142    0.5480    1.7843 O   0  0  0  0  0  0  0  0  0  0  0  0
    3.5211    0.1595    0.7142 C   0  0  0  0  0  0  0  0  0  0  0  0
    4.9059    0.0584    0.6410 O   0  0  0  0  0  0  0  0  0  0  0  0
    2.7150   -0.1923   -0.4621 C   0  0  0  0  0  0  0  0  0  0  0  0
    1.3001   -0.0020   -0.1286 N   0  0  0  0  0  0  0  0  0  0  0  0
    0.2620   -0.2604   -1.0659 C   0  0  0  0  0  0  0  0  0  0  0  0
    0.5531   -0.6707   -2.2365 O   0  0  0  0  0  0  0  0  0  0  0  0
   -1.1494   -0.0592   -0.6992 C   0  0  2  0  0  0  0  0  0  0  0  0
   -1.6260    1.3049   -0.2759 C   0  0  0  0  0  0  0  0  0  0  0  0
   -1.9385    1.1321    1.1301 N   0  0  0  0  0  0  0  0  0  0  0  0
   -2.7145   -0.1116    1.0868 C   0  0  0  0  0  0  0  0  0  0  0  0
   -1.8223   -0.9913    0.2564 C   0  0  1  0  0  0  0  0  0  0  0  0
   -2.1446   -1.0731   -1.2137 C   0  0  0  0  0  0  0  0  0  0  0  0
    5.5202    0.6857    1.1498 H   0  0  0  0  0  0  0  0  0  0  0  0
    2.9865    0.5034   -1.2886 H   0  0  0  0  0  0  0  0  0  0  0  0
    2.8986   -1.2340   -0.7617 H   0  0  0  0  0  0  0  0  0  0  0  0
    1.0118    0.3322    0.8167 H   0  0  0  0  0  0  0  0  0  0  0  0
   -2.6009    1.5542   -0.7745 H   0  0  0  0  0  0  0  0  0  0  0  0
   -0.9070    2.1028   -0.4656 H   0  0  0  0  0  0  0  0  0  0  0  0
   -1.1083    0.9958    1.7254 H   0  0  0  0  0  0  0  0  0  0  0  0
   -3.6278    0.1331    0.5012 H   0  0  0  0  0  0  0  0  0  0  0  0
   -2.9364   -0.4928    2.0807 H   0  0  0  0  0  0  0  0  0  0  0  0
   -1.2405   -1.7899    0.7381 H   0  0  0  0  0  0  0  0  0  0  0  0
   -1.7199   -1.9298   -1.7531 H   0  0  0  0  0  0  0  0  0  0  0  0
   -3.1525   -0.7030   -1.4993 H   0  0  0  0  0  0  0  0  0  0  0  0
  1  2  2  0
  2  3  1  0
  2  4  1  0
  4  5  1  0
  5  6  1  0
  6  7  2  0
  8  6  1  6
  8  9  1  0
  9 10  1  0
 10 11  1  0
 11 12  1  0
 12 13  1  0
 12  8  1  0
 13  8  1  0
  3 14  1  0
  4 15  1  0
  4 16  1  0
  5 17  1  0
  9 18  1  0
  9 19  1  0
 10 20  1  0
 11 21  1  0
 11 22  1  0
 12 23  1  1
 13 24  1  0
 13 25  1  0
M  END
$$$$

     RDKit          3D

 25 26  0  0  0  0  0  0  0  0999 V2000
    2.8055    1.0433   -0.0551 O   0  0  0  0  0  0  0  0  0  0  0  0
    3.3524    0.0038   -0.4717 C   0  0  0  0  0  0  0  0  0  0  0  0
    4.7528   -0.1227   -0.3849 O   0  0  0  0  0  0  0  0  0  0  0  0
    2.5450   -1.0901   -1.0528 C   0  0  0  0  0  0  0  0  0  0  0  0
    1.1600   -0.7244   -1.0135 N   0  0  0  0  0  0  0  0  0  0  0  0
    0.5422   -0.4674    0.2308 C   0  0  0  0  0  0  0  0  0  0  0  0
    1.2361   -0.5713    1.2752 O   0  0  0  0  0  0  0  0  0  0  0  0
   -0.8752   -0.0824    0.3855 C   0  0  2  0  0  0  0  0  0  0  0  0
   -1.9447   -1.0081   -0.0883 C   0  0  0  0  0  0  0  0  0  0  0  0
   -3.1408   -0.1983   -0.0043 N   0  0  0  0  0  0  0  0  0  0  0  0
   -2.7473    1.1592   -0.3185 C   0  0  0  0  0  0  0  0  0  0  0  0
   -1.3331    1.3061    0.2009 C   0  0  1  0  0  0  0  0  0  0  0  0
   -1.1537    0.7930    1.6089 C   0  0  0  0  0  0  0  0  0  0  0  0
    5.1942    0.3375    0.4265 H   0  0  0  0  0  0  0  0  0  0  0  0
    2.6624   -1.9657   -0.3494 H   0  0  0  0  0  0  0  0  0  0  0  0
    2.8932   -1.3865   -2.0606 H   0  0  0  0  0  0  0  0  0  0  0  0
    0.5565   -0.6322   -1.8726 H   0  0  0  0  0  0  0  0  0  0  0  0
   -1.7568   -1.2975   -1.1314 H   0  0  0  0  0  0  0  0  0  0  0  0
   -1.9749   -1.8772    0.6129 H   0  0  0  0  0  0  0  0  0  0  0  0
   -3.4905   -0.2770    0.9862 H   0  0  0  0  0  0  0  0  0  0  0  0
   -3.4099    1.8311    0.2949 H   0  0  0  0  0  0  0  0  0  0  0  0
   -2.8278    1.3659   -1.3903 H   0  0  0  0  0  0  0  0  0  0  0  0
   -0.6948    2.1020   -0.1836 H   0  0  0  0  0  0  0  0  0  0  0  0
   -2.0514    0.5377    2.2123 H   0  0  0  0  0  0  0  0  0  0  0  0
   -0.2993    1.2213    2.1430 H   0  0  0  0  0  0  0  0  0  0  0  0
  1  2  2  0
  2  3  1  0
  2  4  1  0
  4  5  1  0
  5  6  1  0
  6  7  2  0
  8  6  1  6
  8  9  1  0
  9 10  1  0
 10 11  1  0
 11 12  1  0
 12 13  1  0
 12  8  1  0
 13  8  1  0
  3 14  1  0
  4 15  1  0
  4 16  1  0
  5 17  1  0
  9 18  1  0
  9 19  1  0
 10 20  1  0
 11 21  1  0
 11 22  1  0
 12 23  1  6
 13 24  1  0
 13 25  1  0
M  END
$$$$

     RDKit          3D

 25 26  0  0  0  0  0  0  0  0999 V2000
    3.5243    0.6666   -1.7520 O   0  0  0  0  0  0  0  0  0  0  0  0
    3.8219    0.4320   -0.5366 C   0  0  0  0  0  0  0  0  0  0  0  0
    5.1474    0.5368   -0.1865 O   0  0  0  0  0  0  0  0  0  0  0  0
    2.7555    0.0659    0.4237 C   0  0  0  0  0  0  0  0  0  0  0  0
    1.4796    0.0413   -0.2493 N   0  0  0  0  0  0  0  0  0  0  0  0
    0.2810   -0.2842    0.4510 C   0  0  0  0  0  0  0  0  0  0  0  0
    0.3969   -0.5463    1.6764 O   0  0  0  0  0  0  0  0  0  0  0  0
   -0.9871   -0.2924   -0.2892 C   0  0  2  0  0  0  0  0  0  0  0  0
   -1.4053    0.9907   -0.9353 C   0  0  0  0  0  0  0  0  0  0  0  0
   -2.7920    0.8812   -1.2696 N   0  0  0  0  0  0  0  0  0  0  0  0
   -3.3726   -0.0946   -0.3976 C   0  0  0  0  0  0  0  0  0  0  0  0
   -2.2174   -0.8945    0.2019 C   0  0  1  0  0  0  0  0  0  0  0  0
   -1.3909   -1.6055   -0.8709 C   0  0  0  0  0  0  0  0  0  0  0  0
    5.8520    1.0203   -0.7273 H   0  0  0  0  0  0  0  0  0  0  0  0
    2.7810    0.8511    1.2294 H   0  0  0  0  0  0  0  0  0  0  0  0
    2.9940   -0.8971    0.9165 H   0  0  0  0  0  0  0  0  0  0  0  0
    1.4223    0.2653   -1.2711 H   0  0  0  0  0  0  0  0  0  0  0  0
   -0.7616    1.2870   -1.7842 H   0  0  0  0  0  0  0  0  0  0  0  0
   -1.3069    1.8026   -0.1708 H   0  0  0  0  0  0  0  0  0  0  0  0
   -3.2449    1.8335   -1.1660 H   0  0  0  0  0  0  0  0  0  0  0  0
   -4.0227    0.3305    0.3854 H   0  0  0  0  0  0  0  0  0  0  0  0
   -3.9261   -0.8282   -1.0548 H   0  0  0  0  0  0  0  0  0  0  0  0
   -2.3552   -1.3771    1.1680 H   0  0  0  0  0  0  0  0  0  0  0  0
   -1.7929   -1.6862   -1.8864 H   0  0  0  0  0  0  0  0  0  0  0  0
   -0.8800   -2.4988   -0.4996 H   0  0  0  0  0  0  0  0  0  0  0  0
  1  2  2  0
  2  3  1  0
  2  4  1  0
  4  5  1  0
  5  6  1  0
  6  7  2  0
  8  6  1  1
  8  9  1  0
  9 10  1  0
 10 11  1  0
 11 12  1  0
 12 13  1  0
 12  8  1  0
 13  8  1  0
  3 14  1  0
  4 15  1  0
  4 16  1  0
  5 17  1  0
  9 18  1  0
  9 19  1  0
 10 20  1  0
 11 21  1  0
 11 22  1  0
 12 23  1  1
 13 24  1  0
 13 25  1  0
M  END
$$$$

     RDKit          3D

 25 26  0  0  0  0  0  0  0  0999 V2000
    2.8018   -0.3374   -1.5575 O   0  0  0  0  0  0  0  0  0  0  0  0
    3.4366   -0.4417   -0.4769 C   0  0  0  0  0  0  0  0  0  0  0  0
    4.8200   -0.3752   -0.5458 O   0  0  0  0  0  0  0  0  0  0  0  0
    2.7757   -0.6300    0.8472 C   0  0  0  0  0  0  0  0  0  0  0  0
    1.3453   -0.6766    0.7359 N   0  0  0  0  0  0  0  0  0  0  0  0
    0.5737    0.3872    0.2135 C   0  0  0  0  0  0  0  0  0  0  0  0
    1.2271    1.4185   -0.1645 O   0  0  0  0  0  0  0  0  0  0  0  0
   -0.8775    0.3913    0.0788 C   0  0  2  0  0  0  0  0  0  0  0  0
   -1.7592    0.2337    1.2914 C   0  0  0  0  0  0  0  0  0  0  0  0
   -3.0956    0.1748    0.7628 N   0  0  0  0  0  0  0  0  0  0  0  0
   -2.9870   -0.6064   -0.4464 C   0  0  0  0  0  0  0  0  0  0  0  0
   -1.6207   -0.2284   -1.0045 C   0  0  1  0  0  0  0  0  0  0  0  0
   -1.4127    1.2728   -1.0638 C   0  0  0  0  0  0  0  0  0  0  0  0
    5.3105    0.1720   -1.2432 H   0  0  0  0  0  0  0  0  0  0  0  0
    3.1412   -1.6020    1.2372 H   0  0  0  0  0  0  0  0  0  0  0  0
    3.1280    0.1458    1.5600 H   0  0  0  0  0  0  0  0  0  0  0  0
    0.8031   -1.5337    1.0501 H   0  0  0  0  0  0  0  0  0  0  0  0
   -1.5921    1.0132    2.0337 H   0  0  0  0  0  0  0  0  0  0  0  0
   -1.5605   -0.7604    1.7760 H   0  0  0  0  0  0  0  0  0  0  0  0
   -3.5317    1.1011    0.6283 H   0  0  0  0  0  0  0  0  0  0  0  0
   -3.7316   -0.1690   -1.1712 H   0  0  0  0  0  0  0  0  0  0  0  0
   -3.1122   -1.6747   -0.2980 H   0  0  0  0  0  0  0  0  0  0  0  0
   -1.1767   -0.8578   -1.7919 H   0  0  0  0  0  0  0  0  0  0  0  0
   -2.2227    1.9519   -0.7665 H   0  0  0  0  0  0  0  0  0  0  0  0
   -0.6829    1.6310   -1.7974 H   0  0  0  0  0  0  0  0  0  0  0  0
  1  2  2  0
  2  3  1  0
  2  4  1  0
  4  5  1  0
  5  6  1  0
  6  7  2  0
  8  6  1  1
  8  9  1  0
  9 10  1  0
 10 11  1  0
 11 12  1  0
 12 13  1  0
 12  8  1  0
 13  8  1  0
  3 14  1  0
  4 15  1  0
  4 16  1  0
  5 17  1  0
  9 18  1  0
  9 19  1  0
 10 20  1  0
 11 21  1  0
 11 22  1  0
 12 23  1  6
 13 24  1  0
 13 25  1  0
M  END
$$$$

     RDKit          3D

 25 26  0  0  0  0  0  0  0  0999 V2000
    4.0840   -0.0242    1.0950 O   0  0  0  0  0  0  0  0  0  0  0  0
    3.4531    0.1319   -0.0294 C   0  0  0  0  0  0  0  0  0  0  0  0
    3.4645    1.3612   -0.6091 O   0  0  0  0  0  0  0  0  0  0  0  0
    2.7829   -1.0708   -0.5263 C   0  0  0  0  0  0  0  0  0  0  0  0
    1.3668   -0.9523   -0.5074 N   0  0  0  0  0  0  0  0  0  0  0  0
    0.5399   -0.4032    0.4646 C   0  0  0  0  0  0  0  0  0  0  0  0
    1.1577    0.0580    1.5381 O   0  0  0  0  0  0  0  0  0  0  0  0
   -0.9171   -0.3461    0.4165 C   0  0  2  0  0  0  0  0  0  0  0  0
   -1.6503   -0.7166   -0.8515 C   0  0  0  0  0  0  0  0  0  0  0  0
   -2.2660    0.5041   -1.3066 N   0  0  0  0  0  0  0  0  0  0  0  0
   -2.4017    1.3771   -0.1920 C   0  0  0  0  0  0  0  0  0  0  0  0
   -1.5795    0.8727    0.9486 C   0  0  1  0  0  0  0  0  0  0  0  0
   -1.7819   -0.3766    1.6639 C   0  0  0  0  0  0  0  0  0  0  0  0
    3.8214    2.2187   -0.1576 H   0  0  0  0  0  0  0  0  0  0  0  0
    3.1566   -1.9984   -0.1374 H   0  0  0  0  0  0  0  0  0  0  0  0
    3.0366   -1.0911   -1.6966 H   0  0  0  0  0  0  0  0  0  0  0  0
    0.8545   -1.4030   -1.3305 H   0  0  0  0  0  0  0  0  0  0  0  0
   -2.4842   -1.4421   -0.5922 H   0  0  0  0  0  0  0  0  0  0  0  0
   -1.0659   -1.2218   -1.6230 H   0  0  0  0  0  0  0  0  0  0  0  0
   -3.1571    0.3076   -1.8133 H   0  0  0  0  0  0  0  0  0  0  0  0
   -3.4565    1.5964    0.0879 H   0  0  0  0  0  0  0  0  0  0  0  0
   -1.9695    2.3637   -0.5348 H   0  0  0  0  0  0  0  0  0  0  0  0
   -0.9336    1.6542    1.4616 H   0  0  0  0  0  0  0  0  0  0  0  0
   -1.2820   -0.5225    2.6226 H   0  0  0  0  0  0  0  0  0  0  0  0
   -2.7726   -0.8770    1.6091 H   0  0  0  0  0  0  0  0  0  0  0  0
  1  2  2  0
  2  3  1  0
  2  4  1  0
  4  5  1  0
  5  6  1  0
  6  7  2  0
  8  6  1  1
  8  9  1  0
  9 10  1  0
 10 11  1  0
 11 12  1  0
 12 13  1  0
 12  8  1  0
 13  8  1  0
  3 14  1  0
  4 15  1  0
  4 16  1  0
  5 17  1  0
  9 18  1  0
  9 19  1  0
 10 20  1  0
 11 21  1  0
 11 22  1  0
 12 23  1  1
 13 24  1  0
 13 25  1  0
M  END
$$$$
