
     RDKit          3D

 31 31  0  0  0  0  0  0  0  0999 V2000
   -3.2652    0.4614   -1.5900 C   0  0  0  0  0  0  0  0  0  0  0  0
   -2.6232    1.5347   -0.7886 C   0  0  0  0  0  0  0  0  0  0  0  0
   -1.5358    1.0474    0.1629 C   0  0  1  0  0  0  0  0  0  0  0  0
   -2.1090    0.0599    1.1553 C   0  0  0  0  0  0  0  0  0  0  0  0
   -1.1106   -0.4170    2.0743 N   0  0  0  0  0  0  0  0  0  0  0  0
   -0.4099    0.5143   -0.6121 C   0  0  0  0  0  0  0  0  0  0  0  0
   -0.5336    0.4217   -1.8752 O   0  0  0  0  0  0  0  0  0  0  0  0
    0.8004    0.1018   -0.0047 N   0  0  0  0  0  0  0  0  0  0  0  0
    1.8612   -0.4175   -0.8491 C   0  0  1  0  0  0  0  0  0  0  0  0
    3.1769    0.3107   -0.5974 C   0  0  0  0  0  0  0  0  0  0  0  0
    3.4944   -0.1367    0.8035 C   0  0  0  0  0  0  0  0  0  0  0  0
    2.9994   -1.5181    0.8347 N   0  0  0  0  0  0  0  0  0  0  0  0
    2.2073   -1.7643   -0.3206 C   0  0  0  0  0  0  0  0  0  0  0  0
    1.8393   -2.8486   -0.8417 O   0  0  0  0  0  0  0  0  0  0  0  0
   -2.7509    0.2490   -2.5676 H   0  0  0  0  0  0  0  0  0  0  0  0
   -4.2736    0.8579   -1.9097 H   0  0  0  0  0  0  0  0  0  0  0  0
   -3.4613   -0.4832   -1.0884 H   0  0  0  0  0  0  0  0  0  0  0  0
   -2.0874    2.2160   -1.5117 H   0  0  0  0  0  0  0  0  0  0  0  0
   -3.3451    2.1728   -0.2422 H   0  0  0  0  0  0  0  0  0  0  0  0
   -1.2443    1.9492    0.7606 H   0  0  0  0  0  0  0  0  0  0  0  0
   -2.9201    0.6022    1.7135 H   0  0  0  0  0  0  0  0  0  0  0  0
   -2.5418   -0.8374    0.6701 H   0  0  0  0  0  0  0  0  0  0  0  0
   -1.0597    0.2336    2.9127 H   0  0  0  0  0  0  0  0  0  0  0  0
   -1.3150   -1.3628    2.4591 H   0  0  0  0  0  0  0  0  0  0  0  0
    0.8840    0.1916    1.0235 H   0  0  0  0  0  0  0  0  0  0  0  0
    1.5789   -0.4254   -1.8981 H   0  0  0  0  0  0  0  0  0  0  0  0
    3.9166   -0.1515   -1.2762 H   0  0  0  0  0  0  0  0  0  0  0  0
    3.0816    1.4006   -0.7082 H   0  0  0  0  0  0  0  0  0  0  0  0
    4.5870   -0.1449    0.9652 H   0  0  0  0  0  0  0  0  0  0  0  0
    2.9746    0.4829    1.5683 H   0  0  0  0  0  0  0  0  0  0  0  0
    3.1849   -2.2312    1.5782 H   0  0  0  0  0  0  0  0  0  0  0  0
  1  2  1  0
  2  3  1  0
  3  4  1  0
  4  5  1  0
  3  6  1  0
  6  7  2  0
  6  8  1  0
  8  9  1  0
  9 10  1  0
 10 11  1  0
 11 12  1  0
 12 13  1  0
 13 14  2  0
 13  9  1  0
  1 15  1  0
  1 16  1  0
  1 17  1  0
  2 18  1  0
  2 19  1  0
  3 20  1  1
  4 21  1  0
  4 22  1  0
  5 23  1  0
  5 24  1  0
  8 25  1  0
  9 26  1  6
 10 27  1  0
 10 28  1  0
 11 29  1  0
 11 30  1  0
 12 31  1  0
M  END
$$$$

     RDKit          3D

 31 31  0  0  0  0  0  0  0  0999 V2000
   -2.1732   -1.6763   -1.3830 C   0  0  0  0  0  0  0  0  0  0  0  0
   -2.4403   -0.8685   -0.1325 C   0  0  0  0  0  0  0  0  0  0  0  0
   -1.9372    0.5502   -0.3686 C   0  0  1  0  0  0  0  0  0  0  0  0
   -2.1782    1.4120    0.8554 C   0  0  0  0  0  0  0  0  0  0  0  0
   -3.6239    1.4118    1.0808 N   0  0  0  0  0  0  0  0  0  0  0  0
   -0.5355    0.5315   -0.7852 C   0  0  0  0  0  0  0  0  0  0  0  0
   -0.2217    1.0198   -1.9032 O   0  0  0  0  0  0  0  0  0  0  0  0
    0.5288   -0.0056   -0.0134 N   0  0  0  0  0  0  0  0  0  0  0  0
    1.8647    0.0227   -0.5062 C   0  0  1  0  0  0  0  0  0  0  0  0
    2.7053    0.8846    0.4448 C   0  0  0  0  0  0  0  0  0  0  0  0
    4.0961    0.3536    0.3137 C   0  0  0  0  0  0  0  0  0  0  0  0
    3.8934   -1.0483   -0.0128 N   0  0  0  0  0  0  0  0  0  0  0  0
    2.5706   -1.2475   -0.4862 C   0  0  0  0  0  0  0  0  0  0  0  0
    2.1284   -2.3650   -0.8219 O   0  0  0  0  0  0  0  0  0  0  0  0
   -1.2094   -1.2900   -1.8090 H   0  0  0  0  0  0  0  0  0  0  0  0
   -2.1290   -2.7619   -1.1760 H   0  0  0  0  0  0  0  0  0  0  0  0
   -2.9564   -1.4096   -2.1257 H   0  0  0  0  0  0  0  0  0  0  0  0
   -3.5312   -0.8647    0.0631 H   0  0  0  0  0  0  0  0  0  0  0  0
   -1.9213   -1.3525    0.7070 H   0  0  0  0  0  0  0  0  0  0  0  0
   -2.5443    0.9903   -1.1823 H   0  0  0  0  0  0  0  0  0  0  0  0
   -1.8957    2.4353    0.5923 H   0  0  0  0  0  0  0  0  0  0  0  0
   -1.7045    1.0233    1.7615 H   0  0  0  0  0  0  0  0  0  0  0  0
   -3.9390    0.5098    1.5157 H   0  0  0  0  0  0  0  0  0  0  0  0
   -4.1133    1.4944    0.1401 H   0  0  0  0  0  0  0  0  0  0  0  0
    0.2856   -0.4133    0.9138 H   0  0  0  0  0  0  0  0  0  0  0  0
    1.9765    0.4806   -1.4959 H   0  0  0  0  0  0  0  0  0  0  0  0
    2.3542    0.7663    1.4906 H   0  0  0  0  0  0  0  0  0  0  0  0
    2.6537    1.9226    0.1016 H   0  0  0  0  0  0  0  0  0  0  0  0
    4.6667    0.3810    1.2661 H   0  0  0  0  0  0  0  0  0  0  0  0
    4.6831    0.8745   -0.4824 H   0  0  0  0  0  0  0  0  0  0  0  0
    4.6469   -1.7609    0.1036 H   0  0  0  0  0  0  0  0  0  0  0  0
  1  2  1  0
  2  3  1  0
  3  4  1  0
  4  5  1  0
  3  6  1  0
  6  7  2  0
  6  8  1  0
  8  9  1  0
  9 10  1  0
 10 11  1  0
 11 12  1  0
 12 13  1  0
 13 14  2  0
 13  9  1  0
  1 15  1  0
  1 16  1  0
  1 17  1  0
  2 18  1  0
  2 19  1  0
  3 20  1  6
  4 21  1  0
  4 22  1  0
  5 23  1  0
  5 24  1  0
  8 25  1  0
  9 26  1  6
 10 27  1  0
 10 28  1  0
 11 29  1  0
 11 30  1  0
 12 31  1  0
M  END
$$$$

     RDKit          3D

 31 31  0  0  0  0  0  0  0  0999 V2000
    2.3084    1.1661   -0.9093 C   0  0  0  0  0  0  0  0  0  0  0  0
    2.5473   -0.3086   -1.0245 C   0  0  0  0  0  0  0  0  0  0  0  0
    1.7662   -1.1631   -0.0892 C   0  0  1  0  0  0  0  0  0  0  0  0
    2.0836   -0.8020    1.3515 C   0  0  0  0  0  0  0  0  0  0  0  0
    3.4703   -0.9794    1.6559 N   0  0  0  0  0  0  0  0  0  0  0  0
    0.3099   -1.1690   -0.2972 C   0  0  0  0  0  0  0  0  0  0  0  0
   -0.2385   -2.2564   -0.6496 O   0  0  0  0  0  0  0  0  0  0  0  0
   -0.5196   -0.0541   -0.1338 N   0  0  0  0  0  0  0  0  0  0  0  0
   -1.9511   -0.0583   -0.3405 C   0  0  1  0  0  0  0  0  0  0  0  0
   -2.7115    0.3572    0.9088 C   0  0  0  0  0  0  0  0  0  0  0  0
   -4.0299    0.7777    0.2870 C   0  0  0  0  0  0  0  0  0  0  0  0
   -3.5720    1.6280   -0.7926 N   0  0  0  0  0  0  0  0  0  0  0  0
   -2.3832    1.0207   -1.2837 C   0  0  0  0  0  0  0  0  0  0  0  0
   -1.7817    1.3248   -2.3312 O   0  0  0  0  0  0  0  0  0  0  0  0
    3.1675    1.7509   -1.3640 H   0  0  0  0  0  0  0  0  0  0  0  0
    2.1590    1.5300    0.1191 H   0  0  0  0  0  0  0  0  0  0  0  0
    1.4352    1.4885   -1.5307 H   0  0  0  0  0  0  0  0  0  0  0  0
    2.3848   -0.6148   -2.0801 H   0  0  0  0  0  0  0  0  0  0  0  0
    3.6397   -0.4835   -0.8448 H   0  0  0  0  0  0  0  0  0  0  0  0
    2.1395   -2.2205   -0.1996 H   0  0  0  0  0  0  0  0  0  0  0  0
    1.6830    0.2051    1.5828 H   0  0  0  0  0  0  0  0  0  0  0  0
    1.4448   -1.5017    1.9684 H   0  0  0  0  0  0  0  0  0  0  0  0
    3.6343   -1.0442    2.6673 H   0  0  0  0  0  0  0  0  0  0  0  0
    3.8441   -1.7774    1.1021 H   0  0  0  0  0  0  0  0  0  0  0  0
   -0.1230    0.8599    0.1588 H   0  0  0  0  0  0  0  0  0  0  0  0
   -2.3503   -1.0387   -0.6465 H   0  0  0  0  0  0  0  0  0  0  0  0
   -2.8193   -0.4617    1.6251 H   0  0  0  0  0  0  0  0  0  0  0  0
   -2.2770    1.2800    1.3560 H   0  0  0  0  0  0  0  0  0  0  0  0
   -4.6803    1.3082    1.0067 H   0  0  0  0  0  0  0  0  0  0  0  0
   -4.5177   -0.0960   -0.1767 H   0  0  0  0  0  0  0  0  0  0  0  0
   -4.0628    2.4943   -1.0954 H   0  0  0  0  0  0  0  0  0  0  0  0
  1  2  1  0
  2  3  1  0
  3  4  1  0
  4  5  1  0
  3  6  1  0
  6  7  2  0
  6  8  1  0
  8  9  1  0
  9 10  1  0
 10 11  1  0
 11 12  1  0
 12 13  1  0
 13 14  2  0
 13  9  1  0
  1 15  1  0
  1 16  1  0
  1 17  1  0
  2 18  1  0
  2 19  1  0
  3 20  1  1
  4 21  1  0
  4 22  1  0
  5 23  1  0
  5 24  1  0
  8 25  1  0
  9 26  1  6
 10 27  1  0
 10 28  1  0
 11 29  1  0
 11 30  1  0
 12 31  1  0
M  END
$$$$

     RDKit          3D

 31 31  0  0  0  0  0  0  0  0999 V2000
   -4.0175   -0.5203   -0.8307 C   0  0  0  0  0  0  0  0  0  0  0  0
   -2.7148   -1.0967   -0.2946 C   0  0  0  0  0  0  0  0  0  0  0  0
   -1.6038   -0.0822   -0.3665 C   0  0  1  0  0  0  0  0  0  0  0  0
   -1.8875    1.1549    0.4271 C   0  0  0  0  0  0  0  0  0  0  0  0
   -3.0901    1.8096   -0.0542 N   0  0  0  0  0  0  0  0  0  0  0  0
   -0.3311   -0.7229   -0.0741 C   0  0  0  0  0  0  0  0  0  0  0  0
   -0.2991   -1.9531    0.1857 O   0  0  0  0  0  0  0  0  0  0  0  0
    0.9277   -0.0534   -0.0558 N   0  0  0  0  0  0  0  0  0  0  0  0
    2.1747   -0.7332    0.2415 C   0  0  1  0  0  0  0  0  0  0  0  0
    3.1735   -0.5278   -0.8632 C   0  0  0  0  0  0  0  0  0  0  0  0
    4.3342    0.2345   -0.2625 C   0  0  0  0  0  0  0  0  0  0  0  0
    4.1799    0.0525    1.1790 N   0  0  0  0  0  0  0  0  0  0  0  0
    2.8047   -0.0906    1.4393 C   0  0  0  0  0  0  0  0  0  0  0  0
    2.1975    0.2558    2.4890 O   0  0  0  0  0  0  0  0  0  0  0  0
   -4.5922   -0.0386   -0.0206 H   0  0  0  0  0  0  0  0  0  0  0  0
   -4.6525   -1.3285   -1.2913 H   0  0  0  0  0  0  0  0  0  0  0  0
   -3.8292    0.2008   -1.6432 H   0  0  0  0  0  0  0  0  0  0  0  0
   -2.8420   -1.5236    0.7153 H   0  0  0  0  0  0  0  0  0  0  0  0
   -2.4379   -1.9341   -0.9676 H   0  0  0  0  0  0  0  0  0  0  0  0
   -1.5653    0.2447   -1.4485 H   0  0  0  0  0  0  0  0  0  0  0  0
   -2.0108    0.9933    1.4987 H   0  0  0  0  0  0  0  0  0  0  0  0
   -1.0475    1.8540    0.2777 H   0  0  0  0  0  0  0  0  0  0  0  0
   -3.6437    2.1955    0.7246 H   0  0  0  0  0  0  0  0  0  0  0  0
   -2.8407    2.6017   -0.6925 H   0  0  0  0  0  0  0  0  0  0  0  0
    0.9115    0.9586   -0.2682 H   0  0  0  0  0  0  0  0  0  0  0  0
    1.9468   -1.7992    0.4347 H   0  0  0  0  0  0  0  0  0  0  0  0
    3.5421   -1.4555   -1.3001 H   0  0  0  0  0  0  0  0  0  0  0  0
    2.7627    0.0911   -1.6956 H   0  0  0  0  0  0  0  0  0  0  0  0
    4.2102    1.3213   -0.4538 H   0  0  0  0  0  0  0  0  0  0  0  0
    5.2917   -0.1431   -0.6169 H   0  0  0  0  0  0  0  0  0  0  0  0
    4.9487    0.0344    1.8671 H   0  0  0  0  0  0  0  0  0  0  0  0
  1  2  1  0
  2  3  1  0
  3  4  1  0
  4  5  1  0
  3  6  1  0
  6  7  2  0
  6  8  1  0
  8  9  1  0
  9 10  1  0
 10 11  1  0
 11 12  1  0
 12 13  1  0
 13 14  2  0
 13  9  1  0
  1 15  1  0
  1 16  1  0
  1 17  1  0
  2 18  1  0
  2 19  1  0
  3 20  1  6
  4 21  1  0
  4 22  1  0
  5 23  1  0
  5 24  1  0
  8 25  1  0
  9 26  1  1
 10 27  1  0
 10 28  1  0
 11 29  1  0
 11 30  1  0
 12 31  1  0
M  END
$$$$

     RDKit          3D

 31 31  0  0  0  0  0  0  0  0999 V2000
   -3.0597    2.0478    0.1132 C   0  0  0  0  0  0  0  0  0  0  0  0
   -3.1115    0.6407   -0.3830 C   0  0  0  0  0  0  0  0  0  0  0  0
   -1.9631   -0.2049    0.1370 C   0  0  1  0  0  0  0  0  0  0  0  0
   -2.1416   -1.5890   -0.4389 C   0  0  0  0  0  0  0  0  0  0  0  0
   -1.1314   -2.5086   -0.0389 N   0  0  0  0  0  0  0  0  0  0  0  0
   -0.6879    0.4173   -0.2266 C   0  0  0  0  0  0  0  0  0  0  0  0
   -0.6638    1.4941   -0.8769 O   0  0  0  0  0  0  0  0  0  0  0  0
    0.5760   -0.1349    0.1189 N   0  0  0  0  0  0  0  0  0  0  0  0
    1.8404    0.4859   -0.2440 C   0  0  1  0  0  0  0  0  0  0  0  0
    2.5669    0.7827    1.0473 C   0  0  0  0  0  0  0  0  0  0  0  0
    3.9150    0.1453    0.9434 C   0  0  0  0  0  0  0  0  0  0  0  0
    4.0527   -0.2956   -0.4244 N   0  0  0  0  0  0  0  0  0  0  0  0
    2.7417   -0.4351   -0.9418 C   0  0  0  0  0  0  0  0  0  0  0  0
    2.4269   -1.2325   -1.8576 O   0  0  0  0  0  0  0  0  0  0  0  0
   -2.4572    2.0977    1.0472 H   0  0  0  0  0  0  0  0  0  0  0  0
   -4.0660    2.3996    0.3391 H   0  0  0  0  0  0  0  0  0  0  0  0
   -2.6198    2.7498   -0.6464 H   0  0  0  0  0  0  0  0  0  0  0  0
   -4.0929    0.2070   -0.1329 H   0  0  0  0  0  0  0  0  0  0  0  0
   -3.0808    0.6780   -1.5069 H   0  0  0  0  0  0  0  0  0  0  0  0
   -2.1145   -0.2830    1.2391 H   0  0  0  0  0  0  0  0  0  0  0  0
   -3.1508   -1.9425   -0.1399 H   0  0  0  0  0  0  0  0  0  0  0  0
   -2.1564   -1.5638   -1.5567 H   0  0  0  0  0  0  0  0  0  0  0  0
   -0.6744   -2.9997   -0.8278 H   0  0  0  0  0  0  0  0  0  0  0  0
   -1.5632   -3.2469    0.5603 H   0  0  0  0  0  0  0  0  0  0  0  0
    0.6364   -1.0261    0.6578 H   0  0  0  0  0  0  0  0  0  0  0  0
    1.6632    1.4311   -0.8163 H   0  0  0  0  0  0  0  0  0  0  0  0
    2.6421    1.8973    1.1622 H   0  0  0  0  0  0  0  0  0  0  0  0
    2.0279    0.3929    1.9419 H   0  0  0  0  0  0  0  0  0  0  0  0
    3.9429   -0.7742    1.5802 H   0  0  0  0  0  0  0  0  0  0  0  0
    4.7279    0.8435    1.2466 H   0  0  0  0  0  0  0  0  0  0  0  0
    4.9749   -0.4738   -0.9231 H   0  0  0  0  0  0  0  0  0  0  0  0
  1  2  1  0
  2  3  1  0
  3  4  1  0
  4  5  1  0
  3  6  1  0
  6  7  2  0
  6  8  1  0
  8  9  1  0
  9 10  1  0
 10 11  1  0
 11 12  1  0
 12 13  1  0
 13 14  2  0
 13  9  1  0
  1 15  1  0
  1 16  1  0
  1 17  1  0
  2 18  1  0
  2 19  1  0
  3 20  1  1
  4 21  1  0
  4 22  1  0
  5 23  1  0
  5 24  1  0
  8 25  1  0
  9 26  1  6
 10 27  1  0
 10 28  1  0
 11 29  1  0
 11 30  1  0
 12 31  1  0
M  END
$$$$

     RDKit          3D

 31 31  0  0  0  0  0  0  0  0999 V2000
   -2.4207   -1.5620   -0.7229 C   0  0  0  0  0  0  0  0  0  0  0  0
   -2.0495   -0.2657   -1.3626 C   0  0  0  0  0  0  0  0  0  0  0  0
   -1.6903    0.8112   -0.3905 C   0  0  1  0  0  0  0  0  0  0  0  0
   -2.8236    1.1334    0.5490 C   0  0  0  0  0  0  0  0  0  0  0  0
   -3.9627    1.5772   -0.1953 N   0  0  0  0  0  0  0  0  0  0  0  0
   -0.4365    0.5168    0.3632 C   0  0  0  0  0  0  0  0  0  0  0  0
   -0.5084    0.4368    1.6138 O   0  0  0  0  0  0  0  0  0  0  0  0
    0.7916    0.3323   -0.2870 N   0  0  0  0  0  0  0  0  0  0  0  0
    2.0155    0.0457    0.4378 C   0  0  1  0  0  0  0  0  0  0  0  0
    2.5472   -1.3049   -0.0511 C   0  0  0  0  0  0  0  0  0  0  0  0
    4.0212   -1.1567    0.2711 C   0  0  0  0  0  0  0  0  0  0  0  0
    4.2950    0.1757   -0.2241 N   0  0  0  0  0  0  0  0  0  0  0  0
    3.1239    0.9444    0.0225 C   0  0  0  0  0  0  0  0  0  0  0  0
    3.0062    2.1894   -0.0833 O   0  0  0  0  0  0  0  0  0  0  0  0
   -2.0399   -2.4228   -1.3451 H   0  0  0  0  0  0  0  0  0  0  0  0
   -2.0639   -1.6853    0.3109 H   0  0  0  0  0  0  0  0  0  0  0  0
   -3.5424   -1.6782   -0.7668 H   0  0  0  0  0  0  0  0  0  0  0  0
   -2.8449    0.1325   -2.0265 H   0  0  0  0  0  0  0  0  0  0  0  0
   -1.1549   -0.4069   -2.0341 H   0  0  0  0  0  0  0  0  0  0  0  0
   -1.4970    1.7404   -0.9836 H   0  0  0  0  0  0  0  0  0  0  0  0
   -2.4891    1.8279    1.3367 H   0  0  0  0  0  0  0  0  0  0  0  0
   -3.1423    0.1987    1.0968 H   0  0  0  0  0  0  0  0  0  0  0  0
   -3.7761    1.7937   -1.1896 H   0  0  0  0  0  0  0  0  0  0  0  0
   -4.5321    2.2984    0.2844 H   0  0  0  0  0  0  0  0  0  0  0  0
    0.8158    0.4056   -1.3269 H   0  0  0  0  0  0  0  0  0  0  0  0
    1.8714   -0.0076    1.5153 H   0  0  0  0  0  0  0  0  0  0  0  0
    2.4238   -1.3115   -1.1360 H   0  0  0  0  0  0  0  0  0  0  0  0
    2.0766   -2.1399    0.4809 H   0  0  0  0  0  0  0  0  0  0  0  0
    4.6223   -1.9303   -0.2466 H   0  0  0  0  0  0  0  0  0  0  0  0
    4.1847   -1.1532    1.3763 H   0  0  0  0  0  0  0  0  0  0  0  0
    5.1790    0.4648   -0.6618 H   0  0  0  0  0  0  0  0  0  0  0  0
  1  2  1  0
  2  3  1  0
  3  4  1  0
  4  5  1  0
  3  6  1  0
  6  7  2  0
  6  8  1  0
  8  9  1  0
  9 10  1  0
 10 11  1  0
 11 12  1  0
 12 13  1  0
 13 14  2  0
 13  9  1  0
  1 15  1  0
  1 16  1  0
  1 17  1  0
  2 18  1  0
  2 19  1  0
  3 20  1  6
  4 21  1  0
  4 22  1  0
  5 23  1  0
  5 24  1  0
  8 25  1  0
  9 26  1  1
 10 27  1  0
 10 28  1  0
 11 29  1  0
 11 30  1  0
 12 31  1  0
M  END
$$$$

     RDKit          3D

 31 31  0  0  0  0  0  0  0  0999 V2000
   -3.7101   -1.8436   -0.8905 C   0  0  0  0  0  0  0  0  0  0  0  0
   -2.3227   -1.9662   -0.3051 C   0  0  0  0  0  0  0  0  0  0  0  0
   -1.5476   -0.6963   -0.5831 C   0  0  1  0  0  0  0  0  0  0  0  0
   -2.2359    0.5185    0.0393 C   0  0  0  0  0  0  0  0  0  0  0  0
   -2.3536    0.3911    1.4586 N   0  0  0  0  0  0  0  0  0  0  0  0
   -0.1575   -0.7812   -0.0749 C   0  0  0  0  0  0  0  0  0  0  0  0
    0.3196   -1.7824    0.5137 O   0  0  0  0  0  0  0  0  0  0  0  0
    0.6935    0.3391   -0.2634 N   0  0  0  0  0  0  0  0  0  0  0  0
    2.0590    0.3603    0.1912 C   0  0  1  0  0  0  0  0  0  0  0  0
    3.0431    0.6631   -0.9192 C   0  0  0  0  0  0  0  0  0  0  0  0
    4.2794    1.0114   -0.1142 C   0  0  0  0  0  0  0  0  0  0  0  0
    3.7330    1.7192    1.0284 N   0  0  0  0  0  0  0  0  0  0  0  0
    2.3307    1.4777    1.1299 C   0  0  0  0  0  0  0  0  0  0  0  0
    1.5772    2.1197    1.8752 O   0  0  0  0  0  0  0  0  0  0  0  0
   -4.3066   -1.1182   -0.3005 H   0  0  0  0  0  0  0  0  0  0  0  0
   -3.6623   -1.4369   -1.9343 H   0  0  0  0  0  0  0  0  0  0  0  0
   -4.2354   -2.8157   -0.9320 H   0  0  0  0  0  0  0  0  0  0  0  0
   -2.4124   -2.1147    0.7927 H   0  0  0  0  0  0  0  0  0  0  0  0
   -1.7843   -2.7936   -0.7686 H   0  0  0  0  0  0  0  0  0  0  0  0
   -1.5152   -0.5792   -1.6851 H   0  0  0  0  0  0  0  0  0  0  0  0
   -3.2297    0.6302   -0.4183 H   0  0  0  0  0  0  0  0  0  0  0  0
   -1.6342    1.4019   -0.2678 H   0  0  0  0  0  0  0  0  0  0  0  0
   -3.2872   -0.0678    1.6681 H   0  0  0  0  0  0  0  0  0  0  0  0
   -2.4026    1.3595    1.8683 H   0  0  0  0  0  0  0  0  0  0  0  0
    0.3451    1.2023   -0.7495 H   0  0  0  0  0  0  0  0  0  0  0  0
    2.3621   -0.5710    0.6908 H   0  0  0  0  0  0  0  0  0  0  0  0
    2.7631    1.5706   -1.4798 H   0  0  0  0  0  0  0  0  0  0  0  0
    3.2124   -0.2128   -1.5749 H   0  0  0  0  0  0  0  0  0  0  0  0
    4.7676    0.0559    0.1929 H   0  0  0  0  0  0  0  0  0  0  0  0
    4.9683    1.6479   -0.7062 H   0  0  0  0  0  0  0  0  0  0  0  0
    4.3430    2.3110    1.6538 H   0  0  0  0  0  0  0  0  0  0  0  0
  1  2  1  0
  2  3  1  0
  3  4  1  0
  4  5  1  0
  3  6  1  0
  6  7  2  0
  6  8  1  0
  8  9  1  0
  9 10  1  0
 10 11  1  0
 11 12  1  0
 12 13  1  0
 13 14  2  0
 13  9  1  0
  1 15  1  0
  1 16  1  0
  1 17  1  0
  2 18  1  0
  2 19  1  0
  3 20  1  6
  4 21  1  0
  4 22  1  0
  5 23  1  0
  5 24  1  0
  8 25  1  0
  9 26  1  1
 10 27  1  0
 10 28  1  0
 11 29  1  0
 11 30  1  0
 12 31  1  0
M  END
$$$$

     RDKit          3D

 31 31  0  0  0  0  0  0  0  0999 V2000
   -2.3903   -1.9085    0.1069 C   0  0  0  0  0  0  0  0  0  0  0  0
   -2.1103   -1.0074   -1.0779 C   0  0  0  0  0  0  0  0  0  0  0  0
   -1.8514    0.4129   -0.6089 C   0  0  1  0  0  0  0  0  0  0  0  0
   -3.0555    0.9378    0.1272 C   0  0  0  0  0  0  0  0  0  0  0  0
   -2.7476    2.2920    0.5479 N   0  0  0  0  0  0  0  0  0  0  0  0
   -0.6104    0.5160    0.1926 C   0  0  0  0  0  0  0  0  0  0  0  0
   -0.6471    0.9194    1.3709 O   0  0  0  0  0  0  0  0  0  0  0  0
    0.6207    0.1547   -0.3834 N   0  0  0  0  0  0  0  0  0  0  0  0
    1.8902    0.2086    0.2839 C   0  0  1  0  0  0  0  0  0  0  0  0
    2.6451   -1.0855    0.2638 C   0  0  0  0  0  0  0  0  0  0  0  0
    4.0306   -0.6067    0.6662 C   0  0  0  0  0  0  0  0  0  0  0  0
    4.1585    0.5867   -0.1491 N   0  0  0  0  0  0  0  0  0  0  0  0
    2.8610    1.1150   -0.4187 C   0  0  0  0  0  0  0  0  0  0  0  0
    2.5812    2.1191   -1.0953 O   0  0  0  0  0  0  0  0  0  0  0  0
   -3.4626   -2.2419    0.1108 H   0  0  0  0  0  0  0  0  0  0  0  0
   -1.7417   -2.7995    0.0331 H   0  0  0  0  0  0  0  0  0  0  0  0
   -2.1726   -1.3940    1.0506 H   0  0  0  0  0  0  0  0  0  0  0  0
   -2.9668   -0.9653   -1.7672 H   0  0  0  0  0  0  0  0  0  0  0  0
   -1.2001   -1.3497   -1.6096 H   0  0  0  0  0  0  0  0  0  0  0  0
   -1.7760    1.0259   -1.5539 H   0  0  0  0  0  0  0  0  0  0  0  0
   -3.3810    0.3007    0.9515 H   0  0  0  0  0  0  0  0  0  0  0  0
   -3.8864    1.0045   -0.6033 H   0  0  0  0  0  0  0  0  0  0  0  0
   -2.6950    2.3369    1.5874 H   0  0  0  0  0  0  0  0  0  0  0  0
   -3.3890    2.9865    0.1465 H   0  0  0  0  0  0  0  0  0  0  0  0
    0.6180   -0.1790   -1.3717 H   0  0  0  0  0  0  0  0  0  0  0  0
    1.8304    0.5675    1.3213 H   0  0  0  0  0  0  0  0  0  0  0  0
    2.2533   -1.8518    0.9428 H   0  0  0  0  0  0  0  0  0  0  0  0
    2.7581   -1.4737   -0.7840 H   0  0  0  0  0  0  0  0  0  0  0  0
    3.9775   -0.2754    1.7291 H   0  0  0  0  0  0  0  0  0  0  0  0
    4.8072   -1.3463    0.4792 H   0  0  0  0  0  0  0  0  0  0  0  0
    5.0520    1.0004   -0.4890 H   0  0  0  0  0  0  0  0  0  0  0  0
  1  2  1  0
  2  3  1  0
  3  4  1  0
  4  5  1  0
  3  6  1  0
  6  7  2  0
  6  8  1  0
  8  9  1  0
  9 10  1  0
 10 11  1  0
 11 12  1  0
 12 13  1  0
 13 14  2  0
 13  9  1  0
  1 15  1  0
  1 16  1  0
  1 17  1  0
  2 18  1  0
  2 19  1  0
  3 20  1  6
  4 21  1  0
  4 22  1  0
  5 23  1  0
  5 24  1  0
  8 25  1  0
  9 26  1  1
 10 27  1  0
 10 28  1  0
 11 29  1  0
 11 30  1  0
 12 31  1  0
M  END
$$$$
