
     RDKit          3D

 29 29  0  0  0  0  0  0  0  0999 V2000
    4.3476    1.3027    0.0516 N   0  0  0  0  0  0  0  0  0  0  0  0
    3.2344    0.4550   -0.2494 C   0  0  0  0  0  0  0  0  0  0  0  0
    1.9725    0.9284    0.3887 C   0  0  0  0  0  0  0  0  0  0  0  0
    1.9953    1.9825    1.1029 O   0  0  0  0  0  0  0  0  0  0  0  0
    0.7791    0.1955    0.1861 N   0  0  0  0  0  0  0  0  0  0  0  0
    0.6638   -1.0077   -0.6068 C   0  0  0  0  0  0  0  0  0  0  0  0
   -0.8135   -1.2518   -0.8005 C   0  0  0  0  0  0  0  0  0  0  0  0
   -1.5425   -0.2395    0.0433 C   0  0  0  0  0  0  0  0  0  0  0  0
   -2.3850    0.6341   -0.8678 C   0  0  0  0  0  0  0  0  0  0  0  0
   -1.6262    1.3084   -1.7982 O   0  0  0  0  0  0  0  0  0  0  0  0
   -2.4693   -0.9699    0.9924 C   0  0  0  0  0  0  0  0  0  0  0  0
   -3.3973   -1.7296    0.2910 O   0  0  0  0  0  0  0  0  0  0  0  0
   -0.5012    0.5558    0.7516 C   0  0  0  0  0  0  0  0  0  0  0  0
    4.8247    1.0731    0.9326 H   0  0  0  0  0  0  0  0  0  0  0  0
    4.9818    1.3030   -0.7866 H   0  0  0  0  0  0  0  0  0  0  0  0
    3.0368    0.3719   -1.3292 H   0  0  0  0  0  0  0  0  0  0  0  0
    3.3819   -0.5948    0.1219 H   0  0  0  0  0  0  0  0  0  0  0  0
    1.1874   -1.8408   -0.1328 H   0  0  0  0  0  0  0  0  0  0  0  0
    1.1494   -0.7821   -1.5887 H   0  0  0  0  0  0  0  0  0  0  0  0
   -1.0529   -1.1710   -1.8831 H   0  0  0  0  0  0  0  0  0  0  0  0
   -1.0102   -2.2969   -0.5032 H   0  0  0  0  0  0  0  0  0  0  0  0
   -3.1169    0.0125   -1.4217 H   0  0  0  0  0  0  0  0  0  0  0  0
   -2.9789    1.3588   -0.2737 H   0  0  0  0  0  0  0  0  0  0  0  0
   -1.4659    2.2634   -1.5192 H   0  0  0  0  0  0  0  0  0  0  0  0
   -1.9284   -1.6309    1.6811 H   0  0  0  0  0  0  0  0  0  0  0  0
   -3.0510   -0.2385    1.6060 H   0  0  0  0  0  0  0  0  0  0  0  0
   -3.0368   -2.0732   -0.5655 H   0  0  0  0  0  0  0  0  0  0  0  0
   -0.6551    1.6445    0.5302 H   0  0  0  0  0  0  0  0  0  0  0  0
   -0.5237    0.4372    1.8537 H   0  0  0  0  0  0  0  0  0  0  0  0
  1  2  1  0
  2  3  1  0
  3  4  2  0
  3  5  1  0
  5  6  1  0
  6  7  1  0
  7  8  1  0
  8  9  1  0
  9 10  1  0
  8 11  1  0
 11 12  1  0
  8 13  1  0
 13  5  1  0
  1 14  1  0
  1 15  1  0
  2 16  1  0
  2 17  1  0
  6 18  1  0
  6 19  1  0
  7 20  1  0
  7 21  1  0
  9 22  1  0
  9 23  1  0
 10 24  1  0
 11 25  1  0
 11 26  1  0
 12 27  1  0
 13 28  1  0
 13 29  1  0
M  END
$$$$

     RDKit          3D

 29 29  0  0  0  0  0  0  0  0999 V2000
    4.4201    0.2776    0.3915 N   0  0  0  0  0  0  0  0  0  0  0  0
    3.0060    0.4081    0.6474 C   0  0  0  0  0  0  0  0  0  0  0  0
    2.2719   -0.3472   -0.3955 C   0  0  0  0  0  0  0  0  0  0  0  0
    2.9127   -0.9498   -1.2878 O   0  0  0  0  0  0  0  0  0  0  0  0
    0.8581   -0.4066   -0.4109 N   0  0  0  0  0  0  0  0  0  0  0  0
    0.0423   -1.1123   -1.3789 C   0  0  0  0  0  0  0  0  0  0  0  0
   -1.1822   -0.2021   -1.4312 C   0  0  0  0  0  0  0  0  0  0  0  0
   -1.4097    0.0777    0.0203 C   0  0  0  0  0  0  0  0  0  0  0  0
   -2.1834    1.3398    0.2785 C   0  0  0  0  0  0  0  0  0  0  0  0
   -2.3069    1.4507    1.6824 O   0  0  0  0  0  0  0  0  0  0  0  0
   -2.0415   -1.0836    0.7506 C   0  0  0  0  0  0  0  0  0  0  0  0
   -3.2700   -1.4358    0.2405 O   0  0  0  0  0  0  0  0  0  0  0  0
   -0.0017    0.2422    0.5583 C   0  0  0  0  0  0  0  0  0  0  0  0
    4.8888    1.1278    0.7727 H   0  0  0  0  0  0  0  0  0  0  0  0
    4.5663    0.3046   -0.6396 H   0  0  0  0  0  0  0  0  0  0  0  0
    2.6680    1.4622    0.6607 H   0  0  0  0  0  0  0  0  0  0  0  0
    2.7241   -0.0089    1.6477 H   0  0  0  0  0  0  0  0  0  0  0  0
   -0.2813   -2.0758   -0.9482 H   0  0  0  0  0  0  0  0  0  0  0  0
    0.5342   -1.2066   -2.3597 H   0  0  0  0  0  0  0  0  0  0  0  0
   -0.8383    0.7416   -1.9045 H   0  0  0  0  0  0  0  0  0  0  0  0
   -2.0282   -0.6649   -1.9414 H   0  0  0  0  0  0  0  0  0  0  0  0
   -3.2093    1.2851   -0.1127 H   0  0  0  0  0  0  0  0  0  0  0  0
   -1.6317    2.2325   -0.0614 H   0  0  0  0  0  0  0  0  0  0  0  0
   -2.1701    2.3758    1.9865 H   0  0  0  0  0  0  0  0  0  0  0  0
   -2.1190   -0.7596    1.8297 H   0  0  0  0  0  0  0  0  0  0  0  0
   -1.3820   -1.9720    0.7660 H   0  0  0  0  0  0  0  0  0  0  0  0
   -3.2227   -2.1381   -0.4426 H   0  0  0  0  0  0  0  0  0  0  0  0
    0.1254   -0.2770    1.5305 H   0  0  0  0  0  0  0  0  0  0  0  0
    0.2599    1.3146    0.7035 H   0  0  0  0  0  0  0  0  0  0  0  0
  1  2  1  0
  2  3  1  0
  3  4  2  0
  3  5  1  0
  5  6  1  0
  6  7  1  0
  7  8  1  0
  8  9  1  0
  9 10  1  0
  8 11  1  0
 11 12  1  0
  8 13  1  0
 13  5  1  0
  1 14  1  0
  1 15  1  0
  2 16  1  0
  2 17  1  0
  6 18  1  0
  6 19  1  0
  7 20  1  0
  7 21  1  0
  9 22  1  0
  9 23  1  0
 10 24  1  0
 11 25  1  0
 11 26  1  0
 12 27  1  0
 13 28  1  0
 13 29  1  0
M  END
$$$$

     RDKit          3D

 29 29  0  0  0  0  0  0  0  0999 V2000
    4.5123    0.0644   -0.4169 N   0  0  0  0  0  0  0  0  0  0  0  0
    3.1570   -0.2898   -0.7026 C   0  0  0  0  0  0  0  0  0  0  0  0
    2.1998    0.1581    0.3186 C   0  0  0  0  0  0  0  0  0  0  0  0
    2.5935    0.7871    1.3233 O   0  0  0  0  0  0  0  0  0  0  0  0
    0.8254   -0.1149    0.1801 N   0  0  0  0  0  0  0  0  0  0  0  0
    0.2696   -0.8456   -0.9627 C   0  0  0  0  0  0  0  0  0  0  0  0
   -1.0101   -0.0373   -1.1855 C   0  0  0  0  0  0  0  0  0  0  0  0
   -1.4977    0.1054    0.2413 C   0  0  0  0  0  0  0  0  0  0  0  0
   -2.2883   -1.1375    0.5655 C   0  0  0  0  0  0  0  0  0  0  0  0
   -2.7447   -1.0193    1.8801 O   0  0  0  0  0  0  0  0  0  0  0  0
   -2.3770    1.3380    0.2815 C   0  0  0  0  0  0  0  0  0  0  0  0
   -1.6518    2.4617   -0.0974 O   0  0  0  0  0  0  0  0  0  0  0  0
   -0.2708    0.2413    1.0750 C   0  0  0  0  0  0  0  0  0  0  0  0
    5.1410   -0.6460   -0.8428 H   0  0  0  0  0  0  0  0  0  0  0  0
    4.7528    1.0419   -0.6614 H   0  0  0  0  0  0  0  0  0  0  0  0
    3.1045   -1.4105   -0.7810 H   0  0  0  0  0  0  0  0  0  0  0  0
    2.9115    0.1425   -1.7156 H   0  0  0  0  0  0  0  0  0  0  0  0
    0.0638   -1.8600   -0.6212 H   0  0  0  0  0  0  0  0  0  0  0  0
    0.9340   -0.8084   -1.8318 H   0  0  0  0  0  0  0  0  0  0  0  0
   -0.7003    0.9367   -1.5907 H   0  0  0  0  0  0  0  0  0  0  0  0
   -1.7290   -0.5810   -1.8192 H   0  0  0  0  0  0  0  0  0  0  0  0
   -3.1247   -1.2470   -0.1453 H   0  0  0  0  0  0  0  0  0  0  0  0
   -1.6363   -2.0132    0.5145 H   0  0  0  0  0  0  0  0  0  0  0  0
   -2.7312   -1.9081    2.3008 H   0  0  0  0  0  0  0  0  0  0  0  0
   -2.8388    1.4865    1.2683 H   0  0  0  0  0  0  0  0  0  0  0  0
   -3.1872    1.1957   -0.4612 H   0  0  0  0  0  0  0  0  0  0  0  0
   -2.2974    3.1879   -0.3723 H   0  0  0  0  0  0  0  0  0  0  0  0
   -0.2487   -0.4754    1.9404 H   0  0  0  0  0  0  0  0  0  0  0  0
   -0.1315    1.2469    1.5205 H   0  0  0  0  0  0  0  0  0  0  0  0
  1  2  1  0
  2  3  1  0
  3  4  2  0
  3  5  1  0
  5  6  1  0
  6  7  1  0
  7  8  1  0
  8  9  1  0
  9 10  1  0
  8 11  1  0
 11 12  1  0
  8 13  1  0
 13  5  1  0
  1 14  1  0
  1 15  1  0
  2 16  1  0
  2 17  1  0
  6 18  1  0
  6 19  1  0
  7 20  1  0
  7 21  1  0
  9 22  1  0
  9 23  1  0
 10 24  1  0
 11 25  1  0
 11 26  1  0
 12 27  1  0
 13 28  1  0
 13 29  1  0
M  END
$$$$

     RDKit          3D

 29 29  0  0  0  0  0  0  0  0999 V2000
    3.2957    0.6154   -0.5908 N   0  0  0  0  0  0  0  0  0  0  0  0
    3.3032   -0.0248    0.7009 C   0  0  0  0  0  0  0  0  0  0  0  0
    1.9852   -0.5621    1.0596 C   0  0  0  0  0  0  0  0  0  0  0  0
    1.8608   -1.1346    2.1659 O   0  0  0  0  0  0  0  0  0  0  0  0
    0.8796   -0.4492    0.2041 N   0  0  0  0  0  0  0  0  0  0  0  0
    0.8285    0.1448   -1.0995 C   0  0  0  0  0  0  0  0  0  0  0  0
   -0.5825   -0.0560   -1.5735 C   0  0  0  0  0  0  0  0  0  0  0  0
   -1.3796   -0.0743   -0.2939 C   0  0  0  0  0  0  0  0  0  0  0  0
   -1.5084    1.3227    0.2135 C   0  0  0  0  0  0  0  0  0  0  0  0
   -2.2311    1.4177    1.3973 O   0  0  0  0  0  0  0  0  0  0  0  0
   -2.7147   -0.7444   -0.4628 C   0  0  0  0  0  0  0  0  0  0  0  0
   -3.4274   -0.7463    0.7337 O   0  0  0  0  0  0  0  0  0  0  0  0
   -0.4667   -0.9391    0.5565 C   0  0  0  0  0  0  0  0  0  0  0  0
    3.3298    1.6476   -0.4569 H   0  0  0  0  0  0  0  0  0  0  0  0
    4.1890    0.3603   -1.0974 H   0  0  0  0  0  0  0  0  0  0  0  0
    4.1028   -0.8255    0.7296 H   0  0  0  0  0  0  0  0  0  0  0  0
    3.6152    0.7230    1.4805 H   0  0  0  0  0  0  0  0  0  0  0  0
    1.5624   -0.3157   -1.8066 H   0  0  0  0  0  0  0  0  0  0  0  0
    1.0226    1.2336   -0.9699 H   0  0  0  0  0  0  0  0  0  0  0  0
   -0.8972    0.7630   -2.2533 H   0  0  0  0  0  0  0  0  0  0  0  0
   -0.7165   -1.0557   -2.0350 H   0  0  0  0  0  0  0  0  0  0  0  0
   -2.0103    1.9247   -0.5687 H   0  0  0  0  0  0  0  0  0  0  0  0
   -0.5320    1.8100    0.4006 H   0  0  0  0  0  0  0  0  0  0  0  0
   -1.9958    0.6963    2.0299 H   0  0  0  0  0  0  0  0  0  0  0  0
   -2.5986   -1.7735   -0.8598 H   0  0  0  0  0  0  0  0  0  0  0  0
   -3.3034   -0.1352   -1.1797 H   0  0  0  0  0  0  0  0  0  0  0  0
   -4.3666   -0.9707    0.6179 H   0  0  0  0  0  0  0  0  0  0  0  0
   -0.6378   -0.8549    1.6265 H   0  0  0  0  0  0  0  0  0  0  0  0
   -0.6061   -1.9970    0.2612 H   0  0  0  0  0  0  0  0  0  0  0  0
  1  2  1  0
  2  3  1  0
  3  4  2  0
  3  5  1  0
  5  6  1  0
  6  7  1  0
  7  8  1  0
  8  9  1  0
  9 10  1  0
  8 11  1  0
 11 12  1  0
  8 13  1  0
 13  5  1  0
  1 14  1  0
  1 15  1  0
  2 16  1  0
  2 17  1  0
  6 18  1  0
  6 19  1  0
  7 20  1  0
  7 21  1  0
  9 22  1  0
  9 23  1  0
 10 24  1  0
 11 25  1  0
 11 26  1  0
 12 27  1  0
 13 28  1  0
 13 29  1  0
M  END
$$$$

     RDKit          3D

 29 29  0  0  0  0  0  0  0  0999 V2000
    3.3030    0.4170    1.0070 N   0  0  0  0  0  0  0  0  0  0  0  0
    3.3825    0.1306   -0.3867 C   0  0  0  0  0  0  0  0  0  0  0  0
    2.1107   -0.1375   -1.0629 C   0  0  0  0  0  0  0  0  0  0  0  0
    2.1440   -0.3940   -2.2942 O   0  0  0  0  0  0  0  0  0  0  0  0
    0.8535   -0.1251   -0.4163 N   0  0  0  0  0  0  0  0  0  0  0  0
    0.6859    0.1548    0.9899 C   0  0  0  0  0  0  0  0  0  0  0  0
   -0.7763    0.0550    1.2790 C   0  0  0  0  0  0  0  0  0  0  0  0
   -1.4774   -0.0150   -0.0577 C   0  0  0  0  0  0  0  0  0  0  0  0
   -2.1159    1.3184   -0.3138 C   0  0  0  0  0  0  0  0  0  0  0  0
   -2.7948    1.3991   -1.5062 O   0  0  0  0  0  0  0  0  0  0  0  0
   -2.5574   -1.0858   -0.0348 C   0  0  0  0  0  0  0  0  0  0  0  0
   -1.9510   -2.3125    0.2413 O   0  0  0  0  0  0  0  0  0  0  0  0
   -0.4414   -0.3877   -1.0572 C   0  0  0  0  0  0  0  0  0  0  0  0
    4.0320   -0.1017    1.5817 H   0  0  0  0  0  0  0  0  0  0  0  0
    3.4663    1.4413    1.2304 H   0  0  0  0  0  0  0  0  0  0  0  0
    4.0812   -0.7220   -0.5280 H   0  0  0  0  0  0  0  0  0  0  0  0
    3.8898    1.0055   -0.8776 H   0  0  0  0  0  0  0  0  0  0  0  0
    1.0780    1.1800    1.2195 H   0  0  0  0  0  0  0  0  0  0  0  0
    1.2492   -0.5675    1.6285 H   0  0  0  0  0  0  0  0  0  0  0  0
   -1.0929    0.9481    1.8771 H   0  0  0  0  0  0  0  0  0  0  0  0
   -0.9752   -0.8946    1.8447 H   0  0  0  0  0  0  0  0  0  0  0  0
   -2.7981    1.5503    0.5297 H   0  0  0  0  0  0  0  0  0  0  0  0
   -1.3187    2.1069   -0.3069 H   0  0  0  0  0  0  0  0  0  0  0  0
   -2.4437    0.8018   -2.2105 H   0  0  0  0  0  0  0  0  0  0  0  0
   -3.0463   -1.0678   -1.0085 H   0  0  0  0  0  0  0  0  0  0  0  0
   -3.2453   -0.8628    0.8080 H   0  0  0  0  0  0  0  0  0  0  0  0
   -2.2432   -2.6825    1.1212 H   0  0  0  0  0  0  0  0  0  0  0  0
   -0.4750    0.3013   -1.9416 H   0  0  0  0  0  0  0  0  0  0  0  0
   -0.5236   -1.4537   -1.3549 H   0  0  0  0  0  0  0  0  0  0  0  0
  1  2  1  0
  2  3  1  0
  3  4  2  0
  3  5  1  0
  5  6  1  0
  6  7  1  0
  7  8  1  0
  8  9  1  0
  9 10  1  0
  8 11  1  0
 11 12  1  0
  8 13  1  0
 13  5  1  0
  1 14  1  0
  1 15  1  0
  2 16  1  0
  2 17  1  0
  6 18  1  0
  6 19  1  0
  7 20  1  0
  7 21  1  0
  9 22  1  0
  9 23  1  0
 10 24  1  0
 11 25  1  0
 11 26  1  0
 12 27  1  0
 13 28  1  0
 13 29  1  0
M  END
$$$$

     RDKit          3D

 29 29  0  0  0  0  0  0  0  0999 V2000
    4.5398   -0.1147   -0.4758 N   0  0  0  0  0  0  0  0  0  0  0  0
    3.3255   -0.4154    0.2177 C   0  0  0  0  0  0  0  0  0  0  0  0
    2.1282   -0.1067   -0.6052 C   0  0  0  0  0  0  0  0  0  0  0  0
    2.3121    0.3594   -1.7574 O   0  0  0  0  0  0  0  0  0  0  0  0
    0.8249   -0.3205   -0.1321 N   0  0  0  0  0  0  0  0  0  0  0  0
    0.3736   -0.8439    1.1503 C   0  0  0  0  0  0  0  0  0  0  0  0
   -0.9016   -0.1181    1.4856 C   0  0  0  0  0  0  0  0  0  0  0  0
   -1.4832    0.1836    0.1342 C   0  0  0  0  0  0  0  0  0  0  0  0
   -1.9340    1.6233    0.0269 C   0  0  0  0  0  0  0  0  0  0  0  0
   -2.9090    1.9368    0.9660 O   0  0  0  0  0  0  0  0  0  0  0  0
   -2.6882   -0.6929   -0.1732 C   0  0  0  0  0  0  0  0  0  0  0  0
   -2.2862   -2.0303   -0.1475 O   0  0  0  0  0  0  0  0  0  0  0  0
   -0.3986   -0.0494   -0.8629 C   0  0  0  0  0  0  0  0  0  0  0  0
    5.3028    0.0941    0.1768 H   0  0  0  0  0  0  0  0  0  0  0  0
    4.4318    0.6350   -1.2015 H   0  0  0  0  0  0  0  0  0  0  0  0
    3.3645   -1.4864    0.5187 H   0  0  0  0  0  0  0  0  0  0  0  0
    3.2854    0.2080    1.1277 H   0  0  0  0  0  0  0  0  0  0  0  0
    0.1332   -1.9162    1.0731 H   0  0  0  0  0  0  0  0  0  0  0  0
    1.0941   -0.6678    1.9614 H   0  0  0  0  0  0  0  0  0  0  0  0
   -1.6293   -0.7737    2.0155 H   0  0  0  0  0  0  0  0  0  0  0  0
   -0.7416    0.8436    2.0025 H   0  0  0  0  0  0  0  0  0  0  0  0
   -2.3317    1.7486   -1.0103 H   0  0  0  0  0  0  0  0  0  0  0  0
   -1.0875    2.3295    0.1850 H   0  0  0  0  0  0  0  0  0  0  0  0
   -2.8829    2.9157    1.0986 H   0  0  0  0  0  0  0  0  0  0  0  0
   -3.4598   -0.4639    0.5874 H   0  0  0  0  0  0  0  0  0  0  0  0
   -3.0428   -0.3935   -1.1891 H   0  0  0  0  0  0  0  0  0  0  0  0
   -2.5118   -2.5200   -0.9670 H   0  0  0  0  0  0  0  0  0  0  0  0
   -0.6347   -0.8383   -1.5952 H   0  0  0  0  0  0  0  0  0  0  0  0
   -0.1929    0.8739   -1.4778 H   0  0  0  0  0  0  0  0  0  0  0  0
  1  2  1  0
  2  3  1  0
  3  4  2  0
  3  5  1  0
  5  6  1  0
  6  7  1  0
  7  8  1  0
  8  9  1  0
  9 10  1  0
  8 11  1  0
 11 12  1  0
  8 13  1  0
 13  5  1  0
  1 14  1  0
  1 15  1  0
  2 16  1  0
  2 17  1  0
  6 18  1  0
  6 19  1  0
  7 20  1  0
  7 21  1  0
  9 22  1  0
  9 23  1  0
 10 24  1  0
 11 25  1  0
 11 26  1  0
 12 27  1  0
 13 28  1  0
 13 29  1  0
M  END
$$$$

     RDKit          3D

 29 29  0  0  0  0  0  0  0  0999 V2000
    4.4961   -0.3059    0.1981 N   0  0  0  0  0  0  0  0  0  0  0  0
    3.1682    0.2600    0.2630 C   0  0  0  0  0  0  0  0  0  0  0  0
    2.2316   -0.6541   -0.4219 C   0  0  0  0  0  0  0  0  0  0  0  0
    2.7126   -1.7240   -0.9265 O   0  0  0  0  0  0  0  0  0  0  0  0
    0.8471   -0.4030   -0.5429 N   0  0  0  0  0  0  0  0  0  0  0  0
   -0.0947   -1.2669   -1.2007 C   0  0  0  0  0  0  0  0  0  0  0  0
   -1.2567   -1.2073   -0.2224 C   0  0  0  0  0  0  0  0  0  0  0  0
   -1.3506    0.2670    0.0366 C   0  0  0  0  0  0  0  0  0  0  0  0
   -2.2214    0.8958   -1.0150 C   0  0  0  0  0  0  0  0  0  0  0  0
   -2.3662    2.2625   -0.8557 O   0  0  0  0  0  0  0  0  0  0  0  0
   -1.8805    0.6011    1.3987 C   0  0  0  0  0  0  0  0  0  0  0  0
   -3.1417    0.1186    1.6378 O   0  0  0  0  0  0  0  0  0  0  0  0
    0.0865    0.7206   -0.0610 C   0  0  0  0  0  0  0  0  0  0  0  0
    4.5376   -1.2088   -0.3019 H   0  0  0  0  0  0  0  0  0  0  0  0
    4.9850   -0.3202    1.1209 H   0  0  0  0  0  0  0  0  0  0  0  0
    2.9102    0.4164    1.3286 H   0  0  0  0  0  0  0  0  0  0  0  0
    3.2020    1.2501   -0.2550 H   0  0  0  0  0  0  0  0  0  0  0  0
    0.2737   -2.2919   -1.3522 H   0  0  0  0  0  0  0  0  0  0  0  0
   -0.3945   -0.7676   -2.1456 H   0  0  0  0  0  0  0  0  0  0  0  0
   -2.1664   -1.6635   -0.6066 H   0  0  0  0  0  0  0  0  0  0  0  0
   -0.9568   -1.7054    0.7210 H   0  0  0  0  0  0  0  0  0  0  0  0
   -1.8635    0.7116   -2.0370 H   0  0  0  0  0  0  0  0  0  0  0  0
   -3.2279    0.4143   -0.9262 H   0  0  0  0  0  0  0  0  0  0  0  0
   -2.9797    2.4535   -0.1192 H   0  0  0  0  0  0  0  0  0  0  0  0
   -1.1491    0.2572    2.1860 H   0  0  0  0  0  0  0  0  0  0  0  0
   -1.8881    1.7094    1.4867 H   0  0  0  0  0  0  0  0  0  0  0  0
   -3.1034   -0.4589    2.4477 H   0  0  0  0  0  0  0  0  0  0  0  0
    0.4556    1.0797    0.9361 H   0  0  0  0  0  0  0  0  0  0  0  0
    0.1351    1.5862   -0.7713 H   0  0  0  0  0  0  0  0  0  0  0  0
  1  2  1  0
  2  3  1  0
  3  4  2  0
  3  5  1  0
  5  6  1  0
  6  7  1  0
  7  8  1  0
  8  9  1  0
  9 10  1  0
  8 11  1  0
 11 12  1  0
  8 13  1  0
 13  5  1  0
  1 14  1  0
  1 15  1  0
  2 16  1  0
  2 17  1  0
  6 18  1  0
  6 19  1  0
  7 20  1  0
  7 21  1  0
  9 22  1  0
  9 23  1  0
 10 24  1  0
 11 25  1  0
 11 26  1  0
 12 27  1  0
 13 28  1  0
 13 29  1  0
M  END
$$$$

     RDKit          3D

 29 29  0  0  0  0  0  0  0  0999 V2000
    2.6810    1.2411   -0.4218 N   0  0  0  0  0  0  0  0  0  0  0  0
    3.2246   -0.0330   -0.0776 C   0  0  0  0  0  0  0  0  0  0  0  0
    2.2362   -1.0825    0.2189 C   0  0  0  0  0  0  0  0  0  0  0  0
    2.6854   -2.2264    0.5251 O   0  0  0  0  0  0  0  0  0  0  0  0
    0.8364   -0.9108    0.1874 N   0  0  0  0  0  0  0  0  0  0  0  0
   -0.1637   -1.9059    0.4614 C   0  0  0  0  0  0  0  0  0  0  0  0
   -1.3331   -1.1462    0.9871 C   0  0  0  0  0  0  0  0  0  0  0  0
   -1.3031    0.1212    0.1881 C   0  0  0  0  0  0  0  0  0  0  0  0
   -1.8307    1.3094    0.9575 C   0  0  0  0  0  0  0  0  0  0  0  0
   -1.7674    2.4386    0.1453 O   0  0  0  0  0  0  0  0  0  0  0  0
   -2.1269   -0.0092   -1.0808 C   0  0  0  0  0  0  0  0  0  0  0  0
   -1.6303   -1.0440   -1.8940 O   0  0  0  0  0  0  0  0  0  0  0  0
    0.1628    0.3217   -0.1318 C   0  0  0  0  0  0  0  0  0  0  0  0
    2.5783    1.3904   -1.4485 H   0  0  0  0  0  0  0  0  0  0  0  0
    3.2469    2.0329   -0.0522 H   0  0  0  0  0  0  0  0  0  0  0  0
    3.9206   -0.3386   -0.8966 H   0  0  0  0  0  0  0  0  0  0  0  0
    3.8841    0.0997    0.8201 H   0  0  0  0  0  0  0  0  0  0  0  0
   -0.3728   -2.4289   -0.4980 H   0  0  0  0  0  0  0  0  0  0  0  0
    0.1964   -2.6982    1.1526 H   0  0  0  0  0  0  0  0  0  0  0  0
   -1.1722   -0.9388    2.0549 H   0  0  0  0  0  0  0  0  0  0  0  0
   -2.3003   -1.7025    0.8297 H   0  0  0  0  0  0  0  0  0  0  0  0
   -1.2775    1.4711    1.9060 H   0  0  0  0  0  0  0  0  0  0  0  0
   -2.8920    1.1764    1.2335 H   0  0  0  0  0  0  0  0  0  0  0  0
   -1.4995    3.1978    0.7218 H   0  0  0  0  0  0  0  0  0  0  0  0
   -3.1657   -0.3046   -0.8302 H   0  0  0  0  0  0  0  0  0  0  0  0
   -2.1863    0.9297   -1.6362 H   0  0  0  0  0  0  0  0  0  0  0  0
   -1.4767   -0.7087   -2.8204 H   0  0  0  0  0  0  0  0  0  0  0  0
    0.5449    1.1089    0.5692 H   0  0  0  0  0  0  0  0  0  0  0  0
    0.3005    0.6394   -1.1704 H   0  0  0  0  0  0  0  0  0  0  0  0
  1  2  1  0
  2  3  1  0
  3  4  2  0
  3  5  1  0
  5  6  1  0
  6  7  1  0
  7  8  1  0
  8  9  1  0
  9 10  1  0
  8 11  1  0
 11 12  1  0
  8 13  1  0
 13  5  1  0
  1 14  1  0
  1 15  1  0
  2 16  1  0
  2 17  1  0
  6 18  1  0
  6 19  1  0
  7 20  1  0
  7 21  1  0
  9 22  1  0
  9 23  1  0
 10 24  1  0
 11 25  1  0
 11 26  1  0
 12 27  1  0
 13 28  1  0
 13 29  1  0
M  END
$$$$
