
     RDKit          3D

 25 24  0  0  0  0  0  0  0  0999 V2000
   -3.3049    1.3134   -0.4468 N   0  0  0  0  0  0  0  0  0  0  0  0
   -1.8963    1.2466   -0.1344 C   0  0  0  0  0  0  0  0  0  0  0  0
   -1.2649    2.3197   -0.1256 O   0  0  0  0  0  0  0  0  0  0  0  0
   -1.2626   -0.0225    0.1298 C   0  0  0  0  0  0  0  0  0  0  0  0
    0.0068   -0.2980   -0.3984 N   0  0  0  0  0  0  0  0  0  0  0  0
    1.0890    0.3849    0.2288 C   0  0  0  0  0  0  0  0  0  0  0  0
    2.4369    0.1593   -0.4581 C   0  0  2  0  0  0  0  0  0  0  0  0
    2.6749   -1.1808   -0.4068 O   0  0  0  0  0  0  0  0  0  0  0  0
    3.4745    0.8081    0.4704 C   0  0  0  0  0  0  0  0  0  0  0  0
    3.3500    0.1321    1.6906 F   0  0  0  0  0  0  0  0  0  0  0  0
   -2.0302   -1.1878    0.5296 C   0  0  0  0  0  0  0  0  0  0  0  0
   -2.6123   -2.1631   -0.3663 N   0  0  0  0  0  0  0  0  0  0  0  0
   -2.2798   -1.4538    1.7624 O   0  0  0  0  0  0  0  0  0  0  0  0
   -3.6030    1.9694   -1.2175 H   0  0  0  0  0  0  0  0  0  0  0  0
   -4.0639    0.8139    0.0681 H   0  0  0  0  0  0  0  0  0  0  0  0
   -0.9282    0.2992    1.3180 H   0  0  0  0  0  0  0  0  0  0  0  0
    0.2318   -1.1018   -0.9547 H   0  0  0  0  0  0  0  0  0  0  0  0
    0.9199    1.4817    0.2923 H   0  0  0  0  0  0  0  0  0  0  0  0
    1.2007   -0.0557    1.2846 H   0  0  0  0  0  0  0  0  0  0  0  0
    2.4775    0.5026   -1.4659 H   0  0  0  0  0  0  0  0  0  0  0  0
    3.4164   -1.4156   -1.0491 H   0  0  0  0  0  0  0  0  0  0  0  0
    4.4551    0.7121    0.0020 H   0  0  0  0  0  0  0  0  0  0  0  0
    3.1738    1.8551    0.5851 H   0  0  0  0  0  0  0  0  0  0  0  0
   -3.0271   -3.0770    0.0413 H   0  0  0  0  0  0  0  0  0  0  0  0
   -2.6340   -2.0421   -1.3793 H   0  0  0  0  0  0  0  0  0  0  0  0
  1  2  1  0
  2  3  2  0
  2  4  1  0
  4  5  1  0
  5  6  1  0
  6  7  1  0
  7  8  1  0
  7  9  1  0
  9 10  1  0
  4 11  1  0
 11 12  1  0
 11 13  2  0
  1 14  1  0
  1 15  1  0
  4 16  1  0
  5 17  1  0
  6 18  1  0
  6 19  1  0
  7 20  1  6
  8 21  1  0
  9 22  1  0
  9 23  1  0
 12 24  1  0
 12 25  1  0
M  END
$$$$

     RDKit          3D

 25 24  0  0  0  0  0  0  0  0999 V2000
   -3.0943    1.3451    0.4719 N   0  0  0  0  0  0  0  0  0  0  0  0
   -1.7503    1.0679    0.0804 C   0  0  0  0  0  0  0  0  0  0  0  0
   -1.1577    1.9979   -0.5667 O   0  0  0  0  0  0  0  0  0  0  0  0
   -1.0355   -0.1868    0.3736 C   0  0  0  0  0  0  0  0  0  0  0  0
    0.3086   -0.1205   -0.0628 N   0  0  0  0  0  0  0  0  0  0  0  0
    1.1850    0.7965    0.5348 C   0  0  0  0  0  0  0  0  0  0  0  0
    2.5566    0.6735   -0.1082 C   0  0  2  0  0  0  0  0  0  0  0  0
    2.5035    0.9376   -1.4689 O   0  0  0  0  0  0  0  0  0  0  0  0
    3.1659   -0.6751    0.0894 C   0  0  0  0  0  0  0  0  0  0  0  0
    4.4177   -0.6472   -0.5450 F   0  0  0  0  0  0  0  0  0  0  0  0
   -1.6902   -1.3433   -0.3220 C   0  0  0  0  0  0  0  0  0  0  0  0
   -3.0342   -1.7320   -0.1174 N   0  0  0  0  0  0  0  0  0  0  0  0
   -1.0139   -2.0253   -1.1455 O   0  0  0  0  0  0  0  0  0  0  0  0
   -3.5815    2.2289    0.1785 H   0  0  0  0  0  0  0  0  0  0  0  0
   -3.6348    0.6832    1.0565 H   0  0  0  0  0  0  0  0  0  0  0  0
   -1.0652   -0.3360    1.4843 H   0  0  0  0  0  0  0  0  0  0  0  0
    0.4848   -0.3855   -1.0462 H   0  0  0  0  0  0  0  0  0  0  0  0
    1.3103    0.4946    1.6093 H   0  0  0  0  0  0  0  0  0  0  0  0
    0.8219    1.8190    0.4873 H   0  0  0  0  0  0  0  0  0  0  0  0
    3.1955    1.4438    0.3989 H   0  0  0  0  0  0  0  0  0  0  0  0
    2.2619    0.1253   -1.9479 H   0  0  0  0  0  0  0  0  0  0  0  0
    3.3295   -0.9587    1.1439 H   0  0  0  0  0  0  0  0  0  0  0  0
    2.5730   -1.4424   -0.4653 H   0  0  0  0  0  0  0  0  0  0  0  0
   -3.4633   -1.6739    0.8320 H   0  0  0  0  0  0  0  0  0  0  0  0
   -3.5933   -2.0865   -0.9448 H   0  0  0  0  0  0  0  0  0  0  0  0
  1  2  1  0
  2  3  2  0
  2  4  1  0
  4  5  1  0
  5  6  1  0
  6  7  1  0
  7  8  1  0
  7  9  1  0
  9 10  1  0
  4 11  1  0
 11 12  1  0
 11 13  2  0
  1 14  1  0
  1 15  1  0
  4 16  1  0
  5 17  1  0
  6 18  1  0
  6 19  1  0
  7 20  1  1
  8 21  1  0
  9 22  1  0
  9 23  1  0
 12 24  1  0
 12 25  1  0
M  END
$$$$

     RDKit          3D

 25 24  0  0  0  0  0  0  0  0999 V2000
   -2.2669    1.9164    1.2911 N   0  0  0  0  0  0  0  0  0  0  0  0
   -2.4927    0.8269    0.3618 C   0  0  0  0  0  0  0  0  0  0  0  0
   -3.5136    0.6494   -0.2733 O   0  0  0  0  0  0  0  0  0  0  0  0
   -1.3011   -0.1061    0.2918 C   0  0  0  0  0  0  0  0  0  0  0  0
   -0.1280    0.6400   -0.1329 N   0  0  0  0  0  0  0  0  0  0  0  0
    1.0562   -0.1270    0.2419 C   0  0  0  0  0  0  0  0  0  0  0  0
    2.2771    0.4021   -0.4962 C   0  0  2  0  0  0  0  0  0  0  0  0
    2.2298    0.0461   -1.8152 O   0  0  0  0  0  0  0  0  0  0  0  0
    3.5315   -0.0617    0.1985 C   0  0  0  0  0  0  0  0  0  0  0  0
    3.5349    0.4122    1.5108 F   0  0  0  0  0  0  0  0  0  0  0  0
   -1.6171   -1.0770   -0.8589 C   0  0  0  0  0  0  0  0  0  0  0  0
   -2.7451   -1.9055   -0.6730 N   0  0  0  0  0  0  0  0  0  0  0  0
   -0.8613   -1.1337   -1.8423 O   0  0  0  0  0  0  0  0  0  0  0  0
   -1.9067    1.7345    2.2077 H   0  0  0  0  0  0  0  0  0  0  0  0
   -2.4295    2.8904    0.9087 H   0  0  0  0  0  0  0  0  0  0  0  0
   -1.1434   -0.6895    1.1627 H   0  0  0  0  0  0  0  0  0  0  0  0
   -0.1249    1.5404    0.4440 H   0  0  0  0  0  0  0  0  0  0  0  0
    0.8534   -1.1521   -0.1780 H   0  0  0  0  0  0  0  0  0  0  0  0
    1.2106   -0.2385    1.3084 H   0  0  0  0  0  0  0  0  0  0  0  0
    2.2456    1.5197   -0.4638 H   0  0  0  0  0  0  0  0  0  0  0  0
    1.9938   -0.9373   -1.8441 H   0  0  0  0  0  0  0  0  0  0  0  0
    3.4925   -1.1511    0.2284 H   0  0  0  0  0  0  0  0  0  0  0  0
    4.3820    0.3510   -0.3657 H   0  0  0  0  0  0  0  0  0  0  0  0
   -3.5342   -1.7931   -1.3427 H   0  0  0  0  0  0  0  0  0  0  0  0
   -2.7429   -2.5563    0.1305 H   0  0  0  0  0  0  0  0  0  0  0  0
  1  2  1  0
  2  3  2  0
  2  4  1  0
  4  5  1  0
  5  6  1  0
  6  7  1  0
  7  8  1  0
  7  9  1  0
  9 10  1  0
  4 11  1  0
 11 12  1  0
 11 13  2  0
  1 14  1  0
  1 15  1  0
  4 16  1  0
  5 17  1  0
  6 18  1  0
  6 19  1  0
  7 20  1  6
  8 21  1  0
  9 22  1  0
  9 23  1  0
 12 24  1  0
 12 25  1  0
M  END
$$$$

     RDKit          3D

 25 24  0  0  0  0  0  0  0  0999 V2000
   -2.8112    1.9957   -0.6012 N   0  0  0  0  0  0  0  0  0  0  0  0
   -2.1921    0.7795   -0.6985 C   0  0  0  0  0  0  0  0  0  0  0  0
   -2.2272    0.2408   -1.9037 O   0  0  0  0  0  0  0  0  0  0  0  0
   -1.4684   -0.0888    0.2544 C   0  0  0  0  0  0  0  0  0  0  0  0
   -0.2075   -0.3893   -0.5397 N   0  0  0  0  0  0  0  0  0  0  0  0
    0.8893    0.2001    0.2404 C   0  0  0  0  0  0  0  0  0  0  0  0
    2.0780    0.3950   -0.6511 C   0  0  2  0  0  0  0  0  0  0  0  0
    2.3620   -0.8075   -1.2784 O   0  0  0  0  0  0  0  0  0  0  0  0
    3.2325    0.7105    0.3413 C   0  0  0  0  0  0  0  0  0  0  0  0
    3.3588   -0.4078    1.1620 F   0  0  0  0  0  0  0  0  0  0  0  0
   -2.0683   -1.4289    0.3715 C   0  0  0  0  0  0  0  0  0  0  0  0
   -1.5119   -2.3179    1.3880 N   0  0  0  0  0  0  0  0  0  0  0  0
   -2.9863   -1.8459   -0.3362 O   0  0  0  0  0  0  0  0  0  0  0  0
   -2.2290    2.8695   -0.8338 H   0  0  0  0  0  0  0  0  0  0  0  0
   -3.7976    2.1448   -0.3465 H   0  0  0  0  0  0  0  0  0  0  0  0
   -1.2355    0.4035    1.1764 H   0  0  0  0  0  0  0  0  0  0  0  0
   -0.2686   -0.0247   -1.4680 H   0  0  0  0  0  0  0  0  0  0  0  0
    0.5475    1.1198    0.7204 H   0  0  0  0  0  0  0  0  0  0  0  0
    1.1137   -0.5197    1.0370 H   0  0  0  0  0  0  0  0  0  0  0  0
    1.9475    1.2044   -1.3560 H   0  0  0  0  0  0  0  0  0  0  0  0
    3.1083   -1.3039   -0.8663 H   0  0  0  0  0  0  0  0  0  0  0  0
    2.8845    1.5486    0.9629 H   0  0  0  0  0  0  0  0  0  0  0  0
    4.1046    0.8876   -0.2739 H   0  0  0  0  0  0  0  0  0  0  0  0
   -0.8079   -2.0256    2.0868 H   0  0  0  0  0  0  0  0  0  0  0  0
   -1.8155   -3.3397    1.4126 H   0  0  0  0  0  0  0  0  0  0  0  0
  1  2  1  0
  2  3  2  0
  2  4  1  0
  4  5  1  0
  5  6  1  0
  6  7  1  0
  7  8  1  0
  7  9  1  0
  9 10  1  0
  4 11  1  0
 11 12  1  0
 11 13  2  0
  1 14  1  0
  1 15  1  0
  4 16  1  0
  5 17  1  0
  6 18  1  0
  6 19  1  0
  7 20  1  6
  8 21  1  0
  9 22  1  0
  9 23  1  0
 12 24  1  0
 12 25  1  0
M  END
$$$$

     RDKit          3D

 25 24  0  0  0  0  0  0  0  0999 V2000
   -3.1989   -0.9000    0.4468 N   0  0  0  0  0  0  0  0  0  0  0  0
   -1.9178   -0.7411   -0.1270 C   0  0  0  0  0  0  0  0  0  0  0  0
   -1.6068   -1.5235   -1.0481 O   0  0  0  0  0  0  0  0  0  0  0  0
   -1.0023    0.3050    0.3522 C   0  0  0  0  0  0  0  0  0  0  0  0
    0.2547    0.2411   -0.3317 N   0  0  0  0  0  0  0  0  0  0  0  0
    1.0398   -0.9225   -0.1108 C   0  0  0  0  0  0  0  0  0  0  0  0
    2.3256   -0.7752   -0.9097 C   0  0  2  0  0  0  0  0  0  0  0  0
    3.0693   -1.9398   -0.6723 O   0  0  0  0  0  0  0  0  0  0  0  0
    3.0938    0.4379   -0.4832 C   0  0  0  0  0  0  0  0  0  0  0  0
    3.4364    0.3687    0.8557 F   0  0  0  0  0  0  0  0  0  0  0  0
   -1.5914    1.6647    0.2099 C   0  0  0  0  0  0  0  0  0  0  0  0
   -2.8151    1.9739    0.8418 N   0  0  0  0  0  0  0  0  0  0  0  0
   -0.9851    2.5135   -0.4698 O   0  0  0  0  0  0  0  0  0  0  0  0
   -4.0784   -0.7158   -0.0827 H   0  0  0  0  0  0  0  0  0  0  0  0
   -3.3202   -1.2219    1.4540 H   0  0  0  0  0  0  0  0  0  0  0  0
   -0.8222    0.1583    1.4642 H   0  0  0  0  0  0  0  0  0  0  0  0
    0.1659    0.4803   -1.3323 H   0  0  0  0  0  0  0  0  0  0  0  0
    0.5073   -1.8335   -0.3908 H   0  0  0  0  0  0  0  0  0  0  0  0
    1.2982   -1.0516    0.9789 H   0  0  0  0  0  0  0  0  0  0  0  0
    2.1462   -0.7217   -1.9955 H   0  0  0  0  0  0  0  0  0  0  0  0
    3.9982   -1.8740   -0.9635 H   0  0  0  0  0  0  0  0  0  0  0  0
    4.0661    0.4339   -1.0510 H   0  0  0  0  0  0  0  0  0  0  0  0
    2.5184    1.3359   -0.7075 H   0  0  0  0  0  0  0  0  0  0  0  0
   -3.5960    1.3322    1.0435 H   0  0  0  0  0  0  0  0  0  0  0  0
   -2.9857    2.9752    1.1592 H   0  0  0  0  0  0  0  0  0  0  0  0
  1  2  1  0
  2  3  2  0
  2  4  1  0
  4  5  1  0
  5  6  1  0
  6  7  1  0
  7  8  1  0
  7  9  1  0
  9 10  1  0
  4 11  1  0
 11 12  1  0
 11 13  2  0
  1 14  1  0
  1 15  1  0
  4 16  1  0
  5 17  1  0
  6 18  1  0
  6 19  1  0
  7 20  1  6
  8 21  1  0
  9 22  1  0
  9 23  1  0
 12 24  1  0
 12 25  1  0
M  END
$$$$

     RDKit          3D

 25 24  0  0  0  0  0  0  0  0999 V2000
    1.8408   -1.5810    0.1736 N   0  0  0  0  0  0  0  0  0  0  0  0
    1.6734   -0.3221    0.9046 C   0  0  0  0  0  0  0  0  0  0  0  0
    1.8483   -0.1920    1.9879 O   0  0  0  0  0  0  0  0  0  0  0  0
    1.2717    0.6677   -0.1290 C   0  0  0  0  0  0  0  0  0  0  0  0
    0.0604    0.6542   -0.7397 N   0  0  0  0  0  0  0  0  0  0  0  0
   -1.2036    0.7655   -0.1522 C   0  0  0  0  0  0  0  0  0  0  0  0
   -2.2128   -0.2846   -0.3240 C   0  0  2  0  0  0  0  0  0  0  0  0
   -2.6074   -0.5966   -1.5661 O   0  0  0  0  0  0  0  0  0  0  0  0
   -3.2975   -0.3271    0.7084 C   0  0  0  0  0  0  0  0  0  0  0  0
   -3.0009   -0.7716    1.9489 F   0  0  0  0  0  0  0  0  0  0  0  0
    2.3136    1.3342   -0.8161 C   0  0  0  0  0  0  0  0  0  0  0  0
    3.4666    0.3737   -0.9392 N   0  0  0  0  0  0  0  0  0  0  0  0
    2.4295    2.3980   -1.1670 O   0  0  0  0  0  0  0  0  0  0  0  0
    1.1338   -1.8947   -0.5188 H   0  0  0  0  0  0  0  0  0  0  0  0
    2.6516   -2.1476    0.4041 H   0  0  0  0  0  0  0  0  0  0  0  0
    0.8992    1.5943    0.6922 H   0  0  0  0  0  0  0  0  0  0  0  0
    0.0638   -0.3267   -1.3735 H   0  0  0  0  0  0  0  0  0  0  0  0
   -1.6983    1.6625   -0.8304 H   0  0  0  0  0  0  0  0  0  0  0  0
   -1.1127    1.2267    0.8214 H   0  0  0  0  0  0  0  0  0  0  0  0
   -1.5448   -1.2447    0.0229 H   0  0  0  0  0  0  0  0  0  0  0  0
   -2.9987   -1.5022   -1.5750 H   0  0  0  0  0  0  0  0  0  0  0  0
   -3.4201    0.8737    0.9131 H   0  0  0  0  0  0  0  0  0  0  0  0
   -4.2401   -0.6093    0.3270 H   0  0  0  0  0  0  0  0  0  0  0  0
    3.8180    0.2655   -1.9498 H   0  0  0  0  0  0  0  0  0  0  0  0
    3.8664   -0.0156   -0.1583 H   0  0  0  0  0  0  0  0  0  0  0  0
  1  2  1  0
  2  3  2  0
  2  4  1  0
  4  5  1  0
  5  6  1  0
  6  7  1  0
  7  8  1  0
  7  9  1  0
  9 10  1  0
  4 11  1  0
 11 12  1  0
 11 13  2  0
  1 14  1  0
  1 15  1  0
  4 16  1  0
  5 17  1  0
  6 18  1  0
  6 19  1  0
  7 20  1  1
  8 21  1  0
  9 22  1  0
  9 23  1  0
 12 24  1  0
 12 25  1  0
M  END
$$$$

     RDKit          3D

 25 24  0  0  0  0  0  0  0  0999 V2000
    3.3845   -0.0793   -0.4581 N   0  0  0  0  0  0  0  0  0  0  0  0
    2.1427   -0.7250   -0.3492 C   0  0  0  0  0  0  0  0  0  0  0  0
    1.8869   -1.7828   -0.9015 O   0  0  0  0  0  0  0  0  0  0  0  0
    1.0438   -0.0459    0.5274 C   0  0  0  0  0  0  0  0  0  0  0  0
   -0.0482   -0.8396    0.5438 N   0  0  0  0  0  0  0  0  0  0  0  0
   -0.9955   -1.3083   -0.2925 C   0  0  0  0  0  0  0  0  0  0  0  0
   -2.1535   -0.5289   -0.7898 C   0  0  2  0  0  0  0  0  0  0  0  0
   -1.8968    0.5865   -1.4819 O   0  0  0  0  0  0  0  0  0  0  0  0
   -3.1983   -0.3173    0.3191 C   0  0  0  0  0  0  0  0  0  0  0  0
   -2.6461    0.3516    1.3753 F   0  0  0  0  0  0  0  0  0  0  0  0
    1.1180    1.3359    0.1003 C   0  0  0  0  0  0  0  0  0  0  0  0
    1.8440    2.2737    0.8963 N   0  0  0  0  0  0  0  0  0  0  0  0
    0.6037    1.8077   -0.9095 O   0  0  0  0  0  0  0  0  0  0  0  0
    3.8569    0.0028   -1.4083 H   0  0  0  0  0  0  0  0  0  0  0  0
    3.8519    0.3176    0.3708 H   0  0  0  0  0  0  0  0  0  0  0  0
    1.5747   -0.1477    1.5554 H   0  0  0  0  0  0  0  0  0  0  0  0
   -0.1302   -1.3129    1.5254 H   0  0  0  0  0  0  0  0  0  0  0  0
   -0.5863   -1.8426   -1.2214 H   0  0  0  0  0  0  0  0  0  0  0  0
   -1.5057   -2.2368    0.2099 H   0  0  0  0  0  0  0  0  0  0  0  0
   -2.6916   -1.2363   -1.5312 H   0  0  0  0  0  0  0  0  0  0  0  0
   -2.0568    1.4184   -0.9825 H   0  0  0  0  0  0  0  0  0  0  0  0
   -4.0103    0.2941   -0.1167 H   0  0  0  0  0  0  0  0  0  0  0  0
   -3.6166   -1.3092    0.6101 H   0  0  0  0  0  0  0  0  0  0  0  0
    1.5404    3.2812    0.9539 H   0  0  0  0  0  0  0  0  0  0  0  0
    2.6886    2.0432    1.4548 H   0  0  0  0  0  0  0  0  0  0  0  0
  1  2  1  0
  2  3  2  0
  2  4  1  0
  4  5  1  0
  5  6  1  0
  6  7  1  0
  7  8  1  0
  7  9  1  0
  9 10  1  0
  4 11  1  0
 11 12  1  0
 11 13  2  0
  1 14  1  0
  1 15  1  0
  4 16  1  0
  5 17  1  0
  6 18  1  0
  6 19  1  0
  7 20  1  6
  8 21  1  0
  9 22  1  0
  9 23  1  0
 12 24  1  0
 12 25  1  0
M  END
$$$$

     RDKit          3D

 25 24  0  0  0  0  0  0  0  0999 V2000
   -2.9495   -1.4816   -0.7877 N   0  0  0  0  0  0  0  0  0  0  0  0
   -1.7088   -1.0978   -0.2270 C   0  0  0  0  0  0  0  0  0  0  0  0
   -1.1380   -1.9635    0.4774 O   0  0  0  0  0  0  0  0  0  0  0  0
   -1.0560    0.2222   -0.4122 C   0  0  0  0  0  0  0  0  0  0  0  0
    0.2225    0.2040    0.2086 N   0  0  0  0  0  0  0  0  0  0  0  0
    1.1716   -0.6633   -0.3526 C   0  0  0  0  0  0  0  0  0  0  0  0
    2.5479   -0.5276    0.2915 C   0  0  2  0  0  0  0  0  0  0  0  0
    2.5293   -0.7972    1.6368 O   0  0  0  0  0  0  0  0  0  0  0  0
    3.1678    0.8113    0.0599 C   0  0  0  0  0  0  0  0  0  0  0  0
    3.3264    1.0535   -1.3032 F   0  0  0  0  0  0  0  0  0  0  0  0
   -1.9589    1.2279    0.2617 C   0  0  0  0  0  0  0  0  0  0  0  0
   -3.1173    1.7553   -0.3647 N   0  0  0  0  0  0  0  0  0  0  0  0
   -1.7271    1.6607    1.4294 O   0  0  0  0  0  0  0  0  0  0  0  0
   -3.7901   -0.9429   -0.5794 H   0  0  0  0  0  0  0  0  0  0  0  0
   -2.9734   -2.3252   -1.4059 H   0  0  0  0  0  0  0  0  0  0  0  0
   -0.9971    0.5170   -1.4762 H   0  0  0  0  0  0  0  0  0  0  0  0
    0.5628    1.1227    0.5673 H   0  0  0  0  0  0  0  0  0  0  0  0
    1.3434   -0.4926   -1.4471 H   0  0  0  0  0  0  0  0  0  0  0  0
    0.8962   -1.7218   -0.2251 H   0  0  0  0  0  0  0  0  0  0  0  0
    3.1888   -1.2971   -0.2094 H   0  0  0  0  0  0  0  0  0  0  0  0
    2.7516   -1.7346    1.7836 H   0  0  0  0  0  0  0  0  0  0  0  0
    4.1882    0.8618    0.5156 H   0  0  0  0  0  0  0  0  0  0  0  0
    2.5462    1.6046    0.4997 H   0  0  0  0  0  0  0  0  0  0  0  0
   -4.0496    1.3222   -0.3727 H   0  0  0  0  0  0  0  0  0  0  0  0
   -2.9772    2.6818   -0.8559 H   0  0  0  0  0  0  0  0  0  0  0  0
  1  2  1  0
  2  3  2  0
  2  4  1  0
  4  5  1  0
  5  6  1  0
  6  7  1  0
  7  8  1  0
  7  9  1  0
  9 10  1  0
  4 11  1  0
 11 12  1  0
 11 13  2  0
  1 14  1  0
  1 15  1  0
  4 16  1  0
  5 17  1  0
  6 18  1  0
  6 19  1  0
  7 20  1  6
  8 21  1  0
  9 22  1  0
  9 23  1  0
 12 24  1  0
 12 25  1  0
M  END
$$$$
