
     RDKit          3D

 26 26  0  0  0  0  0  0  0  0999 V2000
   -4.0755   -1.4308   -0.2265 C   0  0  0  0  0  0  0  0  0  0  0  0
   -2.9417   -0.5050   -0.2818 N   0  0  0  0  0  0  0  0  0  0  0  0
   -3.1039    0.7853   -0.4964 N   0  0  0  0  0  0  0  0  0  0  0  0
   -1.9241    1.3451   -0.4908 N   0  0  0  0  0  0  0  0  0  0  0  0
   -1.0175    0.3929   -0.2704 C   0  0  0  0  0  0  0  0  0  0  0  0
    0.4645    0.5309   -0.1751 C   0  0  1  0  0  0  0  0  0  0  0  0
    0.8544    1.9833    0.0243 C   0  0  0  0  0  0  0  0  0  0  0  0
    0.2752    2.5080    1.2425 N   0  0  0  0  0  0  0  0  0  0  0  0
    0.9327   -0.1887    0.9085 O   0  0  0  0  0  0  0  0  0  0  0  0
    1.8225   -1.1733    0.5651 C   0  0  0  0  0  0  0  0  0  0  0  0
    3.0683   -0.6909   -0.0907 C   0  0  0  0  0  0  0  0  0  0  0  0
    3.8885   -1.7900   -0.3877 O   0  0  0  0  0  0  0  0  0  0  0  0
   -1.6692   -0.7623   -0.1411 N   0  0  0  0  0  0  0  0  0  0  0  0
   -3.7429   -2.4418   -0.5326 H   0  0  0  0  0  0  0  0  0  0  0  0
   -4.8941   -1.1262   -0.8833 H   0  0  0  0  0  0  0  0  0  0  0  0
   -4.3599   -1.5015    0.8467 H   0  0  0  0  0  0  0  0  0  0  0  0
    0.8780    0.1756   -1.1134 H   0  0  0  0  0  0  0  0  0  0  0  0
    1.9421    2.1316   -0.0029 H   0  0  0  0  0  0  0  0  0  0  0  0
    0.4434    2.6033   -0.8200 H   0  0  0  0  0  0  0  0  0  0  0  0
    0.1678    3.5309    1.1224 H   0  0  0  0  0  0  0  0  0  0  0  0
   -0.5819    2.0005    1.5017 H   0  0  0  0  0  0  0  0  0  0  0  0
    2.1111   -1.7105    1.5015 H   0  0  0  0  0  0  0  0  0  0  0  0
    1.3683   -1.9575   -0.0884 H   0  0  0  0  0  0  0  0  0  0  0  0
    2.8418   -0.1733   -1.0261 H   0  0  0  0  0  0  0  0  0  0  0  0
    3.6154   -0.0142    0.5923 H   0  0  0  0  0  0  0  0  0  0  0  0
    3.6368   -2.5214    0.1982 H   0  0  0  0  0  0  0  0  0  0  0  0
  1  2  1  0
  2  3  1  0
  3  4  2  0
  4  5  1  0
  5  6  1  0
  6  7  1  0
  7  8  1  0
  6  9  1  0
  9 10  1  0
 10 11  1  0
 11 12  1  0
  5 13  2  0
 13  2  1  0
  1 14  1  0
  1 15  1  0
  1 16  1  0
  6 17  1  6
  7 18  1  0
  7 19  1  0
  8 20  1  0
  8 21  1  0
 10 22  1  0
 10 23  1  0
 11 24  1  0
 11 25  1  0
 12 26  1  0
M  END
$$$$

     RDKit          3D

 26 26  0  0  0  0  0  0  0  0999 V2000
    3.8041    1.6005    0.6652 C   0  0  0  0  0  0  0  0  0  0  0  0
    2.7973    0.6161    0.2907 N   0  0  0  0  0  0  0  0  0  0  0  0
    3.0868   -0.6781    0.2079 N   0  0  0  0  0  0  0  0  0  0  0  0
    2.0016   -1.3072   -0.1435 N   0  0  0  0  0  0  0  0  0  0  0  0
    1.0058   -0.4146   -0.2885 C   0  0  0  0  0  0  0  0  0  0  0  0
   -0.3878   -0.7544   -0.6828 C   0  0  1  0  0  0  0  0  0  0  0  0
   -0.6120   -2.2603   -0.5399 C   0  0  0  0  0  0  0  0  0  0  0  0
   -0.3969   -2.7124    0.8019 N   0  0  0  0  0  0  0  0  0  0  0  0
   -1.2640   -0.0597    0.1462 O   0  0  0  0  0  0  0  0  0  0  0  0
   -2.1094    0.7341   -0.6203 C   0  0  0  0  0  0  0  0  0  0  0  0
   -3.0795    1.5075    0.2398 C   0  0  0  0  0  0  0  0  0  0  0  0
   -2.3997    2.3375    1.1158 O   0  0  0  0  0  0  0  0  0  0  0  0
    1.5276    0.7923   -0.0103 N   0  0  0  0  0  0  0  0  0  0  0  0
    3.9335    1.4967    1.7761 H   0  0  0  0  0  0  0  0  0  0  0  0
    3.5221    2.6178    0.3848 H   0  0  0  0  0  0  0  0  0  0  0  0
    4.7730    1.3710    0.1910 H   0  0  0  0  0  0  0  0  0  0  0  0
   -0.5959   -0.4916   -1.7254 H   0  0  0  0  0  0  0  0  0  0  0  0
   -1.5781   -2.5650   -0.9359 H   0  0  0  0  0  0  0  0  0  0  0  0
    0.1974   -2.7275   -1.1741 H   0  0  0  0  0  0  0  0  0  0  0  0
    0.3242   -2.1792    1.3031 H   0  0  0  0  0  0  0  0  0  0  0  0
   -0.1398   -3.7236    0.7570 H   0  0  0  0  0  0  0  0  0  0  0  0
   -1.5354    1.4688   -1.2214 H   0  0  0  0  0  0  0  0  0  0  0  0
   -2.6992    0.1091   -1.3416 H   0  0  0  0  0  0  0  0  0  0  0  0
   -3.7289    0.8116    0.8265 H   0  0  0  0  0  0  0  0  0  0  0  0
   -3.6914    2.1481   -0.4258 H   0  0  0  0  0  0  0  0  0  0  0  0
   -2.7554    2.2625    2.0165 H   0  0  0  0  0  0  0  0  0  0  0  0
  1  2  1  0
  2  3  1  0
  3  4  2  0
  4  5  1  0
  5  6  1  0
  6  7  1  0
  7  8  1  0
  6  9  1  0
  9 10  1  0
 10 11  1  0
 11 12  1  0
  5 13  2  0
 13  2  1  0
  1 14  1  0
  1 15  1  0
  1 16  1  0
  6 17  1  6
  7 18  1  0
  7 19  1  0
  8 20  1  0
  8 21  1  0
 10 22  1  0
 10 23  1  0
 11 24  1  0
 11 25  1  0
 12 26  1  0
M  END
$$$$

     RDKit          3D

 26 26  0  0  0  0  0  0  0  0999 V2000
    4.0150    1.3418    0.7189 C   0  0  0  0  0  0  0  0  0  0  0  0
    2.9947    0.4195    0.2524 N   0  0  0  0  0  0  0  0  0  0  0  0
    3.1484   -0.8571    0.0026 N   0  0  0  0  0  0  0  0  0  0  0  0
    2.0111   -1.3862   -0.4046 N   0  0  0  0  0  0  0  0  0  0  0  0
    1.0849   -0.4156   -0.4193 C   0  0  0  0  0  0  0  0  0  0  0  0
   -0.3397   -0.5560   -0.8112 C   0  0  1  0  0  0  0  0  0  0  0  0
   -0.6573   -2.0159   -0.9864 C   0  0  0  0  0  0  0  0  0  0  0  0
   -0.5393   -2.7124    0.2729 N   0  0  0  0  0  0  0  0  0  0  0  0
   -1.1724    0.0826    0.0787 O   0  0  0  0  0  0  0  0  0  0  0  0
   -1.8640    1.1171   -0.5554 C   0  0  0  0  0  0  0  0  0  0  0  0
   -2.7857    1.8374    0.3928 C   0  0  0  0  0  0  0  0  0  0  0  0
   -3.7361    1.0035    0.9390 O   0  0  0  0  0  0  0  0  0  0  0  0
    1.7302    0.7042   -0.0029 N   0  0  0  0  0  0  0  0  0  0  0  0
    3.5028    2.2847    1.0668 H   0  0  0  0  0  0  0  0  0  0  0  0
    4.5781    0.9591    1.5733 H   0  0  0  0  0  0  0  0  0  0  0  0
    4.6686    1.6829   -0.1247 H   0  0  0  0  0  0  0  0  0  0  0  0
   -0.4373   -0.0708   -1.8248 H   0  0  0  0  0  0  0  0  0  0  0  0
    0.0839   -2.4288   -1.7079 H   0  0  0  0  0  0  0  0  0  0  0  0
   -1.6732   -2.1655   -1.4100 H   0  0  0  0  0  0  0  0  0  0  0  0
   -1.5032   -2.9820    0.6300 H   0  0  0  0  0  0  0  0  0  0  0  0
   -0.0329   -3.6166    0.1501 H   0  0  0  0  0  0  0  0  0  0  0  0
   -2.4592    0.7167   -1.3803 H   0  0  0  0  0  0  0  0  0  0  0  0
   -1.1164    1.8231   -0.9505 H   0  0  0  0  0  0  0  0  0  0  0  0
   -2.2275    2.2971    1.2473 H   0  0  0  0  0  0  0  0  0  0  0  0
   -3.2682    2.6644   -0.1489 H   0  0  0  0  0  0  0  0  0  0  0  0
   -4.0051    0.2728    0.3453 H   0  0  0  0  0  0  0  0  0  0  0  0
  1  2  1  0
  2  3  1  0
  3  4  2  0
  4  5  1  0
  5  6  1  0
  6  7  1  0
  7  8  1  0
  6  9  1  0
  9 10  1  0
 10 11  1  0
 11 12  1  0
  5 13  2  0
 13  2  1  0
  1 14  1  0
  1 15  1  0
  1 16  1  0
  6 17  1  6
  7 18  1  0
  7 19  1  0
  8 20  1  0
  8 21  1  0
 10 22  1  0
 10 23  1  0
 11 24  1  0
 11 25  1  0
 12 26  1  0
M  END
$$$$

     RDKit          3D

 26 26  0  0  0  0  0  0  0  0999 V2000
    4.5483    0.4172   -0.0495 C   0  0  0  0  0  0  0  0  0  0  0  0
    3.1288    0.7441   -0.0350 N   0  0  0  0  0  0  0  0  0  0  0  0
    2.5945    1.9712   -0.0264 N   0  0  0  0  0  0  0  0  0  0  0  0
    1.2767    1.8352   -0.0141 N   0  0  0  0  0  0  0  0  0  0  0  0
    0.9726    0.5245   -0.0150 C   0  0  0  0  0  0  0  0  0  0  0  0
   -0.4211   -0.0264   -0.0032 C   0  0  1  0  0  0  0  0  0  0  0  0
   -0.3108   -1.4845    0.4230 C   0  0  0  0  0  0  0  0  0  0  0  0
    0.5279   -2.1631   -0.5217 N   0  0  0  0  0  0  0  0  0  0  0  0
   -1.2215    0.6138    0.9015 O   0  0  0  0  0  0  0  0  0  0  0  0
   -2.3623    1.1655    0.3862 C   0  0  0  0  0  0  0  0  0  0  0  0
   -3.2881    0.1741   -0.2689 C   0  0  0  0  0  0  0  0  0  0  0  0
   -4.3962    0.9013   -0.7379 O   0  0  0  0  0  0  0  0  0  0  0  0
    2.1386   -0.1251   -0.0280 N   0  0  0  0  0  0  0  0  0  0  0  0
    4.8552    0.2174    1.0091 H   0  0  0  0  0  0  0  0  0  0  0  0
    4.7383   -0.4981   -0.6462 H   0  0  0  0  0  0  0  0  0  0  0  0
    5.1425    1.2646   -0.4087 H   0  0  0  0  0  0  0  0  0  0  0  0
   -0.8001   -0.0161   -1.0399 H   0  0  0  0  0  0  0  0  0  0  0  0
    0.0961   -1.5071    1.4441 H   0  0  0  0  0  0  0  0  0  0  0  0
   -1.3191   -1.9510    0.4529 H   0  0  0  0  0  0  0  0  0  0  0  0
    0.0326   -2.4060   -1.3859 H   0  0  0  0  0  0  0  0  0  0  0  0
    0.8636   -3.0665   -0.0907 H   0  0  0  0  0  0  0  0  0  0  0  0
   -2.1567    2.0118   -0.3150 H   0  0  0  0  0  0  0  0  0  0  0  0
   -2.9326    1.6124    1.2414 H   0  0  0  0  0  0  0  0  0  0  0  0
   -3.6425   -0.5573    0.4766 H   0  0  0  0  0  0  0  0  0  0  0  0
   -2.8342   -0.2946   -1.1684 H   0  0  0  0  0  0  0  0  0  0  0  0
   -5.2307    0.6427   -0.2754 H   0  0  0  0  0  0  0  0  0  0  0  0
  1  2  1  0
  2  3  1  0
  3  4  2  0
  4  5  1  0
  5  6  1  0
  6  7  1  0
  7  8  1  0
  6  9  1  0
  9 10  1  0
 10 11  1  0
 11 12  1  0
  5 13  2  0
 13  2  1  0
  1 14  1  0
  1 15  1  0
  1 16  1  0
  6 17  1  6
  7 18  1  0
  7 19  1  0
  8 20  1  0
  8 21  1  0
 10 22  1  0
 10 23  1  0
 11 24  1  0
 11 25  1  0
 12 26  1  0
M  END
$$$$

     RDKit          3D

 26 26  0  0  0  0  0  0  0  0999 V2000
    3.7537   -1.9250    0.1820 C   0  0  0  0  0  0  0  0  0  0  0  0
    2.8299   -0.8378   -0.0563 N   0  0  0  0  0  0  0  0  0  0  0  0
    3.1323    0.3354   -0.5769 N   0  0  0  0  0  0  0  0  0  0  0  0
    2.0398    1.1060   -0.6570 N   0  0  0  0  0  0  0  0  0  0  0  0
    1.0218    0.3915   -0.1708 C   0  0  0  0  0  0  0  0  0  0  0  0
   -0.3784    0.8527   -0.0675 C   0  0  1  0  0  0  0  0  0  0  0  0
   -0.5552    2.1805   -0.8169 C   0  0  0  0  0  0  0  0  0  0  0  0
    0.4571    3.0718   -0.2759 N   0  0  0  0  0  0  0  0  0  0  0  0
   -1.2900   -0.0899   -0.4928 O   0  0  0  0  0  0  0  0  0  0  0  0
   -2.1225   -0.3978    0.5771 C   0  0  0  0  0  0  0  0  0  0  0  0
   -3.1628   -1.4297    0.2076 C   0  0  0  0  0  0  0  0  0  0  0  0
   -2.5754   -2.6174   -0.2075 O   0  0  0  0  0  0  0  0  0  0  0  0
    1.5113   -0.7949    0.1945 N   0  0  0  0  0  0  0  0  0  0  0  0
    4.3254   -2.0796   -0.7647 H   0  0  0  0  0  0  0  0  0  0  0  0
    3.1930   -2.8421    0.4570 H   0  0  0  0  0  0  0  0  0  0  0  0
    4.4797   -1.6144    0.9454 H   0  0  0  0  0  0  0  0  0  0  0  0
   -0.5379    1.1262    1.0147 H   0  0  0  0  0  0  0  0  0  0  0  0
   -0.4644    2.0490   -1.8946 H   0  0  0  0  0  0  0  0  0  0  0  0
   -1.5390    2.5769   -0.5069 H   0  0  0  0  0  0  0  0  0  0  0  0
    0.5600    3.9232   -0.8705 H   0  0  0  0  0  0  0  0  0  0  0  0
    0.1801    3.3115    0.7042 H   0  0  0  0  0  0  0  0  0  0  0  0
   -2.6797    0.5402    0.8213 H   0  0  0  0  0  0  0  0  0  0  0  0
   -1.5352   -0.7318    1.4545 H   0  0  0  0  0  0  0  0  0  0  0  0
   -3.8842   -1.0121   -0.4937 H   0  0  0  0  0  0  0  0  0  0  0  0
   -3.7072   -1.6725    1.1598 H   0  0  0  0  0  0  0  0  0  0  0  0
   -3.0524   -3.4199    0.1341 H   0  0  0  0  0  0  0  0  0  0  0  0
  1  2  1  0
  2  3  1  0
  3  4  2  0
  4  5  1  0
  5  6  1  0
  6  7  1  0
  7  8  1  0
  6  9  1  0
  9 10  1  0
 10 11  1  0
 11 12  1  0
  5 13  2  0
 13  2  1  0
  1 14  1  0
  1 15  1  0
  1 16  1  0
  6 17  1  1
  7 18  1  0
  7 19  1  0
  8 20  1  0
  8 21  1  0
 10 22  1  0
 10 23  1  0
 11 24  1  0
 11 25  1  0
 12 26  1  0
M  END
$$$$

     RDKit          3D

 26 26  0  0  0  0  0  0  0  0999 V2000
    3.8610   -1.3140    1.6132 C   0  0  0  0  0  0  0  0  0  0  0  0
    2.7450   -0.9057    0.7618 N   0  0  0  0  0  0  0  0  0  0  0  0
    2.5339   -1.2004   -0.5098 N   0  0  0  0  0  0  0  0  0  0  0  0
    1.4060   -0.6303   -0.9003 N   0  0  0  0  0  0  0  0  0  0  0  0
    0.8673    0.0550    0.1463 C   0  0  0  0  0  0  0  0  0  0  0  0
   -0.3978    0.8339    0.1247 C   0  0  1  0  0  0  0  0  0  0  0  0
   -0.1923    2.2119   -0.4549 C   0  0  0  0  0  0  0  0  0  0  0  0
    0.2059    2.1391   -1.8571 N   0  0  0  0  0  0  0  0  0  0  0  0
   -1.3610    0.1047   -0.5087 O   0  0  0  0  0  0  0  0  0  0  0  0
   -2.4456   -0.2405    0.2501 C   0  0  0  0  0  0  0  0  0  0  0  0
   -3.3883   -1.0462   -0.6536 C   0  0  0  0  0  0  0  0  0  0  0  0
   -2.7286   -2.1887   -1.1190 O   0  0  0  0  0  0  0  0  0  0  0  0
    1.7320   -0.1432    1.1589 N   0  0  0  0  0  0  0  0  0  0  0  0
    4.4653   -0.4196    1.8460 H   0  0  0  0  0  0  0  0  0  0  0  0
    4.4427   -2.1068    1.1047 H   0  0  0  0  0  0  0  0  0  0  0  0
    3.5011   -1.7409    2.5731 H   0  0  0  0  0  0  0  0  0  0  0  0
   -0.7360    0.9921    1.1836 H   0  0  0  0  0  0  0  0  0  0  0  0
    0.6238    2.7537    0.0632 H   0  0  0  0  0  0  0  0  0  0  0  0
   -1.0824    2.8414   -0.4017 H   0  0  0  0  0  0  0  0  0  0  0  0
    0.2658    3.1199   -2.2104 H   0  0  0  0  0  0  0  0  0  0  0  0
    1.1837    1.7569   -1.8879 H   0  0  0  0  0  0  0  0  0  0  0  0
   -2.1633   -0.9469    1.0712 H   0  0  0  0  0  0  0  0  0  0  0  0
   -3.0380    0.6179    0.6230 H   0  0  0  0  0  0  0  0  0  0  0  0
   -3.6632   -0.4593   -1.5561 H   0  0  0  0  0  0  0  0  0  0  0  0
   -4.2690   -1.3482   -0.0774 H   0  0  0  0  0  0  0  0  0  0  0  0
   -2.3681   -2.7357   -0.3832 H   0  0  0  0  0  0  0  0  0  0  0  0
  1  2  1  0
  2  3  1  0
  3  4  2  0
  4  5  1  0
  5  6  1  0
  6  7  1  0
  7  8  1  0
  6  9  1  0
  9 10  1  0
 10 11  1  0
 11 12  1  0
  5 13  2  0
 13  2  1  0
  1 14  1  0
  1 15  1  0
  1 16  1  0
  6 17  1  1
  7 18  1  0
  7 19  1  0
  8 20  1  0
  8 21  1  0
 10 22  1  0
 10 23  1  0
 11 24  1  0
 11 25  1  0
 12 26  1  0
M  END
$$$$

     RDKit          3D

 26 26  0  0  0  0  0  0  0  0999 V2000
    3.5678    1.4809   -0.9224 C   0  0  0  0  0  0  0  0  0  0  0  0
    2.5989    0.4375   -0.6502 N   0  0  0  0  0  0  0  0  0  0  0  0
    2.7660   -0.8729   -0.6897 N   0  0  0  0  0  0  0  0  0  0  0  0
    1.6317   -1.4755   -0.3742 N   0  0  0  0  0  0  0  0  0  0  0  0
    0.6946   -0.5169   -0.1210 C   0  0  0  0  0  0  0  0  0  0  0  0
   -0.7174   -0.7488    0.2691 C   0  0  1  0  0  0  0  0  0  0  0  0
   -0.8502   -2.2036    0.6977 C   0  0  0  0  0  0  0  0  0  0  0  0
   -0.4732   -3.1127   -0.3444 N   0  0  0  0  0  0  0  0  0  0  0  0
   -1.0920    0.0733    1.3073 O   0  0  0  0  0  0  0  0  0  0  0  0
   -2.1884    0.8614    1.0680 C   0  0  0  0  0  0  0  0  0  0  0  0
   -2.0573    1.8148   -0.0760 C   0  0  0  0  0  0  0  0  0  0  0  0
   -0.9962    2.6860    0.1574 O   0  0  0  0  0  0  0  0  0  0  0  0
    1.3377    0.6360   -0.3039 N   0  0  0  0  0  0  0  0  0  0  0  0
    3.0500    2.3418   -1.3988 H   0  0  0  0  0  0  0  0  0  0  0  0
    4.0779    1.8150    0.0003 H   0  0  0  0  0  0  0  0  0  0  0  0
    4.3137    1.1069   -1.6601 H   0  0  0  0  0  0  0  0  0  0  0  0
   -1.3789   -0.6307   -0.6212 H   0  0  0  0  0  0  0  0  0  0  0  0
   -1.9114   -2.4209    0.9581 H   0  0  0  0  0  0  0  0  0  0  0  0
   -0.2153   -2.4076    1.5796 H   0  0  0  0  0  0  0  0  0  0  0  0
   -0.4237   -2.6849   -1.2859 H   0  0  0  0  0  0  0  0  0  0  0  0
   -0.9392   -4.0264   -0.3099 H   0  0  0  0  0  0  0  0  0  0  0  0
   -3.0944    0.2300    0.9993 H   0  0  0  0  0  0  0  0  0  0  0  0
   -2.3281    1.4920    1.9948 H   0  0  0  0  0  0  0  0  0  0  0  0
   -1.9356    1.2831   -1.0478 H   0  0  0  0  0  0  0  0  0  0  0  0
   -2.9681    2.4419   -0.1500 H   0  0  0  0  0  0  0  0  0  0  0  0
   -0.4688    2.4002    0.9239 H   0  0  0  0  0  0  0  0  0  0  0  0
  1  2  1  0
  2  3  1  0
  3  4  2  0
  4  5  1  0
  5  6  1  0
  6  7  1  0
  7  8  1  0
  6  9  1  0
  9 10  1  0
 10 11  1  0
 11 12  1  0
  5 13  2  0
 13  2  1  0
  1 14  1  0
  1 15  1  0
  1 16  1  0
  6 17  1  6
  7 18  1  0
  7 19  1  0
  8 20  1  0
  8 21  1  0
 10 22  1  0
 10 23  1  0
 11 24  1  0
 11 25  1  0
 12 26  1  0
M  END
$$$$

     RDKit          3D

 26 26  0  0  0  0  0  0  0  0999 V2000
    4.4114    0.7023    0.0834 C   0  0  0  0  0  0  0  0  0  0  0  0
    3.0383    0.4064    0.5038 N   0  0  0  0  0  0  0  0  0  0  0  0
    2.5484    0.4380    1.7239 N   0  0  0  0  0  0  0  0  0  0  0  0
    1.2778    0.1114    1.7005 N   0  0  0  0  0  0  0  0  0  0  0  0
    0.9259   -0.1407    0.4332 C   0  0  0  0  0  0  0  0  0  0  0  0
   -0.3945   -0.5453   -0.0976 C   0  0  1  0  0  0  0  0  0  0  0  0
   -0.6551   -2.0287    0.1244 C   0  0  0  0  0  0  0  0  0  0  0  0
    0.4666   -2.8225   -0.4003 N   0  0  0  0  0  0  0  0  0  0  0  0
   -1.4488    0.1573    0.3991 O   0  0  0  0  0  0  0  0  0  0  0  0
   -2.2073    0.8260   -0.5460 C   0  0  0  0  0  0  0  0  0  0  0  0
   -3.3598    1.5819    0.0941 C   0  0  0  0  0  0  0  0  0  0  0  0
   -4.1086    2.2465   -0.8752 O   0  0  0  0  0  0  0  0  0  0  0  0
    2.0441    0.0517   -0.2875 N   0  0  0  0  0  0  0  0  0  0  0  0
    4.7715    1.5856    0.6648 H   0  0  0  0  0  0  0  0  0  0  0  0
    4.4471    0.9978   -0.9797 H   0  0  0  0  0  0  0  0  0  0  0  0
    5.0935   -0.1310    0.2743 H   0  0  0  0  0  0  0  0  0  0  0  0
   -0.3882   -0.4105   -1.2091 H   0  0  0  0  0  0  0  0  0  0  0  0
   -0.8540   -2.2622    1.1890 H   0  0  0  0  0  0  0  0  0  0  0  0
   -1.5393   -2.3681   -0.4522 H   0  0  0  0  0  0  0  0  0  0  0  0
    0.7949   -2.4123   -1.2790 H   0  0  0  0  0  0  0  0  0  0  0  0
    0.1537   -3.8066   -0.4473 H   0  0  0  0  0  0  0  0  0  0  0  0
   -2.6939    0.0254   -1.1735 H   0  0  0  0  0  0  0  0  0  0  0  0
   -1.6381    1.4470   -1.2359 H   0  0  0  0  0  0  0  0  0  0  0  0
   -3.0062    2.3452    0.8145 H   0  0  0  0  0  0  0  0  0  0  0  0
   -4.0315    0.9049    0.6225 H   0  0  0  0  0  0  0  0  0  0  0  0
   -3.6478    3.1006   -1.0620 H   0  0  0  0  0  0  0  0  0  0  0  0
  1  2  1  0
  2  3  1  0
  3  4  2  0
  4  5  1  0
  5  6  1  0
  6  7  1  0
  7  8  1  0
  6  9  1  0
  9 10  1  0
 10 11  1  0
 11 12  1  0
  5 13  2  0
 13  2  1  0
  1 14  1  0
  1 15  1  0
  1 16  1  0
  6 17  1  6
  7 18  1  0
  7 19  1  0
  8 20  1  0
  8 21  1  0
 10 22  1  0
 10 23  1  0
 11 24  1  0
 11 25  1  0
 12 26  1  0
M  END
$$$$
