
     RDKit          3D

 28 28  0  0  0  0  0  0  0  0999 V2000
    3.3354    1.0174    0.4409 C   0  0  0  0  0  0  0  0  0  0  0  0
    2.8642   -0.4023    0.3468 C   0  0  0  0  0  0  0  0  0  0  0  0
    1.8666   -0.5936   -0.6884 N   0  0  0  0  0  0  0  0  0  0  0  0
    2.1645   -0.9060   -1.9361 N   0  0  0  0  0  0  0  0  0  0  0  0
    1.0499   -1.0098   -2.6293 N   0  0  0  0  0  0  0  0  0  0  0  0
    0.0241   -0.7660   -1.8385 N   0  0  0  0  0  0  0  0  0  0  0  0
    0.5367   -0.5058   -0.6244 C   0  0  0  0  0  0  0  0  0  0  0  0
   -0.1807   -0.1712    0.6207 C   0  0  0  0  0  0  0  0  0  0  0  0
   -1.6605   -0.1153    0.5138 C   0  0  1  0  0  0  0  0  0  0  0  0
   -2.1406    0.9225   -0.4877 C   0  0  0  0  0  0  0  0  0  0  0  0
   -1.6534    2.2102   -0.0423 N   0  0  0  0  0  0  0  0  0  0  0  0
   -2.3357   -1.4401    0.3532 C   0  0  0  0  0  0  0  0  0  0  0  0
   -1.9785   -2.1601   -0.7503 O   0  0  0  0  0  0  0  0  0  0  0  0
    3.1653    1.4216    1.4784 H   0  0  0  0  0  0  0  0  0  0  0  0
    2.7571    1.6566   -0.2483 H   0  0  0  0  0  0  0  0  0  0  0  0
    4.4016    1.1454    0.1717 H   0  0  0  0  0  0  0  0  0  0  0  0
    3.7419   -1.0430    0.1233 H   0  0  0  0  0  0  0  0  0  0  0  0
    2.4926   -0.7363    1.3442 H   0  0  0  0  0  0  0  0  0  0  0  0
    0.0824   -0.8832    1.4244 H   0  0  0  0  0  0  0  0  0  0  0  0
    0.1719    0.8456    0.9360 H   0  0  0  0  0  0  0  0  0  0  0  0
   -2.0202    0.2847    1.5116 H   0  0  0  0  0  0  0  0  0  0  0  0
   -3.2432    0.9129   -0.5475 H   0  0  0  0  0  0  0  0  0  0  0  0
   -1.7664    0.7539   -1.5089 H   0  0  0  0  0  0  0  0  0  0  0  0
   -0.8798    2.5836   -0.6165 H   0  0  0  0  0  0  0  0  0  0  0  0
   -2.3941    2.8761    0.1964 H   0  0  0  0  0  0  0  0  0  0  0  0
   -3.4343   -1.2424    0.2924 H   0  0  0  0  0  0  0  0  0  0  0  0
   -2.1932   -2.0255    1.2847 H   0  0  0  0  0  0  0  0  0  0  0  0
   -2.7734   -2.6298   -1.1485 H   0  0  0  0  0  0  0  0  0  0  0  0
  1  2  1  0
  2  3  1  0
  3  4  1  0
  4  5  2  0
  5  6  1  0
  6  7  2  0
  7  8  1  0
  8  9  1  0
  9 10  1  0
 10 11  1  0
  9 12  1  0
 12 13  1  0
  7  3  1  0
  1 14  1  0
  1 15  1  0
  1 16  1  0
  2 17  1  0
  2 18  1  0
  8 19  1  0
  8 20  1  0
  9 21  1  1
 10 22  1  0
 10 23  1  0
 11 24  1  0
 11 25  1  0
 12 26  1  0
 12 27  1  0
 13 28  1  0
M  END
$$$$

     RDKit          3D

 28 28  0  0  0  0  0  0  0  0999 V2000
    3.3777    0.8900   -0.0844 C   0  0  0  0  0  0  0  0  0  0  0  0
    2.8184   -0.3056    0.6606 C   0  0  0  0  0  0  0  0  0  0  0  0
    1.8543   -1.0291   -0.1476 N   0  0  0  0  0  0  0  0  0  0  0  0
    2.1840   -2.0154   -0.9492 N   0  0  0  0  0  0  0  0  0  0  0  0
    1.1233   -2.4983   -1.5648 N   0  0  0  0  0  0  0  0  0  0  0  0
    0.1036   -1.7744   -1.1183 N   0  0  0  0  0  0  0  0  0  0  0  0
    0.5211   -0.8610   -0.2440 C   0  0  0  0  0  0  0  0  0  0  0  0
   -0.1816    0.1695    0.5284 C   0  0  0  0  0  0  0  0  0  0  0  0
   -1.6492    0.2409    0.3226 C   0  0  1  0  0  0  0  0  0  0  0  0
   -2.0178    0.5294   -1.1180 C   0  0  0  0  0  0  0  0  0  0  0  0
   -1.4246    1.8080   -1.4644 N   0  0  0  0  0  0  0  0  0  0  0  0
   -2.4345   -0.9350    0.7894 C   0  0  0  0  0  0  0  0  0  0  0  0
   -2.2492   -1.1115    2.1613 O   0  0  0  0  0  0  0  0  0  0  0  0
    3.2769    1.7986    0.5458 H   0  0  0  0  0  0  0  0  0  0  0  0
    2.8611    1.0732   -1.0446 H   0  0  0  0  0  0  0  0  0  0  0  0
    4.4765    0.7369   -0.2292 H   0  0  0  0  0  0  0  0  0  0  0  0
    3.6550   -0.9922    0.9777 H   0  0  0  0  0  0  0  0  0  0  0  0
    2.3435    0.0416    1.6089 H   0  0  0  0  0  0  0  0  0  0  0  0
    0.2523    1.1531    0.2491 H   0  0  0  0  0  0  0  0  0  0  0  0
    0.0452    0.0317    1.6046 H   0  0  0  0  0  0  0  0  0  0  0  0
   -2.0151    1.1214    0.9034 H   0  0  0  0  0  0  0  0  0  0  0  0
   -1.6445   -0.2911   -1.7588 H   0  0  0  0  0  0  0  0  0  0  0  0
   -3.1356    0.6239   -1.1727 H   0  0  0  0  0  0  0  0  0  0  0  0
   -1.8891    2.2119   -2.3043 H   0  0  0  0  0  0  0  0  0  0  0  0
   -1.6406    2.4579   -0.6743 H   0  0  0  0  0  0  0  0  0  0  0  0
   -2.2349   -1.8738    0.2571 H   0  0  0  0  0  0  0  0  0  0  0  0
   -3.5104   -0.7049    0.6404 H   0  0  0  0  0  0  0  0  0  0  0  0
   -2.8657   -0.4958    2.6255 H   0  0  0  0  0  0  0  0  0  0  0  0
  1  2  1  0
  2  3  1  0
  3  4  1  0
  4  5  2  0
  5  6  1  0
  6  7  2  0
  7  8  1  0
  8  9  1  0
  9 10  1  0
 10 11  1  0
  9 12  1  0
 12 13  1  0
  7  3  1  0
  1 14  1  0
  1 15  1  0
  1 16  1  0
  2 17  1  0
  2 18  1  0
  8 19  1  0
  8 20  1  0
  9 21  1  1
 10 22  1  0
 10 23  1  0
 11 24  1  0
 11 25  1  0
 12 26  1  0
 12 27  1  0
 13 28  1  0
M  END
$$$$

     RDKit          3D

 28 28  0  0  0  0  0  0  0  0999 V2000
    3.2353    0.4009    0.9711 C   0  0  0  0  0  0  0  0  0  0  0  0
    2.8059   -0.8116    0.1650 C   0  0  0  0  0  0  0  0  0  0  0  0
    2.0345   -0.3400   -0.9576 N   0  0  0  0  0  0  0  0  0  0  0  0
    2.5472   -0.0250   -2.1273 N   0  0  0  0  0  0  0  0  0  0  0  0
    1.5879    0.3679   -2.9331 N   0  0  0  0  0  0  0  0  0  0  0  0
    0.4563    0.2968   -2.2545 N   0  0  0  0  0  0  0  0  0  0  0  0
    0.7012   -0.1433   -1.0130 C   0  0  0  0  0  0  0  0  0  0  0  0
   -0.2218   -0.4005    0.1232 C   0  0  0  0  0  0  0  0  0  0  0  0
   -1.6123   -0.0459   -0.2929 C   0  0  1  0  0  0  0  0  0  0  0  0
   -2.6186   -0.2992    0.8231 C   0  0  0  0  0  0  0  0  0  0  0  0
   -2.5973   -1.6982    1.1855 N   0  0  0  0  0  0  0  0  0  0  0  0
   -1.7465    1.4552   -0.5809 C   0  0  0  0  0  0  0  0  0  0  0  0
   -1.4300    2.1843    0.5671 O   0  0  0  0  0  0  0  0  0  0  0  0
    3.6066    1.2147    0.2971 H   0  0  0  0  0  0  0  0  0  0  0  0
    3.9837    0.0992    1.7221 H   0  0  0  0  0  0  0  0  0  0  0  0
    2.3367    0.8004    1.4684 H   0  0  0  0  0  0  0  0  0  0  0  0
    3.7432   -1.3108   -0.1648 H   0  0  0  0  0  0  0  0  0  0  0  0
    2.2043   -1.4510    0.8425 H   0  0  0  0  0  0  0  0  0  0  0  0
    0.0585    0.1955    1.0177 H   0  0  0  0  0  0  0  0  0  0  0  0
   -0.2020   -1.4873    0.3344 H   0  0  0  0  0  0  0  0  0  0  0  0
   -1.9066   -0.5964   -1.2028 H   0  0  0  0  0  0  0  0  0  0  0  0
   -3.6225   -0.1063    0.3737 H   0  0  0  0  0  0  0  0  0  0  0  0
   -2.4205    0.3244    1.6911 H   0  0  0  0  0  0  0  0  0  0  0  0
   -2.9703   -2.3086    0.4514 H   0  0  0  0  0  0  0  0  0  0  0  0
   -1.7112   -1.9873    1.6139 H   0  0  0  0  0  0  0  0  0  0  0  0
   -1.1657    1.7696   -1.4387 H   0  0  0  0  0  0  0  0  0  0  0  0
   -2.8433    1.6173   -0.7893 H   0  0  0  0  0  0  0  0  0  0  0  0
   -2.2326    2.2851    1.1308 H   0  0  0  0  0  0  0  0  0  0  0  0
  1  2  1  0
  2  3  1  0
  3  4  1  0
  4  5  2  0
  5  6  1  0
  6  7  2  0
  7  8  1  0
  8  9  1  0
  9 10  1  0
 10 11  1  0
  9 12  1  0
 12 13  1  0
  7  3  1  0
  1 14  1  0
  1 15  1  0
  1 16  1  0
  2 17  1  0
  2 18  1  0
  8 19  1  0
  8 20  1  0
  9 21  1  6
 10 22  1  0
 10 23  1  0
 11 24  1  0
 11 25  1  0
 12 26  1  0
 12 27  1  0
 13 28  1  0
M  END
$$$$

     RDKit          3D

 28 28  0  0  0  0  0  0  0  0999 V2000
    3.1090    1.6189    0.0273 C   0  0  0  0  0  0  0  0  0  0  0  0
    2.9994    0.1106    0.1573 C   0  0  0  0  0  0  0  0  0  0  0  0
    1.9525   -0.3222   -0.7360 N   0  0  0  0  0  0  0  0  0  0  0  0
    2.1019   -0.6718   -1.9875 N   0  0  0  0  0  0  0  0  0  0  0  0
    0.9373   -1.0142   -2.5151 N   0  0  0  0  0  0  0  0  0  0  0  0
    0.0534   -0.8681   -1.5546 N   0  0  0  0  0  0  0  0  0  0  0  0
    0.6327   -0.4449   -0.4442 C   0  0  0  0  0  0  0  0  0  0  0  0
   -0.0095   -0.1655    0.8489 C   0  0  0  0  0  0  0  0  0  0  0  0
   -1.4903   -0.3731    0.8873 C   0  0  1  0  0  0  0  0  0  0  0  0
   -2.1918    0.5069   -0.0918 C   0  0  0  0  0  0  0  0  0  0  0  0
   -1.9428    1.9150    0.1774 N   0  0  0  0  0  0  0  0  0  0  0  0
   -1.8565   -1.8311    0.6606 C   0  0  0  0  0  0  0  0  0  0  0  0
   -3.2407   -2.0014    0.7033 O   0  0  0  0  0  0  0  0  0  0  0  0
    2.3194    2.0729    0.6835 H   0  0  0  0  0  0  0  0  0  0  0  0
    2.9802    1.9746   -0.9960 H   0  0  0  0  0  0  0  0  0  0  0  0
    4.0729    2.0045    0.4336 H   0  0  0  0  0  0  0  0  0  0  0  0
    2.8090   -0.1650    1.2057 H   0  0  0  0  0  0  0  0  0  0  0  0
    3.9626   -0.3092   -0.2117 H   0  0  0  0  0  0  0  0  0  0  0  0
    0.5047   -0.8159    1.5988 H   0  0  0  0  0  0  0  0  0  0  0  0
    0.2340    0.8757    1.1819 H   0  0  0  0  0  0  0  0  0  0  0  0
   -1.8150   -0.0635    1.9191 H   0  0  0  0  0  0  0  0  0  0  0  0
   -3.2834    0.2940   -0.0390 H   0  0  0  0  0  0  0  0  0  0  0  0
   -1.8957    0.3023   -1.1265 H   0  0  0  0  0  0  0  0  0  0  0  0
   -1.9102    2.1298    1.1927 H   0  0  0  0  0  0  0  0  0  0  0  0
   -2.6670    2.4760   -0.3180 H   0  0  0  0  0  0  0  0  0  0  0  0
   -1.5404   -2.0940   -0.3656 H   0  0  0  0  0  0  0  0  0  0  0  0
   -1.3159   -2.4916    1.3573 H   0  0  0  0  0  0  0  0  0  0  0  0
   -3.5099   -2.6497    1.4065 H   0  0  0  0  0  0  0  0  0  0  0  0
  1  2  1  0
  2  3  1  0
  3  4  1  0
  4  5  2  0
  5  6  1  0
  6  7  2  0
  7  8  1  0
  8  9  1  0
  9 10  1  0
 10 11  1  0
  9 12  1  0
 12 13  1  0
  7  3  1  0
  1 14  1  0
  1 15  1  0
  1 16  1  0
  2 17  1  0
  2 18  1  0
  8 19  1  0
  8 20  1  0
  9 21  1  1
 10 22  1  0
 10 23  1  0
 11 24  1  0
 11 25  1  0
 12 26  1  0
 12 27  1  0
 13 28  1  0
M  END
$$$$

     RDKit          3D

 28 28  0  0  0  0  0  0  0  0999 V2000
    3.4535    1.2939   -0.2906 C   0  0  0  0  0  0  0  0  0  0  0  0
    2.9500   -0.0885   -0.5746 C   0  0  0  0  0  0  0  0  0  0  0  0
    2.3007   -0.6779    0.5710 N   0  0  0  0  0  0  0  0  0  0  0  0
    2.8305   -1.4032    1.5296 N   0  0  0  0  0  0  0  0  0  0  0  0
    1.8926   -1.7571    2.4032 N   0  0  0  0  0  0  0  0  0  0  0  0
    0.7462   -1.2294    1.9639 N   0  0  0  0  0  0  0  0  0  0  0  0
    0.9782   -0.5608    0.8358 C   0  0  0  0  0  0  0  0  0  0  0  0
    0.0452    0.1911    0.0039 C   0  0  0  0  0  0  0  0  0  0  0  0
   -1.3769    0.1124    0.4868 C   0  0  1  0  0  0  0  0  0  0  0  0
   -2.2504    0.9640   -0.4468 C   0  0  0  0  0  0  0  0  0  0  0  0
   -3.6197    0.8875    0.0192 N   0  0  0  0  0  0  0  0  0  0  0  0
   -1.8283   -1.3488    0.3566 C   0  0  0  0  0  0  0  0  0  0  0  0
   -3.1503   -1.4102    0.8042 O   0  0  0  0  0  0  0  0  0  0  0  0
    2.8967    1.6964    0.6027 H   0  0  0  0  0  0  0  0  0  0  0  0
    4.5228    1.3024   -0.0444 H   0  0  0  0  0  0  0  0  0  0  0  0
    3.2021    2.0143   -1.1196 H   0  0  0  0  0  0  0  0  0  0  0  0
    2.2375   -0.1217   -1.4370 H   0  0  0  0  0  0  0  0  0  0  0  0
    3.8075   -0.7309   -0.8859 H   0  0  0  0  0  0  0  0  0  0  0  0
    0.0427   -0.1472   -1.0569 H   0  0  0  0  0  0  0  0  0  0  0  0
    0.3820    1.2693   -0.0671 H   0  0  0  0  0  0  0  0  0  0  0  0
   -1.4903    0.4126    1.5255 H   0  0  0  0  0  0  0  0  0  0  0  0
   -1.8472    2.0028   -0.4048 H   0  0  0  0  0  0  0  0  0  0  0  0
   -2.1111    0.5680   -1.4572 H   0  0  0  0  0  0  0  0  0  0  0  0
   -4.3098    0.9821   -0.7659 H   0  0  0  0  0  0  0  0  0  0  0  0
   -3.7905    1.6285    0.7368 H   0  0  0  0  0  0  0  0  0  0  0  0
   -1.1923   -1.9770    0.9957 H   0  0  0  0  0  0  0  0  0  0  0  0
   -1.7336   -1.6286   -0.7145 H   0  0  0  0  0  0  0  0  0  0  0  0
   -3.5879   -2.2438    0.4520 H   0  0  0  0  0  0  0  0  0  0  0  0
  1  2  1  0
  2  3  1  0
  3  4  1  0
  4  5  2  0
  5  6  1  0
  6  7  2  0
  7  8  1  0
  8  9  1  0
  9 10  1  0
 10 11  1  0
  9 12  1  0
 12 13  1  0
  7  3  1  0
  1 14  1  0
  1 15  1  0
  1 16  1  0
  2 17  1  0
  2 18  1  0
  8 19  1  0
  8 20  1  0
  9 21  1  1
 10 22  1  0
 10 23  1  0
 11 24  1  0
 11 25  1  0
 12 26  1  0
 12 27  1  0
 13 28  1  0
M  END
$$$$

     RDKit          3D

 28 28  0  0  0  0  0  0  0  0999 V2000
    3.0400    1.3179   -0.8065 C   0  0  0  0  0  0  0  0  0  0  0  0
    2.4176    0.8026    0.4591 C   0  0  0  0  0  0  0  0  0  0  0  0
    2.0206   -0.5769    0.3104 N   0  0  0  0  0  0  0  0  0  0  0  0
    2.7969   -1.6068    0.5855 N   0  0  0  0  0  0  0  0  0  0  0  0
    2.1184   -2.7065    0.3366 N   0  0  0  0  0  0  0  0  0  0  0  0
    0.9277   -2.3954   -0.0909 N   0  0  0  0  0  0  0  0  0  0  0  0
    0.8446   -1.0585   -0.1152 C   0  0  0  0  0  0  0  0  0  0  0  0
   -0.3432   -0.2816   -0.5396 C   0  0  0  0  0  0  0  0  0  0  0  0
   -1.2387   -0.0169    0.6525 C   0  0  1  0  0  0  0  0  0  0  0  0
   -2.4601    0.7686    0.2786 C   0  0  0  0  0  0  0  0  0  0  0  0
   -2.1819    2.0548   -0.2844 N   0  0  0  0  0  0  0  0  0  0  0  0
   -1.6947   -1.3261    1.2502 C   0  0  0  0  0  0  0  0  0  0  0  0
   -2.4034   -2.0362    0.2703 O   0  0  0  0  0  0  0  0  0  0  0  0
    4.1040    0.9699   -0.8922 H   0  0  0  0  0  0  0  0  0  0  0  0
    2.4881    0.9737   -1.7024 H   0  0  0  0  0  0  0  0  0  0  0  0
    3.0265    2.4263   -0.8340 H   0  0  0  0  0  0  0  0  0  0  0  0
    1.5173    1.4092    0.7122 H   0  0  0  0  0  0  0  0  0  0  0  0
    3.1795    0.8729    1.2606 H   0  0  0  0  0  0  0  0  0  0  0  0
   -0.9090   -0.8526   -1.2958 H   0  0  0  0  0  0  0  0  0  0  0  0
   -0.0180    0.6686   -0.9949 H   0  0  0  0  0  0  0  0  0  0  0  0
   -0.6489    0.5466    1.4042 H   0  0  0  0  0  0  0  0  0  0  0  0
   -3.0253    0.1829   -0.4777 H   0  0  0  0  0  0  0  0  0  0  0  0
   -3.1096    0.8176    1.1802 H   0  0  0  0  0  0  0  0  0  0  0  0
   -1.1674    2.2491   -0.4094 H   0  0  0  0  0  0  0  0  0  0  0  0
   -2.7655    2.2431   -1.1128 H   0  0  0  0  0  0  0  0  0  0  0  0
   -2.4043   -1.1206    2.0726 H   0  0  0  0  0  0  0  0  0  0  0  0
   -0.8662   -1.9174    1.6809 H   0  0  0  0  0  0  0  0  0  0  0  0
   -3.2446   -2.4086    0.6450 H   0  0  0  0  0  0  0  0  0  0  0  0
  1  2  1  0
  2  3  1  0
  3  4  1  0
  4  5  2  0
  5  6  1  0
  6  7  2  0
  7  8  1  0
  8  9  1  0
  9 10  1  0
 10 11  1  0
  9 12  1  0
 12 13  1  0
  7  3  1  0
  1 14  1  0
  1 15  1  0
  1 16  1  0
  2 17  1  0
  2 18  1  0
  8 19  1  0
  8 20  1  0
  9 21  1  1
 10 22  1  0
 10 23  1  0
 11 24  1  0
 11 25  1  0
 12 26  1  0
 12 27  1  0
 13 28  1  0
M  END
$$$$

     RDKit          3D

 28 28  0  0  0  0  0  0  0  0999 V2000
    3.3052    0.5253   -0.6525 C   0  0  0  0  0  0  0  0  0  0  0  0
    2.1486   -0.2398   -1.2431 C   0  0  0  0  0  0  0  0  0  0  0  0
    1.6069   -1.1334   -0.2518 N   0  0  0  0  0  0  0  0  0  0  0  0
    1.9832   -2.3775   -0.0386 N   0  0  0  0  0  0  0  0  0  0  0  0
    1.2806   -2.8969    0.9379 N   0  0  0  0  0  0  0  0  0  0  0  0
    0.4436   -1.9622    1.3500 N   0  0  0  0  0  0  0  0  0  0  0  0
    0.6296   -0.8511    0.6206 C   0  0  0  0  0  0  0  0  0  0  0  0
   -0.1044    0.4060    0.7712 C   0  0  0  0  0  0  0  0  0  0  0  0
   -1.3413    0.5151   -0.0583 C   0  0  1  0  0  0  0  0  0  0  0  0
   -2.3703   -0.5295    0.2179 C   0  0  0  0  0  0  0  0  0  0  0  0
   -1.9098   -1.8717   -0.0069 N   0  0  0  0  0  0  0  0  0  0  0  0
   -1.9799    1.8711    0.2458 C   0  0  0  0  0  0  0  0  0  0  0  0
   -1.0641    2.8885   -0.0863 O   0  0  0  0  0  0  0  0  0  0  0  0
    4.0715    0.7752   -1.4148 H   0  0  0  0  0  0  0  0  0  0  0  0
    2.9225    1.4367   -0.1456 H   0  0  0  0  0  0  0  0  0  0  0  0
    3.7825   -0.0910    0.1547 H   0  0  0  0  0  0  0  0  0  0  0  0
    2.5313   -0.8358   -2.0999 H   0  0  0  0  0  0  0  0  0  0  0  0
    1.3432    0.4668   -1.5923 H   0  0  0  0  0  0  0  0  0  0  0  0
   -0.3752    0.5613    1.8529 H   0  0  0  0  0  0  0  0  0  0  0  0
    0.5403    1.2828    0.5188 H   0  0  0  0  0  0  0  0  0  0  0  0
   -1.0793    0.4793   -1.1394 H   0  0  0  0  0  0  0  0  0  0  0  0
   -2.7945   -0.4547    1.2399 H   0  0  0  0  0  0  0  0  0  0  0  0
   -3.2185   -0.3557   -0.4867 H   0  0  0  0  0  0  0  0  0  0  0  0
   -1.6711   -2.0901   -0.9742 H   0  0  0  0  0  0  0  0  0  0  0  0
   -2.4301   -2.5836    0.5113 H   0  0  0  0  0  0  0  0  0  0  0  0
   -2.1131    1.9343    1.3438 H   0  0  0  0  0  0  0  0  0  0  0  0
   -2.9346    2.0014   -0.2776 H   0  0  0  0  0  0  0  0  0  0  0  0
   -1.2026    3.1294   -1.0440 H   0  0  0  0  0  0  0  0  0  0  0  0
  1  2  1  0
  2  3  1  0
  3  4  1  0
  4  5  2  0
  5  6  1  0
  6  7  2  0
  7  8  1  0
  8  9  1  0
  9 10  1  0
 10 11  1  0
  9 12  1  0
 12 13  1  0
  7  3  1  0
  1 14  1  0
  1 15  1  0
  1 16  1  0
  2 17  1  0
  2 18  1  0
  8 19  1  0
  8 20  1  0
  9 21  1  6
 10 22  1  0
 10 23  1  0
 11 24  1  0
 11 25  1  0
 12 26  1  0
 12 27  1  0
 13 28  1  0
M  END
$$$$

     RDKit          3D

 28 28  0  0  0  0  0  0  0  0999 V2000
    2.6626    0.9599    0.8856 C   0  0  0  0  0  0  0  0  0  0  0  0
    2.7238   -0.2493   -0.0047 C   0  0  0  0  0  0  0  0  0  0  0  0
    1.9007   -0.0708   -1.1901 N   0  0  0  0  0  0  0  0  0  0  0  0
    2.2544    0.4412   -2.3572 N   0  0  0  0  0  0  0  0  0  0  0  0
    1.2213    0.4274   -3.1678 N   0  0  0  0  0  0  0  0  0  0  0  0
    0.1859   -0.0889   -2.5493 N   0  0  0  0  0  0  0  0  0  0  0  0
    0.6099   -0.4043   -1.3023 C   0  0  0  0  0  0  0  0  0  0  0  0
   -0.2709   -1.0169   -0.2823 C   0  0  0  0  0  0  0  0  0  0  0  0
   -0.9648    0.0653    0.5429 C   0  0  1  0  0  0  0  0  0  0  0  0
   -1.7906    0.9181   -0.3987 C   0  0  0  0  0  0  0  0  0  0  0  0
   -2.7608    0.0516   -1.0412 N   0  0  0  0  0  0  0  0  0  0  0  0
   -1.9066   -0.5754    1.5199 C   0  0  0  0  0  0  0  0  0  0  0  0
   -1.1982   -1.4143    2.3639 O   0  0  0  0  0  0  0  0  0  0  0  0
    2.5795    0.6553    1.9483 H   0  0  0  0  0  0  0  0  0  0  0  0
    1.8862    1.6907    0.5849 H   0  0  0  0  0  0  0  0  0  0  0  0
    3.6356    1.5228    0.8092 H   0  0  0  0  0  0  0  0  0  0  0  0
    2.4061   -1.1310    0.5858 H   0  0  0  0  0  0  0  0  0  0  0  0
    3.7906   -0.4340   -0.3179 H   0  0  0  0  0  0  0  0  0  0  0  0
    0.3141   -1.6544    0.4219 H   0  0  0  0  0  0  0  0  0  0  0  0
   -1.0460   -1.6744   -0.7304 H   0  0  0  0  0  0  0  0  0  0  0  0
   -0.2151    0.6474    1.0898 H   0  0  0  0  0  0  0  0  0  0  0  0
   -2.3513    1.6361    0.2549 H   0  0  0  0  0  0  0  0  0  0  0  0
   -1.1752    1.4464   -1.1334 H   0  0  0  0  0  0  0  0  0  0  0  0
   -2.5697   -0.0641   -2.0396 H   0  0  0  0  0  0  0  0  0  0  0  0
   -3.7404    0.3358   -0.8226 H   0  0  0  0  0  0  0  0  0  0  0  0
   -2.6805   -1.1684    0.9875 H   0  0  0  0  0  0  0  0  0  0  0  0
   -2.4050    0.2366    2.0930 H   0  0  0  0  0  0  0  0  0  0  0  0
   -1.0957   -0.9725    3.2498 H   0  0  0  0  0  0  0  0  0  0  0  0
  1  2  1  0
  2  3  1  0
  3  4  1  0
  4  5  2  0
  5  6  1  0
  6  7  2  0
  7  8  1  0
  8  9  1  0
  9 10  1  0
 10 11  1  0
  9 12  1  0
 12 13  1  0
  7  3  1  0
  1 14  1  0
  1 15  1  0
  1 16  1  0
  2 17  1  0
  2 18  1  0
  8 19  1  0
  8 20  1  0
  9 21  1  1
 10 22  1  0
 10 23  1  0
 11 24  1  0
 11 25  1  0
 12 26  1  0
 12 27  1  0
 13 28  1  0
M  END
$$$$
