
     RDKit          3D

 30 30  0  0  0  0  0  0  0  0999 V2000
    0.8930    0.4603    2.1735 C   0  0  0  0  0  0  0  0  0  0  0  0
    1.3404    0.6094    0.7229 C   0  0  2  0  0  0  0  0  0  0  0  0
    0.2071    0.9026   -0.1290 N   0  0  0  0  0  0  0  0  0  0  0  0
   -0.9077    0.0171   -0.2501 C   0  0  0  0  0  0  0  0  0  0  0  0
   -0.8608   -1.2269    0.0393 N   0  0  0  0  0  0  0  0  0  0  0  0
   -2.1179   -1.8957   -0.1704 C   0  0  0  0  0  0  0  0  0  0  0  0
   -3.0697   -0.7945   -0.5100 C   0  0  0  0  0  0  0  0  0  0  0  0
   -2.2221    0.3633   -0.7009 N   0  0  0  0  0  0  0  0  0  0  0  0
   -2.6794    1.6212   -1.2543 C   0  0  0  0  0  0  0  0  0  0  0  0
    2.0781   -0.6284    0.3186 C   0  0  2  0  0  0  0  0  0  0  0  0
    3.1394   -0.7896    1.2198 O   0  0  0  0  0  0  0  0  0  0  0  0
    2.6687   -0.4918   -1.0612 C   0  0  0  0  0  0  0  0  0  0  0  0
    3.5220    0.6097   -1.1493 O   0  0  0  0  0  0  0  0  0  0  0  0
    1.6808    0.7587    2.8675 H   0  0  0  0  0  0  0  0  0  0  0  0
    0.5758   -0.6031    2.3256 H   0  0  0  0  0  0  0  0  0  0  0  0
    0.0244    1.1509    2.3406 H   0  0  0  0  0  0  0  0  0  0  0  0
    2.0432    1.4556    0.7049 H   0  0  0  0  0  0  0  0  0  0  0  0
    0.1686    1.7864   -0.6917 H   0  0  0  0  0  0  0  0  0  0  0  0
   -2.4510   -2.4757    0.7268 H   0  0  0  0  0  0  0  0  0  0  0  0
   -2.0590   -2.6098   -1.0412 H   0  0  0  0  0  0  0  0  0  0  0  0
   -3.7172   -0.5575    0.3761 H   0  0  0  0  0  0  0  0  0  0  0  0
   -3.6946   -1.0026   -1.4025 H   0  0  0  0  0  0  0  0  0  0  0  0
   -1.9357    2.3979   -0.9570 H   0  0  0  0  0  0  0  0  0  0  0  0
   -3.6451    1.9438   -0.8341 H   0  0  0  0  0  0  0  0  0  0  0  0
   -2.7709    1.5538   -2.3579 H   0  0  0  0  0  0  0  0  0  0  0  0
    1.4779   -1.5413    0.3428 H   0  0  0  0  0  0  0  0  0  0  0  0
    3.3058    0.0340    1.7362 H   0  0  0  0  0  0  0  0  0  0  0  0
    3.2348   -1.4258   -1.2996 H   0  0  0  0  0  0  0  0  0  0  0  0
    1.8748   -0.4264   -1.8390 H   0  0  0  0  0  0  0  0  0  0  0  0
    3.8963    0.8042   -0.2463 H   0  0  0  0  0  0  0  0  0  0  0  0
  1  2  1  0
  2  3  1  0
  3  4  1  0
  4  5  2  0
  5  6  1  0
  6  7  1  0
  7  8  1  0
  8  9  1  0
  2 10  1  0
 10 11  1  0
 10 12  1  0
 12 13  1  0
  8  4  1  0
  1 14  1  0
  1 15  1  0
  1 16  1  0
  2 17  1  1
  3 18  1  0
  6 19  1  0
  6 20  1  0
  7 21  1  0
  7 22  1  0
  9 23  1  0
  9 24  1  0
  9 25  1  0
 10 26  1  6
 11 27  1  0
 12 28  1  0
 12 29  1  0
 13 30  1  0
M  END
$$$$

     RDKit          3D

 30 30  0  0  0  0  0  0  0  0999 V2000
    1.9688   -1.5030    1.1893 C   0  0  0  0  0  0  0  0  0  0  0  0
    1.1670   -0.3249    0.6823 C   0  0  2  0  0  0  0  0  0  0  0  0
   -0.1823   -0.7053    0.5397 N   0  0  0  0  0  0  0  0  0  0  0  0
   -1.2354    0.1338    0.0868 C   0  0  0  0  0  0  0  0  0  0  0  0
   -1.0165    1.2712   -0.4695 N   0  0  0  0  0  0  0  0  0  0  0  0
   -2.2553    1.9107   -0.8299 C   0  0  0  0  0  0  0  0  0  0  0  0
   -3.2584    1.1900    0.0461 C   0  0  0  0  0  0  0  0  0  0  0  0
   -2.6317   -0.1227    0.1660 N   0  0  0  0  0  0  0  0  0  0  0  0
   -3.2671   -1.4159    0.3301 C   0  0  0  0  0  0  0  0  0  0  0  0
    1.8490    0.2084   -0.5301 C   0  0  2  0  0  0  0  0  0  0  0  0
    1.8241   -0.7748   -1.5218 O   0  0  0  0  0  0  0  0  0  0  0  0
    3.3056    0.4400   -0.1749 C   0  0  0  0  0  0  0  0  0  0  0  0
    4.0355    0.8698   -1.2981 O   0  0  0  0  0  0  0  0  0  0  0  0
    2.7130   -1.2177    1.9574 H   0  0  0  0  0  0  0  0  0  0  0  0
    1.3126   -2.2889    1.6465 H   0  0  0  0  0  0  0  0  0  0  0  0
    2.5066   -2.0323    0.3618 H   0  0  0  0  0  0  0  0  0  0  0  0
    1.2309    0.4535    1.4796 H   0  0  0  0  0  0  0  0  0  0  0  0
   -0.4606   -1.6823    0.7804 H   0  0  0  0  0  0  0  0  0  0  0  0
   -2.4760    1.6538   -1.8831 H   0  0  0  0  0  0  0  0  0  0  0  0
   -2.2455    3.0030   -0.6553 H   0  0  0  0  0  0  0  0  0  0  0  0
   -4.2638    1.1364   -0.4022 H   0  0  0  0  0  0  0  0  0  0  0  0
   -3.2772    1.6133    1.0831 H   0  0  0  0  0  0  0  0  0  0  0  0
   -3.7710   -1.6954   -0.6358 H   0  0  0  0  0  0  0  0  0  0  0  0
   -4.0587   -1.3013    1.1034 H   0  0  0  0  0  0  0  0  0  0  0  0
   -2.5161   -2.1498    0.6297 H   0  0  0  0  0  0  0  0  0  0  0  0
    1.4601    1.1779   -0.8853 H   0  0  0  0  0  0  0  0  0  0  0  0
    1.8845   -0.3775   -2.4332 H   0  0  0  0  0  0  0  0  0  0  0  0
    3.8057   -0.4673    0.1900 H   0  0  0  0  0  0  0  0  0  0  0  0
    3.4214    1.2292    0.6024 H   0  0  0  0  0  0  0  0  0  0  0  0
    4.4309    1.7682   -1.1556 H   0  0  0  0  0  0  0  0  0  0  0  0
  1  2  1  0
  2  3  1  0
  3  4  1  0
  4  5  2  0
  5  6  1  0
  6  7  1  0
  7  8  1  0
  8  9  1  0
  2 10  1  0
 10 11  1  0
 10 12  1  0
 12 13  1  0
  8  4  1  0
  1 14  1  0
  1 15  1  0
  1 16  1  0
  2 17  1  1
  3 18  1  0
  6 19  1  0
  6 20  1  0
  7 21  1  0
  7 22  1  0
  9 23  1  0
  9 24  1  0
  9 25  1  0
 10 26  1  6
 11 27  1  0
 12 28  1  0
 12 29  1  0
 13 30  1  0
M  END
$$$$

     RDKit          3D

 30 30  0  0  0  0  0  0  0  0999 V2000
   -2.1336   -2.0955   -0.3860 C   0  0  0  0  0  0  0  0  0  0  0  0
   -1.2474   -0.8889   -0.7252 C   0  0  2  0  0  0  0  0  0  0  0  0
    0.0643   -1.0600   -0.1864 N   0  0  0  0  0  0  0  0  0  0  0  0
    1.0976   -0.0929   -0.3647 C   0  0  0  0  0  0  0  0  0  0  0  0
    1.0966    0.7707   -1.3156 N   0  0  0  0  0  0  0  0  0  0  0  0
    2.2579    1.6117   -1.2447 C   0  0  0  0  0  0  0  0  0  0  0  0
    3.1716    0.9070   -0.3050 C   0  0  0  0  0  0  0  0  0  0  0  0
    2.2717    0.0704    0.4554 N   0  0  0  0  0  0  0  0  0  0  0  0
    2.4515   -0.5133    1.7665 C   0  0  0  0  0  0  0  0  0  0  0  0
   -1.9758    0.3237   -0.2038 C   0  0  2  0  0  0  0  0  0  0  0  0
   -1.3266    1.5114   -0.4728 O   0  0  0  0  0  0  0  0  0  0  0  0
   -2.2564    0.2313    1.2769 C   0  0  0  0  0  0  0  0  0  0  0  0
   -3.0619    1.3081    1.6437 O   0  0  0  0  0  0  0  0  0  0  0  0
   -3.1544   -1.8883   -0.6989 H   0  0  0  0  0  0  0  0  0  0  0  0
   -2.0143   -2.4024    0.6676 H   0  0  0  0  0  0  0  0  0  0  0  0
   -1.7365   -2.9256   -1.0204 H   0  0  0  0  0  0  0  0  0  0  0  0
   -1.2739   -0.8218   -1.8380 H   0  0  0  0  0  0  0  0  0  0  0  0
    0.2871   -1.9186    0.3603 H   0  0  0  0  0  0  0  0  0  0  0  0
    2.7030    1.8240   -2.2379 H   0  0  0  0  0  0  0  0  0  0  0  0
    1.9316    2.5663   -0.7487 H   0  0  0  0  0  0  0  0  0  0  0  0
    3.9500    0.3052   -0.8410 H   0  0  0  0  0  0  0  0  0  0  0  0
    3.7220    1.6058    0.3854 H   0  0  0  0  0  0  0  0  0  0  0  0
    2.7798   -1.5613    1.7038 H   0  0  0  0  0  0  0  0  0  0  0  0
    1.4785   -0.4341    2.3038 H   0  0  0  0  0  0  0  0  0  0  0  0
    3.2040    0.0318    2.3605 H   0  0  0  0  0  0  0  0  0  0  0  0
   -2.9529    0.3585   -0.7371 H   0  0  0  0  0  0  0  0  0  0  0  0
   -1.4269    2.1939    0.2416 H   0  0  0  0  0  0  0  0  0  0  0  0
   -2.6846   -0.7144    1.5960 H   0  0  0  0  0  0  0  0  0  0  0  0
   -1.2953    0.3711    1.8520 H   0  0  0  0  0  0  0  0  0  0  0  0
   -3.9270    1.3264    1.1719 H   0  0  0  0  0  0  0  0  0  0  0  0
  1  2  1  0
  2  3  1  0
  3  4  1  0
  4  5  2  0
  5  6  1  0
  6  7  1  0
  7  8  1  0
  8  9  1  0
  2 10  1  0
 10 11  1  0
 10 12  1  0
 12 13  1  0
  8  4  1  0
  1 14  1  0
  1 15  1  0
  1 16  1  0
  2 17  1  6
  3 18  1  0
  6 19  1  0
  6 20  1  0
  7 21  1  0
  7 22  1  0
  9 23  1  0
  9 24  1  0
  9 25  1  0
 10 26  1  6
 11 27  1  0
 12 28  1  0
 12 29  1  0
 13 30  1  0
M  END
$$$$

     RDKit          3D

 30 30  0  0  0  0  0  0  0  0999 V2000
    1.1461   -1.8500   -0.0803 C   0  0  0  0  0  0  0  0  0  0  0  0
    1.2095   -0.6208    0.7768 C   0  0  2  0  0  0  0  0  0  0  0  0
    0.1881    0.3114    0.2759 N   0  0  0  0  0  0  0  0  0  0  0  0
   -1.1756   -0.1003    0.2778 C   0  0  0  0  0  0  0  0  0  0  0  0
   -1.6677   -1.1317    0.8711 N   0  0  0  0  0  0  0  0  0  0  0  0
   -3.0900   -1.2233    0.6467 C   0  0  0  0  0  0  0  0  0  0  0  0
   -3.2826   -0.3681   -0.5859 C   0  0  0  0  0  0  0  0  0  0  0  0
   -2.2217    0.6044   -0.4094 N   0  0  0  0  0  0  0  0  0  0  0  0
   -2.1884    1.9905   -0.8218 C   0  0  0  0  0  0  0  0  0  0  0  0
    2.5782    0.0105    0.7127 C   0  0  2  0  0  0  0  0  0  0  0  0
    2.6460    1.1572    1.4722 O   0  0  0  0  0  0  0  0  0  0  0  0
    2.9886    0.2800   -0.7200 C   0  0  0  0  0  0  0  0  0  0  0  0
    4.2923    0.7533   -0.7510 O   0  0  0  0  0  0  0  0  0  0  0  0
    0.4626   -2.6001    0.3432 H   0  0  0  0  0  0  0  0  0  0  0  0
    2.1818   -2.2755   -0.1166 H   0  0  0  0  0  0  0  0  0  0  0  0
    0.7712   -1.6048   -1.0962 H   0  0  0  0  0  0  0  0  0  0  0  0
    0.9476   -0.8952    1.8124 H   0  0  0  0  0  0  0  0  0  0  0  0
    0.4300    1.2519   -0.0756 H   0  0  0  0  0  0  0  0  0  0  0  0
   -3.4298   -2.2650    0.4800 H   0  0  0  0  0  0  0  0  0  0  0  0
   -3.6650   -0.7544    1.4819 H   0  0  0  0  0  0  0  0  0  0  0  0
   -3.1555   -0.9324   -1.5271 H   0  0  0  0  0  0  0  0  0  0  0  0
   -4.2865    0.1071   -0.5798 H   0  0  0  0  0  0  0  0  0  0  0  0
   -1.8239    2.6506   -0.0122 H   0  0  0  0  0  0  0  0  0  0  0  0
   -3.2104    2.3174   -1.0937 H   0  0  0  0  0  0  0  0  0  0  0  0
   -1.5676    2.0819   -1.7440 H   0  0  0  0  0  0  0  0  0  0  0  0
    3.2913   -0.7271    1.1310 H   0  0  0  0  0  0  0  0  0  0  0  0
    1.9460    1.8193    1.2512 H   0  0  0  0  0  0  0  0  0  0  0  0
    2.3535    1.0745   -1.1775 H   0  0  0  0  0  0  0  0  0  0  0  0
    2.9691   -0.6446   -1.3316 H   0  0  0  0  0  0  0  0  0  0  0  0
    4.3628    1.5834   -0.2213 H   0  0  0  0  0  0  0  0  0  0  0  0
  1  2  1  0
  2  3  1  0
  3  4  1  0
  4  5  2  0
  5  6  1  0
  6  7  1  0
  7  8  1  0
  8  9  1  0
  2 10  1  0
 10 11  1  0
 10 12  1  0
 12 13  1  0
  8  4  1  0
  1 14  1  0
  1 15  1  0
  1 16  1  0
  2 17  1  1
  3 18  1  0
  6 19  1  0
  6 20  1  0
  7 21  1  0
  7 22  1  0
  9 23  1  0
  9 24  1  0
  9 25  1  0
 10 26  1  1
 11 27  1  0
 12 28  1  0
 12 29  1  0
 13 30  1  0
M  END
$$$$

     RDKit          3D

 30 30  0  0  0  0  0  0  0  0999 V2000
    1.5452    0.1336   -1.6243 C   0  0  0  0  0  0  0  0  0  0  0  0
    1.2924   -0.5991   -0.3409 C   0  0  2  0  0  0  0  0  0  0  0  0
    0.1614   -0.0600    0.3827 N   0  0  0  0  0  0  0  0  0  0  0  0
   -1.1264   -0.0397   -0.1916 C   0  0  0  0  0  0  0  0  0  0  0  0
   -1.3238   -0.2307   -1.4613 N   0  0  0  0  0  0  0  0  0  0  0  0
   -2.7362   -0.1574   -1.7810 C   0  0  0  0  0  0  0  0  0  0  0  0
   -3.4014   -0.3614   -0.4392 C   0  0  0  0  0  0  0  0  0  0  0  0
   -2.3928    0.1802    0.4611 N   0  0  0  0  0  0  0  0  0  0  0  0
   -2.5346    0.8119    1.7371 C   0  0  0  0  0  0  0  0  0  0  0  0
    2.5107   -0.7273    0.5301 C   0  0  2  0  0  0  0  0  0  0  0  0
    2.2238   -1.5752    1.5865 O   0  0  0  0  0  0  0  0  0  0  0  0
    2.9653    0.6303    1.0358 C   0  0  0  0  0  0  0  0  0  0  0  0
    3.2412    1.4454   -0.0361 O   0  0  0  0  0  0  0  0  0  0  0  0
    1.4494    1.2336   -1.5216 H   0  0  0  0  0  0  0  0  0  0  0  0
    2.5917   -0.1179   -1.9434 H   0  0  0  0  0  0  0  0  0  0  0  0
    0.8844   -0.2834   -2.4011 H   0  0  0  0  0  0  0  0  0  0  0  0
    0.9960   -1.6544   -0.6160 H   0  0  0  0  0  0  0  0  0  0  0  0
    0.3165    0.3135    1.3376 H   0  0  0  0  0  0  0  0  0  0  0  0
   -3.0372   -0.9277   -2.5283 H   0  0  0  0  0  0  0  0  0  0  0  0
   -3.0169    0.8762   -2.1160 H   0  0  0  0  0  0  0  0  0  0  0  0
   -4.3684    0.1686   -0.3567 H   0  0  0  0  0  0  0  0  0  0  0  0
   -3.4910   -1.4591   -0.2847 H   0  0  0  0  0  0  0  0  0  0  0  0
   -1.7769    0.4784    2.4879 H   0  0  0  0  0  0  0  0  0  0  0  0
   -3.5209    0.5422    2.1724 H   0  0  0  0  0  0  0  0  0  0  0  0
   -2.4566    1.9080    1.6055 H   0  0  0  0  0  0  0  0  0  0  0  0
    3.3236   -1.1685   -0.0745 H   0  0  0  0  0  0  0  0  0  0  0  0
    1.3563   -2.0518    1.4244 H   0  0  0  0  0  0  0  0  0  0  0  0
    3.9224    0.4561    1.5767 H   0  0  0  0  0  0  0  0  0  0  0  0
    2.2548    1.0571    1.7664 H   0  0  0  0  0  0  0  0  0  0  0  0
    4.1481    1.1785   -0.3875 H   0  0  0  0  0  0  0  0  0  0  0  0
  1  2  1  0
  2  3  1  0
  3  4  1  0
  4  5  2  0
  5  6  1  0
  6  7  1  0
  7  8  1  0
  8  9  1  0
  2 10  1  0
 10 11  1  0
 10 12  1  0
 12 13  1  0
  8  4  1  0
  1 14  1  0
  1 15  1  0
  1 16  1  0
  2 17  1  6
  3 18  1  0
  6 19  1  0
  6 20  1  0
  7 21  1  0
  7 22  1  0
  9 23  1  0
  9 24  1  0
  9 25  1  0
 10 26  1  6
 11 27  1  0
 12 28  1  0
 12 29  1  0
 13 30  1  0
M  END
$$$$

     RDKit          3D

 30 30  0  0  0  0  0  0  0  0999 V2000
    1.1339   -0.6922   -2.4464 C   0  0  0  0  0  0  0  0  0  0  0  0
    1.3618   -0.8355   -0.9384 C   0  0  2  0  0  0  0  0  0  0  0  0
    0.1145   -1.1014   -0.2564 N   0  0  0  0  0  0  0  0  0  0  0  0
   -1.0028   -0.2105   -0.2910 C   0  0  0  0  0  0  0  0  0  0  0  0
   -1.0099    0.8294   -1.0333 N   0  0  0  0  0  0  0  0  0  0  0  0
   -2.2496    1.5465   -0.8779 C   0  0  0  0  0  0  0  0  0  0  0  0
   -2.8023    1.0128    0.4173 C   0  0  0  0  0  0  0  0  0  0  0  0
   -2.2171   -0.3066    0.4426 N   0  0  0  0  0  0  0  0  0  0  0  0
   -2.7410   -1.4846    1.0745 C   0  0  0  0  0  0  0  0  0  0  0  0
    2.0296    0.4269   -0.4819 C   0  0  2  0  0  0  0  0  0  0  0  0
    3.2079    0.5537   -1.2175 O   0  0  0  0  0  0  0  0  0  0  0  0
    2.4186    0.3843    0.9781 C   0  0  0  0  0  0  0  0  0  0  0  0
    3.0815    1.5826    1.2697 O   0  0  0  0  0  0  0  0  0  0  0  0
    2.1373   -0.8208   -2.9111 H   0  0  0  0  0  0  0  0  0  0  0  0
    0.3959   -1.4003   -2.8268 H   0  0  0  0  0  0  0  0  0  0  0  0
    0.8607    0.3740   -2.6102 H   0  0  0  0  0  0  0  0  0  0  0  0
    2.0431   -1.6974   -0.8240 H   0  0  0  0  0  0  0  0  0  0  0  0
   -0.0094   -1.9750    0.2956 H   0  0  0  0  0  0  0  0  0  0  0  0
   -2.1024    2.6455   -0.8570 H   0  0  0  0  0  0  0  0  0  0  0  0
   -2.9079    1.2315   -1.7213 H   0  0  0  0  0  0  0  0  0  0  0  0
   -3.9114    0.9849    0.3984 H   0  0  0  0  0  0  0  0  0  0  0  0
   -2.4429    1.6493    1.2671 H   0  0  0  0  0  0  0  0  0  0  0  0
   -1.9539   -1.9089    1.7272 H   0  0  0  0  0  0  0  0  0  0  0  0
   -3.0854   -2.2583    0.3412 H   0  0  0  0  0  0  0  0  0  0  0  0
   -3.6595   -1.2138    1.6574 H   0  0  0  0  0  0  0  0  0  0  0  0
    1.3935    1.2987   -0.7131 H   0  0  0  0  0  0  0  0  0  0  0  0
    3.5801   -0.3810   -1.2831 H   0  0  0  0  0  0  0  0  0  0  0  0
    1.5355    0.3207    1.6348 H   0  0  0  0  0  0  0  0  0  0  0  0
    3.1464   -0.4243    1.1449 H   0  0  0  0  0  0  0  0  0  0  0  0
    3.6552    1.8701    0.4962 H   0  0  0  0  0  0  0  0  0  0  0  0
  1  2  1  0
  2  3  1  0
  3  4  1  0
  4  5  2  0
  5  6  1  0
  6  7  1  0
  7  8  1  0
  8  9  1  0
  2 10  1  0
 10 11  1  0
 10 12  1  0
 12 13  1  0
  8  4  1  0
  1 14  1  0
  1 15  1  0
  1 16  1  0
  2 17  1  6
  3 18  1  0
  6 19  1  0
  6 20  1  0
  7 21  1  0
  7 22  1  0
  9 23  1  0
  9 24  1  0
  9 25  1  0
 10 26  1  1
 11 27  1  0
 12 28  1  0
 12 29  1  0
 13 30  1  0
M  END
$$$$

     RDKit          3D

 30 30  0  0  0  0  0  0  0  0999 V2000
   -1.2052   -1.7793    0.7703 C   0  0  0  0  0  0  0  0  0  0  0  0
   -1.2493   -0.7916   -0.3731 C   0  0  2  0  0  0  0  0  0  0  0  0
   -0.1948    0.1699   -0.1456 N   0  0  0  0  0  0  0  0  0  0  0  0
    1.1736   -0.2746   -0.0690 C   0  0  0  0  0  0  0  0  0  0  0  0
    1.6048   -1.4880   -0.1047 N   0  0  0  0  0  0  0  0  0  0  0  0
    3.0334   -1.4662    0.0053 C   0  0  0  0  0  0  0  0  0  0  0  0
    3.3680   -0.1020   -0.5361 C   0  0  0  0  0  0  0  0  0  0  0  0
    2.2603    0.6327    0.0455 N   0  0  0  0  0  0  0  0  0  0  0  0
    2.3025    1.9582    0.5928 C   0  0  0  0  0  0  0  0  0  0  0  0
   -2.5609   -0.0879   -0.4756 C   0  0  2  0  0  0  0  0  0  0  0  0
   -2.5258    0.8129   -1.5320 O   0  0  0  0  0  0  0  0  0  0  0  0
   -2.9245    0.6210    0.7930 C   0  0  0  0  0  0  0  0  0  0  0  0
   -4.1890    1.2128    0.6478 O   0  0  0  0  0  0  0  0  0  0  0  0
   -0.4240   -2.5309    0.5745 H   0  0  0  0  0  0  0  0  0  0  0  0
   -2.1982   -2.2932    0.8003 H   0  0  0  0  0  0  0  0  0  0  0  0
   -0.9907   -1.3059    1.7394 H   0  0  0  0  0  0  0  0  0  0  0  0
   -1.0570   -1.3782   -1.2998 H   0  0  0  0  0  0  0  0  0  0  0  0
   -0.4434    1.1721   -0.0397 H   0  0  0  0  0  0  0  0  0  0  0  0
    3.5395   -2.2853   -0.5257 H   0  0  0  0  0  0  0  0  0  0  0  0
    3.2764   -1.4342    1.0879 H   0  0  0  0  0  0  0  0  0  0  0  0
    3.2371   -0.0589   -1.6365 H   0  0  0  0  0  0  0  0  0  0  0  0
    4.3484    0.2736   -0.2005 H   0  0  0  0  0  0  0  0  0  0  0  0
    1.5067    2.1653    1.3284 H   0  0  0  0  0  0  0  0  0  0  0  0
    2.2851    2.7129   -0.2140 H   0  0  0  0  0  0  0  0  0  0  0  0
    3.2687    2.1299    1.1496 H   0  0  0  0  0  0  0  0  0  0  0  0
   -3.3628   -0.8205   -0.7250 H   0  0  0  0  0  0  0  0  0  0  0  0
   -2.1980    1.7061   -1.2628 H   0  0  0  0  0  0  0  0  0  0  0  0
   -2.9996   -0.1067    1.6315 H   0  0  0  0  0  0  0  0  0  0  0  0
   -2.1933    1.4245    0.9718 H   0  0  0  0  0  0  0  0  0  0  0  0
   -4.4880    1.2114   -0.2992 H   0  0  0  0  0  0  0  0  0  0  0  0
  1  2  1  0
  2  3  1  0
  3  4  1  0
  4  5  2  0
  5  6  1  0
  6  7  1  0
  7  8  1  0
  8  9  1  0
  2 10  1  0
 10 11  1  0
 10 12  1  0
 12 13  1  0
  8  4  1  0
  1 14  1  0
  1 15  1  0
  1 16  1  0
  2 17  1  6
  3 18  1  0
  6 19  1  0
  6 20  1  0
  7 21  1  0
  7 22  1  0
  9 23  1  0
  9 24  1  0
  9 25  1  0
 10 26  1  6
 11 27  1  0
 12 28  1  0
 12 29  1  0
 13 30  1  0
M  END
$$$$

     RDKit          3D

 30 30  0  0  0  0  0  0  0  0999 V2000
    2.0943   -1.8248   -0.8305 C   0  0  0  0  0  0  0  0  0  0  0  0
    1.1679   -1.0247    0.0704 C   0  0  2  0  0  0  0  0  0  0  0  0
   -0.1276   -0.8959   -0.5643 N   0  0  0  0  0  0  0  0  0  0  0  0
   -1.1846   -0.1875    0.1001 C   0  0  0  0  0  0  0  0  0  0  0  0
   -1.1560    0.2328    1.3200 N   0  0  0  0  0  0  0  0  0  0  0  0
   -2.3905    0.9005    1.6424 C   0  0  0  0  0  0  0  0  0  0  0  0
   -3.3300    0.3631    0.5933 C   0  0  0  0  0  0  0  0  0  0  0  0
   -2.4204    0.1408   -0.5086 N   0  0  0  0  0  0  0  0  0  0  0  0
   -2.7415    0.2408   -1.9011 C   0  0  0  0  0  0  0  0  0  0  0  0
    1.7510    0.3895    0.1851 C   0  0  2  0  0  0  0  0  0  0  0  0
    1.8542    0.8876   -1.0897 O   0  0  0  0  0  0  0  0  0  0  0  0
    3.0878    0.2974    0.8890 C   0  0  0  0  0  0  0  0  0  0  0  0
    3.6445    1.5616    0.9674 O   0  0  0  0  0  0  0  0  0  0  0  0
    2.8967   -2.2390   -0.1871 H   0  0  0  0  0  0  0  0  0  0  0  0
    1.5582   -2.6650   -1.3061 H   0  0  0  0  0  0  0  0  0  0  0  0
    2.4888   -1.1409   -1.5868 H   0  0  0  0  0  0  0  0  0  0  0  0
    1.0849   -1.4391    1.0756 H   0  0  0  0  0  0  0  0  0  0  0  0
   -0.2911   -1.3143   -1.4981 H   0  0  0  0  0  0  0  0  0  0  0  0
   -2.7373    0.6955    2.6717 H   0  0  0  0  0  0  0  0  0  0  0  0
   -2.2673    1.9831    1.4403 H   0  0  0  0  0  0  0  0  0  0  0  0
   -4.1451    1.0649    0.3416 H   0  0  0  0  0  0  0  0  0  0  0  0
   -3.7141   -0.6411    0.8929 H   0  0  0  0  0  0  0  0  0  0  0  0
   -3.2101   -0.6882   -2.2838 H   0  0  0  0  0  0  0  0  0  0  0  0
   -1.8669    0.4501   -2.5473 H   0  0  0  0  0  0  0  0  0  0  0  0
   -3.4717    1.0752   -2.1030 H   0  0  0  0  0  0  0  0  0  0  0  0
    1.0428    0.9653    0.8049 H   0  0  0  0  0  0  0  0  0  0  0  0
    2.7671    1.0791   -1.3858 H   0  0  0  0  0  0  0  0  0  0  0  0
    2.8996   -0.1133    1.9023 H   0  0  0  0  0  0  0  0  0  0  0  0
    3.7385   -0.4037    0.3675 H   0  0  0  0  0  0  0  0  0  0  0  0
    2.9782    2.2504    0.7438 H   0  0  0  0  0  0  0  0  0  0  0  0
  1  2  1  0
  2  3  1  0
  3  4  1  0
  4  5  2  0
  5  6  1  0
  6  7  1  0
  7  8  1  0
  8  9  1  0
  2 10  1  0
 10 11  1  0
 10 12  1  0
 12 13  1  0
  8  4  1  0
  1 14  1  0
  1 15  1  0
  1 16  1  0
  2 17  1  1
  3 18  1  0
  6 19  1  0
  6 20  1  0
  7 21  1  0
  7 22  1  0
  9 23  1  0
  9 24  1  0
  9 25  1  0
 10 26  1  1
 11 27  1  0
 12 28  1  0
 12 29  1  0
 13 30  1  0
M  END
$$$$
