
     RDKit          3D

 24 23  0  0  0  0  0  0  0  0999 V2000
   -0.4491   -1.6225    1.2112 C   0  0  0  0  0  0  0  0  0  0  0  0
   -0.3218   -0.4190    0.3036 C   0  0  2  0  0  0  0  0  0  0  0  0
    0.4975    0.6148    0.8237 N   0  0  0  0  0  0  0  0  0  0  0  0
    1.8983    0.9777   -0.0638 S   0  0  0  0  0  6  0  0  0  0  0  0
    2.9299   -0.4671   -0.1032 C   0  0  0  0  0  0  0  0  0  0  0  0
    2.6865    2.0111    0.7147 O   0  0  0  0  0  0  0  0  0  0  0  0
    1.6639    1.5540   -1.4071 O   0  0  0  0  0  0  0  0  0  0  0  0
   -1.7223   -0.0075   -0.0489 C   0  0  2  0  0  0  0  0  0  0  0  0
   -2.3525   -1.1737   -0.5438 O   0  0  0  0  0  0  0  0  0  0  0  0
   -1.8406    1.0369   -1.0906 C   0  0  0  0  0  0  0  0  0  0  0  0
   -1.2792    2.2495   -0.7674 O   0  0  0  0  0  0  0  0  0  0  0  0
   -0.8692   -2.4748    0.6383 H   0  0  0  0  0  0  0  0  0  0  0  0
    0.5082   -1.9329    1.6568 H   0  0  0  0  0  0  0  0  0  0  0  0
   -1.1439   -1.4482    2.0596 H   0  0  0  0  0  0  0  0  0  0  0  0
    0.1538   -0.7947   -0.6481 H   0  0  0  0  0  0  0  0  0  0  0  0
    0.7788    0.3751    1.8004 H   0  0  0  0  0  0  0  0  0  0  0  0
    3.3330   -0.5974    0.9304 H   0  0  0  0  0  0  0  0  0  0  0  0
    2.4298   -1.3548   -0.4809 H   0  0  0  0  0  0  0  0  0  0  0  0
    3.8241   -0.2897   -0.7469 H   0  0  0  0  0  0  0  0  0  0  0  0
   -2.2791    0.2483    0.8746 H   0  0  0  0  0  0  0  0  0  0  0  0
   -2.2074   -1.1797   -1.5281 H   0  0  0  0  0  0  0  0  0  0  0  0
   -1.4635    0.6366   -2.0686 H   0  0  0  0  0  0  0  0  0  0  0  0
   -2.9286    1.2152   -1.2629 H   0  0  0  0  0  0  0  0  0  0  0  0
   -1.8465    2.8428   -0.2529 H   0  0  0  0  0  0  0  0  0  0  0  0
  1  2  1  0
  2  3  1  0
  3  4  1  0
  4  5  1  0
  4  6  2  0
  4  7  2  0
  2  8  1  0
  8  9  1  0
  8 10  1  0
 10 11  1  0
  1 12  1  0
  1 13  1  0
  1 14  1  0
  2 15  1  6
  3 16  1  0
  5 17  1  0
  5 18  1  0
  5 19  1  0
  8 20  1  1
  9 21  1  0
 10 22  1  0
 10 23  1  0
 11 24  1  0
M  END
$$$$

     RDKit          3D

 24 23  0  0  0  0  0  0  0  0999 V2000
   -0.1733    1.0357    1.4655 C   0  0  0  0  0  0  0  0  0  0  0  0
   -0.0932   -0.0718    0.4496 C   0  0  2  0  0  0  0  0  0  0  0  0
    0.5255    0.2865   -0.7733 N   0  0  0  0  0  0  0  0  0  0  0  0
    1.9588   -0.5969   -1.1221 S   0  0  0  0  0  6  0  0  0  0  0  0
    3.1430   -0.2637    0.1624 C   0  0  0  0  0  0  0  0  0  0  0  0
    1.6487   -2.0601   -1.1038 O   0  0  0  0  0  0  0  0  0  0  0  0
    2.5902   -0.1667   -2.4108 O   0  0  0  0  0  0  0  0  0  0  0  0
   -1.4746   -0.6573    0.2878 C   0  0  2  0  0  0  0  0  0  0  0  0
   -1.4254   -1.8169   -0.4912 O   0  0  0  0  0  0  0  0  0  0  0  0
   -2.4446    0.2781   -0.3698 C   0  0  0  0  0  0  0  0  0  0  0  0
   -2.5798    1.4817    0.3221 O   0  0  0  0  0  0  0  0  0  0  0  0
    0.7421    1.1504    2.0536 H   0  0  0  0  0  0  0  0  0  0  0  0
   -0.4076    2.0139    1.0020 H   0  0  0  0  0  0  0  0  0  0  0  0
   -0.9895    0.7912    2.1771 H   0  0  0  0  0  0  0  0  0  0  0  0
    0.5274   -0.8838    0.9214 H   0  0  0  0  0  0  0  0  0  0  0  0
   -0.1180    0.1562   -1.5964 H   0  0  0  0  0  0  0  0  0  0  0  0
    3.8658    0.5072   -0.1591 H   0  0  0  0  0  0  0  0  0  0  0  0
    2.6513    0.0495    1.1035 H   0  0  0  0  0  0  0  0  0  0  0  0
    3.7321   -1.2065    0.3478 H   0  0  0  0  0  0  0  0  0  0  0  0
   -1.9003   -0.9397    1.2719 H   0  0  0  0  0  0  0  0  0  0  0  0
   -1.3059   -1.5474   -1.4475 H   0  0  0  0  0  0  0  0  0  0  0  0
   -3.4417   -0.2103   -0.3389 H   0  0  0  0  0  0  0  0  0  0  0  0
   -2.2229    0.4418   -1.4484 H   0  0  0  0  0  0  0  0  0  0  0  0
   -2.8083    2.2288   -0.3034 H   0  0  0  0  0  0  0  0  0  0  0  0
  1  2  1  0
  2  3  1  0
  3  4  1  0
  4  5  1  0
  4  6  2  0
  4  7  2  0
  2  8  1  0
  8  9  1  0
  8 10  1  0
 10 11  1  0
  1 12  1  0
  1 13  1  0
  1 14  1  0
  2 15  1  1
  3 16  1  0
  5 17  1  0
  5 18  1  0
  5 19  1  0
  8 20  1  1
  9 21  1  0
 10 22  1  0
 10 23  1  0
 11 24  1  0
M  END
$$$$

     RDKit          3D

 24 23  0  0  0  0  0  0  0  0999 V2000
   -0.9577   -1.9603   -0.6928 C   0  0  0  0  0  0  0  0  0  0  0  0
   -0.1755   -0.6954   -0.4174 C   0  0  2  0  0  0  0  0  0  0  0  0
    0.5347   -0.7214    0.8063 N   0  0  0  0  0  0  0  0  0  0  0  0
    2.2204   -0.6561    0.6797 S   0  0  0  0  0  6  0  0  0  0  0  0
    2.6756    0.8743   -0.0999 C   0  0  0  0  0  0  0  0  0  0  0  0
    2.9367   -0.7666    1.9694 O   0  0  0  0  0  0  0  0  0  0  0  0
    2.7249   -1.7665   -0.2205 O   0  0  0  0  0  0  0  0  0  0  0  0
   -1.0389    0.5323   -0.4764 C   0  0  2  0  0  0  0  0  0  0  0  0
   -0.2583    1.6785   -0.3856 O   0  0  0  0  0  0  0  0  0  0  0  0
   -2.1306    0.5299    0.5548 C   0  0  0  0  0  0  0  0  0  0  0  0
   -2.9272    1.6620    0.3235 O   0  0  0  0  0  0  0  0  0  0  0  0
   -0.2523   -2.8139   -0.5987 H   0  0  0  0  0  0  0  0  0  0  0  0
   -1.3379   -1.9640   -1.7282 H   0  0  0  0  0  0  0  0  0  0  0  0
   -1.7736   -2.1345    0.0053 H   0  0  0  0  0  0  0  0  0  0  0  0
    0.5668   -0.6256   -1.2499 H   0  0  0  0  0  0  0  0  0  0  0  0
    0.1164   -0.2603    1.6080 H   0  0  0  0  0  0  0  0  0  0  0  0
    3.7800    0.9620   -0.1837 H   0  0  0  0  0  0  0  0  0  0  0  0
    2.3361    1.7373    0.5111 H   0  0  0  0  0  0  0  0  0  0  0  0
    2.2777    0.9366   -1.1326 H   0  0  0  0  0  0  0  0  0  0  0  0
   -1.5543    0.5973   -1.4791 H   0  0  0  0  0  0  0  0  0  0  0  0
   -0.4727    2.2220    0.4308 H   0  0  0  0  0  0  0  0  0  0  0  0
   -1.7571    0.5947    1.5892 H   0  0  0  0  0  0  0  0  0  0  0  0
   -2.7826   -0.3460    0.3699 H   0  0  0  0  0  0  0  0  0  0  0  0
   -2.7505    2.3836    0.9537 H   0  0  0  0  0  0  0  0  0  0  0  0
  1  2  1  0
  2  3  1  0
  3  4  1  0
  4  5  1  0
  4  6  2  0
  4  7  2  0
  2  8  1  0
  8  9  1  0
  8 10  1  0
 10 11  1  0
  1 12  1  0
  1 13  1  0
  1 14  1  0
  2 15  1  6
  3 16  1  0
  5 17  1  0
  5 18  1  0
  5 19  1  0
  8 20  1  6
  9 21  1  0
 10 22  1  0
 10 23  1  0
 11 24  1  0
M  END
$$$$

     RDKit          3D

 24 23  0  0  0  0  0  0  0  0999 V2000
   -0.1149   -2.0168    1.3710 C   0  0  0  0  0  0  0  0  0  0  0  0
   -0.1196   -0.7394    0.5218 C   0  0  2  0  0  0  0  0  0  0  0  0
    0.7769    0.1836    1.1237 N   0  0  0  0  0  0  0  0  0  0  0  0
    2.1772    0.5469    0.2202 S   0  0  0  0  0  6  0  0  0  0  0  0
    1.8283    1.2997   -1.3448 C   0  0  0  0  0  0  0  0  0  0  0  0
    3.0196   -0.6700   -0.0591 O   0  0  0  0  0  0  0  0  0  0  0  0
    3.0223    1.4902    1.0390 O   0  0  0  0  0  0  0  0  0  0  0  0
   -1.5182   -0.2758    0.3658 C   0  0  2  0  0  0  0  0  0  0  0  0
   -2.3224   -1.2479   -0.2279 O   0  0  0  0  0  0  0  0  0  0  0  0
   -1.7003    1.0032   -0.3766 C   0  0  0  0  0  0  0  0  0  0  0  0
   -1.3597    0.9020   -1.7134 O   0  0  0  0  0  0  0  0  0  0  0  0
   -0.5462   -2.8530    0.8145 H   0  0  0  0  0  0  0  0  0  0  0  0
   -0.6879   -1.8033    2.3110 H   0  0  0  0  0  0  0  0  0  0  0  0
    0.8994   -2.2792    1.6820 H   0  0  0  0  0  0  0  0  0  0  0  0
    0.2890   -1.0395   -0.4710 H   0  0  0  0  0  0  0  0  0  0  0  0
    0.9737    0.0457    2.1352 H   0  0  0  0  0  0  0  0  0  0  0  0
    1.0894    2.1016   -1.2025 H   0  0  0  0  0  0  0  0  0  0  0  0
    1.4300    0.5003   -2.0136 H   0  0  0  0  0  0  0  0  0  0  0  0
    2.7824    1.6524   -1.7740 H   0  0  0  0  0  0  0  0  0  0  0  0
   -1.9655   -0.1399    1.3976 H   0  0  0  0  0  0  0  0  0  0  0  0
   -2.1869   -1.3265   -1.1977 H   0  0  0  0  0  0  0  0  0  0  0  0
   -1.1028    1.8438    0.0416 H   0  0  0  0  0  0  0  0  0  0  0  0
   -2.7577    1.3357   -0.3354 H   0  0  0  0  0  0  0  0  0  0  0  0
   -1.9062    1.4861   -2.3072 H   0  0  0  0  0  0  0  0  0  0  0  0
  1  2  1  0
  2  3  1  0
  3  4  1  0
  4  5  1  0
  4  6  2  0
  4  7  2  0
  2  8  1  0
  8  9  1  0
  8 10  1  0
 10 11  1  0
  1 12  1  0
  1 13  1  0
  1 14  1  0
  2 15  1  6
  3 16  1  0
  5 17  1  0
  5 18  1  0
  5 19  1  0
  8 20  1  1
  9 21  1  0
 10 22  1  0
 10 23  1  0
 11 24  1  0
M  END
$$$$

     RDKit          3D

 24 23  0  0  0  0  0  0  0  0999 V2000
    0.5396   -1.4834    1.3682 C   0  0  0  0  0  0  0  0  0  0  0  0
   -0.0779   -0.5359    0.3525 C   0  0  2  0  0  0  0  0  0  0  0  0
    0.0731    0.7914    0.8109 N   0  0  0  0  0  0  0  0  0  0  0  0
    1.1096    1.7657   -0.1298 S   0  0  0  0  0  6  0  0  0  0  0  0
    2.7441    1.0468   -0.1012 C   0  0  0  0  0  0  0  0  0  0  0  0
    1.2330    3.1398    0.4635 O   0  0  0  0  0  0  0  0  0  0  0  0
    0.6831    1.9078   -1.5419 O   0  0  0  0  0  0  0  0  0  0  0  0
   -1.4825   -0.9712    0.0673 C   0  0  2  0  0  0  0  0  0  0  0  0
   -1.4421   -2.3011   -0.3748 O   0  0  0  0  0  0  0  0  0  0  0  0
   -2.1205   -0.1306   -1.0193 C   0  0  0  0  0  0  0  0  0  0  0  0
   -2.1951    1.2058   -0.6445 O   0  0  0  0  0  0  0  0  0  0  0  0
    0.8700   -2.3823    0.8364 H   0  0  0  0  0  0  0  0  0  0  0  0
   -0.2621   -1.7810    2.1049 H   0  0  0  0  0  0  0  0  0  0  0  0
    1.3599   -0.9751    1.9057 H   0  0  0  0  0  0  0  0  0  0  0  0
    0.5445   -0.6574   -0.5744 H   0  0  0  0  0  0  0  0  0  0  0  0
    0.1179    0.9540    1.8160 H   0  0  0  0  0  0  0  0  0  0  0  0
    3.2055    1.0840   -1.1248 H   0  0  0  0  0  0  0  0  0  0  0  0
    2.7348   -0.0112    0.1922 H   0  0  0  0  0  0  0  0  0  0  0  0
    3.4265    1.6057    0.5626 H   0  0  0  0  0  0  0  0  0  0  0  0
   -2.1199   -0.9005    0.9492 H   0  0  0  0  0  0  0  0  0  0  0  0
   -1.9957   -2.4140   -1.1963 H   0  0  0  0  0  0  0  0  0  0  0  0
   -3.1369   -0.4640   -1.2643 H   0  0  0  0  0  0  0  0  0  0  0  0
   -1.5296   -0.2240   -1.9719 H   0  0  0  0  0  0  0  0  0  0  0  0
   -2.2791    1.7308   -1.4862 H   0  0  0  0  0  0  0  0  0  0  0  0
  1  2  1  0
  2  3  1  0
  3  4  1  0
  4  5  1  0
  4  6  2  0
  4  7  2  0
  2  8  1  0
  8  9  1  0
  8 10  1  0
 10 11  1  0
  1 12  1  0
  1 13  1  0
  1 14  1  0
  2 15  1  6
  3 16  1  0
  5 17  1  0
  5 18  1  0
  5 19  1  0
  8 20  1  1
  9 21  1  0
 10 22  1  0
 10 23  1  0
 11 24  1  0
M  END
$$$$

     RDKit          3D

 24 23  0  0  0  0  0  0  0  0999 V2000
   -0.2316   -0.4502    1.8410 C   0  0  0  0  0  0  0  0  0  0  0  0
   -0.0987   -0.3351    0.3341 C   0  0  2  0  0  0  0  0  0  0  0  0
    0.6094    0.8505   -0.0344 N   0  0  0  0  0  0  0  0  0  0  0  0
    2.1298    0.5014   -0.8043 S   0  0  0  0  0  6  0  0  0  0  0  0
    3.1771   -0.3893    0.3187 C   0  0  0  0  0  0  0  0  0  0  0  0
    1.9642   -0.2491   -2.0680 O   0  0  0  0  0  0  0  0  0  0  0  0
    2.7873    1.8335   -1.0589 O   0  0  0  0  0  0  0  0  0  0  0  0
   -1.4349   -0.5002   -0.3161 C   0  0  2  0  0  0  0  0  0  0  0  0
   -1.3045   -0.5469   -1.7038 O   0  0  0  0  0  0  0  0  0  0  0  0
   -2.4526    0.5223    0.0670 C   0  0  0  0  0  0  0  0  0  0  0  0
   -3.6677    0.1478   -0.5206 O   0  0  0  0  0  0  0  0  0  0  0  0
    0.7175   -0.7769    2.3125 H   0  0  0  0  0  0  0  0  0  0  0  0
   -0.9447   -1.3107    2.0104 H   0  0  0  0  0  0  0  0  0  0  0  0
   -0.6646    0.4427    2.2989 H   0  0  0  0  0  0  0  0  0  0  0  0
    0.5255   -1.2061    0.0234 H   0  0  0  0  0  0  0  0  0  0  0  0
    0.8289    1.4982    0.7260 H   0  0  0  0  0  0  0  0  0  0  0  0
    2.5900   -1.1936    0.8017 H   0  0  0  0  0  0  0  0  0  0  0  0
    3.6505    0.2913    1.0457 H   0  0  0  0  0  0  0  0  0  0  0  0
    3.9641   -0.8925   -0.2772 H   0  0  0  0  0  0  0  0  0  0  0  0
   -1.8316   -1.4923   -0.0122 H   0  0  0  0  0  0  0  0  0  0  0  0
   -1.3987    0.3476   -2.1128 H   0  0  0  0  0  0  0  0  0  0  0  0
   -2.6327    0.5292    1.1614 H   0  0  0  0  0  0  0  0  0  0  0  0
   -2.2382    1.5407   -0.2489 H   0  0  0  0  0  0  0  0  0  0  0  0
   -4.0436    0.8378   -1.0978 H   0  0  0  0  0  0  0  0  0  0  0  0
  1  2  1  0
  2  3  1  0
  3  4  1  0
  4  5  1  0
  4  6  2  0
  4  7  2  0
  2  8  1  0
  8  9  1  0
  8 10  1  0
 10 11  1  0
  1 12  1  0
  1 13  1  0
  1 14  1  0
  2 15  1  6
  3 16  1  0
  5 17  1  0
  5 18  1  0
  5 19  1  0
  8 20  1  1
  9 21  1  0
 10 22  1  0
 10 23  1  0
 11 24  1  0
M  END
$$$$

     RDKit          3D

 24 23  0  0  0  0  0  0  0  0999 V2000
   -0.6995    1.8724    0.6633 C   0  0  0  0  0  0  0  0  0  0  0  0
    0.0140    0.6251    0.1826 C   0  0  2  0  0  0  0  0  0  0  0  0
    0.9893    0.8774   -0.8146 N   0  0  0  0  0  0  0  0  0  0  0  0
    2.5560    0.3290   -0.4773 S   0  0  0  0  0  6  0  0  0  0  0  0
    2.6426   -1.4453   -0.2722 C   0  0  0  0  0  0  0  0  0  0  0  0
    3.4382    0.7144   -1.6591 O   0  0  0  0  0  0  0  0  0  0  0  0
    3.1760    0.9437    0.7274 O   0  0  0  0  0  0  0  0  0  0  0  0
   -1.0443   -0.2959   -0.3854 C   0  0  2  0  0  0  0  0  0  0  0  0
   -1.6772    0.2653   -1.4932 O   0  0  0  0  0  0  0  0  0  0  0  0
   -2.0722   -0.6930    0.6535 C   0  0  0  0  0  0  0  0  0  0  0  0
   -2.9170   -1.6248    0.0471 O   0  0  0  0  0  0  0  0  0  0  0  0
   -1.3418    1.5711    1.5118 H   0  0  0  0  0  0  0  0  0  0  0  0
   -1.2746    2.2816   -0.1973 H   0  0  0  0  0  0  0  0  0  0  0  0
   -0.0211    2.6508    1.0077 H   0  0  0  0  0  0  0  0  0  0  0  0
    0.4712    0.0881    1.0491 H   0  0  0  0  0  0  0  0  0  0  0  0
    0.6800    0.4803   -1.7238 H   0  0  0  0  0  0  0  0  0  0  0  0
    2.8894   -1.7135    0.7950 H   0  0  0  0  0  0  0  0  0  0  0  0
    3.4924   -1.8385   -0.8669 H   0  0  0  0  0  0  0  0  0  0  0  0
    1.6883   -1.9389   -0.4870 H   0  0  0  0  0  0  0  0  0  0  0  0
   -0.5978   -1.2600   -0.7523 H   0  0  0  0  0  0  0  0  0  0  0  0
   -2.3827    0.8969   -1.2667 H   0  0  0  0  0  0  0  0  0  0  0  0
   -1.5695   -1.2089    1.4885 H   0  0  0  0  0  0  0  0  0  0  0  0
   -2.7063    0.1523    0.9651 H   0  0  0  0  0  0  0  0  0  0  0  0
   -3.7332   -1.7297    0.6189 H   0  0  0  0  0  0  0  0  0  0  0  0
  1  2  1  0
  2  3  1  0
  3  4  1  0
  4  5  1  0
  4  6  2  0
  4  7  2  0
  2  8  1  0
  8  9  1  0
  8 10  1  0
 10 11  1  0
  1 12  1  0
  1 13  1  0
  1 14  1  0
  2 15  1  1
  3 16  1  0
  5 17  1  0
  5 18  1  0
  5 19  1  0
  8 20  1  6
  9 21  1  0
 10 22  1  0
 10 23  1  0
 11 24  1  0
M  END
$$$$

     RDKit          3D

 24 23  0  0  0  0  0  0  0  0999 V2000
   -1.2420   -0.5029   -1.6445 C   0  0  0  0  0  0  0  0  0  0  0  0
   -0.2666   -0.1894   -0.5375 C   0  0  2  0  0  0  0  0  0  0  0  0
    0.9694   -0.8851   -0.8480 N   0  0  0  0  0  0  0  0  0  0  0  0
    2.2147    0.2967   -0.9995 S   0  0  0  0  0  6  0  0  0  0  0  0
    2.3504    1.1199    0.5860 C   0  0  0  0  0  0  0  0  0  0  0  0
    1.8448    1.3125   -2.0256 O   0  0  0  0  0  0  0  0  0  0  0  0
    3.4971   -0.3669   -1.3368 O   0  0  0  0  0  0  0  0  0  0  0  0
   -0.7384   -0.6781    0.8044 C   0  0  2  0  0  0  0  0  0  0  0  0
   -0.9711   -2.0328    0.8117 O   0  0  0  0  0  0  0  0  0  0  0  0
   -1.9029    0.1196    1.3349 C   0  0  0  0  0  0  0  0  0  0  0  0
   -1.5178    1.4780    1.2651 O   0  0  0  0  0  0  0  0  0  0  0  0
   -1.9548    0.3032   -1.8469 H   0  0  0  0  0  0  0  0  0  0  0  0
   -1.7453   -1.4510   -1.3919 H   0  0  0  0  0  0  0  0  0  0  0  0
   -0.6483   -0.6447   -2.5918 H   0  0  0  0  0  0  0  0  0  0  0  0
   -0.1225    0.8912   -0.4743 H   0  0  0  0  0  0  0  0  0  0  0  0
    0.9054   -1.4662   -1.6986 H   0  0  0  0  0  0  0  0  0  0  0  0
    1.3700    1.6042    0.8234 H   0  0  0  0  0  0  0  0  0  0  0  0
    2.5263    0.3656    1.3557 H   0  0  0  0  0  0  0  0  0  0  0  0
    3.1253    1.9125    0.5648 H   0  0  0  0  0  0  0  0  0  0  0  0
    0.1133   -0.4912    1.5189 H   0  0  0  0  0  0  0  0  0  0  0  0
   -1.8859   -2.2399    1.1237 H   0  0  0  0  0  0  0  0  0  0  0  0
   -2.8259   -0.0355    0.7414 H   0  0  0  0  0  0  0  0  0  0  0  0
   -2.0637   -0.1578    2.3967 H   0  0  0  0  0  0  0  0  0  0  0  0
   -1.0317    1.7381    2.0688 H   0  0  0  0  0  0  0  0  0  0  0  0
  1  2  1  0
  2  3  1  0
  3  4  1  0
  4  5  1  0
  4  6  2  0
  4  7  2  0
  2  8  1  0
  8  9  1  0
  8 10  1  0
 10 11  1  0
  1 12  1  0
  1 13  1  0
  1 14  1  0
  2 15  1  1
  3 16  1  0
  5 17  1  0
  5 18  1  0
  5 19  1  0
  8 20  1  1
  9 21  1  0
 10 22  1  0
 10 23  1  0
 11 24  1  0
M  END
$$$$
