
     RDKit          3D

 25 25  0  0  0  0  0  0  0  0999 V2000
    2.4780   -1.0878    0.7877 C   0  0  0  0  0  0  0  0  0  0  0  0
    2.1245    0.2403    0.2104 C   0  0  1  0  0  0  0  0  0  0  0  0
    3.2168    0.6578   -0.6613 N   0  0  0  0  0  0  0  0  0  0  0  0
    0.8662    0.2434   -0.5991 C   0  0  0  0  0  0  0  0  0  0  0  0
   -0.3499   -0.1634    0.1574 C   0  0  1  0  0  0  0  0  0  0  0  0
   -0.5951    0.6912    1.2457 O   0  0  0  0  0  0  0  0  0  0  0  0
   -1.5222   -0.0831   -0.7532 C   0  0  0  0  0  0  0  0  0  0  0  0
   -1.4173    0.0207   -2.0898 N   0  0  0  0  0  0  0  0  0  0  0  0
   -2.6547    0.0661   -2.5481 N   0  0  0  0  0  0  0  0  0  0  0  0
   -3.4997   -0.0067   -1.5356 N   0  0  0  0  0  0  0  0  0  0  0  0
   -2.8269   -0.1002   -0.4072 N   0  0  0  0  0  0  0  0  0  0  0  0
   -3.2935   -0.2029    0.9510 C   0  0  0  0  0  0  0  0  0  0  0  0
    2.4260   -1.9116    0.0346 H   0  0  0  0  0  0  0  0  0  0  0  0
    1.9242   -1.3471    1.7110 H   0  0  0  0  0  0  0  0  0  0  0  0
    3.5587   -1.0399    1.0925 H   0  0  0  0  0  0  0  0  0  0  0  0
    2.0644    0.9718    1.0410 H   0  0  0  0  0  0  0  0  0  0  0  0
    2.8573    1.0419   -1.5564 H   0  0  0  0  0  0  0  0  0  0  0  0
    3.8754    1.3000   -0.1686 H   0  0  0  0  0  0  0  0  0  0  0  0
    1.0267   -0.3558   -1.5150 H   0  0  0  0  0  0  0  0  0  0  0  0
    0.7044    1.3059   -0.9345 H   0  0  0  0  0  0  0  0  0  0  0  0
   -0.3158   -1.1995    0.5370 H   0  0  0  0  0  0  0  0  0  0  0  0
   -0.2854    1.6117    1.0683 H   0  0  0  0  0  0  0  0  0  0  0  0
   -2.9926   -1.1568    1.4459 H   0  0  0  0  0  0  0  0  0  0  0  0
   -4.4054   -0.1732    0.9203 H   0  0  0  0  0  0  0  0  0  0  0  0
   -2.9640    0.6773    1.5659 H   0  0  0  0  0  0  0  0  0  0  0  0
  1  2  1  0
  2  3  1  0
  2  4  1  0
  4  5  1  0
  5  6  1  0
  5  7  1  0
  7  8  2  0
  8  9  1  0
  9 10  2  0
 10 11  1  0
 11 12  1  0
 11  7  1  0
  1 13  1  0
  1 14  1  0
  1 15  1  0
  2 16  1  1
  3 17  1  0
  3 18  1  0
  4 19  1  0
  4 20  1  0
  5 21  1  1
  6 22  1  0
 12 23  1  0
 12 24  1  0
 12 25  1  0
M  END
$$$$

     RDKit          3D

 25 25  0  0  0  0  0  0  0  0999 V2000
   -2.2454    1.3532    0.3580 C   0  0  0  0  0  0  0  0  0  0  0  0
   -2.1341   -0.0569   -0.0791 C   0  0  1  0  0  0  0  0  0  0  0  0
   -3.0219   -0.2719   -1.2088 N   0  0  0  0  0  0  0  0  0  0  0  0
   -0.7650   -0.4958   -0.4883 C   0  0  0  0  0  0  0  0  0  0  0  0
    0.2683   -0.3770    0.5976 C   0  0  1  0  0  0  0  0  0  0  0  0
   -0.0341   -1.1331    1.7143 O   0  0  0  0  0  0  0  0  0  0  0  0
    1.5443   -0.9416    0.0390 C   0  0  0  0  0  0  0  0  0  0  0  0
    1.7454   -2.2673   -0.0963 N   0  0  0  0  0  0  0  0  0  0  0  0
    2.9394   -2.4394   -0.6054 N   0  0  0  0  0  0  0  0  0  0  0  0
    3.4866   -1.2333   -0.7897 N   0  0  0  0  0  0  0  0  0  0  0  0
    2.6305   -0.3223   -0.3946 N   0  0  0  0  0  0  0  0  0  0  0  0
    2.8281    1.1082   -0.4232 C   0  0  0  0  0  0  0  0  0  0  0  0
   -2.8394    1.3782    1.3082 H   0  0  0  0  0  0  0  0  0  0  0  0
   -1.2856    1.8752    0.5091 H   0  0  0  0  0  0  0  0  0  0  0  0
   -2.8357    2.0014   -0.3505 H   0  0  0  0  0  0  0  0  0  0  0  0
   -2.4814   -0.7721    0.7198 H   0  0  0  0  0  0  0  0  0  0  0  0
   -2.9262    0.5628   -1.8324 H   0  0  0  0  0  0  0  0  0  0  0  0
   -2.7789   -1.1417   -1.7441 H   0  0  0  0  0  0  0  0  0  0  0  0
   -0.4467    0.1021   -1.3641 H   0  0  0  0  0  0  0  0  0  0  0  0
   -0.8414   -1.5493   -0.8377 H   0  0  0  0  0  0  0  0  0  0  0  0
    0.3908    0.7047    0.8410 H   0  0  0  0  0  0  0  0  0  0  0  0
    0.0028   -0.5419    2.5019 H   0  0  0  0  0  0  0  0  0  0  0  0
    3.3394    1.4403    0.5252 H   0  0  0  0  0  0  0  0  0  0  0  0
    3.5549    1.3389   -1.2315 H   0  0  0  0  0  0  0  0  0  0  0  0
    1.9053    1.6786   -0.5884 H   0  0  0  0  0  0  0  0  0  0  0  0
  1  2  1  0
  2  3  1  0
  2  4  1  0
  4  5  1  0
  5  6  1  0
  5  7  1  0
  7  8  2  0
  8  9  1  0
  9 10  2  0
 10 11  1  0
 11 12  1  0
 11  7  1  0
  1 13  1  0
  1 14  1  0
  1 15  1  0
  2 16  1  1
  3 17  1  0
  3 18  1  0
  4 19  1  0
  4 20  1  0
  5 21  1  1
  6 22  1  0
 12 23  1  0
 12 24  1  0
 12 25  1  0
M  END
$$$$

     RDKit          3D

 25 25  0  0  0  0  0  0  0  0999 V2000
   -3.1579   -0.5031    0.6036 C   0  0  0  0  0  0  0  0  0  0  0  0
   -1.9836   -0.5211   -0.3521 C   0  0  1  0  0  0  0  0  0  0  0  0
   -2.3590    0.1860   -1.5335 N   0  0  0  0  0  0  0  0  0  0  0  0
   -0.8002    0.0895    0.3603 C   0  0  0  0  0  0  0  0  0  0  0  0
    0.4259    0.1084   -0.5372 C   0  0  1  0  0  0  0  0  0  0  0  0
    0.1194    0.8720   -1.6732 O   0  0  0  0  0  0  0  0  0  0  0  0
    1.5025    0.8136    0.1819 C   0  0  0  0  0  0  0  0  0  0  0  0
    1.5523    2.1320    0.4355 N   0  0  0  0  0  0  0  0  0  0  0  0
    2.6564    2.3726    1.0901 N   0  0  0  0  0  0  0  0  0  0  0  0
    3.3229    1.2367    1.2657 N   0  0  0  0  0  0  0  0  0  0  0  0
    2.6109    0.2708    0.7046 N   0  0  0  0  0  0  0  0  0  0  0  0
    3.0208   -1.1174    0.6944 C   0  0  0  0  0  0  0  0  0  0  0  0
   -3.8496   -1.3200    0.2637 H   0  0  0  0  0  0  0  0  0  0  0  0
   -2.8737   -0.6557    1.6467 H   0  0  0  0  0  0  0  0  0  0  0  0
   -3.6676    0.4812    0.4697 H   0  0  0  0  0  0  0  0  0  0  0  0
   -1.7190   -1.5656   -0.5892 H   0  0  0  0  0  0  0  0  0  0  0  0
   -1.8986   -0.1338   -2.4018 H   0  0  0  0  0  0  0  0  0  0  0  0
   -2.4186    1.2038   -1.4086 H   0  0  0  0  0  0  0  0  0  0  0  0
   -1.0004    1.0870    0.7601 H   0  0  0  0  0  0  0  0  0  0  0  0
   -0.5422   -0.5638    1.2191 H   0  0  0  0  0  0  0  0  0  0  0  0
    0.7193   -0.8989   -0.8377 H   0  0  0  0  0  0  0  0  0  0  0  0
    0.8883    0.7968   -2.3214 H   0  0  0  0  0  0  0  0  0  0  0  0
    2.8183   -1.6116    1.6572 H   0  0  0  0  0  0  0  0  0  0  0  0
    2.5102   -1.6344   -0.1499 H   0  0  0  0  0  0  0  0  0  0  0  0
    4.1232   -1.1247    0.4520 H   0  0  0  0  0  0  0  0  0  0  0  0
  1  2  1  0
  2  3  1  0
  2  4  1  0
  4  5  1  0
  5  6  1  0
  5  7  1  0
  7  8  2  0
  8  9  1  0
  9 10  2  0
 10 11  1  0
 11 12  1  0
 11  7  1  0
  1 13  1  0
  1 14  1  0
  1 15  1  0
  2 16  1  6
  3 17  1  0
  3 18  1  0
  4 19  1  0
  4 20  1  0
  5 21  1  6
  6 22  1  0
 12 23  1  0
 12 24  1  0
 12 25  1  0
M  END
$$$$

     RDKit          3D

 25 25  0  0  0  0  0  0  0  0999 V2000
   -3.3510   -0.6930   -0.0971 C   0  0  0  0  0  0  0  0  0  0  0  0
   -2.0483   -0.1676   -0.6594 C   0  0  1  0  0  0  0  0  0  0  0  0
   -2.1080    1.2840   -0.5660 N   0  0  0  0  0  0  0  0  0  0  0  0
   -0.8782   -0.6193    0.1979 C   0  0  0  0  0  0  0  0  0  0  0  0
    0.4303   -0.1024   -0.3508 C   0  0  1  0  0  0  0  0  0  0  0  0
    0.4304    1.2946   -0.3833 O   0  0  0  0  0  0  0  0  0  0  0  0
    1.5597   -0.5730    0.4751 C   0  0  0  0  0  0  0  0  0  0  0  0
    1.4688   -1.5479    1.4017 N   0  0  0  0  0  0  0  0  0  0  0  0
    2.6380   -1.7216    1.9495 N   0  0  0  0  0  0  0  0  0  0  0  0
    3.4775   -0.8774    1.3927 N   0  0  0  0  0  0  0  0  0  0  0  0
    2.8392   -0.1614    0.4845 N   0  0  0  0  0  0  0  0  0  0  0  0
    3.3649    0.8723   -0.3596 C   0  0  0  0  0  0  0  0  0  0  0  0
   -4.1587   -0.3306   -0.7929 H   0  0  0  0  0  0  0  0  0  0  0  0
   -3.5671   -0.2774    0.9107 H   0  0  0  0  0  0  0  0  0  0  0  0
   -3.3775   -1.8089   -0.1064 H   0  0  0  0  0  0  0  0  0  0  0  0
   -1.9334   -0.5362   -1.6783 H   0  0  0  0  0  0  0  0  0  0  0  0
   -1.7666    1.5783    0.3699 H   0  0  0  0  0  0  0  0  0  0  0  0
   -3.0600    1.6499   -0.7906 H   0  0  0  0  0  0  0  0  0  0  0  0
   -0.8488   -1.7212    0.2494 H   0  0  0  0  0  0  0  0  0  0  0  0
   -0.9799   -0.2276    1.2298 H   0  0  0  0  0  0  0  0  0  0  0  0
    0.5398   -0.4493   -1.3968 H   0  0  0  0  0  0  0  0  0  0  0  0
    0.6849    1.6891    0.4876 H   0  0  0  0  0  0  0  0  0  0  0  0
    4.4792    0.8612   -0.2771 H   0  0  0  0  0  0  0  0  0  0  0  0
    3.0271    1.8858   -0.0963 H   0  0  0  0  0  0  0  0  0  0  0  0
    3.1377    0.6998   -1.4394 H   0  0  0  0  0  0  0  0  0  0  0  0
  1  2  1  0
  2  3  1  0
  2  4  1  0
  4  5  1  0
  5  6  1  0
  5  7  1  0
  7  8  2  0
  8  9  1  0
  9 10  2  0
 10 11  1  0
 11 12  1  0
 11  7  1  0
  1 13  1  0
  1 14  1  0
  1 15  1  0
  2 16  1  6
  3 17  1  0
  3 18  1  0
  4 19  1  0
  4 20  1  0
  5 21  1  6
  6 22  1  0
 12 23  1  0
 12 24  1  0
 12 25  1  0
M  END
$$$$

     RDKit          3D

 25 25  0  0  0  0  0  0  0  0999 V2000
   -3.3419   -0.4278    0.3017 C   0  0  0  0  0  0  0  0  0  0  0  0
   -2.1178    0.4375    0.0681 C   0  0  1  0  0  0  0  0  0  0  0  0
   -1.8315    1.2871    1.1980 N   0  0  0  0  0  0  0  0  0  0  0  0
   -0.9415   -0.5067   -0.1089 C   0  0  0  0  0  0  0  0  0  0  0  0
    0.3411    0.2568   -0.3497 C   0  0  1  0  0  0  0  0  0  0  0  0
    0.6706    1.1070    0.6850 O   0  0  0  0  0  0  0  0  0  0  0  0
    1.4373   -0.7492   -0.4615 C   0  0  0  0  0  0  0  0  0  0  0  0
    1.3121   -2.0941   -0.6145 N   0  0  0  0  0  0  0  0  0  0  0  0
    2.4843   -2.6697   -0.6772 N   0  0  0  0  0  0  0  0  0  0  0  0
    3.3901   -1.7144   -0.5667 N   0  0  0  0  0  0  0  0  0  0  0  0
    2.7687   -0.5412   -0.4349 N   0  0  0  0  0  0  0  0  0  0  0  0
    3.3762    0.7626   -0.2855 C   0  0  0  0  0  0  0  0  0  0  0  0
   -4.2491    0.0616   -0.1070 H   0  0  0  0  0  0  0  0  0  0  0  0
   -3.1967   -1.3626   -0.3035 H   0  0  0  0  0  0  0  0  0  0  0  0
   -3.4227   -0.7236    1.3513 H   0  0  0  0  0  0  0  0  0  0  0  0
   -2.2579    1.0057   -0.8563 H   0  0  0  0  0  0  0  0  0  0  0  0
   -1.8288    2.2956    0.9753 H   0  0  0  0  0  0  0  0  0  0  0  0
   -2.3871    1.0370    2.0449 H   0  0  0  0  0  0  0  0  0  0  0  0
   -1.0926   -1.1990   -0.9435 H   0  0  0  0  0  0  0  0  0  0  0  0
   -0.7768   -1.1130    0.8105 H   0  0  0  0  0  0  0  0  0  0  0  0
    0.2988    0.8651   -1.2761 H   0  0  0  0  0  0  0  0  0  0  0  0
    0.7135    0.6923    1.5647 H   0  0  0  0  0  0  0  0  0  0  0  0
    3.1293    1.4258   -1.1393 H   0  0  0  0  0  0  0  0  0  0  0  0
    4.4885    0.6734   -0.2655 H   0  0  0  0  0  0  0  0  0  0  0  0
    3.0338    1.1937    0.6771 H   0  0  0  0  0  0  0  0  0  0  0  0
  1  2  1  0
  2  3  1  0
  2  4  1  0
  4  5  1  0
  5  6  1  0
  5  7  1  0
  7  8  2  0
  8  9  1  0
  9 10  2  0
 10 11  1  0
 11 12  1  0
 11  7  1  0
  1 13  1  0
  1 14  1  0
  1 15  1  0
  2 16  1  6
  3 17  1  0
  3 18  1  0
  4 19  1  0
  4 20  1  0
  5 21  1  6
  6 22  1  0
 12 23  1  0
 12 24  1  0
 12 25  1  0
M  END
$$$$

     RDKit          3D

 25 25  0  0  0  0  0  0  0  0999 V2000
    3.1694    0.5365   -0.5401 C   0  0  0  0  0  0  0  0  0  0  0  0
    1.7948   -0.1505   -0.5632 C   0  0  1  0  0  0  0  0  0  0  0  0
    2.0700   -1.5754   -0.5279 N   0  0  0  0  0  0  0  0  0  0  0  0
    1.0645    0.3335    0.6397 C   0  0  0  0  0  0  0  0  0  0  0  0
   -0.3108   -0.2038    0.8352 C   0  0  1  0  0  0  0  0  0  0  0  0
   -0.7951    0.3845    2.0313 O   0  0  0  0  0  0  0  0  0  0  0  0
   -1.2255    0.1763   -0.2641 C   0  0  0  0  0  0  0  0  0  0  0  0
   -0.9530    0.6185   -1.4907 N   0  0  0  0  0  0  0  0  0  0  0  0
   -2.0685    0.8452   -2.1687 N   0  0  0  0  0  0  0  0  0  0  0  0
   -3.0581    0.5383   -1.3488 N   0  0  0  0  0  0  0  0  0  0  0  0
   -2.5684    0.1315   -0.1913 N   0  0  0  0  0  0  0  0  0  0  0  0
   -3.3842   -0.2796    0.9270 C   0  0  0  0  0  0  0  0  0  0  0  0
    3.9261   -0.1405   -1.0161 H   0  0  0  0  0  0  0  0  0  0  0  0
    3.1244    1.5254   -1.0367 H   0  0  0  0  0  0  0  0  0  0  0  0
    3.4536    0.6967    0.5117 H   0  0  0  0  0  0  0  0  0  0  0  0
    1.3332    0.0871   -1.5297 H   0  0  0  0  0  0  0  0  0  0  0  0
    2.9081   -1.7572    0.0599 H   0  0  0  0  0  0  0  0  0  0  0  0
    1.2482   -2.1419   -0.2726 H   0  0  0  0  0  0  0  0  0  0  0  0
    1.0052    1.4483    0.5633 H   0  0  0  0  0  0  0  0  0  0  0  0
    1.6966    0.1237    1.5270 H   0  0  0  0  0  0  0  0  0  0  0  0
   -0.3500   -1.2913    0.9959 H   0  0  0  0  0  0  0  0  0  0  0  0
   -1.1749    1.2740    1.8701 H   0  0  0  0  0  0  0  0  0  0  0  0
   -4.1490   -1.0185    0.5656 H   0  0  0  0  0  0  0  0  0  0  0  0
   -3.9394    0.6084    1.3149 H   0  0  0  0  0  0  0  0  0  0  0  0
   -2.8172   -0.7689    1.7207 H   0  0  0  0  0  0  0  0  0  0  0  0
  1  2  1  0
  2  3  1  0
  2  4  1  0
  4  5  1  0
  5  6  1  0
  5  7  1  0
  7  8  2  0
  8  9  1  0
  9 10  2  0
 10 11  1  0
 11 12  1  0
 11  7  1  0
  1 13  1  0
  1 14  1  0
  1 15  1  0
  2 16  1  6
  3 17  1  0
  3 18  1  0
  4 19  1  0
  4 20  1  0
  5 21  1  1
  6 22  1  0
 12 23  1  0
 12 24  1  0
 12 25  1  0
M  END
$$$$

     RDKit          3D

 25 25  0  0  0  0  0  0  0  0999 V2000
    3.1805   -0.9821   -0.5114 C   0  0  0  0  0  0  0  0  0  0  0  0
    2.1140   -0.1198    0.1725 C   0  0  1  0  0  0  0  0  0  0  0  0
    2.3494    1.2248   -0.1666 N   0  0  0  0  0  0  0  0  0  0  0  0
    0.7817   -0.6708   -0.2519 C   0  0  0  0  0  0  0  0  0  0  0  0
   -0.3844    0.0665    0.3345 C   0  0  1  0  0  0  0  0  0  0  0  0
   -0.4381    1.3964    0.0043 O   0  0  0  0  0  0  0  0  0  0  0  0
   -1.6251   -0.5771   -0.1999 C   0  0  0  0  0  0  0  0  0  0  0  0
   -1.7445   -1.7347   -0.8663 N   0  0  0  0  0  0  0  0  0  0  0  0
   -3.0207   -1.9369   -1.1579 N   0  0  0  0  0  0  0  0  0  0  0  0
   -3.7149   -0.9171   -0.6823 N   0  0  0  0  0  0  0  0  0  0  0  0
   -2.8861   -0.0783   -0.0958 N   0  0  0  0  0  0  0  0  0  0  0  0
   -3.2012    1.1799    0.5665 C   0  0  0  0  0  0  0  0  0  0  0  0
    3.5286   -0.4611   -1.4241 H   0  0  0  0  0  0  0  0  0  0  0  0
    4.0156   -1.1728    0.1899 H   0  0  0  0  0  0  0  0  0  0  0  0
    2.7570   -1.9594   -0.7947 H   0  0  0  0  0  0  0  0  0  0  0  0
    2.2181   -0.2511    1.2731 H   0  0  0  0  0  0  0  0  0  0  0  0
    2.1587    1.9394    0.5282 H   0  0  0  0  0  0  0  0  0  0  0  0
    3.0169    1.4301   -0.9025 H   0  0  0  0  0  0  0  0  0  0  0  0
    0.6959   -1.7345    0.0513 H   0  0  0  0  0  0  0  0  0  0  0  0
    0.6752   -0.6481   -1.3569 H   0  0  0  0  0  0  0  0  0  0  0  0
   -0.3443   -0.0282    1.4372 H   0  0  0  0  0  0  0  0  0  0  0  0
   -0.2750    1.5974   -0.9331 H   0  0  0  0  0  0  0  0  0  0  0  0
   -3.2309    1.9789   -0.1853 H   0  0  0  0  0  0  0  0  0  0  0  0
   -2.4383    1.4252    1.3437 H   0  0  0  0  0  0  0  0  0  0  0  0
   -4.1881    1.0333    1.0873 H   0  0  0  0  0  0  0  0  0  0  0  0
  1  2  1  0
  2  3  1  0
  2  4  1  0
  4  5  1  0
  5  6  1  0
  5  7  1  0
  7  8  2  0
  8  9  1  0
  9 10  2  0
 10 11  1  0
 11 12  1  0
 11  7  1  0
  1 13  1  0
  1 14  1  0
  1 15  1  0
  2 16  1  1
  3 17  1  0
  3 18  1  0
  4 19  1  0
  4 20  1  0
  5 21  1  1
  6 22  1  0
 12 23  1  0
 12 24  1  0
 12 25  1  0
M  END
$$$$

     RDKit          3D

 25 25  0  0  0  0  0  0  0  0999 V2000
    2.4419    0.2330    1.4256 C   0  0  0  0  0  0  0  0  0  0  0  0
    1.1650    0.2736    0.6183 C   0  0  1  0  0  0  0  0  0  0  0  0
    1.0225    1.6222    0.1071 N   0  0  0  0  0  0  0  0  0  0  0  0
    1.1865   -0.6858   -0.5379 C   0  0  0  0  0  0  0  0  0  0  0  0
   -0.1232   -0.5646   -1.2688 C   0  0  1  0  0  0  0  0  0  0  0  0
   -0.1422   -1.4524   -2.3647 O   0  0  0  0  0  0  0  0  0  0  0  0
   -1.2139   -0.9900   -0.3667 C   0  0  0  0  0  0  0  0  0  0  0  0
   -1.4325   -2.2799   -0.0396 N   0  0  0  0  0  0  0  0  0  0  0  0
   -2.4588   -2.3258    0.7662 N   0  0  0  0  0  0  0  0  0  0  0  0
   -2.9016   -1.1029    0.9628 N   0  0  0  0  0  0  0  0  0  0  0  0
   -2.1439   -0.2827    0.2724 N   0  0  0  0  0  0  0  0  0  0  0  0
   -2.2816    1.1599    0.2045 C   0  0  0  0  0  0  0  0  0  0  0  0
    3.3006    0.1804    0.7086 H   0  0  0  0  0  0  0  0  0  0  0  0
    2.5308    1.2101    1.9478 H   0  0  0  0  0  0  0  0  0  0  0  0
    2.4867   -0.6254    2.1045 H   0  0  0  0  0  0  0  0  0  0  0  0
    0.3247    0.0351    1.2892 H   0  0  0  0  0  0  0  0  0  0  0  0
    1.6367    2.2815    0.6074 H   0  0  0  0  0  0  0  0  0  0  0  0
    1.2818    1.6468   -0.9009 H   0  0  0  0  0  0  0  0  0  0  0  0
    1.2753   -1.7364   -0.1838 H   0  0  0  0  0  0  0  0  0  0  0  0
    2.0586   -0.4833   -1.1946 H   0  0  0  0  0  0  0  0  0  0  0  0
   -0.3402    0.4315   -1.6477 H   0  0  0  0  0  0  0  0  0  0  0  0
   -0.7061   -1.0984   -3.0935 H   0  0  0  0  0  0  0  0  0  0  0  0
   -1.6814    1.5815   -0.6278 H   0  0  0  0  0  0  0  0  0  0  0  0
   -1.9229    1.6020    1.1461 H   0  0  0  0  0  0  0  0  0  0  0  0
   -3.3626    1.3700    0.0656 H   0  0  0  0  0  0  0  0  0  0  0  0
  1  2  1  0
  2  3  1  0
  2  4  1  0
  4  5  1  0
  5  6  1  0
  5  7  1  0
  7  8  2  0
  8  9  1  0
  9 10  2  0
 10 11  1  0
 11 12  1  0
 11  7  1  0
  1 13  1  0
  1 14  1  0
  1 15  1  0
  2 16  1  1
  3 17  1  0
  3 18  1  0
  4 19  1  0
  4 20  1  0
  5 21  1  6
  6 22  1  0
 12 23  1  0
 12 24  1  0
 12 25  1  0
M  END
$$$$
