
     RDKit          3D

 31 31  0  0  0  0  0  0  0  0999 V2000
   -2.0852    1.3869    1.3778 C   0  0  0  0  0  0  0  0  0  0  0  0
   -0.7768    1.0440    0.7403 C   0  0  0  0  0  0  0  0  0  0  0  0
   -0.7521   -0.2066   -0.0847 C   0  0  0  0  0  0  0  0  0  0  0  0
   -1.7814   -0.0258   -1.2206 C   0  0  0  0  0  0  0  0  0  0  0  0
   -1.7444   -1.1737   -2.0484 O   0  0  0  0  0  0  0  0  0  0  0  0
   -1.2577   -1.4080    0.6720 C   0  0  0  0  0  0  0  0  0  0  0  0
   -2.4932   -1.1311    1.2560 O   0  0  0  0  0  0  0  0  0  0  0  0
    0.4765   -0.3609   -0.7118 N   0  0  0  0  0  0  0  0  0  0  0  0
    1.6999   -0.5380   -0.1365 C   0  0  2  0  0  0  0  0  0  0  0  0
    2.2801    0.5599    0.7071 C   0  0  0  0  0  0  0  0  0  0  0  0
    3.7260    0.5095    0.4357 N   0  0  0  0  0  0  0  0  0  0  0  0
    3.9197   -0.1392   -0.6895 O   0  0  0  0  0  0  0  0  0  0  0  0
    2.7592   -0.5599   -1.2645 C   0  0  0  0  0  0  0  0  0  0  0  0
   -2.9905    1.1203    0.8641 H   0  0  0  0  0  0  0  0  0  0  0  0
   -2.1240    0.9913    2.4337 H   0  0  0  0  0  0  0  0  0  0  0  0
   -2.1221    2.5072    1.5296 H   0  0  0  0  0  0  0  0  0  0  0  0
   -0.4371    1.9366    0.1747 H   0  0  0  0  0  0  0  0  0  0  0  0
   -0.0588    0.9715    1.6140 H   0  0  0  0  0  0  0  0  0  0  0  0
   -2.7885    0.1567   -0.8424 H   0  0  0  0  0  0  0  0  0  0  0  0
   -1.5040    0.8221   -1.8773 H   0  0  0  0  0  0  0  0  0  0  0  0
   -2.5089   -1.0596   -2.6680 H   0  0  0  0  0  0  0  0  0  0  0  0
   -0.5444   -1.8380    1.3782 H   0  0  0  0  0  0  0  0  0  0  0  0
   -1.4629   -2.2011   -0.0894 H   0  0  0  0  0  0  0  0  0  0  0  0
   -3.2333   -1.6501    0.8945 H   0  0  0  0  0  0  0  0  0  0  0  0
    0.4258   -0.3203   -1.7544 H   0  0  0  0  0  0  0  0  0  0  0  0
    1.8926   -1.4918    0.3996 H   0  0  0  0  0  0  0  0  0  0  0  0
    1.8884    1.5627    0.4408 H   0  0  0  0  0  0  0  0  0  0  0  0
    2.2038    0.3810    1.7953 H   0  0  0  0  0  0  0  0  0  0  0  0
    4.1350    1.4706    0.4714 H   0  0  0  0  0  0  0  0  0  0  0  0
    2.7885   -1.5282   -1.7593 H   0  0  0  0  0  0  0  0  0  0  0  0
    2.4700    0.2120   -2.0381 H   0  0  0  0  0  0  0  0  0  0  0  0
  1  2  1  0
  2  3  1  0
  3  4  1  0
  4  5  1  0
  3  6  1  0
  6  7  1  0
  3  8  1  0
  8  9  1  0
  9 10  1  0
 10 11  1  0
 11 12  1  0
 12 13  1  0
 13  9  1  0
  1 14  1  0
  1 15  1  0
  1 16  1  0
  2 17  1  0
  2 18  1  0
  4 19  1  0
  4 20  1  0
  5 21  1  0
  6 22  1  0
  6 23  1  0
  7 24  1  0
  8 25  1  0
  9 26  1  1
 10 27  1  0
 10 28  1  0
 11 29  1  0
 13 30  1  0
 13 31  1  0
M  END
$$$$

     RDKit          3D

 31 31  0  0  0  0  0  0  0  0999 V2000
   -2.4011   -0.9920    1.5597 C   0  0  0  0  0  0  0  0  0  0  0  0
   -0.9946   -0.8319    1.0213 C   0  0  0  0  0  0  0  0  0  0  0  0
   -0.8758    0.1485   -0.1112 C   0  0  0  0  0  0  0  0  0  0  0  0
   -1.3230    1.4955    0.3737 C   0  0  0  0  0  0  0  0  0  0  0  0
   -0.5370    2.0833    1.3224 O   0  0  0  0  0  0  0  0  0  0  0  0
   -1.8884   -0.2093   -1.2272 C   0  0  0  0  0  0  0  0  0  0  0  0
   -1.6500   -1.4817   -1.7104 O   0  0  0  0  0  0  0  0  0  0  0  0
    0.3855    0.0678   -0.7114 N   0  0  0  0  0  0  0  0  0  0  0  0
    1.5722    0.3546   -0.0426 C   0  0  2  0  0  0  0  0  0  0  0  0
    2.6312    0.6443   -1.1335 C   0  0  0  0  0  0  0  0  0  0  0  0
    3.5899   -0.4391   -0.9973 N   0  0  0  0  0  0  0  0  0  0  0  0
    2.9165   -1.4311   -0.3629 O   0  0  0  0  0  0  0  0  0  0  0  0
    2.2621   -0.7420    0.6863 C   0  0  0  0  0  0  0  0  0  0  0  0
   -2.7869   -0.1373    2.1066 H   0  0  0  0  0  0  0  0  0  0  0  0
   -2.3239   -1.8369    2.3080 H   0  0  0  0  0  0  0  0  0  0  0  0
   -3.0968   -1.4036    0.7752 H   0  0  0  0  0  0  0  0  0  0  0  0
   -0.3943   -0.4781    1.9032 H   0  0  0  0  0  0  0  0  0  0  0  0
   -0.6384   -1.8531    0.7792 H   0  0  0  0  0  0  0  0  0  0  0  0
   -2.3393    1.3698    0.8097 H   0  0  0  0  0  0  0  0  0  0  0  0
   -1.4941    2.2063   -0.4899 H   0  0  0  0  0  0  0  0  0  0  0  0
   -0.3735    3.0239    1.0692 H   0  0  0  0  0  0  0  0  0  0  0  0
   -2.9098   -0.1382   -0.8724 H   0  0  0  0  0  0  0  0  0  0  0  0
   -1.7749    0.4924   -2.0775 H   0  0  0  0  0  0  0  0  0  0  0  0
   -1.9029   -1.5215   -2.6742 H   0  0  0  0  0  0  0  0  0  0  0  0
    0.3825    0.1055   -1.7454 H   0  0  0  0  0  0  0  0  0  0  0  0
    1.4879    1.3014    0.5197 H   0  0  0  0  0  0  0  0  0  0  0  0
    3.1282    1.6110   -0.9805 H   0  0  0  0  0  0  0  0  0  0  0  0
    2.1981    0.5231   -2.1528 H   0  0  0  0  0  0  0  0  0  0  0  0
    4.4368   -0.1605   -0.4655 H   0  0  0  0  0  0  0  0  0  0  0  0
    3.0509   -0.2949    1.3214 H   0  0  0  0  0  0  0  0  0  0  0  0
    1.6627   -1.4759    1.1989 H   0  0  0  0  0  0  0  0  0  0  0  0
  1  2  1  0
  2  3  1  0
  3  4  1  0
  4  5  1  0
  3  6  1  0
  6  7  1  0
  3  8  1  0
  8  9  1  0
  9 10  1  0
 10 11  1  0
 11 12  1  0
 12 13  1  0
 13  9  1  0
  1 14  1  0
  1 15  1  0
  1 16  1  0
  2 17  1  0
  2 18  1  0
  4 19  1  0
  4 20  1  0
  5 21  1  0
  6 22  1  0
  6 23  1  0
  7 24  1  0
  8 25  1  0
  9 26  1  1
 10 27  1  0
 10 28  1  0
 11 29  1  0
 13 30  1  0
 13 31  1  0
M  END
$$$$

     RDKit          3D

 31 31  0  0  0  0  0  0  0  0999 V2000
   -0.9334    2.2334   -0.6401 C   0  0  0  0  0  0  0  0  0  0  0  0
   -1.5435    1.2644    0.2698 C   0  0  0  0  0  0  0  0  0  0  0  0
   -1.1168   -0.1908    0.1311 C   0  0  0  0  0  0  0  0  0  0  0  0
   -1.9487   -0.9106    1.2038 C   0  0  0  0  0  0  0  0  0  0  0  0
   -1.6048   -2.2669    1.2398 O   0  0  0  0  0  0  0  0  0  0  0  0
   -1.5638   -0.7889   -1.1595 C   0  0  0  0  0  0  0  0  0  0  0  0
   -0.8849   -0.3641   -2.2651 O   0  0  0  0  0  0  0  0  0  0  0  0
    0.2130   -0.3896    0.5301 N   0  0  0  0  0  0  0  0  0  0  0  0
    1.3067    0.1348   -0.1461 C   0  0  2  0  0  0  0  0  0  0  0  0
    2.1859   -1.0273   -0.6323 C   0  0  0  0  0  0  0  0  0  0  0  0
    3.4497   -0.8138    0.0331 N   0  0  0  0  0  0  0  0  0  0  0  0
    3.5063    0.3877    0.5681 O   0  0  0  0  0  0  0  0  0  0  0  0
    2.2769    0.9674    0.6161 C   0  0  0  0  0  0  0  0  0  0  0  0
   -1.6236    3.1383   -0.6852 H   0  0  0  0  0  0  0  0  0  0  0  0
   -0.8313    1.9461   -1.6978 H   0  0  0  0  0  0  0  0  0  0  0  0
    0.0173    2.6819   -0.2562 H   0  0  0  0  0  0  0  0  0  0  0  0
   -1.2103    1.5300    1.3250 H   0  0  0  0  0  0  0  0  0  0  0  0
   -2.6506    1.3123    0.3255 H   0  0  0  0  0  0  0  0  0  0  0  0
   -1.7422   -0.4975    2.2003 H   0  0  0  0  0  0  0  0  0  0  0  0
   -3.0263   -0.8770    0.9701 H   0  0  0  0  0  0  0  0  0  0  0  0
   -1.2073   -2.5331    2.1122 H   0  0  0  0  0  0  0  0  0  0  0  0
   -1.4636   -1.8869   -1.0781 H   0  0  0  0  0  0  0  0  0  0  0  0
   -2.6639   -0.5591   -1.2379 H   0  0  0  0  0  0  0  0  0  0  0  0
   -0.4093   -1.0733   -2.7629 H   0  0  0  0  0  0  0  0  0  0  0  0
    0.4098   -0.6551    1.5007 H   0  0  0  0  0  0  0  0  0  0  0  0
    1.0713    0.7114   -1.0729 H   0  0  0  0  0  0  0  0  0  0  0  0
    2.2758   -1.0753   -1.7138 H   0  0  0  0  0  0  0  0  0  0  0  0
    1.8107   -2.0151   -0.2770 H   0  0  0  0  0  0  0  0  0  0  0  0
    3.6404   -1.5187    0.7709 H   0  0  0  0  0  0  0  0  0  0  0  0
    1.8737    1.1257    1.6370 H   0  0  0  0  0  0  0  0  0  0  0  0
    2.3870    2.0096    0.1914 H   0  0  0  0  0  0  0  0  0  0  0  0
  1  2  1  0
  2  3  1  0
  3  4  1  0
  4  5  1  0
  3  6  1  0
  6  7  1  0
  3  8  1  0
  8  9  1  0
  9 10  1  0
 10 11  1  0
 11 12  1  0
 12 13  1  0
 13  9  1  0
  1 14  1  0
  1 15  1  0
  1 16  1  0
  2 17  1  0
  2 18  1  0
  4 19  1  0
  4 20  1  0
  5 21  1  0
  6 22  1  0
  6 23  1  0
  7 24  1  0
  8 25  1  0
  9 26  1  6
 10 27  1  0
 10 28  1  0
 11 29  1  0
 13 30  1  0
 13 31  1  0
M  END
$$$$

     RDKit          3D

 31 31  0  0  0  0  0  0  0  0999 V2000
   -2.0273    1.8697    0.9191 C   0  0  0  0  0  0  0  0  0  0  0  0
   -1.6778    1.3026   -0.4215 C   0  0  0  0  0  0  0  0  0  0  0  0
   -0.8013    0.0892   -0.3259 C   0  0  0  0  0  0  0  0  0  0  0  0
   -1.5262   -0.9810    0.4637 C   0  0  0  0  0  0  0  0  0  0  0  0
   -1.7925   -0.6461    1.7664 O   0  0  0  0  0  0  0  0  0  0  0  0
   -0.6943   -0.4661   -1.7391 C   0  0  0  0  0  0  0  0  0  0  0  0
   -2.0026   -0.7626   -2.1359 O   0  0  0  0  0  0  0  0  0  0  0  0
    0.4509    0.4476    0.2270 N   0  0  0  0  0  0  0  0  0  0  0  0
    1.4679   -0.5802    0.1969 C   0  0  2  0  0  0  0  0  0  0  0  0
    2.4836   -0.1938    1.2869 C   0  0  0  0  0  0  0  0  0  0  0  0
    3.6204    0.2457    0.4770 N   0  0  0  0  0  0  0  0  0  0  0  0
    3.6182   -0.7385   -0.4723 O   0  0  0  0  0  0  0  0  0  0  0  0
    2.3312   -0.5532   -1.0163 C   0  0  0  0  0  0  0  0  0  0  0  0
   -2.8676    1.3539    1.4354 H   0  0  0  0  0  0  0  0  0  0  0  0
   -1.1467    1.9999    1.5548 H   0  0  0  0  0  0  0  0  0  0  0  0
   -2.3907    2.9297    0.7248 H   0  0  0  0  0  0  0  0  0  0  0  0
   -2.6238    1.0829   -0.9863 H   0  0  0  0  0  0  0  0  0  0  0  0
   -1.1245    2.1028   -0.9674 H   0  0  0  0  0  0  0  0  0  0  0  0
   -2.5083   -1.2356   -0.0238 H   0  0  0  0  0  0  0  0  0  0  0  0
   -0.9521   -1.9461    0.4695 H   0  0  0  0  0  0  0  0  0  0  0  0
   -1.2663   -1.1805    2.3990 H   0  0  0  0  0  0  0  0  0  0  0  0
   -0.1825   -1.4408   -1.6501 H   0  0  0  0  0  0  0  0  0  0  0  0
   -0.2733    0.2260   -2.4635 H   0  0  0  0  0  0  0  0  0  0  0  0
   -2.2285   -1.7235   -1.9980 H   0  0  0  0  0  0  0  0  0  0  0  0
    0.2891    0.6354    1.2639 H   0  0  0  0  0  0  0  0  0  0  0  0
    1.0886   -1.5650    0.4554 H   0  0  0  0  0  0  0  0  0  0  0  0
    2.7429   -1.0547    1.9014 H   0  0  0  0  0  0  0  0  0  0  0  0
    2.1452    0.6427    1.8984 H   0  0  0  0  0  0  0  0  0  0  0  0
    3.3058    1.1102   -0.0325 H   0  0  0  0  0  0  0  0  0  0  0  0
    2.1997   -1.3999   -1.7161 H   0  0  0  0  0  0  0  0  0  0  0  0
    2.3429    0.4295   -1.4906 H   0  0  0  0  0  0  0  0  0  0  0  0
  1  2  1  0
  2  3  1  0
  3  4  1  0
  4  5  1  0
  3  6  1  0
  6  7  1  0
  3  8  1  0
  8  9  1  0
  9 10  1  0
 10 11  1  0
 11 12  1  0
 12 13  1  0
 13  9  1  0
  1 14  1  0
  1 15  1  0
  1 16  1  0
  2 17  1  0
  2 18  1  0
  4 19  1  0
  4 20  1  0
  5 21  1  0
  6 22  1  0
  6 23  1  0
  7 24  1  0
  8 25  1  0
  9 26  1  1
 10 27  1  0
 10 28  1  0
 11 29  1  0
 13 30  1  0
 13 31  1  0
M  END
$$$$

     RDKit          3D

 31 31  0  0  0  0  0  0  0  0999 V2000
   -2.0885    1.4652   -1.5764 C   0  0  0  0  0  0  0  0  0  0  0  0
   -2.0326    0.9989   -0.1552 C   0  0  0  0  0  0  0  0  0  0  0  0
   -0.9387   -0.0269    0.1129 C   0  0  0  0  0  0  0  0  0  0  0  0
   -1.0801   -0.3377    1.5990 C   0  0  0  0  0  0  0  0  0  0  0  0
   -2.3355   -0.9191    1.7638 O   0  0  0  0  0  0  0  0  0  0  0  0
   -1.2565   -1.3111   -0.6044 C   0  0  0  0  0  0  0  0  0  0  0  0
   -0.2917   -2.2666   -0.2310 O   0  0  0  0  0  0  0  0  0  0  0  0
    0.3092    0.5678   -0.2033 N   0  0  0  0  0  0  0  0  0  0  0  0
    1.5140   -0.0054    0.1664 C   0  0  2  0  0  0  0  0  0  0  0  0
    2.5073    1.1481    0.4804 C   0  0  0  0  0  0  0  0  0  0  0  0
    3.7071    0.3252    0.5894 N   0  0  0  0  0  0  0  0  0  0  0  0
    3.6452   -0.5995   -0.3462 O   0  0  0  0  0  0  0  0  0  0  0  0
    2.3607   -0.6718   -0.8699 C   0  0  0  0  0  0  0  0  0  0  0  0
   -1.1230    1.7617   -1.9572 H   0  0  0  0  0  0  0  0  0  0  0  0
   -2.7641    2.3633   -1.5790 H   0  0  0  0  0  0  0  0  0  0  0  0
   -2.5701    0.7046   -2.2370 H   0  0  0  0  0  0  0  0  0  0  0  0
   -1.7805    1.9288    0.4521 H   0  0  0  0  0  0  0  0  0  0  0  0
   -3.0114    0.6656    0.2025 H   0  0  0  0  0  0  0  0  0  0  0  0
   -1.0094    0.5833    2.1879 H   0  0  0  0  0  0  0  0  0  0  0  0
   -0.3356   -1.0584    1.9449 H   0  0  0  0  0  0  0  0  0  0  0  0
   -2.2467   -1.8695    2.1108 H   0  0  0  0  0  0  0  0  0  0  0  0
   -2.2371   -1.7151   -0.3135 H   0  0  0  0  0  0  0  0  0  0  0  0
   -1.1923   -1.1672   -1.7233 H   0  0  0  0  0  0  0  0  0  0  0  0
   -0.5184   -3.1167   -0.6682 H   0  0  0  0  0  0  0  0  0  0  0  0
    0.2612    1.5649    0.1778 H   0  0  0  0  0  0  0  0  0  0  0  0
    1.5567   -0.6188    1.0856 H   0  0  0  0  0  0  0  0  0  0  0  0
    2.5506    1.7498   -0.4455 H   0  0  0  0  0  0  0  0  0  0  0  0
    2.2589    1.6794    1.3859 H   0  0  0  0  0  0  0  0  0  0  0  0
    3.6698   -0.1137    1.5386 H   0  0  0  0  0  0  0  0  0  0  0  0
    2.1168   -1.7026   -1.1201 H   0  0  0  0  0  0  0  0  0  0  0  0
    2.3548   -0.0067   -1.7680 H   0  0  0  0  0  0  0  0  0  0  0  0
  1  2  1  0
  2  3  1  0
  3  4  1  0
  4  5  1  0
  3  6  1  0
  6  7  1  0
  3  8  1  0
  8  9  1  0
  9 10  1  0
 10 11  1  0
 11 12  1  0
 12 13  1  0
 13  9  1  0
  1 14  1  0
  1 15  1  0
  1 16  1  0
  2 17  1  0
  2 18  1  0
  4 19  1  0
  4 20  1  0
  5 21  1  0
  6 22  1  0
  6 23  1  0
  7 24  1  0
  8 25  1  0
  9 26  1  1
 10 27  1  0
 10 28  1  0
 11 29  1  0
 13 30  1  0
 13 31  1  0
M  END
$$$$

     RDKit          3D

 31 31  0  0  0  0  0  0  0  0999 V2000
   -2.4686   -1.2384   -0.9551 C   0  0  0  0  0  0  0  0  0  0  0  0
   -1.0643   -1.0793   -0.5947 C   0  0  0  0  0  0  0  0  0  0  0  0
   -0.7373   -0.0776    0.5114 C   0  0  0  0  0  0  0  0  0  0  0  0
   -1.2488    1.2594    0.0699 C   0  0  0  0  0  0  0  0  0  0  0  0
   -0.7512    1.6836   -1.1603 O   0  0  0  0  0  0  0  0  0  0  0  0
   -1.3957   -0.5132    1.7873 C   0  0  0  0  0  0  0  0  0  0  0  0
   -2.7765   -0.4221    1.8143 O   0  0  0  0  0  0  0  0  0  0  0  0
    0.6798   -0.1252    0.7571 N   0  0  0  0  0  0  0  0  0  0  0  0
    1.5505    0.2811   -0.2610 C   0  0  2  0  0  0  0  0  0  0  0  0
    2.6934   -0.7257   -0.3876 C   0  0  0  0  0  0  0  0  0  0  0  0
    3.7658    0.0829   -0.8291 N   0  0  0  0  0  0  0  0  0  0  0  0
    3.6087    1.3416   -0.4006 O   0  0  0  0  0  0  0  0  0  0  0  0
    2.3891    1.4897    0.1745 C   0  0  0  0  0  0  0  0  0  0  0  0
   -2.7114   -0.7210   -1.9447 H   0  0  0  0  0  0  0  0  0  0  0  0
   -2.6948   -2.3215   -1.2183 H   0  0  0  0  0  0  0  0  0  0  0  0
   -3.2507   -0.9037   -0.2854 H   0  0  0  0  0  0  0  0  0  0  0  0
   -0.4511   -0.8624   -1.4992 H   0  0  0  0  0  0  0  0  0  0  0  0
   -0.7027   -2.0809   -0.2301 H   0  0  0  0  0  0  0  0  0  0  0  0
   -0.9765    2.0810    0.8003 H   0  0  0  0  0  0  0  0  0  0  0  0
   -2.3675    1.3065    0.0069 H   0  0  0  0  0  0  0  0  0  0  0  0
   -1.4637    2.0147   -1.7744 H   0  0  0  0  0  0  0  0  0  0  0  0
   -1.0064   -0.0324    2.7038 H   0  0  0  0  0  0  0  0  0  0  0  0
   -1.1979   -1.6387    1.9667 H   0  0  0  0  0  0  0  0  0  0  0  0
   -3.0126    0.4928    2.1304 H   0  0  0  0  0  0  0  0  0  0  0  0
    0.8775   -0.9818    1.2597 H   0  0  0  0  0  0  0  0  0  0  0  0
    1.1390    0.4104   -1.2739 H   0  0  0  0  0  0  0  0  0  0  0  0
    2.9360   -1.1092    0.6219 H   0  0  0  0  0  0  0  0  0  0  0  0
    2.4426   -1.5636   -1.0860 H   0  0  0  0  0  0  0  0  0  0  0  0
    3.7574    0.1031   -1.8857 H   0  0  0  0  0  0  0  0  0  0  0  0
    1.9267    2.4551   -0.0964 H   0  0  0  0  0  0  0  0  0  0  0  0
    2.5111    1.3948    1.2781 H   0  0  0  0  0  0  0  0  0  0  0  0
  1  2  1  0
  2  3  1  0
  3  4  1  0
  4  5  1  0
  3  6  1  0
  6  7  1  0
  3  8  1  0
  8  9  1  0
  9 10  1  0
 10 11  1  0
 11 12  1  0
 12 13  1  0
 13  9  1  0
  1 14  1  0
  1 15  1  0
  1 16  1  0
  2 17  1  0
  2 18  1  0
  4 19  1  0
  4 20  1  0
  5 21  1  0
  6 22  1  0
  6 23  1  0
  7 24  1  0
  8 25  1  0
  9 26  1  6
 10 27  1  0
 10 28  1  0
 11 29  1  0
 13 30  1  0
 13 31  1  0
M  END
$$$$

     RDKit          3D

 31 31  0  0  0  0  0  0  0  0999 V2000
   -2.4231   -1.3152   -1.1502 C   0  0  0  0  0  0  0  0  0  0  0  0
   -0.9783   -0.9414   -0.9243 C   0  0  0  0  0  0  0  0  0  0  0  0
   -0.7448    0.0179    0.1714 C   0  0  0  0  0  0  0  0  0  0  0  0
   -1.4411    1.3267   -0.1418 C   0  0  0  0  0  0  0  0  0  0  0  0
   -1.5986    2.1233    0.9867 O   0  0  0  0  0  0  0  0  0  0  0  0
   -1.5734   -0.5398    1.3769 C   0  0  0  0  0  0  0  0  0  0  0  0
   -1.4770    0.4312    2.3582 O   0  0  0  0  0  0  0  0  0  0  0  0
    0.5341    0.1749    0.7121 N   0  0  0  0  0  0  0  0  0  0  0  0
    1.6377    0.6375    0.0077 C   0  0  2  0  0  0  0  0  0  0  0  0
    2.1953   -0.2204   -1.0818 C   0  0  0  0  0  0  0  0  0  0  0  0
    3.1421   -1.0452   -0.3445 N   0  0  0  0  0  0  0  0  0  0  0  0
    3.7102   -0.2883    0.5944 O   0  0  0  0  0  0  0  0  0  0  0  0
    2.8419    0.6994    0.9655 C   0  0  0  0  0  0  0  0  0  0  0  0
   -3.1452   -0.5224   -1.1826 H   0  0  0  0  0  0  0  0  0  0  0  0
   -2.6941   -2.1486   -0.4542 H   0  0  0  0  0  0  0  0  0  0  0  0
   -2.4476   -1.8116   -2.1698 H   0  0  0  0  0  0  0  0  0  0  0  0
   -0.6690   -0.4532   -1.9063 H   0  0  0  0  0  0  0  0  0  0  0  0
   -0.4447   -1.9051   -0.8110 H   0  0  0  0  0  0  0  0  0  0  0  0
   -2.3965    1.1118   -0.6178 H   0  0  0  0  0  0  0  0  0  0  0  0
   -0.8094    1.8367   -0.9075 H   0  0  0  0  0  0  0  0  0  0  0  0
   -1.0294    2.9320    0.8598 H   0  0  0  0  0  0  0  0  0  0  0  0
   -2.5906   -0.7544    1.0530 H   0  0  0  0  0  0  0  0  0  0  0  0
   -0.9828   -1.4198    1.7096 H   0  0  0  0  0  0  0  0  0  0  0  0
   -1.5023    0.0322    3.2689 H   0  0  0  0  0  0  0  0  0  0  0  0
    0.4696    0.5073    1.7040 H   0  0  0  0  0  0  0  0  0  0  0  0
    1.5161    1.7138   -0.3507 H   0  0  0  0  0  0  0  0  0  0  0  0
    2.7799    0.3989   -1.8146 H   0  0  0  0  0  0  0  0  0  0  0  0
    1.5206   -0.9178   -1.5715 H   0  0  0  0  0  0  0  0  0  0  0  0
    2.6589   -1.8988    0.0743 H   0  0  0  0  0  0  0  0  0  0  0  0
    2.5525    0.5655    2.0139 H   0  0  0  0  0  0  0  0  0  0  0  0
    3.3889    1.6725    0.8601 H   0  0  0  0  0  0  0  0  0  0  0  0
  1  2  1  0
  2  3  1  0
  3  4  1  0
  4  5  1  0
  3  6  1  0
  6  7  1  0
  3  8  1  0
  8  9  1  0
  9 10  1  0
 10 11  1  0
 11 12  1  0
 12 13  1  0
 13  9  1  0
  1 14  1  0
  1 15  1  0
  1 16  1  0
  2 17  1  0
  2 18  1  0
  4 19  1  0
  4 20  1  0
  5 21  1  0
  6 22  1  0
  6 23  1  0
  7 24  1  0
  8 25  1  0
  9 26  1  6
 10 27  1  0
 10 28  1  0
 11 29  1  0
 13 30  1  0
 13 31  1  0
M  END
$$$$

     RDKit          3D

 31 31  0  0  0  0  0  0  0  0999 V2000
   -2.1961   -1.9722   -0.0859 C   0  0  0  0  0  0  0  0  0  0  0  0
   -2.2504   -0.5431   -0.4623 C   0  0  0  0  0  0  0  0  0  0  0  0
   -1.0070    0.2552   -0.0344 C   0  0  0  0  0  0  0  0  0  0  0  0
   -1.3398    1.6654   -0.5592 C   0  0  0  0  0  0  0  0  0  0  0  0
   -0.3470    2.5709   -0.3388 O   0  0  0  0  0  0  0  0  0  0  0  0
   -1.0708    0.3540    1.4548 C   0  0  0  0  0  0  0  0  0  0  0  0
   -0.1280    1.1594    2.0530 O   0  0  0  0  0  0  0  0  0  0  0  0
    0.1594   -0.2895   -0.6108 N   0  0  0  0  0  0  0  0  0  0  0  0
    1.4179   -0.0076   -0.0567 C   0  0  2  0  0  0  0  0  0  0  0  0
    2.5354    0.2201   -1.0977 C   0  0  0  0  0  0  0  0  0  0  0  0
    3.6727    0.0460   -0.1753 N   0  0  0  0  0  0  0  0  0  0  0  0
    3.4221   -1.0861    0.4975 O   0  0  0  0  0  0  0  0  0  0  0  0
    2.0551   -1.2183    0.6354 C   0  0  0  0  0  0  0  0  0  0  0  0
   -1.3052   -2.1940    0.5022 H   0  0  0  0  0  0  0  0  0  0  0  0
   -2.2604   -2.5967   -1.0129 H   0  0  0  0  0  0  0  0  0  0  0  0
   -3.1063   -2.2851    0.5016 H   0  0  0  0  0  0  0  0  0  0  0  0
   -3.1008   -0.0707    0.0875 H   0  0  0  0  0  0  0  0  0  0  0  0
   -2.4623   -0.3617   -1.5301 H   0  0  0  0  0  0  0  0  0  0  0  0
   -2.2915    1.9495   -0.0406 H   0  0  0  0  0  0  0  0  0  0  0  0
   -1.5995    1.6349   -1.6309 H   0  0  0  0  0  0  0  0  0  0  0  0
   -0.0588    2.9592   -1.1942 H   0  0  0  0  0  0  0  0  0  0  0  0
   -2.0712    0.7118    1.7837 H   0  0  0  0  0  0  0  0  0  0  0  0
   -1.0173   -0.6994    1.8304 H   0  0  0  0  0  0  0  0  0  0  0  0
   -0.5428    1.6937    2.7552 H   0  0  0  0  0  0  0  0  0  0  0  0
    0.1508   -0.0897   -1.6355 H   0  0  0  0  0  0  0  0  0  0  0  0
    1.4997    0.8732    0.5997 H   0  0  0  0  0  0  0  0  0  0  0  0
    2.5611   -0.5740   -1.8570 H   0  0  0  0  0  0  0  0  0  0  0  0
    2.5410    1.2407   -1.4905 H   0  0  0  0  0  0  0  0  0  0  0  0
    4.5638    0.0646   -0.6665 H   0  0  0  0  0  0  0  0  0  0  0  0
    1.7591   -2.1324    0.0784 H   0  0  0  0  0  0  0  0  0  0  0  0
    1.8171   -1.2778    1.6998 H   0  0  0  0  0  0  0  0  0  0  0  0
  1  2  1  0
  2  3  1  0
  3  4  1  0
  4  5  1  0
  3  6  1  0
  6  7  1  0
  3  8  1  0
  8  9  1  0
  9 10  1  0
 10 11  1  0
 11 12  1  0
 12 13  1  0
 13  9  1  0
  1 14  1  0
  1 15  1  0
  1 16  1  0
  2 17  1  0
  2 18  1  0
  4 19  1  0
  4 20  1  0
  5 21  1  0
  6 22  1  0
  6 23  1  0
  7 24  1  0
  8 25  1  0
  9 26  1  1
 10 27  1  0
 10 28  1  0
 11 29  1  0
 13 30  1  0
 13 31  1  0
M  END
$$$$
