
     RDKit          3D

 28 28  0  0  0  0  0  0  0  0999 V2000
   -2.6361    1.5899    0.1180 C   0  0  0  0  0  0  0  0  0  0  0  0
   -2.3001    0.1747   -0.2716 C   0  0  2  0  0  0  0  0  0  0  0  0
   -3.3887   -0.7164    0.3102 C   0  0  0  0  0  0  0  0  0  0  0  0
   -2.8144   -1.9617    0.2576 O   0  0  0  0  0  0  0  0  0  0  0  0
   -1.4719   -1.8507    0.5114 C   0  0  0  0  0  0  0  0  0  0  0  0
   -1.1213   -0.3764    0.5048 C   0  0  1  0  0  0  0  0  0  0  0  0
    0.1020   -0.1955   -0.1602 O   0  0  0  0  0  0  0  0  0  0  0  0
    1.1604    0.4838    0.4282 C   0  0  0  0  0  0  0  0  0  0  0  0
    0.9442    0.9243    1.5974 O   0  0  0  0  0  0  0  0  0  0  0  0
    2.4588    0.7049   -0.2130 C   0  0  1  0  0  0  0  0  0  0  0  0
    3.3272    1.4472    0.6805 N   0  0  0  0  0  0  0  0  0  0  0  0
    3.1756   -0.5897   -0.5414 C   0  0  0  0  0  0  0  0  0  0  0  0
    4.3923   -0.3191   -1.1570 O   0  0  0  0  0  0  0  0  0  0  0  0
   -3.6954    1.7667   -0.1830 H   0  0  0  0  0  0  0  0  0  0  0  0
   -2.6188    1.6416    1.2188 H   0  0  0  0  0  0  0  0  0  0  0  0
   -2.0292    2.3494   -0.3841 H   0  0  0  0  0  0  0  0  0  0  0  0
   -2.2398    0.0028   -1.3457 H   0  0  0  0  0  0  0  0  0  0  0  0
   -4.3253   -0.6441   -0.2418 H   0  0  0  0  0  0  0  0  0  0  0  0
   -3.4888   -0.4150    1.3853 H   0  0  0  0  0  0  0  0  0  0  0  0
   -0.9345   -2.3268   -0.3607 H   0  0  0  0  0  0  0  0  0  0  0  0
   -1.2213   -2.3466    1.4618 H   0  0  0  0  0  0  0  0  0  0  0  0
   -1.1639    0.0576    1.5083 H   0  0  0  0  0  0  0  0  0  0  0  0
    2.3484    1.3146   -1.1252 H   0  0  0  0  0  0  0  0  0  0  0  0
    4.1137    0.8778    1.0371 H   0  0  0  0  0  0  0  0  0  0  0  0
    2.7662    1.8977    1.4442 H   0  0  0  0  0  0  0  0  0  0  0  0
    3.3864   -1.1866    0.3589 H   0  0  0  0  0  0  0  0  0  0  0  0
    2.5148   -1.1620   -1.2422 H   0  0  0  0  0  0  0  0  0  0  0  0
    4.7597   -1.1425   -1.5671 H   0  0  0  0  0  0  0  0  0  0  0  0
  1  2  1  0
  2  3  1  0
  3  4  1  0
  4  5  1  0
  5  6  1  0
  6  7  1  0
  7  8  1  0
  8  9  2  0
  8 10  1  0
 10 11  1  0
 10 12  1  0
 12 13  1  0
  6  2  1  0
  1 14  1  0
  1 15  1  0
  1 16  1  0
  2 17  1  6
  3 18  1  0
  3 19  1  0
  5 20  1  0
  5 21  1  0
  6 22  1  1
 10 23  1  6
 11 24  1  0
 11 25  1  0
 12 26  1  0
 12 27  1  0
 13 28  1  0
M  END
$$$$

     RDKit          3D

 28 28  0  0  0  0  0  0  0  0999 V2000
   -2.3435   -1.6370   -0.1226 C   0  0  0  0  0  0  0  0  0  0  0  0
   -2.0634   -0.3774    0.6680 C   0  0  2  0  0  0  0  0  0  0  0  0
   -3.3111    0.4819    0.6896 C   0  0  0  0  0  0  0  0  0  0  0  0
   -2.7544    1.7264    1.0448 O   0  0  0  0  0  0  0  0  0  0  0  0
   -1.7910    1.8839    0.0328 C   0  0  0  0  0  0  0  0  0  0  0  0
   -1.1061    0.5308   -0.0827 C   0  0  1  0  0  0  0  0  0  0  0  0
    0.1696    0.5535    0.4755 O   0  0  0  0  0  0  0  0  0  0  0  0
    1.2590    0.1726   -0.2902 C   0  0  0  0  0  0  0  0  0  0  0  0
    1.0345   -0.1813   -1.4747 O   0  0  0  0  0  0  0  0  0  0  0  0
    2.6474    0.1633    0.2118 C   0  0  1  0  0  0  0  0  0  0  0  0
    2.6561    0.6052    1.5864 N   0  0  0  0  0  0  0  0  0  0  0  0
    3.2639   -1.2097    0.0558 C   0  0  0  0  0  0  0  0  0  0  0  0
    4.5814   -1.2047    0.4868 O   0  0  0  0  0  0  0  0  0  0  0  0
   -2.1641   -2.5469    0.5099 H   0  0  0  0  0  0  0  0  0  0  0  0
   -1.7353   -1.6783   -1.0405 H   0  0  0  0  0  0  0  0  0  0  0  0
   -3.4128   -1.6773   -0.4141 H   0  0  0  0  0  0  0  0  0  0  0  0
   -1.7424   -0.5734    1.6994 H   0  0  0  0  0  0  0  0  0  0  0  0
   -3.7049    0.5718   -0.3254 H   0  0  0  0  0  0  0  0  0  0  0  0
   -4.0539    0.1409    1.4337 H   0  0  0  0  0  0  0  0  0  0  0  0
   -1.1098    2.6807    0.3600 H   0  0  0  0  0  0  0  0  0  0  0  0
   -2.3235    2.1159   -0.9117 H   0  0  0  0  0  0  0  0  0  0  0  0
   -1.1181    0.1906   -1.1431 H   0  0  0  0  0  0  0  0  0  0  0  0
    3.2419    0.8778   -0.3694 H   0  0  0  0  0  0  0  0  0  0  0  0
    3.3480    1.3533    1.7714 H   0  0  0  0  0  0  0  0  0  0  0  0
    1.7228    0.7651    1.9861 H   0  0  0  0  0  0  0  0  0  0  0  0
    3.1816   -1.4963   -1.0126 H   0  0  0  0  0  0  0  0  0  0  0  0
    2.7095   -1.9550    0.6678 H   0  0  0  0  0  0  0  0  0  0  0  0
    4.9186   -0.2765    0.5233 H   0  0  0  0  0  0  0  0  0  0  0  0
  1  2  1  0
  2  3  1  0
  3  4  1  0
  4  5  1  0
  5  6  1  0
  6  7  1  0
  7  8  1  0
  8  9  2  0
  8 10  1  0
 10 11  1  0
 10 12  1  0
 12 13  1  0
  6  2  1  0
  1 14  1  0
  1 15  1  0
  1 16  1  0
  2 17  1  1
  3 18  1  0
  3 19  1  0
  5 20  1  0
  5 21  1  0
  6 22  1  6
 10 23  1  6
 11 24  1  0
 11 25  1  0
 12 26  1  0
 12 27  1  0
 13 28  1  0
M  END
$$$$

     RDKit          3D

 28 28  0  0  0  0  0  0  0  0999 V2000
   -1.7732    1.8474    0.7924 C   0  0  0  0  0  0  0  0  0  0  0  0
   -1.9798    0.6686   -0.1244 C   0  0  2  0  0  0  0  0  0  0  0  0
   -3.3836    0.1553   -0.0677 C   0  0  0  0  0  0  0  0  0  0  0  0
   -3.3622   -1.2092   -0.0311 O   0  0  0  0  0  0  0  0  0  0  0  0
   -2.0832   -1.6632   -0.1878 C   0  0  0  0  0  0  0  0  0  0  0  0
   -1.1857   -0.5478    0.3491 C   0  0  1  0  0  0  0  0  0  0  0  0
    0.0668   -0.6347   -0.2876 O   0  0  0  0  0  0  0  0  0  0  0  0
    1.2131   -0.7542    0.4910 C   0  0  0  0  0  0  0  0  0  0  0  0
    1.0865   -0.7799    1.7284 O   0  0  0  0  0  0  0  0  0  0  0  0
    2.5771   -0.8526   -0.0758 C   0  0  1  0  0  0  0  0  0  0  0  0
    2.5306   -0.8058   -1.5231 N   0  0  0  0  0  0  0  0  0  0  0  0
    3.4662    0.2751    0.3969 C   0  0  0  0  0  0  0  0  0  0  0  0
    3.0111    1.5151    0.0138 O   0  0  0  0  0  0  0  0  0  0  0  0
   -0.7145    1.9251    1.1230 H   0  0  0  0  0  0  0  0  0  0  0  0
   -2.4063    1.6953    1.6873 H   0  0  0  0  0  0  0  0  0  0  0  0
   -2.0683    2.7712    0.2410 H   0  0  0  0  0  0  0  0  0  0  0  0
   -1.6680    0.8865   -1.1763 H   0  0  0  0  0  0  0  0  0  0  0  0
   -4.0146    0.5032   -0.9110 H   0  0  0  0  0  0  0  0  0  0  0  0
   -3.8327    0.5084    0.9072 H   0  0  0  0  0  0  0  0  0  0  0  0
   -1.8867   -2.6041    0.3535 H   0  0  0  0  0  0  0  0  0  0  0  0
   -1.8635   -1.7834   -1.2778 H   0  0  0  0  0  0  0  0  0  0  0  0
   -1.1319   -0.5844    1.4393 H   0  0  0  0  0  0  0  0  0  0  0  0
    3.0892   -1.8046    0.1982 H   0  0  0  0  0  0  0  0  0  0  0  0
    3.4338   -0.5925   -1.9590 H   0  0  0  0  0  0  0  0  0  0  0  0
    1.8302   -0.1335   -1.8756 H   0  0  0  0  0  0  0  0  0  0  0  0
    3.5094    0.2381    1.5133 H   0  0  0  0  0  0  0  0  0  0  0  0
    4.4676    0.1059    0.0006 H   0  0  0  0  0  0  0  0  0  0  0  0
    3.0728    1.6546   -0.9512 H   0  0  0  0  0  0  0  0  0  0  0  0
  1  2  1  0
  2  3  1  0
  3  4  1  0
  4  5  1  0
  5  6  1  0
  6  7  1  0
  7  8  1  0
  8  9  2  0
  8 10  1  0
 10 11  1  0
 10 12  1  0
 12 13  1  0
  6  2  1  0
  1 14  1  0
  1 15  1  0
  1 16  1  0
  2 17  1  6
  3 18  1  0
  3 19  1  0
  5 20  1  0
  5 21  1  0
  6 22  1  1
 10 23  1  6
 11 24  1  0
 11 25  1  0
 12 26  1  0
 12 27  1  0
 13 28  1  0
M  END
$$$$

     RDKit          3D

 28 28  0  0  0  0  0  0  0  0999 V2000
    2.2500    1.4230   -0.2185 C   0  0  0  0  0  0  0  0  0  0  0  0
    2.0038    0.1787    0.6093 C   0  0  2  0  0  0  0  0  0  0  0  0
    3.2366   -0.6837    0.6936 C   0  0  0  0  0  0  0  0  0  0  0  0
    2.8567   -1.9945    0.6450 O   0  0  0  0  0  0  0  0  0  0  0  0
    1.5341   -2.0894    0.3224 C   0  0  0  0  0  0  0  0  0  0  0  0
    1.0779   -0.7403   -0.1783 C   0  0  1  0  0  0  0  0  0  0  0  0
   -0.2720   -0.5421    0.1679 O   0  0  0  0  0  0  0  0  0  0  0  0
   -1.2557   -0.1917   -0.7377 C   0  0  0  0  0  0  0  0  0  0  0  0
   -0.9100   -0.0446   -1.9384 O   0  0  0  0  0  0  0  0  0  0  0  0
   -2.6708    0.0206   -0.4006 C   0  0  1  0  0  0  0  0  0  0  0  0
   -2.9655   -0.1698    0.9877 N   0  0  0  0  0  0  0  0  0  0  0  0
   -3.1500    1.4100   -0.7850 C   0  0  0  0  0  0  0  0  0  0  0  0
   -2.4879    2.3764   -0.0129 O   0  0  0  0  0  0  0  0  0  0  0  0
    2.1544    1.1321   -1.2960 H   0  0  0  0  0  0  0  0  0  0  0  0
    3.2364    1.8541    0.0125 H   0  0  0  0  0  0  0  0  0  0  0  0
    1.4190    2.1253    0.0098 H   0  0  0  0  0  0  0  0  0  0  0  0
    1.6264    0.4133    1.6063 H   0  0  0  0  0  0  0  0  0  0  0  0
    3.8537   -0.4357    1.5990 H   0  0  0  0  0  0  0  0  0  0  0  0
    3.9027   -0.4382   -0.1741 H   0  0  0  0  0  0  0  0  0  0  0  0
    1.2987   -2.9082   -0.3807 H   0  0  0  0  0  0  0  0  0  0  0  0
    0.9592   -2.2891    1.2740 H   0  0  0  0  0  0  0  0  0  0  0  0
    1.2859   -0.5906   -1.2448 H   0  0  0  0  0  0  0  0  0  0  0  0
   -3.2658   -0.7076   -0.9900 H   0  0  0  0  0  0  0  0  0  0  0  0
   -3.9015   -0.6159    1.0838 H   0  0  0  0  0  0  0  0  0  0  0  0
   -2.9735    0.7612    1.4961 H   0  0  0  0  0  0  0  0  0  0  0  0
   -4.2248    1.4743   -0.5105 H   0  0  0  0  0  0  0  0  0  0  0  0
   -3.0532    1.6148   -1.8604 H   0  0  0  0  0  0  0  0  0  0  0  0
   -1.5647    2.0718    0.2208 H   0  0  0  0  0  0  0  0  0  0  0  0
  1  2  1  0
  2  3  1  0
  3  4  1  0
  4  5  1  0
  5  6  1  0
  6  7  1  0
  7  8  1  0
  8  9  2  0
  8 10  1  0
 10 11  1  0
 10 12  1  0
 12 13  1  0
  6  2  1  0
  1 14  1  0
  1 15  1  0
  1 16  1  0
  2 17  1  1
  3 18  1  0
  3 19  1  0
  5 20  1  0
  5 21  1  0
  6 22  1  6
 10 23  1  6
 11 24  1  0
 11 25  1  0
 12 26  1  0
 12 27  1  0
 13 28  1  0
M  END
$$$$

     RDKit          3D

 28 28  0  0  0  0  0  0  0  0999 V2000
   -2.9372    1.4673   -0.0570 C   0  0  0  0  0  0  0  0  0  0  0  0
   -1.9007    0.4965   -0.6348 C   0  0  2  0  0  0  0  0  0  0  0  0
   -2.5688   -0.5555   -1.4474 C   0  0  0  0  0  0  0  0  0  0  0  0
   -2.4472   -1.7637   -0.8281 O   0  0  0  0  0  0  0  0  0  0  0  0
   -1.9793   -1.5804    0.4520 C   0  0  0  0  0  0  0  0  0  0  0  0
   -1.2368   -0.2695    0.4838 C   0  0  1  0  0  0  0  0  0  0  0  0
    0.1162   -0.4743    0.1113 O   0  0  0  0  0  0  0  0  0  0  0  0
    1.1562   -0.0631    0.9272 C   0  0  0  0  0  0  0  0  0  0  0  0
    0.8491    0.4996    2.0126 O   0  0  0  0  0  0  0  0  0  0  0  0
    2.5587   -0.2895    0.5136 C   0  0  1  0  0  0  0  0  0  0  0  0
    2.5749   -0.9451   -0.7569 N   0  0  0  0  0  0  0  0  0  0  0  0
    3.3002    1.0274    0.3956 C   0  0  0  0  0  0  0  0  0  0  0  0
    4.6113    0.7514    0.0058 O   0  0  0  0  0  0  0  0  0  0  0  0
   -3.8351    0.8644    0.1976 H   0  0  0  0  0  0  0  0  0  0  0  0
   -3.2254    2.2104   -0.8156 H   0  0  0  0  0  0  0  0  0  0  0  0
   -2.5382    1.9586    0.8438 H   0  0  0  0  0  0  0  0  0  0  0  0
   -1.1718    1.0485   -1.2573 H   0  0  0  0  0  0  0  0  0  0  0  0
   -3.6626   -0.3296   -1.5724 H   0  0  0  0  0  0  0  0  0  0  0  0
   -2.1410   -0.6101   -2.4857 H   0  0  0  0  0  0  0  0  0  0  0  0
   -1.2745   -2.4068    0.6880 H   0  0  0  0  0  0  0  0  0  0  0  0
   -2.7835   -1.5648    1.2175 H   0  0  0  0  0  0  0  0  0  0  0  0
   -1.3581    0.2283    1.4467 H   0  0  0  0  0  0  0  0  0  0  0  0
    3.0898   -0.9480    1.2507 H   0  0  0  0  0  0  0  0  0  0  0  0
    2.7403   -0.2394   -1.4989 H   0  0  0  0  0  0  0  0  0  0  0  0
    3.3244   -1.6712   -0.7921 H   0  0  0  0  0  0  0  0  0  0  0  0
    3.3230    1.5765    1.3520 H   0  0  0  0  0  0  0  0  0  0  0  0
    2.8348    1.6650   -0.3587 H   0  0  0  0  0  0  0  0  0  0  0  0
    4.5814   -0.0829   -0.5289 H   0  0  0  0  0  0  0  0  0  0  0  0
  1  2  1  0
  2  3  1  0
  3  4  1  0
  4  5  1  0
  5  6  1  0
  6  7  1  0
  7  8  1  0
  8  9  2  0
  8 10  1  0
 10 11  1  0
 10 12  1  0
 12 13  1  0
  6  2  1  0
  1 14  1  0
  1 15  1  0
  1 16  1  0
  2 17  1  6
  3 18  1  0
  3 19  1  0
  5 20  1  0
  5 21  1  0
  6 22  1  1
 10 23  1  1
 11 24  1  0
 11 25  1  0
 12 26  1  0
 12 27  1  0
 13 28  1  0
M  END
$$$$

     RDKit          3D

 28 28  0  0  0  0  0  0  0  0999 V2000
   -2.7886    1.6195   -0.2237 C   0  0  0  0  0  0  0  0  0  0  0  0
   -2.0795    0.3851   -0.7278 C   0  0  2  0  0  0  0  0  0  0  0  0
   -3.0712   -0.7533   -0.7004 C   0  0  0  0  0  0  0  0  0  0  0  0
   -2.9264   -1.2216    0.6093 O   0  0  0  0  0  0  0  0  0  0  0  0
   -1.5400   -1.4296    0.6572 C   0  0  0  0  0  0  0  0  0  0  0  0
   -1.0281   -0.0605    0.2559 C   0  0  1  0  0  0  0  0  0  0  0  0
    0.2403   -0.1321   -0.3571 O   0  0  0  0  0  0  0  0  0  0  0  0
    1.3144    0.5538    0.1475 C   0  0  0  0  0  0  0  0  0  0  0  0
    1.1856    1.2578    1.1651 O   0  0  0  0  0  0  0  0  0  0  0  0
    2.6476    0.4711   -0.5070 C   0  0  1  0  0  0  0  0  0  0  0  0
    3.6141    1.2719    0.1982 N   0  0  0  0  0  0  0  0  0  0  0  0
    3.0612   -0.9853   -0.4927 C   0  0  0  0  0  0  0  0  0  0  0  0
    3.1514   -1.4462    0.8106 O   0  0  0  0  0  0  0  0  0  0  0  0
   -2.8527    1.5682    0.8791 H   0  0  0  0  0  0  0  0  0  0  0  0
   -3.8151    1.6610   -0.6423 H   0  0  0  0  0  0  0  0  0  0  0  0
   -2.2003    2.5145   -0.5042 H   0  0  0  0  0  0  0  0  0  0  0  0
   -1.6826    0.5347   -1.7523 H   0  0  0  0  0  0  0  0  0  0  0  0
   -4.1065   -0.4334   -0.9247 H   0  0  0  0  0  0  0  0  0  0  0  0
   -2.7286   -1.5680   -1.3616 H   0  0  0  0  0  0  0  0  0  0  0  0
   -1.3174   -2.1610   -0.1490 H   0  0  0  0  0  0  0  0  0  0  0  0
   -1.1896   -1.7442    1.6483 H   0  0  0  0  0  0  0  0  0  0  0  0
   -0.9630    0.6030    1.1392 H   0  0  0  0  0  0  0  0  0  0  0  0
    2.5948    0.8244   -1.5590 H   0  0  0  0  0  0  0  0  0  0  0  0
    3.1175    2.1365    0.5197 H   0  0  0  0  0  0  0  0  0  0  0  0
    4.3911    1.5202   -0.4430 H   0  0  0  0  0  0  0  0  0  0  0  0
    2.2877   -1.5689   -1.0619 H   0  0  0  0  0  0  0  0  0  0  0  0
    4.0576   -1.1355   -0.9570 H   0  0  0  0  0  0  0  0  0  0  0  0
    2.6265   -2.2820    0.8832 H   0  0  0  0  0  0  0  0  0  0  0  0
  1  2  1  0
  2  3  1  0
  3  4  1  0
  4  5  1  0
  5  6  1  0
  6  7  1  0
  7  8  1  0
  8  9  2  0
  8 10  1  0
 10 11  1  0
 10 12  1  0
 12 13  1  0
  6  2  1  0
  1 14  1  0
  1 15  1  0
  1 16  1  0
  2 17  1  6
  3 18  1  0
  3 19  1  0
  5 20  1  0
  5 21  1  0
  6 22  1  1
 10 23  1  6
 11 24  1  0
 11 25  1  0
 12 26  1  0
 12 27  1  0
 13 28  1  0
M  END
$$$$

     RDKit          3D

 28 28  0  0  0  0  0  0  0  0999 V2000
   -2.4230   -1.6882    0.5408 C   0  0  0  0  0  0  0  0  0  0  0  0
   -1.9884   -0.2217    0.5305 C   0  0  2  0  0  0  0  0  0  0  0  0
   -3.2002    0.6163    0.1180 C   0  0  0  0  0  0  0  0  0  0  0  0
   -3.1092    0.5936   -1.2929 O   0  0  0  0  0  0  0  0  0  0  0  0
   -1.7890    1.0091   -1.4649 C   0  0  0  0  0  0  0  0  0  0  0  0
   -1.0332    0.0247   -0.6073 C   0  0  1  0  0  0  0  0  0  0  0  0
    0.1918    0.5862   -0.1646 O   0  0  0  0  0  0  0  0  0  0  0  0
    1.3630   -0.0718   -0.4531 C   0  0  0  0  0  0  0  0  0  0  0  0
    1.3520   -1.1524   -1.0977 O   0  0  0  0  0  0  0  0  0  0  0  0
    2.6958    0.4679   -0.0139 C   0  0  1  0  0  0  0  0  0  0  0  0
    2.5564    1.6984    0.7064 N   0  0  0  0  0  0  0  0  0  0  0  0
    3.4365   -0.5555    0.8218 C   0  0  0  0  0  0  0  0  0  0  0  0
    3.5539   -1.7239    0.1035 O   0  0  0  0  0  0  0  0  0  0  0  0
   -1.5439   -2.2871    0.2058 H   0  0  0  0  0  0  0  0  0  0  0  0
   -3.2369   -1.8781   -0.1692 H   0  0  0  0  0  0  0  0  0  0  0  0
   -2.7337   -2.0182    1.5482 H   0  0  0  0  0  0  0  0  0  0  0  0
   -1.5931    0.1003    1.4977 H   0  0  0  0  0  0  0  0  0  0  0  0
   -4.1403    0.2085    0.4828 H   0  0  0  0  0  0  0  0  0  0  0  0
   -3.0215    1.6685    0.4145 H   0  0  0  0  0  0  0  0  0  0  0  0
   -1.7160    2.0132   -0.9974 H   0  0  0  0  0  0  0  0  0  0  0  0
   -1.4748    0.9879   -2.5205 H   0  0  0  0  0  0  0  0  0  0  0  0
   -0.8696   -0.9239   -1.1580 H   0  0  0  0  0  0  0  0  0  0  0  0
    3.3285    0.6658   -0.9057 H   0  0  0  0  0  0  0  0  0  0  0  0
    2.5814    2.4852    0.0175 H   0  0  0  0  0  0  0  0  0  0  0  0
    1.7511    1.7461    1.3380 H   0  0  0  0  0  0  0  0  0  0  0  0
    2.9518   -0.6671    1.8042 H   0  0  0  0  0  0  0  0  0  0  0  0
    4.4644   -0.1403    0.9726 H   0  0  0  0  0  0  0  0  0  0  0  0
    3.6464   -1.5435   -0.8496 H   0  0  0  0  0  0  0  0  0  0  0  0
  1  2  1  0
  2  3  1  0
  3  4  1  0
  4  5  1  0
  5  6  1  0
  6  7  1  0
  7  8  1  0
  8  9  2  0
  8 10  1  0
 10 11  1  0
 10 12  1  0
 12 13  1  0
  6  2  1  0
  1 14  1  0
  1 15  1  0
  1 16  1  0
  2 17  1  1
  3 18  1  0
  3 19  1  0
  5 20  1  0
  5 21  1  0
  6 22  1  6
 10 23  1  6
 11 24  1  0
 11 25  1  0
 12 26  1  0
 12 27  1  0
 13 28  1  0
M  END
$$$$

     RDKit          3D

 28 28  0  0  0  0  0  0  0  0999 V2000
    2.3995    1.4503   -0.5374 C   0  0  0  0  0  0  0  0  0  0  0  0
    2.3118    0.2115    0.3037 C   0  0  2  0  0  0  0  0  0  0  0  0
    3.4078   -0.7828   -0.0334 C   0  0  0  0  0  0  0  0  0  0  0  0
    2.9049   -2.0393    0.1456 O   0  0  0  0  0  0  0  0  0  0  0  0
    1.5441   -1.9814    0.2766 C   0  0  0  0  0  0  0  0  0  0  0  0
    1.0954   -0.6063   -0.1476 C   0  0  1  0  0  0  0  0  0  0  0  0
   -0.0841   -0.1874    0.4499 O   0  0  0  0  0  0  0  0  0  0  0  0
   -1.1246    0.2433   -0.3967 C   0  0  0  0  0  0  0  0  0  0  0  0
   -0.9342    0.2264   -1.6297 O   0  0  0  0  0  0  0  0  0  0  0  0
   -2.4178    0.7078    0.1415 C   0  0  1  0  0  0  0  0  0  0  0  0
   -3.2757    1.0808   -0.9503 N   0  0  0  0  0  0  0  0  0  0  0  0
   -3.0579   -0.4793    0.8533 C   0  0  0  0  0  0  0  0  0  0  0  0
   -4.3282   -0.1414    1.3462 O   0  0  0  0  0  0  0  0  0  0  0  0
    1.8651    2.2823   -0.0192 H   0  0  0  0  0  0  0  0  0  0  0  0
    1.9486    1.2139   -1.5234 H   0  0  0  0  0  0  0  0  0  0  0  0
    3.4557    1.7758   -0.7250 H   0  0  0  0  0  0  0  0  0  0  0  0
    2.2876    0.4135    1.3833 H   0  0  0  0  0  0  0  0  0  0  0  0
    4.3402   -0.5767    0.5258 H   0  0  0  0  0  0  0  0  0  0  0  0
    3.5984   -0.6500   -1.1375 H   0  0  0  0  0  0  0  0  0  0  0  0
    1.2873   -2.0632    1.3735 H   0  0  0  0  0  0  0  0  0  0  0  0
    0.9971   -2.7809   -0.2795 H   0  0  0  0  0  0  0  0  0  0  0  0
    1.0978   -0.5580   -1.2515 H   0  0  0  0  0  0  0  0  0  0  0  0
   -2.2666    1.5438    0.8508 H   0  0  0  0  0  0  0  0  0  0  0  0
   -4.2585    1.2327   -0.6948 H   0  0  0  0  0  0  0  0  0  0  0  0
   -2.8702    1.7504   -1.6140 H   0  0  0  0  0  0  0  0  0  0  0  0
   -2.3871   -0.8282    1.6549 H   0  0  0  0  0  0  0  0  0  0  0  0
   -3.1694   -1.2874    0.1122 H   0  0  0  0  0  0  0  0  0  0  0  0
   -4.3669    0.8299    1.5228 H   0  0  0  0  0  0  0  0  0  0  0  0
  1  2  1  0
  2  3  1  0
  3  4  1  0
  4  5  1  0
  5  6  1  0
  6  7  1  0
  7  8  1  0
  8  9  2  0
  8 10  1  0
 10 11  1  0
 10 12  1  0
 12 13  1  0
  6  2  1  0
  1 14  1  0
  1 15  1  0
  1 16  1  0
  2 17  1  1
  3 18  1  0
  3 19  1  0
  5 20  1  0
  5 21  1  0
  6 22  1  6
 10 23  1  1
 11 24  1  0
 11 25  1  0
 12 26  1  0
 12 27  1  0
 13 28  1  0
M  END
$$$$
