
     RDKit          3D

 23 24  0  0  0  0  0  0  0  0999 V2000
    2.5204    0.2000    0.7859 C   0  0  0  0  0  0  0  0  0  0  0  0
    2.4602   -0.4140   -0.6173 C   0  0  0  0  0  0  0  0  0  0  0  0
    1.2651    0.2672   -1.1295 N   0  0  0  0  0  0  0  0  0  0  0  0
    0.3136   -0.1600   -0.1288 C   0  0  2  0  0  0  0  0  0  0  0  0
   -1.0135    0.5188   -0.2388 C   0  0  0  0  0  0  0  0  0  0  0  0
   -1.8628   -0.0034    0.8215 N   0  0  0  0  0  0  0  0  0  0  0  0
   -3.1471    0.0637    0.3250 N   0  0  0  0  0  0  0  0  0  0  0  0
   -3.0777    0.4425   -1.0151 N   0  0  0  0  0  0  0  0  0  0  0  0
   -1.7455    0.1864   -1.4134 N   0  0  0  0  0  0  0  0  0  0  0  0
    1.0330    0.1604    1.1571 C   0  0  0  0  0  0  0  0  0  0  0  0
    2.7919    1.2530    0.6987 H   0  0  0  0  0  0  0  0  0  0  0  0
    3.1309   -0.3930    1.4681 H   0  0  0  0  0  0  0  0  0  0  0  0
    3.3475   -0.2139   -1.2035 H   0  0  0  0  0  0  0  0  0  0  0  0
    2.1813   -1.4717   -0.5072 H   0  0  0  0  0  0  0  0  0  0  0  0
    1.0251   -0.0186   -2.0857 H   0  0  0  0  0  0  0  0  0  0  0  0
    0.2493   -1.2672   -0.1966 H   0  0  0  0  0  0  0  0  0  0  0  0
   -0.8689    1.5959   -0.1080 H   0  0  0  0  0  0  0  0  0  0  0  0
   -1.6183   -0.9761    1.0782 H   0  0  0  0  0  0  0  0  0  0  0  0
   -3.6122   -0.8740    0.3870 H   0  0  0  0  0  0  0  0  0  0  0  0
   -3.3057    1.4657   -1.1162 H   0  0  0  0  0  0  0  0  0  0  0  0
   -1.6814   -0.8044   -1.6605 H   0  0  0  0  0  0  0  0  0  0  0  0
    0.9205   -0.6562    1.9197 H   0  0  0  0  0  0  0  0  0  0  0  0
    0.6938    1.0989    1.6065 H   0  0  0  0  0  0  0  0  0  0  0  0
  1  2  1  0
  2  3  1  0
  3  4  1  0
  4  5  1  0
  5  6  1  0
  6  7  1  0
  7  8  1  0
  8  9  1  0
  4 10  1  0
 10  1  1  0
  9  5  1  0
  1 11  1  0
  1 12  1  0
  2 13  1  0
  2 14  1  0
  3 15  1  0
  4 16  1  6
  5 17  1  0
  6 18  1  0
  7 19  1  0
  8 20  1  0
  9 21  1  0
 10 22  1  0
 10 23  1  0
M  END
$$$$

     RDKit          3D

 23 24  0  0  0  0  0  0  0  0999 V2000
   -2.5439    0.1177   -0.3025 C   0  0  0  0  0  0  0  0  0  0  0  0
   -2.1391   -0.4242    1.0734 C   0  0  0  0  0  0  0  0  0  0  0  0
   -0.8972   -1.1000    0.7514 N   0  0  0  0  0  0  0  0  0  0  0  0
   -0.2439   -0.3486   -0.2750 C   0  0  2  0  0  0  0  0  0  0  0  0
    0.9968    0.3388    0.2165 C   0  0  0  0  0  0  0  0  0  0  0  0
    1.9890   -0.5815    0.7290 N   0  0  0  0  0  0  0  0  0  0  0  0
    3.1536   -0.3449   -0.0047 N   0  0  0  0  0  0  0  0  0  0  0  0
    2.9912    0.8370   -0.6947 N   0  0  0  0  0  0  0  0  0  0  0  0
    1.6329    1.0739   -0.8363 N   0  0  0  0  0  0  0  0  0  0  0  0
   -1.2052    0.7189   -0.7477 C   0  0  0  0  0  0  0  0  0  0  0  0
   -3.3149    0.8916   -0.2278 H   0  0  0  0  0  0  0  0  0  0  0  0
   -2.8006   -0.7178   -0.9708 H   0  0  0  0  0  0  0  0  0  0  0  0
   -1.9334    0.4552    1.7016 H   0  0  0  0  0  0  0  0  0  0  0  0
   -2.9063   -1.0980    1.4620 H   0  0  0  0  0  0  0  0  0  0  0  0
   -1.1110   -2.0637    0.4618 H   0  0  0  0  0  0  0  0  0  0  0  0
    0.0585   -1.0234   -1.1016 H   0  0  0  0  0  0  0  0  0  0  0  0
    0.6679    1.0251    1.0504 H   0  0  0  0  0  0  0  0  0  0  0  0
    1.6838   -1.5799    0.6579 H   0  0  0  0  0  0  0  0  0  0  0  0
    3.3162   -1.1641   -0.6595 H   0  0  0  0  0  0  0  0  0  0  0  0
    3.4610    1.6476   -0.2283 H   0  0  0  0  0  0  0  0  0  0  0  0
    1.3346    0.8352   -1.7870 H   0  0  0  0  0  0  0  0  0  0  0  0
   -1.0361    1.6980   -0.3037 H   0  0  0  0  0  0  0  0  0  0  0  0
   -1.1536    0.8070   -1.8465 H   0  0  0  0  0  0  0  0  0  0  0  0
  1  2  1  0
  2  3  1  0
  3  4  1  0
  4  5  1  0
  5  6  1  0
  6  7  1  0
  7  8  1  0
  8  9  1  0
  4 10  1  0
 10  1  1  0
  9  5  1  0
  1 11  1  0
  1 12  1  0
  2 13  1  0
  2 14  1  0
  3 15  1  0
  4 16  1  6
  5 17  1  0
  6 18  1  0
  7 19  1  0
  8 20  1  0
  9 21  1  0
 10 22  1  0
 10 23  1  0
M  END
$$$$

     RDKit          3D

 23 24  0  0  0  0  0  0  0  0999 V2000
   -2.4922   -0.8783    0.0730 C   0  0  0  0  0  0  0  0  0  0  0  0
   -2.4410    0.6079   -0.1000 C   0  0  0  0  0  0  0  0  0  0  0  0
   -1.0717    0.9927   -0.2826 N   0  0  0  0  0  0  0  0  0  0  0  0
   -0.3047   -0.1391    0.1986 C   0  0  2  0  0  0  0  0  0  0  0  0
    1.0878   -0.0108   -0.3126 C   0  0  0  0  0  0  0  0  0  0  0  0
    1.6354    1.2365    0.1925 N   0  0  0  0  0  0  0  0  0  0  0  0
    2.9969    1.0468    0.2562 N   0  0  0  0  0  0  0  0  0  0  0  0
    3.2498   -0.3106   -0.0208 N   0  0  0  0  0  0  0  0  0  0  0  0
    2.0135   -0.9653    0.2303 N   0  0  0  0  0  0  0  0  0  0  0  0
   -1.0805   -1.2829   -0.3764 C   0  0  0  0  0  0  0  0  0  0  0  0
   -2.5259   -1.1301    1.1620 H   0  0  0  0  0  0  0  0  0  0  0  0
   -3.2643   -1.3807   -0.5047 H   0  0  0  0  0  0  0  0  0  0  0  0
   -3.0233    0.9236   -1.0129 H   0  0  0  0  0  0  0  0  0  0  0  0
   -2.8545    1.1682    0.7540 H   0  0  0  0  0  0  0  0  0  0  0  0
   -0.8115    1.8613    0.2323 H   0  0  0  0  0  0  0  0  0  0  0  0
   -0.3253   -0.1803    1.2890 H   0  0  0  0  0  0  0  0  0  0  0  0
    1.1367   -0.0627   -1.4124 H   0  0  0  0  0  0  0  0  0  0  0  0
    1.3310    2.0658   -0.3299 H   0  0  0  0  0  0  0  0  0  0  0  0
    3.3031    1.2787    1.2467 H   0  0  0  0  0  0  0  0  0  0  0  0
    3.3474   -0.3537   -1.0792 H   0  0  0  0  0  0  0  0  0  0  0  0
    1.9122   -0.9586    1.2725 H   0  0  0  0  0  0  0  0  0  0  0  0
   -1.0187   -1.2616   -1.4943 H   0  0  0  0  0  0  0  0  0  0  0  0
   -0.8001   -2.2666    0.0188 H   0  0  0  0  0  0  0  0  0  0  0  0
  1  2  1  0
  2  3  1  0
  3  4  1  0
  4  5  1  0
  5  6  1  0
  6  7  1  0
  7  8  1  0
  8  9  1  0
  4 10  1  0
 10  1  1  0
  9  5  1  0
  1 11  1  0
  1 12  1  0
  2 13  1  0
  2 14  1  0
  3 15  1  0
  4 16  1  1
  5 17  1  0
  6 18  1  0
  7 19  1  0
  8 20  1  0
  9 21  1  0
 10 22  1  0
 10 23  1  0
M  END
$$$$

     RDKit          3D

 23 24  0  0  0  0  0  0  0  0999 V2000
   -2.4206   -0.6164   -0.5331 C   0  0  0  0  0  0  0  0  0  0  0  0
   -2.3575    0.4865    0.5283 C   0  0  0  0  0  0  0  0  0  0  0  0
   -1.1331    1.1762    0.0901 N   0  0  0  0  0  0  0  0  0  0  0  0
   -0.2061    0.0864    0.0732 C   0  0  2  0  0  0  0  0  0  0  0  0
    1.0144    0.3305   -0.7657 C   0  0  0  0  0  0  0  0  0  0  0  0
    1.8503   -0.8579   -0.6806 N   0  0  0  0  0  0  0  0  0  0  0  0
    3.0509   -0.3959   -0.1006 N   0  0  0  0  0  0  0  0  0  0  0  0
    3.1378    0.9174   -0.6231 N   0  0  0  0  0  0  0  0  0  0  0  0
    1.8420    1.3914   -0.2983 N   0  0  0  0  0  0  0  0  0  0  0  0
   -0.9635   -1.0884   -0.5113 C   0  0  0  0  0  0  0  0  0  0  0  0
   -3.1221   -1.4063   -0.2717 H   0  0  0  0  0  0  0  0  0  0  0  0
   -2.6202   -0.1173   -1.5030 H   0  0  0  0  0  0  0  0  0  0  0  0
   -2.1368    0.0075    1.4965 H   0  0  0  0  0  0  0  0  0  0  0  0
   -3.2288    1.1332    0.5167 H   0  0  0  0  0  0  0  0  0  0  0  0
   -1.3638    1.5076   -0.8932 H   0  0  0  0  0  0  0  0  0  0  0  0
    0.0555   -0.1512    1.1242 H   0  0  0  0  0  0  0  0  0  0  0  0
    0.7619    0.4953   -1.8141 H   0  0  0  0  0  0  0  0  0  0  0  0
    1.4183   -1.6028   -0.0821 H   0  0  0  0  0  0  0  0  0  0  0  0
    2.9389   -0.3447    0.9521 H   0  0  0  0  0  0  0  0  0  0  0  0
    3.1986    0.8121   -1.6551 H   0  0  0  0  0  0  0  0  0  0  0  0
    1.8054    1.5425    0.7354 H   0  0  0  0  0  0  0  0  0  0  0  0
   -0.9030   -1.9647    0.1519 H   0  0  0  0  0  0  0  0  0  0  0  0
   -0.6184   -1.3408   -1.5323 H   0  0  0  0  0  0  0  0  0  0  0  0
  1  2  1  0
  2  3  1  0
  3  4  1  0
  4  5  1  0
  5  6  1  0
  6  7  1  0
  7  8  1  0
  8  9  1  0
  4 10  1  0
 10  1  1  0
  9  5  1  0
  1 11  1  0
  1 12  1  0
  2 13  1  0
  2 14  1  0
  3 15  1  0
  4 16  1  1
  5 17  1  0
  6 18  1  0
  7 19  1  0
  8 20  1  0
  9 21  1  0
 10 22  1  0
 10 23  1  0
M  END
$$$$

     RDKit          3D

 23 24  0  0  0  0  0  0  0  0999 V2000
   -2.5545    0.0202    0.5477 C   0  0  0  0  0  0  0  0  0  0  0  0
   -2.3346   -0.2943   -0.9163 C   0  0  0  0  0  0  0  0  0  0  0  0
   -0.9650   -0.8199   -0.8893 N   0  0  0  0  0  0  0  0  0  0  0  0
   -0.3034    0.2281   -0.1277 C   0  0  2  0  0  0  0  0  0  0  0  0
    1.0368   -0.2757    0.3095 C   0  0  0  0  0  0  0  0  0  0  0  0
    1.7927   -0.6022   -0.8908 N   0  0  0  0  0  0  0  0  0  0  0  0
    3.1155   -0.2734   -0.6069 N   0  0  0  0  0  0  0  0  0  0  0  0
    3.1223    0.6282    0.4367 N   0  0  0  0  0  0  0  0  0  0  0  0
    1.8448    0.7197    0.9488 N   0  0  0  0  0  0  0  0  0  0  0  0
   -1.2178    0.6031    0.9866 C   0  0  0  0  0  0  0  0  0  0  0  0
   -2.7137   -0.9094    1.0939 H   0  0  0  0  0  0  0  0  0  0  0  0
   -3.3720    0.7522    0.6962 H   0  0  0  0  0  0  0  0  0  0  0  0
   -3.0533   -1.0463   -1.2947 H   0  0  0  0  0  0  0  0  0  0  0  0
   -2.2940    0.6232   -1.5288 H   0  0  0  0  0  0  0  0  0  0  0  0
   -0.9862   -1.6715   -0.2532 H   0  0  0  0  0  0  0  0  0  0  0  0
   -0.1468    1.1132   -0.7740 H   0  0  0  0  0  0  0  0  0  0  0  0
    0.9462   -1.1720    0.9632 H   0  0  0  0  0  0  0  0  0  0  0  0
    1.6681   -1.5777   -1.2005 H   0  0  0  0  0  0  0  0  0  0  0  0
    3.6502   -1.1531   -0.4093 H   0  0  0  0  0  0  0  0  0  0  0  0
    3.5254    1.5478    0.2297 H   0  0  0  0  0  0  0  0  0  0  0  0
    1.4426    1.6640    0.9777 H   0  0  0  0  0  0  0  0  0  0  0  0
   -1.3428    1.7204    1.0396 H   0  0  0  0  0  0  0  0  0  0  0  0
   -0.8605    0.1755    1.9299 H   0  0  0  0  0  0  0  0  0  0  0  0
  1  2  1  0
  2  3  1  0
  3  4  1  0
  4  5  1  0
  5  6  1  0
  6  7  1  0
  7  8  1  0
  8  9  1  0
  4 10  1  0
 10  1  1  0
  9  5  1  0
  1 11  1  0
  1 12  1  0
  2 13  1  0
  2 14  1  0
  3 15  1  0
  4 16  1  6
  5 17  1  0
  6 18  1  0
  7 19  1  0
  8 20  1  0
  9 21  1  0
 10 22  1  0
 10 23  1  0
M  END
$$$$

     RDKit          3D

 23 24  0  0  0  0  0  0  0  0999 V2000
   -2.5406    0.5256    0.0849 C   0  0  0  0  0  0  0  0  0  0  0  0
   -2.2539   -0.9061    0.5080 C   0  0  0  0  0  0  0  0  0  0  0  0
   -1.0379   -1.2534   -0.1718 N   0  0  0  0  0  0  0  0  0  0  0  0
   -0.3435   -0.0499   -0.5082 C   0  0  2  0  0  0  0  0  0  0  0  0
    0.9945   -0.0537    0.1487 C   0  0  0  0  0  0  0  0  0  0  0  0
    1.7222    1.1825   -0.1897 N   0  0  0  0  0  0  0  0  0  0  0  0
    2.9925    0.8016    0.3259 N   0  0  0  0  0  0  0  0  0  0  0  0
    3.1647   -0.5002   -0.1424 N   0  0  0  0  0  0  0  0  0  0  0  0
    1.9052   -1.0410   -0.3595 N   0  0  0  0  0  0  0  0  0  0  0  0
   -1.1340    1.1050    0.0873 C   0  0  0  0  0  0  0  0  0  0  0  0
   -3.2188    1.0458    0.7579 H   0  0  0  0  0  0  0  0  0  0  0  0
   -2.8892    0.5077   -0.9657 H   0  0  0  0  0  0  0  0  0  0  0  0
   -3.0992   -1.5709    0.2565 H   0  0  0  0  0  0  0  0  0  0  0  0
   -2.0375   -0.9204    1.6038 H   0  0  0  0  0  0  0  0  0  0  0  0
   -1.2146   -1.7953   -1.0256 H   0  0  0  0  0  0  0  0  0  0  0  0
   -0.2210    0.0811   -1.6020 H   0  0  0  0  0  0  0  0  0  0  0  0
    0.9400   -0.1328    1.2378 H   0  0  0  0  0  0  0  0  0  0  0  0
    1.8753    1.2158   -1.2392 H   0  0  0  0  0  0  0  0  0  0  0  0
    2.8336    0.7651    1.3782 H   0  0  0  0  0  0  0  0  0  0  0  0
    3.6408   -1.0620    0.5991 H   0  0  0  0  0  0  0  0  0  0  0  0
    1.7961   -1.2253   -1.3809 H   0  0  0  0  0  0  0  0  0  0  0  0
   -0.8115    1.2653    1.1356 H   0  0  0  0  0  0  0  0  0  0  0  0
   -1.0632    2.0157   -0.5387 H   0  0  0  0  0  0  0  0  0  0  0  0
  1  2  1  0
  2  3  1  0
  3  4  1  0
  4  5  1  0
  5  6  1  0
  6  7  1  0
  7  8  1  0
  8  9  1  0
  4 10  1  0
 10  1  1  0
  9  5  1  0
  1 11  1  0
  1 12  1  0
  2 13  1  0
  2 14  1  0
  3 15  1  0
  4 16  1  6
  5 17  1  0
  6 18  1  0
  7 19  1  0
  8 20  1  0
  9 21  1  0
 10 22  1  0
 10 23  1  0
M  END
$$$$

     RDKit          3D

 23 24  0  0  0  0  0  0  0  0999 V2000
   -2.4804    0.0670   -0.2068 C   0  0  0  0  0  0  0  0  0  0  0  0
   -2.2058    1.1592    0.8060 C   0  0  0  0  0  0  0  0  0  0  0  0
   -0.8711    0.9771    1.2881 N   0  0  0  0  0  0  0  0  0  0  0  0
   -0.3643   -0.2491    0.7512 C   0  0  2  0  0  0  0  0  0  0  0  0
    1.1297   -0.2260    0.6084 C   0  0  0  0  0  0  0  0  0  0  0  0
    1.6015    0.8285   -0.2678 N   0  0  0  0  0  0  0  0  0  0  0  0
    2.9363    0.3941   -0.4906 N   0  0  0  0  0  0  0  0  0  0  0  0
    2.8417   -1.0089   -0.6276 N   0  0  0  0  0  0  0  0  0  0  0  0
    1.6698   -1.3983   -0.0077 N   0  0  0  0  0  0  0  0  0  0  0  0
   -1.0933   -0.5121   -0.5149 C   0  0  0  0  0  0  0  0  0  0  0  0
   -3.1147   -0.7192    0.2935 H   0  0  0  0  0  0  0  0  0  0  0  0
   -2.9845    0.4353   -1.1006 H   0  0  0  0  0  0  0  0  0  0  0  0
   -2.8947    1.0992    1.6805 H   0  0  0  0  0  0  0  0  0  0  0  0
   -2.3318    2.1734    0.3802 H   0  0  0  0  0  0  0  0  0  0  0  0
   -0.2792    1.7839    0.9693 H   0  0  0  0  0  0  0  0  0  0  0  0
   -0.6030   -1.0738    1.4635 H   0  0  0  0  0  0  0  0  0  0  0  0
    1.6395   -0.0854    1.5765 H   0  0  0  0  0  0  0  0  0  0  0  0
    1.1039    0.8812   -1.1707 H   0  0  0  0  0  0  0  0  0  0  0  0
    3.4179    0.5500    0.4433 H   0  0  0  0  0  0  0  0  0  0  0  0
    2.9043   -1.2901   -1.6320 H   0  0  0  0  0  0  0  0  0  0  0  0
    1.8935   -2.1004    0.7327 H   0  0  0  0  0  0  0  0  0  0  0  0
   -0.6733   -0.0813   -1.4203 H   0  0  0  0  0  0  0  0  0  0  0  0
   -1.2419   -1.6042   -0.6607 H   0  0  0  0  0  0  0  0  0  0  0  0
  1  2  1  0
  2  3  1  0
  3  4  1  0
  4  5  1  0
  5  6  1  0
  6  7  1  0
  7  8  1  0
  8  9  1  0
  4 10  1  0
 10  1  1  0
  9  5  1  0
  1 11  1  0
  1 12  1  0
  2 13  1  0
  2 14  1  0
  3 15  1  0
  4 16  1  1
  5 17  1  0
  6 18  1  0
  7 19  1  0
  8 20  1  0
  9 21  1  0
 10 22  1  0
 10 23  1  0
M  END
$$$$

     RDKit          3D

 23 24  0  0  0  0  0  0  0  0999 V2000
   -2.3727    0.1232   -0.8842 C   0  0  0  0  0  0  0  0  0  0  0  0
   -2.5017    0.0774    0.6052 C   0  0  0  0  0  0  0  0  0  0  0  0
   -1.1657   -0.0027    1.1598 N   0  0  0  0  0  0  0  0  0  0  0  0
   -0.3406   -0.4481    0.0622 C   0  0  2  0  0  0  0  0  0  0  0  0
    1.1152   -0.2973    0.3084 C   0  0  0  0  0  0  0  0  0  0  0  0
    1.5597    1.0344    0.5530 N   0  0  0  0  0  0  0  0  0  0  0  0
    2.8474    1.1111    0.0113 N   0  0  0  0  0  0  0  0  0  0  0  0
    3.1383   -0.1373   -0.5253 N   0  0  0  0  0  0  0  0  0  0  0  0
    1.8680   -0.6707   -0.8741 N   0  0  0  0  0  0  0  0  0  0  0  0
   -0.8843    0.3299   -1.0850 C   0  0  0  0  0  0  0  0  0  0  0  0
   -2.6154   -0.9063   -1.2702 H   0  0  0  0  0  0  0  0  0  0  0  0
   -2.9852    0.9000   -1.3667 H   0  0  0  0  0  0  0  0  0  0  0  0
   -3.0236    1.0023    0.9525 H   0  0  0  0  0  0  0  0  0  0  0  0
   -3.0698   -0.8306    0.9544 H   0  0  0  0  0  0  0  0  0  0  0  0
   -1.1024   -0.6388    1.9693 H   0  0  0  0  0  0  0  0  0  0  0  0
   -0.5610   -1.5205   -0.0953 H   0  0  0  0  0  0  0  0  0  0  0  0
    1.4046   -0.9984    1.1175 H   0  0  0  0  0  0  0  0  0  0  0  0
    1.6859    1.1584    1.6016 H   0  0  0  0  0  0  0  0  0  0  0  0
    2.8608    1.8015   -0.7856 H   0  0  0  0  0  0  0  0  0  0  0  0
    3.4863   -0.7896    0.2405 H   0  0  0  0  0  0  0  0  0  0  0  0
    1.8853   -1.6886   -0.9810 H   0  0  0  0  0  0  0  0  0  0  0  0
   -0.5571   -0.0302   -2.0778 H   0  0  0  0  0  0  0  0  0  0  0  0
   -0.6719    1.4210   -0.9331 H   0  0  0  0  0  0  0  0  0  0  0  0
  1  2  1  0
  2  3  1  0
  3  4  1  0
  4  5  1  0
  5  6  1  0
  6  7  1  0
  7  8  1  0
  8  9  1  0
  4 10  1  0
 10  1  1  0
  9  5  1  0
  1 11  1  0
  1 12  1  0
  2 13  1  0
  2 14  1  0
  3 15  1  0
  4 16  1  6
  5 17  1  0
  6 18  1  0
  7 19  1  0
  8 20  1  0
  9 21  1  0
 10 22  1  0
 10 23  1  0
M  END
$$$$
