
     RDKit          3D

 29 29  0  0  0  0  0  0  0  0999 V2000
    0.5430   -1.2976   -1.5442 C   0  0  0  0  0  0  0  0  0  0  0  0
    0.1761   -0.3165   -0.5346 N   0  0  0  0  0  0  0  0  0  0  0  0
    1.2970    0.3497   -0.0563 C   0  0  0  0  0  0  0  0  0  0  0  0
    1.3093    1.8745   -0.1902 C   0  0  0  0  0  0  0  0  0  0  0  0
    1.1327    2.2766   -1.4995 O   0  0  0  0  0  0  0  0  0  0  0  0
    1.8819   -0.1115    1.2538 C   0  0  0  0  0  0  0  0  0  0  0  0
    2.3037   -1.4598    1.1504 O   0  0  0  0  0  0  0  0  0  0  0  0
   -0.8637   -0.8112    0.2275 C   0  0  2  0  0  0  0  0  0  0  0  0
   -2.0836   -1.0728   -0.6875 C   0  0  0  0  0  0  0  0  0  0  0  0
   -2.5243    0.3377   -0.3154 C   0  0  0  0  0  0  0  0  0  0  0  0
   -1.8017    0.0669    0.9970 C   0  0  2  0  0  0  0  0  0  0  0  0
   -1.3598    1.1285    1.6867 O   0  0  0  0  0  0  0  0  0  0  0  0
    0.8718   -0.8313   -2.4822 H   0  0  0  0  0  0  0  0  0  0  0  0
   -0.1544   -2.1220   -1.6135 H   0  0  0  0  0  0  0  0  0  0  0  0
    1.4924   -1.7812   -1.1402 H   0  0  0  0  0  0  0  0  0  0  0  0
    2.1645    0.0899   -0.7940 H   0  0  0  0  0  0  0  0  0  0  0  0
    2.3848    2.2385    0.0566 H   0  0  0  0  0  0  0  0  0  0  0  0
    0.7063    2.3986    0.5648 H   0  0  0  0  0  0  0  0  0  0  0  0
    1.9014    2.7211   -1.9174 H   0  0  0  0  0  0  0  0  0  0  0  0
    1.2230    0.0486    2.1176 H   0  0  0  0  0  0  0  0  0  0  0  0
    2.8163    0.4622    1.4279 H   0  0  0  0  0  0  0  0  0  0  0  0
    2.1624   -1.9734    1.9791 H   0  0  0  0  0  0  0  0  0  0  0  0
   -0.6421   -1.8094    0.7141 H   0  0  0  0  0  0  0  0  0  0  0  0
   -1.8758   -1.1173   -1.7448 H   0  0  0  0  0  0  0  0  0  0  0  0
   -2.7656   -1.7946   -0.2471 H   0  0  0  0  0  0  0  0  0  0  0  0
   -3.6348    0.4251   -0.2124 H   0  0  0  0  0  0  0  0  0  0  0  0
   -2.0720    1.0842   -0.9696 H   0  0  0  0  0  0  0  0  0  0  0  0
   -2.4845   -0.5727    1.6204 H   0  0  0  0  0  0  0  0  0  0  0  0
   -2.1042    1.5690    2.1531 H   0  0  0  0  0  0  0  0  0  0  0  0
  1  2  1  0
  2  3  1  0
  3  4  1  0
  4  5  1  0
  3  6  1  0
  6  7  1  0
  2  8  1  0
  8  9  1  0
  9 10  1  0
 10 11  1  0
 11 12  1  0
 11  8  1  0
  1 13  1  0
  1 14  1  0
  1 15  1  0
  3 16  1  0
  4 17  1  0
  4 18  1  0
  5 19  1  0
  6 20  1  0
  6 21  1  0
  7 22  1  0
  8 23  1  1
  9 24  1  0
  9 25  1  0
 10 26  1  0
 10 27  1  0
 11 28  1  1
 12 29  1  0
M  END
$$$$

     RDKit          3D

 29 29  0  0  0  0  0  0  0  0999 V2000
    0.0413   -0.6863    2.0649 C   0  0  0  0  0  0  0  0  0  0  0  0
    0.0406   -0.1141    0.7205 N   0  0  0  0  0  0  0  0  0  0  0  0
   -1.2857   -0.1243    0.1903 C   0  0  0  0  0  0  0  0  0  0  0  0
   -2.1316    0.7631    1.0924 C   0  0  0  0  0  0  0  0  0  0  0  0
   -3.4493    0.8141    0.6515 O   0  0  0  0  0  0  0  0  0  0  0  0
   -1.4693    0.2164   -1.2318 C   0  0  0  0  0  0  0  0  0  0  0  0
   -2.8429    0.1381   -1.5808 O   0  0  0  0  0  0  0  0  0  0  0  0
    1.0444   -0.7030   -0.1015 C   0  0  2  0  0  0  0  0  0  0  0  0
    2.4168   -0.4155    0.5515 C   0  0  0  0  0  0  0  0  0  0  0  0
    3.0156   -0.2491   -0.8378 C   0  0  0  0  0  0  0  0  0  0  0  0
    1.5698    0.0819   -1.2757 C   0  0  2  0  0  0  0  0  0  0  0  0
    1.4403    1.4554   -1.2306 O   0  0  0  0  0  0  0  0  0  0  0  0
   -0.1260    0.1600    2.7615 H   0  0  0  0  0  0  0  0  0  0  0  0
   -0.8704   -1.3262    2.1288 H   0  0  0  0  0  0  0  0  0  0  0  0
    0.9679   -1.2195    2.2680 H   0  0  0  0  0  0  0  0  0  0  0  0
   -1.6825   -1.1685    0.3518 H   0  0  0  0  0  0  0  0  0  0  0  0
   -1.6933    1.8019    1.1617 H   0  0  0  0  0  0  0  0  0  0  0  0
   -2.1440    0.3815    2.1381 H   0  0  0  0  0  0  0  0  0  0  0  0
   -3.6153    1.6595    0.1372 H   0  0  0  0  0  0  0  0  0  0  0  0
   -0.9420   -0.4064   -1.9492 H   0  0  0  0  0  0  0  0  0  0  0  0
   -1.2591    1.3201   -1.3640 H   0  0  0  0  0  0  0  0  0  0  0  0
   -3.0550   -0.7232   -1.9986 H   0  0  0  0  0  0  0  0  0  0  0  0
    0.9731   -1.7726   -0.3100 H   0  0  0  0  0  0  0  0  0  0  0  0
    2.8127   -1.2254    1.1598 H   0  0  0  0  0  0  0  0  0  0  0  0
    2.4673    0.5531    1.0737 H   0  0  0  0  0  0  0  0  0  0  0  0
    3.3627   -1.2210   -1.2000 H   0  0  0  0  0  0  0  0  0  0  0  0
    3.7305    0.5597   -0.9726 H   0  0  0  0  0  0  0  0  0  0  0  0
    1.4254   -0.3614   -2.2787 H   0  0  0  0  0  0  0  0  0  0  0  0
    1.2580    1.8115   -2.1207 H   0  0  0  0  0  0  0  0  0  0  0  0
  1  2  1  0
  2  3  1  0
  3  4  1  0
  4  5  1  0
  3  6  1  0
  6  7  1  0
  2  8  1  0
  8  9  1  0
  9 10  1  0
 10 11  1  0
 11 12  1  0
 11  8  1  0
  1 13  1  0
  1 14  1  0
  1 15  1  0
  3 16  1  0
  4 17  1  0
  4 18  1  0
  5 19  1  0
  6 20  1  0
  6 21  1  0
  7 22  1  0
  8 23  1  6
  9 24  1  0
  9 25  1  0
 10 26  1  0
 10 27  1  0
 11 28  1  6
 12 29  1  0
M  END
$$$$

     RDKit          3D

 29 29  0  0  0  0  0  0  0  0999 V2000
    0.0390   -0.9206   -1.6633 C   0  0  0  0  0  0  0  0  0  0  0  0
    0.2339   -0.6663   -0.2900 N   0  0  0  0  0  0  0  0  0  0  0  0
    1.5365   -0.3070    0.1377 C   0  0  0  0  0  0  0  0  0  0  0  0
    1.9573    1.0191   -0.4719 C   0  0  0  0  0  0  0  0  0  0  0  0
    1.9442    0.8625   -1.8586 O   0  0  0  0  0  0  0  0  0  0  0  0
    1.7785   -0.2982    1.6131 C   0  0  0  0  0  0  0  0  0  0  0  0
    3.1408    0.0618    1.8055 O   0  0  0  0  0  0  0  0  0  0  0  0
   -0.8037   -0.1553    0.4713 C   0  0  2  0  0  0  0  0  0  0  0  0
   -2.0771   -1.0042    0.6685 C   0  0  0  0  0  0  0  0  0  0  0  0
   -2.7254    0.3816    0.8945 C   0  0  0  0  0  0  0  0  0  0  0  0
   -1.7872    0.7904   -0.2653 C   0  0  2  0  0  0  0  0  0  0  0  0
   -2.2804    0.1951   -1.4115 O   0  0  0  0  0  0  0  0  0  0  0  0
    1.0313   -1.2787   -2.0835 H   0  0  0  0  0  0  0  0  0  0  0  0
   -0.6802   -1.7433   -1.8846 H   0  0  0  0  0  0  0  0  0  0  0  0
   -0.1667   -0.0022   -2.2480 H   0  0  0  0  0  0  0  0  0  0  0  0
    2.2673   -1.0823   -0.2902 H   0  0  0  0  0  0  0  0  0  0  0  0
    1.2159    1.8064   -0.2042 H   0  0  0  0  0  0  0  0  0  0  0  0
    2.9458    1.3170   -0.0992 H   0  0  0  0  0  0  0  0  0  0  0  0
    1.8615    1.7443   -2.2910 H   0  0  0  0  0  0  0  0  0  0  0  0
    1.2239    0.4520    2.1873 H   0  0  0  0  0  0  0  0  0  0  0  0
    1.6448   -1.3401    2.0268 H   0  0  0  0  0  0  0  0  0  0  0  0
    3.6580   -0.7780    1.9725 H   0  0  0  0  0  0  0  0  0  0  0  0
   -0.5989    0.3448    1.4421 H   0  0  0  0  0  0  0  0  0  0  0  0
   -2.0890   -1.6093    1.5738 H   0  0  0  0  0  0  0  0  0  0  0  0
   -2.5046   -1.4105   -0.2588 H   0  0  0  0  0  0  0  0  0  0  0  0
   -3.7857    0.4382    0.6804 H   0  0  0  0  0  0  0  0  0  0  0  0
   -2.3347    0.7891    1.8384 H   0  0  0  0  0  0  0  0  0  0  0  0
   -1.4946    1.8312   -0.2914 H   0  0  0  0  0  0  0  0  0  0  0  0
   -3.1505    0.5626   -1.7003 H   0  0  0  0  0  0  0  0  0  0  0  0
  1  2  1  0
  2  3  1  0
  3  4  1  0
  4  5  1  0
  3  6  1  0
  6  7  1  0
  2  8  1  0
  8  9  1  0
  9 10  1  0
 10 11  1  0
 11 12  1  0
 11  8  1  0
  1 13  1  0
  1 14  1  0
  1 15  1  0
  3 16  1  0
  4 17  1  0
  4 18  1  0
  5 19  1  0
  6 20  1  0
  6 21  1  0
  7 22  1  0
  8 23  1  1
  9 24  1  0
  9 25  1  0
 10 26  1  0
 10 27  1  0
 11 28  1  6
 12 29  1  0
M  END
$$$$

     RDKit          3D

 29 29  0  0  0  0  0  0  0  0999 V2000
   -0.3485   -1.2778   -1.3499 C   0  0  0  0  0  0  0  0  0  0  0  0
   -0.0954   -0.4151   -0.2179 N   0  0  0  0  0  0  0  0  0  0  0  0
   -1.2453    0.2379    0.2771 C   0  0  0  0  0  0  0  0  0  0  0  0
   -2.2924   -0.7243    0.8036 C   0  0  0  0  0  0  0  0  0  0  0  0
   -1.8540   -1.5140    1.8358 O   0  0  0  0  0  0  0  0  0  0  0  0
   -1.9806    1.1134   -0.6943 C   0  0  0  0  0  0  0  0  0  0  0  0
   -1.2487    2.1380   -1.2069 O   0  0  0  0  0  0  0  0  0  0  0  0
    1.0941    0.3500   -0.3375 C   0  0  2  0  0  0  0  0  0  0  0  0
    2.2914   -0.6071   -0.4112 C   0  0  0  0  0  0  0  0  0  0  0  0
    3.0779    0.5060    0.2956 C   0  0  0  0  0  0  0  0  0  0  0  0
    1.7198    0.8912    0.9059 C   0  0  2  0  0  0  0  0  0  0  0  0
    1.4439    0.2441    2.0882 O   0  0  0  0  0  0  0  0  0  0  0  0
    0.5767   -1.5212   -1.8971 H   0  0  0  0  0  0  0  0  0  0  0  0
   -0.7446   -2.2554   -0.9660 H   0  0  0  0  0  0  0  0  0  0  0  0
   -1.0499   -0.8500   -2.0891 H   0  0  0  0  0  0  0  0  0  0  0  0
   -0.9485    0.8710    1.1398 H   0  0  0  0  0  0  0  0  0  0  0  0
   -2.7809   -1.2876   -0.0169 H   0  0  0  0  0  0  0  0  0  0  0  0
   -3.1143   -0.0666    1.2167 H   0  0  0  0  0  0  0  0  0  0  0  0
   -2.3715   -2.3684    1.8347 H   0  0  0  0  0  0  0  0  0  0  0  0
   -2.8370    1.5504   -0.1343 H   0  0  0  0  0  0  0  0  0  0  0  0
   -2.4707    0.4809   -1.4898 H   0  0  0  0  0  0  0  0  0  0  0  0
   -1.6521    2.9937   -1.0112 H   0  0  0  0  0  0  0  0  0  0  0  0
    1.1163    1.0526   -1.1735 H   0  0  0  0  0  0  0  0  0  0  0  0
    2.2333   -1.4570    0.3019 H   0  0  0  0  0  0  0  0  0  0  0  0
    2.6204   -0.8350   -1.4297 H   0  0  0  0  0  0  0  0  0  0  0  0
    3.8097    0.1579    1.0201 H   0  0  0  0  0  0  0  0  0  0  0  0
    3.4142    1.2350   -0.4671 H   0  0  0  0  0  0  0  0  0  0  0  0
    1.7392    1.9795    1.0387 H   0  0  0  0  0  0  0  0  0  0  0  0
    1.8973   -0.6226    2.1342 H   0  0  0  0  0  0  0  0  0  0  0  0
  1  2  1  0
  2  3  1  0
  3  4  1  0
  4  5  1  0
  3  6  1  0
  6  7  1  0
  2  8  1  0
  8  9  1  0
  9 10  1  0
 10 11  1  0
 11 12  1  0
 11  8  1  0
  1 13  1  0
  1 14  1  0
  1 15  1  0
  3 16  1  0
  4 17  1  0
  4 18  1  0
  5 19  1  0
  6 20  1  0
  6 21  1  0
  7 22  1  0
  8 23  1  6
  9 24  1  0
  9 25  1  0
 10 26  1  0
 10 27  1  0
 11 28  1  1
 12 29  1  0
M  END
$$$$

     RDKit          3D

 29 29  0  0  0  0  0  0  0  0999 V2000
   -0.1317   -0.8422   -1.9320 C   0  0  0  0  0  0  0  0  0  0  0  0
   -0.1171    0.0601   -0.7957 N   0  0  0  0  0  0  0  0  0  0  0  0
   -1.4508    0.3432   -0.4140 C   0  0  0  0  0  0  0  0  0  0  0  0
   -2.2625   -0.8336    0.0515 C   0  0  0  0  0  0  0  0  0  0  0  0
   -1.7530   -1.4756    1.1570 O   0  0  0  0  0  0  0  0  0  0  0  0
   -1.5741    1.4250    0.6287 C   0  0  0  0  0  0  0  0  0  0  0  0
   -1.0528    2.6410    0.2161 O   0  0  0  0  0  0  0  0  0  0  0  0
    0.7661   -0.4555    0.1743 C   0  0  2  0  0  0  0  0  0  0  0  0
    1.2954    0.4390    1.2387 C   0  0  0  0  0  0  0  0  0  0  0  0
    2.6617   -0.2364    1.0280 C   0  0  0  0  0  0  0  0  0  0  0  0
    2.1915   -0.4854   -0.4014 C   0  0  2  0  0  0  0  0  0  0  0  0
    2.4119    0.6667   -1.1592 O   0  0  0  0  0  0  0  0  0  0  0  0
    0.4706   -1.7551   -1.7333 H   0  0  0  0  0  0  0  0  0  0  0  0
   -1.1228   -1.1392   -2.2555 H   0  0  0  0  0  0  0  0  0  0  0  0
    0.4079   -0.3121   -2.7611 H   0  0  0  0  0  0  0  0  0  0  0  0
   -1.9776    0.7413   -1.3242 H   0  0  0  0  0  0  0  0  0  0  0  0
   -2.4649   -1.5600   -0.7790 H   0  0  0  0  0  0  0  0  0  0  0  0
   -3.2696   -0.4366    0.3236 H   0  0  0  0  0  0  0  0  0  0  0  0
   -2.5351   -1.8936    1.6348 H   0  0  0  0  0  0  0  0  0  0  0  0
   -1.1477    1.1188    1.6086 H   0  0  0  0  0  0  0  0  0  0  0  0
   -2.6660    1.5717    0.8117 H   0  0  0  0  0  0  0  0  0  0  0  0
   -1.7453    3.3577    0.1622 H   0  0  0  0  0  0  0  0  0  0  0  0
    0.5487   -1.4641    0.5931 H   0  0  0  0  0  0  0  0  0  0  0  0
    0.9889    0.2470    2.2793 H   0  0  0  0  0  0  0  0  0  0  0  0
    1.4202    1.5094    0.9591 H   0  0  0  0  0  0  0  0  0  0  0  0
    2.7458   -1.2182    1.5395 H   0  0  0  0  0  0  0  0  0  0  0  0
    3.5212    0.4300    1.0717 H   0  0  0  0  0  0  0  0  0  0  0  0
    2.4931   -1.4279   -0.8429 H   0  0  0  0  0  0  0  0  0  0  0  0
    3.3479    0.9845   -1.0798 H   0  0  0  0  0  0  0  0  0  0  0  0
  1  2  1  0
  2  3  1  0
  3  4  1  0
  4  5  1  0
  3  6  1  0
  6  7  1  0
  2  8  1  0
  8  9  1  0
  9 10  1  0
 10 11  1  0
 11 12  1  0
 11  8  1  0
  1 13  1  0
  1 14  1  0
  1 15  1  0
  3 16  1  0
  4 17  1  0
  4 18  1  0
  5 19  1  0
  6 20  1  0
  6 21  1  0
  7 22  1  0
  8 23  1  1
  9 24  1  0
  9 25  1  0
 10 26  1  0
 10 27  1  0
 11 28  1  6
 12 29  1  0
M  END
$$$$

     RDKit          3D

 29 29  0  0  0  0  0  0  0  0999 V2000
    0.1845   -1.6710   -0.9420 C   0  0  0  0  0  0  0  0  0  0  0  0
    0.0604   -0.2691   -0.4957 N   0  0  0  0  0  0  0  0  0  0  0  0
   -1.3432   -0.0294   -0.3963 C   0  0  0  0  0  0  0  0  0  0  0  0
   -2.0314   -0.8732    0.6479 C   0  0  0  0  0  0  0  0  0  0  0  0
   -3.4128   -0.5722    0.6402 O   0  0  0  0  0  0  0  0  0  0  0  0
   -1.7546    1.3945   -0.1426 C   0  0  0  0  0  0  0  0  0  0  0  0
   -1.3364    2.2730   -1.1099 O   0  0  0  0  0  0  0  0  0  0  0  0
    0.8206   -0.1566    0.6857 C   0  0  2  0  0  0  0  0  0  0  0  0
    1.3033    1.1252    1.2081 C   0  0  0  0  0  0  0  0  0  0  0  0
    2.5397    0.9956    0.3433 C   0  0  0  0  0  0  0  0  0  0  0  0
    2.2839   -0.5184    0.4218 C   0  0  2  0  0  0  0  0  0  0  0  0
    2.5698   -1.0664   -0.7995 O   0  0  0  0  0  0  0  0  0  0  0  0
   -0.8042   -2.1437   -1.1247 H   0  0  0  0  0  0  0  0  0  0  0  0
    0.6797   -1.7088   -1.9484 H   0  0  0  0  0  0  0  0  0  0  0  0
    0.6862   -2.3049   -0.1843 H   0  0  0  0  0  0  0  0  0  0  0  0
   -1.7923   -0.3163   -1.3758 H   0  0  0  0  0  0  0  0  0  0  0  0
   -1.8561   -1.9413    0.5650 H   0  0  0  0  0  0  0  0  0  0  0  0
   -1.6945   -0.4662    1.6521 H   0  0  0  0  0  0  0  0  0  0  0  0
   -3.9436   -1.3242    0.2760 H   0  0  0  0  0  0  0  0  0  0  0  0
   -2.8876    1.3703   -0.2209 H   0  0  0  0  0  0  0  0  0  0  0  0
   -1.5789    1.6835    0.8972 H   0  0  0  0  0  0  0  0  0  0  0  0
   -1.0058    3.0908   -0.6182 H   0  0  0  0  0  0  0  0  0  0  0  0
    0.4617   -0.8553    1.4835 H   0  0  0  0  0  0  0  0  0  0  0  0
    1.6389    0.9982    2.2830 H   0  0  0  0  0  0  0  0  0  0  0  0
    0.7585    2.0494    1.1194 H   0  0  0  0  0  0  0  0  0  0  0  0
    2.4198    1.4006   -0.6960 H   0  0  0  0  0  0  0  0  0  0  0  0
    3.4983    1.2196    0.8030 H   0  0  0  0  0  0  0  0  0  0  0  0
    2.8121   -0.9645    1.2712 H   0  0  0  0  0  0  0  0  0  0  0  0
    2.7239   -0.4193   -1.5159 H   0  0  0  0  0  0  0  0  0  0  0  0
  1  2  1  0
  2  3  1  0
  3  4  1  0
  4  5  1  0
  3  6  1  0
  6  7  1  0
  2  8  1  0
  8  9  1  0
  9 10  1  0
 10 11  1  0
 11 12  1  0
 11  8  1  0
  1 13  1  0
  1 14  1  0
  1 15  1  0
  3 16  1  0
  4 17  1  0
  4 18  1  0
  5 19  1  0
  6 20  1  0
  6 21  1  0
  7 22  1  0
  8 23  1  1
  9 24  1  0
  9 25  1  0
 10 26  1  0
 10 27  1  0
 11 28  1  1
 12 29  1  0
M  END
$$$$

     RDKit          3D

 29 29  0  0  0  0  0  0  0  0999 V2000
   -0.3148   -1.7343    0.9355 C   0  0  0  0  0  0  0  0  0  0  0  0
    0.0285   -0.3298    0.5826 N   0  0  0  0  0  0  0  0  0  0  0  0
   -1.2605    0.2953    0.4717 C   0  0  0  0  0  0  0  0  0  0  0  0
   -2.1192   -0.2590   -0.6464 C   0  0  0  0  0  0  0  0  0  0  0  0
   -2.4016   -1.5944   -0.5420 O   0  0  0  0  0  0  0  0  0  0  0  0
   -1.3390    1.7695    0.4217 C   0  0  0  0  0  0  0  0  0  0  0  0
   -0.7878    2.3857    1.5379 O   0  0  0  0  0  0  0  0  0  0  0  0
    0.7487   -0.3644   -0.6882 C   0  0  2  0  0  0  0  0  0  0  0  0
    1.9999   -1.2750   -0.5976 C   0  0  0  0  0  0  0  0  0  0  0  0
    2.7217   -0.0983   -0.0341 C   0  0  0  0  0  0  0  0  0  0  0  0
    1.7536    0.7354   -0.9053 C   0  0  2  0  0  0  0  0  0  0  0  0
    1.5875    1.9527   -0.3291 O   0  0  0  0  0  0  0  0  0  0  0  0
   -0.3209   -2.3866    0.0636 H   0  0  0  0  0  0  0  0  0  0  0  0
    0.4241   -2.1195    1.6702 H   0  0  0  0  0  0  0  0  0  0  0  0
   -1.2647   -1.6904    1.4771 H   0  0  0  0  0  0  0  0  0  0  0  0
   -1.8106   -0.0310    1.4184 H   0  0  0  0  0  0  0  0  0  0  0  0
   -3.1126    0.2798   -0.5722 H   0  0  0  0  0  0  0  0  0  0  0  0
   -1.7191    0.0566   -1.6335 H   0  0  0  0  0  0  0  0  0  0  0  0
   -3.1848   -1.7275    0.0215 H   0  0  0  0  0  0  0  0  0  0  0  0
   -0.9929    2.2748   -0.4755 H   0  0  0  0  0  0  0  0  0  0  0  0
   -2.4506    2.0897    0.4705 H   0  0  0  0  0  0  0  0  0  0  0  0
   -1.4588    2.8509    2.0697 H   0  0  0  0  0  0  0  0  0  0  0  0
    0.1604   -0.7020   -1.5449 H   0  0  0  0  0  0  0  0  0  0  0  0
    1.8597   -2.1572    0.0108 H   0  0  0  0  0  0  0  0  0  0  0  0
    2.3605   -1.4933   -1.6339 H   0  0  0  0  0  0  0  0  0  0  0  0
    3.7782    0.0207   -0.3116 H   0  0  0  0  0  0  0  0  0  0  0  0
    2.5358    0.1302    1.0246 H   0  0  0  0  0  0  0  0  0  0  0  0
    2.0895    0.7304   -1.9706 H   0  0  0  0  0  0  0  0  0  0  0  0
    2.4900    2.3911   -0.2912 H   0  0  0  0  0  0  0  0  0  0  0  0
  1  2  1  0
  2  3  1  0
  3  4  1  0
  4  5  1  0
  3  6  1  0
  6  7  1  0
  2  8  1  0
  8  9  1  0
  9 10  1  0
 10 11  1  0
 11 12  1  0
 11  8  1  0
  1 13  1  0
  1 14  1  0
  1 15  1  0
  3 16  1  0
  4 17  1  0
  4 18  1  0
  5 19  1  0
  6 20  1  0
  6 21  1  0
  7 22  1  0
  8 23  1  6
  9 24  1  0
  9 25  1  0
 10 26  1  0
 10 27  1  0
 11 28  1  6
 12 29  1  0
M  END
$$$$

     RDKit          3D

 29 29  0  0  0  0  0  0  0  0999 V2000
   -0.5114   -1.7576    1.2525 C   0  0  0  0  0  0  0  0  0  0  0  0
   -0.1776   -0.9532    0.0134 N   0  0  0  0  0  0  0  0  0  0  0  0
   -1.1037    0.0955    0.0647 C   0  0  0  0  0  0  0  0  0  0  0  0
   -2.5597   -0.4199   -0.0234 C   0  0  0  0  0  0  0  0  0  0  0  0
   -3.4017    0.6880    0.0378 O   0  0  0  0  0  0  0  0  0  0  0  0
   -1.0176    1.1151   -1.0283 C   0  0  0  0  0  0  0  0  0  0  0  0
   -2.0507    2.0933   -0.8610 O   0  0  0  0  0  0  0  0  0  0  0  0
    1.1964   -0.8081    0.0315 C   0  0  2  0  0  0  0  0  0  0  0  0
    1.8720    0.0003    1.0922 C   0  0  0  0  0  0  0  0  0  0  0  0
    2.4830    0.8490   -0.0148 C   0  0  0  0  0  0  0  0  0  0  0  0
    2.0632   -0.2111   -0.9838 C   0  0  2  0  0  0  0  0  0  0  0  0
    1.5803    0.1599   -2.2129 O   0  0  0  0  0  0  0  0  0  0  0  0
   -0.6330   -1.0546    2.0818 H   0  0  0  0  0  0  0  0  0  0  0  0
    0.3869   -2.3648    1.4357 H   0  0  0  0  0  0  0  0  0  0  0  0
   -1.3393   -2.4272    1.0476 H   0  0  0  0  0  0  0  0  0  0  0  0
   -1.1167    0.6725    1.0204 H   0  0  0  0  0  0  0  0  0  0  0  0
   -2.8228   -1.0701    0.8015 H   0  0  0  0  0  0  0  0  0  0  0  0
   -2.7225   -0.8699   -1.0380 H   0  0  0  0  0  0  0  0  0  0  0  0
   -3.6151    0.9087    0.9713 H   0  0  0  0  0  0  0  0  0  0  0  0
   -0.1022    1.7399   -0.9868 H   0  0  0  0  0  0  0  0  0  0  0  0
   -1.0865    0.7179   -2.0562 H   0  0  0  0  0  0  0  0  0  0  0  0
   -1.7795    2.6225   -0.0904 H   0  0  0  0  0  0  0  0  0  0  0  0
    1.6214   -1.8995    0.1864 H   0  0  0  0  0  0  0  0  0  0  0  0
    2.6789   -0.5072    1.6495 H   0  0  0  0  0  0  0  0  0  0  0  0
    1.2250    0.5494    1.7954 H   0  0  0  0  0  0  0  0  0  0  0  0
    2.0781    1.8506   -0.1319 H   0  0  0  0  0  0  0  0  0  0  0  0
    3.6047    0.9655    0.1119 H   0  0  0  0  0  0  0  0  0  0  0  0
    3.0211   -0.8183   -1.2142 H   0  0  0  0  0  0  0  0  0  0  0  0
    2.2289    0.1333   -2.9519 H   0  0  0  0  0  0  0  0  0  0  0  0
  1  2  1  0
  2  3  1  0
  3  4  1  0
  4  5  1  0
  3  6  1  0
  6  7  1  0
  2  8  1  0
  8  9  1  0
  9 10  1  0
 10 11  1  0
 11 12  1  0
 11  8  1  0
  1 13  1  0
  1 14  1  0
  1 15  1  0
  3 16  1  0
  4 17  1  0
  4 18  1  0
  5 19  1  0
  6 20  1  0
  6 21  1  0
  7 22  1  0
  8 23  1  1
  9 24  1  0
  9 25  1  0
 10 26  1  0
 10 27  1  0
 11 28  1  6
 12 29  1  0
M  END
$$$$
