
     RDKit          3D

 21 21  0  0  0  0  0  0  0  0999 V2000
   -2.2666    0.8059    0.6569 C   0  0  0  0  0  0  0  0  0  0  0  0
   -2.0681   -0.1551   -0.3673 N   0  0  0  0  0  0  0  0  0  0  0  0
   -2.0872   -1.4664    0.0188 N   0  0  0  0  0  0  0  0  0  0  0  0
   -0.7376    0.1880   -1.4012 S   0  0  0  0  0  6  0  0  0  0  0  0
   -1.0228   -0.4804   -2.7322 O   0  0  0  0  0  0  0  0  0  0  0  0
   -0.5702    1.6547   -1.6362 O   0  0  0  0  0  0  0  0  0  0  0  0
    0.6828   -0.5420   -0.7625 N   0  0  0  0  0  0  0  0  0  0  0  0
    1.3974    0.3392    0.1445 C   0  0  0  0  0  0  0  0  0  0  0  0
    2.2122   -0.3176    1.2175 C   0  0  0  0  0  0  0  0  0  0  0  0
    2.8882    0.2931    0.0401 C   0  0  0  0  0  0  0  0  0  0  0  0
   -2.8109    0.3303    1.5067 H   0  0  0  0  0  0  0  0  0  0  0  0
   -2.9214    1.6178    0.2770 H   0  0  0  0  0  0  0  0  0  0  0  0
   -1.3403    1.2993    1.0241 H   0  0  0  0  0  0  0  0  0  0  0  0
   -2.4344   -2.1240   -0.7262 H   0  0  0  0  0  0  0  0  0  0  0  0
   -2.5386   -1.6495    0.9397 H   0  0  0  0  0  0  0  0  0  0  0  0
    1.3243   -0.8489   -1.5429 H   0  0  0  0  0  0  0  0  0  0  0  0
    0.9638    1.3370    0.3130 H   0  0  0  0  0  0  0  0  0  0  0  0
    2.2172   -1.4007    1.3355 H   0  0  0  0  0  0  0  0  0  0  0  0
    2.2646    0.2561    2.1884 H   0  0  0  0  0  0  0  0  0  0  0  0
    3.4698    1.2177    0.2355 H   0  0  0  0  0  0  0  0  0  0  0  0
    3.3779   -0.3544   -0.7293 H   0  0  0  0  0  0  0  0  0  0  0  0
  1  2  1  0
  2  3  1  0
  2  4  1  0
  4  5  2  0
  4  6  2  0
  4  7  1  0
  7  8  1  0
  8  9  1  0
  9 10  1  0
 10  8  1  0
  1 11  1  0
  1 12  1  0
  1 13  1  0
  3 14  1  0
  3 15  1  0
  7 16  1  0
  8 17  1  0
  9 18  1  0
  9 19  1  0
 10 20  1  0
 10 21  1  0
M  END
$$$$

     RDKit          3D

 21 21  0  0  0  0  0  0  0  0999 V2000
   -2.3068   -0.4377    0.7233 C   0  0  0  0  0  0  0  0  0  0  0  0
   -2.0562    0.6507   -0.2041 N   0  0  0  0  0  0  0  0  0  0  0  0
   -2.0577    0.1812   -1.4710 N   0  0  0  0  0  0  0  0  0  0  0  0
   -0.6375    1.4780    0.2801 S   0  0  0  0  0  6  0  0  0  0  0  0
   -0.7882    2.9434   -0.0162 O   0  0  0  0  0  0  0  0  0  0  0  0
   -0.5251    1.3290    1.7889 O   0  0  0  0  0  0  0  0  0  0  0  0
    0.7578    0.8041   -0.4507 N   0  0  0  0  0  0  0  0  0  0  0  0
    1.3514   -0.2426    0.3269 C   0  0  0  0  0  0  0  0  0  0  0  0
    1.9158   -1.4212   -0.4124 C   0  0  0  0  0  0  0  0  0  0  0  0
    2.8253   -0.4556    0.3289 C   0  0  0  0  0  0  0  0  0  0  0  0
   -2.5144    0.0518    1.7194 H   0  0  0  0  0  0  0  0  0  0  0  0
   -1.4364   -1.0917    0.8669 H   0  0  0  0  0  0  0  0  0  0  0  0
   -3.1678   -1.0637    0.4002 H   0  0  0  0  0  0  0  0  0  0  0  0
   -2.6023    0.6502   -2.1771 H   0  0  0  0  0  0  0  0  0  0  0  0
   -1.5866   -0.6815   -1.6856 H   0  0  0  0  0  0  0  0  0  0  0  0
    1.4091    1.4932   -0.8378 H   0  0  0  0  0  0  0  0  0  0  0  0
    0.8471   -0.4818    1.2825 H   0  0  0  0  0  0  0  0  0  0  0  0
    1.9914   -1.3429   -1.5158 H   0  0  0  0  0  0  0  0  0  0  0  0
    1.7912   -2.4172    0.0369 H   0  0  0  0  0  0  0  0  0  0  0  0
    3.4729    0.2277   -0.2484 H   0  0  0  0  0  0  0  0  0  0  0  0
    3.3168   -0.8166    1.2652 H   0  0  0  0  0  0  0  0  0  0  0  0
  1  2  1  0
  2  3  1  0
  2  4  1  0
  4  5  2  0
  4  6  2  0
  4  7  1  0
  7  8  1  0
  8  9  1  0
  9 10  1  0
 10  8  1  0
  1 11  1  0
  1 12  1  0
  1 13  1  0
  3 14  1  0
  3 15  1  0
  7 16  1  0
  8 17  1  0
  9 18  1  0
  9 19  1  0
 10 20  1  0
 10 21  1  0
M  END
$$$$

     RDKit          3D

 21 21  0  0  0  0  0  0  0  0999 V2000
   -1.9536    1.2103   -0.9328 C   0  0  0  0  0  0  0  0  0  0  0  0
   -2.1736    0.0754   -0.0694 N   0  0  0  0  0  0  0  0  0  0  0  0
   -2.1011   -1.1067   -0.7741 N   0  0  0  0  0  0  0  0  0  0  0  0
   -1.1737    0.0951    1.3288 S   0  0  0  0  0  6  0  0  0  0  0  0
   -1.9406   -0.5966    2.4268 O   0  0  0  0  0  0  0  0  0  0  0  0
   -0.8729    1.4841    1.7829 O   0  0  0  0  0  0  0  0  0  0  0  0
    0.2936   -0.7144    1.0291 N   0  0  0  0  0  0  0  0  0  0  0  0
    1.3429    0.0962    0.5302 C   0  0  0  0  0  0  0  0  0  0  0  0
    2.2795   -0.3822   -0.5391 C   0  0  0  0  0  0  0  0  0  0  0  0
    2.7665   -0.1154    0.8841 C   0  0  0  0  0  0  0  0  0  0  0  0
   -1.2396    1.9419   -0.5340 H   0  0  0  0  0  0  0  0  0  0  0  0
   -2.9422    1.7513   -1.0009 H   0  0  0  0  0  0  0  0  0  0  0  0
   -1.6888    0.9433   -1.9649 H   0  0  0  0  0  0  0  0  0  0  0  0
   -1.7093   -1.0246   -1.7321 H   0  0  0  0  0  0  0  0  0  0  0  0
   -1.6304   -1.8288   -0.1847 H   0  0  0  0  0  0  0  0  0  0  0  0
    0.2173   -1.6617    0.6636 H   0  0  0  0  0  0  0  0  0  0  0  0
    1.0572    1.1818    0.3986 H   0  0  0  0  0  0  0  0  0  0  0  0
    2.2340   -1.4296   -0.8954 H   0  0  0  0  0  0  0  0  0  0  0  0
    2.7010    0.3354   -1.2797 H   0  0  0  0  0  0  0  0  0  0  0  0
    3.1163   -1.0212    1.3950 H   0  0  0  0  0  0  0  0  0  0  0  0
    3.4174    0.7662    1.0621 H   0  0  0  0  0  0  0  0  0  0  0  0
  1  2  1  0
  2  3  1  0
  2  4  1  0
  4  5  2  0
  4  6  2  0
  4  7  1  0
  7  8  1  0
  8  9  1  0
  9 10  1  0
 10  8  1  0
  1 11  1  0
  1 12  1  0
  1 13  1  0
  3 14  1  0
  3 15  1  0
  7 16  1  0
  8 17  1  0
  9 18  1  0
  9 19  1  0
 10 20  1  0
 10 21  1  0
M  END
$$$$

     RDKit          3D

 21 21  0  0  0  0  0  0  0  0999 V2000
    2.4959   -0.9043    1.1897 C   0  0  0  0  0  0  0  0  0  0  0  0
    1.8097    0.1089    0.4481 N   0  0  0  0  0  0  0  0  0  0  0  0
    2.7167    1.0316   -0.0955 N   0  0  0  0  0  0  0  0  0  0  0  0
    0.7536   -0.5402   -0.7156 S   0  0  0  0  0  6  0  0  0  0  0  0
    0.7280    0.3735   -1.9165 O   0  0  0  0  0  0  0  0  0  0  0  0
    1.3051   -1.8633   -1.1718 O   0  0  0  0  0  0  0  0  0  0  0  0
   -0.8370   -0.8118   -0.1186 N   0  0  0  0  0  0  0  0  0  0  0  0
   -1.6776    0.3546   -0.3112 C   0  0  0  0  0  0  0  0  0  0  0  0
   -2.8278    0.5479    0.6325 C   0  0  0  0  0  0  0  0  0  0  0  0
   -3.1085    0.1359   -0.7782 C   0  0  0  0  0  0  0  0  0  0  0  0
    2.1149   -1.9298    0.9292 H   0  0  0  0  0  0  0  0  0  0  0  0
    3.5908   -0.9298    1.0227 H   0  0  0  0  0  0  0  0  0  0  0  0
    2.3249   -0.7186    2.2771 H   0  0  0  0  0  0  0  0  0  0  0  0
    2.2364    1.8285   -0.5492 H   0  0  0  0  0  0  0  0  0  0  0  0
    3.3339    0.5780   -0.8244 H   0  0  0  0  0  0  0  0  0  0  0  0
   -0.8274   -0.9861    0.9316 H   0  0  0  0  0  0  0  0  0  0  0  0
   -1.1890    1.2018   -0.7907 H   0  0  0  0  0  0  0  0  0  0  0  0
   -3.0145   -0.2537    1.3786 H   0  0  0  0  0  0  0  0  0  0  0  0
   -3.0244    1.5814    0.9242 H   0  0  0  0  0  0  0  0  0  0  0  0
   -3.5828    0.9223   -1.4086 H   0  0  0  0  0  0  0  0  0  0  0  0
   -3.3209   -0.8973   -1.0535 H   0  0  0  0  0  0  0  0  0  0  0  0
  1  2  1  0
  2  3  1  0
  2  4  1  0
  4  5  2  0
  4  6  2  0
  4  7  1  0
  7  8  1  0
  8  9  1  0
  9 10  1  0
 10  8  1  0
  1 11  1  0
  1 12  1  0
  1 13  1  0
  3 14  1  0
  3 15  1  0
  7 16  1  0
  8 17  1  0
  9 18  1  0
  9 19  1  0
 10 20  1  0
 10 21  1  0
M  END
$$$$

     RDKit          3D

 21 21  0  0  0  0  0  0  0  0999 V2000
   -2.1719    0.8624   -0.7959 C   0  0  0  0  0  0  0  0  0  0  0  0
   -2.1022   -0.2817    0.0648 N   0  0  0  0  0  0  0  0  0  0  0  0
   -2.0215    0.0354    1.4107 N   0  0  0  0  0  0  0  0  0  0  0  0
   -0.8721   -1.4012   -0.4143 S   0  0  0  0  0  6  0  0  0  0  0  0
   -1.2981   -2.7911   -0.1026 O   0  0  0  0  0  0  0  0  0  0  0  0
   -0.7296   -1.2751   -1.9115 O   0  0  0  0  0  0  0  0  0  0  0  0
    0.5618   -0.9444    0.3967 N   0  0  0  0  0  0  0  0  0  0  0  0
    1.3662   -0.0034   -0.3411 C   0  0  0  0  0  0  0  0  0  0  0  0
    2.8185    0.1096   -0.0970 C   0  0  0  0  0  0  0  0  0  0  0  0
    1.8995    1.1342    0.5131 C   0  0  0  0  0  0  0  0  0  0  0  0
   -1.4012    1.6094   -0.4581 H   0  0  0  0  0  0  0  0  0  0  0  0
   -3.1724    1.3247   -0.8168 H   0  0  0  0  0  0  0  0  0  0  0  0
   -1.8673    0.5890   -1.8319 H   0  0  0  0  0  0  0  0  0  0  0  0
   -2.3514   -0.7604    2.0080 H   0  0  0  0  0  0  0  0  0  0  0  0
   -1.0368    0.2272    1.6931 H   0  0  0  0  0  0  0  0  0  0  0  0
    1.1060   -1.7483    0.7674 H   0  0  0  0  0  0  0  0  0  0  0  0
    0.9347    0.2847   -1.3262 H   0  0  0  0  0  0  0  0  0  0  0  0
    3.4246    0.4373   -0.9752 H   0  0  0  0  0  0  0  0  0  0  0  0
    3.2571   -0.6712    0.5762 H   0  0  0  0  0  0  0  0  0  0  0  0
    1.7531    1.1121    1.6004 H   0  0  0  0  0  0  0  0  0  0  0  0
    1.9030    2.1508    0.0402 H   0  0  0  0  0  0  0  0  0  0  0  0
  1  2  1  0
  2  3  1  0
  2  4  1  0
  4  5  2  0
  4  6  2  0
  4  7  1  0
  7  8  1  0
  8  9  1  0
  9 10  1  0
 10  8  1  0
  1 11  1  0
  1 12  1  0
  1 13  1  0
  3 14  1  0
  3 15  1  0
  7 16  1  0
  8 17  1  0
  9 18  1  0
  9 19  1  0
 10 20  1  0
 10 21  1  0
M  END
$$$$

     RDKit          3D

 21 21  0  0  0  0  0  0  0  0999 V2000
   -3.0262   -0.1985   -0.1862 C   0  0  0  0  0  0  0  0  0  0  0  0
   -1.9231    0.5714   -0.7323 N   0  0  0  0  0  0  0  0  0  0  0  0
   -1.3322   -0.1594   -1.7253 N   0  0  0  0  0  0  0  0  0  0  0  0
   -0.8506    1.0098    0.5466 S   0  0  0  0  0  6  0  0  0  0  0  0
   -1.6164    1.2938    1.8169 O   0  0  0  0  0  0  0  0  0  0  0  0
   -0.2172    2.3344    0.1435 O   0  0  0  0  0  0  0  0  0  0  0  0
    0.3631   -0.1718    0.7834 N   0  0  0  0  0  0  0  0  0  0  0  0
    1.4963    0.1200   -0.0236 C   0  0  0  0  0  0  0  0  0  0  0  0
    2.5037   -0.8948   -0.3965 C   0  0  0  0  0  0  0  0  0  0  0  0
    2.8328    0.0071    0.7599 C   0  0  0  0  0  0  0  0  0  0  0  0
   -2.6879   -1.1003    0.3564 H   0  0  0  0  0  0  0  0  0  0  0  0
   -3.6603    0.4742    0.3924 H   0  0  0  0  0  0  0  0  0  0  0  0
   -3.6206   -0.5609   -1.0537 H   0  0  0  0  0  0  0  0  0  0  0  0
   -1.6475   -1.1217   -1.8485 H   0  0  0  0  0  0  0  0  0  0  0  0
   -0.3559    0.0444   -1.9376 H   0  0  0  0  0  0  0  0  0  0  0  0
    0.5630   -0.3900    1.7643 H   0  0  0  0  0  0  0  0  0  0  0  0
    1.4189    1.0260   -0.6510 H   0  0  0  0  0  0  0  0  0  0  0  0
    3.1092   -0.6748   -1.3101 H   0  0  0  0  0  0  0  0  0  0  0  0
    2.3016   -1.9647   -0.2237 H   0  0  0  0  0  0  0  0  0  0  0  0
    3.5332    0.8405    0.6356 H   0  0  0  0  0  0  0  0  0  0  0  0
    2.8163   -0.4850    1.7354 H   0  0  0  0  0  0  0  0  0  0  0  0
  1  2  1  0
  2  3  1  0
  2  4  1  0
  4  5  2  0
  4  6  2  0
  4  7  1  0
  7  8  1  0
  8  9  1  0
  9 10  1  0
 10  8  1  0
  1 11  1  0
  1 12  1  0
  1 13  1  0
  3 14  1  0
  3 15  1  0
  7 16  1  0
  8 17  1  0
  9 18  1  0
  9 19  1  0
 10 20  1  0
 10 21  1  0
M  END
$$$$

     RDKit          3D

 21 21  0  0  0  0  0  0  0  0999 V2000
    2.4779    1.1883   -0.5366 C   0  0  0  0  0  0  0  0  0  0  0  0
    1.6788   -0.0063   -0.6842 N   0  0  0  0  0  0  0  0  0  0  0  0
    2.3979   -1.0482   -1.2321 N   0  0  0  0  0  0  0  0  0  0  0  0
    0.8777   -0.4302    0.7855 S   0  0  0  0  0  6  0  0  0  0  0  0
    0.6799   -1.9223    0.7721 O   0  0  0  0  0  0  0  0  0  0  0  0
    1.7854   -0.1039    1.9128 O   0  0  0  0  0  0  0  0  0  0  0  0
   -0.6318    0.3219    0.8354 N   0  0  0  0  0  0  0  0  0  0  0  0
   -1.7127   -0.4181    0.2751 C   0  0  0  0  0  0  0  0  0  0  0  0
   -2.5709    0.3878   -0.7069 C   0  0  0  0  0  0  0  0  0  0  0  0
   -3.1227   -0.1543    0.5548 C   0  0  0  0  0  0  0  0  0  0  0  0
    2.0467    1.8956    0.1983 H   0  0  0  0  0  0  0  0  0  0  0  0
    3.4994    0.9411   -0.1586 H   0  0  0  0  0  0  0  0  0  0  0  0
    2.6402    1.6710   -1.5278 H   0  0  0  0  0  0  0  0  0  0  0  0
    1.8527   -1.4885   -2.0167 H   0  0  0  0  0  0  0  0  0  0  0  0
    2.7085   -1.7363   -0.5165 H   0  0  0  0  0  0  0  0  0  0  0  0
   -0.6457    1.3372    0.6731 H   0  0  0  0  0  0  0  0  0  0  0  0
   -1.4289   -1.4118   -0.1314 H   0  0  0  0  0  0  0  0  0  0  0  0
   -2.4317    1.4864   -0.7294 H   0  0  0  0  0  0  0  0  0  0  0  0
   -2.8048   -0.0440   -1.6861 H   0  0  0  0  0  0  0  0  0  0  0  0
   -3.4620    0.5479    1.3406 H   0  0  0  0  0  0  0  0  0  0  0  0
   -3.8339   -1.0133    0.4191 H   0  0  0  0  0  0  0  0  0  0  0  0
  1  2  1  0
  2  3  1  0
  2  4  1  0
  4  5  2  0
  4  6  2  0
  4  7  1  0
  7  8  1  0
  8  9  1  0
  9 10  1  0
 10  8  1  0
  1 11  1  0
  1 12  1  0
  1 13  1  0
  3 14  1  0
  3 15  1  0
  7 16  1  0
  8 17  1  0
  9 18  1  0
  9 19  1  0
 10 20  1  0
 10 21  1  0
M  END
$$$$

     RDKit          3D

 21 21  0  0  0  0  0  0  0  0999 V2000
   -2.9538    0.1476    0.2831 C   0  0  0  0  0  0  0  0  0  0  0  0
   -1.8527   -0.7840    0.2738 N   0  0  0  0  0  0  0  0  0  0  0  0
   -1.1470   -0.8266    1.4647 N   0  0  0  0  0  0  0  0  0  0  0  0
   -0.8081   -0.5583   -1.0839 S   0  0  0  0  0  6  0  0  0  0  0  0
   -0.1984   -1.8786   -1.4348 O   0  0  0  0  0  0  0  0  0  0  0  0
   -1.6644   -0.1146   -2.2318 O   0  0  0  0  0  0  0  0  0  0  0  0
    0.4060    0.5446   -0.6723 N   0  0  0  0  0  0  0  0  0  0  0  0
    1.5860   -0.0136   -0.1154 C   0  0  0  0  0  0  0  0  0  0  0  0
    2.9025    0.5237   -0.5574 C   0  0  0  0  0  0  0  0  0  0  0  0
    2.4424    0.6998    0.8532 C   0  0  0  0  0  0  0  0  0  0  0  0
   -3.8597   -0.3840    0.6385 H   0  0  0  0  0  0  0  0  0  0  0  0
   -2.8055    1.0164    0.9280 H   0  0  0  0  0  0  0  0  0  0  0  0
   -3.1369    0.5160   -0.7520 H   0  0  0  0  0  0  0  0  0  0  0  0
   -1.7117   -0.5837    2.2937 H   0  0  0  0  0  0  0  0  0  0  0  0
   -0.6643   -1.7576    1.5435 H   0  0  0  0  0  0  0  0  0  0  0  0
    0.1010    1.4443   -0.3038 H   0  0  0  0  0  0  0  0  0  0  0  0
    1.5639   -1.1323   -0.0173 H   0  0  0  0  0  0  0  0  0  0  0  0
    2.9728    1.4508   -1.1514 H   0  0  0  0  0  0  0  0  0  0  0  0
    3.7570   -0.1706   -0.7331 H   0  0  0  0  0  0  0  0  0  0  0  0
    2.0522    1.6856    1.1930 H   0  0  0  0  0  0  0  0  0  0  0  0
    3.0186    0.1753    1.6161 H   0  0  0  0  0  0  0  0  0  0  0  0
  1  2  1  0
  2  3  1  0
  2  4  1  0
  4  5  2  0
  4  6  2  0
  4  7  1  0
  7  8  1  0
  8  9  1  0
  9 10  1  0
 10  8  1  0
  1 11  1  0
  1 12  1  0
  1 13  1  0
  3 14  1  0
  3 15  1  0
  7 16  1  0
  8 17  1  0
  9 18  1  0
  9 19  1  0
 10 20  1  0
 10 21  1  0
M  END
$$$$
