
     RDKit          3D

 27 28  0  0  0  0  0  0  0  0999 V2000
    4.4929    1.1815    0.1439 N   0  0  0  0  0  0  0  0  0  0  0  0
    3.3378    0.8364   -0.5946 C   0  0  0  0  0  0  0  0  0  0  0  0
    3.3835    0.9069   -1.8575 O   0  0  0  0  0  0  0  0  0  0  0  0
    2.1296    0.4137    0.0390 N   0  0  0  0  0  0  0  0  0  0  0  0
    0.9653    0.0655   -0.6942 C   0  0  0  0  0  0  0  0  0  0  0  0
    1.0228    0.1396   -1.9509 O   0  0  0  0  0  0  0  0  0  0  0  0
   -0.2663   -0.3668   -0.0172 C   0  0  2  0  0  0  0  0  0  0  0  0
   -0.6793   -1.7429   -0.5571 C   0  0  0  0  0  0  0  0  0  0  0  0
   -1.4156   -1.4506   -1.7603 N   0  0  0  0  0  0  0  0  0  0  0  0
   -2.1916   -0.2438   -1.4756 C   0  0  0  0  0  0  0  0  0  0  0  0
   -1.4705    0.4575   -0.3685 C   0  0  1  0  0  0  0  0  0  0  0  0
   -2.2717    0.3436    0.9375 C   0  0  0  0  0  0  0  0  0  0  0  0
   -1.1008    0.3736    1.9236 C   0  0  0  0  0  0  0  0  0  0  0  0
   -0.1191   -0.3786    1.3406 O   0  0  0  0  0  0  0  0  0  0  0  0
    4.7903    2.1552    0.2274 H   0  0  0  0  0  0  0  0  0  0  0  0
    5.0371    0.4297    0.6019 H   0  0  0  0  0  0  0  0  0  0  0  0
    2.0698    0.3481    1.0852 H   0  0  0  0  0  0  0  0  0  0  0  0
   -1.3563   -2.2321    0.1765 H   0  0  0  0  0  0  0  0  0  0  0  0
    0.1897   -2.3628   -0.8086 H   0  0  0  0  0  0  0  0  0  0  0  0
   -2.0477   -2.2482   -1.9899 H   0  0  0  0  0  0  0  0  0  0  0  0
   -3.2251   -0.4901   -1.1899 H   0  0  0  0  0  0  0  0  0  0  0  0
   -2.1847    0.3771   -2.3810 H   0  0  0  0  0  0  0  0  0  0  0  0
   -1.2392    1.5073   -0.5799 H   0  0  0  0  0  0  0  0  0  0  0  0
   -2.9394    1.1942    1.0504 H   0  0  0  0  0  0  0  0  0  0  0  0
   -2.7565   -0.6420    0.9140 H   0  0  0  0  0  0  0  0  0  0  0  0
   -1.3783   -0.0083    2.9065 H   0  0  0  0  0  0  0  0  0  0  0  0
   -0.7766    1.4364    1.9784 H   0  0  0  0  0  0  0  0  0  0  0  0
  1  2  1  0
  2  3  2  0
  2  4  1  0
  4  5  1  0
  5  6  2  0
  7  5  1  6
  7  8  1  0
  8  9  1  0
  9 10  1  0
 10 11  1  0
 11 12  1  0
 12 13  1  0
 13 14  1  0
 11  7  1  0
 14  7  1  0
  1 15  1  0
  1 16  1  0
  4 17  1  0
  8 18  1  0
  8 19  1  0
  9 20  1  0
 10 21  1  0
 10 22  1  0
 11 23  1  6
 12 24  1  0
 12 25  1  0
 13 26  1  0
 13 27  1  0
M  END
$$$$

     RDKit          3D

 27 28  0  0  0  0  0  0  0  0999 V2000
    4.2284    0.1058   -0.9607 N   0  0  0  0  0  0  0  0  0  0  0  0
    3.1827    0.6452   -0.1683 C   0  0  0  0  0  0  0  0  0  0  0  0
    3.3372    1.7142    0.5062 O   0  0  0  0  0  0  0  0  0  0  0  0
    1.9003    0.0391   -0.0701 N   0  0  0  0  0  0  0  0  0  0  0  0
    0.8551    0.5788    0.7222 C   0  0  0  0  0  0  0  0  0  0  0  0
    1.0756    1.6347    1.3611 O   0  0  0  0  0  0  0  0  0  0  0  0
   -0.4712   -0.0512    0.8216 C   0  0  2  0  0  0  0  0  0  0  0  0
   -0.3887   -1.5122    1.2037 C   0  0  0  0  0  0  0  0  0  0  0  0
   -0.9959   -2.2692    0.1471 N   0  0  0  0  0  0  0  0  0  0  0  0
   -1.9804   -1.3665   -0.4159 C   0  0  0  0  0  0  0  0  0  0  0  0
   -1.2049   -0.0740   -0.4951 C   0  0  1  0  0  0  0  0  0  0  0  0
   -2.1963    1.0570   -0.3990 C   0  0  0  0  0  0  0  0  0  0  0  0
   -1.7664    1.7181    0.9109 C   0  0  0  0  0  0  0  0  0  0  0  0
   -1.3282    0.6422    1.6440 O   0  0  0  0  0  0  0  0  0  0  0  0
    4.0792   -0.7693   -1.4770 H   0  0  0  0  0  0  0  0  0  0  0  0
    5.1400    0.5975   -1.0155 H   0  0  0  0  0  0  0  0  0  0  0  0
    1.7607   -0.8549   -0.6300 H   0  0  0  0  0  0  0  0  0  0  0  0
    0.6701   -1.8432    1.3409 H   0  0  0  0  0  0  0  0  0  0  0  0
   -0.9185   -1.7450    2.1377 H   0  0  0  0  0  0  0  0  0  0  0  0
   -0.3099   -2.4820   -0.6150 H   0  0  0  0  0  0  0  0  0  0  0  0
   -2.7589   -1.2209    0.3739 H   0  0  0  0  0  0  0  0  0  0  0  0
   -2.4003   -1.6974   -1.3634 H   0  0  0  0  0  0  0  0  0  0  0  0
   -0.5487   -0.0045   -1.3690 H   0  0  0  0  0  0  0  0  0  0  0  0
   -3.2357    0.6995   -0.2313 H   0  0  0  0  0  0  0  0  0  0  0  0
   -2.1202    1.7588   -1.2542 H   0  0  0  0  0  0  0  0  0  0  0  0
   -0.9989    2.4510    0.6512 H   0  0  0  0  0  0  0  0  0  0  0  0
   -2.6060    2.2485    1.3861 H   0  0  0  0  0  0  0  0  0  0  0  0
  1  2  1  0
  2  3  2  0
  2  4  1  0
  4  5  1  0
  5  6  2  0
  7  5  1  6
  7  8  1  0
  8  9  1  0
  9 10  1  0
 10 11  1  0
 11 12  1  0
 12 13  1  0
 13 14  1  0
 11  7  1  0
 14  7  1  0
  1 15  1  0
  1 16  1  0
  4 17  1  0
  8 18  1  0
  8 19  1  0
  9 20  1  0
 10 21  1  0
 10 22  1  0
 11 23  1  6
 12 24  1  0
 12 25  1  0
 13 26  1  0
 13 27  1  0
M  END
$$$$

     RDKit          3D

 27 28  0  0  0  0  0  0  0  0999 V2000
    4.4771    0.0099    0.1214 N   0  0  0  0  0  0  0  0  0  0  0  0
    3.2535    0.4575    0.6884 C   0  0  0  0  0  0  0  0  0  0  0  0
    3.2793    1.0310    1.7892 O   0  0  0  0  0  0  0  0  0  0  0  0
    1.9926    0.2763    0.0464 N   0  0  0  0  0  0  0  0  0  0  0  0
    0.7761    0.7280    0.6230 C   0  0  0  0  0  0  0  0  0  0  0  0
    0.8109    1.3022    1.7234 O   0  0  0  0  0  0  0  0  0  0  0  0
   -0.4725    0.5015   -0.0990 C   0  0  2  0  0  0  0  0  0  0  0  0
   -1.2891    1.7783   -0.2582 C   0  0  0  0  0  0  0  0  0  0  0  0
   -2.6129    1.3215   -0.5743 N   0  0  0  0  0  0  0  0  0  0  0  0
   -2.7354   -0.0395   -0.1115 C   0  0  0  0  0  0  0  0  0  0  0  0
   -1.4598   -0.3551    0.6426 C   0  0  1  0  0  0  0  0  0  0  0  0
   -0.9807   -1.7425    0.3094 C   0  0  0  0  0  0  0  0  0  0  0  0
   -0.4297   -1.5231   -1.0877 C   0  0  0  0  0  0  0  0  0  0  0  0
   -0.3186   -0.1629   -1.2908 O   0  0  0  0  0  0  0  0  0  0  0  0
    4.6112   -1.0072    0.0007 H   0  0  0  0  0  0  0  0  0  0  0  0
    5.2292    0.6711   -0.1704 H   0  0  0  0  0  0  0  0  0  0  0  0
    2.0383   -0.2150   -0.8808 H   0  0  0  0  0  0  0  0  0  0  0  0
   -1.3204    2.2539    0.7436 H   0  0  0  0  0  0  0  0  0  0  0  0
   -0.8541    2.4585   -1.0081 H   0  0  0  0  0  0  0  0  0  0  0  0
   -3.3577    1.8870   -0.0932 H   0  0  0  0  0  0  0  0  0  0  0  0
   -2.7246   -0.6894   -1.0203 H   0  0  0  0  0  0  0  0  0  0  0  0
   -3.6390   -0.2183    0.4920 H   0  0  0  0  0  0  0  0  0  0  0  0
   -1.5222   -0.1510    1.7133 H   0  0  0  0  0  0  0  0  0  0  0  0
   -1.8763   -2.4098    0.2934 H   0  0  0  0  0  0  0  0  0  0  0  0
   -0.2455   -2.1288    1.0136 H   0  0  0  0  0  0  0  0  0  0  0  0
    0.5245   -2.0449   -1.1445 H   0  0  0  0  0  0  0  0  0  0  0  0
   -1.1542   -1.9891   -1.8102 H   0  0  0  0  0  0  0  0  0  0  0  0
  1  2  1  0
  2  3  2  0
  2  4  1  0
  4  5  1  0
  5  6  2  0
  7  5  1  1
  7  8  1  0
  8  9  1  0
  9 10  1  0
 10 11  1  0
 11 12  1  0
 12 13  1  0
 13 14  1  0
 11  7  1  0
 14  7  1  0
  1 15  1  0
  1 16  1  0
  4 17  1  0
  8 18  1  0
  8 19  1  0
  9 20  1  0
 10 21  1  0
 10 22  1  0
 11 23  1  1
 12 24  1  0
 12 25  1  0
 13 26  1  0
 13 27  1  0
M  END
$$$$

     RDKit          3D

 27 28  0  0  0  0  0  0  0  0999 V2000
    4.4803   -0.0428   -0.2288 N   0  0  0  0  0  0  0  0  0  0  0  0
    3.2274   -0.3735   -0.8160 C   0  0  0  0  0  0  0  0  0  0  0  0
    3.1263   -0.8014   -1.9842 O   0  0  0  0  0  0  0  0  0  0  0  0
    2.0172   -0.2144   -0.0465 N   0  0  0  0  0  0  0  0  0  0  0  0
    0.7471   -0.5281   -0.5812 C   0  0  0  0  0  0  0  0  0  0  0  0
    0.7093   -0.9631   -1.7670 O   0  0  0  0  0  0  0  0  0  0  0  0
   -0.4758   -0.3484    0.2312 C   0  0  2  0  0  0  0  0  0  0  0  0
   -1.2094   -1.6660    0.4188 C   0  0  0  0  0  0  0  0  0  0  0  0
   -2.3311   -1.5934   -0.5317 N   0  0  0  0  0  0  0  0  0  0  0  0
   -2.7669   -0.2393   -0.3140 C   0  0  0  0  0  0  0  0  0  0  0  0
   -1.4948    0.5500   -0.3770 C   0  0  1  0  0  0  0  0  0  0  0  0
   -1.5212    1.7173    0.6222 C   0  0  0  0  0  0  0  0  0  0  0  0
   -0.0926    1.5597    1.1705 C   0  0  0  0  0  0  0  0  0  0  0  0
   -0.1065    0.1987    1.4555 O   0  0  0  0  0  0  0  0  0  0  0  0
    4.8591   -0.6259    0.5531 H   0  0  0  0  0  0  0  0  0  0  0  0
    5.0645    0.7619   -0.5305 H   0  0  0  0  0  0  0  0  0  0  0  0
    2.1318    0.1442    0.9245 H   0  0  0  0  0  0  0  0  0  0  0  0
   -1.5889   -1.7843    1.4388 H   0  0  0  0  0  0  0  0  0  0  0  0
   -0.5497   -2.4787    0.0988 H   0  0  0  0  0  0  0  0  0  0  0  0
   -3.0710   -2.2728   -0.2905 H   0  0  0  0  0  0  0  0  0  0  0  0
   -3.5309    0.0875   -1.0465 H   0  0  0  0  0  0  0  0  0  0  0  0
   -3.1383   -0.1795    0.7387 H   0  0  0  0  0  0  0  0  0  0  0  0
   -1.2479    0.9114   -1.3921 H   0  0  0  0  0  0  0  0  0  0  0  0
   -1.6613    2.6780    0.1345 H   0  0  0  0  0  0  0  0  0  0  0  0
   -2.1928    1.5043    1.4632 H   0  0  0  0  0  0  0  0  0  0  0  0
    0.5581    1.8092    0.3269 H   0  0  0  0  0  0  0  0  0  0  0  0
    0.0581    2.1893    2.0628 H   0  0  0  0  0  0  0  0  0  0  0  0
  1  2  1  0
  2  3  2  0
  2  4  1  0
  4  5  1  0
  5  6  2  0
  7  5  1  6
  7  8  1  0
  8  9  1  0
  9 10  1  0
 10 11  1  0
 11 12  1  0
 12 13  1  0
 13 14  1  0
 11  7  1  0
 14  7  1  0
  1 15  1  0
  1 16  1  0
  4 17  1  0
  8 18  1  0
  8 19  1  0
  9 20  1  0
 10 21  1  0
 10 22  1  0
 11 23  1  6
 12 24  1  0
 12 25  1  0
 13 26  1  0
 13 27  1  0
M  END
$$$$

     RDKit          3D

 27 28  0  0  0  0  0  0  0  0999 V2000
    4.1158   -0.6299   -1.1363 N   0  0  0  0  0  0  0  0  0  0  0  0
    3.2659    0.2266   -0.3934 C   0  0  0  0  0  0  0  0  0  0  0  0
    3.6780    1.2878    0.1111 O   0  0  0  0  0  0  0  0  0  0  0  0
    1.8847   -0.1359   -0.2136 N   0  0  0  0  0  0  0  0  0  0  0  0
    0.9917    0.6899    0.5235 C   0  0  0  0  0  0  0  0  0  0  0  0
    1.4430    1.7437    1.0124 O   0  0  0  0  0  0  0  0  0  0  0  0
   -0.4143    0.2442    0.6617 C   0  0  2  0  0  0  0  0  0  0  0  0
   -0.4864   -1.1347    1.2660 C   0  0  0  0  0  0  0  0  0  0  0  0
   -1.7898   -1.6532    0.8203 N   0  0  0  0  0  0  0  0  0  0  0  0
   -1.8067   -1.2748   -0.5920 C   0  0  0  0  0  0  0  0  0  0  0  0
   -1.1300    0.0838   -0.6327 C   0  0  1  0  0  0  0  0  0  0  0  0
   -2.2351    1.1190   -0.5168 C   0  0  0  0  0  0  0  0  0  0  0  0
   -1.5979    2.0929    0.4624 C   0  0  0  0  0  0  0  0  0  0  0  0
   -1.0843    1.1973    1.4098 O   0  0  0  0  0  0  0  0  0  0  0  0
    5.1404   -0.4445   -1.1650 H   0  0  0  0  0  0  0  0  0  0  0  0
    3.7509   -1.4354   -1.6524 H   0  0  0  0  0  0  0  0  0  0  0  0
    1.5599   -1.0214   -0.6400 H   0  0  0  0  0  0  0  0  0  0  0  0
    0.2653   -1.7733    0.7455 H   0  0  0  0  0  0  0  0  0  0  0  0
   -0.3907   -1.1248    2.3486 H   0  0  0  0  0  0  0  0  0  0  0  0
   -1.7612   -2.7004    0.8387 H   0  0  0  0  0  0  0  0  0  0  0  0
   -1.3019   -2.0151   -1.2200 H   0  0  0  0  0  0  0  0  0  0  0  0
   -2.8684   -1.2261   -0.8995 H   0  0  0  0  0  0  0  0  0  0  0  0
   -0.5123    0.2205   -1.5298 H   0  0  0  0  0  0  0  0  0  0  0  0
   -2.4701    1.5873   -1.4868 H   0  0  0  0  0  0  0  0  0  0  0  0
   -3.1072    0.6844   -0.0101 H   0  0  0  0  0  0  0  0  0  0  0  0
   -0.8005    2.6199   -0.0918 H   0  0  0  0  0  0  0  0  0  0  0  0
   -2.3384    2.7723    0.9216 H   0  0  0  0  0  0  0  0  0  0  0  0
  1  2  1  0
  2  3  2  0
  2  4  1  0
  4  5  1  0
  5  6  2  0
  7  5  1  6
  7  8  1  0
  8  9  1  0
  9 10  1  0
 10 11  1  0
 11 12  1  0
 12 13  1  0
 13 14  1  0
 11  7  1  0
 14  7  1  0
  1 15  1  0
  1 16  1  0
  4 17  1  0
  8 18  1  0
  8 19  1  0
  9 20  1  0
 10 21  1  0
 10 22  1  0
 11 23  1  6
 12 24  1  0
 12 25  1  0
 13 26  1  0
 13 27  1  0
M  END
$$$$

     RDKit          3D

 27 28  0  0  0  0  0  0  0  0999 V2000
    4.4123    0.1444    0.5011 N   0  0  0  0  0  0  0  0  0  0  0  0
    3.3192   -0.2642   -0.3104 C   0  0  0  0  0  0  0  0  0  0  0  0
    3.5329   -1.0208   -1.2923 O   0  0  0  0  0  0  0  0  0  0  0  0
    1.9988    0.1498   -0.0534 N   0  0  0  0  0  0  0  0  0  0  0  0
    0.8761   -0.2425   -0.8496 C   0  0  0  0  0  0  0  0  0  0  0  0
    1.0714   -0.9986   -1.8352 O   0  0  0  0  0  0  0  0  0  0  0  0
   -0.4636    0.2053   -0.5510 C   0  0  2  0  0  0  0  0  0  0  0  0
   -0.6704    1.6770   -0.4522 C   0  0  0  0  0  0  0  0  0  0  0  0
   -1.4455    1.9547    0.7414 N   0  0  0  0  0  0  0  0  0  0  0  0
   -2.0789    0.6996    1.0497 C   0  0  0  0  0  0  0  0  0  0  0  0
   -0.9573   -0.2789    0.8191 C   0  0  1  0  0  0  0  0  0  0  0  0
   -1.4791   -1.6384    0.4553 C   0  0  0  0  0  0  0  0  0  0  0  0
   -1.9322   -1.4360   -0.9513 C   0  0  0  0  0  0  0  0  0  0  0  0
   -1.3525   -0.3082   -1.4585 O   0  0  0  0  0  0  0  0  0  0  0  0
    4.4037    1.0030    1.0830 H   0  0  0  0  0  0  0  0  0  0  0  0
    5.2824   -0.4288    0.5338 H   0  0  0  0  0  0  0  0  0  0  0  0
    1.7730    0.7765    0.7486 H   0  0  0  0  0  0  0  0  0  0  0  0
   -1.2609    2.0811   -1.3087 H   0  0  0  0  0  0  0  0  0  0  0  0
    0.2470    2.2755   -0.3940 H   0  0  0  0  0  0  0  0  0  0  0  0
   -2.1170    2.7308    0.6240 H   0  0  0  0  0  0  0  0  0  0  0  0
   -2.5129    0.6415    2.0513 H   0  0  0  0  0  0  0  0  0  0  0  0
   -2.8335    0.5112    0.2384 H   0  0  0  0  0  0  0  0  0  0  0  0
   -0.1787   -0.2672    1.5730 H   0  0  0  0  0  0  0  0  0  0  0  0
   -2.2960   -1.9207    1.1490 H   0  0  0  0  0  0  0  0  0  0  0  0
   -0.6305   -2.3543    0.4832 H   0  0  0  0  0  0  0  0  0  0  0  0
   -1.6560   -2.3098   -1.5829 H   0  0  0  0  0  0  0  0  0  0  0  0
   -3.0518   -1.3820   -0.9634 H   0  0  0  0  0  0  0  0  0  0  0  0
  1  2  1  0
  2  3  2  0
  2  4  1  0
  4  5  1  0
  5  6  2  0
  7  5  1  6
  7  8  1  0
  8  9  1  0
  9 10  1  0
 10 11  1  0
 11 12  1  0
 12 13  1  0
 13 14  1  0
 11  7  1  0
 14  7  1  0
  1 15  1  0
  1 16  1  0
  4 17  1  0
  8 18  1  0
  8 19  1  0
  9 20  1  0
 10 21  1  0
 10 22  1  0
 11 23  1  1
 12 24  1  0
 12 25  1  0
 13 26  1  0
 13 27  1  0
M  END
$$$$

     RDKit          3D

 27 28  0  0  0  0  0  0  0  0999 V2000
    4.0726    0.2301   -1.2527 N   0  0  0  0  0  0  0  0  0  0  0  0
    3.1896   -0.4750   -0.3926 C   0  0  0  0  0  0  0  0  0  0  0  0
    3.6173   -1.3066    0.4526 O   0  0  0  0  0  0  0  0  0  0  0  0
    1.7805   -0.2603   -0.4612 N   0  0  0  0  0  0  0  0  0  0  0  0
    0.8537   -0.9349    0.3711 C   0  0  0  0  0  0  0  0  0  0  0  0
    1.2652   -1.7678    1.2196 O   0  0  0  0  0  0  0  0  0  0  0  0
   -0.6023   -0.6562    0.2393 C   0  0  2  0  0  0  0  0  0  0  0  0
   -1.1289   -0.9324   -1.1295 C   0  0  0  0  0  0  0  0  0  0  0  0
   -1.3226    0.3126   -1.8085 N   0  0  0  0  0  0  0  0  0  0  0  0
   -1.3607    1.3609   -0.8339 C   0  0  0  0  0  0  0  0  0  0  0  0
   -0.9221    0.7773    0.4778 C   0  0  1  0  0  0  0  0  0  0  0  0
   -2.0247    0.7215    1.4978 C   0  0  0  0  0  0  0  0  0  0  0  0
   -1.7062   -0.5986    2.1840 C   0  0  0  0  0  0  0  0  0  0  0  0
   -1.3008   -1.4255    1.1470 O   0  0  0  0  0  0  0  0  0  0  0  0
    4.2487    1.2424   -1.0957 H   0  0  0  0  0  0  0  0  0  0  0  0
    4.5316   -0.2656   -2.0245 H   0  0  0  0  0  0  0  0  0  0  0  0
    1.3876    0.4206   -1.1483 H   0  0  0  0  0  0  0  0  0  0  0  0
   -0.4873   -1.6452   -1.6913 H   0  0  0  0  0  0  0  0  0  0  0  0
   -2.1370   -1.4351   -1.0702 H   0  0  0  0  0  0  0  0  0  0  0  0
   -0.6077    0.4168   -2.5399 H   0  0  0  0  0  0  0  0  0  0  0  0
   -0.5827    2.1146   -1.1331 H   0  0  0  0  0  0  0  0  0  0  0  0
   -2.3432    1.8574   -0.7576 H   0  0  0  0  0  0  0  0  0  0  0  0
   -0.0868    1.3517    0.9313 H   0  0  0  0  0  0  0  0  0  0  0  0
   -1.9200    1.5634    2.2294 H   0  0  0  0  0  0  0  0  0  0  0  0
   -3.0142    0.7136    1.0183 H   0  0  0  0  0  0  0  0  0  0  0  0
   -0.8251   -0.4051    2.8468 H   0  0  0  0  0  0  0  0  0  0  0  0
   -2.5743   -0.9744    2.7240 H   0  0  0  0  0  0  0  0  0  0  0  0
  1  2  1  0
  2  3  2  0
  2  4  1  0
  4  5  1  0
  5  6  2  0
  7  5  1  6
  7  8  1  0
  8  9  1  0
  9 10  1  0
 10 11  1  0
 11 12  1  0
 12 13  1  0
 13 14  1  0
 11  7  1  0
 14  7  1  0
  1 15  1  0
  1 16  1  0
  4 17  1  0
  8 18  1  0
  8 19  1  0
  9 20  1  0
 10 21  1  0
 10 22  1  0
 11 23  1  1
 12 24  1  0
 12 25  1  0
 13 26  1  0
 13 27  1  0
M  END
$$$$

     RDKit          3D

 27 28  0  0  0  0  0  0  0  0999 V2000
    4.3448   -0.3721    0.4044 N   0  0  0  0  0  0  0  0  0  0  0  0
    3.1430   -0.9044   -0.1446 C   0  0  0  0  0  0  0  0  0  0  0  0
    3.1138   -2.0476   -0.6949 O   0  0  0  0  0  0  0  0  0  0  0  0
    1.9542   -0.1273   -0.0685 N   0  0  0  0  0  0  0  0  0  0  0  0
    0.7568   -0.6283   -0.6016 C   0  0  0  0  0  0  0  0  0  0  0  0
    0.7877   -1.7856   -1.1437 O   0  0  0  0  0  0  0  0  0  0  0  0
   -0.5080    0.0912   -0.5715 C   0  0  2  0  0  0  0  0  0  0  0  0
   -0.4245    1.5152   -1.0597 C   0  0  0  0  0  0  0  0  0  0  0  0
   -1.5488    2.2177   -0.4692 N   0  0  0  0  0  0  0  0  0  0  0  0
   -2.0917    1.3863    0.5585 C   0  0  0  0  0  0  0  0  0  0  0  0
   -1.0516    0.2960    0.8384 C   0  0  1  0  0  0  0  0  0  0  0  0
   -1.6765   -1.0247    1.1306 C   0  0  0  0  0  0  0  0  0  0  0  0
   -1.9145   -1.6054   -0.2443 C   0  0  0  0  0  0  0  0  0  0  0  0
   -1.5274   -0.6246   -1.1628 O   0  0  0  0  0  0  0  0  0  0  0  0
    4.5719    0.6563    0.2899 H   0  0  0  0  0  0  0  0  0  0  0  0
    4.9688   -1.0350    0.9106 H   0  0  0  0  0  0  0  0  0  0  0  0
    1.9459    0.8115    0.3755 H   0  0  0  0  0  0  0  0  0  0  0  0
    0.4900    1.9672   -0.6279 H   0  0  0  0  0  0  0  0  0  0  0  0
   -0.4809    1.6112   -2.1468 H   0  0  0  0  0  0  0  0  0  0  0  0
   -1.3357    3.1816   -0.1859 H   0  0  0  0  0  0  0  0  0  0  0  0
   -2.3960    1.9028    1.4682 H   0  0  0  0  0  0  0  0  0  0  0  0
   -2.9696    0.8407    0.1058 H   0  0  0  0  0  0  0  0  0  0  0  0
   -0.2947    0.6216    1.5478 H   0  0  0  0  0  0  0  0  0  0  0  0
   -2.6081   -0.9254    1.7236 H   0  0  0  0  0  0  0  0  0  0  0  0
   -0.9548   -1.6222    1.7241 H   0  0  0  0  0  0  0  0  0  0  0  0
   -2.9727   -1.8646   -0.4117 H   0  0  0  0  0  0  0  0  0  0  0  0
   -1.3218   -2.5322   -0.3628 H   0  0  0  0  0  0  0  0  0  0  0  0
  1  2  1  0
  2  3  2  0
  2  4  1  0
  4  5  1  0
  5  6  2  0
  7  5  1  1
  7  8  1  0
  8  9  1  0
  9 10  1  0
 10 11  1  0
 11 12  1  0
 12 13  1  0
 13 14  1  0
 11  7  1  0
 14  7  1  0
  1 15  1  0
  1 16  1  0
  4 17  1  0
  8 18  1  0
  8 19  1  0
  9 20  1  0
 10 21  1  0
 10 22  1  0
 11 23  1  1
 12 24  1  0
 12 25  1  0
 13 26  1  0
 13 27  1  0
M  END
$$$$
