
     RDKit          3D

 31 30  0  0  0  0  0  0  0  0999 V2000
   -1.6471    1.9634    2.2810 C   0  0  0  0  0  0  0  0  0  0  0  0
   -1.2244    0.7916    1.6552 O   0  0  0  0  0  0  0  0  0  0  0  0
   -1.3504    0.9535    0.2808 C   0  0  0  0  0  0  0  0  0  0  0  0
   -0.9090   -0.2824   -0.4753 C   0  0  2  0  0  0  0  0  0  0  0  0
   -0.9754    0.0739   -1.9452 C   0  0  0  0  0  0  0  0  0  0  0  0
   -1.7590   -1.4529   -0.1181 C   0  0  0  0  0  0  0  0  0  0  0  0
   -1.4597   -2.6117   -0.7730 O   0  0  0  0  0  0  0  0  0  0  0  0
    0.4778   -0.5687   -0.1795 N   0  0  0  0  0  0  0  0  0  0  0  0
    0.8383   -1.8343    0.4399 C   0  0  0  0  0  0  0  0  0  0  0  0
    1.5278    0.3314   -0.4653 C   0  0  0  0  0  0  0  0  0  0  0  0
    1.2632    1.4314   -1.0028 O   0  0  0  0  0  0  0  0  0  0  0  0
    2.9367    0.0141   -0.1483 C   0  0  0  0  0  0  0  0  0  0  0  0
    3.8107    1.0969   -0.5395 N   0  0  0  0  0  0  0  0  0  0  0  0
   -1.5745    1.9062    3.3760 H   0  0  0  0  0  0  0  0  0  0  0  0
   -2.7352    2.0913    2.0123 H   0  0  0  0  0  0  0  0  0  0  0  0
   -1.1285    2.8525    1.8926 H   0  0  0  0  0  0  0  0  0  0  0  0
   -2.4481    1.1526    0.1023 H   0  0  0  0  0  0  0  0  0  0  0  0
   -0.8347    1.8424   -0.1013 H   0  0  0  0  0  0  0  0  0  0  0  0
   -0.8026    1.1643   -2.0688 H   0  0  0  0  0  0  0  0  0  0  0  0
   -1.9631   -0.1369   -2.3949 H   0  0  0  0  0  0  0  0  0  0  0  0
   -0.1376   -0.4149   -2.5208 H   0  0  0  0  0  0  0  0  0  0  0  0
   -2.8492   -1.1768   -0.2723 H   0  0  0  0  0  0  0  0  0  0  0  0
   -1.6933   -1.6301    0.9743 H   0  0  0  0  0  0  0  0  0  0  0  0
   -2.1926   -3.2342   -0.9026 H   0  0  0  0  0  0  0  0  0  0  0  0
    0.2413   -2.0795    1.3282 H   0  0  0  0  0  0  0  0  0  0  0  0
    1.8984   -1.8109    0.8090 H   0  0  0  0  0  0  0  0  0  0  0  0
    0.8067   -2.6883   -0.2610 H   0  0  0  0  0  0  0  0  0  0  0  0
    3.0917   -0.1600    0.9459 H   0  0  0  0  0  0  0  0  0  0  0  0
    3.2966   -0.8947   -0.6735 H   0  0  0  0  0  0  0  0  0  0  0  0
    3.5835    1.4971   -1.4629 H   0  0  0  0  0  0  0  0  0  0  0  0
    3.9116    1.8139    0.2077 H   0  0  0  0  0  0  0  0  0  0  0  0
  1  2  1  0
  2  3  1  0
  3  4  1  0
  4  5  1  0
  4  6  1  0
  6  7  1  0
  4  8  1  1
  8  9  1  0
  8 10  1  0
 10 11  2  0
 10 12  1  0
 12 13  1  0
  1 14  1  0
  1 15  1  0
  1 16  1  0
  3 17  1  0
  3 18  1  0
  5 19  1  0
  5 20  1  0
  5 21  1  0
  6 22  1  0
  6 23  1  0
  7 24  1  0
  9 25  1  0
  9 26  1  0
  9 27  1  0
 12 28  1  0
 12 29  1  0
 13 30  1  0
 13 31  1  0
M  END
$$$$

     RDKit          3D

 31 30  0  0  0  0  0  0  0  0999 V2000
   -2.9546    2.0011    0.2318 C   0  0  0  0  0  0  0  0  0  0  0  0
   -1.8535    1.2364    0.6089 O   0  0  0  0  0  0  0  0  0  0  0  0
   -1.7429    0.1977   -0.2548 C   0  0  0  0  0  0  0  0  0  0  0  0
   -0.6198   -0.7690   -0.0452 C   0  0  2  0  0  0  0  0  0  0  0  0
   -0.7997   -1.7897   -1.1824 C   0  0  0  0  0  0  0  0  0  0  0  0
   -0.8128   -1.5864    1.2196 C   0  0  0  0  0  0  0  0  0  0  0  0
   -0.6530   -0.8974    2.3866 O   0  0  0  0  0  0  0  0  0  0  0  0
    0.7030   -0.2089   -0.1215 N   0  0  0  0  0  0  0  0  0  0  0  0
    1.6238   -0.7257   -1.1112 C   0  0  0  0  0  0  0  0  0  0  0  0
    1.1670    0.8145    0.7287 C   0  0  0  0  0  0  0  0  0  0  0  0
    0.4343    1.3078    1.6603 O   0  0  0  0  0  0  0  0  0  0  0  0
    2.4954    1.4102    0.6447 C   0  0  0  0  0  0  0  0  0  0  0  0
    3.3737    0.9236   -0.3723 N   0  0  0  0  0  0  0  0  0  0  0  0
   -3.1161    2.8670    0.8829 H   0  0  0  0  0  0  0  0  0  0  0  0
   -3.8909    1.3824    0.2096 H   0  0  0  0  0  0  0  0  0  0  0  0
   -2.8459    2.3975   -0.8138 H   0  0  0  0  0  0  0  0  0  0  0  0
   -1.7485    0.4946   -1.3289 H   0  0  0  0  0  0  0  0  0  0  0  0
   -2.6880   -0.4170   -0.1484 H   0  0  0  0  0  0  0  0  0  0  0  0
   -1.9177   -2.0473   -1.1321 H   0  0  0  0  0  0  0  0  0  0  0  0
   -0.2551   -2.7102   -1.0242 H   0  0  0  0  0  0  0  0  0  0  0  0
   -0.6587   -1.2489   -2.1216 H   0  0  0  0  0  0  0  0  0  0  0  0
   -1.8155   -2.0634    1.2403 H   0  0  0  0  0  0  0  0  0  0  0  0
   -0.0924   -2.4510    1.2431 H   0  0  0  0  0  0  0  0  0  0  0  0
   -0.1956   -1.3573    3.1076 H   0  0  0  0  0  0  0  0  0  0  0  0
    1.1905   -1.6084   -1.6706 H   0  0  0  0  0  0  0  0  0  0  0  0
    2.5562   -1.1432   -0.6711 H   0  0  0  0  0  0  0  0  0  0  0  0
    1.8386    0.0825   -1.8363 H   0  0  0  0  0  0  0  0  0  0  0  0
    2.4397    2.5312    0.5421 H   0  0  0  0  0  0  0  0  0  0  0  0
    3.0132    1.1771    1.6379 H   0  0  0  0  0  0  0  0  0  0  0  0
    4.2749    0.5605   -0.0389 H   0  0  0  0  0  0  0  0  0  0  0  0
    3.5503    1.6399   -1.1273 H   0  0  0  0  0  0  0  0  0  0  0  0
  1  2  1  0
  2  3  1  0
  3  4  1  0
  4  5  1  0
  4  6  1  0
  6  7  1  0
  4  8  1  1
  8  9  1  0
  8 10  1  0
 10 11  2  0
 10 12  1  0
 12 13  1  0
  1 14  1  0
  1 15  1  0
  1 16  1  0
  3 17  1  0
  3 18  1  0
  5 19  1  0
  5 20  1  0
  5 21  1  0
  6 22  1  0
  6 23  1  0
  7 24  1  0
  9 25  1  0
  9 26  1  0
  9 27  1  0
 12 28  1  0
 12 29  1  0
 13 30  1  0
 13 31  1  0
M  END
$$$$

     RDKit          3D

 31 30  0  0  0  0  0  0  0  0999 V2000
    3.6647    1.2129   -0.0623 C   0  0  0  0  0  0  0  0  0  0  0  0
    2.7549    0.2863    0.1934 O   0  0  0  0  0  0  0  0  0  0  0  0
    1.4355    0.4905   -0.1330 C   0  0  0  0  0  0  0  0  0  0  0  0
    0.4968   -0.6073    0.1969 C   0  0  2  0  0  0  0  0  0  0  0  0
    0.5228   -0.8700    1.6994 C   0  0  0  0  0  0  0  0  0  0  0  0
    1.0077   -1.8654   -0.4621 C   0  0  0  0  0  0  0  0  0  0  0  0
    0.1991   -2.9334   -0.1462 O   0  0  0  0  0  0  0  0  0  0  0  0
   -0.8166   -0.2557   -0.1917 N   0  0  0  0  0  0  0  0  0  0  0  0
   -1.4835   -1.0965   -1.1923 C   0  0  0  0  0  0  0  0  0  0  0  0
   -1.4641    0.8619    0.3610 C   0  0  0  0  0  0  0  0  0  0  0  0
   -0.8769    1.5650    1.2210 O   0  0  0  0  0  0  0  0  0  0  0  0
   -2.8458    1.2700   -0.0271 C   0  0  0  0  0  0  0  0  0  0  0  0
   -3.2414    2.4386    0.6958 N   0  0  0  0  0  0  0  0  0  0  0  0
    3.7550    1.4697   -1.1378 H   0  0  0  0  0  0  0  0  0  0  0  0
    3.4874    2.1798    0.4649 H   0  0  0  0  0  0  0  0  0  0  0  0
    4.6557    0.8054    0.2450 H   0  0  0  0  0  0  0  0  0  0  0  0
    1.5426    0.7086   -0.3945 H   0  0  0  0  0  0  0  0  0  0  0  0
    1.0092    1.5539   -0.1214 H   0  0  0  0  0  0  0  0  0  0  0  0
   -0.4998   -1.2482    1.9740 H   0  0  0  0  0  0  0  0  0  0  0  0
    1.2555   -1.6626    1.9392 H   0  0  0  0  0  0  0  0  0  0  0  0
    0.7309    0.0854    2.2387 H   0  0  0  0  0  0  0  0  0  0  0  0
    1.1167   -1.7636   -1.5443 H   0  0  0  0  0  0  0  0  0  0  0  0
    2.0164   -2.0738   -0.0375 H   0  0  0  0  0  0  0  0  0  0  0  0
    0.5273   -3.7836   -0.4793 H   0  0  0  0  0  0  0  0  0  0  0  0
   -2.3955   -0.5634   -1.5830 H   0  0  0  0  0  0  0  0  0  0  0  0
   -0.8275   -1.3681   -2.0185 H   0  0  0  0  0  0  0  0  0  0  0  0
   -1.8780   -2.0182   -0.7044 H   0  0  0  0  0  0  0  0  0  0  0  0
   -3.5400    0.4124    0.1040 H   0  0  0  0  0  0  0  0  0  0  0  0
   -2.8407    1.5521   -1.1208 H   0  0  0  0  0  0  0  0  0  0  0  0
   -3.9980    2.9881    0.2789 H   0  0  0  0  0  0  0  0  0  0  0  0
   -3.4705    2.2293    1.6776 H   0  0  0  0  0  0  0  0  0  0  0  0
  1  2  1  0
  2  3  1  0
  3  4  1  0
  4  5  1  0
  4  6  1  0
  6  7  1  0
  4  8  1  6
  8  9  1  0
  8 10  1  0
 10 11  2  0
 10 12  1  0
 12 13  1  0
  1 14  1  0
  1 15  1  0
  1 16  1  0
  3 17  1  0
  3 18  1  0
  5 19  1  0
  5 20  1  0
  5 21  1  0
  6 22  1  0
  6 23  1  0
  7 24  1  0
  9 25  1  0
  9 26  1  0
  9 27  1  0
 12 28  1  0
 12 29  1  0
 13 30  1  0
 13 31  1  0
M  END
$$$$

     RDKit          3D

 31 30  0  0  0  0  0  0  0  0999 V2000
   -3.4356    1.5283    0.2885 C   0  0  0  0  0  0  0  0  0  0  0  0
   -2.6282    0.3904    0.3954 O   0  0  0  0  0  0  0  0  0  0  0  0
   -1.3208    0.7078   -0.0465 C   0  0  0  0  0  0  0  0  0  0  0  0
   -0.5074   -0.5515    0.0933 C   0  0  2  0  0  0  0  0  0  0  0  0
   -1.1964   -1.6182   -0.7567 C   0  0  0  0  0  0  0  0  0  0  0  0
   -0.5251   -1.0087    1.5418 C   0  0  0  0  0  0  0  0  0  0  0  0
   -1.8530   -1.2160    1.9602 O   0  0  0  0  0  0  0  0  0  0  0  0
    0.8491   -0.3446   -0.3352 N   0  0  0  0  0  0  0  0  0  0  0  0
    1.4137   -1.1274   -1.4462 C   0  0  0  0  0  0  0  0  0  0  0  0
    1.6801    0.6000    0.2799 C   0  0  0  0  0  0  0  0  0  0  0  0
    1.2558    1.2932    1.2295 O   0  0  0  0  0  0  0  0  0  0  0  0
    3.0803    0.8070   -0.1721 C   0  0  0  0  0  0  0  0  0  0  0  0
    3.7566    1.8210    0.5911 N   0  0  0  0  0  0  0  0  0  0  0  0
   -3.4834    1.8820   -0.7786 H   0  0  0  0  0  0  0  0  0  0  0  0
   -4.4605    1.2904    0.5808 H   0  0  0  0  0  0  0  0  0  0  0  0
   -3.0532    2.3444    0.9044 H   0  0  0  0  0  0  0  0  0  0  0  0
   -1.3416    0.9595   -1.1361 H   0  0  0  0  0  0  0  0  0  0  0  0
   -0.9186    1.5390    0.5456 H   0  0  0  0  0  0  0  0  0  0  0  0
   -1.0453   -1.4401   -1.8333 H   0  0  0  0  0  0  0  0  0  0  0  0
   -2.2914   -1.5935   -0.5849 H   0  0  0  0  0  0  0  0  0  0  0  0
   -0.8304   -2.6201   -0.4449 H   0  0  0  0  0  0  0  0  0  0  0  0
   -0.1207   -0.2542    2.2310 H   0  0  0  0  0  0  0  0  0  0  0  0
   -0.0008   -1.9799    1.6444 H   0  0  0  0  0  0  0  0  0  0  0  0
   -2.0841   -2.1856    1.8860 H   0  0  0  0  0  0  0  0  0  0  0  0
    2.4651   -1.4027   -1.2245 H   0  0  0  0  0  0  0  0  0  0  0  0
    0.8680   -2.0891   -1.5585 H   0  0  0  0  0  0  0  0  0  0  0  0
    1.4257   -0.5219   -2.3738 H   0  0  0  0  0  0  0  0  0  0  0  0
    3.6197   -0.1603   -0.0946 H   0  0  0  0  0  0  0  0  0  0  0  0
    3.0656    1.1172   -1.2298 H   0  0  0  0  0  0  0  0  0  0  0  0
    3.0599    2.3639    1.1302 H   0  0  0  0  0  0  0  0  0  0  0  0
    4.5571    1.4698    1.1432 H   0  0  0  0  0  0  0  0  0  0  0  0
  1  2  1  0
  2  3  1  0
  3  4  1  0
  4  5  1  0
  4  6  1  0
  6  7  1  0
  4  8  1  6
  8  9  1  0
  8 10  1  0
 10 11  2  0
 10 12  1  0
 12 13  1  0
  1 14  1  0
  1 15  1  0
  1 16  1  0
  3 17  1  0
  3 18  1  0
  5 19  1  0
  5 20  1  0
  5 21  1  0
  6 22  1  0
  6 23  1  0
  7 24  1  0
  9 25  1  0
  9 26  1  0
  9 27  1  0
 12 28  1  0
 12 29  1  0
 13 30  1  0
 13 31  1  0
M  END
$$$$

     RDKit          3D

 31 30  0  0  0  0  0  0  0  0999 V2000
   -1.6864    2.7710    0.7577 C   0  0  0  0  0  0  0  0  0  0  0  0
   -1.2318    1.4609    0.8271 O   0  0  0  0  0  0  0  0  0  0  0  0
   -1.3529    0.7999   -0.3935 C   0  0  0  0  0  0  0  0  0  0  0  0
   -0.8342   -0.6105   -0.2138 C   0  0  2  0  0  0  0  0  0  0  0  0
   -0.9261   -1.4083   -1.4891 C   0  0  0  0  0  0  0  0  0  0  0  0
   -1.7095   -1.2317    0.8783 C   0  0  0  0  0  0  0  0  0  0  0  0
   -3.0436   -1.2604    0.4740 O   0  0  0  0  0  0  0  0  0  0  0  0
    0.5503   -0.5801    0.1968 N   0  0  0  0  0  0  0  0  0  0  0  0
    0.9659   -1.1619    1.4508 C   0  0  0  0  0  0  0  0  0  0  0  0
    1.5242    0.0245   -0.6340 C   0  0  0  0  0  0  0  0  0  0  0  0
    1.2343    0.5497   -1.7452 O   0  0  0  0  0  0  0  0  0  0  0  0
    2.9255    0.0498   -0.2021 C   0  0  0  0  0  0  0  0  0  0  0  0
    3.8082    0.6874   -1.1278 N   0  0  0  0  0  0  0  0  0  0  0  0
   -1.5654    3.2338    1.7421 H   0  0  0  0  0  0  0  0  0  0  0  0
   -2.7611    2.8148    0.4588 H   0  0  0  0  0  0  0  0  0  0  0  0
   -1.0944    3.3314    0.0137 H   0  0  0  0  0  0  0  0  0  0  0  0
   -2.4617    0.7597   -0.6080 H   0  0  0  0  0  0  0  0  0  0  0  0
   -0.8940    1.3395   -1.2357 H   0  0  0  0  0  0  0  0  0  0  0  0
    0.0559   -1.4577   -1.9779 H   0  0  0  0  0  0  0  0  0  0  0  0
   -1.2064   -2.4657   -1.2248 H   0  0  0  0  0  0  0  0  0  0  0  0
   -1.6835   -0.9464   -2.1691 H   0  0  0  0  0  0  0  0  0  0  0  0
   -1.6790   -0.6368    1.7990 H   0  0  0  0  0  0  0  0  0  0  0  0
   -1.3759   -2.2640    1.0882 H   0  0  0  0  0  0  0  0  0  0  0  0
   -3.1565   -1.8457   -0.3122 H   0  0  0  0  0  0  0  0  0  0  0  0
    1.6919   -0.4763    1.9423 H   0  0  0  0  0  0  0  0  0  0  0  0
    0.1588   -1.4277    2.1332 H   0  0  0  0  0  0  0  0  0  0  0  0
    1.5335   -2.1135    1.2504 H   0  0  0  0  0  0  0  0  0  0  0  0
    2.9958    0.6211    0.7677 H   0  0  0  0  0  0  0  0  0  0  0  0
    3.2321   -0.9933    0.0258 H   0  0  0  0  0  0  0  0  0  0  0  0
    4.6569    1.0937   -0.6886 H   0  0  0  0  0  0  0  0  0  0  0  0
    3.3291    1.3428   -1.7843 H   0  0  0  0  0  0  0  0  0  0  0  0
  1  2  1  0
  2  3  1  0
  3  4  1  0
  4  5  1  0
  4  6  1  0
  6  7  1  0
  4  8  1  1
  8  9  1  0
  8 10  1  0
 10 11  2  0
 10 12  1  0
 12 13  1  0
  1 14  1  0
  1 15  1  0
  1 16  1  0
  3 17  1  0
  3 18  1  0
  5 19  1  0
  5 20  1  0
  5 21  1  0
  6 22  1  0
  6 23  1  0
  7 24  1  0
  9 25  1  0
  9 26  1  0
  9 27  1  0
 12 28  1  0
 12 29  1  0
 13 30  1  0
 13 31  1  0
M  END
$$$$

     RDKit          3D

 31 30  0  0  0  0  0  0  0  0999 V2000
   -3.2768    1.7268    0.0458 C   0  0  0  0  0  0  0  0  0  0  0  0
   -2.6901    0.4602    0.0348 O   0  0  0  0  0  0  0  0  0  0  0  0
   -1.3257    0.6684   -0.1586 C   0  0  0  0  0  0  0  0  0  0  0  0
   -0.5353   -0.5938   -0.1971 C   0  0  2  0  0  0  0  0  0  0  0  0
   -1.0355   -1.5455   -1.2784 C   0  0  0  0  0  0  0  0  0  0  0  0
   -0.7670   -1.3603    1.1167 C   0  0  0  0  0  0  0  0  0  0  0  0
   -2.1301   -1.6499    1.2599 O   0  0  0  0  0  0  0  0  0  0  0  0
    0.8382   -0.2724   -0.4043 N   0  0  0  0  0  0  0  0  0  0  0  0
    1.4935   -0.7544   -1.5991 C   0  0  0  0  0  0  0  0  0  0  0  0
    1.5729    0.5005    0.5205 C   0  0  0  0  0  0  0  0  0  0  0  0
    1.0579    0.9407    1.5853 O   0  0  0  0  0  0  0  0  0  0  0  0
    3.0072    0.8464    0.2974 C   0  0  0  0  0  0  0  0  0  0  0  0
    3.4865    1.6401    1.4058 N   0  0  0  0  0  0  0  0  0  0  0  0
   -4.3739    1.6893    0.1943 H   0  0  0  0  0  0  0  0  0  0  0  0
   -2.7674    2.3195    0.8411 H   0  0  0  0  0  0  0  0  0  0  0  0
   -3.0483    2.2061   -0.9146 H   0  0  0  0  0  0  0  0  0  0  0  0
   -0.9603    1.3318    0.6385 H   0  0  0  0  0  0  0  0  0  0  0  0
   -1.2296    1.2013   -1.1315 H   0  0  0  0  0  0  0  0  0  0  0  0
   -0.8557   -2.6022   -0.9913 H   0  0  0  0  0  0  0  0  0  0  0  0
   -0.5499   -1.3735   -2.2491 H   0  0  0  0  0  0  0  0  0  0  0  0
   -2.1320   -1.4417   -1.4317 H   0  0  0  0  0  0  0  0  0  0  0  0
   -0.2333   -2.3221    1.1185 H   0  0  0  0  0  0  0  0  0  0  0  0
   -0.4903   -0.7228    1.9729 H   0  0  0  0  0  0  0  0  0  0  0  0
   -2.2587   -2.4967    1.7821 H   0  0  0  0  0  0  0  0  0  0  0  0
    2.5856   -0.5729   -1.5855 H   0  0  0  0  0  0  0  0  0  0  0  0
    1.1168   -0.2301   -2.5251 H   0  0  0  0  0  0  0  0  0  0  0  0
    1.3632   -1.8538   -1.7291 H   0  0  0  0  0  0  0  0  0  0  0  0
    3.6475   -0.0239    0.1673 H   0  0  0  0  0  0  0  0  0  0  0  0
    3.1046    1.4927   -0.6197 H   0  0  0  0  0  0  0  0  0  0  0  0
    2.8854    1.4096    2.2330 H   0  0  0  0  0  0  0  0  0  0  0  0
    4.5004    1.3826    1.6015 H   0  0  0  0  0  0  0  0  0  0  0  0
  1  2  1  0
  2  3  1  0
  3  4  1  0
  4  5  1  0
  4  6  1  0
  6  7  1  0
  4  8  1  6
  8  9  1  0
  8 10  1  0
 10 11  2  0
 10 12  1  0
 12 13  1  0
  1 14  1  0
  1 15  1  0
  1 16  1  0
  3 17  1  0
  3 18  1  0
  5 19  1  0
  5 20  1  0
  5 21  1  0
  6 22  1  0
  6 23  1  0
  7 24  1  0
  9 25  1  0
  9 26  1  0
  9 27  1  0
 12 28  1  0
 12 29  1  0
 13 30  1  0
 13 31  1  0
M  END
$$$$

     RDKit          3D

 31 30  0  0  0  0  0  0  0  0999 V2000
    3.4436    1.2658   -0.9004 C   0  0  0  0  0  0  0  0  0  0  0  0
    2.6306    0.5093   -0.0589 O   0  0  0  0  0  0  0  0  0  0  0  0
    1.3037    0.4946   -0.5158 C   0  0  0  0  0  0  0  0  0  0  0  0
    0.5458   -0.3585    0.4904 C   0  0  2  0  0  0  0  0  0  0  0  0
    0.6408    0.2577    1.8615 C   0  0  0  0  0  0  0  0  0  0  0  0
    1.2301   -1.7162    0.5150 C   0  0  0  0  0  0  0  0  0  0  0  0
    1.1630   -2.3408   -0.7175 O   0  0  0  0  0  0  0  0  0  0  0  0
   -0.8447   -0.4713    0.1443 N   0  0  0  0  0  0  0  0  0  0  0  0
   -1.4579   -1.7525   -0.1608 C   0  0  0  0  0  0  0  0  0  0  0  0
   -1.6318    0.7109    0.1028 C   0  0  0  0  0  0  0  0  0  0  0  0
   -1.1544    1.8394    0.3658 O   0  0  0  0  0  0  0  0  0  0  0  0
   -3.0820    0.6508   -0.2622 C   0  0  0  0  0  0  0  0  0  0  0  0
   -3.6189    1.9704   -0.2243 N   0  0  0  0  0  0  0  0  0  0  0  0
    3.0922    2.3245   -0.9578 H   0  0  0  0  0  0  0  0  0  0  0  0
    3.5494    0.8246   -1.8982 H   0  0  0  0  0  0  0  0  0  0  0  0
    4.4487    1.3065   -0.4444 H   0  0  0  0  0  0  0  0  0  0  0  0
    1.2028    0.1155   -1.5326 H   0  0  0  0  0  0  0  0  0  0  0  0
    0.9402    1.5181   -0.4789 H   0  0  0  0  0  0  0  0  0  0  0  0
    1.0297   -0.4937    2.5594 H   0  0  0  0  0  0  0  0  0  0  0  0
   -0.3599    0.6264    2.1893 H   0  0  0  0  0  0  0  0  0  0  0  0
    1.3197    1.1286    1.8002 H   0  0  0  0  0  0  0  0  0  0  0  0
    0.8014   -2.2876    1.3399 H   0  0  0  0  0  0  0  0  0  0  0  0
    2.3017   -1.5179    0.7534 H   0  0  0  0  0  0  0  0  0  0  0  0
    1.1733   -3.3275   -0.6054 H   0  0  0  0  0  0  0  0  0  0  0  0
   -1.2034   -2.0933   -1.1996 H   0  0  0  0  0  0  0  0  0  0  0  0
   -1.1070   -2.5443    0.5506 H   0  0  0  0  0  0  0  0  0  0  0  0
   -2.5470   -1.7305   -0.0851 H   0  0  0  0  0  0  0  0  0  0  0  0
   -3.5645    0.0377    0.5312 H   0  0  0  0  0  0  0  0  0  0  0  0
   -3.2506    0.1149   -1.2110 H   0  0  0  0  0  0  0  0  0  0  0  0
   -3.1260    2.6531   -0.8105 H   0  0  0  0  0  0  0  0  0  0  0  0
   -3.8686    2.2852    0.7217 H   0  0  0  0  0  0  0  0  0  0  0  0
  1  2  1  0
  2  3  1  0
  3  4  1  0
  4  5  1  0
  4  6  1  0
  6  7  1  0
  4  8  1  6
  8  9  1  0
  8 10  1  0
 10 11  2  0
 10 12  1  0
 12 13  1  0
  1 14  1  0
  1 15  1  0
  1 16  1  0
  3 17  1  0
  3 18  1  0
  5 19  1  0
  5 20  1  0
  5 21  1  0
  6 22  1  0
  6 23  1  0
  7 24  1  0
  9 25  1  0
  9 26  1  0
  9 27  1  0
 12 28  1  0
 12 29  1  0
 13 30  1  0
 13 31  1  0
M  END
$$$$

     RDKit          3D

 31 30  0  0  0  0  0  0  0  0999 V2000
   -2.6083    1.8506   -1.2882 C   0  0  0  0  0  0  0  0  0  0  0  0
   -1.7484    0.7809   -1.1171 O   0  0  0  0  0  0  0  0  0  0  0  0
   -1.5747    0.4742    0.2372 C   0  0  0  0  0  0  0  0  0  0  0  0
   -0.6324   -0.6971    0.4101 C   0  0  2  0  0  0  0  0  0  0  0  0
   -1.2728   -1.8605   -0.3395 C   0  0  0  0  0  0  0  0  0  0  0  0
   -0.5672   -1.0112    1.8822 C   0  0  0  0  0  0  0  0  0  0  0  0
    0.2351   -2.1022    2.1720 O   0  0  0  0  0  0  0  0  0  0  0  0
    0.6700   -0.3925   -0.1553 N   0  0  0  0  0  0  0  0  0  0  0  0
    1.1691   -1.2312   -1.2143 C   0  0  0  0  0  0  0  0  0  0  0  0
    1.4681    0.6805    0.2800 C   0  0  0  0  0  0  0  0  0  0  0  0
    1.0593    1.4218    1.1936 O   0  0  0  0  0  0  0  0  0  0  0  0
    2.7820    0.9479   -0.3233 C   0  0  0  0  0  0  0  0  0  0  0  0
    3.4152    2.1013    0.2880 N   0  0  0  0  0  0  0  0  0  0  0  0
   -2.2730    2.7805   -0.8106 H   0  0  0  0  0  0  0  0  0  0  0  0
   -3.5903    1.5936   -0.8269 H   0  0  0  0  0  0  0  0  0  0  0  0
   -2.7829    1.9731   -2.3762 H   0  0  0  0  0  0  0  0  0  0  0  0
   -2.5742    0.1295    0.6016 H   0  0  0  0  0  0  0  0  0  0  0  0
   -1.2946    1.3547    0.8210 H   0  0  0  0  0  0  0  0  0  0  0  0
   -0.8209   -2.8250   -0.0849 H   0  0  0  0  0  0  0  0  0  0  0  0
   -2.3434   -1.9186   -0.0317 H   0  0  0  0  0  0  0  0  0  0  0  0
   -1.1848   -1.6967   -1.4172 H   0  0  0  0  0  0  0  0  0  0  0  0
   -0.2013   -0.1149    2.4115 H   0  0  0  0  0  0  0  0  0  0  0  0
   -1.6121   -1.1908    2.2226 H   0  0  0  0  0  0  0  0  0  0  0  0
   -0.2928   -2.9407    2.2396 H   0  0  0  0  0  0  0  0  0  0  0  0
    2.2920   -1.3229   -1.1418 H   0  0  0  0  0  0  0  0  0  0  0  0
    0.8815   -0.7471   -2.1853 H   0  0  0  0  0  0  0  0  0  0  0  0
    0.7710   -2.2436   -1.2224 H   0  0  0  0  0  0  0  0  0  0  0  0
    3.4942    0.0892   -0.1483 H   0  0  0  0  0  0  0  0  0  0  0  0
    2.7251    1.1330   -1.4155 H   0  0  0  0  0  0  0  0  0  0  0  0
    3.4454    1.9875    1.3252 H   0  0  0  0  0  0  0  0  0  0  0  0
    2.9658    2.9965    0.0138 H   0  0  0  0  0  0  0  0  0  0  0  0
  1  2  1  0
  2  3  1  0
  3  4  1  0
  4  5  1  0
  4  6  1  0
  6  7  1  0
  4  8  1  6
  8  9  1  0
  8 10  1  0
 10 11  2  0
 10 12  1  0
 12 13  1  0
  1 14  1  0
  1 15  1  0
  1 16  1  0
  3 17  1  0
  3 18  1  0
  5 19  1  0
  5 20  1  0
  5 21  1  0
  6 22  1  0
  6 23  1  0
  7 24  1  0
  9 25  1  0
  9 26  1  0
  9 27  1  0
 12 28  1  0
 12 29  1  0
 13 30  1  0
 13 31  1  0
M  END
$$$$
