
     RDKit          3D

 24 23  0  0  0  0  0  0  0  0999 V2000
   -3.1458   -0.2696    1.3013 C   0  0  0  0  0  0  0  0  0  0  0  0
   -1.6370   -0.3819    1.2517 C   0  0  0  0  0  0  0  0  0  0  0  0
   -1.0727    0.2055   -0.0198 C   0  0  2  0  0  0  0  0  0  0  0  0
    0.3632    0.0788   -0.0274 N   0  0  0  0  0  0  0  0  0  0  0  0
    1.0915   -0.6815   -0.9668 C   0  0  0  0  0  0  0  0  0  0  0  0
    0.4412   -1.2894   -1.8578 O   0  0  0  0  0  0  0  0  0  0  0  0
    2.5593   -0.8185   -0.9847 C   0  0  0  0  0  0  0  0  0  0  0  0
    3.1885   -0.1241    0.0203 O   0  0  0  0  0  0  0  0  0  0  0  0
    4.5148   -0.3180   -0.0900 N   0  0  0  0  0  0  0  0  0  0  0  0
   -1.4838    1.6157   -0.2204 C   0  0  0  0  0  0  0  0  0  0  0  0
   -0.6410    2.5216   -0.3694 O   0  0  0  0  0  0  0  0  0  0  0  0
   -2.8194    1.9208   -0.2410 O   0  0  0  0  0  0  0  0  0  0  0  0
   -3.5284   -0.5073    0.2852 H   0  0  0  0  0  0  0  0  0  0  0  0
   -3.5037   -1.0799    1.9707 H   0  0  0  0  0  0  0  0  0  0  0  0
   -3.4698    0.7262    1.6649 H   0  0  0  0  0  0  0  0  0  0  0  0
   -1.2469    0.2257    2.0884 H   0  0  0  0  0  0  0  0  0  0  0  0
   -1.3834   -1.4421    1.2946 H   0  0  0  0  0  0  0  0  0  0  0  0
   -1.4799   -0.3945   -0.8727 H   0  0  0  0  0  0  0  0  0  0  0  0
    0.9000    0.5832    0.7114 H   0  0  0  0  0  0  0  0  0  0  0  0
    2.7825   -1.9144   -0.8662 H   0  0  0  0  0  0  0  0  0  0  0  0
    2.9306   -0.5578   -2.0043 H   0  0  0  0  0  0  0  0  0  0  0  0
    4.7914   -1.3023   -0.2041 H   0  0  0  0  0  0  0  0  0  0  0  0
    4.9907    0.3510   -0.7136 H   0  0  0  0  0  0  0  0  0  0  0  0
   -3.1418    2.8531    0.0448 H   0  0  0  0  0  0  0  0  0  0  0  0
  1  2  1  0
  2  3  1  0
  3  4  1  0
  4  5  1  0
  5  6  2  0
  5  7  1  0
  7  8  1  0
  8  9  1  0
  3 10  1  0
 10 11  2  0
 10 12  1  0
  1 13  1  0
  1 14  1  0
  1 15  1  0
  2 16  1  0
  2 17  1  0
  3 18  1  6
  4 19  1  0
  7 20  1  0
  7 21  1  0
  9 22  1  0
  9 23  1  0
 12 24  1  0
M  END
$$$$

     RDKit          3D

 24 23  0  0  0  0  0  0  0  0999 V2000
   -3.3620   -0.7216    0.1351 C   0  0  0  0  0  0  0  0  0  0  0  0
   -1.9052   -1.0089   -0.0926 C   0  0  0  0  0  0  0  0  0  0  0  0
   -1.1510    0.1471   -0.6563 C   0  0  2  0  0  0  0  0  0  0  0  0
    0.2250   -0.1795   -0.8533 N   0  0  0  0  0  0  0  0  0  0  0  0
    1.2711    0.1317    0.0205 C   0  0  0  0  0  0  0  0  0  0  0  0
    1.0832    0.7336    1.0967 O   0  0  0  0  0  0  0  0  0  0  0  0
    2.6576   -0.2932   -0.3911 C   0  0  0  0  0  0  0  0  0  0  0  0
    3.5702    0.1165    0.5970 O   0  0  0  0  0  0  0  0  0  0  0  0
    4.8099   -0.2662    0.2206 N   0  0  0  0  0  0  0  0  0  0  0  0
   -1.4338    1.4496   -0.0460 C   0  0  0  0  0  0  0  0  0  0  0  0
   -0.5550    2.2899    0.1783 O   0  0  0  0  0  0  0  0  0  0  0  0
   -2.7370    1.7640    0.2987 O   0  0  0  0  0  0  0  0  0  0  0  0
   -3.7163   -0.0850   -0.7119 H   0  0  0  0  0  0  0  0  0  0  0  0
   -3.5510   -0.2719    1.1161 H   0  0  0  0  0  0  0  0  0  0  0  0
   -3.9259   -1.6972    0.0471 H   0  0  0  0  0  0  0  0  0  0  0  0
   -1.4171   -1.4555    0.8004 H   0  0  0  0  0  0  0  0  0  0  0  0
   -1.8747   -1.8270   -0.8710 H   0  0  0  0  0  0  0  0  0  0  0  0
   -1.5628    0.2925   -1.7254 H   0  0  0  0  0  0  0  0  0  0  0  0
    0.4671   -0.7173   -1.7615 H   0  0  0  0  0  0  0  0  0  0  0  0
    2.6737   -1.4010   -0.4040 H   0  0  0  0  0  0  0  0  0  0  0  0
    2.9136    0.1249   -1.3735 H   0  0  0  0  0  0  0  0  0  0  0  0
    4.9374   -0.1218   -0.8198 H   0  0  0  0  0  0  0  0  0  0  0  0
    5.5525    0.3368    0.6872 H   0  0  0  0  0  0  0  0  0  0  0  0
   -2.9695    2.6594    0.7123 H   0  0  0  0  0  0  0  0  0  0  0  0
  1  2  1  0
  2  3  1  0
  3  4  1  0
  4  5  1  0
  5  6  2  0
  5  7  1  0
  7  8  1  0
  8  9  1  0
  3 10  1  0
 10 11  2  0
 10 12  1  0
  1 13  1  0
  1 14  1  0
  1 15  1  0
  2 16  1  0
  2 17  1  0
  3 18  1  6
  4 19  1  0
  7 20  1  0
  7 21  1  0
  9 22  1  0
  9 23  1  0
 12 24  1  0
M  END
$$$$

     RDKit          3D

 24 23  0  0  0  0  0  0  0  0999 V2000
   -2.5776    1.2817   -0.1456 C   0  0  0  0  0  0  0  0  0  0  0  0
   -2.1177    0.2639    0.8427 C   0  0  0  0  0  0  0  0  0  0  0  0
   -1.1226   -0.7206    0.3111 C   0  0  2  0  0  0  0  0  0  0  0  0
    0.0735   -0.0474   -0.1525 N   0  0  0  0  0  0  0  0  0  0  0  0
    1.3384   -0.2707    0.4712 C   0  0  0  0  0  0  0  0  0  0  0  0
    1.3607   -1.0752    1.4359 O   0  0  0  0  0  0  0  0  0  0  0  0
    2.5537    0.4357   -0.0266 C   0  0  0  0  0  0  0  0  0  0  0  0
    3.6458    0.0662    0.7225 O   0  0  0  0  0  0  0  0  0  0  0  0
    4.7276    0.7172    0.2530 N   0  0  0  0  0  0  0  0  0  0  0  0
   -1.6967   -1.6023   -0.7363 C   0  0  0  0  0  0  0  0  0  0  0  0
   -1.1773   -1.7150   -1.8584 O   0  0  0  0  0  0  0  0  0  0  0  0
   -2.8481   -2.3266   -0.4630 O   0  0  0  0  0  0  0  0  0  0  0  0
   -2.8585    2.2158    0.4235 H   0  0  0  0  0  0  0  0  0  0  0  0
   -3.4745    0.9421   -0.7230 H   0  0  0  0  0  0  0  0  0  0  0  0
   -1.8144    1.5434   -0.8842 H   0  0  0  0  0  0  0  0  0  0  0  0
   -2.9699   -0.2829    1.2941 H   0  0  0  0  0  0  0  0  0  0  0  0
   -1.6275    0.8058    1.6841 H   0  0  0  0  0  0  0  0  0  0  0  0
   -0.8326   -1.3772    1.1710 H   0  0  0  0  0  0  0  0  0  0  0  0
   -0.0092    0.6013   -0.9490 H   0  0  0  0  0  0  0  0  0  0  0  0
    2.6564    0.1980   -1.1064 H   0  0  0  0  0  0  0  0  0  0  0  0
    2.4363    1.5458    0.0727 H   0  0  0  0  0  0  0  0  0  0  0  0
    5.0472    0.2448   -0.6270 H   0  0  0  0  0  0  0  0  0  0  0  0
    4.4167    1.6809    0.0023 H   0  0  0  0  0  0  0  0  0  0  0  0
   -3.1298   -3.1247   -1.0122 H   0  0  0  0  0  0  0  0  0  0  0  0
  1  2  1  0
  2  3  1  0
  3  4  1  0
  4  5  1  0
  5  6  2  0
  5  7  1  0
  7  8  1  0
  8  9  1  0
  3 10  1  0
 10 11  2  0
 10 12  1  0
  1 13  1  0
  1 14  1  0
  1 15  1  0
  2 16  1  0
  2 17  1  0
  3 18  1  1
  4 19  1  0
  7 20  1  0
  7 21  1  0
  9 22  1  0
  9 23  1  0
 12 24  1  0
M  END
$$$$

     RDKit          3D

 24 23  0  0  0  0  0  0  0  0999 V2000
   -3.3888   -0.1667    0.0886 C   0  0  0  0  0  0  0  0  0  0  0  0
   -2.0835   -0.6632   -0.4830 C   0  0  0  0  0  0  0  0  0  0  0  0
   -1.0697    0.3963   -0.2859 C   0  0  2  0  0  0  0  0  0  0  0  0
    0.2454   -0.0460   -0.6551 N   0  0  0  0  0  0  0  0  0  0  0  0
    1.3118    0.0886    0.2565 C   0  0  0  0  0  0  0  0  0  0  0  0
    1.1646    0.7270    1.3580 O   0  0  0  0  0  0  0  0  0  0  0  0
    2.5531   -0.5867   -0.0156 C   0  0  0  0  0  0  0  0  0  0  0  0
    3.5341   -0.1260    0.8525 O   0  0  0  0  0  0  0  0  0  0  0  0
    4.5844    0.3606    0.1095 N   0  0  0  0  0  0  0  0  0  0  0  0
   -1.1044    0.9073    1.1179 C   0  0  0  0  0  0  0  0  0  0  0  0
   -1.0422    2.0771    1.4541 O   0  0  0  0  0  0  0  0  0  0  0  0
   -1.2151   -0.1322    2.0821 O   0  0  0  0  0  0  0  0  0  0  0  0
   -3.9908   -1.0214    0.4730 H   0  0  0  0  0  0  0  0  0  0  0  0
   -3.9442    0.3789   -0.6586 H   0  0  0  0  0  0  0  0  0  0  0  0
   -3.2040    0.5166    0.9644 H   0  0  0  0  0  0  0  0  0  0  0  0
   -1.8015   -1.5922    0.0018 H   0  0  0  0  0  0  0  0  0  0  0  0
   -2.2658   -0.8559   -1.5826 H   0  0  0  0  0  0  0  0  0  0  0  0
   -1.3583    1.3113   -0.9020 H   0  0  0  0  0  0  0  0  0  0  0  0
    0.4612   -0.3560   -1.6049 H   0  0  0  0  0  0  0  0  0  0  0  0
    2.3013   -1.6601    0.5732 H   0  0  0  0  0  0  0  0  0  0  0  0
    2.7612   -0.9579   -0.9627 H   0  0  0  0  0  0  0  0  0  0  0  0
    4.1925    1.4040   -0.1310 H   0  0  0  0  0  0  0  0  0  0  0  0
    4.7884   -0.0723   -0.7665 H   0  0  0  0  0  0  0  0  0  0  0  0
   -1.4297    0.0689    3.0148 H   0  0  0  0  0  0  0  0  0  0  0  0
  1  2  1  0
  2  3  1  0
  3  4  1  0
  4  5  1  0
  5  6  2  0
  5  7  1  0
  7  8  1  0
  8  9  1  0
  3 10  1  0
 10 11  2  0
 10 12  1  0
  1 13  1  0
  1 14  1  0
  1 15  1  0
  2 16  1  0
  2 17  1  0
  3 18  1  6
  4 19  1  0
  7 20  1  0
  7 21  1  0
  9 22  1  0
  9 23  1  0
 12 24  1  0
M  END
$$$$

     RDKit          3D

 24 23  0  0  0  0  0  0  0  0999 V2000
   -3.2276    0.2632   -0.8524 C   0  0  0  0  0  0  0  0  0  0  0  0
   -1.7601    0.0395   -1.0120 C   0  0  0  0  0  0  0  0  0  0  0  0
   -1.0066    0.1614    0.2948 C   0  0  2  0  0  0  0  0  0  0  0  0
    0.4020   -0.0539    0.1382 N   0  0  0  0  0  0  0  0  0  0  0  0
    1.3867    0.9699    0.3660 C   0  0  0  0  0  0  0  0  0  0  0  0
    0.9500    2.0862    0.7160 O   0  0  0  0  0  0  0  0  0  0  0  0
    2.8391    0.6987    0.1903 C   0  0  0  0  0  0  0  0  0  0  0  0
    3.0480   -0.6190   -0.2025 O   0  0  0  0  0  0  0  0  0  0  0  0
    4.3358   -0.9145   -0.3742 N   0  0  0  0  0  0  0  0  0  0  0  0
   -1.5974   -0.6834    1.3633 C   0  0  0  0  0  0  0  0  0  0  0  0
   -0.8972   -1.4922    2.0382 O   0  0  0  0  0  0  0  0  0  0  0  0
   -2.9425   -0.5874    1.6303 O   0  0  0  0  0  0  0  0  0  0  0  0
   -3.4500    0.9762   -0.0419 H   0  0  0  0  0  0  0  0  0  0  0  0
   -3.6095    0.7144   -1.8049 H   0  0  0  0  0  0  0  0  0  0  0  0
   -3.7626   -0.6923   -0.7083 H   0  0  0  0  0  0  0  0  0  0  0  0
   -1.5622   -0.9330   -1.5061 H   0  0  0  0  0  0  0  0  0  0  0  0
   -1.3586    0.8187   -1.6925 H   0  0  0  0  0  0  0  0  0  0  0  0
   -1.1299    1.2381    0.6124 H   0  0  0  0  0  0  0  0  0  0  0  0
    0.7714   -0.9996   -0.1581 H   0  0  0  0  0  0  0  0  0  0  0  0
    3.3154    1.4308   -0.4622 H   0  0  0  0  0  0  0  0  0  0  0  0
    3.3117    0.8025    1.2017 H   0  0  0  0  0  0  0  0  0  0  0  0
    4.4595   -1.7067   -1.0487 H   0  0  0  0  0  0  0  0  0  0  0  0
    4.9286   -0.0941   -0.6279 H   0  0  0  0  0  0  0  0  0  0  0  0
   -3.4440   -1.4233    1.9611 H   0  0  0  0  0  0  0  0  0  0  0  0
  1  2  1  0
  2  3  1  0
  3  4  1  0
  4  5  1  0
  5  6  2  0
  5  7  1  0
  7  8  1  0
  8  9  1  0
  3 10  1  0
 10 11  2  0
 10 12  1  0
  1 13  1  0
  1 14  1  0
  1 15  1  0
  2 16  1  0
  2 17  1  0
  3 18  1  1
  4 19  1  0
  7 20  1  0
  7 21  1  0
  9 22  1  0
  9 23  1  0
 12 24  1  0
M  END
$$$$

     RDKit          3D

 24 23  0  0  0  0  0  0  0  0999 V2000
   -2.5017   -1.3318   -0.3903 C   0  0  0  0  0  0  0  0  0  0  0  0
   -1.9847   -0.0992   -1.0591 C   0  0  0  0  0  0  0  0  0  0  0  0
   -1.1517    0.7628   -0.1370 C   0  0  2  0  0  0  0  0  0  0  0  0
   -0.0191   -0.0404    0.3107 N   0  0  0  0  0  0  0  0  0  0  0  0
    1.2788    0.3751   -0.0467 C   0  0  0  0  0  0  0  0  0  0  0  0
    1.4098    1.4359   -0.7465 O   0  0  0  0  0  0  0  0  0  0  0  0
    2.5118   -0.3541    0.3461 C   0  0  0  0  0  0  0  0  0  0  0  0
    3.6329    0.2734   -0.1376 O   0  0  0  0  0  0  0  0  0  0  0  0
    4.7498   -0.3912    0.2209 N   0  0  0  0  0  0  0  0  0  0  0  0
   -1.9352    1.2721    1.0138 C   0  0  0  0  0  0  0  0  0  0  0  0
   -1.6230    1.0166    2.2076 O   0  0  0  0  0  0  0  0  0  0  0  0
   -3.0572    2.0603    0.8072 O   0  0  0  0  0  0  0  0  0  0  0  0
   -3.6246   -1.3405   -0.3744 H   0  0  0  0  0  0  0  0  0  0  0  0
   -2.2289   -2.2612   -0.9649 H   0  0  0  0  0  0  0  0  0  0  0  0
   -2.1361   -1.4932    0.6293 H   0  0  0  0  0  0  0  0  0  0  0  0
   -2.7806    0.4885   -1.5682 H   0  0  0  0  0  0  0  0  0  0  0  0
   -1.2945   -0.4241   -1.8801 H   0  0  0  0  0  0  0  0  0  0  0  0
   -0.8159    1.6384   -0.7303 H   0  0  0  0  0  0  0  0  0  0  0  0
   -0.1555   -0.9021    0.8812 H   0  0  0  0  0  0  0  0  0  0  0  0
    2.5688   -0.4346    1.4491 H   0  0  0  0  0  0  0  0  0  0  0  0
    2.4011   -1.3943   -0.0334 H   0  0  0  0  0  0  0  0  0  0  0  0
    4.6015   -1.3987    0.3739 H   0  0  0  0  0  0  0  0  0  0  0  0
    5.5694   -0.1695   -0.3835 H   0  0  0  0  0  0  0  0  0  0  0  0
   -3.4153    2.7119    1.4837 H   0  0  0  0  0  0  0  0  0  0  0  0
  1  2  1  0
  2  3  1  0
  3  4  1  0
  4  5  1  0
  5  6  2  0
  5  7  1  0
  7  8  1  0
  8  9  1  0
  3 10  1  0
 10 11  2  0
 10 12  1  0
  1 13  1  0
  1 14  1  0
  1 15  1  0
  2 16  1  0
  2 17  1  0
  3 18  1  6
  4 19  1  0
  7 20  1  0
  7 21  1  0
  9 22  1  0
  9 23  1  0
 12 24  1  0
M  END
$$$$

     RDKit          3D

 24 23  0  0  0  0  0  0  0  0999 V2000
   -1.6324    2.0096    0.6175 C   0  0  0  0  0  0  0  0  0  0  0  0
   -2.0141    0.5776    0.8592 C   0  0  0  0  0  0  0  0  0  0  0  0
   -1.3657   -0.3836   -0.0972 C   0  0  2  0  0  0  0  0  0  0  0  0
    0.0789   -0.3521   -0.0343 N   0  0  0  0  0  0  0  0  0  0  0  0
    0.8819   -1.4834    0.2734 C   0  0  0  0  0  0  0  0  0  0  0  0
    0.2712   -2.5600    0.4992 O   0  0  0  0  0  0  0  0  0  0  0  0
    2.3657   -1.4392    0.3352 C   0  0  0  0  0  0  0  0  0  0  0  0
    2.8713   -0.1882    0.0630 O   0  0  0  0  0  0  0  0  0  0  0  0
    4.2222   -0.2263    0.1378 N   0  0  0  0  0  0  0  0  0  0  0  0
   -1.7837   -0.0354   -1.4819 C   0  0  0  0  0  0  0  0  0  0  0  0
   -0.9700    0.2306   -2.3952 O   0  0  0  0  0  0  0  0  0  0  0  0
   -3.1347   -0.0030   -1.7774 O   0  0  0  0  0  0  0  0  0  0  0  0
   -2.4555    2.6390    1.0638 H   0  0  0  0  0  0  0  0  0  0  0  0
   -1.6819    2.2332   -0.4820 H   0  0  0  0  0  0  0  0  0  0  0  0
   -0.6719    2.2679    1.0685 H   0  0  0  0  0  0  0  0  0  0  0  0
   -1.8204    0.3144    1.9097 H   0  0  0  0  0  0  0  0  0  0  0  0
   -3.1107    0.4959    0.7086 H   0  0  0  0  0  0  0  0  0  0  0  0
   -1.7764   -1.3879    0.1213 H   0  0  0  0  0  0  0  0  0  0  0  0
    0.5680    0.5477   -0.2241 H   0  0  0  0  0  0  0  0  0  0  0  0
    2.8394   -2.1850   -0.3351 H   0  0  0  0  0  0  0  0  0  0  0  0
    2.6527   -1.7250    1.3689 H   0  0  0  0  0  0  0  0  0  0  0  0
    4.5933    0.4594   -0.5747 H   0  0  0  0  0  0  0  0  0  0  0  0
    4.5273    0.0396    1.0914 H   0  0  0  0  0  0  0  0  0  0  0  0
   -3.4545    0.1544   -2.7159 H   0  0  0  0  0  0  0  0  0  0  0  0
  1  2  1  0
  2  3  1  0
  3  4  1  0
  4  5  1  0
  5  6  2  0
  5  7  1  0
  7  8  1  0
  8  9  1  0
  3 10  1  0
 10 11  2  0
 10 12  1  0
  1 13  1  0
  1 14  1  0
  1 15  1  0
  2 16  1  0
  2 17  1  0
  3 18  1  1
  4 19  1  0
  7 20  1  0
  7 21  1  0
  9 22  1  0
  9 23  1  0
 12 24  1  0
M  END
$$$$

     RDKit          3D

 24 23  0  0  0  0  0  0  0  0999 V2000
   -2.8876    1.3271    0.2002 C   0  0  0  0  0  0  0  0  0  0  0  0
   -1.4342    1.0383   -0.1015 C   0  0  0  0  0  0  0  0  0  0  0  0
   -1.0838   -0.3344    0.4607 C   0  0  2  0  0  0  0  0  0  0  0  0
    0.2980   -0.6007    0.0591 N   0  0  0  0  0  0  0  0  0  0  0  0
    1.3499   -0.0655    0.7590 C   0  0  0  0  0  0  0  0  0  0  0  0
    1.1371    0.7376    1.7962 O   0  0  0  0  0  0  0  0  0  0  0  0
    2.7665   -0.2855    0.5164 C   0  0  0  0  0  0  0  0  0  0  0  0
    2.9940   -0.1457   -0.8611 O   0  0  0  0  0  0  0  0  0  0  0  0
    4.1350    0.5903   -0.9165 N   0  0  0  0  0  0  0  0  0  0  0  0
   -1.9724   -1.3478   -0.0538 C   0  0  0  0  0  0  0  0  0  0  0  0
   -1.7918   -1.7346   -1.2511 O   0  0  0  0  0  0  0  0  0  0  0  0
   -2.9783   -1.8963    0.7394 O   0  0  0  0  0  0  0  0  0  0  0  0
   -3.3645    1.7750   -0.7224 H   0  0  0  0  0  0  0  0  0  0  0  0
   -3.0679    1.9991    1.0335 H   0  0  0  0  0  0  0  0  0  0  0  0
   -3.4053    0.3466    0.3175 H   0  0  0  0  0  0  0  0  0  0  0  0
   -0.7779    1.8180    0.3891 H   0  0  0  0  0  0  0  0  0  0  0  0
   -1.2814    1.0134   -1.1732 H   0  0  0  0  0  0  0  0  0  0  0  0
   -1.0358   -0.2287    1.5779 H   0  0  0  0  0  0  0  0  0  0  0  0
    0.4856   -1.2163   -0.7694 H   0  0  0  0  0  0  0  0  0  0  0  0
    3.5081   -0.0435    1.2083 H   0  0  0  0  0  0  0  0  0  0  0  0
    2.7718   -1.5066    0.5906 H   0  0  0  0  0  0  0  0  0  0  0  0
    4.9934    0.2100   -1.0410 H   0  0  0  0  0  0  0  0  0  0  0  0
    3.9556    1.3637   -0.1731 H   0  0  0  0  0  0  0  0  0  0  0  0
   -3.3137   -2.8134    0.4166 H   0  0  0  0  0  0  0  0  0  0  0  0
  1  2  1  0
  2  3  1  0
  3  4  1  0
  4  5  1  0
  5  6  2  0
  5  7  1  0
  7  8  1  0
  8  9  1  0
  3 10  1  0
 10 11  2  0
 10 12  1  0
  1 13  1  0
  1 14  1  0
  1 15  1  0
  2 16  1  0
  2 17  1  0
  3 18  1  1
  4 19  1  0
  7 20  1  0
  7 21  1  0
  9 22  1  0
  9 23  1  0
 12 24  1  0
M  END
$$$$
