
     RDKit          3D

 25 24  0  0  0  0  0  0  0  0999 V2000
    4.4662   -1.9280    0.0502 N   0  0  0  0  0  0  0  0  0  0  0  0
    3.2690   -1.4446   -0.2643 O   0  0  0  0  0  0  0  0  0  0  0  0
    3.0248   -0.2991    0.4537 C   0  0  0  0  0  0  0  0  0  0  0  0
    1.6812    0.2851    0.1320 C   0  0  0  0  0  0  0  0  0  0  0  0
    1.3325    1.3377    0.7217 O   0  0  0  0  0  0  0  0  0  0  0  0
    0.8705   -0.3774   -0.8207 N   0  0  0  0  0  0  0  0  0  0  0  0
   -0.4319    0.1205   -1.1811 C   0  0  0  0  0  0  0  0  0  0  0  0
   -1.3119    0.1496    0.0451 C   0  0  0  0  0  0  0  0  0  0  0  0
   -2.6939    0.6751   -0.3412 C   0  0  2  0  0  0  0  0  0  0  0  0
   -2.6040    1.9619   -0.8644 O   0  0  0  0  0  0  0  0  0  0  0  0
   -3.5513    0.6560    0.8732 C   0  0  0  0  0  0  0  0  0  0  0  0
   -4.0576    1.7278    1.2567 O   0  0  0  0  0  0  0  0  0  0  0  0
   -3.8139   -0.4820    1.5940 O   0  0  0  0  0  0  0  0  0  0  0  0
    5.2724   -1.4428   -0.3498 H   0  0  0  0  0  0  0  0  0  0  0  0
    4.5717   -2.3059    0.9951 H   0  0  0  0  0  0  0  0  0  0  0  0
    3.0522   -0.4889    1.5658 H   0  0  0  0  0  0  0  0  0  0  0  0
    3.7911    0.4721    0.2336 H   0  0  0  0  0  0  0  0  0  0  0  0
    1.2263   -1.2311   -1.2596 H   0  0  0  0  0  0  0  0  0  0  0  0
   -0.3514    1.1438   -1.6178 H   0  0  0  0  0  0  0  0  0  0  0  0
   -0.8737   -0.5366   -1.9468 H   0  0  0  0  0  0  0  0  0  0  0  0
   -1.4345   -0.8511    0.4802 H   0  0  0  0  0  0  0  0  0  0  0  0
   -0.9201    0.8294    0.8182 H   0  0  0  0  0  0  0  0  0  0  0  0
   -3.1088   -0.0260   -1.0985 H   0  0  0  0  0  0  0  0  0  0  0  0
   -3.3813    2.4799   -0.5063 H   0  0  0  0  0  0  0  0  0  0  0  0
   -4.0237   -0.4255    2.6002 H   0  0  0  0  0  0  0  0  0  0  0  0
  1  2  1  0
  2  3  1  0
  3  4  1  0
  4  5  2  0
  4  6  1  0
  6  7  1  0
  7  8  1  0
  8  9  1  0
  9 10  1  0
  9 11  1  0
 11 12  2  0
 11 13  1  0
  1 14  1  0
  1 15  1  0
  3 16  1  0
  3 17  1  0
  6 18  1  0
  7 19  1  0
  7 20  1  0
  8 21  1  0
  8 22  1  0
  9 23  1  6
 10 24  1  0
 13 25  1  0
M  END
$$$$

     RDKit          3D

 25 24  0  0  0  0  0  0  0  0999 V2000
    4.5744   -0.4498   -0.8676 N   0  0  0  0  0  0  0  0  0  0  0  0
    3.6885    0.2111   -0.1616 O   0  0  0  0  0  0  0  0  0  0  0  0
    2.9585   -0.5438    0.7713 C   0  0  0  0  0  0  0  0  0  0  0  0
    1.5097   -0.5110    0.2649 C   0  0  0  0  0  0  0  0  0  0  0  0
    0.8072   -1.5193    0.3573 O   0  0  0  0  0  0  0  0  0  0  0  0
    0.9419    0.6523   -0.2800 N   0  0  0  0  0  0  0  0  0  0  0  0
   -0.4573    0.6033   -0.7745 C   0  0  0  0  0  0  0  0  0  0  0  0
   -1.1994   -0.2139    0.2641 C   0  0  0  0  0  0  0  0  0  0  0  0
   -2.5669    0.2406    0.5683 C   0  0  2  0  0  0  0  0  0  0  0  0
   -3.1185   -0.6023    1.5265 O   0  0  0  0  0  0  0  0  0  0  0  0
   -3.4742    0.7203   -0.4087 C   0  0  0  0  0  0  0  0  0  0  0  0
   -4.6334    1.0589   -0.0642 O   0  0  0  0  0  0  0  0  0  0  0  0
   -3.1487    0.8819   -1.7743 O   0  0  0  0  0  0  0  0  0  0  0  0
    4.7953   -1.3893   -0.6819 H   0  0  0  0  0  0  0  0  0  0  0  0
    4.3627   -0.1882   -1.8935 H   0  0  0  0  0  0  0  0  0  0  0  0
    2.8651    0.3431    1.6755 H   0  0  0  0  0  0  0  0  0  0  0  0
    3.2721   -1.3311    1.3331 H   0  0  0  0  0  0  0  0  0  0  0  0
    1.4687    1.5749   -0.2550 H   0  0  0  0  0  0  0  0  0  0  0  0
   -0.8218    1.6156   -0.8411 H   0  0  0  0  0  0  0  0  0  0  0  0
   -0.4339    0.1436   -1.7757 H   0  0  0  0  0  0  0  0  0  0  0  0
   -1.2027   -1.2843   -0.1138 H   0  0  0  0  0  0  0  0  0  0  0  0
   -0.6027   -0.1937    1.1742 H   0  0  0  0  0  0  0  0  0  0  0  0
   -2.3630    1.2349    1.2305 H   0  0  0  0  0  0  0  0  0  0  0  0
   -3.4128   -1.4215    1.0052 H   0  0  0  0  0  0  0  0  0  0  0  0
   -3.8090    0.3677   -2.4390 H   0  0  0  0  0  0  0  0  0  0  0  0
  1  2  1  0
  2  3  1  0
  3  4  1  0
  4  5  2  0
  4  6  1  0
  6  7  1  0
  7  8  1  0
  8  9  1  0
  9 10  1  0
  9 11  1  0
 11 12  2  0
 11 13  1  0
  1 14  1  0
  1 15  1  0
  3 16  1  0
  3 17  1  0
  6 18  1  0
  7 19  1  0
  7 20  1  0
  8 21  1  0
  8 22  1  0
  9 23  1  1
 10 24  1  0
 13 25  1  0
M  END
$$$$

     RDKit          3D

 25 24  0  0  0  0  0  0  0  0999 V2000
    4.6768   -0.8469    0.8711 N   0  0  0  0  0  0  0  0  0  0  0  0
    3.3605   -0.6842    0.6243 O   0  0  0  0  0  0  0  0  0  0  0  0
    3.2252    0.0118   -0.5580 C   0  0  0  0  0  0  0  0  0  0  0  0
    1.8025    0.2422   -0.9177 C   0  0  0  0  0  0  0  0  0  0  0  0
    1.5288    0.8603   -1.9641 O   0  0  0  0  0  0  0  0  0  0  0  0
    0.7286   -0.2193   -0.1070 N   0  0  0  0  0  0  0  0  0  0  0  0
   -0.6595   -0.0004   -0.4480 C   0  0  0  0  0  0  0  0  0  0  0  0
   -1.5174   -0.6052    0.6018 C   0  0  0  0  0  0  0  0  0  0  0  0
   -2.9922   -0.4459    0.3644 C   0  0  2  0  0  0  0  0  0  0  0  0
   -3.4148   -1.0203   -0.8119 O   0  0  0  0  0  0  0  0  0  0  0  0
   -3.4482    0.9531    0.4342 C   0  0  0  0  0  0  0  0  0  0  0  0
   -4.1156    1.4284   -0.5067 O   0  0  0  0  0  0  0  0  0  0  0  0
   -3.1636    1.7688    1.5107 O   0  0  0  0  0  0  0  0  0  0  0  0
    5.2684   -0.3385    0.1747 H   0  0  0  0  0  0  0  0  0  0  0  0
    4.9173   -0.5715    1.8425 H   0  0  0  0  0  0  0  0  0  0  0  0
    3.6787    1.0219   -0.4026 H   0  0  0  0  0  0  0  0  0  0  0  0
    3.7387   -0.5410   -1.3683 H   0  0  0  0  0  0  0  0  0  0  0  0
    0.9748   -0.7250    0.7487 H   0  0  0  0  0  0  0  0  0  0  0  0
   -0.8432   -0.5154   -1.4358 H   0  0  0  0  0  0  0  0  0  0  0  0
   -0.7936    1.0935   -0.5543 H   0  0  0  0  0  0  0  0  0  0  0  0
   -1.2491   -0.1971    1.5819 H   0  0  0  0  0  0  0  0  0  0  0  0
   -1.3091   -1.6986    0.6305 H   0  0  0  0  0  0  0  0  0  0  0  0
   -3.4984   -1.0253    1.1934 H   0  0  0  0  0  0  0  0  0  0  0  0
   -3.1139   -0.4756   -1.6011 H   0  0  0  0  0  0  0  0  0  0  0  0
   -3.7820    2.5303    1.8134 H   0  0  0  0  0  0  0  0  0  0  0  0
  1  2  1  0
  2  3  1  0
  3  4  1  0
  4  5  2  0
  4  6  1  0
  6  7  1  0
  7  8  1  0
  8  9  1  0
  9 10  1  0
  9 11  1  0
 11 12  2  0
 11 13  1  0
  1 14  1  0
  1 15  1  0
  3 16  1  0
  3 17  1  0
  6 18  1  0
  7 19  1  0
  7 20  1  0
  8 21  1  0
  8 22  1  0
  9 23  1  1
 10 24  1  0
 13 25  1  0
M  END
$$$$

     RDKit          3D

 25 24  0  0  0  0  0  0  0  0999 V2000
    4.9715   -1.1921   -0.0037 N   0  0  0  0  0  0  0  0  0  0  0  0
    3.7089   -1.0393   -0.4137 O   0  0  0  0  0  0  0  0  0  0  0  0
    3.0599   -0.1059    0.3903 C   0  0  0  0  0  0  0  0  0  0  0  0
    1.6577    0.0986   -0.0238 C   0  0  0  0  0  0  0  0  0  0  0  0
    1.1716   -0.5280   -0.9954 O   0  0  0  0  0  0  0  0  0  0  0  0
    0.8453    1.0148    0.6835 N   0  0  0  0  0  0  0  0  0  0  0  0
   -0.5136    1.2326    0.3080 C   0  0  0  0  0  0  0  0  0  0  0  0
   -1.3879    0.0040    0.3778 C   0  0  0  0  0  0  0  0  0  0  0  0
   -2.7847    0.4332   -0.0521 C   0  0  2  0  0  0  0  0  0  0  0  0
   -3.2550    1.4217    0.8070 O   0  0  0  0  0  0  0  0  0  0  0  0
   -3.7177   -0.7194   -0.0933 C   0  0  0  0  0  0  0  0  0  0  0  0
   -4.7529   -0.6704    0.6053 O   0  0  0  0  0  0  0  0  0  0  0  0
   -3.4578   -1.8172   -0.8773 O   0  0  0  0  0  0  0  0  0  0  0  0
    5.5497   -0.4725   -0.4746 H   0  0  0  0  0  0  0  0  0  0  0  0
    5.1137   -1.1362    1.0111 H   0  0  0  0  0  0  0  0  0  0  0  0
    3.0842   -0.5215    1.4284 H   0  0  0  0  0  0  0  0  0  0  0  0
    3.6321    0.8549    0.3598 H   0  0  0  0  0  0  0  0  0  0  0  0
    1.2712    1.5372    1.5014 H   0  0  0  0  0  0  0  0  0  0  0  0
   -0.6013    1.6443   -0.7393 H   0  0  0  0  0  0  0  0  0  0  0  0
   -0.9578    2.0361    0.9501 H   0  0  0  0  0  0  0  0  0  0  0  0
   -1.0290   -0.7771   -0.3166 H   0  0  0  0  0  0  0  0  0  0  0  0
   -1.4083   -0.4116    1.4120 H   0  0  0  0  0  0  0  0  0  0  0  0
   -2.6859    0.8610   -1.0792 H   0  0  0  0  0  0  0  0  0  0  0  0
   -3.6256    0.9674    1.5990 H   0  0  0  0  0  0  0  0  0  0  0  0
   -3.8884   -2.7148   -0.6565 H   0  0  0  0  0  0  0  0  0  0  0  0
  1  2  1  0
  2  3  1  0
  3  4  1  0
  4  5  2  0
  4  6  1  0
  6  7  1  0
  7  8  1  0
  8  9  1  0
  9 10  1  0
  9 11  1  0
 11 12  2  0
 11 13  1  0
  1 14  1  0
  1 15  1  0
  3 16  1  0
  3 17  1  0
  6 18  1  0
  7 19  1  0
  7 20  1  0
  8 21  1  0
  8 22  1  0
  9 23  1  6
 10 24  1  0
 13 25  1  0
M  END
$$$$

     RDKit          3D

 25 24  0  0  0  0  0  0  0  0999 V2000
    4.8291    1.0985    0.5493 N   0  0  0  0  0  0  0  0  0  0  0  0
    3.5865    0.7927    0.1444 O   0  0  0  0  0  0  0  0  0  0  0  0
    2.9723   -0.0179    1.1081 C   0  0  0  0  0  0  0  0  0  0  0  0
    1.5977   -0.3570    0.6618 C   0  0  0  0  0  0  0  0  0  0  0  0
    0.8868   -1.0682    1.3763 O   0  0  0  0  0  0  0  0  0  0  0  0
    1.0869    0.1221   -0.5719 N   0  0  0  0  0  0  0  0  0  0  0  0
   -0.2150   -0.1517   -1.0783 C   0  0  0  0  0  0  0  0  0  0  0  0
   -1.3288    0.3253   -0.1869 C   0  0  0  0  0  0  0  0  0  0  0  0
   -2.6429   -0.0237   -0.8333 C   0  0  2  0  0  0  0  0  0  0  0  0
   -2.8217    0.5469   -2.0681 O   0  0  0  0  0  0  0  0  0  0  0  0
   -3.7382    0.3780    0.1165 C   0  0  0  0  0  0  0  0  0  0  0  0
   -4.6607    1.1442   -0.2606 O   0  0  0  0  0  0  0  0  0  0  0  0
   -3.7428   -0.0906    1.4139 O   0  0  0  0  0  0  0  0  0  0  0  0
    5.4719    1.3196   -0.2360 H   0  0  0  0  0  0  0  0  0  0  0  0
    4.8127    1.8348    1.2922 H   0  0  0  0  0  0  0  0  0  0  0  0
    2.9197    0.5053    2.0821 H   0  0  0  0  0  0  0  0  0  0  0  0
    3.5643   -0.9562    1.2451 H   0  0  0  0  0  0  0  0  0  0  0  0
    1.7291    0.7170   -1.1330 H   0  0  0  0  0  0  0  0  0  0  0  0
   -0.3152   -1.2691   -1.1485 H   0  0  0  0  0  0  0  0  0  0  0  0
   -0.3397    0.2521   -2.0868 H   0  0  0  0  0  0  0  0  0  0  0  0
   -1.3008   -0.2049    0.7915 H   0  0  0  0  0  0  0  0  0  0  0  0
   -1.2819    1.4180   -0.0776 H   0  0  0  0  0  0  0  0  0  0  0  0
   -2.6948   -1.1324   -0.9230 H   0  0  0  0  0  0  0  0  0  0  0  0
   -3.8018    0.7212   -2.1805 H   0  0  0  0  0  0  0  0  0  0  0  0
   -4.5726   -0.1083    2.0033 H   0  0  0  0  0  0  0  0  0  0  0  0
  1  2  1  0
  2  3  1  0
  3  4  1  0
  4  5  2  0
  4  6  1  0
  6  7  1  0
  7  8  1  0
  8  9  1  0
  9 10  1  0
  9 11  1  0
 11 12  2  0
 11 13  1  0
  1 14  1  0
  1 15  1  0
  3 16  1  0
  3 17  1  0
  6 18  1  0
  7 19  1  0
  7 20  1  0
  8 21  1  0
  8 22  1  0
  9 23  1  6
 10 24  1  0
 13 25  1  0
M  END
$$$$

     RDKit          3D

 25 24  0  0  0  0  0  0  0  0999 V2000
    4.8149   -0.1699    0.7978 N   0  0  0  0  0  0  0  0  0  0  0  0
    3.4709   -0.1364    0.8464 O   0  0  0  0  0  0  0  0  0  0  0  0
    2.9719    0.4459   -0.3211 C   0  0  0  0  0  0  0  0  0  0  0  0
    1.4709    0.4872   -0.2751 C   0  0  0  0  0  0  0  0  0  0  0  0
    0.8091    0.9727   -1.2269 O   0  0  0  0  0  0  0  0  0  0  0  0
    0.7461   -0.0164    0.8363 N   0  0  0  0  0  0  0  0  0  0  0  0
   -0.6970    0.0098    0.9030 C   0  0  0  0  0  0  0  0  0  0  0  0
   -1.3629   -0.7587   -0.1821 C   0  0  0  0  0  0  0  0  0  0  0  0
   -2.8618   -0.7405   -0.1086 C   0  0  2  0  0  0  0  0  0  0  0  0
   -3.3517   -1.5080   -1.1925 O   0  0  0  0  0  0  0  0  0  0  0  0
   -3.4837    0.5735   -0.1713 C   0  0  0  0  0  0  0  0  0  0  0  0
   -4.2836    0.8420   -1.1280 O   0  0  0  0  0  0  0  0  0  0  0  0
   -3.2988    1.6128    0.7298 O   0  0  0  0  0  0  0  0  0  0  0  0
    5.2340    0.7985    0.8535 H   0  0  0  0  0  0  0  0  0  0  0  0
    5.0911   -0.6550   -0.0873 H   0  0  0  0  0  0  0  0  0  0  0  0
    3.4105    1.4507   -0.4162 H   0  0  0  0  0  0  0  0  0  0  0  0
    3.2573   -0.1181   -1.2330 H   0  0  0  0  0  0  0  0  0  0  0  0
    1.3238   -0.4153    1.6197 H   0  0  0  0  0  0  0  0  0  0  0  0
   -0.9835   -0.4743    1.8720 H   0  0  0  0  0  0  0  0  0  0  0  0
   -1.0656    1.0574    0.8563 H   0  0  0  0  0  0  0  0  0  0  0  0
   -1.0712   -1.8448   -0.0815 H   0  0  0  0  0  0  0  0  0  0  0  0
   -0.9878   -0.4738   -1.1917 H   0  0  0  0  0  0  0  0  0  0  0  0
   -3.1386   -1.2895    0.8319 H   0  0  0  0  0  0  0  0  0  0  0  0
   -2.6897   -2.2114   -1.3985 H   0  0  0  0  0  0  0  0  0  0  0  0
   -3.3245    2.5616    0.3903 H   0  0  0  0  0  0  0  0  0  0  0  0
  1  2  1  0
  2  3  1  0
  3  4  1  0
  4  5  2  0
  4  6  1  0
  6  7  1  0
  7  8  1  0
  8  9  1  0
  9 10  1  0
  9 11  1  0
 11 12  2  0
 11 13  1  0
  1 14  1  0
  1 15  1  0
  3 16  1  0
  3 17  1  0
  6 18  1  0
  7 19  1  0
  7 20  1  0
  8 21  1  0
  8 22  1  0
  9 23  1  1
 10 24  1  0
 13 25  1  0
M  END
$$$$

     RDKit          3D

 25 24  0  0  0  0  0  0  0  0999 V2000
   -5.3295    0.2867   -0.2233 N   0  0  0  0  0  0  0  0  0  0  0  0
   -4.2872   -0.5826   -0.4413 O   0  0  0  0  0  0  0  0  0  0  0  0
   -3.2510   -0.5324    0.4396 C   0  0  0  0  0  0  0  0  0  0  0  0
   -2.0688   -0.2742   -0.4797 C   0  0  0  0  0  0  0  0  0  0  0  0
   -2.1810   -0.0936   -1.7110 O   0  0  0  0  0  0  0  0  0  0  0  0
   -0.8141   -0.2717    0.0503 N   0  0  0  0  0  0  0  0  0  0  0  0
    0.4982   -0.1450   -0.7180 C   0  0  0  0  0  0  0  0  0  0  0  0
    1.5054    0.0047    0.3765 C   0  0  0  0  0  0  0  0  0  0  0  0
    2.9135   -0.2617    0.0259 C   0  0  2  0  0  0  0  0  0  0  0  0
    3.6930   -0.0790    1.2321 O   0  0  0  0  0  0  0  0  0  0  0  0
    3.5561    0.7735   -0.9082 C   0  0  0  0  0  0  0  0  0  0  0  0
    3.3628    1.9140   -0.8713 O   0  0  0  0  0  0  0  0  0  0  0  0
    4.4726    0.2012   -1.8852 O   0  0  0  0  0  0  0  0  0  0  0  0
   -4.8297    1.2303    0.0962 H   0  0  0  0  0  0  0  0  0  0  0  0
   -5.5977    0.6183   -1.3027 H   0  0  0  0  0  0  0  0  0  0  0  0
   -3.3070    0.1981    1.2025 H   0  0  0  0  0  0  0  0  0  0  0  0
   -3.0228   -1.5547    0.8680 H   0  0  0  0  0  0  0  0  0  0  0  0
   -0.6818   -0.4367    1.0767 H   0  0  0  0  0  0  0  0  0  0  0  0
    0.3422    0.8139   -1.3103 H   0  0  0  0  0  0  0  0  0  0  0  0
    0.6356   -0.9375   -1.4264 H   0  0  0  0  0  0  0  0  0  0  0  0
    1.4327    1.2124    0.6456 H   0  0  0  0  0  0  0  0  0  0  0  0
    1.1640   -0.4820    1.3211 H   0  0  0  0  0  0  0  0  0  0  0  0
    3.0163   -1.2983   -0.3305 H   0  0  0  0  0  0  0  0  0  0  0  0
    3.3642   -0.8358    1.8010 H   0  0  0  0  0  0  0  0  0  0  0  0
    5.4141    0.5321   -1.8600 H   0  0  0  0  0  0  0  0  0  0  0  0
  1  2  1  0
  2  3  1  0
  3  4  1  0
  4  5  2  0
  4  6  1  0
  6  7  1  0
  7  8  1  0
  8  9  1  0
  9 10  1  0
  9 11  1  0
 11 12  2  0
 11 13  1  0
  1 14  1  0
  1 15  1  0
  3 16  1  0
  3 17  1  0
  6 18  1  0
  7 19  1  0
  7 20  1  0
  8 21  1  0
  8 22  1  0
  9 23  1  6
 10 24  1  0
 13 25  1  0
M  END
$$$$

     RDKit          3D

 25 24  0  0  0  0  0  0  0  0999 V2000
    4.9452    0.1128    0.2185 N   0  0  0  0  0  0  0  0  0  0  0  0
    3.6202    0.0667    0.3144 O   0  0  0  0  0  0  0  0  0  0  0  0
    2.9542    0.7289   -0.6935 C   0  0  0  0  0  0  0  0  0  0  0  0
    1.4938    0.6064   -0.4773 C   0  0  0  0  0  0  0  0  0  0  0  0
    0.6668    1.1381   -1.2811 O   0  0  0  0  0  0  0  0  0  0  0  0
    0.9213   -0.0948    0.6139 N   0  0  0  0  0  0  0  0  0  0  0  0
   -0.5088   -0.2265    0.8437 C   0  0  0  0  0  0  0  0  0  0  0  0
   -1.2244   -0.8992   -0.2561 C   0  0  0  0  0  0  0  0  0  0  0  0
   -2.6865   -1.0318    0.0810 C   0  0  2  0  0  0  0  0  0  0  0  0
   -3.3554   -1.6949   -0.9768 O   0  0  0  0  0  0  0  0  0  0  0  0
   -3.2862    0.3118    0.2274 C   0  0  0  0  0  0  0  0  0  0  0  0
   -3.0621    1.1198    1.1514 O   0  0  0  0  0  0  0  0  0  0  0  0
   -4.1989    0.7336   -0.7629 O   0  0  0  0  0  0  0  0  0  0  0  0
    5.3148    0.4267   -0.6857 H   0  0  0  0  0  0  0  0  0  0  0  0
    5.3696    0.5660    1.0534 H   0  0  0  0  0  0  0  0  0  0  0  0
    3.1897    1.8179   -0.6527 H   0  0  0  0  0  0  0  0  0  0  0  0
    3.2620    0.2997   -1.6628 H   0  0  0  0  0  0  0  0  0  0  0  0
    1.5587   -0.5443    1.2940 H   0  0  0  0  0  0  0  0  0  0  0  0
   -0.9100    0.8055    0.9764 H   0  0  0  0  0  0  0  0  0  0  0  0
   -0.6661   -0.7833    1.7812 H   0  0  0  0  0  0  0  0  0  0  0  0
   -0.7894   -1.9151   -0.4899 H   0  0  0  0  0  0  0  0  0  0  0  0
   -1.1903   -0.2976   -1.2161 H   0  0  0  0  0  0  0  0  0  0  0  0
   -2.7721   -1.5813    1.0251 H   0  0  0  0  0  0  0  0  0  0  0  0
   -4.2999   -1.4086   -0.9033 H   0  0  0  0  0  0  0  0  0  0  0  0
   -4.3463    1.7435   -0.9052 H   0  0  0  0  0  0  0  0  0  0  0  0
  1  2  1  0
  2  3  1  0
  3  4  1  0
  4  5  2  0
  4  6  1  0
  6  7  1  0
  7  8  1  0
  8  9  1  0
  9 10  1  0
  9 11  1  0
 11 12  2  0
 11 13  1  0
  1 14  1  0
  1 15  1  0
  3 16  1  0
  3 17  1  0
  6 18  1  0
  7 19  1  0
  7 20  1  0
  8 21  1  0
  8 22  1  0
  9 23  1  1
 10 24  1  0
 13 25  1  0
M  END
$$$$
