
     RDKit          3D

 22 23  0  0  0  0  0  0  0  0999 V2000
    4.0634    0.5143    0.0529 C   0  0  0  0  0  0  0  0  0  0  0  0
    2.6311    0.3207    0.1789 N   0  0  0  0  0  0  0  0  0  0  0  0
    1.9558    0.5123    1.3172 N   0  0  0  0  0  0  0  0  0  0  0  0
    0.6753    0.2450    1.0704 N   0  0  0  0  0  0  0  0  0  0  0  0
    0.5215   -0.1161   -0.2143 C   0  0  0  0  0  0  0  0  0  0  0  0
   -0.7688   -0.4906   -0.8642 C   0  0  1  0  0  0  0  0  0  0  0  0
   -1.4761   -1.5866   -0.0951 C   0  0  0  0  0  0  0  0  0  0  0  0
   -2.3464   -0.9976    0.7784 O   0  0  0  0  0  0  0  0  0  0  0  0
   -2.3052    0.3616    0.6340 C   0  0  0  0  0  0  0  0  0  0  0  0
   -1.8148    0.5964   -0.7539 C   0  0  2  0  0  0  0  0  0  0  0  0
   -2.8430    0.2518   -1.6394 O   0  0  0  0  0  0  0  0  0  0  0  0
    1.7556   -0.0605   -0.7466 N   0  0  0  0  0  0  0  0  0  0  0  0
    4.4410    1.2199    0.7929 H   0  0  0  0  0  0  0  0  0  0  0  0
    4.2791    0.8178   -0.9973 H   0  0  0  0  0  0  0  0  0  0  0  0
    4.5900   -0.4624    0.2088 H   0  0  0  0  0  0  0  0  0  0  0  0
   -0.6199   -0.7606   -1.9288 H   0  0  0  0  0  0  0  0  0  0  0  0
   -0.7344   -2.2178    0.4312 H   0  0  0  0  0  0  0  0  0  0  0  0
   -2.0446   -2.1819   -0.8586 H   0  0  0  0  0  0  0  0  0  0  0  0
   -3.2867    0.8580    0.7864 H   0  0  0  0  0  0  0  0  0  0  0  0
   -1.5987    0.8474    1.3652 H   0  0  0  0  0  0  0  0  0  0  0  0
   -1.4141    1.6012   -0.9441 H   0  0  0  0  0  0  0  0  0  0  0  0
   -3.6600    0.7277   -1.4107 H   0  0  0  0  0  0  0  0  0  0  0  0
  1  2  1  0
  2  3  1  0
  3  4  2  0
  4  5  1  0
  5  6  1  0
  6  7  1  0
  7  8  1  0
  8  9  1  0
  9 10  1  0
 10 11  1  0
  5 12  2  0
 12  2  1  0
 10  6  1  0
  1 13  1  0
  1 14  1  0
  1 15  1  0
  6 16  1  6
  7 17  1  0
  7 18  1  0
  9 19  1  0
  9 20  1  0
 10 21  1  1
 11 22  1  0
M  END
$$$$

     RDKit          3D

 22 23  0  0  0  0  0  0  0  0999 V2000
    4.0830    0.2543    0.0863 C   0  0  0  0  0  0  0  0  0  0  0  0
    2.6710    0.0001    0.3632 N   0  0  0  0  0  0  0  0  0  0  0  0
    2.1516   -0.4061    1.5003 N   0  0  0  0  0  0  0  0  0  0  0  0
    0.8245   -0.5291    1.3768 N   0  0  0  0  0  0  0  0  0  0  0  0
    0.4971   -0.1910    0.1272 C   0  0  0  0  0  0  0  0  0  0  0  0
   -0.8402   -0.1665   -0.4882 C   0  0  1  0  0  0  0  0  0  0  0  0
   -1.5143   -1.4982   -0.3232 C   0  0  0  0  0  0  0  0  0  0  0  0
   -2.8528   -1.2118   -0.4307 O   0  0  0  0  0  0  0  0  0  0  0  0
   -3.0980    0.0181    0.1216 C   0  0  0  0  0  0  0  0  0  0  0  0
   -1.8004    0.7644    0.2255 C   0  0  2  0  0  0  0  0  0  0  0  0
   -1.8521    2.0084   -0.3702 O   0  0  0  0  0  0  0  0  0  0  0  0
    1.6602    0.1325   -0.4788 N   0  0  0  0  0  0  0  0  0  0  0  0
    4.2086    1.3606    0.0812 H   0  0  0  0  0  0  0  0  0  0  0  0
    4.3485   -0.1877   -0.8858 H   0  0  0  0  0  0  0  0  0  0  0  0
    4.6842   -0.2458    0.8569 H   0  0  0  0  0  0  0  0  0  0  0  0
   -0.7765    0.1566   -1.5326 H   0  0  0  0  0  0  0  0  0  0  0  0
   -1.1631   -2.1590   -1.1505 H   0  0  0  0  0  0  0  0  0  0  0  0
   -1.2437   -1.9863    0.6160 H   0  0  0  0  0  0  0  0  0  0  0  0
   -3.8225    0.5508   -0.5483 H   0  0  0  0  0  0  0  0  0  0  0  0
   -3.5944   -0.1126    1.1085 H   0  0  0  0  0  0  0  0  0  0  0  0
   -1.4378    0.8574    1.2711 H   0  0  0  0  0  0  0  0  0  0  0  0
   -1.1331    2.5910   -0.0158 H   0  0  0  0  0  0  0  0  0  0  0  0
  1  2  1  0
  2  3  1  0
  3  4  2  0
  4  5  1  0
  5  6  1  0
  6  7  1  0
  7  8  1  0
  8  9  1  0
  9 10  1  0
 10 11  1  0
  5 12  2  0
 12  2  1  0
 10  6  1  0
  1 13  1  0
  1 14  1  0
  1 15  1  0
  6 16  1  6
  7 17  1  0
  7 18  1  0
  9 19  1  0
  9 20  1  0
 10 21  1  1
 11 22  1  0
M  END
$$$$

     RDKit          3D

 22 23  0  0  0  0  0  0  0  0999 V2000
    4.1042   -0.4178   -0.1007 C   0  0  0  0  0  0  0  0  0  0  0  0
    2.6704   -0.5423   -0.3903 N   0  0  0  0  0  0  0  0  0  0  0  0
    2.0544   -1.4809   -1.0702 N   0  0  0  0  0  0  0  0  0  0  0  0
    0.7534   -1.2419   -1.1122 N   0  0  0  0  0  0  0  0  0  0  0  0
    0.5433   -0.1210   -0.4397 C   0  0  0  0  0  0  0  0  0  0  0  0
   -0.7119    0.6192   -0.1604 C   0  0  1  0  0  0  0  0  0  0  0  0
   -1.5084    0.8718   -1.4412 C   0  0  0  0  0  0  0  0  0  0  0  0
   -2.8087    1.0229   -1.0525 O   0  0  0  0  0  0  0  0  0  0  0  0
   -3.0090    0.4399    0.1630 C   0  0  0  0  0  0  0  0  0  0  0  0
   -1.7250   -0.2446    0.5800 C   0  0  2  0  0  0  0  0  0  0  0  0
   -1.5266   -0.2032    1.9542 O   0  0  0  0  0  0  0  0  0  0  0  0
    1.7380    0.3027    0.0024 N   0  0  0  0  0  0  0  0  0  0  0  0
    4.2014    0.1645    0.8504 H   0  0  0  0  0  0  0  0  0  0  0  0
    4.6050    0.2283   -0.8736 H   0  0  0  0  0  0  0  0  0  0  0  0
    4.5935   -1.3915   -0.0014 H   0  0  0  0  0  0  0  0  0  0  0  0
   -0.5579    1.5212    0.4281 H   0  0  0  0  0  0  0  0  0  0  0  0
   -1.1101    1.7314   -2.0098 H   0  0  0  0  0  0  0  0  0  0  0  0
   -1.4383   -0.0876   -2.0192 H   0  0  0  0  0  0  0  0  0  0  0  0
   -3.1630    1.2726    0.9109 H   0  0  0  0  0  0  0  0  0  0  0  0
   -3.8700   -0.2602    0.1731 H   0  0  0  0  0  0  0  0  0  0  0  0
   -1.7421   -1.2789    0.1809 H   0  0  0  0  0  0  0  0  0  0  0  0
   -2.0925   -0.9047    2.3470 H   0  0  0  0  0  0  0  0  0  0  0  0
  1  2  1  0
  2  3  1  0
  3  4  2  0
  4  5  1  0
  5  6  1  0
  6  7  1  0
  7  8  1  0
  8  9  1  0
  9 10  1  0
 10 11  1  0
  5 12  2  0
 12  2  1  0
 10  6  1  0
  1 13  1  0
  1 14  1  0
  1 15  1  0
  6 16  1  1
  7 17  1  0
  7 18  1  0
  9 19  1  0
  9 20  1  0
 10 21  1  6
 11 22  1  0
M  END
$$$$

     RDKit          3D

 22 23  0  0  0  0  0  0  0  0999 V2000
    4.1158   -0.0832    0.2903 C   0  0  0  0  0  0  0  0  0  0  0  0
    2.7090   -0.3496    0.0644 N   0  0  0  0  0  0  0  0  0  0  0  0
    2.1507   -1.5215   -0.1853 N   0  0  0  0  0  0  0  0  0  0  0  0
    0.8305   -1.3853   -0.3394 N   0  0  0  0  0  0  0  0  0  0  0  0
    0.5542   -0.0900   -0.1816 C   0  0  0  0  0  0  0  0  0  0  0  0
   -0.7628    0.5479   -0.2600 C   0  0  1  0  0  0  0  0  0  0  0  0
   -1.4650    0.2266   -1.5819 C   0  0  0  0  0  0  0  0  0  0  0  0
   -2.8100    0.3502   -1.3597 O   0  0  0  0  0  0  0  0  0  0  0  0
   -3.0551    0.3232   -0.0118 C   0  0  0  0  0  0  0  0  0  0  0  0
   -1.7784   -0.1027    0.6829 C   0  0  2  0  0  0  0  0  0  0  0  0
   -1.6748    0.3729    1.9677 O   0  0  0  0  0  0  0  0  0  0  0  0
    1.7060    0.5272    0.0633 N   0  0  0  0  0  0  0  0  0  0  0  0
    4.6547   -1.0427    0.3565 H   0  0  0  0  0  0  0  0  0  0  0  0
    4.2810    0.5310    1.2072 H   0  0  0  0  0  0  0  0  0  0  0  0
    4.4823    0.5371   -0.5555 H   0  0  0  0  0  0  0  0  0  0  0  0
   -0.7297    1.6416   -0.0920 H   0  0  0  0  0  0  0  0  0  0  0  0
   -1.2500   -0.8580   -1.7660 H   0  0  0  0  0  0  0  0  0  0  0  0
   -1.0779    0.8503   -2.4113 H   0  0  0  0  0  0  0  0  0  0  0  0
   -3.2706    1.3839    0.3101 H   0  0  0  0  0  0  0  0  0  0  0  0
   -3.9084   -0.3523    0.2734 H   0  0  0  0  0  0  0  0  0  0  0  0
   -1.6582   -1.1821    0.5728 H   0  0  0  0  0  0  0  0  0  0  0  0
   -2.0434   -0.3248    2.5730 H   0  0  0  0  0  0  0  0  0  0  0  0
  1  2  1  0
  2  3  1  0
  3  4  2  0
  4  5  1  0
  5  6  1  0
  6  7  1  0
  7  8  1  0
  8  9  1  0
  9 10  1  0
 10 11  1  0
  5 12  2  0
 12  2  1  0
 10  6  1  0
  1 13  1  0
  1 14  1  0
  1 15  1  0
  6 16  1  1
  7 17  1  0
  7 18  1  0
  9 19  1  0
  9 20  1  0
 10 21  1  1
 11 22  1  0
M  END
$$$$

     RDKit          3D

 22 23  0  0  0  0  0  0  0  0999 V2000
    3.6333    0.5161   -0.0873 C   0  0  0  0  0  0  0  0  0  0  0  0
    2.4786   -0.3052   -0.4030 N   0  0  0  0  0  0  0  0  0  0  0  0
    2.3848   -1.4202   -1.0852 N   0  0  0  0  0  0  0  0  0  0  0  0
    1.1071   -1.8311   -1.1227 N   0  0  0  0  0  0  0  0  0  0  0  0
    0.3841   -0.9477   -0.4450 C   0  0  0  0  0  0  0  0  0  0  0  0
   -1.0736   -0.8901   -0.1580 C   0  0  1  0  0  0  0  0  0  0  0  0
   -1.2397   -0.8394    1.3606 C   0  0  0  0  0  0  0  0  0  0  0  0
   -2.4726   -0.2162    1.4797 O   0  0  0  0  0  0  0  0  0  0  0  0
   -2.3213    0.9128    0.6765 C   0  0  0  0  0  0  0  0  0  0  0  0
   -1.5792    0.4553   -0.5610 C   0  0  2  0  0  0  0  0  0  0  0  0
   -2.3488    0.4628   -1.6966 O   0  0  0  0  0  0  0  0  0  0  0  0
    1.2539   -0.0122   -0.0087 N   0  0  0  0  0  0  0  0  0  0  0  0
    3.4411    1.5054   -0.5937 H   0  0  0  0  0  0  0  0  0  0  0  0
    3.6342    0.6922    1.0239 H   0  0  0  0  0  0  0  0  0  0  0  0
    4.5758    0.0664   -0.3993 H   0  0  0  0  0  0  0  0  0  0  0  0
   -1.6149   -1.7392   -0.5965 H   0  0  0  0  0  0  0  0  0  0  0  0
   -1.1812   -1.8208    1.8209 H   0  0  0  0  0  0  0  0  0  0  0  0
   -0.4531   -0.1254    1.7144 H   0  0  0  0  0  0  0  0  0  0  0  0
   -3.3069    1.3176    0.3579 H   0  0  0  0  0  0  0  0  0  0  0  0
   -1.7564    1.7125    1.1955 H   0  0  0  0  0  0  0  0  0  0  0  0
   -0.7270    1.1673   -0.7349 H   0  0  0  0  0  0  0  0  0  0  0  0
   -2.8182    1.3392   -1.7377 H   0  0  0  0  0  0  0  0  0  0  0  0
  1  2  1  0
  2  3  1  0
  3  4  2  0
  4  5  1  0
  5  6  1  0
  6  7  1  0
  7  8  1  0
  8  9  1  0
  9 10  1  0
 10 11  1  0
  5 12  2  0
 12  2  1  0
 10  6  1  0
  1 13  1  0
  1 14  1  0
  1 15  1  0
  6 16  1  6
  7 17  1  0
  7 18  1  0
  9 19  1  0
  9 20  1  0
 10 21  1  6
 11 22  1  0
M  END
$$$$

     RDKit          3D

 22 23  0  0  0  0  0  0  0  0999 V2000
    3.6322    0.5933    0.4880 C   0  0  0  0  0  0  0  0  0  0  0  0
    2.4777   -0.2218    0.1035 N   0  0  0  0  0  0  0  0  0  0  0  0
    2.4925   -1.4150   -0.4559 N   0  0  0  0  0  0  0  0  0  0  0  0
    1.2398   -1.7716   -0.6256 N   0  0  0  0  0  0  0  0  0  0  0  0
    0.4441   -0.7910   -0.1675 C   0  0  0  0  0  0  0  0  0  0  0  0
   -1.0337   -0.8507   -0.1984 C   0  0  1  0  0  0  0  0  0  0  0  0
   -1.5426   -0.6326    1.2082 C   0  0  0  0  0  0  0  0  0  0  0  0
   -2.4049    0.4303    1.1767 O   0  0  0  0  0  0  0  0  0  0  0  0
   -2.0152    1.2667    0.1412 C   0  0  0  0  0  0  0  0  0  0  0  0
   -1.6269    0.3230   -0.9465 C   0  0  2  0  0  0  0  0  0  0  0  0
   -2.7709   -0.1188   -1.6142 O   0  0  0  0  0  0  0  0  0  0  0  0
    1.2424    0.1898    0.2940 N   0  0  0  0  0  0  0  0  0  0  0  0
    3.6671    1.4866   -0.1581 H   0  0  0  0  0  0  0  0  0  0  0  0
    4.5701    0.0406    0.3936 H   0  0  0  0  0  0  0  0  0  0  0  0
    3.5086    0.9001    1.5606 H   0  0  0  0  0  0  0  0  0  0  0  0
   -1.3904   -1.7851   -0.6372 H   0  0  0  0  0  0  0  0  0  0  0  0
   -0.7056   -0.5153    1.9288 H   0  0  0  0  0  0  0  0  0  0  0  0
   -2.1391   -1.5324    1.5329 H   0  0  0  0  0  0  0  0  0  0  0  0
   -1.2080    1.9629    0.4337 H   0  0  0  0  0  0  0  0  0  0  0  0
   -2.9120    1.8412   -0.2019 H   0  0  0  0  0  0  0  0  0  0  0  0
   -0.8923    0.7632   -1.6496 H   0  0  0  0  0  0  0  0  0  0  0  0
   -2.6328   -0.1633   -2.6063 H   0  0  0  0  0  0  0  0  0  0  0  0
  1  2  1  0
  2  3  1  0
  3  4  2  0
  4  5  1  0
  5  6  1  0
  6  7  1  0
  7  8  1  0
  8  9  1  0
  9 10  1  0
 10 11  1  0
  5 12  2  0
 12  2  1  0
 10  6  1  0
  1 13  1  0
  1 14  1  0
  1 15  1  0
  6 16  1  6
  7 17  1  0
  7 18  1  0
  9 19  1  0
  9 20  1  0
 10 21  1  6
 11 22  1  0
M  END
$$$$

     RDKit          3D

 22 23  0  0  0  0  0  0  0  0999 V2000
    4.0391   -0.7081    0.2651 C   0  0  0  0  0  0  0  0  0  0  0  0
    2.5766   -0.7507    0.1638 N   0  0  0  0  0  0  0  0  0  0  0  0
    1.8003   -1.7993    0.3646 N   0  0  0  0  0  0  0  0  0  0  0  0
    0.5298   -1.4765    0.1873 N   0  0  0  0  0  0  0  0  0  0  0  0
    0.4830   -0.1731   -0.1396 C   0  0  0  0  0  0  0  0  0  0  0  0
   -0.7664    0.5848   -0.4232 C   0  0  1  0  0  0  0  0  0  0  0  0
   -1.5756   -0.0507   -1.5052 C   0  0  0  0  0  0  0  0  0  0  0  0
   -2.9063    0.1305   -1.2344 O   0  0  0  0  0  0  0  0  0  0  0  0
   -3.0590    0.5820    0.0455 C   0  0  0  0  0  0  0  0  0  0  0  0
   -1.7439    0.4667    0.7560 C   0  0  2  0  0  0  0  0  0  0  0  0
   -1.5290    1.5182    1.6423 O   0  0  0  0  0  0  0  0  0  0  0  0
    1.7609    0.2468   -0.1461 N   0  0  0  0  0  0  0  0  0  0  0  0
    4.4684   -1.0559   -0.7056 H   0  0  0  0  0  0  0  0  0  0  0  0
    4.4155   -1.2418    1.1362 H   0  0  0  0  0  0  0  0  0  0  0  0
    4.3563    0.3644    0.3508 H   0  0  0  0  0  0  0  0  0  0  0  0
   -0.5680    1.6329   -0.6678 H   0  0  0  0  0  0  0  0  0  0  0  0
   -1.2876    0.3459   -2.5218 H   0  0  0  0  0  0  0  0  0  0  0  0
   -1.3210   -1.1404   -1.5264 H   0  0  0  0  0  0  0  0  0  0  0  0
   -3.8800    0.0556    0.6010 H   0  0  0  0  0  0  0  0  0  0  0  0
   -3.3401    1.6757    0.0747 H   0  0  0  0  0  0  0  0  0  0  0  0
   -1.5754   -0.5262    1.2063 H   0  0  0  0  0  0  0  0  0  0  0  0
   -0.8775    1.3189    2.3354 H   0  0  0  0  0  0  0  0  0  0  0  0
  1  2  1  0
  2  3  1  0
  3  4  2  0
  4  5  1  0
  5  6  1  0
  6  7  1  0
  7  8  1  0
  8  9  1  0
  9 10  1  0
 10 11  1  0
  5 12  2  0
 12  2  1  0
 10  6  1  0
  1 13  1  0
  1 14  1  0
  1 15  1  0
  6 16  1  6
  7 17  1  0
  7 18  1  0
  9 19  1  0
  9 20  1  0
 10 21  1  1
 11 22  1  0
M  END
$$$$

     RDKit          3D

 22 23  0  0  0  0  0  0  0  0999 V2000
    4.0900   -0.0376   -0.3295 C   0  0  0  0  0  0  0  0  0  0  0  0
    2.6567   -0.2330   -0.0790 N   0  0  0  0  0  0  0  0  0  0  0  0
    2.1615   -0.8404    0.9892 N   0  0  0  0  0  0  0  0  0  0  0  0
    0.8343   -0.8353    0.8828 N   0  0  0  0  0  0  0  0  0  0  0  0
    0.4799   -0.2209   -0.2603 C   0  0  0  0  0  0  0  0  0  0  0  0
   -0.9116   -0.0395   -0.6923 C   0  0  1  0  0  0  0  0  0  0  0  0
   -1.7150   -1.2998   -0.7019 C   0  0  0  0  0  0  0  0  0  0  0  0
   -2.9601   -1.0274   -0.1760 O   0  0  0  0  0  0  0  0  0  0  0  0
   -3.0981    0.3338   -0.0527 C   0  0  0  0  0  0  0  0  0  0  0  0
   -1.6972    0.7795    0.3419 C   0  0  2  0  0  0  0  0  0  0  0  0
   -1.5172    2.1413    0.1480 O   0  0  0  0  0  0  0  0  0  0  0  0
    1.6411    0.1427   -0.8366 N   0  0  0  0  0  0  0  0  0  0  0  0
    4.6838   -0.8846    0.0249 H   0  0  0  0  0  0  0  0  0  0  0  0
    4.2319    0.1209   -1.4242 H   0  0  0  0  0  0  0  0  0  0  0  0
    4.3600    0.9288    0.1485 H   0  0  0  0  0  0  0  0  0  0  0  0
   -1.0294    0.4781   -1.6420 H   0  0  0  0  0  0  0  0  0  0  0  0
   -1.8607   -1.6342   -1.7589 H   0  0  0  0  0  0  0  0  0  0  0  0
   -1.2135   -2.1420   -0.1763 H   0  0  0  0  0  0  0  0  0  0  0  0
   -3.3222    0.8298   -1.0125 H   0  0  0  0  0  0  0  0  0  0  0  0
   -3.7745    0.6444    0.7593 H   0  0  0  0  0  0  0  0  0  0  0  0
   -1.4867    0.4477    1.3633 H   0  0  0  0  0  0  0  0  0  0  0  0
   -0.5530    2.3476    0.0545 H   0  0  0  0  0  0  0  0  0  0  0  0
  1  2  1  0
  2  3  1  0
  3  4  2  0
  4  5  1  0
  5  6  1  0
  6  7  1  0
  7  8  1  0
  8  9  1  0
  9 10  1  0
 10 11  1  0
  5 12  2  0
 12  2  1  0
 10  6  1  0
  1 13  1  0
  1 14  1  0
  1 15  1  0
  6 16  1  6
  7 17  1  0
  7 18  1  0
  9 19  1  0
  9 20  1  0
 10 21  1  1
 11 22  1  0
M  END
$$$$
