
     RDKit          3D

 27 28  0  0  0  0  0  0  0  0999 V2000
    5.1587   -0.6243    0.3308 N   0  0  0  0  0  0  0  0  0  0  0  0
    3.7360   -0.5369    0.3958 C   0  0  0  0  0  0  0  0  0  0  0  0
    3.0867   -0.2122    1.5264 N   0  0  0  0  0  0  0  0  0  0  0  0
    1.7883   -0.2269    1.2207 N   0  0  0  0  0  0  0  0  0  0  0  0
    1.5905   -0.5459   -0.0509 C   0  0  0  0  0  0  0  0  0  0  0  0
    0.3808   -0.6813   -0.7595 N   0  0  0  0  0  0  0  0  0  0  0  0
   -0.8889   -0.4426   -0.1168 C   0  0  2  0  0  0  0  0  0  0  0  0
   -2.0423   -0.7942   -1.0454 C   0  0  0  0  0  0  0  0  0  0  0  0
   -3.1759   -0.0492   -0.7052 O   0  0  0  0  0  0  0  0  0  0  0  0
   -3.2062    0.2557    0.6529 C   0  0  0  0  0  0  0  0  0  0  0  0
   -2.1530    1.2841    1.0371 C   0  0  0  0  0  0  0  0  0  0  0  0
   -0.9956    1.0614    0.0897 C   0  0  2  0  0  0  0  0  0  0  0  0
   -1.3168    1.7096   -1.0979 O   0  0  0  0  0  0  0  0  0  0  0  0
    2.8385   -0.7409   -0.5646 N   0  0  0  0  0  0  0  0  0  0  0  0
    5.5963   -1.5702    0.3400 H   0  0  0  0  0  0  0  0  0  0  0  0
    5.7173    0.2465    0.2764 H   0  0  0  0  0  0  0  0  0  0  0  0
    1.0449   -0.0159    1.9151 H   0  0  0  0  0  0  0  0  0  0  0  0
    0.3956   -0.9557   -1.7556 H   0  0  0  0  0  0  0  0  0  0  0  0
   -0.9346   -0.9312    0.8547 H   0  0  0  0  0  0  0  0  0  0  0  0
   -1.7673   -0.5640   -2.0792 H   0  0  0  0  0  0  0  0  0  0  0  0
   -2.3234   -1.8641   -0.9016 H   0  0  0  0  0  0  0  0  0  0  0  0
   -4.1949    0.6881    0.8788 H   0  0  0  0  0  0  0  0  0  0  0  0
   -3.0921   -0.6868    1.2113 H   0  0  0  0  0  0  0  0  0  0  0  0
   -2.5383    2.3224    0.9568 H   0  0  0  0  0  0  0  0  0  0  0  0
   -1.8011    1.0409    2.0565 H   0  0  0  0  0  0  0  0  0  0  0  0
   -0.0561    1.4670    0.4542 H   0  0  0  0  0  0  0  0  0  0  0  0
   -0.8473    1.3668   -1.8757 H   0  0  0  0  0  0  0  0  0  0  0  0
  1  2  1  0
  2  3  2  0
  3  4  1  0
  4  5  1  0
  5  6  1  0
  6  7  1  0
  7  8  1  0
  8  9  1  0
  9 10  1  0
 10 11  1  0
 11 12  1  0
 12 13  1  0
  5 14  2  0
 14  2  1  0
 12  7  1  0
  1 15  1  0
  1 16  1  0
  4 17  1  0
  6 18  1  0
  7 19  1  1
  8 20  1  0
  8 21  1  0
 10 22  1  0
 10 23  1  0
 11 24  1  0
 11 25  1  0
 12 26  1  1
 13 27  1  0
M  END
$$$$

     RDKit          3D

 27 28  0  0  0  0  0  0  0  0999 V2000
    5.0857   -0.9913   -0.3616 N   0  0  0  0  0  0  0  0  0  0  0  0
    3.6810   -0.7773   -0.5214 C   0  0  0  0  0  0  0  0  0  0  0  0
    2.7999   -1.4976   -1.2203 N   0  0  0  0  0  0  0  0  0  0  0  0
    1.6106   -0.9425   -1.0936 N   0  0  0  0  0  0  0  0  0  0  0  0
    1.7006    0.1402   -0.3151 C   0  0  0  0  0  0  0  0  0  0  0  0
    0.6232    0.9972    0.0422 N   0  0  0  0  0  0  0  0  0  0  0  0
   -0.7440    0.7576   -0.4226 C   0  0  2  0  0  0  0  0  0  0  0  0
   -1.6103    1.8794    0.1000 C   0  0  0  0  0  0  0  0  0  0  0  0
   -2.9288    1.7675   -0.3203 O   0  0  0  0  0  0  0  0  0  0  0  0
   -3.4267    0.4794   -0.1355 C   0  0  0  0  0  0  0  0  0  0  0  0
   -2.5472   -0.3062    0.8216 C   0  0  0  0  0  0  0  0  0  0  0  0
   -1.2354   -0.5491    0.1143 C   0  0  2  0  0  0  0  0  0  0  0  0
   -0.3071   -1.1690    0.9508 O   0  0  0  0  0  0  0  0  0  0  0  0
    2.9941    0.2390    0.0392 N   0  0  0  0  0  0  0  0  0  0  0  0
    5.7418   -0.1926   -0.2498 H   0  0  0  0  0  0  0  0  0  0  0  0
    5.4551   -1.9636   -0.3576 H   0  0  0  0  0  0  0  0  0  0  0  0
    0.7519   -1.3488   -1.5699 H   0  0  0  0  0  0  0  0  0  0  0  0
    0.8492    1.8126    0.6558 H   0  0  0  0  0  0  0  0  0  0  0  0
   -0.7173    0.7285   -1.5255 H   0  0  0  0  0  0  0  0  0  0  0  0
   -1.4814    2.0013    1.1818 H   0  0  0  0  0  0  0  0  0  0  0  0
   -1.2153    2.8192   -0.3673 H   0  0  0  0  0  0  0  0  0  0  0  0
   -3.3506   -0.0312   -1.1173 H   0  0  0  0  0  0  0  0  0  0  0  0
   -4.4950    0.4570    0.1550 H   0  0  0  0  0  0  0  0  0  0  0  0
   -2.4224    0.2892    1.7415 H   0  0  0  0  0  0  0  0  0  0  0  0
   -3.0285   -1.2572    1.1275 H   0  0  0  0  0  0  0  0  0  0  0  0
   -1.4910   -1.2102   -0.7563 H   0  0  0  0  0  0  0  0  0  0  0  0
   -0.2919   -2.1315    0.7587 H   0  0  0  0  0  0  0  0  0  0  0  0
  1  2  1  0
  2  3  2  0
  3  4  1  0
  4  5  1  0
  5  6  1  0
  6  7  1  0
  7  8  1  0
  8  9  1  0
  9 10  1  0
 10 11  1  0
 11 12  1  0
 12 13  1  0
  5 14  2  0
 14  2  1  0
 12  7  1  0
  1 15  1  0
  1 16  1  0
  4 17  1  0
  6 18  1  0
  7 19  1  6
  8 20  1  0
  8 21  1  0
 10 22  1  0
 10 23  1  0
 11 24  1  0
 11 25  1  0
 12 26  1  6
 13 27  1  0
M  END
$$$$

     RDKit          3D

 27 28  0  0  0  0  0  0  0  0999 V2000
    5.0243   -0.7182    0.8489 N   0  0  0  0  0  0  0  0  0  0  0  0
    3.7104   -0.2462    0.5702 C   0  0  0  0  0  0  0  0  0  0  0  0
    3.3112    1.0048    0.8102 N   0  0  0  0  0  0  0  0  0  0  0  0
    2.0550    1.1294    0.4480 N   0  0  0  0  0  0  0  0  0  0  0  0
    1.6409   -0.0419   -0.0267 C   0  0  0  0  0  0  0  0  0  0  0  0
    0.3510   -0.3736   -0.5368 N   0  0  0  0  0  0  0  0  0  0  0  0
   -0.7182    0.6030   -0.5874 C   0  0  2  0  0  0  0  0  0  0  0  0
   -1.0318    1.0421    0.7890 C   0  0  0  0  0  0  0  0  0  0  0  0
   -2.2549    0.8232    1.3037 O   0  0  0  0  0  0  0  0  0  0  0  0
   -3.1359   -0.0017    0.7027 C   0  0  0  0  0  0  0  0  0  0  0  0
   -2.5397   -0.9389   -0.3223 C   0  0  0  0  0  0  0  0  0  0  0  0
   -1.8674   -0.0086   -1.3374 C   0  0  2  0  0  0  0  0  0  0  0  0
   -1.4929   -0.6691   -2.4747 O   0  0  0  0  0  0  0  0  0  0  0  0
    2.6672   -0.9006    0.0473 N   0  0  0  0  0  0  0  0  0  0  0  0
    5.8741   -0.1293    0.6391 H   0  0  0  0  0  0  0  0  0  0  0  0
    5.1542   -1.6485    1.2620 H   0  0  0  0  0  0  0  0  0  0  0  0
    1.4889    2.0095    0.5247 H   0  0  0  0  0  0  0  0  0  0  0  0
    0.1578   -1.3332   -0.8829 H   0  0  0  0  0  0  0  0  0  0  0  0
   -0.3484    1.4522   -1.2356 H   0  0  0  0  0  0  0  0  0  0  0  0
   -0.8747    2.1666    0.8227 H   0  0  0  0  0  0  0  0  0  0  0  0
   -0.2387    0.6776    1.5117 H   0  0  0  0  0  0  0  0  0  0  0  0
   -3.7848   -0.5789    1.3952 H   0  0  0  0  0  0  0  0  0  0  0  0
   -3.8625    0.6425    0.1214 H   0  0  0  0  0  0  0  0  0  0  0  0
   -3.2978   -1.5732   -0.7715 H   0  0  0  0  0  0  0  0  0  0  0  0
   -1.7482   -1.5211    0.2028 H   0  0  0  0  0  0  0  0  0  0  0  0
   -2.5980    0.7758   -1.5750 H   0  0  0  0  0  0  0  0  0  0  0  0
   -1.6410   -1.6436   -2.4417 H   0  0  0  0  0  0  0  0  0  0  0  0
  1  2  1  0
  2  3  2  0
  3  4  1  0
  4  5  1  0
  5  6  1  0
  6  7  1  0
  7  8  1  0
  8  9  1  0
  9 10  1  0
 10 11  1  0
 11 12  1  0
 12 13  1  0
  5 14  2  0
 14  2  1  0
 12  7  1  0
  1 15  1  0
  1 16  1  0
  4 17  1  0
  6 18  1  0
  7 19  1  6
  8 20  1  0
  8 21  1  0
 10 22  1  0
 10 23  1  0
 11 24  1  0
 11 25  1  0
 12 26  1  6
 13 27  1  0
M  END
$$$$

     RDKit          3D

 27 28  0  0  0  0  0  0  0  0999 V2000
    5.1681    0.8420   -0.2122 N   0  0  0  0  0  0  0  0  0  0  0  0
    3.8108    0.4433    0.0610 C   0  0  0  0  0  0  0  0  0  0  0  0
    3.2528    0.2533    1.2677 N   0  0  0  0  0  0  0  0  0  0  0  0
    1.9708   -0.1132    1.1054 N   0  0  0  0  0  0  0  0  0  0  0  0
    1.7004   -0.1598   -0.2049 C   0  0  0  0  0  0  0  0  0  0  0  0
    0.4716   -0.5052   -0.8784 N   0  0  0  0  0  0  0  0  0  0  0  0
   -0.7225   -0.8630   -0.1448 C   0  0  2  0  0  0  0  0  0  0  0  0
   -1.7783   -1.2395   -1.1712 C   0  0  0  0  0  0  0  0  0  0  0  0
   -2.9240   -1.5573   -0.4080 O   0  0  0  0  0  0  0  0  0  0  0  0
   -3.5067   -0.3326   -0.1025 C   0  0  0  0  0  0  0  0  0  0  0  0
   -2.6112    0.6611    0.5283 C   0  0  0  0  0  0  0  0  0  0  0  0
   -1.1888    0.2670    0.7329 C   0  0  2  0  0  0  0  0  0  0  0  0
   -0.3534    1.3583    0.5016 O   0  0  0  0  0  0  0  0  0  0  0  0
    2.8367    0.1831   -0.8224 N   0  0  0  0  0  0  0  0  0  0  0  0
    5.3414    1.8505   -0.4420 H   0  0  0  0  0  0  0  0  0  0  0  0
    5.9209    0.1272   -0.1732 H   0  0  0  0  0  0  0  0  0  0  0  0
    1.3045   -0.3270    1.8769 H   0  0  0  0  0  0  0  0  0  0  0  0
    0.4396   -0.4974   -1.9209 H   0  0  0  0  0  0  0  0  0  0  0  0
   -0.5307   -1.7745    0.4588 H   0  0  0  0  0  0  0  0  0  0  0  0
   -1.4286   -2.0978   -1.7463 H   0  0  0  0  0  0  0  0  0  0  0  0
   -1.9741   -0.3364   -1.7844 H   0  0  0  0  0  0  0  0  0  0  0  0
   -3.9145    0.0502   -1.0852 H   0  0  0  0  0  0  0  0  0  0  0  0
   -4.4132   -0.5624    0.4956 H   0  0  0  0  0  0  0  0  0  0  0  0
   -3.0763    0.9581    1.5146 H   0  0  0  0  0  0  0  0  0  0  0  0
   -2.6328    1.5999   -0.0746 H   0  0  0  0  0  0  0  0  0  0  0  0
   -1.0591   -0.0261    1.7921 H   0  0  0  0  0  0  0  0  0  0  0  0
   -0.1036    1.7984    1.3463 H   0  0  0  0  0  0  0  0  0  0  0  0
  1  2  1  0
  2  3  2  0
  3  4  1  0
  4  5  1  0
  5  6  1  0
  6  7  1  0
  7  8  1  0
  8  9  1  0
  9 10  1  0
 10 11  1  0
 11 12  1  0
 12 13  1  0
  5 14  2  0
 14  2  1  0
 12  7  1  0
  1 15  1  0
  1 16  1  0
  4 17  1  0
  6 18  1  0
  7 19  1  1
  8 20  1  0
  8 21  1  0
 10 22  1  0
 10 23  1  0
 11 24  1  0
 11 25  1  0
 12 26  1  1
 13 27  1  0
M  END
$$$$

     RDKit          3D

 27 28  0  0  0  0  0  0  0  0999 V2000
    4.4475    1.1218   -0.0449 N   0  0  0  0  0  0  0  0  0  0  0  0
    3.3018    0.3088   -0.3161 C   0  0  0  0  0  0  0  0  0  0  0  0
    3.2641   -0.6555   -1.2535 N   0  0  0  0  0  0  0  0  0  0  0  0
    2.0917   -1.2349   -1.2809 N   0  0  0  0  0  0  0  0  0  0  0  0
    1.3285   -0.6270   -0.3233 C   0  0  0  0  0  0  0  0  0  0  0  0
   -0.0114   -1.0117   -0.0798 N   0  0  0  0  0  0  0  0  0  0  0  0
   -0.8048   -0.3529    0.9345 C   0  0  2  0  0  0  0  0  0  0  0  0
   -2.1438   -1.1153    1.0810 C   0  0  0  0  0  0  0  0  0  0  0  0
   -3.1574   -0.4038    0.4508 O   0  0  0  0  0  0  0  0  0  0  0  0
   -2.8285   -0.2116   -0.8772 C   0  0  0  0  0  0  0  0  0  0  0  0
   -1.6504    0.7402   -1.0414 C   0  0  0  0  0  0  0  0  0  0  0  0
   -1.1578    1.0318    0.3682 C   0  0  2  0  0  0  0  0  0  0  0  0
   -0.0211    1.8107    0.3980 O   0  0  0  0  0  0  0  0  0  0  0  0
    2.0965    0.3079    0.2447 N   0  0  0  0  0  0  0  0  0  0  0  0
    4.4193    2.1537   -0.0526 H   0  0  0  0  0  0  0  0  0  0  0  0
    5.3830    0.6824    0.1777 H   0  0  0  0  0  0  0  0  0  0  0  0
    1.7910   -2.0229   -1.9212 H   0  0  0  0  0  0  0  0  0  0  0  0
   -0.4524   -1.7856   -0.6339 H   0  0  0  0  0  0  0  0  0  0  0  0
   -0.3150   -0.2761    1.9123 H   0  0  0  0  0  0  0  0  0  0  0  0
   -2.3676   -1.3042    2.1406 H   0  0  0  0  0  0  0  0  0  0  0  0
   -2.0112   -2.1352    0.6149 H   0  0  0  0  0  0  0  0  0  0  0  0
   -3.6991    0.2806   -1.3642 H   0  0  0  0  0  0  0  0  0  0  0  0
   -2.6540   -1.1882   -1.3494 H   0  0  0  0  0  0  0  0  0  0  0  0
   -0.8227    0.1718   -1.5466 H   0  0  0  0  0  0  0  0  0  0  0  0
   -1.9040    1.6390   -1.6031 H   0  0  0  0  0  0  0  0  0  0  0  0
   -1.9600    1.5016    0.9774 H   0  0  0  0  0  0  0  0  0  0  0  0
   -0.1622    2.5748    0.9906 H   0  0  0  0  0  0  0  0  0  0  0  0
  1  2  1  0
  2  3  2  0
  3  4  1  0
  4  5  1  0
  5  6  1  0
  6  7  1  0
  7  8  1  0
  8  9  1  0
  9 10  1  0
 10 11  1  0
 11 12  1  0
 12 13  1  0
  5 14  2  0
 14  2  1  0
 12  7  1  0
  1 15  1  0
  1 16  1  0
  4 17  1  0
  6 18  1  0
  7 19  1  1
  8 20  1  0
  8 21  1  0
 10 22  1  0
 10 23  1  0
 11 24  1  0
 11 25  1  0
 12 26  1  1
 13 27  1  0
M  END
$$$$

     RDKit          3D

 27 28  0  0  0  0  0  0  0  0999 V2000
    5.3069   -0.3337   -0.8196 N   0  0  0  0  0  0  0  0  0  0  0  0
    3.9215   -0.1654   -0.5470 C   0  0  0  0  0  0  0  0  0  0  0  0
    3.3413    0.1663    0.6014 N   0  0  0  0  0  0  0  0  0  0  0  0
    2.0133    0.2209    0.4401 N   0  0  0  0  0  0  0  0  0  0  0  0
    1.7136   -0.0779   -0.8276 C   0  0  0  0  0  0  0  0  0  0  0  0
    0.4717   -0.1506   -1.4959 N   0  0  0  0  0  0  0  0  0  0  0  0
   -0.8216    0.0669   -0.9881 C   0  0  2  0  0  0  0  0  0  0  0  0
   -1.0892    1.3926   -0.3261 C   0  0  0  0  0  0  0  0  0  0  0  0
   -2.4395    1.6670   -0.3182 O   0  0  0  0  0  0  0  0  0  0  0  0
   -3.2867    0.6822   -0.0043 C   0  0  0  0  0  0  0  0  0  0  0  0
   -2.8932   -0.7338   -0.1266 C   0  0  0  0  0  0  0  0  0  0  0  0
   -1.3687   -0.9622   -0.0255 C   0  0  2  0  0  0  0  0  0  0  0  0
   -1.0745   -0.6834    1.3044 O   0  0  0  0  0  0  0  0  0  0  0  0
    2.9230   -0.3153   -1.4246 N   0  0  0  0  0  0  0  0  0  0  0  0
    5.6455   -0.2925   -1.7875 H   0  0  0  0  0  0  0  0  0  0  0  0
    5.9340   -0.4949   -0.0121 H   0  0  0  0  0  0  0  0  0  0  0  0
    1.3338    0.4642    1.1982 H   0  0  0  0  0  0  0  0  0  0  0  0
    0.5743   -0.4158   -2.5466 H   0  0  0  0  0  0  0  0  0  0  0  0
   -1.5248    0.0781   -1.9026 H   0  0  0  0  0  0  0  0  0  0  0  0
   -0.8047    1.2929    0.7417 H   0  0  0  0  0  0  0  0  0  0  0  0
   -0.4754    2.1993   -0.7557 H   0  0  0  0  0  0  0  0  0  0  0  0
   -4.2483    0.8554   -0.5771 H   0  0  0  0  0  0  0  0  0  0  0  0
   -3.6182    0.8391    1.0694 H   0  0  0  0  0  0  0  0  0  0  0  0
   -3.1710   -1.1506   -1.1168 H   0  0  0  0  0  0  0  0  0  0  0  0
   -3.3809   -1.3995    0.6321 H   0  0  0  0  0  0  0  0  0  0  0  0
   -1.1312   -1.9919   -0.3138 H   0  0  0  0  0  0  0  0  0  0  0  0
   -1.8510   -0.7577    1.9053 H   0  0  0  0  0  0  0  0  0  0  0  0
  1  2  1  0
  2  3  2  0
  3  4  1  0
  4  5  1  0
  5  6  1  0
  6  7  1  0
  7  8  1  0
  8  9  1  0
  9 10  1  0
 10 11  1  0
 11 12  1  0
 12 13  1  0
  5 14  2  0
 14  2  1  0
 12  7  1  0
  1 15  1  0
  1 16  1  0
  4 17  1  0
  6 18  1  0
  7 19  1  6
  8 20  1  0
  8 21  1  0
 10 22  1  0
 10 23  1  0
 11 24  1  0
 11 25  1  0
 12 26  1  6
 13 27  1  0
M  END
$$$$

     RDKit          3D

 27 28  0  0  0  0  0  0  0  0999 V2000
    4.2966    0.2540    1.8447 N   0  0  0  0  0  0  0  0  0  0  0  0
    3.3977   -0.3699    0.9379 C   0  0  0  0  0  0  0  0  0  0  0  0
    3.5426   -1.5098    0.2453 N   0  0  0  0  0  0  0  0  0  0  0  0
    2.4563   -1.7161   -0.4803 N   0  0  0  0  0  0  0  0  0  0  0  0
    1.5717   -0.7040   -0.2732 C   0  0  0  0  0  0  0  0  0  0  0  0
    0.2943   -0.5504   -0.8586 N   0  0  0  0  0  0  0  0  0  0  0  0
   -0.5133    0.5711   -0.5359 C   0  0  2  0  0  0  0  0  0  0  0  0
   -0.7743    0.5425    0.9695 C   0  0  0  0  0  0  0  0  0  0  0  0
   -2.1026    0.7355    1.2721 O   0  0  0  0  0  0  0  0  0  0  0  0
   -2.9405   -0.2411    0.7760 C   0  0  0  0  0  0  0  0  0  0  0  0
   -2.6891   -0.5311   -0.6897 C   0  0  0  0  0  0  0  0  0  0  0  0
   -1.8381    0.6107   -1.2167 C   0  0  2  0  0  0  0  0  0  0  0  0
   -1.7582    0.6080   -2.5966 O   0  0  0  0  0  0  0  0  0  0  0  0
    2.1999    0.1091    0.6155 N   0  0  0  0  0  0  0  0  0  0  0  0
    4.0884    0.2688    2.8605 H   0  0  0  0  0  0  0  0  0  0  0  0
    5.1674    0.6930    1.4504 H   0  0  0  0  0  0  0  0  0  0  0  0
    2.2808   -2.5205   -1.1188 H   0  0  0  0  0  0  0  0  0  0  0  0
   -0.0372   -1.2691   -1.5234 H   0  0  0  0  0  0  0  0  0  0  0  0
    0.0400    1.4982   -0.8188 H   0  0  0  0  0  0  0  0  0  0  0  0
   -0.1916    1.3591    1.4196 H   0  0  0  0  0  0  0  0  0  0  0  0
   -0.4232   -0.3977    1.4272 H   0  0  0  0  0  0  0  0  0  0  0  0
   -3.9885    0.1721    0.8395 H   0  0  0  0  0  0  0  0  0  0  0  0
   -2.9621   -1.1629    1.3929 H   0  0  0  0  0  0  0  0  0  0  0  0
   -3.6456   -0.5418   -1.2730 H   0  0  0  0  0  0  0  0  0  0  0  0
   -2.2153   -1.5137   -0.8423 H   0  0  0  0  0  0  0  0  0  0  0  0
   -2.3564    1.5485   -0.8833 H   0  0  0  0  0  0  0  0  0  0  0  0
   -0.8995    0.9345   -2.9401 H   0  0  0  0  0  0  0  0  0  0  0  0
  1  2  1  0
  2  3  2  0
  3  4  1  0
  4  5  1  0
  5  6  1  0
  6  7  1  0
  7  8  1  0
  8  9  1  0
  9 10  1  0
 10 11  1  0
 11 12  1  0
 12 13  1  0
  5 14  2  0
 14  2  1  0
 12  7  1  0
  1 15  1  0
  1 16  1  0
  4 17  1  0
  6 18  1  0
  7 19  1  1
  8 20  1  0
  8 21  1  0
 10 22  1  0
 10 23  1  0
 11 24  1  0
 11 25  1  0
 12 26  1  6
 13 27  1  0
M  END
$$$$

     RDKit          3D

 27 28  0  0  0  0  0  0  0  0999 V2000
    5.3595   -0.4219   -0.3444 N   0  0  0  0  0  0  0  0  0  0  0  0
    3.9553   -0.3083   -0.0607 C   0  0  0  0  0  0  0  0  0  0  0  0
    3.4152   -0.6497    1.1118 N   0  0  0  0  0  0  0  0  0  0  0  0
    2.0895   -0.4185    1.0379 N   0  0  0  0  0  0  0  0  0  0  0  0
    1.8305    0.0605   -0.1760 C   0  0  0  0  0  0  0  0  0  0  0  0
    0.5778    0.4608   -0.6756 N   0  0  0  0  0  0  0  0  0  0  0  0
   -0.6250    0.3431    0.1089 C   0  0  2  0  0  0  0  0  0  0  0  0
   -1.0534   -1.0757    0.2398 C   0  0  0  0  0  0  0  0  0  0  0  0
   -2.2332   -1.1897    0.9677 O   0  0  0  0  0  0  0  0  0  0  0  0
   -3.2973   -0.5465    0.3521 C   0  0  0  0  0  0  0  0  0  0  0  0
   -3.0707    0.8797   -0.0017 C   0  0  0  0  0  0  0  0  0  0  0  0
   -1.6957    1.2008   -0.5179 C   0  0  2  0  0  0  0  0  0  0  0  0
   -1.6251    1.1177   -1.9097 O   0  0  0  0  0  0  0  0  0  0  0  0
    2.9906    0.1301   -0.8613 N   0  0  0  0  0  0  0  0  0  0  0  0
    5.9656    0.4064   -0.1994 H   0  0  0  0  0  0  0  0  0  0  0  0
    5.7226   -1.3321   -0.6864 H   0  0  0  0  0  0  0  0  0  0  0  0
    1.4543   -0.6037    1.8489 H   0  0  0  0  0  0  0  0  0  0  0  0
    0.5348    0.8610   -1.6658 H   0  0  0  0  0  0  0  0  0  0  0  0
   -0.3988    0.7301    1.1485 H   0  0  0  0  0  0  0  0  0  0  0  0
   -0.2821   -1.6571    0.7581 H   0  0  0  0  0  0  0  0  0  0  0  0
   -1.1494   -1.5289   -0.7758 H   0  0  0  0  0  0  0  0  0  0  0  0
   -3.6541   -1.1422   -0.5388 H   0  0  0  0  0  0  0  0  0  0  0  0
   -4.1510   -0.5849    1.0720 H   0  0  0  0  0  0  0  0  0  0  0  0
   -3.3422    1.5777    0.8439 H   0  0  0  0  0  0  0  0  0  0  0  0
   -3.7880    1.1474   -0.8217 H   0  0  0  0  0  0  0  0  0  0  0  0
   -1.4739    2.2543   -0.2478 H   0  0  0  0  0  0  0  0  0  0  0  0
   -2.0556    0.2895   -2.2397 H   0  0  0  0  0  0  0  0  0  0  0  0
  1  2  1  0
  2  3  2  0
  3  4  1  0
  4  5  1  0
  5  6  1  0
  6  7  1  0
  7  8  1  0
  8  9  1  0
  9 10  1  0
 10 11  1  0
 11 12  1  0
 12 13  1  0
  5 14  2  0
 14  2  1  0
 12  7  1  0
  1 15  1  0
  1 16  1  0
  4 17  1  0
  6 18  1  0
  7 19  1  1
  8 20  1  0
  8 21  1  0
 10 22  1  0
 10 23  1  0
 11 24  1  0
 11 25  1  0
 12 26  1  6
 13 27  1  0
M  END
$$$$
