
     RDKit          3D

 28 28  0  0  0  0  0  0  0  0999 V2000
    3.6954   -1.1318   -0.2921 C   0  0  0  0  0  0  0  0  0  0  0  0
    2.1910   -0.3798   -0.9873 S   0  0  0  0  0  4  0  0  0  0  0  0
    1.8117   -1.2609   -2.1944 O   0  0  0  0  0  0  0  0  0  0  0  0
    0.9464   -0.5493    0.1955 N   0  0  0  0  0  0  0  0  0  0  0  0
   -0.0692    0.4837    0.1158 C   0  0  2  0  0  0  0  0  0  0  0  0
    0.5170    1.8625    0.3152 C   0  0  0  0  0  0  0  0  0  0  0  0
   -0.4724    2.8106    0.2330 O   0  0  0  0  0  0  0  0  0  0  0  0
   -1.0811    0.1552    1.2114 C   0  0  0  0  0  0  0  0  0  0  0  0
   -1.6173   -1.2321    0.8288 C   0  0  0  0  0  0  0  0  0  0  0  0
   -2.5976   -0.9831   -0.3122 C   0  0  0  0  0  0  0  0  0  0  0  0
   -2.1982    0.1377   -1.0420 N   0  0  0  0  0  0  0  0  0  0  0  0
   -0.8314    0.4025   -1.1957 C   0  0  0  0  0  0  0  0  0  0  0  0
    4.5625   -0.9009   -0.9086 H   0  0  0  0  0  0  0  0  0  0  0  0
    3.7791   -0.7644    0.7598 H   0  0  0  0  0  0  0  0  0  0  0  0
    3.4949   -2.2326   -0.2105 H   0  0  0  0  0  0  0  0  0  0  0  0
    1.3518   -0.5052    1.1572 H   0  0  0  0  0  0  0  0  0  0  0  0
    1.2524    2.0471   -0.4707 H   0  0  0  0  0  0  0  0  0  0  0  0
    0.9910    1.9162    1.2969 H   0  0  0  0  0  0  0  0  0  0  0  0
   -0.1012    3.6931    0.5290 H   0  0  0  0  0  0  0  0  0  0  0  0
   -1.9189    0.8708    1.1970 H   0  0  0  0  0  0  0  0  0  0  0  0
   -0.5778    0.1121    2.1987 H   0  0  0  0  0  0  0  0  0  0  0  0
   -0.7828   -1.8345    0.3667 H   0  0  0  0  0  0  0  0  0  0  0  0
   -2.0630   -1.7532    1.6732 H   0  0  0  0  0  0  0  0  0  0  0  0
   -3.5798   -0.7576    0.1976 H   0  0  0  0  0  0  0  0  0  0  0  0
   -2.7753   -1.9170   -0.9041 H   0  0  0  0  0  0  0  0  0  0  0  0
   -2.8790    0.7021   -1.5207 H   0  0  0  0  0  0  0  0  0  0  0  0
   -0.3536   -0.3623   -1.8632 H   0  0  0  0  0  0  0  0  0  0  0  0
   -0.6948    1.3710   -1.7212 H   0  0  0  0  0  0  0  0  0  0  0  0
  1  2  1  0
  2  3  2  0
  2  4  1  1
  5  4  1  6
  5  6  1  0
  6  7  1  0
  5  8  1  0
  8  9  1  0
  9 10  1  0
 10 11  1  0
 11 12  1  0
 12  5  1  0
  1 13  1  0
  1 14  1  0
  1 15  1  0
  4 16  1  0
  6 17  1  0
  6 18  1  0
  7 19  1  0
  8 20  1  0
  8 21  1  0
  9 22  1  0
  9 23  1  0
 10 24  1  0
 10 25  1  0
 11 26  1  0
 12 27  1  0
 12 28  1  0
M  END
$$$$

     RDKit          3D

 28 28  0  0  0  0  0  0  0  0999 V2000
    3.5647    0.7134    0.9289 C   0  0  0  0  0  0  0  0  0  0  0  0
    2.4112    0.4856   -0.4528 S   0  0  0  0  0  4  0  0  0  0  0  0
    3.2306   -0.2086   -1.5618 O   0  0  0  0  0  0  0  0  0  0  0  0
    1.1465   -0.5045    0.0260 N   0  0  0  0  0  0  0  0  0  0  0  0
   -0.1691   -0.2038   -0.4285 C   0  0  2  0  0  0  0  0  0  0  0  0
   -0.1131   -0.2672   -1.9550 C   0  0  0  0  0  0  0  0  0  0  0  0
    0.2673   -1.5080   -2.4002 O   0  0  0  0  0  0  0  0  0  0  0  0
   -0.6251    1.1369   -0.0126 C   0  0  0  0  0  0  0  0  0  0  0  0
   -1.9615    1.2450    0.6042 C   0  0  0  0  0  0  0  0  0  0  0  0
   -2.5336    0.0083    1.1827 C   0  0  0  0  0  0  0  0  0  0  0  0
   -1.5546   -1.0372    1.3624 N   0  0  0  0  0  0  0  0  0  0  0  0
   -1.0682   -1.3358    0.0062 C   0  0  0  0  0  0  0  0  0  0  0  0
    2.9830    0.7258    1.8750 H   0  0  0  0  0  0  0  0  0  0  0  0
    4.0838    1.6797    0.8484 H   0  0  0  0  0  0  0  0  0  0  0  0
    4.2763   -0.1476    0.9881 H   0  0  0  0  0  0  0  0  0  0  0  0
    1.3169   -1.4488    0.3586 H   0  0  0  0  0  0  0  0  0  0  0  0
    0.6527    0.4735   -2.2743 H   0  0  0  0  0  0  0  0  0  0  0  0
   -1.0948    0.0332   -2.3179 H   0  0  0  0  0  0  0  0  0  0  0  0
   -0.1492   -2.2574   -1.9329 H   0  0  0  0  0  0  0  0  0  0  0  0
   -0.5984    1.8510   -0.8895 H   0  0  0  0  0  0  0  0  0  0  0  0
    0.1498    1.5638    0.6911 H   0  0  0  0  0  0  0  0  0  0  0  0
   -1.9319    2.0207    1.4269 H   0  0  0  0  0  0  0  0  0  0  0  0
   -2.7220    1.6649   -0.1187 H   0  0  0  0  0  0  0  0  0  0  0  0
   -3.0376    0.1495    2.1607 H   0  0  0  0  0  0  0  0  0  0  0  0
   -3.3289   -0.4170    0.5045 H   0  0  0  0  0  0  0  0  0  0  0  0
   -0.7942   -0.7056    1.9653 H   0  0  0  0  0  0  0  0  0  0  0  0
   -0.4857   -2.2815    0.1023 H   0  0  0  0  0  0  0  0  0  0  0  0
   -1.9152   -1.4282   -0.6871 H   0  0  0  0  0  0  0  0  0  0  0  0
  1  2  1  0
  2  3  2  0
  2  4  1  1
  5  4  1  1
  5  6  1  0
  6  7  1  0
  5  8  1  0
  8  9  1  0
  9 10  1  0
 10 11  1  0
 11 12  1  0
 12  5  1  0
  1 13  1  0
  1 14  1  0
  1 15  1  0
  4 16  1  0
  6 17  1  0
  6 18  1  0
  7 19  1  0
  8 20  1  0
  8 21  1  0
  9 22  1  0
  9 23  1  0
 10 24  1  0
 10 25  1  0
 11 26  1  0
 12 27  1  0
 12 28  1  0
M  END
$$$$

     RDKit          3D

 28 28  0  0  0  0  0  0  0  0999 V2000
    3.8555   -0.5395   -0.0861 C   0  0  0  0  0  0  0  0  0  0  0  0
    2.0931   -0.8558    0.2427 S   0  0  0  0  0  4  0  0  0  0  0  0
    2.0420   -1.4183    1.6771 O   0  0  0  0  0  0  0  0  0  0  0  0
    1.2616    0.6443    0.0935 N   0  0  0  0  0  0  0  0  0  0  0  0
   -0.1730    0.4811   -0.1368 C   0  0  2  0  0  0  0  0  0  0  0  0
   -0.7039    1.9211   -0.2370 C   0  0  0  0  0  0  0  0  0  0  0  0
   -0.3923    2.5131    0.9931 O   0  0  0  0  0  0  0  0  0  0  0  0
   -0.7581   -0.0870    1.1184 C   0  0  0  0  0  0  0  0  0  0  0  0
   -2.1914   -0.5200    0.7800 C   0  0  0  0  0  0  0  0  0  0  0  0
   -1.9687   -1.7048   -0.1703 C   0  0  0  0  0  0  0  0  0  0  0  0
   -1.5211   -1.1681   -1.4004 N   0  0  0  0  0  0  0  0  0  0  0  0
   -0.4607   -0.2545   -1.3762 C   0  0  0  0  0  0  0  0  0  0  0  0
    4.1469    0.2589    0.6543 H   0  0  0  0  0  0  0  0  0  0  0  0
    4.4681   -1.4236    0.1065 H   0  0  0  0  0  0  0  0  0  0  0  0
    3.9971   -0.1317   -1.1003 H   0  0  0  0  0  0  0  0  0  0  0  0
    1.6934    1.2003   -0.6741 H   0  0  0  0  0  0  0  0  0  0  0  0
   -1.7688    1.9531   -0.4595 H   0  0  0  0  0  0  0  0  0  0  0  0
   -0.0684    2.4354   -1.0035 H   0  0  0  0  0  0  0  0  0  0  0  0
   -0.5316    3.4772    1.0059 H   0  0  0  0  0  0  0  0  0  0  0  0
   -0.2495   -1.0094    1.4621 H   0  0  0  0  0  0  0  0  0  0  0  0
   -0.7705    0.6518    1.9269 H   0  0  0  0  0  0  0  0  0  0  0  0
   -2.7529   -0.8158    1.6718 H   0  0  0  0  0  0  0  0  0  0  0  0
   -2.7133    0.2637    0.1911 H   0  0  0  0  0  0  0  0  0  0  0  0
   -1.1708   -2.3489    0.2717 H   0  0  0  0  0  0  0  0  0  0  0  0
   -2.9063   -2.2630   -0.3327 H   0  0  0  0  0  0  0  0  0  0  0  0
   -2.3159   -0.9698   -2.0252 H   0  0  0  0  0  0  0  0  0  0  0  0
   -0.6229    0.4994   -2.2030 H   0  0  0  0  0  0  0  0  0  0  0  0
    0.4821   -0.7891   -1.6956 H   0  0  0  0  0  0  0  0  0  0  0  0
  1  2  1  0
  2  3  2  0
  2  4  1  1
  5  4  1  1
  5  6  1  0
  6  7  1  0
  5  8  1  0
  8  9  1  0
  9 10  1  0
 10 11  1  0
 11 12  1  0
 12  5  1  0
  1 13  1  0
  1 14  1  0
  1 15  1  0
  4 16  1  0
  6 17  1  0
  6 18  1  0
  7 19  1  0
  8 20  1  0
  8 21  1  0
  9 22  1  0
  9 23  1  0
 10 24  1  0
 10 25  1  0
 11 26  1  0
 12 27  1  0
 12 28  1  0
M  END
$$$$

     RDKit          3D

 28 28  0  0  0  0  0  0  0  0999 V2000
    3.5695   -0.7351    0.5341 C   0  0  0  0  0  0  0  0  0  0  0  0
    2.3503    0.4361   -0.0621 S   0  0  0  0  0  4  0  0  0  0  0  0
    2.3355    0.4086   -1.5574 O   0  0  0  0  0  0  0  0  0  0  0  0
    0.8417    0.2293    0.7101 N   0  0  0  0  0  0  0  0  0  0  0  0
   -0.2117   -0.2792   -0.0976 C   0  0  2  0  0  0  0  0  0  0  0  0
    0.2352   -1.6545   -0.6130 C   0  0  0  0  0  0  0  0  0  0  0  0
    0.4553   -2.4396    0.5312 O   0  0  0  0  0  0  0  0  0  0  0  0
   -0.6381    0.5880   -1.2287 C   0  0  0  0  0  0  0  0  0  0  0  0
   -1.1459    1.8915   -0.6462 C   0  0  0  0  0  0  0  0  0  0  0  0
   -2.4199    1.5467    0.0966 C   0  0  0  0  0  0  0  0  0  0  0  0
   -2.0829    0.6640    1.1803 N   0  0  0  0  0  0  0  0  0  0  0  0
   -1.4627   -0.5642    0.7351 C   0  0  0  0  0  0  0  0  0  0  0  0
    4.3266   -0.1536    1.1317 H   0  0  0  0  0  0  0  0  0  0  0  0
    3.1470   -1.5677    1.0974 H   0  0  0  0  0  0  0  0  0  0  0  0
    4.1580   -1.1795   -0.3108 H   0  0  0  0  0  0  0  0  0  0  0  0
    0.6230    1.0157    1.3225 H   0  0  0  0  0  0  0  0  0  0  0  0
    1.1841   -1.5822   -1.1462 H   0  0  0  0  0  0  0  0  0  0  0  0
   -0.5620   -2.1189   -1.2355 H   0  0  0  0  0  0  0  0  0  0  0  0
    0.7745   -1.8809    1.2858 H   0  0  0  0  0  0  0  0  0  0  0  0
    0.0716    0.7180   -2.0348 H   0  0  0  0  0  0  0  0  0  0  0  0
   -1.5479    0.0973   -1.6857 H   0  0  0  0  0  0  0  0  0  0  0  0
   -0.4244    2.2715    0.1058 H   0  0  0  0  0  0  0  0  0  0  0  0
   -1.3162    2.6521   -1.4335 H   0  0  0  0  0  0  0  0  0  0  0  0
   -2.8456    2.4686    0.5443 H   0  0  0  0  0  0  0  0  0  0  0  0
   -3.1211    1.0942   -0.6398 H   0  0  0  0  0  0  0  0  0  0  0  0
   -2.9766    0.3931    1.6471 H   0  0  0  0  0  0  0  0  0  0  0  0
   -1.1868   -1.1352    1.6494 H   0  0  0  0  0  0  0  0  0  0  0  0
   -2.1306   -1.1842    0.1197 H   0  0  0  0  0  0  0  0  0  0  0  0
  1  2  1  0
  2  3  2  0
  2  4  1  1
  5  4  1  1
  5  6  1  0
  6  7  1  0
  5  8  1  0
  8  9  1  0
  9 10  1  0
 10 11  1  0
 11 12  1  0
 12  5  1  0
  1 13  1  0
  1 14  1  0
  1 15  1  0
  4 16  1  0
  6 17  1  0
  6 18  1  0
  7 19  1  0
  8 20  1  0
  8 21  1  0
  9 22  1  0
  9 23  1  0
 10 24  1  0
 10 25  1  0
 11 26  1  0
 12 27  1  0
 12 28  1  0
M  END
$$$$

     RDKit          3D

 28 28  0  0  0  0  0  0  0  0999 V2000
    3.4521   -1.2185    0.2958 C   0  0  0  0  0  0  0  0  0  0  0  0
    2.4463    0.2605    0.5588 S   0  0  0  0  0  4  0  0  0  0  0  0
    3.2779    1.5069    0.2983 O   0  0  0  0  0  0  0  0  0  0  0  0
    1.1076    0.1881   -0.5452 N   0  0  0  0  0  0  0  0  0  0  0  0
   -0.1534    0.5094    0.0595 C   0  0  2  0  0  0  0  0  0  0  0  0
   -0.0923    1.9209    0.6146 C   0  0  0  0  0  0  0  0  0  0  0  0
    0.1705    2.8540   -0.3783 O   0  0  0  0  0  0  0  0  0  0  0  0
   -0.4397   -0.4098    1.2215 C   0  0  0  0  0  0  0  0  0  0  0  0
   -1.8726   -0.8719    1.1356 C   0  0  0  0  0  0  0  0  0  0  0  0
   -2.0155   -1.6589   -0.1478 C   0  0  0  0  0  0  0  0  0  0  0  0
   -1.6204   -0.9131   -1.3073 N   0  0  0  0  0  0  0  0  0  0  0  0
   -1.2109    0.4432   -1.0094 C   0  0  0  0  0  0  0  0  0  0  0  0
    4.5072   -1.0231    0.5301 H   0  0  0  0  0  0  0  0  0  0  0  0
    3.0555   -2.0582    0.8803 H   0  0  0  0  0  0  0  0  0  0  0  0
    3.4286   -1.5129   -0.7930 H   0  0  0  0  0  0  0  0  0  0  0  0
    1.2500    0.7854   -1.3965 H   0  0  0  0  0  0  0  0  0  0  0  0
   -1.0465    2.2183    1.0904 H   0  0  0  0  0  0  0  0  0  0  0  0
    0.6852    1.9851    1.4060 H   0  0  0  0  0  0  0  0  0  0  0  0
   -0.6613    3.2132   -0.7458 H   0  0  0  0  0  0  0  0  0  0  0  0
    0.2578   -1.2573    1.1652 H   0  0  0  0  0  0  0  0  0  0  0  0
   -0.3059    0.0813    2.1992 H   0  0  0  0  0  0  0  0  0  0  0  0
   -2.0470   -1.5576    1.9784 H   0  0  0  0  0  0  0  0  0  0  0  0
   -2.5524   -0.0087    1.1585 H   0  0  0  0  0  0  0  0  0  0  0  0
   -3.0625   -1.9899   -0.2867 H   0  0  0  0  0  0  0  0  0  0  0  0
   -1.3506   -2.5454   -0.0717 H   0  0  0  0  0  0  0  0  0  0  0  0
   -2.3290   -0.8688   -2.0547 H   0  0  0  0  0  0  0  0  0  0  0  0
   -2.0927    1.0783   -0.7816 H   0  0  0  0  0  0  0  0  0  0  0  0
   -0.7860    0.8497   -1.9571 H   0  0  0  0  0  0  0  0  0  0  0  0
  1  2  1  0
  2  3  2  0
  2  4  1  6
  5  4  1  6
  5  6  1  0
  6  7  1  0
  5  8  1  0
  8  9  1  0
  9 10  1  0
 10 11  1  0
 11 12  1  0
 12  5  1  0
  1 13  1  0
  1 14  1  0
  1 15  1  0
  4 16  1  0
  6 17  1  0
  6 18  1  0
  7 19  1  0
  8 20  1  0
  8 21  1  0
  9 22  1  0
  9 23  1  0
 10 24  1  0
 10 25  1  0
 11 26  1  0
 12 27  1  0
 12 28  1  0
M  END
$$$$

     RDKit          3D

 28 28  0  0  0  0  0  0  0  0999 V2000
    3.6390    1.0058    1.2584 C   0  0  0  0  0  0  0  0  0  0  0  0
    1.9947    1.2136    0.5019 S   0  0  0  0  0  4  0  0  0  0  0  0
    2.1629    2.2531   -0.5931 O   0  0  0  0  0  0  0  0  0  0  0  0
    1.4880   -0.3169   -0.0513 N   0  0  0  0  0  0  0  0  0  0  0  0
    0.0436   -0.4762   -0.1607 C   0  0  2  0  0  0  0  0  0  0  0  0
   -0.1333   -1.9138   -0.6689 C   0  0  0  0  0  0  0  0  0  0  0  0
   -1.4421   -2.2755   -0.8402 O   0  0  0  0  0  0  0  0  0  0  0  0
   -0.5647    0.4942   -1.1075 C   0  0  0  0  0  0  0  0  0  0  0  0
   -2.0297    0.6660   -0.8790 C   0  0  0  0  0  0  0  0  0  0  0  0
   -2.2988    1.0805    0.5480 C   0  0  0  0  0  0  0  0  0  0  0  0
   -1.8539   -0.0227    1.3727 N   0  0  0  0  0  0  0  0  0  0  0  0
   -0.4763   -0.3102    1.2335 C   0  0  0  0  0  0  0  0  0  0  0  0
    4.1275    1.9763    1.3920 H   0  0  0  0  0  0  0  0  0  0  0  0
    4.2174    0.3627    0.5406 H   0  0  0  0  0  0  0  0  0  0  0  0
    3.4955    0.4357    2.1830 H   0  0  0  0  0  0  0  0  0  0  0  0
    1.9365   -1.0761    0.4646 H   0  0  0  0  0  0  0  0  0  0  0  0
    0.3398   -2.6374    0.0162 H   0  0  0  0  0  0  0  0  0  0  0  0
    0.3959   -2.0014   -1.6359 H   0  0  0  0  0  0  0  0  0  0  0  0
   -1.7875   -2.9253   -0.1878 H   0  0  0  0  0  0  0  0  0  0  0  0
   -0.4327    0.1851   -2.1694 H   0  0  0  0  0  0  0  0  0  0  0  0
   -0.0601    1.4872   -0.9228 H   0  0  0  0  0  0  0  0  0  0  0  0
   -2.4669    1.4392   -1.5647 H   0  0  0  0  0  0  0  0  0  0  0  0
   -2.5641   -0.2633   -1.0677 H   0  0  0  0  0  0  0  0  0  0  0  0
   -3.3874    1.1914    0.7230 H   0  0  0  0  0  0  0  0  0  0  0  0
   -1.7143    1.9739    0.8160 H   0  0  0  0  0  0  0  0  0  0  0  0
   -2.4896   -0.8433    1.3098 H   0  0  0  0  0  0  0  0  0  0  0  0
   -0.2421   -1.2295    1.8045 H   0  0  0  0  0  0  0  0  0  0  0  0
    0.1030    0.5266    1.7045 H   0  0  0  0  0  0  0  0  0  0  0  0
  1  2  1  0
  2  3  2  0
  2  4  1  6
  5  4  1  1
  5  6  1  0
  6  7  1  0
  5  8  1  0
  8  9  1  0
  9 10  1  0
 10 11  1  0
 11 12  1  0
 12  5  1  0
  1 13  1  0
  1 14  1  0
  1 15  1  0
  4 16  1  0
  6 17  1  0
  6 18  1  0
  7 19  1  0
  8 20  1  0
  8 21  1  0
  9 22  1  0
  9 23  1  0
 10 24  1  0
 10 25  1  0
 11 26  1  0
 12 27  1  0
 12 28  1  0
M  END
$$$$

     RDKit          3D

 28 28  0  0  0  0  0  0  0  0999 V2000
    3.5073    1.3553   -0.1569 C   0  0  0  0  0  0  0  0  0  0  0  0
    2.3858   -0.0339   -0.3950 S   0  0  0  0  0  4  0  0  0  0  0  0
    3.2082   -1.3043   -0.1013 O   0  0  0  0  0  0  0  0  0  0  0  0
    1.1218    0.0901    0.7736 N   0  0  0  0  0  0  0  0  0  0  0  0
   -0.1141   -0.5290    0.3710 C   0  0  2  0  0  0  0  0  0  0  0  0
    0.0017   -1.9900    0.0982 C   0  0  0  0  0  0  0  0  0  0  0  0
    0.9009   -2.2937   -0.9159 O   0  0  0  0  0  0  0  0  0  0  0  0
   -0.6937    0.2392   -0.7993 C   0  0  0  0  0  0  0  0  0  0  0  0
   -1.4402    1.4270   -0.2314 C   0  0  0  0  0  0  0  0  0  0  0  0
   -2.7537    0.9107    0.3316 C   0  0  0  0  0  0  0  0  0  0  0  0
   -2.4632   -0.3048    1.0569 N   0  0  0  0  0  0  0  0  0  0  0  0
   -1.0943   -0.3553    1.5257 C   0  0  0  0  0  0  0  0  0  0  0  0
    3.7203    1.5225    0.9233 H   0  0  0  0  0  0  0  0  0  0  0  0
    2.9667    2.2868   -0.4867 H   0  0  0  0  0  0  0  0  0  0  0  0
    4.4134    1.2839   -0.7697 H   0  0  0  0  0  0  0  0  0  0  0  0
    0.9555    1.1038    0.9565 H   0  0  0  0  0  0  0  0  0  0  0  0
   -0.9941   -2.3510   -0.2367 H   0  0  0  0  0  0  0  0  0  0  0  0
    0.2204   -2.5212    1.0416 H   0  0  0  0  0  0  0  0  0  0  0  0
    1.1197   -3.2660   -0.8147 H   0  0  0  0  0  0  0  0  0  0  0  0
    0.0971    0.5473   -1.5154 H   0  0  0  0  0  0  0  0  0  0  0  0
   -1.3780   -0.4210   -1.3403 H   0  0  0  0  0  0  0  0  0  0  0  0
   -0.9049    1.8997    0.6154 H   0  0  0  0  0  0  0  0  0  0  0  0
   -1.6283    2.1770   -1.0345 H   0  0  0  0  0  0  0  0  0  0  0  0
   -3.1375    1.7125    1.0064 H   0  0  0  0  0  0  0  0  0  0  0  0
   -3.4241    0.7210   -0.5304 H   0  0  0  0  0  0  0  0  0  0  0  0
   -2.6994   -1.1670    0.5179 H   0  0  0  0  0  0  0  0  0  0  0  0
   -1.0372   -1.2634    2.1936 H   0  0  0  0  0  0  0  0  0  0  0  0
   -0.8561    0.5237    2.1217 H   0  0  0  0  0  0  0  0  0  0  0  0
  1  2  1  0
  2  3  2  0
  2  4  1  1
  5  4  1  1
  5  6  1  0
  6  7  1  0
  5  8  1  0
  8  9  1  0
  9 10  1  0
 10 11  1  0
 11 12  1  0
 12  5  1  0
  1 13  1  0
  1 14  1  0
  1 15  1  0
  4 16  1  0
  6 17  1  0
  6 18  1  0
  7 19  1  0
  8 20  1  0
  8 21  1  0
  9 22  1  0
  9 23  1  0
 10 24  1  0
 10 25  1  0
 11 26  1  0
 12 27  1  0
 12 28  1  0
M  END
$$$$

     RDKit          3D

 28 28  0  0  0  0  0  0  0  0999 V2000
    2.8716   -0.6124    1.2877 C   0  0  0  0  0  0  0  0  0  0  0  0
    2.5919   -0.0727   -0.3986 S   0  0  0  0  0  4  0  0  0  0  0  0
    3.7526   -0.5757   -1.2786 O   0  0  0  0  0  0  0  0  0  0  0  0
    1.0718   -0.6407   -0.9431 N   0  0  0  0  0  0  0  0  0  0  0  0
   -0.0254    0.2405   -0.7649 C   0  0  2  0  0  0  0  0  0  0  0  0
    0.1108    1.5587   -1.4689 C   0  0  0  0  0  0  0  0  0  0  0  0
   -1.0368    2.3161   -1.2042 O   0  0  0  0  0  0  0  0  0  0  0  0
   -0.1433    0.5444    0.7325 C   0  0  0  0  0  0  0  0  0  0  0  0
   -0.7968   -0.6370    1.4194 C   0  0  0  0  0  0  0  0  0  0  0  0
   -2.2369   -0.7015    0.9956 C   0  0  0  0  0  0  0  0  0  0  0  0
   -2.4029   -0.0320   -0.2983 N   0  0  0  0  0  0  0  0  0  0  0  0
   -1.3064   -0.4459   -1.1656 C   0  0  0  0  0  0  0  0  0  0  0  0
    3.0690    0.2688    1.9525 H   0  0  0  0  0  0  0  0  0  0  0  0
    2.0344   -1.1972    1.7034 H   0  0  0  0  0  0  0  0  0  0  0  0
    3.7762   -1.2604    1.3556 H   0  0  0  0  0  0  0  0  0  0  0  0
    0.8761   -1.6366   -0.8343 H   0  0  0  0  0  0  0  0  0  0  0  0
    0.1430    1.3532   -2.5678 H   0  0  0  0  0  0  0  0  0  0  0  0
    0.9976    2.1141   -1.1654 H   0  0  0  0  0  0  0  0  0  0  0  0
   -0.9121    3.2777   -1.4208 H   0  0  0  0  0  0  0  0  0  0  0  0
   -0.8096    1.4229    0.8197 H   0  0  0  0  0  0  0  0  0  0  0  0
    0.8161    0.8092    1.1813 H   0  0  0  0  0  0  0  0  0  0  0  0
   -0.6578   -0.5339    2.5024 H   0  0  0  0  0  0  0  0  0  0  0  0
   -0.2698   -1.5584    1.0796 H   0  0  0  0  0  0  0  0  0  0  0  0
   -2.9127   -0.1907    1.7114 H   0  0  0  0  0  0  0  0  0  0  0  0
   -2.5194   -1.7889    0.8895 H   0  0  0  0  0  0  0  0  0  0  0  0
   -3.2822   -0.3354   -0.7408 H   0  0  0  0  0  0  0  0  0  0  0  0
   -1.5959   -0.1282   -2.2018 H   0  0  0  0  0  0  0  0  0  0  0  0
   -1.2031   -1.5581   -1.1775 H   0  0  0  0  0  0  0  0  0  0  0  0
  1  2  1  0
  2  3  2  0
  2  4  1  6
  5  4  1  1
  5  6  1  0
  6  7  1  0
  5  8  1  0
  8  9  1  0
  9 10  1  0
 10 11  1  0
 11 12  1  0
 12  5  1  0
  1 13  1  0
  1 14  1  0
  1 15  1  0
  4 16  1  0
  6 17  1  0
  6 18  1  0
  7 19  1  0
  8 20  1  0
  8 21  1  0
  9 22  1  0
  9 23  1  0
 10 24  1  0
 10 25  1  0
 11 26  1  0
 12 27  1  0
 12 28  1  0
M  END
$$$$
