
     RDKit          3D

 26 26  0  0  0  0  0  0  0  0999 V2000
   -2.9501   -0.8950    0.1897 C   0  0  0  0  0  0  0  0  0  0  0  0
   -1.9699    0.0977    0.4744 N   0  0  0  0  0  0  0  0  0  0  0  0
   -2.3241    1.4864    0.2511 C   0  0  0  0  0  0  0  0  0  0  0  0
   -0.8256    1.7273   -0.0041 C   0  0  0  0  0  0  0  0  0  0  0  0
   -0.9095    0.3004   -0.4952 C   0  0  1  0  0  0  0  0  0  0  0  0
    0.2880   -0.5643   -0.3273 C   0  0  0  0  0  0  0  0  0  0  0  0
    0.9351   -0.4148    0.9354 N   0  0  0  0  0  0  0  0  0  0  0  0
    2.1161   -1.2470    1.0557 C   0  0  0  0  0  0  0  0  0  0  0  0
    3.2172   -0.7878    0.1818 C   0  0  0  0  0  0  0  0  0  0  0  0
    3.1229    0.3473   -0.6582 N   0  0  0  0  0  0  0  0  0  0  0  0
    4.2837   -1.4529    0.1992 O   0  0  0  0  0  0  0  0  0  0  0  0
   -3.9126   -0.4399   -0.0187 H   0  0  0  0  0  0  0  0  0  0  0  0
   -3.0904   -1.4770    1.1554 H   0  0  0  0  0  0  0  0  0  0  0  0
   -2.6300   -1.6390   -0.5864 H   0  0  0  0  0  0  0  0  0  0  0  0
   -2.7198    2.0484    1.1079 H   0  0  0  0  0  0  0  0  0  0  0  0
   -2.8823    1.6093   -0.7214 H   0  0  0  0  0  0  0  0  0  0  0  0
   -0.6356    2.4813   -0.7826 H   0  0  0  0  0  0  0  0  0  0  0  0
   -0.3531    1.8987    0.9708 H   0  0  0  0  0  0  0  0  0  0  0  0
   -1.3106    0.3389   -1.5503 H   0  0  0  0  0  0  0  0  0  0  0  0
    0.9545   -0.3922   -1.2050 H   0  0  0  0  0  0  0  0  0  0  0  0
   -0.0085   -1.6365   -0.4218 H   0  0  0  0  0  0  0  0  0  0  0  0
    1.0773    0.5336    1.2768 H   0  0  0  0  0  0  0  0  0  0  0  0
    1.8964   -2.3055    0.7966 H   0  0  0  0  0  0  0  0  0  0  0  0
    2.4685   -1.2017    2.0995 H   0  0  0  0  0  0  0  0  0  0  0  0
    3.2709    0.2968   -1.6702 H   0  0  0  0  0  0  0  0  0  0  0  0
    2.8915    1.2874   -0.2378 H   0  0  0  0  0  0  0  0  0  0  0  0
  1  2  1  0
  2  3  1  0
  3  4  1  0
  4  5  1  0
  5  6  1  0
  6  7  1  0
  7  8  1  0
  8  9  1  0
  9 10  1  0
  9 11  2  0
  5  2  1  0
  1 12  1  0
  1 13  1  0
  1 14  1  0
  3 15  1  0
  3 16  1  0
  4 17  1  0
  4 18  1  0
  5 19  1  6
  6 20  1  0
  6 21  1  0
  7 22  1  0
  8 23  1  0
  8 24  1  0
 10 25  1  0
 10 26  1  0
M  END
$$$$

     RDKit          3D

 26 26  0  0  0  0  0  0  0  0999 V2000
   -2.1444    1.6726    0.0556 C   0  0  0  0  0  0  0  0  0  0  0  0
   -1.8589    0.3109   -0.3227 N   0  0  0  0  0  0  0  0  0  0  0  0
   -3.0711   -0.5022   -0.1983 C   0  0  0  0  0  0  0  0  0  0  0  0
   -2.2789   -1.6116    0.4611 C   0  0  0  0  0  0  0  0  0  0  0  0
   -1.3012   -0.4743    0.7595 C   0  0  1  0  0  0  0  0  0  0  0  0
    0.1030   -0.9543    0.5537 C   0  0  0  0  0  0  0  0  0  0  0  0
    1.0151    0.1536    0.3770 N   0  0  0  0  0  0  0  0  0  0  0  0
    2.3587   -0.2768    0.1794 C   0  0  0  0  0  0  0  0  0  0  0  0
    3.2262    0.9117    0.0073 C   0  0  0  0  0  0  0  0  0  0  0  0
    4.6163    0.6904   -0.2039 N   0  0  0  0  0  0  0  0  0  0  0  0
    2.7390    2.0578    0.0490 O   0  0  0  0  0  0  0  0  0  0  0  0
   -3.1786    1.9784   -0.2653 H   0  0  0  0  0  0  0  0  0  0  0  0
   -2.0793    1.7450    1.1549 H   0  0  0  0  0  0  0  0  0  0  0  0
   -1.3982    2.3891   -0.3886 H   0  0  0  0  0  0  0  0  0  0  0  0
   -3.8170   -0.0848    0.5281 H   0  0  0  0  0  0  0  0  0  0  0  0
   -3.5437   -0.7740   -1.1575 H   0  0  0  0  0  0  0  0  0  0  0  0
   -1.8698   -2.3552   -0.2569 H   0  0  0  0  0  0  0  0  0  0  0  0
   -2.7009   -2.0239    1.3814 H   0  0  0  0  0  0  0  0  0  0  0  0
   -1.4324   -0.0098    1.7404 H   0  0  0  0  0  0  0  0  0  0  0  0
    0.1673   -1.6612   -0.2855 H   0  0  0  0  0  0  0  0  0  0  0  0
    0.4080   -1.4995    1.4662 H   0  0  0  0  0  0  0  0  0  0  0  0
    0.6847    0.8715   -0.2814 H   0  0  0  0  0  0  0  0  0  0  0  0
    2.6817   -0.8153    1.1061 H   0  0  0  0  0  0  0  0  0  0  0  0
    2.5039   -0.9585   -0.6836 H   0  0  0  0  0  0  0  0  0  0  0  0
    5.0149    0.9259   -1.1241 H   0  0  0  0  0  0  0  0  0  0  0  0
    5.1555    0.2944    0.6062 H   0  0  0  0  0  0  0  0  0  0  0  0
  1  2  1  0
  2  3  1  0
  3  4  1  0
  4  5  1  0
  5  6  1  0
  6  7  1  0
  7  8  1  0
  8  9  1  0
  9 10  1  0
  9 11  2  0
  5  2  1  0
  1 12  1  0
  1 13  1  0
  1 14  1  0
  3 15  1  0
  3 16  1  0
  4 17  1  0
  4 18  1  0
  5 19  1  1
  6 20  1  0
  6 21  1  0
  7 22  1  0
  8 23  1  0
  8 24  1  0
 10 25  1  0
 10 26  1  0
M  END
$$$$

     RDKit          3D

 26 26  0  0  0  0  0  0  0  0999 V2000
   -3.1852    1.2536    0.7141 C   0  0  0  0  0  0  0  0  0  0  0  0
   -2.2939    0.6340   -0.2087 N   0  0  0  0  0  0  0  0  0  0  0  0
   -2.8105   -0.4000   -1.0457 C   0  0  0  0  0  0  0  0  0  0  0  0
   -1.7939   -1.3517   -0.4188 C   0  0  0  0  0  0  0  0  0  0  0  0
   -1.2347   -0.1763    0.3596 C   0  0  1  0  0  0  0  0  0  0  0  0
    0.0949    0.3280   -0.0994 C   0  0  0  0  0  0  0  0  0  0  0  0
    1.2120   -0.4280    0.4241 N   0  0  0  0  0  0  0  0  0  0  0  0
    2.4208    0.1790   -0.1078 C   0  0  0  0  0  0  0  0  0  0  0  0
    3.6364   -0.5259    0.3712 C   0  0  0  0  0  0  0  0  0  0  0  0
    4.8981   -0.0579   -0.0564 N   0  0  0  0  0  0  0  0  0  0  0  0
    3.5103   -1.5020    1.1303 O   0  0  0  0  0  0  0  0  0  0  0  0
   -3.4388    2.2727    0.3011 H   0  0  0  0  0  0  0  0  0  0  0  0
   -2.6942    1.4805    1.7036 H   0  0  0  0  0  0  0  0  0  0  0  0
   -4.1424    0.7381    0.8502 H   0  0  0  0  0  0  0  0  0  0  0  0
   -3.8608   -0.6829   -0.9071 H   0  0  0  0  0  0  0  0  0  0  0  0
   -2.4963   -0.2186   -2.1122 H   0  0  0  0  0  0  0  0  0  0  0  0
   -2.3425   -2.0923    0.2054 H   0  0  0  0  0  0  0  0  0  0  0  0
   -1.1031   -1.8232   -1.1167 H   0  0  0  0  0  0  0  0  0  0  0  0
   -1.3141   -0.3531    1.4473 H   0  0  0  0  0  0  0  0  0  0  0  0
    0.1259    0.3005   -1.1991 H   0  0  0  0  0  0  0  0  0  0  0  0
    0.1749    1.3946    0.2046 H   0  0  0  0  0  0  0  0  0  0  0  0
    1.2154   -0.5044    1.4466 H   0  0  0  0  0  0  0  0  0  0  0  0
    2.4032    1.2371    0.1870 H   0  0  0  0  0  0  0  0  0  0  0  0
    2.3404    0.0907   -1.2226 H   0  0  0  0  0  0  0  0  0  0  0  0
    5.4471   -0.6514   -0.6983 H   0  0  0  0  0  0  0  0  0  0  0  0
    5.2311    0.8589    0.2843 H   0  0  0  0  0  0  0  0  0  0  0  0
  1  2  1  0
  2  3  1  0
  3  4  1  0
  4  5  1  0
  5  6  1  0
  6  7  1  0
  7  8  1  0
  8  9  1  0
  9 10  1  0
  9 11  2  0
  5  2  1  0
  1 12  1  0
  1 13  1  0
  1 14  1  0
  3 15  1  0
  3 16  1  0
  4 17  1  0
  4 18  1  0
  5 19  1  1
  6 20  1  0
  6 21  1  0
  7 22  1  0
  8 23  1  0
  8 24  1  0
 10 25  1  0
 10 26  1  0
M  END
$$$$

     RDKit          3D

 26 26  0  0  0  0  0  0  0  0999 V2000
   -3.4925    0.6460    0.2162 C   0  0  0  0  0  0  0  0  0  0  0  0
   -2.2700    0.2315   -0.4890 N   0  0  0  0  0  0  0  0  0  0  0  0
   -2.2261   -1.2125   -0.7316 C   0  0  0  0  0  0  0  0  0  0  0  0
   -1.6702   -1.3637    0.6782 C   0  0  0  0  0  0  0  0  0  0  0  0
   -1.1620    0.0662    0.4133 C   0  0  1  0  0  0  0  0  0  0  0  0
    0.2055   -0.0694   -0.2354 C   0  0  0  0  0  0  0  0  0  0  0  0
    1.1990   -0.2114    0.7794 N   0  0  0  0  0  0  0  0  0  0  0  0
    2.5060   -0.5618    0.3623 C   0  0  0  0  0  0  0  0  0  0  0  0
    3.1548    0.5180   -0.3952 C   0  0  0  0  0  0  0  0  0  0  0  0
    4.4723    0.3338   -0.9248 N   0  0  0  0  0  0  0  0  0  0  0  0
    2.5456    1.6057   -0.5766 O   0  0  0  0  0  0  0  0  0  0  0  0
   -3.2423    1.3358    1.0271 H   0  0  0  0  0  0  0  0  0  0  0  0
   -3.9542   -0.2591    0.7056 H   0  0  0  0  0  0  0  0  0  0  0  0
   -4.1841    1.1158   -0.4867 H   0  0  0  0  0  0  0  0  0  0  0  0
   -3.2257   -1.6800   -0.8910 H   0  0  0  0  0  0  0  0  0  0  0  0
   -1.5500   -1.4578   -1.5409 H   0  0  0  0  0  0  0  0  0  0  0  0
   -0.8674   -2.1088    0.7693 H   0  0  0  0  0  0  0  0  0  0  0  0
   -2.4495   -1.4524    1.4446 H   0  0  0  0  0  0  0  0  0  0  0  0
   -1.1514    0.7114    1.3000 H   0  0  0  0  0  0  0  0  0  0  0  0
    0.2749   -0.9027   -0.9419 H   0  0  0  0  0  0  0  0  0  0  0  0
    0.4144    0.8796   -0.8090 H   0  0  0  0  0  0  0  0  0  0  0  0
    1.1511    0.4719    1.5528 H   0  0  0  0  0  0  0  0  0  0  0  0
    3.1107   -0.7779    1.2943 H   0  0  0  0  0  0  0  0  0  0  0  0
    2.5529   -1.5079   -0.2305 H   0  0  0  0  0  0  0  0  0  0  0  0
    5.1892   -0.1814   -0.4178 H   0  0  0  0  0  0  0  0  0  0  0  0
    4.6692    0.7574   -1.8727 H   0  0  0  0  0  0  0  0  0  0  0  0
  1  2  1  0
  2  3  1  0
  3  4  1  0
  4  5  1  0
  5  6  1  0
  6  7  1  0
  7  8  1  0
  8  9  1  0
  9 10  1  0
  9 11  2  0
  5  2  1  0
  1 12  1  0
  1 13  1  0
  1 14  1  0
  3 15  1  0
  3 16  1  0
  4 17  1  0
  4 18  1  0
  5 19  1  1
  6 20  1  0
  6 21  1  0
  7 22  1  0
  8 23  1  0
  8 24  1  0
 10 25  1  0
 10 26  1  0
M  END
$$$$

     RDKit          3D

 26 26  0  0  0  0  0  0  0  0999 V2000
   -2.9707    0.6202   -0.9371 C   0  0  0  0  0  0  0  0  0  0  0  0
   -2.2874   -0.0522    0.1121 N   0  0  0  0  0  0  0  0  0  0  0  0
   -2.2499    0.5428    1.4238 C   0  0  0  0  0  0  0  0  0  0  0  0
   -0.8858   -0.2052    1.5574 C   0  0  0  0  0  0  0  0  0  0  0  0
   -0.8250    0.1673    0.1151 C   0  0  1  0  0  0  0  0  0  0  0  0
   -0.1559   -0.7038   -0.8795 C   0  0  0  0  0  0  0  0  0  0  0  0
    1.2626   -0.4505   -0.8389 N   0  0  0  0  0  0  0  0  0  0  0  0
    1.9198   -1.0219    0.2972 C   0  0  0  0  0  0  0  0  0  0  0  0
    3.2756   -0.4114    0.4004 C   0  0  0  0  0  0  0  0  0  0  0  0
    3.6260    0.6149   -0.5222 N   0  0  0  0  0  0  0  0  0  0  0  0
    4.0873   -0.7629    1.2549 O   0  0  0  0  0  0  0  0  0  0  0  0
   -2.8753    1.7084   -0.9556 H   0  0  0  0  0  0  0  0  0  0  0  0
   -2.5778    0.2154   -1.9000 H   0  0  0  0  0  0  0  0  0  0  0  0
   -4.0390    0.2696   -0.9019 H   0  0  0  0  0  0  0  0  0  0  0  0
   -2.9467    0.2079    2.1845 H   0  0  0  0  0  0  0  0  0  0  0  0
   -2.0200    1.6451    1.4296 H   0  0  0  0  0  0  0  0  0  0  0  0
   -0.2241    0.3661    2.2509 H   0  0  0  0  0  0  0  0  0  0  0  0
   -1.0451   -1.2649    1.7596 H   0  0  0  0  0  0  0  0  0  0  0  0
   -0.5825    1.2555   -0.0166 H   0  0  0  0  0  0  0  0  0  0  0  0
   -0.5364   -0.4787   -1.9123 H   0  0  0  0  0  0  0  0  0  0  0  0
   -0.3839   -1.7856   -0.7097 H   0  0  0  0  0  0  0  0  0  0  0  0
    1.4971    0.5503   -0.9619 H   0  0  0  0  0  0  0  0  0  0  0  0
    1.3841   -0.9034    1.2448 H   0  0  0  0  0  0  0  0  0  0  0  0
    2.0646   -2.1124    0.0954 H   0  0  0  0  0  0  0  0  0  0  0  0
    3.8865    0.3695   -1.4840 H   0  0  0  0  0  0  0  0  0  0  0  0
    3.6020    1.6199   -0.1850 H   0  0  0  0  0  0  0  0  0  0  0  0
  1  2  1  0
  2  3  1  0
  3  4  1  0
  4  5  1  0
  5  6  1  0
  6  7  1  0
  7  8  1  0
  8  9  1  0
  9 10  1  0
  9 11  2  0
  5  2  1  0
  1 12  1  0
  1 13  1  0
  1 14  1  0
  3 15  1  0
  3 16  1  0
  4 17  1  0
  4 18  1  0
  5 19  1  1
  6 20  1  0
  6 21  1  0
  7 22  1  0
  8 23  1  0
  8 24  1  0
 10 25  1  0
 10 26  1  0
M  END
$$$$

     RDKit          3D

 26 26  0  0  0  0  0  0  0  0999 V2000
   -2.4256    1.9052   -0.0282 C   0  0  0  0  0  0  0  0  0  0  0  0
   -2.2562    0.5736    0.4575 N   0  0  0  0  0  0  0  0  0  0  0  0
   -2.9207   -0.4628   -0.3232 C   0  0  0  0  0  0  0  0  0  0  0  0
   -1.7131   -1.3397   -0.0202 C   0  0  0  0  0  0  0  0  0  0  0  0
   -0.9818   -0.0427    0.3707 C   0  0  1  0  0  0  0  0  0  0  0  0
   -0.0843    0.3568   -0.7573 C   0  0  0  0  0  0  0  0  0  0  0  0
    1.1661   -0.3060   -0.7804 N   0  0  0  0  0  0  0  0  0  0  0  0
    2.0908    0.0288    0.2682 C   0  0  0  0  0  0  0  0  0  0  0  0
    3.3139   -0.7491    0.1914 C   0  0  0  0  0  0  0  0  0  0  0  0
    4.3730   -0.6075    1.1034 N   0  0  0  0  0  0  0  0  0  0  0  0
    3.4661   -1.6174   -0.7398 O   0  0  0  0  0  0  0  0  0  0  0  0
   -1.5566    2.5563    0.0708 H   0  0  0  0  0  0  0  0  0  0  0  0
   -3.2384    2.3673    0.5962 H   0  0  0  0  0  0  0  0  0  0  0  0
   -2.8460    1.9252   -1.0774 H   0  0  0  0  0  0  0  0  0  0  0  0
   -3.0419   -0.1910   -1.4001 H   0  0  0  0  0  0  0  0  0  0  0  0
   -3.8541   -0.8099    0.1670 H   0  0  0  0  0  0  0  0  0  0  0  0
   -1.9152   -2.0242    0.8086 H   0  0  0  0  0  0  0  0  0  0  0  0
   -1.3267   -1.8160   -0.9506 H   0  0  0  0  0  0  0  0  0  0  0  0
   -0.4978   -0.1416    1.3547 H   0  0  0  0  0  0  0  0  0  0  0  0
   -0.5883    0.1787   -1.7280 H   0  0  0  0  0  0  0  0  0  0  0  0
    0.1070    1.4661   -0.7419 H   0  0  0  0  0  0  0  0  0  0  0  0
    1.1754   -1.2882   -1.0568 H   0  0  0  0  0  0  0  0  0  0  0  0
    2.3443    1.1226    0.0881 H   0  0  0  0  0  0  0  0  0  0  0  0
    1.6296    0.0085    1.2793 H   0  0  0  0  0  0  0  0  0  0  0  0
    5.2951   -1.1041    1.0078 H   0  0  0  0  0  0  0  0  0  0  0  0
    4.2856    0.0112    1.9357 H   0  0  0  0  0  0  0  0  0  0  0  0
  1  2  1  0
  2  3  1  0
  3  4  1  0
  4  5  1  0
  5  6  1  0
  6  7  1  0
  7  8  1  0
  8  9  1  0
  9 10  1  0
  9 11  2  0
  5  2  1  0
  1 12  1  0
  1 13  1  0
  1 14  1  0
  3 15  1  0
  3 16  1  0
  4 17  1  0
  4 18  1  0
  5 19  1  1
  6 20  1  0
  6 21  1  0
  7 22  1  0
  8 23  1  0
  8 24  1  0
 10 25  1  0
 10 26  1  0
M  END
$$$$

     RDKit          3D

 26 26  0  0  0  0  0  0  0  0999 V2000
    2.9052   -0.5254    0.1195 C   0  0  0  0  0  0  0  0  0  0  0  0
    2.1405    0.3430    0.9246 N   0  0  0  0  0  0  0  0  0  0  0  0
    1.9824    1.6455    0.3208 C   0  0  0  0  0  0  0  0  0  0  0  0
    0.8156    1.0025   -0.4480 C   0  0  0  0  0  0  0  0  0  0  0  0
    0.6684    0.2447    0.8795 C   0  0  1  0  0  0  0  0  0  0  0  0
    0.1492   -1.1299    0.7981 C   0  0  0  0  0  0  0  0  0  0  0  0
   -1.2220   -1.3813    0.8043 N   0  0  0  0  0  0  0  0  0  0  0  0
   -2.1179   -1.0080   -0.1824 C   0  0  0  0  0  0  0  0  0  0  0  0
   -2.5652    0.3943   -0.2551 C   0  0  0  0  0  0  0  0  0  0  0  0
   -3.4405    0.8202   -1.2964 N   0  0  0  0  0  0  0  0  0  0  0  0
   -2.1983    1.2376    0.5783 O   0  0  0  0  0  0  0  0  0  0  0  0
    3.7684    0.0020   -0.4009 H   0  0  0  0  0  0  0  0  0  0  0  0
    3.4251   -1.2748    0.7782 H   0  0  0  0  0  0  0  0  0  0  0  0
    2.4060   -1.0891   -0.6653 H   0  0  0  0  0  0  0  0  0  0  0  0
    1.6162    2.3723    1.0454 H   0  0  0  0  0  0  0  0  0  0  0  0
    2.8129    1.9581   -0.3434 H   0  0  0  0  0  0  0  0  0  0  0  0
    0.0327    1.7023   -0.7141 H   0  0  0  0  0  0  0  0  0  0  0  0
    1.2563    0.4113   -1.2734 H   0  0  0  0  0  0  0  0  0  0  0  0
    0.2506    0.8778    1.6523 H   0  0  0  0  0  0  0  0  0  0  0  0
    0.5713   -1.6646    1.7307 H   0  0  0  0  0  0  0  0  0  0  0  0
    0.6751   -1.7355   -0.0173 H   0  0  0  0  0  0  0  0  0  0  0  0
   -1.4997   -2.1606    1.4298 H   0  0  0  0  0  0  0  0  0  0  0  0
   -1.8116   -1.3629   -1.2251 H   0  0  0  0  0  0  0  0  0  0  0  0
   -3.0869   -1.5971   -0.0075 H   0  0  0  0  0  0  0  0  0  0  0  0
   -3.7606    1.7918   -1.3837 H   0  0  0  0  0  0  0  0  0  0  0  0
   -3.7734    0.1257   -1.9970 H   0  0  0  0  0  0  0  0  0  0  0  0
  1  2  1  0
  2  3  1  0
  3  4  1  0
  4  5  1  0
  5  6  1  0
  6  7  1  0
  7  8  1  0
  8  9  1  0
  9 10  1  0
  9 11  2  0
  5  2  1  0
  1 12  1  0
  1 13  1  0
  1 14  1  0
  3 15  1  0
  3 16  1  0
  4 17  1  0
  4 18  1  0
  5 19  1  1
  6 20  1  0
  6 21  1  0
  7 22  1  0
  8 23  1  0
  8 24  1  0
 10 25  1  0
 10 26  1  0
M  END
$$$$

     RDKit          3D

 26 26  0  0  0  0  0  0  0  0999 V2000
   -2.7227    1.3419   -0.6798 C   0  0  0  0  0  0  0  0  0  0  0  0
   -1.9652    0.1305   -0.8648 N   0  0  0  0  0  0  0  0  0  0  0  0
   -2.8186   -1.0362   -0.6282 C   0  0  0  0  0  0  0  0  0  0  0  0
   -1.5443   -1.6858   -0.0516 C   0  0  0  0  0  0  0  0  0  0  0  0
   -1.2383   -0.2918    0.3503 C   0  0  1  0  0  0  0  0  0  0  0  0
    0.1836    0.1715    0.3834 C   0  0  0  0  0  0  0  0  0  0  0  0
    0.9802   -0.3041   -0.7020 N   0  0  0  0  0  0  0  0  0  0  0  0
    2.2869    0.2756   -0.7101 C   0  0  0  0  0  0  0  0  0  0  0  0
    3.1866   -0.0867    0.3767 C   0  0  0  0  0  0  0  0  0  0  0  0
    4.4908    0.4806    0.4009 N   0  0  0  0  0  0  0  0  0  0  0  0
    2.8683   -0.8781    1.3021 O   0  0  0  0  0  0  0  0  0  0  0  0
   -3.8280    1.1750   -0.6608 H   0  0  0  0  0  0  0  0  0  0  0  0
   -2.5208    1.9967   -1.5786 H   0  0  0  0  0  0  0  0  0  0  0  0
   -2.4675    1.9099    0.2322 H   0  0  0  0  0  0  0  0  0  0  0  0
   -3.1545   -1.4409   -1.5809 H   0  0  0  0  0  0  0  0  0  0  0  0
   -3.5677   -0.8301    0.1638 H   0  0  0  0  0  0  0  0  0  0  0  0
   -0.9992   -2.1109   -0.9055 H   0  0  0  0  0  0  0  0  0  0  0  0
   -1.7867   -2.4036    0.7592 H   0  0  0  0  0  0  0  0  0  0  0  0
   -1.8208    0.0109    1.2426 H   0  0  0  0  0  0  0  0  0  0  0  0
    0.6307   -0.2630    1.3280 H   0  0  0  0  0  0  0  0  0  0  0  0
    0.2181    1.2558    0.4486 H   0  0  0  0  0  0  0  0  0  0  0  0
    0.5347   -0.0763   -1.6173 H   0  0  0  0  0  0  0  0  0  0  0  0
    2.7817   -0.1229   -1.6618 H   0  0  0  0  0  0  0  0  0  0  0  0
    2.2746    1.3780   -0.8687 H   0  0  0  0  0  0  0  0  0  0  0  0
    5.3015    0.0284   -0.0891 H   0  0  0  0  0  0  0  0  0  0  0  0
    4.6969    1.3757    0.9176 H   0  0  0  0  0  0  0  0  0  0  0  0
  1  2  1  0
  2  3  1  0
  3  4  1  0
  4  5  1  0
  5  6  1  0
  6  7  1  0
  7  8  1  0
  8  9  1  0
  9 10  1  0
  9 11  2  0
  5  2  1  0
  1 12  1  0
  1 13  1  0
  1 14  1  0
  3 15  1  0
  3 16  1  0
  4 17  1  0
  4 18  1  0
  5 19  1  1
  6 20  1  0
  6 21  1  0
  7 22  1  0
  8 23  1  0
  8 24  1  0
 10 25  1  0
 10 26  1  0
M  END
$$$$
