
     RDKit          3D

 26 26  0  0  0  0  0  0  0  0999 V2000
   -3.5573    0.9703   -0.1495 N   0  0  0  0  0  0  0  0  0  0  0  0
   -2.2706    0.6099   -0.6200 C   0  0  0  0  0  0  0  0  0  0  0  0
   -1.7833    1.2310   -1.5969 O   0  0  0  0  0  0  0  0  0  0  0  0
   -1.5302   -0.4671    0.0260 C   0  0  2  0  0  0  0  0  0  0  0  0
   -2.3388   -0.9989    1.1207 N   0  0  0  0  0  0  0  0  0  0  0  0
   -0.2320   -0.0268    0.6405 C   0  0  0  0  0  0  0  0  0  0  0  0
    0.7090    0.5438   -0.2710 N   0  0  0  0  0  0  0  0  0  0  0  0
    1.8955    0.9326    0.4498 C   0  0  0  0  0  0  0  0  0  0  0  0
    3.0674    0.2140   -0.2030 C   0  0  2  0  0  0  0  0  0  0  0  0
    3.4606    0.9574   -1.2784 F   0  0  0  0  0  0  0  0  0  0  0  0
    2.3326   -1.0319   -0.7175 C   0  0  2  0  0  0  0  0  0  0  0  0
    3.0510   -1.7189   -1.6360 F   0  0  0  0  0  0  0  0  0  0  0  0
    1.1070   -0.3362   -1.3261 C   0  0  0  0  0  0  0  0  0  0  0  0
   -4.4267    0.6242   -0.6117 H   0  0  0  0  0  0  0  0  0  0  0  0
   -3.6625    1.5965    0.6786 H   0  0  0  0  0  0  0  0  0  0  0  0
   -1.3978   -1.3002   -0.6947 H   0  0  0  0  0  0  0  0  0  0  0  0
   -3.1763   -1.4954    0.7764 H   0  0  0  0  0  0  0  0  0  0  0  0
   -2.6607   -0.1560    1.6764 H   0  0  0  0  0  0  0  0  0  0  0  0
    0.2142   -0.9538    1.1087 H   0  0  0  0  0  0  0  0  0  0  0  0
   -0.4577    0.6335    1.4954 H   0  0  0  0  0  0  0  0  0  0  0  0
    2.0523    2.0480    0.4175 H   0  0  0  0  0  0  0  0  0  0  0  0
    1.8368    0.5768    1.4977 H   0  0  0  0  0  0  0  0  0  0  0  0
    3.8581   -0.0402    0.4978 H   0  0  0  0  0  0  0  0  0  0  0  0
    2.0117   -1.5872    0.1619 H   0  0  0  0  0  0  0  0  0  0  0  0
    1.5267    0.2403   -2.2018 H   0  0  0  0  0  0  0  0  0  0  0  0
    0.3711   -1.0657   -1.6513 H   0  0  0  0  0  0  0  0  0  0  0  0
  1  2  1  0
  2  3  2  0
  2  4  1  0
  4  5  1  0
  4  6  1  0
  6  7  1  0
  7  8  1  0
  8  9  1  0
  9 10  1  0
  9 11  1  0
 11 12  1  0
 11 13  1  0
 13  7  1  0
  1 14  1  0
  1 15  1  0
  4 16  1  6
  5 17  1  0
  5 18  1  0
  6 19  1  0
  6 20  1  0
  8 21  1  0
  8 22  1  0
  9 23  1  1
 11 24  1  1
 13 25  1  0
 13 26  1  0
M  END
$$$$

     RDKit          3D

 26 26  0  0  0  0  0  0  0  0999 V2000
   -3.8306    0.0776   -0.0058 N   0  0  0  0  0  0  0  0  0  0  0  0
   -2.8506   -0.7976    0.5216 C   0  0  0  0  0  0  0  0  0  0  0  0
   -3.0775   -1.9968    0.7422 O   0  0  0  0  0  0  0  0  0  0  0  0
   -1.5061   -0.2176    0.8072 C   0  0  2  0  0  0  0  0  0  0  0  0
   -1.4452    1.1734    0.4788 N   0  0  0  0  0  0  0  0  0  0  0  0
   -0.4132   -0.9823    0.1321 C   0  0  0  0  0  0  0  0  0  0  0  0
    0.8529   -0.4249    0.4130 N   0  0  0  0  0  0  0  0  0  0  0  0
    1.9706   -1.1588   -0.0570 C   0  0  0  0  0  0  0  0  0  0  0  0
    2.9363   -0.1396   -0.5809 C   0  0  2  0  0  0  0  0  0  0  0  0
    4.2430   -0.5280   -0.3649 F   0  0  0  0  0  0  0  0  0  0  0  0
    2.5690    1.0789    0.2412 C   0  0  2  0  0  0  0  0  0  0  0  0
    3.1427    1.0069    1.4745 F   0  0  0  0  0  0  0  0  0  0  0  0
    1.0330    0.9604    0.3520 C   0  0  0  0  0  0  0  0  0  0  0  0
   -3.8954    0.2787   -1.0230 H   0  0  0  0  0  0  0  0  0  0  0  0
   -4.5019    0.5245    0.6768 H   0  0  0  0  0  0  0  0  0  0  0  0
   -1.2942   -0.2875    1.9150 H   0  0  0  0  0  0  0  0  0  0  0  0
   -1.8542    1.3595   -0.4620 H   0  0  0  0  0  0  0  0  0  0  0  0
   -1.9368    1.7736    1.2030 H   0  0  0  0  0  0  0  0  0  0  0  0
   -0.6722   -1.0997   -0.9432 H   0  0  0  0  0  0  0  0  0  0  0  0
   -0.4292   -2.0255    0.5659 H   0  0  0  0  0  0  0  0  0  0  0  0
    1.7111   -1.9545   -0.7714 H   0  0  0  0  0  0  0  0  0  0  0  0
    2.4076   -1.6669    0.8558 H   0  0  0  0  0  0  0  0  0  0  0  0
    2.7075    0.0842   -1.6464 H   0  0  0  0  0  0  0  0  0  0  0  0
    2.8018    2.0224   -0.2955 H   0  0  0  0  0  0  0  0  0  0  0  0
    0.6032    1.5123   -0.4862 H   0  0  0  0  0  0  0  0  0  0  0  0
    0.7286    1.4274    1.3084 H   0  0  0  0  0  0  0  0  0  0  0  0
  1  2  1  0
  2  3  2  0
  2  4  1  0
  4  5  1  0
  4  6  1  0
  6  7  1  0
  7  8  1  0
  8  9  1  0
  9 10  1  0
  9 11  1  0
 11 12  1  0
 11 13  1  0
 13  7  1  0
  1 14  1  0
  1 15  1  0
  4 16  1  1
  5 17  1  0
  5 18  1  0
  6 19  1  0
  6 20  1  0
  8 21  1  0
  8 22  1  0
  9 23  1  6
 11 24  1  6
 13 25  1  0
 13 26  1  0
M  END
$$$$

     RDKit          3D

 26 26  0  0  0  0  0  0  0  0999 V2000
   -3.9898   -0.4352   -0.0103 N   0  0  0  0  0  0  0  0  0  0  0  0
   -2.6871   -0.8698   -0.3692 C   0  0  0  0  0  0  0  0  0  0  0  0
   -2.5816   -1.6663   -1.3359 O   0  0  0  0  0  0  0  0  0  0  0  0
   -1.4690   -0.4184    0.3516 C   0  0  2  0  0  0  0  0  0  0  0  0
   -1.7649    0.4837    1.4227 N   0  0  0  0  0  0  0  0  0  0  0  0
   -0.5150    0.2193   -0.6339 C   0  0  0  0  0  0  0  0  0  0  0  0
    0.6964    0.6748    0.0472 N   0  0  0  0  0  0  0  0  0  0  0  0
    1.6253    1.2830   -0.8421 C   0  0  0  0  0  0  0  0  0  0  0  0
    2.9113    0.5339   -0.8031 C   0  0  2  0  0  0  0  0  0  0  0  0
    3.0263   -0.3146   -1.9019 F   0  0  0  0  0  0  0  0  0  0  0  0
    2.8159   -0.3075    0.4483 C   0  0  2  0  0  0  0  0  0  0  0  0
    3.3802   -1.5416    0.3034 F   0  0  0  0  0  0  0  0  0  0  0  0
    1.3376   -0.4099    0.7269 C   0  0  0  0  0  0  0  0  0  0  0  0
   -4.7723   -1.1205   -0.0466 H   0  0  0  0  0  0  0  0  0  0  0  0
   -4.1664    0.5350    0.2809 H   0  0  0  0  0  0  0  0  0  0  0  0
   -0.9935   -1.3282    0.7843 H   0  0  0  0  0  0  0  0  0  0  0  0
   -2.7391    0.4417    1.7634 H   0  0  0  0  0  0  0  0  0  0  0  0
   -1.1246    0.3049    2.2085 H   0  0  0  0  0  0  0  0  0  0  0  0
   -1.0032    1.0772   -1.1312 H   0  0  0  0  0  0  0  0  0  0  0  0
   -0.2080   -0.4919   -1.4160 H   0  0  0  0  0  0  0  0  0  0  0  0
    1.7654    2.3442   -0.5466 H   0  0  0  0  0  0  0  0  0  0  0  0
    1.2453    1.2643   -1.8961 H   0  0  0  0  0  0  0  0  0  0  0  0
    3.7687    1.2382   -0.7660 H   0  0  0  0  0  0  0  0  0  0  0  0
    3.3035    0.2535    1.2584 H   0  0  0  0  0  0  0  0  0  0  0  0
    1.1501   -0.3636    1.8012 H   0  0  0  0  0  0  0  0  0  0  0  0
    0.9885   -1.3864    0.3022 H   0  0  0  0  0  0  0  0  0  0  0  0
  1  2  1  0
  2  3  2  0
  2  4  1  0
  4  5  1  0
  4  6  1  0
  6  7  1  0
  7  8  1  0
  8  9  1  0
  9 10  1  0
  9 11  1  0
 11 12  1  0
 11 13  1  0
 13  7  1  0
  1 14  1  0
  1 15  1  0
  4 16  1  1
  5 17  1  0
  5 18  1  0
  6 19  1  0
  6 20  1  0
  8 21  1  0
  8 22  1  0
  9 23  1  1
 11 24  1  1
 13 25  1  0
 13 26  1  0
M  END
$$$$

     RDKit          3D

 26 26  0  0  0  0  0  0  0  0999 V2000
   -3.6006    0.7944    0.8108 N   0  0  0  0  0  0  0  0  0  0  0  0
   -2.2108    0.9908    0.7246 C   0  0  0  0  0  0  0  0  0  0  0  0
   -1.6054    1.5369    1.6678 O   0  0  0  0  0  0  0  0  0  0  0  0
   -1.4786    0.5521   -0.4722 C   0  0  2  0  0  0  0  0  0  0  0  0
   -2.4259   -0.0496   -1.3902 N   0  0  0  0  0  0  0  0  0  0  0  0
   -0.4384   -0.5018   -0.1734 C   0  0  0  0  0  0  0  0  0  0  0  0
    0.5750   -0.0549    0.7611 N   0  0  0  0  0  0  0  0  0  0  0  0
    1.4207    0.9725    0.1993 C   0  0  0  0  0  0  0  0  0  0  0  0
    2.8291    0.4217    0.1606 C   0  0  2  0  0  0  0  0  0  0  0  0
    3.5331    0.8877   -0.9301 F   0  0  0  0  0  0  0  0  0  0  0  0
    2.5576   -1.0674    0.0711 C   0  0  2  0  0  0  0  0  0  0  0  0
    2.1919   -1.4549   -1.2058 F   0  0  0  0  0  0  0  0  0  0  0  0
    1.4092   -1.2030    1.0493 C   0  0  0  0  0  0  0  0  0  0  0  0
   -4.0418    0.0666    0.2031 H   0  0  0  0  0  0  0  0  0  0  0  0
   -4.2236    1.3482    1.4596 H   0  0  0  0  0  0  0  0  0  0  0  0
   -1.0196    1.4369   -0.9693 H   0  0  0  0  0  0  0  0  0  0  0  0
   -2.5216   -1.0627   -1.0967 H   0  0  0  0  0  0  0  0  0  0  0  0
   -2.0498   -0.0918   -2.3626 H   0  0  0  0  0  0  0  0  0  0  0  0
   -0.9675   -1.3610    0.2841 H   0  0  0  0  0  0  0  0  0  0  0  0
   -0.0231   -0.8452   -1.1343 H   0  0  0  0  0  0  0  0  0  0  0  0
    1.4467    1.8868    0.8299 H   0  0  0  0  0  0  0  0  0  0  0  0
    1.1331    1.1832   -0.8515 H   0  0  0  0  0  0  0  0  0  0  0  0
    3.3789    0.5852    1.1134 H   0  0  0  0  0  0  0  0  0  0  0  0
    3.4331   -1.6724    0.3683 H   0  0  0  0  0  0  0  0  0  0  0  0
    1.8350   -1.1412    2.0578 H   0  0  0  0  0  0  0  0  0  0  0  0
    0.8633   -2.1573    0.8640 H   0  0  0  0  0  0  0  0  0  0  0  0
  1  2  1  0
  2  3  2  0
  2  4  1  0
  4  5  1  0
  4  6  1  0
  6  7  1  0
  7  8  1  0
  8  9  1  0
  9 10  1  0
  9 11  1  0
 11 12  1  0
 11 13  1  0
 13  7  1  0
  1 14  1  0
  1 15  1  0
  4 16  1  6
  5 17  1  0
  5 18  1  0
  6 19  1  0
  6 20  1  0
  8 21  1  0
  8 22  1  0
  9 23  1  1
 11 24  1  1
 13 25  1  0
 13 26  1  0
M  END
$$$$

     RDKit          3D

 26 26  0  0  0  0  0  0  0  0999 V2000
    3.3443   -1.0221    0.3412 N   0  0  0  0  0  0  0  0  0  0  0  0
    2.8515    0.3043    0.3952 C   0  0  0  0  0  0  0  0  0  0  0  0
    3.4205    1.1979    1.0526 O   0  0  0  0  0  0  0  0  0  0  0  0
    1.5989    0.5962   -0.3760 C   0  0  2  0  0  0  0  0  0  0  0  0
    1.2609    1.9670   -0.2402 N   0  0  0  0  0  0  0  0  0  0  0  0
    0.5548   -0.3888    0.0665 C   0  0  0  0  0  0  0  0  0  0  0  0
   -0.6620   -0.1649   -0.6617 N   0  0  0  0  0  0  0  0  0  0  0  0
   -1.5523   -1.3118   -0.5911 C   0  0  0  0  0  0  0  0  0  0  0  0
   -2.6158   -1.0428    0.4120 C   0  0  2  0  0  0  0  0  0  0  0  0
   -3.8818   -0.9548   -0.1662 F   0  0  0  0  0  0  0  0  0  0  0  0
   -2.2059    0.2851    1.0015 C   0  0  2  0  0  0  0  0  0  0  0  0
   -3.2901    1.0522    1.3890 F   0  0  0  0  0  0  0  0  0  0  0  0
   -1.4415    0.9194   -0.1287 C   0  0  0  0  0  0  0  0  0  0  0  0
    3.2374   -1.6426    1.1556 H   0  0  0  0  0  0  0  0  0  0  0  0
    3.8076   -1.3573   -0.5174 H   0  0  0  0  0  0  0  0  0  0  0  0
    1.8244    0.4112   -1.4617 H   0  0  0  0  0  0  0  0  0  0  0  0
    1.3730    2.4186    0.6565 H   0  0  0  0  0  0  0  0  0  0  0  0
    1.3315    2.5493   -1.0780 H   0  0  0  0  0  0  0  0  0  0  0  0
    0.3520   -0.0983    1.1588 H   0  0  0  0  0  0  0  0  0  0  0  0
    0.9124   -1.4192    0.0845 H   0  0  0  0  0  0  0  0  0  0  0  0
   -0.9862   -2.2508   -0.4103 H   0  0  0  0  0  0  0  0  0  0  0  0
   -2.0258   -1.3914   -1.6096 H   0  0  0  0  0  0  0  0  0  0  0  0
   -2.6309   -1.8439    1.1722 H   0  0  0  0  0  0  0  0  0  0  0  0
   -1.5350    0.1720    1.8636 H   0  0  0  0  0  0  0  0  0  0  0  0
   -2.1495    1.2083   -0.9553 H   0  0  0  0  0  0  0  0  0  0  0  0
   -0.8926    1.8072    0.1853 H   0  0  0  0  0  0  0  0  0  0  0  0
  1  2  1  0
  2  3  2  0
  2  4  1  0
  4  5  1  0
  4  6  1  0
  6  7  1  0
  7  8  1  0
  8  9  1  0
  9 10  1  0
  9 11  1  0
 11 12  1  0
 11 13  1  0
 13  7  1  0
  1 14  1  0
  1 15  1  0
  4 16  1  6
  5 17  1  0
  5 18  1  0
  6 19  1  0
  6 20  1  0
  8 21  1  0
  8 22  1  0
  9 23  1  1
 11 24  1  1
 13 25  1  0
 13 26  1  0
M  END
$$$$

     RDKit          3D

 26 26  0  0  0  0  0  0  0  0999 V2000
    3.4548    0.8663    0.0439 N   0  0  0  0  0  0  0  0  0  0  0  0
    2.8739   -0.4126    0.0964 C   0  0  0  0  0  0  0  0  0  0  0  0
    3.4584   -1.3854   -0.4058 O   0  0  0  0  0  0  0  0  0  0  0  0
    1.5681   -0.5954    0.7518 C   0  0  2  0  0  0  0  0  0  0  0  0
    1.0657   -1.9613    0.5448 N   0  0  0  0  0  0  0  0  0  0  0  0
    0.6198    0.4045    0.1959 C   0  0  0  0  0  0  0  0  0  0  0  0
   -0.6975    0.3629    0.7269 N   0  0  0  0  0  0  0  0  0  0  0  0
   -1.3671   -0.8299    0.3253 C   0  0  0  0  0  0  0  0  0  0  0  0
   -2.8126   -0.4504    0.0298 C   0  0  2  0  0  0  0  0  0  0  0  0
   -3.3341   -1.2098   -1.0035 F   0  0  0  0  0  0  0  0  0  0  0  0
   -2.6807    0.9683   -0.4126 C   0  0  2  0  0  0  0  0  0  0  0  0
   -2.6304    1.0536   -1.8065 F   0  0  0  0  0  0  0  0  0  0  0  0
   -1.4344    1.4985    0.2358 C   0  0  0  0  0  0  0  0  0  0  0  0
    4.0602    1.2109    0.7930 H   0  0  0  0  0  0  0  0  0  0  0  0
    3.2666    1.4741   -0.7799 H   0  0  0  0  0  0  0  0  0  0  0  0
    1.7277   -0.4715    1.8572 H   0  0  0  0  0  0  0  0  0  0  0  0
    1.7172   -2.5740    1.0953 H   0  0  0  0  0  0  0  0  0  0  0  0
    1.2551   -2.1533   -0.4874 H   0  0  0  0  0  0  0  0  0  0  0  0
    0.6530    0.3503   -0.9161 H   0  0  0  0  0  0  0  0  0  0  0  0
    1.0474    1.4224    0.4440 H   0  0  0  0  0  0  0  0  0  0  0  0
   -0.9435   -1.2082   -0.6329 H   0  0  0  0  0  0  0  0  0  0  0  0
   -1.3754   -1.6075    1.1266 H   0  0  0  0  0  0  0  0  0  0  0  0
   -3.3966   -0.5427    0.9582 H   0  0  0  0  0  0  0  0  0  0  0  0
   -3.5533    1.5429   -0.0577 H   0  0  0  0  0  0  0  0  0  0  0  0
   -0.8749    2.0676   -0.5439 H   0  0  0  0  0  0  0  0  0  0  0  0
   -1.6675    2.1797    1.0675 H   0  0  0  0  0  0  0  0  0  0  0  0
  1  2  1  0
  2  3  2  0
  2  4  1  0
  4  5  1  0
  4  6  1  0
  6  7  1  0
  7  8  1  0
  8  9  1  0
  9 10  1  0
  9 11  1  0
 11 12  1  0
 11 13  1  0
 13  7  1  0
  1 14  1  0
  1 15  1  0
  4 16  1  1
  5 17  1  0
  5 18  1  0
  6 19  1  0
  6 20  1  0
  8 21  1  0
  8 22  1  0
  9 23  1  1
 11 24  1  1
 13 25  1  0
 13 26  1  0
M  END
$$$$

     RDKit          3D

 26 26  0  0  0  0  0  0  0  0999 V2000
    3.8959    0.0506   -0.6200 N   0  0  0  0  0  0  0  0  0  0  0  0
    2.6645    0.7477   -0.5002 C   0  0  0  0  0  0  0  0  0  0  0  0
    2.5342    1.7722   -1.2192 O   0  0  0  0  0  0  0  0  0  0  0  0
    1.5805    0.3072    0.4160 C   0  0  2  0  0  0  0  0  0  0  0  0
    2.0932   -0.8814    1.1159 N   0  0  0  0  0  0  0  0  0  0  0  0
    0.3800   -0.1091   -0.3960 C   0  0  0  0  0  0  0  0  0  0  0  0
   -0.7289   -0.5533    0.4155 N   0  0  0  0  0  0  0  0  0  0  0  0
   -1.7735   -0.9770   -0.4977 C   0  0  0  0  0  0  0  0  0  0  0  0
   -3.0536   -0.3725    0.0501 C   0  0  2  0  0  0  0  0  0  0  0  0
   -4.0444   -0.2613   -0.8830 F   0  0  0  0  0  0  0  0  0  0  0  0
   -2.5157    0.9958    0.5006 C   0  0  2  0  0  0  0  0  0  0  0  0
   -2.1465    1.6914   -0.6423 F   0  0  0  0  0  0  0  0  0  0  0  0
   -1.2674    0.4979    1.2464 C   0  0  0  0  0  0  0  0  0  0  0  0
    4.1129   -0.4539   -1.5072 H   0  0  0  0  0  0  0  0  0  0  0  0
    4.5835    0.0357    0.1591 H   0  0  0  0  0  0  0  0  0  0  0  0
    1.3781    1.1003    1.1362 H   0  0  0  0  0  0  0  0  0  0  0  0
    2.3601   -1.5427    0.3518 H   0  0  0  0  0  0  0  0  0  0  0  0
    1.4156   -1.2579    1.7970 H   0  0  0  0  0  0  0  0  0  0  0  0
    0.1075    0.7488   -1.0398 H   0  0  0  0  0  0  0  0  0  0  0  0
    0.6556   -0.9498   -1.0564 H   0  0  0  0  0  0  0  0  0  0  0  0
   -1.6080   -0.5384   -1.4829 H   0  0  0  0  0  0  0  0  0  0  0  0
   -1.8120   -2.0845   -0.5013 H   0  0  0  0  0  0  0  0  0  0  0  0
   -3.3469   -0.9484    0.9577 H   0  0  0  0  0  0  0  0  0  0  0  0
   -3.2042    1.5434    1.1380 H   0  0  0  0  0  0  0  0  0  0  0  0
   -0.6171    1.3424    1.4247 H   0  0  0  0  0  0  0  0  0  0  0  0
   -1.6435    0.0968    2.2077 H   0  0  0  0  0  0  0  0  0  0  0  0
  1  2  1  0
  2  3  2  0
  2  4  1  0
  4  5  1  0
  4  6  1  0
  6  7  1  0
  7  8  1  0
  8  9  1  0
  9 10  1  0
  9 11  1  0
 11 12  1  0
 11 13  1  0
 13  7  1  0
  1 14  1  0
  1 15  1  0
  4 16  1  1
  5 17  1  0
  5 18  1  0
  6 19  1  0
  6 20  1  0
  8 21  1  0
  8 22  1  0
  9 23  1  1
 11 24  1  1
 13 25  1  0
 13 26  1  0
M  END
$$$$

     RDKit          3D

 26 26  0  0  0  0  0  0  0  0999 V2000
    1.6986    1.4803   -1.5213 N   0  0  0  0  0  0  0  0  0  0  0  0
    2.2262    0.1772   -1.3830 C   0  0  0  0  0  0  0  0  0  0  0  0
    3.1029   -0.2053   -2.1712 O   0  0  0  0  0  0  0  0  0  0  0  0
    1.7412   -0.7062   -0.3216 C   0  0  2  0  0  0  0  0  0  0  0  0
    2.4136   -1.9955   -0.3578 N   0  0  0  0  0  0  0  0  0  0  0  0
    0.2618   -0.9753   -0.4015 C   0  0  0  0  0  0  0  0  0  0  0  0
   -0.5471    0.1984   -0.3052 N   0  0  0  0  0  0  0  0  0  0  0  0
   -1.9368   -0.2083   -0.3969 C   0  0  0  0  0  0  0  0  0  0  0  0
   -2.5404   -0.0273    0.9595 C   0  0  2  0  0  0  0  0  0  0  0  0
   -3.8687    0.3341    0.9176 F   0  0  0  0  0  0  0  0  0  0  0  0
   -1.7530    1.1382    1.5152 C   0  0  2  0  0  0  0  0  0  0  0  0
   -2.3473    2.2981    1.0484 F   0  0  0  0  0  0  0  0  0  0  0  0
   -0.3856    0.9261    0.9150 C   0  0  0  0  0  0  0  0  0  0  0  0
    0.7035    1.5942   -1.7770 H   0  0  0  0  0  0  0  0  0  0  0  0
    2.2809    2.3215   -1.3737 H   0  0  0  0  0  0  0  0  0  0  0  0
    1.9315   -0.2960    0.7054 H   0  0  0  0  0  0  0  0  0  0  0  0
    1.9937   -2.5714    0.4065 H   0  0  0  0  0  0  0  0  0  0  0  0
    3.4259   -1.8691   -0.1266 H   0  0  0  0  0  0  0  0  0  0  0  0
    0.0321   -1.4528   -1.3910 H   0  0  0  0  0  0  0  0  0  0  0  0
   -0.0634   -1.7025    0.3682 H   0  0  0  0  0  0  0  0  0  0  0  0
   -2.0353   -1.2976   -0.6616 H   0  0  0  0  0  0  0  0  0  0  0  0
   -2.4854    0.3511   -1.1807 H   0  0  0  0  0  0  0  0  0  0  0  0
   -2.3322   -0.8997    1.5778 H   0  0  0  0  0  0  0  0  0  0  0  0
   -1.7693    1.0575    2.6114 H   0  0  0  0  0  0  0  0  0  0  0  0
    0.2311    0.4006    1.6691 H   0  0  0  0  0  0  0  0  0  0  0  0
    0.0213    1.9296    0.6750 H   0  0  0  0  0  0  0  0  0  0  0  0
  1  2  1  0
  2  3  2  0
  2  4  1  0
  4  5  1  0
  4  6  1  0
  6  7  1  0
  7  8  1  0
  8  9  1  0
  9 10  1  0
  9 11  1  0
 11 12  1  0
 11 13  1  0
 13  7  1  0
  1 14  1  0
  1 15  1  0
  4 16  1  1
  5 17  1  0
  5 18  1  0
  6 19  1  0
  6 20  1  0
  8 21  1  0
  8 22  1  0
  9 23  1  1
 11 24  1  1
 13 25  1  0
 13 26  1  0
M  END
$$$$
