
     RDKit          3D

 26 27  0  0  0  0  0  0  0  0999 V2000
    3.3827    1.3787   -0.2898 N   0  0  0  0  0  0  0  0  0  0  0  0
    2.9866   -0.0271   -0.3227 C   0  0  0  0  0  0  0  0  0  0  0  0
    2.1892   -0.3692    0.8886 C   0  0  2  0  0  0  0  0  0  0  0  0
    1.6671   -1.7703    1.0780 C   0  0  0  0  0  0  0  0  0  0  0  0
    0.7527   -0.5848    0.9351 C   0  0  2  0  0  0  0  0  0  0  0  0
   -0.1373   -0.6569   -0.2400 C   0  0  0  0  0  0  0  0  0  0  0  0
    0.3535   -1.1067   -1.3327 O   0  0  0  0  0  0  0  0  0  0  0  0
   -1.4858   -0.2628   -0.2316 N   0  0  0  0  0  0  0  0  0  0  0  0
   -2.4055    0.2767    0.7368 C   0  0  0  0  0  0  0  0  0  0  0  0
   -3.0169    1.0459   -0.4432 C   0  0  0  0  0  0  0  0  0  0  0  0
   -4.3725    1.2307   -0.3649 O   0  0  0  0  0  0  0  0  0  0  0  0
   -2.5683   -0.2135   -1.1742 C   0  0  0  0  0  0  0  0  0  0  0  0
    3.4924    1.7618   -1.2365 H   0  0  0  0  0  0  0  0  0  0  0  0
    4.1602    1.5634    0.3607 H   0  0  0  0  0  0  0  0  0  0  0  0
    3.8967   -0.6813   -0.3258 H   0  0  0  0  0  0  0  0  0  0  0  0
    2.4701   -0.1755   -1.2778 H   0  0  0  0  0  0  0  0  0  0  0  0
    2.6565    0.0201    1.8442 H   0  0  0  0  0  0  0  0  0  0  0  0
    1.6368   -2.2301    2.0861 H   0  0  0  0  0  0  0  0  0  0  0  0
    1.7271   -2.5053    0.2572 H   0  0  0  0  0  0  0  0  0  0  0  0
    0.2079   -0.1876    1.8422 H   0  0  0  0  0  0  0  0  0  0  0  0
   -3.1079   -0.4697    1.1475 H   0  0  0  0  0  0  0  0  0  0  0  0
   -1.9634    0.9307    1.5093 H   0  0  0  0  0  0  0  0  0  0  0  0
   -2.4056    1.9165   -0.7237 H   0  0  0  0  0  0  0  0  0  0  0  0
   -4.5414    2.2210   -0.4661 H   0  0  0  0  0  0  0  0  0  0  0  0
   -2.2912   -0.0624   -2.2313 H   0  0  0  0  0  0  0  0  0  0  0  0
   -3.2836   -1.0421   -0.9768 H   0  0  0  0  0  0  0  0  0  0  0  0
  1  2  1  0
  2  3  1  0
  3  4  1  0
  4  5  1  0
  5  6  1  0
  6  7  2  0
  6  8  1  0
  8  9  1  0
  9 10  1  0
 10 11  1  0
 10 12  1  0
  5  3  1  0
 12  8  1  0
  1 13  1  0
  1 14  1  0
  2 15  1  0
  2 16  1  0
  3 17  1  1
  4 18  1  0
  4 19  1  0
  5 20  1  1
  9 21  1  0
  9 22  1  0
 10 23  1  0
 11 24  1  0
 12 25  1  0
 12 26  1  0
M  END
$$$$

     RDKit          3D

 26 27  0  0  0  0  0  0  0  0999 V2000
   -1.8658    0.8401    1.4802 N   0  0  0  0  0  0  0  0  0  0  0  0
   -1.9543    0.4085    0.0930 C   0  0  0  0  0  0  0  0  0  0  0  0
   -2.0415   -1.0682    0.0083 C   0  0  2  0  0  0  0  0  0  0  0  0
   -1.0220   -2.0028    0.5072 C   0  0  0  0  0  0  0  0  0  0  0  0
   -0.9850   -1.7620   -0.9273 C   0  0  2  0  0  0  0  0  0  0  0  0
   -0.0142   -0.8949   -1.6023 C   0  0  0  0  0  0  0  0  0  0  0  0
   -0.0870   -0.8556   -2.8862 O   0  0  0  0  0  0  0  0  0  0  0  0
    0.9843   -0.1143   -0.9496 N   0  0  0  0  0  0  0  0  0  0  0  0
    1.9745    0.8001   -1.5107 C   0  0  0  0  0  0  0  0  0  0  0  0
    2.4992    1.0845   -0.1448 C   0  0  0  0  0  0  0  0  0  0  0  0
    2.2597    2.4258    0.2209 O   0  0  0  0  0  0  0  0  0  0  0  0
    1.4800    0.1091    0.3661 C   0  0  0  0  0  0  0  0  0  0  0  0
   -2.7767    0.6962    1.9802 H   0  0  0  0  0  0  0  0  0  0  0  0
   -1.7470    1.8918    1.4469 H   0  0  0  0  0  0  0  0  0  0  0  0
   -2.9324    0.8281   -0.3053 H   0  0  0  0  0  0  0  0  0  0  0  0
   -1.1275    0.8712   -0.4706 H   0  0  0  0  0  0  0  0  0  0  0  0
   -3.0881   -1.4860   -0.0682 H   0  0  0  0  0  0  0  0  0  0  0  0
   -0.2347   -1.5543    1.1423 H   0  0  0  0  0  0  0  0  0  0  0  0
   -1.3533   -3.0261    0.8466 H   0  0  0  0  0  0  0  0  0  0  0  0
   -1.5243   -2.4618   -1.6269 H   0  0  0  0  0  0  0  0  0  0  0  0
    2.6905    0.2891   -2.1888 H   0  0  0  0  0  0  0  0  0  0  0  0
    1.4717    1.6758   -2.0133 H   0  0  0  0  0  0  0  0  0  0  0  0
    3.5537    0.7820    0.0260 H   0  0  0  0  0  0  0  0  0  0  0  0
    2.9959    2.7581    0.7618 H   0  0  0  0  0  0  0  0  0  0  0  0
    0.8444    0.5828    1.1155 H   0  0  0  0  0  0  0  0  0  0  0  0
    2.0001   -0.8169    0.7606 H   0  0  0  0  0  0  0  0  0  0  0  0
  1  2  1  0
  2  3  1  0
  3  4  1  0
  4  5  1  0
  5  6  1  0
  6  7  2  0
  6  8  1  0
  8  9  1  0
  9 10  1  0
 10 11  1  0
 10 12  1  0
  5  3  1  0
 12  8  1  0
  1 13  1  0
  1 14  1  0
  2 15  1  0
  2 16  1  0
  3 17  1  6
  4 18  1  0
  4 19  1  0
  5 20  1  6
  9 21  1  0
  9 22  1  0
 10 23  1  0
 11 24  1  0
 12 25  1  0
 12 26  1  0
M  END
$$$$

     RDKit          3D

 26 27  0  0  0  0  0  0  0  0999 V2000
   -2.9607    0.6735    1.2063 N   0  0  0  0  0  0  0  0  0  0  0  0
   -3.2435    0.1246   -0.0646 C   0  0  0  0  0  0  0  0  0  0  0  0
   -2.1875   -0.6202   -0.7743 C   0  0  2  0  0  0  0  0  0  0  0  0
   -1.6895   -1.8446    0.0209 C   0  0  0  0  0  0  0  0  0  0  0  0
   -0.7856   -0.7773   -0.4803 C   0  0  2  0  0  0  0  0  0  0  0  0
    0.0564    0.0296    0.4118 C   0  0  0  0  0  0  0  0  0  0  0  0
   -0.4189    0.4908    1.4675 O   0  0  0  0  0  0  0  0  0  0  0  0
    1.4236    0.3360    0.1529 N   0  0  0  0  0  0  0  0  0  0  0  0
    2.2940   -0.0205   -0.9501 C   0  0  0  0  0  0  0  0  0  0  0  0
    3.2873    1.0241   -0.5492 C   0  0  0  0  0  0  0  0  0  0  0  0
    4.5680    0.4880   -0.5000 O   0  0  0  0  0  0  0  0  0  0  0  0
    2.5332    1.0531    0.7398 C   0  0  0  0  0  0  0  0  0  0  0  0
   -2.8560    1.7330    1.1849 H   0  0  0  0  0  0  0  0  0  0  0  0
   -3.7318    0.5201    1.9200 H   0  0  0  0  0  0  0  0  0  0  0  0
   -4.1974   -0.4837    0.0486 H   0  0  0  0  0  0  0  0  0  0  0  0
   -3.5994    0.9850   -0.7157 H   0  0  0  0  0  0  0  0  0  0  0  0
   -2.5126   -0.9615   -1.8213 H   0  0  0  0  0  0  0  0  0  0  0  0
   -1.7059   -2.8324   -0.4346 H   0  0  0  0  0  0  0  0  0  0  0  0
   -1.8381   -1.8225    1.1341 H   0  0  0  0  0  0  0  0  0  0  0  0
   -0.1577   -1.1454   -1.3736 H   0  0  0  0  0  0  0  0  0  0  0  0
    2.6710   -1.0617   -0.7871 H   0  0  0  0  0  0  0  0  0  0  0  0
    1.8413    0.0971   -1.9538 H   0  0  0  0  0  0  0  0  0  0  0  0
    3.2589    1.9767   -1.1148 H   0  0  0  0  0  0  0  0  0  0  0  0
    4.6227   -0.4227   -0.9038 H   0  0  0  0  0  0  0  0  0  0  0  0
    3.0288    0.4014    1.5032 H   0  0  0  0  0  0  0  0  0  0  0  0
    2.2996    2.0596    1.1242 H   0  0  0  0  0  0  0  0  0  0  0  0
  1  2  1  0
  2  3  1  0
  3  4  1  0
  4  5  1  0
  5  6  1  0
  6  7  2  0
  6  8  1  0
  8  9  1  0
  9 10  1  0
 10 11  1  0
 10 12  1  0
  5  3  1  0
 12  8  1  0
  1 13  1  0
  1 14  1  0
  2 15  1  0
  2 16  1  0
  3 17  1  6
  4 18  1  0
  4 19  1  0
  5 20  1  6
  9 21  1  0
  9 22  1  0
 10 23  1  0
 11 24  1  0
 12 25  1  0
 12 26  1  0
M  END
$$$$

     RDKit          3D

 26 27  0  0  0  0  0  0  0  0999 V2000
    4.0274    0.5419   -0.0208 N   0  0  0  0  0  0  0  0  0  0  0  0
    2.6594    0.5055    0.4921 C   0  0  0  0  0  0  0  0  0  0  0  0
    2.0580   -0.8160    0.1521 C   0  0  2  0  0  0  0  0  0  0  0  0
    1.9486   -1.2208   -1.2939 C   0  0  0  0  0  0  0  0  0  0  0  0
    0.7188   -0.9999   -0.4675 C   0  0  2  0  0  0  0  0  0  0  0  0
   -0.1082    0.1787   -0.7326 C   0  0  0  0  0  0  0  0  0  0  0  0
    0.4312    1.2262   -1.1868 O   0  0  0  0  0  0  0  0  0  0  0  0
   -1.4969    0.1519   -0.4852 N   0  0  0  0  0  0  0  0  0  0  0  0
   -2.5869    1.0738   -0.6166 C   0  0  0  0  0  0  0  0  0  0  0  0
   -3.1926    0.3768    0.6091 C   0  0  0  0  0  0  0  0  0  0  0  0
   -4.5503    0.2734    0.6086 O   0  0  0  0  0  0  0  0  0  0  0  0
   -2.4395   -0.8092    0.0082 C   0  0  0  0  0  0  0  0  0  0  0  0
    4.7159    0.1801    0.6695 H   0  0  0  0  0  0  0  0  0  0  0  0
    4.3072    1.4974   -0.3054 H   0  0  0  0  0  0  0  0  0  0  0  0
    2.0936    1.3942    0.2385 H   0  0  0  0  0  0  0  0  0  0  0  0
    2.8047    0.5736    1.6200 H   0  0  0  0  0  0  0  0  0  0  0  0
    2.3361   -1.6379    0.8858 H   0  0  0  0  0  0  0  0  0  0  0  0
    2.1515   -0.4122   -2.0415 H   0  0  0  0  0  0  0  0  0  0  0  0
    2.2366   -2.2365   -1.6049 H   0  0  0  0  0  0  0  0  0  0  0  0
    0.1564   -1.9354   -0.1557 H   0  0  0  0  0  0  0  0  0  0  0  0
   -3.1984    0.8545   -1.5317 H   0  0  0  0  0  0  0  0  0  0  0  0
   -2.3676    2.1367   -0.4704 H   0  0  0  0  0  0  0  0  0  0  0  0
   -2.6906    0.7394    1.5080 H   0  0  0  0  0  0  0  0  0  0  0  0
   -4.9355    1.1753    0.7407 H   0  0  0  0  0  0  0  0  0  0  0  0
   -2.9972   -1.2707   -0.8536 H   0  0  0  0  0  0  0  0  0  0  0  0
   -2.0817   -1.5407    0.7329 H   0  0  0  0  0  0  0  0  0  0  0  0
  1  2  1  0
  2  3  1  0
  3  4  1  0
  4  5  1  0
  5  6  1  0
  6  7  2  0
  6  8  1  0
  8  9  1  0
  9 10  1  0
 10 11  1  0
 10 12  1  0
  5  3  1  0
 12  8  1  0
  1 13  1  0
  1 14  1  0
  2 15  1  0
  2 16  1  0
  3 17  1  1
  4 18  1  0
  4 19  1  0
  5 20  1  1
  9 21  1  0
  9 22  1  0
 10 23  1  0
 11 24  1  0
 12 25  1  0
 12 26  1  0
M  END
$$$$

     RDKit          3D

 26 27  0  0  0  0  0  0  0  0999 V2000
    3.7455    1.0487   -0.7015 N   0  0  0  0  0  0  0  0  0  0  0  0
    3.1208   -0.2608   -0.5436 C   0  0  0  0  0  0  0  0  0  0  0  0
    2.2660   -0.2667    0.6777 C   0  0  2  0  0  0  0  0  0  0  0  0
    1.5351   -1.5316    1.0127 C   0  0  0  0  0  0  0  0  0  0  0  0
    0.8034   -0.2089    0.6671 C   0  0  2  0  0  0  0  0  0  0  0  0
   -0.0282   -0.3338   -0.5194 C   0  0  0  0  0  0  0  0  0  0  0  0
    0.3350   -0.8635   -1.6038 O   0  0  0  0  0  0  0  0  0  0  0  0
   -1.3562    0.1689   -0.4886 N   0  0  0  0  0  0  0  0  0  0  0  0
   -2.5037    0.2645   -1.3911 C   0  0  0  0  0  0  0  0  0  0  0  0
   -3.3811    0.0973   -0.1434 C   0  0  0  0  0  0  0  0  0  0  0  0
   -4.5327    0.8340   -0.2650 O   0  0  0  0  0  0  0  0  0  0  0  0
   -2.2077    0.8456    0.5034 C   0  0  0  0  0  0  0  0  0  0  0  0
    4.6137    1.0801   -0.1244 H   0  0  0  0  0  0  0  0  0  0  0  0
    3.0876    1.7821   -0.3554 H   0  0  0  0  0  0  0  0  0  0  0  0
    3.9790   -0.9788   -0.3898 H   0  0  0  0  0  0  0  0  0  0  0  0
    2.6370   -0.5088   -1.4797 H   0  0  0  0  0  0  0  0  0  0  0  0
    2.7729    0.1882    1.5661 H   0  0  0  0  0  0  0  0  0  0  0  0
    1.4350   -1.8737    2.0493 H   0  0  0  0  0  0  0  0  0  0  0  0
    1.5775   -2.3169    0.2638 H   0  0  0  0  0  0  0  0  0  0  0  0
    0.3118    0.2877    1.5362 H   0  0  0  0  0  0  0  0  0  0  0  0
   -2.5803    1.3058   -1.7472 H   0  0  0  0  0  0  0  0  0  0  0  0
   -2.5930   -0.5335   -2.1257 H   0  0  0  0  0  0  0  0  0  0  0  0
   -3.4668   -0.9366    0.2099 H   0  0  0  0  0  0  0  0  0  0  0  0
   -5.3208    0.2245   -0.2743 H   0  0  0  0  0  0  0  0  0  0  0  0
   -2.2414    1.9197    0.2657 H   0  0  0  0  0  0  0  0  0  0  0  0
   -2.0085    0.5666    1.5407 H   0  0  0  0  0  0  0  0  0  0  0  0
  1  2  1  0
  2  3  1  0
  3  4  1  0
  4  5  1  0
  5  6  1  0
  6  7  2  0
  6  8  1  0
  8  9  1  0
  9 10  1  0
 10 11  1  0
 10 12  1  0
  5  3  1  0
 12  8  1  0
  1 13  1  0
  1 14  1  0
  2 15  1  0
  2 16  1  0
  3 17  1  1
  4 18  1  0
  4 19  1  0
  5 20  1  1
  9 21  1  0
  9 22  1  0
 10 23  1  0
 11 24  1  0
 12 25  1  0
 12 26  1  0
M  END
$$$$

     RDKit          3D

 26 27  0  0  0  0  0  0  0  0999 V2000
   -3.2190    1.2651    1.0010 N   0  0  0  0  0  0  0  0  0  0  0  0
   -2.8173   -0.1451    0.9593 C   0  0  0  0  0  0  0  0  0  0  0  0
   -2.2878   -0.5060   -0.3866 C   0  0  2  0  0  0  0  0  0  0  0  0
   -1.8066   -1.8601   -0.7370 C   0  0  0  0  0  0  0  0  0  0  0  0
   -0.8443   -0.6924   -0.6420 C   0  0  2  0  0  0  0  0  0  0  0  0
    0.1750   -0.7504    0.4244 C   0  0  0  0  0  0  0  0  0  0  0  0
   -0.0794   -1.3037    1.5121 O   0  0  0  0  0  0  0  0  0  0  0  0
    1.4563   -0.1779    0.2259 N   0  0  0  0  0  0  0  0  0  0  0  0
    2.1606    0.5335   -0.8289 C   0  0  0  0  0  0  0  0  0  0  0  0
    2.9575    1.2193    0.2613 C   0  0  0  0  0  0  0  0  0  0  0  0
    4.2997    1.4007   -0.0600 O   0  0  0  0  0  0  0  0  0  0  0  0
    2.6591   -0.0530    1.0233 C   0  0  0  0  0  0  0  0  0  0  0  0
   -4.2570    1.3687    1.0549 H   0  0  0  0  0  0  0  0  0  0  0  0
   -2.8036    1.7938    0.2020 H   0  0  0  0  0  0  0  0  0  0  0  0
   -3.7375   -0.7369    1.1600 H   0  0  0  0  0  0  0  0  0  0  0  0
   -2.0513   -0.2659    1.7269 H   0  0  0  0  0  0  0  0  0  0  0  0
   -2.8966   -0.0153   -1.2116 H   0  0  0  0  0  0  0  0  0  0  0  0
   -2.0373   -2.2950   -1.7299 H   0  0  0  0  0  0  0  0  0  0  0  0
   -1.7180   -2.6272    0.0643 H   0  0  0  0  0  0  0  0  0  0  0  0
   -0.4816   -0.2229   -1.6175 H   0  0  0  0  0  0  0  0  0  0  0  0
    1.5088    1.2166   -1.4109 H   0  0  0  0  0  0  0  0  0  0  0  0
    2.7701   -0.1633   -1.4235 H   0  0  0  0  0  0  0  0  0  0  0  0
    2.4537    2.0920    0.7085 H   0  0  0  0  0  0  0  0  0  0  0  0
    4.7406    1.7263    0.7826 H   0  0  0  0  0  0  0  0  0  0  0  0
    3.3640   -0.8663    0.7326 H   0  0  0  0  0  0  0  0  0  0  0  0
    2.4921    0.0654    2.1079 H   0  0  0  0  0  0  0  0  0  0  0  0
  1  2  1  0
  2  3  1  0
  3  4  1  0
  4  5  1  0
  5  6  1  0
  6  7  2  0
  6  8  1  0
  8  9  1  0
  9 10  1  0
 10 11  1  0
 10 12  1  0
  5  3  1  0
 12  8  1  0
  1 13  1  0
  1 14  1  0
  2 15  1  0
  2 16  1  0
  3 17  1  6
  4 18  1  0
  4 19  1  0
  5 20  1  6
  9 21  1  0
  9 22  1  0
 10 23  1  0
 11 24  1  0
 12 25  1  0
 12 26  1  0
M  END
$$$$

     RDKit          3D

 26 27  0  0  0  0  0  0  0  0999 V2000
    4.0461   -0.9225   -0.9651 N   0  0  0  0  0  0  0  0  0  0  0  0
    2.7403   -0.3687   -1.3618 C   0  0  0  0  0  0  0  0  0  0  0  0
    2.2166    0.3828   -0.1895 C   0  0  2  0  0  0  0  0  0  0  0  0
    2.0340   -0.5051    1.0490 C   0  0  0  0  0  0  0  0  0  0  0  0
    0.8878    0.2255    0.4041 C   0  0  2  0  0  0  0  0  0  0  0  0
   -0.2228   -0.5077   -0.1862 C   0  0  0  0  0  0  0  0  0  0  0  0
   -0.0190   -1.5124   -0.9010 O   0  0  0  0  0  0  0  0  0  0  0  0
   -1.5597   -0.1021    0.0338 N   0  0  0  0  0  0  0  0  0  0  0  0
   -2.9039   -0.5354   -0.3528 C   0  0  0  0  0  0  0  0  0  0  0  0
   -3.2961    0.9462   -0.3095 C   0  0  0  0  0  0  0  0  0  0  0  0
   -4.5757    1.1610    0.1434 O   0  0  0  0  0  0  0  0  0  0  0  0
   -2.2224    0.9798    0.7795 C   0  0  0  0  0  0  0  0  0  0  0  0
    4.7483   -0.1315   -0.9015 H   0  0  0  0  0  0  0  0  0  0  0  0
    3.9141   -1.2508    0.0239 H   0  0  0  0  0  0  0  0  0  0  0  0
    2.1264   -1.2124   -1.6997 H   0  0  0  0  0  0  0  0  0  0  0  0
    2.9484    0.2876   -2.2439 H   0  0  0  0  0  0  0  0  0  0  0  0
    2.7913    1.3375    0.0138 H   0  0  0  0  0  0  0  0  0  0  0  0
    2.4923   -0.1449    1.9806 H   0  0  0  0  0  0  0  0  0  0  0  0
    2.0114   -1.5955    0.9164 H   0  0  0  0  0  0  0  0  0  0  0  0
    0.5669    1.1106    1.0393 H   0  0  0  0  0  0  0  0  0  0  0  0
   -2.9827   -1.0076   -1.3306 H   0  0  0  0  0  0  0  0  0  0  0  0
   -3.4408   -1.0412    0.4899 H   0  0  0  0  0  0  0  0  0  0  0  0
   -3.0171    1.5155   -1.2049 H   0  0  0  0  0  0  0  0  0  0  0  0
   -4.9608    0.4112    0.6463 H   0  0  0  0  0  0  0  0  0  0  0  0
   -1.6574    1.9048    0.8535 H   0  0  0  0  0  0  0  0  0  0  0  0
   -2.6658    0.5752    1.7118 H   0  0  0  0  0  0  0  0  0  0  0  0
  1  2  1  0
  2  3  1  0
  3  4  1  0
  4  5  1  0
  5  6  1  0
  6  7  2  0
  6  8  1  0
  8  9  1  0
  9 10  1  0
 10 11  1  0
 10 12  1  0
  5  3  1  0
 12  8  1  0
  1 13  1  0
  1 14  1  0
  2 15  1  0
  2 16  1  0
  3 17  1  1
  4 18  1  0
  4 19  1  0
  5 20  1  1
  9 21  1  0
  9 22  1  0
 10 23  1  0
 11 24  1  0
 12 25  1  0
 12 26  1  0
M  END
$$$$

     RDKit          3D

 26 27  0  0  0  0  0  0  0  0999 V2000
   -4.1363   -0.3042   -0.8521 N   0  0  0  0  0  0  0  0  0  0  0  0
   -2.9523   -0.9300   -0.2587 C   0  0  0  0  0  0  0  0  0  0  0  0
   -2.2533    0.1021    0.5448 C   0  0  2  0  0  0  0  0  0  0  0  0
   -1.7682    1.3229   -0.1394 C   0  0  0  0  0  0  0  0  0  0  0  0
   -0.8127    0.3407    0.5802 C   0  0  2  0  0  0  0  0  0  0  0  0
    0.1722   -0.2223   -0.3472 C   0  0  0  0  0  0  0  0  0  0  0  0
   -0.2110   -0.6420   -1.4966 O   0  0  0  0  0  0  0  0  0  0  0  0
    1.5265   -0.2974    0.0300 N   0  0  0  0  0  0  0  0  0  0  0  0
    2.2975    0.0593    1.1892 C   0  0  0  0  0  0  0  0  0  0  0  0
    3.6042   -0.1947    0.4761 C   0  0  0  0  0  0  0  0  0  0  0  0
    4.2144    1.0068    0.1530 O   0  0  0  0  0  0  0  0  0  0  0  0
    2.7247   -0.7741   -0.6066 C   0  0  0  0  0  0  0  0  0  0  0  0
   -4.8938   -0.2823   -0.1602 H   0  0  0  0  0  0  0  0  0  0  0  0
   -3.8928    0.7079   -1.0711 H   0  0  0  0  0  0  0  0  0  0  0  0
   -3.3568   -1.7056    0.4424 H   0  0  0  0  0  0  0  0  0  0  0  0
   -2.3101   -1.4129   -0.9858 H   0  0  0  0  0  0  0  0  0  0  0  0
   -2.7935    0.3314    1.5164 H   0  0  0  0  0  0  0  0  0  0  0  0
   -1.8014    1.3341   -1.2275 H   0  0  0  0  0  0  0  0  0  0  0  0
   -1.8693    2.3313    0.3190 H   0  0  0  0  0  0  0  0  0  0  0  0
   -0.3644    0.6992    1.5513 H   0  0  0  0  0  0  0  0  0  0  0  0
    2.1497    1.0690    1.5767 H   0  0  0  0  0  0  0  0  0  0  0  0
    2.1780   -0.7076    2.0091 H   0  0  0  0  0  0  0  0  0  0  0  0
    4.2699   -0.9044    0.9662 H   0  0  0  0  0  0  0  0  0  0  0  0
    4.5664    1.4010    0.9775 H   0  0  0  0  0  0  0  0  0  0  0  0
    2.9121   -0.4333   -1.6267 H   0  0  0  0  0  0  0  0  0  0  0  0
    2.8002   -1.8948   -0.5708 H   0  0  0  0  0  0  0  0  0  0  0  0
  1  2  1  0
  2  3  1  0
  3  4  1  0
  4  5  1  0
  5  6  1  0
  6  7  2  0
  6  8  1  0
  8  9  1  0
  9 10  1  0
 10 11  1  0
 10 12  1  0
  5  3  1  0
 12  8  1  0
  1 13  1  0
  1 14  1  0
  2 15  1  0
  2 16  1  0
  3 17  1  1
  4 18  1  0
  4 19  1  0
  5 20  1  1
  9 21  1  0
  9 22  1  0
 10 23  1  0
 11 24  1  0
 12 25  1  0
 12 26  1  0
M  END
$$$$
