
     RDKit          3D

 28 27  0  0  0  0  0  0  0  0999 V2000
    4.7526    0.5771   -0.0554 C   0  0  0  0  0  0  0  0  0  0  0  0
    3.3032    0.4881    0.1132 N   0  0  0  0  0  0  0  0  0  0  0  0
    2.7119   -0.6465    0.7148 C   0  0  0  0  0  0  0  0  0  0  0  0
    3.3792   -1.6144    1.1266 O   0  0  0  0  0  0  0  0  0  0  0  0
    1.2148   -0.7317    0.8841 C   0  0  0  0  0  0  0  0  0  0  0  0
    0.5795    0.4460    0.3711 N   0  0  0  0  0  0  0  0  0  0  0  0
   -0.8425    0.3610    0.5321 C   0  0  0  0  0  0  0  0  0  0  0  0
   -1.4829   -0.6825   -0.3358 C   0  0  2  0  0  0  0  0  0  0  0  0
   -1.2662   -0.4485   -1.6912 O   0  0  0  0  0  0  0  0  0  0  0  0
   -2.9656   -0.7627   -0.0846 C   0  0  1  0  0  0  0  0  0  0  0  0
   -3.6061    0.5367   -0.5022 C   0  0  0  0  0  0  0  0  0  0  0  0
   -3.4678   -1.8289   -0.8561 O   0  0  0  0  0  0  0  0  0  0  0  0
    5.2328   -0.2826    0.4597 H   0  0  0  0  0  0  0  0  0  0  0  0
    5.0728    1.5075    0.4486 H   0  0  0  0  0  0  0  0  0  0  0  0
    5.0244    0.5420   -1.1299 H   0  0  0  0  0  0  0  0  0  0  0  0
    2.7106    1.2834   -0.2215 H   0  0  0  0  0  0  0  0  0  0  0  0
    0.9078   -1.6650    0.3920 H   0  0  0  0  0  0  0  0  0  0  0  0
    1.0550   -0.7666    1.9926 H   0  0  0  0  0  0  0  0  0  0  0  0
    0.8305    0.6094   -0.6348 H   0  0  0  0  0  0  0  0  0  0  0  0
   -1.3355    1.3333    0.3901 H   0  0  0  0  0  0  0  0  0  0  0  0
   -1.0143    0.0874    1.6089 H   0  0  0  0  0  0  0  0  0  0  0  0
   -1.0375   -1.6991   -0.1465 H   0  0  0  0  0  0  0  0  0  0  0  0
   -2.0663   -0.2161   -2.1974 H   0  0  0  0  0  0  0  0  0  0  0  0
   -3.2089   -0.9532    0.9762 H   0  0  0  0  0  0  0  0  0  0  0  0
   -4.4232    0.3169   -1.2297 H   0  0  0  0  0  0  0  0  0  0  0  0
   -4.0340    1.0370    0.4154 H   0  0  0  0  0  0  0  0  0  0  0  0
   -2.8442    1.1945   -0.9590 H   0  0  0  0  0  0  0  0  0  0  0  0
   -3.1802   -2.6588   -0.3813 H   0  0  0  0  0  0  0  0  0  0  0  0
  1  2  1  0
  2  3  1  0
  3  4  2  0
  3  5  1  0
  5  6  1  0
  6  7  1  0
  7  8  1  0
  8  9  1  0
  8 10  1  0
 10 11  1  0
 10 12  1  0
  1 13  1  0
  1 14  1  0
  1 15  1  0
  2 16  1  0
  5 17  1  0
  5 18  1  0
  6 19  1  0
  7 20  1  0
  7 21  1  0
  8 22  1  1
  9 23  1  0
 10 24  1  1
 11 25  1  0
 11 26  1  0
 11 27  1  0
 12 28  1  0
M  END
$$$$

     RDKit          3D

 28 27  0  0  0  0  0  0  0  0999 V2000
    5.0559   -0.2367    0.0145 C   0  0  0  0  0  0  0  0  0  0  0  0
    3.7129    0.0642    0.4248 N   0  0  0  0  0  0  0  0  0  0  0  0
    2.5952    0.0298   -0.4274 C   0  0  0  0  0  0  0  0  0  0  0  0
    2.7346   -0.2837   -1.6323 O   0  0  0  0  0  0  0  0  0  0  0  0
    1.2489    0.3621    0.0823 C   0  0  0  0  0  0  0  0  0  0  0  0
    0.2438    0.2907   -0.9160 N   0  0  0  0  0  0  0  0  0  0  0  0
   -1.0304    0.6848   -0.3972 C   0  0  0  0  0  0  0  0  0  0  0  0
   -1.5389   -0.3342    0.5695 C   0  0  2  0  0  0  0  0  0  0  0  0
   -1.6839   -1.5952   -0.0250 O   0  0  0  0  0  0  0  0  0  0  0  0
   -2.8941    0.1687    1.0556 C   0  0  1  0  0  0  0  0  0  0  0  0
   -3.8501    0.3725   -0.0845 C   0  0  0  0  0  0  0  0  0  0  0  0
   -3.3978   -0.7234    1.9842 O   0  0  0  0  0  0  0  0  0  0  0  0
    5.4125   -1.2395    0.3205 H   0  0  0  0  0  0  0  0  0  0  0  0
    5.7518    0.5115    0.4286 H   0  0  0  0  0  0  0  0  0  0  0  0
    5.1185   -0.1650   -1.0962 H   0  0  0  0  0  0  0  0  0  0  0  0
    3.5480    0.3297    1.4392 H   0  0  0  0  0  0  0  0  0  0  0  0
    1.0124   -0.3014    0.9644 H   0  0  0  0  0  0  0  0  0  0  0  0
    1.2693    1.4248    0.4530 H   0  0  0  0  0  0  0  0  0  0  0  0
    0.2614   -0.5135   -1.5437 H   0  0  0  0  0  0  0  0  0  0  0  0
   -0.9285    1.6371    0.1794 H   0  0  0  0  0  0  0  0  0  0  0  0
   -1.7775    0.8814   -1.2048 H   0  0  0  0  0  0  0  0  0  0  0  0
   -0.8914   -0.3806    1.4583 H   0  0  0  0  0  0  0  0  0  0  0  0
   -0.8355   -2.0683    0.0377 H   0  0  0  0  0  0  0  0  0  0  0  0
   -2.6861    1.1677    1.5235 H   0  0  0  0  0  0  0  0  0  0  0  0
   -3.8816    1.4423   -0.4291 H   0  0  0  0  0  0  0  0  0  0  0  0
   -3.6465   -0.2848   -0.9555 H   0  0  0  0  0  0  0  0  0  0  0  0
   -4.8760    0.1034    0.2674 H   0  0  0  0  0  0  0  0  0  0  0  0
   -4.0469   -1.3445    1.5992 H   0  0  0  0  0  0  0  0  0  0  0  0
  1  2  1  0
  2  3  1  0
  3  4  2  0
  3  5  1  0
  5  6  1  0
  6  7  1  0
  7  8  1  0
  8  9  1  0
  8 10  1  0
 10 11  1  0
 10 12  1  0
  1 13  1  0
  1 14  1  0
  1 15  1  0
  2 16  1  0
  5 17  1  0
  5 18  1  0
  6 19  1  0
  7 20  1  0
  7 21  1  0
  8 22  1  1
  9 23  1  0
 10 24  1  1
 11 25  1  0
 11 26  1  0
 11 27  1  0
 12 28  1  0
M  END
$$$$

     RDKit          3D

 28 27  0  0  0  0  0  0  0  0999 V2000
    5.0465    0.2710    0.0709 C   0  0  0  0  0  0  0  0  0  0  0  0
    3.6474    0.6234    0.1440 N   0  0  0  0  0  0  0  0  0  0  0  0
    2.6381   -0.4022    0.2061 C   0  0  0  0  0  0  0  0  0  0  0  0
    3.0048   -1.5792    0.1956 O   0  0  0  0  0  0  0  0  0  0  0  0
    1.1856    0.0137    0.2827 C   0  0  0  0  0  0  0  0  0  0  0  0
    0.3585   -1.1635    0.3474 N   0  0  0  0  0  0  0  0  0  0  0  0
   -1.0252   -0.9408    0.5091 C   0  0  0  0  0  0  0  0  0  0  0  0
   -1.7458   -0.3210   -0.6664 C   0  0  2  0  0  0  0  0  0  0  0  0
   -1.2556    0.9152   -1.0103 O   0  0  0  0  0  0  0  0  0  0  0  0
   -3.1996   -0.2140   -0.2267 C   0  0  1  0  0  0  0  0  0  0  0  0
   -3.3387    0.5645    1.0598 C   0  0  0  0  0  0  0  0  0  0  0  0
   -4.0384    0.3070   -1.1730 O   0  0  0  0  0  0  0  0  0  0  0  0
    5.2098   -0.5828   -0.6275 H   0  0  0  0  0  0  0  0  0  0  0  0
    5.6637    1.1673   -0.1874 H   0  0  0  0  0  0  0  0  0  0  0  0
    5.3280   -0.1131    1.0903 H   0  0  0  0  0  0  0  0  0  0  0  0
    3.3588    1.6193    0.1531 H   0  0  0  0  0  0  0  0  0  0  0  0
    1.0424    0.6740    1.1531 H   0  0  0  0  0  0  0  0  0  0  0  0
    0.9873    0.5966   -0.6501 H   0  0  0  0  0  0  0  0  0  0  0  0
    0.5913   -1.8505   -0.3788 H   0  0  0  0  0  0  0  0  0  0  0  0
   -1.5143   -1.9228    0.6977 H   0  0  0  0  0  0  0  0  0  0  0  0
   -1.2366   -0.3283    1.4175 H   0  0  0  0  0  0  0  0  0  0  0  0
   -1.6997   -1.0170   -1.5028 H   0  0  0  0  0  0  0  0  0  0  0  0
   -1.2373    1.5678   -0.2931 H   0  0  0  0  0  0  0  0  0  0  0  0
   -3.5251   -1.2711   -0.0514 H   0  0  0  0  0  0  0  0  0  0  0  0
   -2.6314    1.3905    1.1619 H   0  0  0  0  0  0  0  0  0  0  0  0
   -3.2244   -0.1883    1.8954 H   0  0  0  0  0  0  0  0  0  0  0  0
   -4.4079    0.8874    1.1305 H   0  0  0  0  0  0  0  0  0  0  0  0
   -3.9824    1.2966   -1.2782 H   0  0  0  0  0  0  0  0  0  0  0  0
  1  2  1  0
  2  3  1  0
  3  4  2  0
  3  5  1  0
  5  6  1  0
  6  7  1  0
  7  8  1  0
  8  9  1  0
  8 10  1  0
 10 11  1  0
 10 12  1  0
  1 13  1  0
  1 14  1  0
  1 15  1  0
  2 16  1  0
  5 17  1  0
  5 18  1  0
  6 19  1  0
  7 20  1  0
  7 21  1  0
  8 22  1  6
  9 23  1  0
 10 24  1  1
 11 25  1  0
 11 26  1  0
 11 27  1  0
 12 28  1  0
M  END
$$$$

     RDKit          3D

 28 27  0  0  0  0  0  0  0  0999 V2000
    4.4383    1.0957   -0.8254 C   0  0  0  0  0  0  0  0  0  0  0  0
    3.1669    0.4085   -0.6238 N   0  0  0  0  0  0  0  0  0  0  0  0
    2.4699    0.4703    0.6039 C   0  0  0  0  0  0  0  0  0  0  0  0
    3.0261    1.1638    1.5096 O   0  0  0  0  0  0  0  0  0  0  0  0
    1.1997   -0.1687    0.9330 C   0  0  0  0  0  0  0  0  0  0  0  0
    0.6013   -0.9177   -0.1243 N   0  0  0  0  0  0  0  0  0  0  0  0
   -0.5690   -1.5918    0.3793 C   0  0  0  0  0  0  0  0  0  0  0  0
   -1.7107   -0.7214    0.7755 C   0  0  2  0  0  0  0  0  0  0  0  0
   -2.7654   -1.5562    1.2447 O   0  0  0  0  0  0  0  0  0  0  0  0
   -2.3299    0.0663   -0.3549 C   0  0  1  0  0  0  0  0  0  0  0  0
   -3.5868    0.7642    0.1323 C   0  0  0  0  0  0  0  0  0  0  0  0
   -1.4823    0.9697   -0.9491 O   0  0  0  0  0  0  0  0  0  0  0  0
    5.2445    0.6184   -0.2199 H   0  0  0  0  0  0  0  0  0  0  0  0
    4.3984    2.1579   -0.5194 H   0  0  0  0  0  0  0  0  0  0  0  0
    4.7719    1.0316   -1.8700 H   0  0  0  0  0  0  0  0  0  0  0  0
    2.7189   -0.1562   -1.3697 H   0  0  0  0  0  0  0  0  0  0  0  0
    1.3201   -0.8280    1.8108 H   0  0  0  0  0  0  0  0  0  0  0  0
    0.4770    0.6699    1.1651 H   0  0  0  0  0  0  0  0  0  0  0  0
    0.3964   -0.3968   -0.9891 H   0  0  0  0  0  0  0  0  0  0  0  0
   -0.3119   -2.2508    1.2574 H   0  0  0  0  0  0  0  0  0  0  0  0
   -0.9256   -2.3318   -0.3970 H   0  0  0  0  0  0  0  0  0  0  0  0
   -1.4653   -0.0162    1.5913 H   0  0  0  0  0  0  0  0  0  0  0  0
   -2.6982   -2.3813    0.6658 H   0  0  0  0  0  0  0  0  0  0  0  0
   -2.6574   -0.6539   -1.1441 H   0  0  0  0  0  0  0  0  0  0  0  0
   -4.4869    0.1073   -0.0077 H   0  0  0  0  0  0  0  0  0  0  0  0
   -3.5167    0.9106    1.2486 H   0  0  0  0  0  0  0  0  0  0  0  0
   -3.7717    1.7372   -0.3461 H   0  0  0  0  0  0  0  0  0  0  0  0
   -1.9518    1.7996   -1.2223 H   0  0  0  0  0  0  0  0  0  0  0  0
  1  2  1  0
  2  3  1  0
  3  4  2  0
  3  5  1  0
  5  6  1  0
  6  7  1  0
  7  8  1  0
  8  9  1  0
  8 10  1  0
 10 11  1  0
 10 12  1  0
  1 13  1  0
  1 14  1  0
  1 15  1  0
  2 16  1  0
  5 17  1  0
  5 18  1  0
  6 19  1  0
  7 20  1  0
  7 21  1  0
  8 22  1  1
  9 23  1  0
 10 24  1  6
 11 25  1  0
 11 26  1  0
 11 27  1  0
 12 28  1  0
M  END
$$$$

     RDKit          3D

 28 27  0  0  0  0  0  0  0  0999 V2000
   -4.3768    0.7623   -0.1504 C   0  0  0  0  0  0  0  0  0  0  0  0
   -3.3763   -0.2773    0.1285 N   0  0  0  0  0  0  0  0  0  0  0  0
   -2.2348   -0.4500   -0.7097 C   0  0  0  0  0  0  0  0  0  0  0  0
   -2.1259    0.3258   -1.6967 O   0  0  0  0  0  0  0  0  0  0  0  0
   -1.2308   -1.5174   -0.3938 C   0  0  0  0  0  0  0  0  0  0  0  0
   -0.1448   -1.4994   -1.3463 N   0  0  0  0  0  0  0  0  0  0  0  0
    0.6949   -0.3489   -1.2457 C   0  0  0  0  0  0  0  0  0  0  0  0
    1.5524   -0.2611   -0.0341 C   0  0  2  0  0  0  0  0  0  0  0  0
    0.8969   -0.2360    1.1784 O   0  0  0  0  0  0  0  0  0  0  0  0
    2.5092    0.9174   -0.1444 C   0  0  1  0  0  0  0  0  0  0  0  0
    3.6805    0.7855    0.8319 C   0  0  0  0  0  0  0  0  0  0  0  0
    3.1103    0.9070   -1.4184 O   0  0  0  0  0  0  0  0  0  0  0  0
   -3.9229    1.5363   -0.8105 H   0  0  0  0  0  0  0  0  0  0  0  0
   -5.2695    0.3265   -0.6374 H   0  0  0  0  0  0  0  0  0  0  0  0
   -4.6571    1.2252    0.8109 H   0  0  0  0  0  0  0  0  0  0  0  0
   -3.5677   -0.8628    0.9821 H   0  0  0  0  0  0  0  0  0  0  0  0
   -1.7767   -2.4899   -0.5771 H   0  0  0  0  0  0  0  0  0  0  0  0
   -0.9524   -1.4969    0.6509 H   0  0  0  0  0  0  0  0  0  0  0  0
   -0.5841   -1.4679   -2.3023 H   0  0  0  0  0  0  0  0  0  0  0  0
    1.4017   -0.3734   -2.1235 H   0  0  0  0  0  0  0  0  0  0  0  0
    0.1529    0.6095   -1.3601 H   0  0  0  0  0  0  0  0  0  0  0  0
    2.2396   -1.1660    0.0360 H   0  0  0  0  0  0  0  0  0  0  0  0
    1.2194   -0.8794    1.8447 H   0  0  0  0  0  0  0  0  0  0  0  0
    2.0237    1.8834    0.0462 H   0  0  0  0  0  0  0  0  0  0  0  0
    4.2868    1.7319    0.7446 H   0  0  0  0  0  0  0  0  0  0  0  0
    4.2571   -0.0968    0.5337 H   0  0  0  0  0  0  0  0  0  0  0  0
    3.3654    0.6949    1.8749 H   0  0  0  0  0  0  0  0  0  0  0  0
    2.8288    1.7173   -1.9275 H   0  0  0  0  0  0  0  0  0  0  0  0
  1  2  1  0
  2  3  1  0
  3  4  2  0
  3  5  1  0
  5  6  1  0
  6  7  1  0
  7  8  1  0
  8  9  1  0
  8 10  1  0
 10 11  1  0
 10 12  1  0
  1 13  1  0
  1 14  1  0
  1 15  1  0
  2 16  1  0
  5 17  1  0
  5 18  1  0
  6 19  1  0
  7 20  1  0
  7 21  1  0
  8 22  1  1
  9 23  1  0
 10 24  1  1
 11 25  1  0
 11 26  1  0
 11 27  1  0
 12 28  1  0
M  END
$$$$

     RDKit          3D

 28 27  0  0  0  0  0  0  0  0999 V2000
    5.0895    0.3626   -0.0299 C   0  0  0  0  0  0  0  0  0  0  0  0
    3.8172   -0.0118    0.6039 N   0  0  0  0  0  0  0  0  0  0  0  0
    2.7105   -0.1240   -0.2786 C   0  0  0  0  0  0  0  0  0  0  0  0
    2.8215    0.0820   -1.5068 O   0  0  0  0  0  0  0  0  0  0  0  0
    1.3633   -0.5024    0.2817 C   0  0  0  0  0  0  0  0  0  0  0  0
    0.4667   -0.5625   -0.8096 N   0  0  0  0  0  0  0  0  0  0  0  0
   -0.8883   -0.8799   -0.5743 C   0  0  0  0  0  0  0  0  0  0  0  0
   -1.6184    0.2288    0.1288 C   0  0  2  0  0  0  0  0  0  0  0  0
   -1.1072    0.5161    1.3709 O   0  0  0  0  0  0  0  0  0  0  0  0
   -3.1116   -0.0817    0.2743 C   0  0  1  0  0  0  0  0  0  0  0  0
   -3.8406    1.1930    0.6892 C   0  0  0  0  0  0  0  0  0  0  0  0
   -3.6445   -0.4101   -0.9937 O   0  0  0  0  0  0  0  0  0  0  0  0
    5.2041    1.4805    0.0757 H   0  0  0  0  0  0  0  0  0  0  0  0
    5.0701    0.1376   -1.1224 H   0  0  0  0  0  0  0  0  0  0  0  0
    5.9469   -0.1373    0.4262 H   0  0  0  0  0  0  0  0  0  0  0  0
    3.7523   -0.1859    1.6328 H   0  0  0  0  0  0  0  0  0  0  0  0
    1.1137    0.2006    1.0942 H   0  0  0  0  0  0  0  0  0  0  0  0
    1.5309   -1.5232    0.7427 H   0  0  0  0  0  0  0  0  0  0  0  0
    0.8604   -0.9237   -1.6900 H   0  0  0  0  0  0  0  0  0  0  0  0
   -1.0063   -1.7992    0.0862 H   0  0  0  0  0  0  0  0  0  0  0  0
   -1.4126   -1.1330   -1.5362 H   0  0  0  0  0  0  0  0  0  0  0  0
   -1.5072    1.1532   -0.5310 H   0  0  0  0  0  0  0  0  0  0  0  0
   -1.7535    0.2495    2.0708 H   0  0  0  0  0  0  0  0  0  0  0  0
   -3.2461   -0.8564    1.0202 H   0  0  0  0  0  0  0  0  0  0  0  0
   -3.6133    1.9645   -0.0853 H   0  0  0  0  0  0  0  0  0  0  0  0
   -4.9375    0.9585    0.6540 H   0  0  0  0  0  0  0  0  0  0  0  0
   -3.5499    1.5038    1.6963 H   0  0  0  0  0  0  0  0  0  0  0  0
   -4.5102   -0.8994   -0.8234 H   0  0  0  0  0  0  0  0  0  0  0  0
  1  2  1  0
  2  3  1  0
  3  4  2  0
  3  5  1  0
  5  6  1  0
  6  7  1  0
  7  8  1  0
  8  9  1  0
  8 10  1  0
 10 11  1  0
 10 12  1  0
  1 13  1  0
  1 14  1  0
  1 15  1  0
  2 16  1  0
  5 17  1  0
  5 18  1  0
  6 19  1  0
  7 20  1  0
  7 21  1  0
  8 22  1  6
  9 23  1  0
 10 24  1  1
 11 25  1  0
 11 26  1  0
 11 27  1  0
 12 28  1  0
M  END
$$$$

     RDKit          3D

 28 27  0  0  0  0  0  0  0  0999 V2000
   -4.7165    0.9188   -0.5809 C   0  0  0  0  0  0  0  0  0  0  0  0
   -3.8499    0.2372    0.3326 N   0  0  0  0  0  0  0  0  0  0  0  0
   -2.5002   -0.1572    0.0468 C   0  0  0  0  0  0  0  0  0  0  0  0
   -2.0916    0.1360   -1.1067 O   0  0  0  0  0  0  0  0  0  0  0  0
   -1.6817   -0.8539    1.0645 C   0  0  0  0  0  0  0  0  0  0  0  0
   -0.4002   -1.1341    0.5768 N   0  0  0  0  0  0  0  0  0  0  0  0
    0.4946   -0.0875    0.3116 C   0  0  0  0  0  0  0  0  0  0  0  0
    1.8940   -0.5671   -0.0451 C   0  0  2  0  0  0  0  0  0  0  0  0
    2.3697   -1.2748    1.0651 O   0  0  0  0  0  0  0  0  0  0  0  0
    2.7568    0.6524   -0.2406 C   0  0  1  0  0  0  0  0  0  0  0  0
    4.2259    0.3054   -0.2398 C   0  0  0  0  0  0  0  0  0  0  0  0
    2.3555    1.3673   -1.3707 O   0  0  0  0  0  0  0  0  0  0  0  0
   -4.7822    1.9857   -0.2117 H   0  0  0  0  0  0  0  0  0  0  0  0
   -5.7497    0.5045   -0.5333 H   0  0  0  0  0  0  0  0  0  0  0  0
   -4.2994    0.9717   -1.6007 H   0  0  0  0  0  0  0  0  0  0  0  0
   -4.1961   -0.0114    1.2933 H   0  0  0  0  0  0  0  0  0  0  0  0
   -2.2584   -1.7526    1.3963 H   0  0  0  0  0  0  0  0  0  0  0  0
   -1.5815   -0.2036    1.9834 H   0  0  0  0  0  0  0  0  0  0  0  0
   -0.2134   -2.0448    0.1281 H   0  0  0  0  0  0  0  0  0  0  0  0
    0.5943    0.6215    1.1462 H   0  0  0  0  0  0  0  0  0  0  0  0
    0.1305    0.4691   -0.5939 H   0  0  0  0  0  0  0  0  0  0  0  0
    1.8626   -1.2087   -0.9190 H   0  0  0  0  0  0  0  0  0  0  0  0
    2.2197   -2.2294    0.8887 H   0  0  0  0  0  0  0  0  0  0  0  0
    2.5998    1.3748    0.6154 H   0  0  0  0  0  0  0  0  0  0  0  0
    4.7613    0.7381    0.6474 H   0  0  0  0  0  0  0  0  0  0  0  0
    4.7005    0.7715   -1.1330 H   0  0  0  0  0  0  0  0  0  0  0  0
    4.3343   -0.8035   -0.2944 H   0  0  0  0  0  0  0  0  0  0  0  0
    3.0212    1.2748   -2.1151 H   0  0  0  0  0  0  0  0  0  0  0  0
  1  2  1  0
  2  3  1  0
  3  4  2  0
  3  5  1  0
  5  6  1  0
  6  7  1  0
  7  8  1  0
  8  9  1  0
  8 10  1  0
 10 11  1  0
 10 12  1  0
  1 13  1  0
  1 14  1  0
  1 15  1  0
  2 16  1  0
  5 17  1  0
  5 18  1  0
  6 19  1  0
  7 20  1  0
  7 21  1  0
  8 22  1  6
  9 23  1  0
 10 24  1  1
 11 25  1  0
 11 26  1  0
 11 27  1  0
 12 28  1  0
M  END
$$$$

     RDKit          3D

 28 27  0  0  0  0  0  0  0  0999 V2000
    4.6365   -1.1063   -0.2690 C   0  0  0  0  0  0  0  0  0  0  0  0
    3.2558   -0.7093   -0.0653 N   0  0  0  0  0  0  0  0  0  0  0  0
    3.0103    0.6609    0.2321 C   0  0  0  0  0  0  0  0  0  0  0  0
    3.9709    1.4683    0.3082 O   0  0  0  0  0  0  0  0  0  0  0  0
    1.6484    1.1553    0.4537 C   0  0  0  0  0  0  0  0  0  0  0  0
    0.6774    0.0842    0.3256 N   0  0  0  0  0  0  0  0  0  0  0  0
   -0.6586    0.6131    0.5516 C   0  0  0  0  0  0  0  0  0  0  0  0
   -1.6246   -0.5236    0.4100 C   0  0  2  0  0  0  0  0  0  0  0  0
   -1.5251   -1.0606   -0.8698 O   0  0  0  0  0  0  0  0  0  0  0  0
   -3.0443   -0.1355    0.7374 C   0  0  1  0  0  0  0  0  0  0  0  0
   -3.6161    0.8760   -0.1940 C   0  0  0  0  0  0  0  0  0  0  0  0
   -3.8174   -1.2992    0.6518 O   0  0  0  0  0  0  0  0  0  0  0  0
    4.7323   -2.2100   -0.3498 H   0  0  0  0  0  0  0  0  0  0  0  0
    4.9769   -0.6763   -1.2493 H   0  0  0  0  0  0  0  0  0  0  0  0
    5.2884   -0.6899    0.5301 H   0  0  0  0  0  0  0  0  0  0  0  0
    2.4567   -1.3519   -0.1227 H   0  0  0  0  0  0  0  0  0  0  0  0
    1.3333    1.9553   -0.2422 H   0  0  0  0  0  0  0  0  0  0  0  0
    1.5759    1.5847    1.4734 H   0  0  0  0  0  0  0  0  0  0  0  0
    0.7260   -0.3823   -0.6023 H   0  0  0  0  0  0  0  0  0  0  0  0
   -0.8810    1.4109   -0.1963 H   0  0  0  0  0  0  0  0  0  0  0  0
   -0.7025    1.0614    1.5616 H   0  0  0  0  0  0  0  0  0  0  0  0
   -1.3209   -1.3197    1.1208 H   0  0  0  0  0  0  0  0  0  0  0  0
   -2.1090   -1.8318   -1.0152 H   0  0  0  0  0  0  0  0  0  0  0  0
   -3.1070    0.2190    1.7784 H   0  0  0  0  0  0  0  0  0  0  0  0
   -4.2924    1.5810    0.3354 H   0  0  0  0  0  0  0  0  0  0  0  0
   -2.8445    1.4690   -0.7455 H   0  0  0  0  0  0  0  0  0  0  0  0
   -4.2204    0.3736   -0.9786 H   0  0  0  0  0  0  0  0  0  0  0  0
   -4.5249   -1.2164   -0.0263 H   0  0  0  0  0  0  0  0  0  0  0  0
  1  2  1  0
  2  3  1  0
  3  4  2  0
  3  5  1  0
  5  6  1  0
  6  7  1  0
  7  8  1  0
  8  9  1  0
  8 10  1  0
 10 11  1  0
 10 12  1  0
  1 13  1  0
  1 14  1  0
  1 15  1  0
  2 16  1  0
  5 17  1  0
  5 18  1  0
  6 19  1  0
  7 20  1  0
  7 21  1  0
  8 22  1  1
  9 23  1  0
 10 24  1  1
 11 25  1  0
 11 26  1  0
 11 27  1  0
 12 28  1  0
M  END
$$$$
