
     RDKit          3D

 25 24  0  0  0  0  0  0  0  0999 V2000
   -2.7043    0.5846    0.7901 C   0  0  0  0  0  0  0  0  0  0  0  0
   -2.5655   -0.1007   -0.5489 C   0  0  2  0  0  0  0  0  0  0  0  0
   -2.8347   -1.4490   -0.3733 O   0  0  0  0  0  0  0  0  0  0  0  0
   -1.1954    0.1275   -1.1530 C   0  0  1  0  0  0  0  0  0  0  0  0
   -0.9535    1.4777   -1.3164 O   0  0  0  0  0  0  0  0  0  0  0  0
   -0.1332   -0.5214   -0.2586 C   0  0  0  0  0  0  0  0  0  0  0  0
    1.1540   -0.3478   -0.8725 N   0  0  0  0  0  0  0  0  0  0  0  0
    2.3715   -0.5449    0.0773 S   0  0  2  0  0  6  0  0  0  0  0  0
    2.5703    0.9663    0.9852 C   0  0  0  0  0  0  0  0  0  0  0  0
    3.8116   -0.8652   -0.7952 N   0  0  0  0  0  0  0  0  0  0  0  0
    1.9884   -1.6812    0.9848 O   0  0  0  0  0  0  0  0  0  0  0  0
   -2.4651    1.6571    0.7469 H   0  0  0  0  0  0  0  0  0  0  0  0
   -3.7725    0.4827    1.0963 H   0  0  0  0  0  0  0  0  0  0  0  0
   -2.1153    0.0568    1.5730 H   0  0  0  0  0  0  0  0  0  0  0  0
   -3.3580    0.3008   -1.2116 H   0  0  0  0  0  0  0  0  0  0  0  0
   -3.3111   -1.6102    0.4927 H   0  0  0  0  0  0  0  0  0  0  0  0
   -1.1951   -0.3416   -2.1579 H   0  0  0  0  0  0  0  0  0  0  0  0
   -0.8454    1.9678   -0.4692 H   0  0  0  0  0  0  0  0  0  0  0  0
   -0.3822   -1.5790   -0.0633 H   0  0  0  0  0  0  0  0  0  0  0  0
   -0.2079    0.0035    0.7148 H   0  0  0  0  0  0  0  0  0  0  0  0
    3.4127    1.5898    0.5766 H   0  0  0  0  0  0  0  0  0  0  0  0
    2.7292    0.7744    2.0720 H   0  0  0  0  0  0  0  0  0  0  0  0
    1.6602    1.6111    0.9276 H   0  0  0  0  0  0  0  0  0  0  0  0
    4.6040   -0.8706   -0.1417 H   0  0  0  0  0  0  0  0  0  0  0  0
    3.7373   -1.6884   -1.4156 H   0  0  0  0  0  0  0  0  0  0  0  0
  1  2  1  0
  2  3  1  0
  2  4  1  0
  4  5  1  0
  4  6  1  0
  6  7  1  0
  7  8  2  0
  8  9  1  0
  8 10  1  6
  8 11  2  0
  1 12  1  0
  1 13  1  0
  1 14  1  0
  2 15  1  6
  3 16  1  0
  4 17  1  6
  5 18  1  0
  6 19  1  0
  6 20  1  0
  9 21  1  0
  9 22  1  0
  9 23  1  0
 10 24  1  0
 10 25  1  0
M  END
$$$$

     RDKit          3D

 25 24  0  0  0  0  0  0  0  0999 V2000
   -2.8840   -0.1166   -1.0799 C   0  0  0  0  0  0  0  0  0  0  0  0
   -2.6474    0.1739    0.3803 C   0  0  2  0  0  0  0  0  0  0  0  0
   -2.6753    1.5274    0.6772 O   0  0  0  0  0  0  0  0  0  0  0  0
   -1.3257   -0.4146    0.8075 C   0  0  1  0  0  0  0  0  0  0  0  0
   -1.3572   -1.7705    0.4848 O   0  0  0  0  0  0  0  0  0  0  0  0
   -0.1691    0.2781    0.1032 C   0  0  0  0  0  0  0  0  0  0  0  0
    1.0304   -0.3762    0.5574 N   0  0  0  0  0  0  0  0  0  0  0  0
    2.3447    0.1046   -0.1217 S   0  0  2  0  0  6  0  0  0  0  0  0
    3.5221   -1.2086    0.0044 C   0  0  0  0  0  0  0  0  0  0  0  0
    2.8799    1.4952    0.7707 N   0  0  0  0  0  0  0  0  0  0  0  0
    2.0000    0.4374   -1.5287 O   0  0  0  0  0  0  0  0  0  0  0  0
   -3.7836   -0.7593   -1.2261 H   0  0  0  0  0  0  0  0  0  0  0  0
   -3.0970    0.8335   -1.6165 H   0  0  0  0  0  0  0  0  0  0  0  0
   -2.0410   -0.6570   -1.5531 H   0  0  0  0  0  0  0  0  0  0  0  0
   -3.4309   -0.3343    0.9980 H   0  0  0  0  0  0  0  0  0  0  0  0
   -3.5099    1.9440    0.3496 H   0  0  0  0  0  0  0  0  0  0  0  0
   -1.2086   -0.2632    1.8908 H   0  0  0  0  0  0  0  0  0  0  0  0
   -0.7770   -1.8906   -0.3099 H   0  0  0  0  0  0  0  0  0  0  0  0
   -0.1203    1.3266    0.4252 H   0  0  0  0  0  0  0  0  0  0  0  0
   -0.2791    0.2661   -0.9883 H   0  0  0  0  0  0  0  0  0  0  0  0
    3.3973   -1.6721    1.0054 H   0  0  0  0  0  0  0  0  0  0  0  0
    4.5639   -0.8790   -0.0748 H   0  0  0  0  0  0  0  0  0  0  0  0
    3.2411   -1.9847   -0.7327 H   0  0  0  0  0  0  0  0  0  0  0  0
    3.9163    1.5931    0.7455 H   0  0  0  0  0  0  0  0  0  0  0  0
    2.4104    2.3469    0.3959 H   0  0  0  0  0  0  0  0  0  0  0  0
  1  2  1  0
  2  3  1  0
  2  4  1  0
  4  5  1  0
  4  6  1  0
  6  7  1  0
  7  8  2  0
  8  9  1  0
  8 10  1  1
  8 11  2  0
  1 12  1  0
  1 13  1  0
  1 14  1  0
  2 15  1  1
  3 16  1  0
  4 17  1  1
  5 18  1  0
  6 19  1  0
  6 20  1  0
  9 21  1  0
  9 22  1  0
  9 23  1  0
 10 24  1  0
 10 25  1  0
M  END
$$$$

     RDKit          3D

 25 24  0  0  0  0  0  0  0  0999 V2000
    3.3209   -0.1428    0.6450 C   0  0  0  0  0  0  0  0  0  0  0  0
    1.8095   -0.0188    0.6727 C   0  0  2  0  0  0  0  0  0  0  0  0
    1.3030   -1.2279    0.1934 O   0  0  0  0  0  0  0  0  0  0  0  0
    1.4244    1.0960   -0.2687 C   0  0  1  0  0  0  0  0  0  0  0  0
    1.9661    0.8098   -1.5205 O   0  0  0  0  0  0  0  0  0  0  0  0
   -0.0723    1.2814   -0.3522 C   0  0  0  0  0  0  0  0  0  0  0  0
   -0.7616    0.1450   -0.8328 N   0  0  0  0  0  0  0  0  0  0  0  0
   -2.1222   -0.2206   -0.1496 S   0  0  2  0  0  6  0  0  0  0  0  0
   -2.5451   -1.9111   -0.3730 C   0  0  0  0  0  0  0  0  0  0  0  0
   -3.3992    0.8031   -0.7116 N   0  0  0  0  0  0  0  0  0  0  0  0
   -1.9210    0.1213    1.3198 O   0  0  0  0  0  0  0  0  0  0  0  0
    3.6723   -0.0794   -0.4199 H   0  0  0  0  0  0  0  0  0  0  0  0
    3.7636    0.7085    1.2000 H   0  0  0  0  0  0  0  0  0  0  0  0
    3.6612   -1.1283    1.0100 H   0  0  0  0  0  0  0  0  0  0  0  0
    1.4696    0.1773    1.7114 H   0  0  0  0  0  0  0  0  0  0  0  0
    1.9341   -1.5164   -0.5405 H   0  0  0  0  0  0  0  0  0  0  0  0
    1.8628    2.0532    0.0742 H   0  0  0  0  0  0  0  0  0  0  0  0
    1.2929    0.7975   -2.2380 H   0  0  0  0  0  0  0  0  0  0  0  0
   -0.2347    2.1040   -1.1035 H   0  0  0  0  0  0  0  0  0  0  0  0
   -0.4606    1.6867    0.6042 H   0  0  0  0  0  0  0  0  0  0  0  0
   -1.5995   -2.4947   -0.4123 H   0  0  0  0  0  0  0  0  0  0  0  0
   -3.1603   -2.0485   -1.2816 H   0  0  0  0  0  0  0  0  0  0  0  0
   -3.1820   -2.2193    0.4833 H   0  0  0  0  0  0  0  0  0  0  0  0
   -3.9114    0.3970   -1.5208 H   0  0  0  0  0  0  0  0  0  0  0  0
   -4.1105    0.8272    0.0791 H   0  0  0  0  0  0  0  0  0  0  0  0
  1  2  1  0
  2  3  1  0
  2  4  1  0
  4  5  1  0
  4  6  1  0
  6  7  1  0
  7  8  2  0
  8  9  1  0
  8 10  1  6
  8 11  2  0
  1 12  1  0
  1 13  1  0
  1 14  1  0
  2 15  1  1
  3 16  1  0
  4 17  1  1
  5 18  1  0
  6 19  1  0
  6 20  1  0
  9 21  1  0
  9 22  1  0
  9 23  1  0
 10 24  1  0
 10 25  1  0
M  END
$$$$

     RDKit          3D

 25 24  0  0  0  0  0  0  0  0999 V2000
    3.6253   -0.7617   -0.0201 C   0  0  0  0  0  0  0  0  0  0  0  0
    2.4488    0.1438   -0.2533 C   0  0  2  0  0  0  0  0  0  0  0  0
    2.6574    1.3888    0.3317 O   0  0  0  0  0  0  0  0  0  0  0  0
    1.1589   -0.4213    0.2626 C   0  0  1  0  0  0  0  0  0  0  0  0
    1.1261   -0.5947    1.6254 O   0  0  0  0  0  0  0  0  0  0  0  0
    0.0579    0.5748   -0.0987 C   0  0  0  0  0  0  0  0  0  0  0  0
   -1.1848   -0.0266    0.3453 N   0  0  0  0  0  0  0  0  0  0  0  0
   -2.4730    0.4585   -0.3871 S   0  0  2  0  0  6  0  0  0  0  0  0
   -3.8705   -0.1038    0.5355 C   0  0  0  0  0  0  0  0  0  0  0  0
   -2.4387   -0.1422   -1.9873 N   0  0  0  0  0  0  0  0  0  0  0  0
   -2.3983    1.9547   -0.4502 O   0  0  0  0  0  0  0  0  0  0  0  0
    3.4623   -1.6937   -0.6279 H   0  0  0  0  0  0  0  0  0  0  0  0
    4.5255   -0.2330   -0.4117 H   0  0  0  0  0  0  0  0  0  0  0  0
    3.7226   -1.0500    1.0412 H   0  0  0  0  0  0  0  0  0  0  0  0
    2.3288    0.2831   -1.3531 H   0  0  0  0  0  0  0  0  0  0  0  0
    2.1861    2.0648   -0.2292 H   0  0  0  0  0  0  0  0  0  0  0  0
    0.9049   -1.3539   -0.2973 H   0  0  0  0  0  0  0  0  0  0  0  0
    1.9165   -1.0423    1.9950 H   0  0  0  0  0  0  0  0  0  0  0  0
    0.2383    1.5404    0.3866 H   0  0  0  0  0  0  0  0  0  0  0  0
    0.0107    0.7043   -1.1986 H   0  0  0  0  0  0  0  0  0  0  0  0
   -3.9438   -1.2088    0.3729 H   0  0  0  0  0  0  0  0  0  0  0  0
   -4.8196    0.3784    0.2136 H   0  0  0  0  0  0  0  0  0  0  0  0
   -3.6863    0.0873    1.6066 H   0  0  0  0  0  0  0  0  0  0  0  0
   -3.2349    0.2109   -2.5316 H   0  0  0  0  0  0  0  0  0  0  0  0
   -2.3200   -1.1578   -1.9572 H   0  0  0  0  0  0  0  0  0  0  0  0
  1  2  1  0
  2  3  1  0
  2  4  1  0
  4  5  1  0
  4  6  1  0
  6  7  1  0
  7  8  2  0
  8  9  1  0
  8 10  1  6
  8 11  2  0
  1 12  1  0
  1 13  1  0
  1 14  1  0
  2 15  1  6
  3 16  1  0
  4 17  1  6
  5 18  1  0
  6 19  1  0
  6 20  1  0
  9 21  1  0
  9 22  1  0
  9 23  1  0
 10 24  1  0
 10 25  1  0
M  END
$$$$

     RDKit          3D

 25 24  0  0  0  0  0  0  0  0999 V2000
    3.1484    0.9040   -0.1718 C   0  0  0  0  0  0  0  0  0  0  0  0
    2.5474   -0.4468    0.0117 C   0  0  2  0  0  0  0  0  0  0  0  0
    3.3658   -1.4125   -0.5713 O   0  0  0  0  0  0  0  0  0  0  0  0
    1.1590   -0.5775   -0.5532 C   0  0  1  0  0  0  0  0  0  0  0  0
    0.6899   -1.8564   -0.2562 O   0  0  0  0  0  0  0  0  0  0  0  0
    0.1931    0.4153    0.0045 C   0  0  0  0  0  0  0  0  0  0  0  0
   -1.0855    0.1769   -0.6181 N   0  0  0  0  0  0  0  0  0  0  0  0
   -2.3821    0.2169    0.2298 S   0  0  2  0  0  6  0  0  0  0  0  0
   -3.6292   -0.8066   -0.5168 C   0  0  0  0  0  0  0  0  0  0  0  0
   -2.9009    1.8738    0.2856 N   0  0  0  0  0  0  0  0  0  0  0  0
   -2.0527   -0.2399    1.6105 O   0  0  0  0  0  0  0  0  0  0  0  0
    4.2382    0.7760   -0.3574 H   0  0  0  0  0  0  0  0  0  0  0  0
    3.0314    1.4922    0.7678 H   0  0  0  0  0  0  0  0  0  0  0  0
    2.7547    1.4521   -1.0514 H   0  0  0  0  0  0  0  0  0  0  0  0
    2.5201   -0.6777    1.1040 H   0  0  0  0  0  0  0  0  0  0  0  0
    3.0185   -1.7228   -1.4462 H   0  0  0  0  0  0  0  0  0  0  0  0
    1.1954   -0.4924   -1.6616 H   0  0  0  0  0  0  0  0  0  0  0  0
    0.3854   -2.3481   -1.0426 H   0  0  0  0  0  0  0  0  0  0  0  0
    0.4837    1.4591   -0.1233 H   0  0  0  0  0  0  0  0  0  0  0  0
    0.1006    0.2317    1.0962 H   0  0  0  0  0  0  0  0  0  0  0  0
   -4.2543   -0.2144   -1.2282 H   0  0  0  0  0  0  0  0  0  0  0  0
   -3.1539   -1.6153   -1.1085 H   0  0  0  0  0  0  0  0  0  0  0  0
   -4.2711   -1.1839    0.3022 H   0  0  0  0  0  0  0  0  0  0  0  0
   -3.0127    2.1766   -0.7091 H   0  0  0  0  0  0  0  0  0  0  0  0
   -2.0893    2.4194    0.6726 H   0  0  0  0  0  0  0  0  0  0  0  0
  1  2  1  0
  2  3  1  0
  2  4  1  0
  4  5  1  0
  4  6  1  0
  6  7  1  0
  7  8  2  0
  8  9  1  0
  8 10  1  1
  8 11  2  0
  1 12  1  0
  1 13  1  0
  1 14  1  0
  2 15  1  1
  3 16  1  0
  4 17  1  6
  5 18  1  0
  6 19  1  0
  6 20  1  0
  9 21  1  0
  9 22  1  0
  9 23  1  0
 10 24  1  0
 10 25  1  0
M  END
$$$$

     RDKit          3D

 25 24  0  0  0  0  0  0  0  0999 V2000
   -2.7158    0.6491   -0.5316 C   0  0  0  0  0  0  0  0  0  0  0  0
   -2.5363   -0.5771    0.3442 C   0  0  2  0  0  0  0  0  0  0  0  0
   -2.7259   -0.2437    1.6934 O   0  0  0  0  0  0  0  0  0  0  0  0
   -1.1151   -1.0874    0.1909 C   0  0  1  0  0  0  0  0  0  0  0  0
   -0.8351   -1.4408   -1.1048 O   0  0  0  0  0  0  0  0  0  0  0  0
   -0.1922    0.0325    0.6834 C   0  0  0  0  0  0  0  0  0  0  0  0
    1.1714   -0.4169    0.6165 N   0  0  0  0  0  0  0  0  0  0  0  0
    2.1683    0.4119   -0.2505 S   0  0  2  0  0  6  0  0  0  0  0  0
    3.5924   -0.5828   -0.5477 C   0  0  0  0  0  0  0  0  0  0  0  0
    2.6145    1.8607    0.5599 N   0  0  0  0  0  0  0  0  0  0  0  0
    1.4392    0.7717   -1.5179 O   0  0  0  0  0  0  0  0  0  0  0  0
   -3.7990    0.7730   -0.7245 H   0  0  0  0  0  0  0  0  0  0  0  0
   -2.1331    0.5393   -1.4734 H   0  0  0  0  0  0  0  0  0  0  0  0
   -2.3956    1.5767   -0.0005 H   0  0  0  0  0  0  0  0  0  0  0  0
   -3.2323   -1.3823    0.0418 H   0  0  0  0  0  0  0  0  0  0  0  0
   -2.1023   -0.7934    2.2571 H   0  0  0  0  0  0  0  0  0  0  0  0
   -1.0207   -1.9772    0.8413 H   0  0  0  0  0  0  0  0  0  0  0  0
   -1.6518   -1.5896   -1.6401 H   0  0  0  0  0  0  0  0  0  0  0  0
   -0.3885    0.9329    0.1015 H   0  0  0  0  0  0  0  0  0  0  0  0
   -0.4000    0.2414    1.7508 H   0  0  0  0  0  0  0  0  0  0  0  0
    4.5122    0.0446   -0.5516 H   0  0  0  0  0  0  0  0  0  0  0  0
    3.4605   -1.1219   -1.5056 H   0  0  0  0  0  0  0  0  0  0  0  0
    3.7483   -1.3383    0.2522 H   0  0  0  0  0  0  0  0  0  0  0  0
    2.0269    2.0094    1.4097 H   0  0  0  0  0  0  0  0  0  0  0  0
    2.5099    2.7081   -0.0474 H   0  0  0  0  0  0  0  0  0  0  0  0
  1  2  1  0
  2  3  1  0
  2  4  1  0
  4  5  1  0
  4  6  1  0
  6  7  1  0
  7  8  2  0
  8  9  1  0
  8 10  1  1
  8 11  2  0
  1 12  1  0
  1 13  1  0
  1 14  1  0
  2 15  1  6
  3 16  1  0
  4 17  1  1
  5 18  1  0
  6 19  1  0
  6 20  1  0
  9 21  1  0
  9 22  1  0
  9 23  1  0
 10 24  1  0
 10 25  1  0
M  END
$$$$

     RDKit          3D

 25 24  0  0  0  0  0  0  0  0999 V2000
   -3.0934    1.0728   -0.2150 C   0  0  0  0  0  0  0  0  0  0  0  0
   -1.9955    0.0540   -0.5542 C   0  0  2  0  0  0  0  0  0  0  0  0
   -2.6255   -1.1458   -0.8115 O   0  0  0  0  0  0  0  0  0  0  0  0
   -1.0877    0.0131    0.6304 C   0  0  1  0  0  0  0  0  0  0  0  0
   -1.8619   -0.3267    1.7493 O   0  0  0  0  0  0  0  0  0  0  0  0
    0.0299   -0.9611    0.5386 C   0  0  0  0  0  0  0  0  0  0  0  0
    0.9219   -0.7815   -0.5302 N   0  0  0  0  0  0  0  0  0  0  0  0
    2.1678    0.1311   -0.2392 S   0  0  2  0  0  6  0  0  0  0  0  0
    3.1409    0.3713   -1.6786 C   0  0  0  0  0  0  0  0  0  0  0  0
    3.0947   -0.4858    1.0811 N   0  0  0  0  0  0  0  0  0  0  0  0
    1.5386    1.4264    0.2499 O   0  0  0  0  0  0  0  0  0  0  0  0
   -3.7010    1.3291   -1.0834 H   0  0  0  0  0  0  0  0  0  0  0  0
   -2.6254    2.0047    0.2172 H   0  0  0  0  0  0  0  0  0  0  0  0
   -3.7031    0.6478    0.6177 H   0  0  0  0  0  0  0  0  0  0  0  0
   -1.5243    0.3994   -1.4785 H   0  0  0  0  0  0  0  0  0  0  0  0
   -3.1292   -1.5151   -0.0616 H   0  0  0  0  0  0  0  0  0  0  0  0
   -0.6919    1.0271    0.8245 H   0  0  0  0  0  0  0  0  0  0  0  0
   -2.0485   -1.3160    1.7325 H   0  0  0  0  0  0  0  0  0  0  0  0
   -0.4082   -1.9953    0.4508 H   0  0  0  0  0  0  0  0  0  0  0  0
    0.5712   -0.9571    1.5067 H   0  0  0  0  0  0  0  0  0  0  0  0
    2.9473    1.3295   -2.1978 H   0  0  0  0  0  0  0  0  0  0  0  0
    4.2200    0.4057   -1.3782 H   0  0  0  0  0  0  0  0  0  0  0  0
    3.0425   -0.5024   -2.3618 H   0  0  0  0  0  0  0  0  0  0  0  0
    2.7512   -0.1048    2.0109 H   0  0  0  0  0  0  0  0  0  0  0  0
    4.0693   -0.1204    0.9804 H   0  0  0  0  0  0  0  0  0  0  0  0
  1  2  1  0
  2  3  1  0
  2  4  1  0
  4  5  1  0
  4  6  1  0
  6  7  1  0
  7  8  2  0
  8  9  1  0
  8 10  1  1
  8 11  2  0
  1 12  1  0
  1 13  1  0
  1 14  1  0
  2 15  1  6
  3 16  1  0
  4 17  1  1
  5 18  1  0
  6 19  1  0
  6 20  1  0
  9 21  1  0
  9 22  1  0
  9 23  1  0
 10 24  1  0
 10 25  1  0
M  END
$$$$

     RDKit          3D

 25 24  0  0  0  0  0  0  0  0999 V2000
   -2.5326   -0.5324   -0.9462 C   0  0  0  0  0  0  0  0  0  0  0  0
   -2.5092   -0.0371    0.4677 C   0  0  2  0  0  0  0  0  0  0  0  0
   -3.7104    0.5534    0.7736 O   0  0  0  0  0  0  0  0  0  0  0  0
   -1.3221    0.9069    0.6949 C   0  0  1  0  0  0  0  0  0  0  0  0
   -1.3517    1.2461    2.0456 O   0  0  0  0  0  0  0  0  0  0  0  0
   -0.0833    0.0982    0.3896 C   0  0  0  0  0  0  0  0  0  0  0  0
    1.1203    0.8240    0.6881 N   0  0  0  0  0  0  0  0  0  0  0  0
    2.3439    0.3667   -0.1935 S   0  0  2  0  0  6  0  0  0  0  0  0
    2.5616   -1.3721    0.1057 C   0  0  0  0  0  0  0  0  0  0  0  0
    3.7424    1.2777    0.1731 N   0  0  0  0  0  0  0  0  0  0  0  0
    1.8908    0.5276   -1.6051 O   0  0  0  0  0  0  0  0  0  0  0  0
   -3.5411   -0.9875   -1.1177 H   0  0  0  0  0  0  0  0  0  0  0  0
   -1.7959   -1.3612   -1.1263 H   0  0  0  0  0  0  0  0  0  0  0  0
   -2.3906    0.2865   -1.6787 H   0  0  0  0  0  0  0  0  0  0  0  0
   -2.3209   -0.9204    1.1364 H   0  0  0  0  0  0  0  0  0  0  0  0
   -3.6922    1.1212    1.5906 H   0  0  0  0  0  0  0  0  0  0  0  0
   -1.4112    1.8008    0.0416 H   0  0  0  0  0  0  0  0  0  0  0  0
   -0.9777    0.5035    2.5528 H   0  0  0  0  0  0  0  0  0  0  0  0
   -0.1073   -0.7761    1.1004 H   0  0  0  0  0  0  0  0  0  0  0  0
   -0.1395   -0.2647   -0.6360 H   0  0  0  0  0  0  0  0  0  0  0  0
    2.0826   -1.6721    1.0726 H   0  0  0  0  0  0  0  0  0  0  0  0
    2.0513   -1.9806   -0.6845 H   0  0  0  0  0  0  0  0  0  0  0  0
    3.6316   -1.6575    0.1239 H   0  0  0  0  0  0  0  0  0  0  0  0
    3.9191    1.1848    1.1979 H   0  0  0  0  0  0  0  0  0  0  0  0
    4.5419    0.8643   -0.3209 H   0  0  0  0  0  0  0  0  0  0  0  0
  1  2  1  0
  2  3  1  0
  2  4  1  0
  4  5  1  0
  4  6  1  0
  6  7  1  0
  7  8  2  0
  8  9  1  0
  8 10  1  6
  8 11  2  0
  1 12  1  0
  1 13  1  0
  1 14  1  0
  2 15  1  1
  3 16  1  0
  4 17  1  6
  5 18  1  0
  6 19  1  0
  6 20  1  0
  9 21  1  0
  9 22  1  0
  9 23  1  0
 10 24  1  0
 10 25  1  0
M  END
$$$$
